0:0
     RDKit          3D

 55 59  0  0  0  0  0  0  0  0999 V2000
   60.3330   29.6900   45.4880 C   0  0  0  0  0  0  0  0  0  0  0  0
   58.9920   29.1190   45.3710 N   0  0  0  0  0  0  0  0  0  0  0  0
   57.9970   29.4770   44.5140 C   0  0  0  0  0  0  0  0  0  0  0  0
   58.0700   30.6460   43.5730 C   0  0  0  0  0  0  0  0  0  0  0  0
   57.4680   31.8440   44.1870 N   0  0  0  0  0  0  0  0  0  0  0  0
   57.5130   31.7830   45.6630 C   0  0  0  0  0  0  0  0  0  0  0  0
   58.4280   32.9090   46.1320 C   0  0  2  0  0  0  0  0  0  0  0  0
   58.1240   33.4510   47.5540 C   0  0  0  0  0  0  0  0  0  0  0  0
   59.3440   34.0050   48.1840 N   0  0  0  0  0  0  0  0  0  0  0  0
   60.0240   33.0030   49.0280 C   0  0  0  0  0  0  0  0  0  0  0  0
   61.4790   32.9050   48.6500 C   0  0  0  0  0  0  0  0  0  0  0  0
   61.8900   31.9970   47.6630 C   0  0  0  0  0  0  0  0  0  0  0  0
   63.2380   31.9290   47.3080 C   0  0  0  0  0  0  0  0  0  0  0  0
   64.1460   32.7380   47.9170 N   0  0  0  0  0  0  0  0  0  0  0  0
   63.7760   33.6270   48.8770 C   0  0  0  0  0  0  0  0  0  0  0  0
   62.4370   33.7290   49.2610 C   0  0  0  0  0  0  0  0  0  0  0  0
   60.2910   34.5950   47.2050 C   0  0  0  0  0  0  0  0  0  0  0  0
   59.6430   35.5310   46.1490 C   0  0  0  0  0  0  0  0  0  0  0  0
   59.2880   34.9180   44.9160 O   0  0  0  0  0  0  0  0  0  0  0  0
   58.2510   33.9530   45.0290 C   0  0  1  0  0  0  0  0  0  0  0  0
   58.1590   33.0870   43.7880 C   0  0  0  0  0  0  0  0  0  0  0  0
   56.8940   28.6880   44.6080 N   0  0  0  0  0  0  0  0  0  0  0  0
   57.2410   27.7930   45.5500 C   0  0  0  0  0  0  0  0  0  0  0  0
   56.4820   26.7280   46.0290 C   0  0  0  0  0  0  0  0  0  0  0  0
   57.0610   25.8990   47.0080 C   0  0  0  0  0  0  0  0  0  0  0  0
   58.3710   26.1510   47.4760 C   0  0  0  0  0  0  0  0  0  0  0  0
   59.1120   27.2340   46.9710 C   0  0  0  0  0  0  0  0  0  0  0  0
   58.5040   28.0400   46.0060 C   0  0  0  0  0  0  0  0  0  0  0  0
   60.5929   29.8007   46.5511 H   0  0  0  0  0  0  0  0  0  0  0  0
   61.0593   29.0231   45.0005 H   0  0  0  0  0  0  0  0  0  0  0  0
   60.3556   30.6758   45.0005 H   0  0  0  0  0  0  0  0  0  0  0  0
   59.1237   30.8527   43.3341 H   0  0  0  0  0  0  0  0  0  0  0  0
   57.5138   30.3993   42.6566 H   0  0  0  0  0  0  0  0  0  0  0  0
   56.5032   31.9205   46.0770 H   0  0  0  0  0  0  0  0  0  0  0  0
   57.8890   30.8066   46.0026 H   0  0  0  0  0  0  0  0  0  0  0  0
   59.4679   32.5741   46.2605 H   0  0  0  0  0  0  0  0  0  0  0  0
   57.3649   34.2439   47.4819 H   0  0  0  0  0  0  0  0  0  0  0  0
   57.7565   32.6201   48.1740 H   0  0  0  0  0  0  0  0  0  0  0  0
   59.9422   33.3015   50.0836 H   0  0  0  0  0  0  0  0  0  0  0  0
   59.5472   32.0233   48.8765 H   0  0  0  0  0  0  0  0  0  0  0  0
   61.1546   31.3428   47.1720 H   0  0  0  0  0  0  0  0  0  0  0  0
   63.5667   31.2197   46.5341 H   0  0  0  0  0  0  0  0  0  0  0  0
   64.5333   34.2676   49.3525 H   0  0  0  0  0  0  0  0  0  0  0  0
   62.1357   34.4492   50.0359 H   0  0  0  0  0  0  0  0  0  0  0  0
   61.0403   35.1762   47.7624 H   0  0  0  0  0  0  0  0  0  0  0  0
   60.7213   33.7511   46.6458 H   0  0  0  0  0  0  0  0  0  0  0  0
   58.7296   35.9567   46.5900 H   0  0  0  0  0  0  0  0  0  0  0  0
   60.4100   36.2797   45.9015 H   0  0  0  0  0  0  0  0  0  0  0  0
   57.3779   34.5926   45.2256 H   0  0  0  0  0  0  0  0  0  0  0  0
   57.5849   33.6054   43.0059 H   0  0  0  0  0  0  0  0  0  0  0  0
   59.1582   32.8709   43.3818 H   0  0  0  0  0  0  0  0  0  0  0  0
   55.4646   26.5411   45.6549 H   0  0  0  0  0  0  0  0  0  0  0  0
   56.4905   25.0495   47.4116 H   0  0  0  0  0  0  0  0  0  0  0  0
   58.8136   25.4954   48.2404 H   0  0  0  0  0  0  0  0  0  0  0  0
   60.1337   27.4390   47.3233 H   0  0  0  0  0  0  0  0  0  0  0  0
  1  2  1  0
  2  3  1  0
  3  4  1  0
  4  5  1  0
  5  6  1  0
  6  7  1  0
  7  8  1  0
  8  9  1  0
  9 10  1  0
 10 11  1  0
 11 12  2  0
 12 13  1  0
 13 14  2  0
 14 15  1  0
 15 16  2  0
  9 17  1  0
 17 18  1  0
 18 19  1  0
 19 20  1  0
 20 21  1  0
  3 22  2  0
 22 23  1  0
 23 24  2  0
 24 25  1  0
 25 26  2  0
 26 27  1  0
 27 28  2  0
 28  2  1  0
 21  5  1  0
 28 23  1  0
 20  7  1  0
 16 11  1  0
  1 29  1  0
  1 30  1  0
  1 31  1  0
  4 32  1  0
  4 33  1  0
  6 34  1  0
  6 35  1  0
  7 36  1  1
  8 37  1  0
  8 38  1  0
 10 39  1  0
 10 40  1  0
 12 41  1  0
 13 42  1  0
 15 43  1  0
 16 44  1  0
 17 45  1  0
 17 46  1  0
 18 47  1  0
 18 48  1  0
 20 49  1  1
 21 50  1  0
 21 51  1  0
 24 52  1  0
 25 53  1  0
 26 54  1  0
 27 55  1  0
M  END
>  <UniqueID>  (1) 
1

>  <SMILES>  (1) 
Cn1c(CN2C[C@@H]3CN(Cc4ccncc4)CCO[C@H]3C2)nc2ccccc21

>  <Energy>  (1) 
122.59339479397698

>  <Genealogy>  (1) 
Cn1c(CN2C[C@@H]3CN(Cc4ccncc4)CCO[C@H]3C2)nc2ccccc21 (chirality)
Cn1c(CN2C[C@@H]3CN(Cc4ccncc4)CCO[C@H]3C2)nc2ccccc21 (3D coordinates assigned)
Cn1c(CN2C[C@@H]3CN(Cc4ccncc4)CCO[C@H]3C2)nc2ccccc21 (nonaromatic ring conformer: 122.59339479397698 kcal/mol)

>  <smiles>  (1) 
Cn1c(CN2CC3CN(Cc4ccncc4)CCOC3C2)nc2ccccc21

>  <score_type>  (1) 
oracle

>  <origin>  (1) 
adg

>  <m_score__min__energy>  (1) 
-6.71

>  <m_primary>  (1) 
energy

$$$$
1:0
     RDKit          3D

 37 39  0  0  0  0  0  0  0  0999 V2000
   60.3260   34.9750   46.4530 C   0  0  0  0  0  0  0  0  0  0  0  0
   59.0030   34.5830   47.1000 C   0  0  0  0  0  0  0  0  0  0  0  0
   58.4720   33.3290   46.5230 N   0  0  0  0  0  0  0  0  0  0  0  0
   58.3540   32.1840   47.2800 C   0  0  0  0  0  0  0  0  0  0  0  0
   58.6680   32.1600   49.0580 S   0  0  0  0  0  0  0  0  0  0  0  0
   60.2480   31.2400   48.9620 C   0  0  0  0  0  0  0  0  0  0  0  0
   61.3930   32.1410   48.5780 C   0  0  0  0  0  0  0  0  0  0  0  0
   62.2130   31.8120   47.4810 C   0  0  0  0  0  0  0  0  0  0  0  0
   61.9850   30.6830   46.7620 F   0  0  0  0  0  0  0  0  0  0  0  0
   63.2680   32.6520   47.1140 C   0  0  0  0  0  0  0  0  0  0  0  0
   63.5120   33.8260   47.8300 C   0  0  0  0  0  0  0  0  0  0  0  0
   62.7020   34.1630   48.9170 C   0  0  0  0  0  0  0  0  0  0  0  0
   61.6470   33.3270   49.2940 C   0  0  0  0  0  0  0  0  0  0  0  0
   60.8780   33.6770   50.3560 F   0  0  0  0  0  0  0  0  0  0  0  0
   58.0020   31.0110   46.6940 N   0  0  0  0  0  0  0  0  0  0  0  0
   57.6960   30.9330   45.3790 C   0  0  0  0  0  0  0  0  0  0  0  0
   57.3190   29.7080   44.8190 C   0  0  0  0  0  0  0  0  0  0  0  0
   56.9820   29.6310   43.4650 C   0  0  0  0  0  0  0  0  0  0  0  0
   57.0200   30.7790   42.6680 C   0  0  0  0  0  0  0  0  0  0  0  0
   57.3960   32.0070   43.2210 C   0  0  0  0  0  0  0  0  0  0  0  0
   57.7380   32.0920   44.5850 C   0  0  0  0  0  0  0  0  0  0  0  0
   58.1390   33.2960   45.1870 C   0  0  0  0  0  0  0  0  0  0  0  0
   58.2000   34.3490   44.4910 O   0  0  0  0  0  0  0  0  0  0  0  0
   61.0664   35.1944   47.2363 H   0  0  0  0  0  0  0  0  0  0  0  0
   60.6884   34.1456   45.8278 H   0  0  0  0  0  0  0  0  0  0  0  0
   60.1781   35.8679   45.8278 H   0  0  0  0  0  0  0  0  0  0  0  0
   59.1602   34.4421   48.1795 H   0  0  0  0  0  0  0  0  0  0  0  0
   58.2746   35.3860   46.9137 H   0  0  0  0  0  0  0  0  0  0  0  0
   60.4603   30.7920   49.9440 H   0  0  0  0  0  0  0  0  0  0  0  0
   60.1473   30.4638   48.1891 H   0  0  0  0  0  0  0  0  0  0  0  0
   63.9078   32.3878   46.2591 H   0  0  0  0  0  0  0  0  0  0  0  0
   64.3424   34.4856   47.5378 H   0  0  0  0  0  0  0  0  0  0  0  0
   62.8950   35.0892   49.4781 H   0  0  0  0  0  0  0  0  0  0  0  0
   57.2877   28.8041   45.4451 H   0  0  0  0  0  0  0  0  0  0  0  0
   56.6867   28.6666   43.0260 H   0  0  0  0  0  0  0  0  0  0  0  0
   56.7533   30.7160   41.6027 H   0  0  0  0  0  0  0  0  0  0  0  0
   57.4248   32.9077   42.5903 H   0  0  0  0  0  0  0  0  0  0  0  0
  1  2  1  0
  2  3  1  0
  3  4  1  0
  4  5  1  0
  5  6  1  0
  6  7  1  0
  7  8  2  0
  8  9  1  0
  8 10  1  0
 10 11  2  0
 11 12  1  0
 12 13  2  0
 13 14  1  0
  4 15  2  0
 15 16  1  0
 16 17  2  0
 17 18  1  0
 18 19  2  0
 19 20  1  0
 20 21  2  0
 21 22  1  0
 22 23  2  0
 22  3  1  0
 13  7  1  0
 21 16  1  0
  1 24  1  0
  1 25  1  0
  1 26  1  0
  2 27  1  0
  2 28  1  0
  6 29  1  0
  6 30  1  0
 10 31  1  0
 11 32  1  0
 12 33  1  0
 17 34  1  0
 18 35  1  0
 19 36  1  0
 20 37  1  0
M  END
>  <UniqueID>  (2) 
2

>  <SMILES>  (2) 
CCn1c(SCc2c(F)cccc2F)nc2ccccc2c1=O

>  <Energy>  (2) 
43.04328755552068

>  <Genealogy>  (2) 
CCn1c(SCc2c(F)cccc2F)nc2ccccc2c1=O (3D coordinates assigned)
CCn1c(SCc2c(F)cccc2F)nc2ccccc2c1=O (optimized conformer: 43.04328755552068 kcal/mol)

>  <smiles>  (2) 
CCn1c(SCc2c(F)cccc2F)nc2ccccc2c1=O

>  <score_type>  (2) 
oracle

>  <origin>  (2) 
adg

>  <m_score__min__energy>  (2) 
-7.0199999999999996

>  <m_primary>  (2) 
energy

$$$$
2:0
     RDKit          3D

 33 34  0  0  0  0  0  0  0  0999 V2000
   55.6370   30.7160   45.2440 H   0  0  0  0  0  0  0  0  0  0  0  0
   55.8090   29.7240   44.9730 N   0  0  0  0  0  0  0  0  0  0  0  0
   56.9950   29.2090   44.8840 C   0  0  0  0  0  0  0  0  0  0  0  0
   57.3500   27.6260   45.3110 S   0  0  0  0  0  0  0  0  0  0  0  0
   58.9860   27.7850   44.9440 C   0  0  0  0  0  0  0  0  0  0  0  0
   59.7473   26.9970   45.0414 H   0  0  0  0  0  0  0  0  0  0  0  0
   59.2100   29.0820   44.4970 C   0  0  0  0  0  0  0  0  0  0  0  0
   60.2061   29.4419   44.1997 H   0  0  0  0  0  0  0  0  0  0  0  0
   58.1000   29.8750   44.4550 N   0  0  0  0  0  0  0  0  0  0  0  0
   58.1420   31.2810   44.0350 C   0  0  0  0  0  0  0  0  0  0  0  0
   59.1476   31.5130   43.6543 H   0  0  0  0  0  0  0  0  0  0  0  0
   57.3879   31.4351   43.2491 H   0  0  0  0  0  0  0  0  0  0  0  0
   57.8280   32.1980   45.1890 C   0  0  0  0  0  0  0  0  0  0  0  0
   56.6460   32.6140   45.3400 O   0  0  0  0  0  0  0  0  0  0  0  0
   58.8410   32.5760   46.1470 N   0  0  0  0  0  0  0  0  0  0  0  0
   58.8870   31.9070   47.4270 C   0  0  0  0  0  0  0  0  0  0  0  0
   59.2010   30.5360   47.5200 C   0  0  0  0  0  0  0  0  0  0  0  0
   59.4127   29.9605   46.6068 H   0  0  0  0  0  0  0  0  0  0  0  0
   59.2450   29.9030   48.7660 C   0  0  0  0  0  0  0  0  0  0  0  0
   59.4908   28.8326   48.8287 H   0  0  0  0  0  0  0  0  0  0  0  0
   58.9780   30.6250   49.9310 C   0  0  0  0  0  0  0  0  0  0  0  0
   59.0124   30.1238   50.9096 H   0  0  0  0  0  0  0  0  0  0  0  0
   58.6670   31.9850   49.8520 C   0  0  0  0  0  0  0  0  0  0  0  0
   58.4564   32.5542   50.7694 H   0  0  0  0  0  0  0  0  0  0  0  0
   58.6230   32.6230   48.6100 C   0  0  0  0  0  0  0  0  0  0  0  0
   58.3799   33.6944   48.5559 H   0  0  0  0  0  0  0  0  0  0  0  0
   59.8540   33.5870   45.7990 C   0  0  0  0  0  0  0  0  0  0  0  0
   60.7292   33.4600   46.4531 H   0  0  0  0  0  0  0  0  0  0  0  0
   60.1391   33.4510   44.7453 H   0  0  0  0  0  0  0  0  0  0  0  0
   59.2980   34.9980   45.9760 C   0  0  0  0  0  0  0  0  0  0  0  0
   59.2086   35.2250   47.0486 H   0  0  0  0  0  0  0  0  0  0  0  0
   59.9781   35.7220   45.5035 H   0  0  0  0  0  0  0  0  0  0  0  0
   58.3068   35.0635   45.5035 H   0  0  0  0  0  0  0  0  0  0  0  0
  1  2  1  0
  2  3  2  0
  3  4  1  0
  4  5  1  0
  5  6  1  0
  5  7  2  0
  7  8  1  0
  7  9  1  0
  9 10  1  0
 10 11  1  0
 10 12  1  0
 10 13  1  0
 13 14  2  0
 13 15  1  0
 15 16  1  0
 16 17  2  0
 17 18  1  0
 17 19  1  0
 19 20  1  0
 19 21  2  0
 21 22  1  0
 21 23  1  0
 23 24  1  0
 23 25  2  0
 25 26  1  0
 15 27  1  0
 27 28  1  0
 27 29  1  0
 27 30  1  0
 30 31  1  0
 30 32  1  0
 30 33  1  0
  9  3  1  0
 25 16  1  0
M  END
>  <UniqueID>  (3) 
3

>  <SMILES>  (3) 
[H]/N=c1/sccn1CC(=O)N(CC)c1ccccc1

>  <Energy>  (3) 
67.70328772672455

>  <Genealogy>  (3) 
[H]/N=c1/sccn1CC(=O)N(CC)c1ccccc1 (cis-trans isomerization)
[H]/N=c1/sccn1CC(=O)N(CC)c1ccccc1 (3D coordinates assigned)
[H]/N=c1/sccn1CC(=O)N(CC)c1ccccc1 (optimized conformer: 67.70328772672455 kcal/mol)

>  <smiles>  (3) 
CCN(C(=O)Cn1ccsc1=N)c1ccccc1

>  <score_type>  (3) 
oracle

>  <origin>  (3) 
adg

>  <m_score__min__energy>  (3) 
-6.96

>  <m_primary>  (3) 
energy

$$$$
3:0
     RDKit          3D

 58 61  0  0  0  0  0  0  0  0999 V2000
   65.8100   32.0560   50.1340 C   0  0  0  0  0  0  0  0  0  0  0  0
   64.7480   33.0920   49.7480 C   0  0  0  0  0  0  0  0  0  0  0  0
   64.0920   32.7700   48.4510 N   0  0  0  0  0  0  0  0  0  0  0  0
   63.4630   33.9810   47.8600 C   0  0  0  0  0  0  0  0  0  0  0  0
   63.0530   33.7890   46.3940 C   0  0  0  0  0  0  0  0  0  0  0  0
   63.1870   31.5870   48.5510 C   0  0  0  0  0  0  0  0  0  0  0  0
   61.9440   31.7230   49.4720 C   0  0  0  0  0  0  0  0  0  0  0  0
   60.8360   30.6820   49.2630 C   0  0  0  0  0  0  0  0  0  0  0  0
   59.5810   31.3030   48.8350 N   0  0  0  0  0  0  0  0  0  0  0  0
   59.2020   31.3580   47.4500 C   0  0  0  0  0  0  0  0  0  0  0  0
   58.8660   30.1850   46.7800 C   0  0  0  0  0  0  0  0  0  0  0  0
   58.5250   30.2030   45.4420 C   0  0  0  0  0  0  0  0  0  0  0  0
   58.3830   31.3750   44.7430 N   0  0  0  0  0  0  0  0  0  0  0  0
   57.7180   31.3740   43.4290 C   0  0  0  0  0  0  0  0  0  0  0  0
   58.7950   32.5560   45.3410 C   0  0  0  0  0  0  0  0  0  0  0  0
   58.8660   33.7710   44.6180 C   0  0  0  0  0  0  0  0  0  0  0  0
   59.2020   34.9660   45.2540 C   0  0  0  0  0  0  0  0  0  0  0  0
   59.4740   34.9850   46.6180 C   0  0  0  0  0  0  0  0  0  0  0  0
   59.4560   33.8000   47.3520 C   0  0  0  0  0  0  0  0  0  0  0  0
   59.1670   32.5710   46.7250 C   0  0  0  0  0  0  0  0  0  0  0  0
   58.3170   28.8110   45.0170 C   0  0  0  0  0  0  0  0  0  0  0  0
   58.1640   28.2370   43.7450 C   0  0  0  0  0  0  0  0  0  0  0  0
   58.0620   26.8410   43.6420 C   0  0  0  0  0  0  0  0  0  0  0  0
   58.1590   26.0340   44.7900 C   0  0  0  0  0  0  0  0  0  0  0  0
   58.3820   26.6160   46.0460 C   0  0  0  0  0  0  0  0  0  0  0  0
   58.4680   28.0050   46.1350 C   0  0  0  0  0  0  0  0  0  0  0  0
   58.8320   28.7960   47.3480 C   0  0  0  0  0  0  0  0  0  0  0  0
   65.8771   31.9906   51.2300 H   0  0  0  0  0  0  0  0  0  0  0  0
   65.5303   31.0741   49.7245 H   0  0  0  0  0  0  0  0  0  0  0  0
   66.7846   32.3599   49.7245 H   0  0  0  0  0  0  0  0  0  0  0  0
   63.9803   33.1222   50.5352 H   0  0  0  0  0  0  0  0  0  0  0  0
   65.2497   34.0649   49.6398 H   0  0  0  0  0  0  0  0  0  0  0  0
   64.8460   32.4730   47.7850 H   0  0  0  0  0  0  0  0  0  0  0  0
   62.5656   34.2308   48.4451 H   0  0  0  0  0  0  0  0  0  0  0  0
   64.2104   34.7876   47.8896 H   0  0  0  0  0  0  0  0  0  0  0  0
   62.0576   33.3229   46.3497 H   0  0  0  0  0  0  0  0  0  0  0  0
   63.0228   34.7666   45.8907 H   0  0  0  0  0  0  0  0  0  0  0  0
   63.7846   33.1399   45.8907 H   0  0  0  0  0  0  0  0  0  0  0  0
   62.8251   31.3600   47.5373 H   0  0  0  0  0  0  0  0  0  0  0  0
   63.7991   30.7988   49.0137 H   0  0  0  0  0  0  0  0  0  0  0  0
   62.2870   31.6451   50.5142 H   0  0  0  0  0  0  0  0  0  0  0  0
   61.4916   32.6932   49.2189 H   0  0  0  0  0  0  0  0  0  0  0  0
   61.1601   29.9665   48.4929 H   0  0  0  0  0  0  0  0  0  0  0  0
   60.6571   30.1752   50.2228 H   0  0  0  0  0  0  0  0  0  0  0  0
   58.8310   31.4370   49.5480 H   0  0  0  0  0  0  0  0  0  0  0  0
   56.6271   31.3724   43.5702 H   0  0  0  0  0  0  0  0  0  0  0  0
   58.0137   32.2726   42.8677 H   0  0  0  0  0  0  0  0  0  0  0  0
   58.0164   30.4763   42.8677 H   0  0  0  0  0  0  0  0  0  0  0  0
   58.6531   33.7727   43.5388 H   0  0  0  0  0  0  0  0  0  0  0  0
   59.2522   35.8990   44.6735 H   0  0  0  0  0  0  0  0  0  0  0  0
   59.7038   35.9372   47.1186 H   0  0  0  0  0  0  0  0  0  0  0  0
   59.6694   33.8242   48.4308 H   0  0  0  0  0  0  0  0  0  0  0  0
   58.1248   28.8695   42.8459 H   0  0  0  0  0  0  0  0  0  0  0  0
   57.9053   26.3753   42.6578 H   0  0  0  0  0  0  0  0  0  0  0  0
   58.0595   24.9420   44.7021 H   0  0  0  0  0  0  0  0  0  0  0  0
   58.4871   25.9891   46.9437 H   0  0  0  0  0  0  0  0  0  0  0  0
   58.0714   28.7000   48.1369 H   0  0  0  0  0  0  0  0  0  0  0  0
   59.7672   28.4800   47.8334 H   0  0  0  0  0  0  0  0  0  0  0  0
  1  2  1  0
  2  3  1  0
  3  4  1  0
  4  5  1  0
  3  6  1  0
  6  7  1  0
  7  8  1  0
  8  9  1  0
  9 10  1  0
 10 11  2  0
 11 12  1  0
 12 13  2  0
 13 14  1  0
 13 15  1  0
 15 16  2  0
 16 17  1  0
 17 18  2  0
 18 19  1  0
 19 20  2  0
 12 21  1  0
 21 22  2  0
 22 23  1  0
 23 24  2  0
 24 25  1  0
 25 26  2  0
 26 27  1  0
 20 10  1  0
 26 21  1  0
 27 11  1  0
 20 15  1  0
  1 28  1  0
  1 29  1  0
  1 30  1  0
  2 31  1  0
  2 32  1  0
  3 33  1  0
  4 34  1  0
  4 35  1  0
  5 36  1  0
  5 37  1  0
  5 38  1  0
  6 39  1  0
  6 40  1  0
  7 41  1  0
  7 42  1  0
  8 43  1  0
  8 44  1  0
  9 45  1  0
 14 46  1  0
 14 47  1  0
 14 48  1  0
 16 49  1  0
 17 50  1  0
 18 51  1  0
 19 52  1  0
 22 53  1  0
 23 54  1  0
 24 55  1  0
 25 56  1  0
 27 57  1  0
 27 58  1  0
M  CHG  2   3   1  13   1
M  END
>  <UniqueID>  (4) 
4

>  <SMILES>  (4) 
CC[NH+](CC)CCCNc1c2c([n+](C)c3ccccc13)-c1ccccc1C2

>  <Energy>  (4) 
107.9645380759082

>  <Genealogy>  (4) 
CC[NH+](CC)CCCNc1c2c([n+](C)c3ccccc13)-c1ccccc1C2 (protonated)
CC[NH+](CC)CCCNc1c2c([n+](C)c3ccccc13)-c1ccccc1C2 (3D coordinates assigned)
CC[NH+](CC)CCCNc1c2c([n+](C)c3ccccc13)-c1ccccc1C2 (nonaromatic ring conformer: 107.9645380759082 kcal/mol)

>  <smiles>  (4) 
CCN(CC)CCCNc1c2c([n+](C)c3ccccc13)-c1ccccc1C2

>  <score_type>  (4) 
oracle

>  <origin>  (4) 
adg

>  <m_score__min__energy>  (4) 
-5.5700000000000003

>  <m_primary>  (4) 
energy

$$$$
4:0
     RDKit          3D

 48 50  0  0  0  0  0  0  0  0999 V2000
   55.5340   29.7190   44.0670 C   0  0  0  0  0  0  0  0  0  0  0  0
   56.7620   29.3500   43.2400 C   0  0  0  0  0  0  0  0  0  0  0  0
   57.8080   28.6720   44.0450 N   0  0  0  0  0  0  0  0  0  0  0  0
   58.1300   27.3900   43.3910 C   0  0  0  0  0  0  0  0  0  0  0  0
   57.3840   28.4370   45.4510 C   0  0  0  0  0  0  0  0  0  0  0  0
   58.3480   29.0970   46.4610 C   0  0  0  0  0  0  0  0  0  0  0  0
   59.5290   29.7260   45.8390 N   0  0  0  0  0  0  0  0  0  0  0  0
   59.6250   31.1460   46.1270 C   0  0  0  0  0  0  0  0  0  0  0  0
   60.7600   31.7690   46.7370 C   0  0  0  0  0  0  0  0  0  0  0  0
   61.8990   31.0320   47.1360 C   0  0  0  0  0  0  0  0  0  0  0  0
   62.9890   31.6600   47.7330 C   0  0  0  0  0  0  0  0  0  0  0  0
   62.9910   33.0300   47.9560 C   0  0  0  0  0  0  0  0  0  0  0  0
   64.1210   33.5990   48.5660 O   0  0  0  0  0  0  0  0  0  0  0  0
   64.8090   33.0390   49.6790 C   0  0  0  0  0  0  0  0  0  0  0  0
   61.8790   33.7930   47.5690 C   0  0  0  0  0  0  0  0  0  0  0  0
   60.7520   33.1960   46.9520 C   0  0  0  0  0  0  0  0  0  0  0  0
   59.6600   33.9620   46.5640 N   0  0  0  0  0  0  0  0  0  0  0  0
   59.6500   35.4270   46.7370 C   0  0  0  0  0  0  0  0  0  0  0  0
   58.5820   33.3200   46.0250 C   0  0  0  0  0  0  0  0  0  0  0  0
   57.3590   33.8160   45.6020 C   0  0  0  0  0  0  0  0  0  0  0  0
   56.6630   32.7020   45.1580 C   0  0  0  0  0  0  0  0  0  0  0  0
   57.3990   31.6180   45.2980 O   0  0  0  0  0  0  0  0  0  0  0  0
   58.5500   31.9740   45.8140 C   0  0  0  0  0  0  0  0  0  0  0  0
   55.7772   29.6459   45.1373 H   0  0  0  0  0  0  0  0  0  0  0  0
   55.2282   30.7487   43.8300 H   0  0  0  0  0  0  0  0  0  0  0  0
   54.7113   29.0284   43.8300 H   0  0  0  0  0  0  0  0  0  0  0  0
   56.4507   28.6768   42.4277 H   0  0  0  0  0  0  0  0  0  0  0  0
   57.1940   30.2832   42.8495 H   0  0  0  0  0  0  0  0  0  0  0  0
   58.3221   26.6252   44.1579 H   0  0  0  0  0  0  0  0  0  0  0  0
   57.2830   27.0755   42.7636 H   0  0  0  0  0  0  0  0  0  0  0  0
   59.0251   27.5131   42.7636 H   0  0  0  0  0  0  0  0  0  0  0  0
   56.3773   28.8567   45.5938 H   0  0  0  0  0  0  0  0  0  0  0  0
   57.3906   27.3521   45.6323 H   0  0  0  0  0  0  0  0  0  0  0  0
   57.7943   29.8707   47.0131 H   0  0  0  0  0  0  0  0  0  0  0  0
   58.7214   28.2957   47.1156 H   0  0  0  0  0  0  0  0  0  0  0  0
   59.5540   29.4940   44.8260 H   0  0  0  0  0  0  0  0  0  0  0  0
   60.3800   29.2640   46.2390 H   0  0  0  0  0  0  0  0  0  0  0  0
   61.9243   29.9446   46.9720 H   0  0  0  0  0  0  0  0  0  0  0  0
   63.8618   31.0613   48.0325 H   0  0  0  0  0  0  0  0  0  0  0  0
   64.3573   33.4067   50.6121 H   0  0  0  0  0  0  0  0  0  0  0  0
   64.7338   31.9422   49.6425 H   0  0  0  0  0  0  0  0  0  0  0  0
   65.8677   33.3353   49.6425 H   0  0  0  0  0  0  0  0  0  0  0  0
   61.8823   34.8782   47.7485 H   0  0  0  0  0  0  0  0  0  0  0  0
   59.6483   35.6695   47.8099 H   0  0  0  0  0  0  0  0  0  0  0  0
   60.5452   35.8581   46.2650 H   0  0  0  0  0  0  0  0  0  0  0  0
   58.7490   35.8458   46.2650 H   0  0  0  0  0  0  0  0  0  0  0  0
   57.0165   34.8612   45.6155 H   0  0  0  0  0  0  0  0  0  0  0  0
   55.6426   32.7205   44.7477 H   0  0  0  0  0  0  0  0  0  0  0  0
  1  2  1  0
  2  3  1  0
  3  4  1  0
  3  5  1  0
  5  6  1  0
  6  7  1  0
  7  8  1  0
  8  9  2  0
  9 10  1  0
 10 11  2  0
 11 12  1  0
 12 13  1  0
 13 14  1  0
 12 15  2  0
 15 16  1  0
 16 17  2  0
 17 18  1  0
 17 19  1  0
 19 20  1  0
 20 21  2  0
 21 22  1  0
 22 23  1  0
 23  8  1  0
 16  9  1  0
 23 19  2  0
  1 24  1  0
  1 25  1  0
  1 26  1  0
  2 27  1  0
  2 28  1  0
  4 29  1  0
  4 30  1  0
  4 31  1  0
  5 32  1  0
  5 33  1  0
  6 34  1  0
  6 35  1  0
  7 36  1  0
  7 37  1  0
 10 38  1  0
 11 39  1  0
 14 40  1  0
 14 41  1  0
 14 42  1  0
 15 43  1  0
 18 44  1  0
 18 45  1  0
 18 46  1  0
 20 47  1  0
 21 48  1  0
M  CHG  2   7   1  17   1
M  END
>  <UniqueID>  (5) 
5

>  <SMILES>  (5) 
CCN(C)CC[NH2+]c1c2ccc(OC)cc2[n+](C)c2ccoc12

>  <Energy>  (5) 
98.03408110402746

>  <Genealogy>  (5) 
CCN(C)CC[NH2+]c1c2ccc(OC)cc2[n+](C)c2ccoc12 (protonated)
CCN(C)CC[NH2+]c1c2ccc(OC)cc2[n+](C)c2ccoc12 (3D coordinates assigned)
CCN(C)CC[NH2+]c1c2ccc(OC)cc2[n+](C)c2ccoc12 (optimized conformer: 98.03408110402746 kcal/mol)

>  <smiles>  (5) 
CCN(C)CCNc1c2ccc(OC)cc2[n+](C)c2ccoc12

>  <score_type>  (5) 
oracle

>  <origin>  (5) 
adg

>  <m_score__min__energy>  (5) 
-3.1499999999999999

>  <m_primary>  (5) 
energy

$$$$
5:0
     RDKit          3D

 53 55  0  0  0  0  0  0  0  0999 V2000
   63.1530   33.8150   46.5920 C   0  0  0  0  0  0  0  0  0  0  0  0
   61.6490   33.6140   46.7800 C   0  0  0  0  0  0  0  0  0  0  0  0
   61.1470   34.2730   48.0100 N   0  0  0  0  0  0  0  0  0  0  0  0
   61.4850   33.5560   49.2650 C   0  0  0  0  0  0  0  0  0  0  0  0
   62.6360   34.1910   50.0570 C   0  0  0  0  0  0  0  0  0  0  0  0
   59.7030   34.5810   47.9100 C   0  0  0  0  0  0  0  0  0  0  0  0
   59.2960   34.8150   46.4510 C   0  0  0  0  0  0  0  0  0  0  0  0
   58.0900   34.1130   46.1430 O   0  0  0  0  0  0  0  0  0  0  0  0
   57.9930   32.7560   45.7910 C   0  0  0  0  0  0  0  0  0  0  0  0
   57.3890   32.3160   44.5990 C   0  0  0  0  0  0  0  0  0  0  0  0
   57.3100   30.9520   44.3070 C   0  0  0  0  0  0  0  0  0  0  0  0
   57.8490   29.9980   45.1910 C   0  0  0  0  0  0  0  0  0  0  0  0
   57.7660   28.5430   44.9050 C   0  0  0  0  0  0  0  0  0  0  0  0
   58.2460   27.9900   43.7080 C   0  0  0  0  0  0  0  0  0  0  0  0
   58.1430   26.6170   43.4960 C   0  0  0  0  0  0  0  0  0  0  0  0
   57.5650   25.8090   44.4830 C   0  0  0  0  0  0  0  0  0  0  0  0
   57.4370   24.3840   44.3120 N   0  0  0  0  0  0  0  0  0  0  0  0
   58.1760   23.4260   45.1170 C   0  0  0  0  0  0  0  0  0  0  0  0
   57.8800   22.0610   44.5100 C   0  0  0  0  0  0  0  0  0  0  0  0
   56.6430   22.2520   43.6370 C   0  0  0  0  0  0  0  0  0  0  0  0
   56.5660   23.7430   43.3410 C   0  0  0  0  0  0  0  0  0  0  0  0
   57.1250   26.3930   45.6310 N   0  0  0  0  0  0  0  0  0  0  0  0
   57.2230   27.7080   45.8340 N   0  0  0  0  0  0  0  0  0  0  0  0
   58.4570   30.4450   46.3760 C   0  0  0  0  0  0  0  0  0  0  0  0
   58.5350   31.8090   46.6660 C   0  0  0  0  0  0  0  0  0  0  0  0
   63.6401   33.8801   47.5761 H   0  0  0  0  0  0  0  0  0  0  0  0
   63.5695   32.9645   46.0323 H   0  0  0  0  0  0  0  0  0  0  0  0
   63.3315   34.7450   46.0323 H   0  0  0  0  0  0  0  0  0  0  0  0
   61.1234   34.0371   45.9113 H   0  0  0  0  0  0  0  0  0  0  0  0
   61.4609   32.5343   46.8736 H   0  0  0  0  0  0  0  0  0  0  0  0
   60.5912   33.5409   49.9060 H   0  0  0  0  0  0  0  0  0  0  0  0
   61.8164   32.5478   48.9757 H   0  0  0  0  0  0  0  0  0  0  0  0
   62.4424   34.0842   51.1345 H   0  0  0  0  0  0  0  0  0  0  0  0
   63.5792   33.6856   49.8021 H   0  0  0  0  0  0  0  0  0  0  0  0
   62.7115   35.2584   49.8021 H   0  0  0  0  0  0  0  0  0  0  0  0
   59.1254   33.7368   48.3146 H   0  0  0  0  0  0  0  0  0  0  0  0
   59.4972   35.4962   48.4845 H   0  0  0  0  0  0  0  0  0  0  0  0
   59.1385   35.8915   46.2885 H   0  0  0  0  0  0  0  0  0  0  0  0
   60.0981   34.4430   45.7966 H   0  0  0  0  0  0  0  0  0  0  0  0
   56.9762   33.0508   43.8922 H   0  0  0  0  0  0  0  0  0  0  0  0
   56.8224   30.6206   43.3783 H   0  0  0  0  0  0  0  0  0  0  0  0
   58.7004   28.6361   42.9424 H   0  0  0  0  0  0  0  0  0  0  0  0
   58.5127   26.1711   42.5608 H   0  0  0  0  0  0  0  0  0  0  0  0
   59.2542   23.6394   45.0732 H   0  0  0  0  0  0  0  0  0  0  0  0
   57.8802   23.4720   46.1755 H   0  0  0  0  0  0  0  0  0  0  0  0
   58.7300   21.7207   43.9003 H   0  0  0  0  0  0  0  0  0  0  0  0
   57.7129   21.3006   45.2871 H   0  0  0  0  0  0  0  0  0  0  0  0
   56.7429   21.6812   42.7020 H   0  0  0  0  0  0  0  0  0  0  0  0
   55.7338   21.8935   44.1418 H   0  0  0  0  0  0  0  0  0  0  0  0
   56.9149   23.9492   42.3184 H   0  0  0  0  0  0  0  0  0  0  0  0
   55.5342   24.1176   43.4126 H   0  0  0  0  0  0  0  0  0  0  0  0
   58.8759   29.7133   47.0826 H   0  0  0  0  0  0  0  0  0  0  0  0
   59.0275   32.1417   47.5916 H   0  0  0  0  0  0  0  0  0  0  0  0
  1  2  1  0
  2  3  1  0
  3  4  1  0
  4  5  1  0
  3  6  1  0
  6  7  1  0
  7  8  1  0
  8  9  1  0
  9 10  2  0
 10 11  1  0
 11 12  2  0
 12 13  1  0
 13 14  2  0
 14 15  1  0
 15 16  2  0
 16 17  1  0
 17 18  1  0
 18 19  1  0
 19 20  1  0
 20 21  1  0
 16 22  1  0
 22 23  2  0
 12 24  1  0
 24 25  2  0
 25  9  1  0
 23 13  1  0
 21 17  1  0
  1 26  1  0
  1 27  1  0
  1 28  1  0
  2 29  1  0
  2 30  1  0
  4 31  1  0
  4 32  1  0
  5 33  1  0
  5 34  1  0
  5 35  1  0
  6 36  1  0
  6 37  1  0
  7 38  1  0
  7 39  1  0
 10 40  1  0
 11 41  1  0
 14 42  1  0
 15 43  1  0
 18 44  1  0
 18 45  1  0
 19 46  1  0
 19 47  1  0
 20 48  1  0
 20 49  1  0
 21 50  1  0
 21 51  1  0
 24 52  1  0
 25 53  1  0
M  END
>  <UniqueID>  (6) 
6

>  <SMILES>  (6) 
CCN(CC)CCOc1ccc(-c2ccc(N3CCCC3)nn2)cc1

>  <Energy>  (6) 
58.80668955376039

>  <Genealogy>  (6) 
CCN(CC)CCOc1ccc(-c2ccc(N3CCCC3)nn2)cc1 (3D coordinates assigned)
CCN(CC)CCOc1ccc(-c2ccc(N3CCCC3)nn2)cc1 (nonaromatic ring conformer: 58.80668955376039 kcal/mol)

>  <smiles>  (6) 
CCN(CC)CCOc1ccc(-c2ccc(N3CCCC3)nn2)cc1

>  <score_type>  (6) 
oracle

>  <origin>  (6) 
adg

>  <m_score__min__energy>  (6) 
-7.04

>  <m_primary>  (6) 
energy

$$$$
6:0
     RDKit          3D

 44 45  0  0  0  0  0  0  0  0999 V2000
   56.2280   24.4480   44.8430 C   0  0  0  0  0  0  0  0  0  0  0  0
   55.0060   24.9350   45.6070 C   0  0  0  0  0  0  0  0  0  0  0  0
   55.2120   26.2750   46.0010 O   0  0  0  0  0  0  0  0  0  0  0  0
   56.5930   26.5290   46.1620 C   0  0  0  0  0  0  0  0  0  0  0  0
   56.9980   27.6950   45.3770 N   0  0  0  0  0  0  0  0  0  0  0  0
   57.8710   28.7330   45.8640 C   0  0  0  0  0  0  0  0  0  0  0  0
   58.8790   28.4670   46.8280 C   0  0  0  0  0  0  0  0  0  0  0  0
   59.7270   29.4910   47.2800 C   0  0  0  0  0  0  0  0  0  0  0  0
   59.5470   30.7780   46.7670 C   0  0  0  0  0  0  0  0  0  0  0  0
   58.5660   31.0470   45.8430 C   0  0  0  0  0  0  0  0  0  0  0  0
   57.7240   30.0420   45.3600 C   0  0  0  0  0  0  0  0  0  0  0  0
   58.6760   32.3880   45.5080 C   0  0  0  0  0  0  0  0  0  0  0  0
   57.8760   33.1400   44.5160 C   0  0  0  0  0  0  0  0  0  0  0  0
   57.7890   32.7070   43.0870 C   0  0  0  0  0  0  0  0  0  0  0  0
   57.2630   34.1810   44.8720 O   0  0  0  0  0  0  0  0  0  0  0  0
   59.7430   32.8790   46.2720 C   0  0  0  0  0  0  0  0  0  0  0  0
   60.2580   34.2920   46.2340 C   0  0  0  0  0  0  0  0  0  0  0  0
   60.2740   31.8840   47.0360 N   0  0  0  0  0  0  0  0  0  0  0  0
   61.4640   31.9520   47.8970 C   0  0  0  0  0  0  0  0  0  0  0  0
   62.6460   32.5770   47.1510 C   0  0  0  0  0  0  0  0  0  0  0  0
   63.7830   31.6620   47.1260 N   0  0  0  0  0  0  0  0  0  0  0  0
   57.0064   24.1378   45.5557 H   0  0  0  0  0  0  0  0  0  0  0  0
   55.9481   23.5927   44.2104 H   0  0  0  0  0  0  0  0  0  0  0  0
   56.6131   25.2614   44.2104 H   0  0  0  0  0  0  0  0  0  0  0  0
   54.1184   24.8734   44.9602 H   0  0  0  0  0  0  0  0  0  0  0  0
   54.8500   24.3067   46.4964 H   0  0  0  0  0  0  0  0  0  0  0  0
   56.8041   26.7180   47.2249 H   0  0  0  0  0  0  0  0  0  0  0  0
   57.1576   25.6525   45.8113 H   0  0  0  0  0  0  0  0  0  0  0  0
   56.6080   27.7800   44.4110 H   0  0  0  0  0  0  0  0  0  0  0  0
   58.9969   27.4479   47.2250 H   0  0  0  0  0  0  0  0  0  0  0  0
   60.5141   29.2848   48.0202 H   0  0  0  0  0  0  0  0  0  0  0  0
   56.9607   30.2676   44.6008 H   0  0  0  0  0  0  0  0  0  0  0  0
   57.5725   31.6294   43.0429 H   0  0  0  0  0  0  0  0  0  0  0  0
   56.9847   33.2635   42.5836 H   0  0  0  0  0  0  0  0  0  0  0  0
   58.7458   32.9096   42.5836 H   0  0  0  0  0  0  0  0  0  0  0  0
   60.3925   34.6610   47.2615 H   0  0  0  0  0  0  0  0  0  0  0  0
   61.2229   34.3165   45.7064 H   0  0  0  0  0  0  0  0  0  0  0  0
   59.5352   34.9316   45.7064 H   0  0  0  0  0  0  0  0  0  0  0  0
   61.2333   32.5633   48.7819 H   0  0  0  0  0  0  0  0  0  0  0  0
   61.7392   30.9298   48.1959 H   0  0  0  0  0  0  0  0  0  0  0  0
   62.3421   32.8035   46.1184 H   0  0  0  0  0  0  0  0  0  0  0  0
   62.9453   33.4985   47.6719 H   0  0  0  0  0  0  0  0  0  0  0  0
   64.3060   31.7810   48.0230 H   0  0  0  0  0  0  0  0  0  0  0  0
   64.4290   31.9660   46.3620 H   0  0  0  0  0  0  0  0  0  0  0  0
  1  2  1  0
  2  3  1  0
  3  4  1  0
  4  5  1  0
  5  6  1  0
  6  7  2  0
  7  8  1  0
  8  9  2  0
  9 10  1  0
 10 11  2  0
 10 12  1  0
 12 13  1  0
 13 14  1  0
 13 15  2  0
 12 16  2  0
 16 17  1  0
 16 18  1  0
 18 19  1  0
 19 20  1  0
 20 21  1  0
 11  6  1  0
 18  9  1  0
  1 22  1  0
  1 23  1  0
  1 24  1  0
  2 25  1  0
  2 26  1  0
  4 27  1  0
  4 28  1  0
  5 29  1  0
  7 30  1  0
  8 31  1  0
 11 32  1  0
 14 33  1  0
 14 34  1  0
 14 35  1  0
 17 36  1  0
 17 37  1  0
 17 38  1  0
 19 39  1  0
 19 40  1  0
 20 41  1  0
 20 42  1  0
 21 43  1  0
 21 44  1  0
M  END
>  <UniqueID>  (7) 
7

>  <SMILES>  (7) 
CCOCNc1ccc2c(c1)c(C(C)=O)c(C)n2CCN

>  <Energy>  (7) 
73.76628247911293

>  <Genealogy>  (7) 
CCOCNc1ccc2c(c1)c(C(C)=O)c(C)n2CCN (3D coordinates assigned)
CCOCNc1ccc2c(c1)c(C(C)=O)c(C)n2CCN (optimized conformer: 73.76628247911293 kcal/mol)

>  <smiles>  (7) 
CCOCNc1ccc2c(c1)c(C(C)=O)c(C)n2CCN

>  <score_type>  (7) 
oracle

>  <origin>  (7) 
adg

>  <m_score__min__energy>  (7) 
-7.0099999999999998

>  <m_primary>  (7) 
energy

$$$$
7:0
     RDKit          3D

 35 37  0  0  0  0  0  0  0  0999 V2000
   58.4050   23.9520   45.4110 C   0  0  0  0  0  0  0  0  0  0  0  0
   58.5920   25.4140   45.4190 N   0  0  0  0  0  0  0  0  0  0  0  0
   58.2270   25.9480   46.7400 C   0  0  0  0  0  0  0  0  0  0  0  0
   57.7710   26.0540   44.3720 C   0  0  0  0  0  0  0  0  0  0  0  0
   57.4800   27.4790   44.7290 C   0  0  0  0  0  0  0  0  0  0  0  0
   58.2660   28.5740   44.4330 C   0  0  0  0  0  0  0  0  0  0  0  0
   57.5590   29.6410   44.9540 C   0  0  0  0  0  0  0  0  0  0  0  0
   57.9750   31.0590   44.8980 C   0  0  0  0  0  0  0  0  0  0  0  0
   57.9280   31.7990   43.7030 C   0  0  0  0  0  0  0  0  0  0  0  0
   58.3330   33.1360   43.6990 C   0  0  0  0  0  0  0  0  0  0  0  0
   58.7820   33.7320   44.8820 C   0  0  0  0  0  0  0  0  0  0  0  0
   59.1960   35.0730   44.9120 C   0  0  0  0  0  0  0  0  0  0  0  0
   59.6400   35.6390   46.1110 C   0  0  0  0  0  0  0  0  0  0  0  0
   59.6740   34.8730   47.2810 C   0  0  0  0  0  0  0  0  0  0  0  0
   59.2630   33.5360   47.2590 C   0  0  0  0  0  0  0  0  0  0  0  0
   58.8170   32.9620   46.0640 C   0  0  0  0  0  0  0  0  0  0  0  0
   58.4170   31.6630   46.0370 N   0  0  0  0  0  0  0  0  0  0  0  0
   56.4260   29.1720   45.5180 N   0  0  0  0  0  0  0  0  0  0  0  0
   56.4050   27.8810   45.3670 O   0  0  0  0  0  0  0  0  0  0  0  0
   58.3578   23.5827   46.4461 H   0  0  0  0  0  0  0  0  0  0  0  0
   57.4679   23.7050   44.8905 H   0  0  0  0  0  0  0  0  0  0  0  0
   59.2497   23.4771   44.8905 H   0  0  0  0  0  0  0  0  0  0  0  0
   58.6616   25.3122   47.5254 H   0  0  0  0  0  0  0  0  0  0  0  0
   58.6147   26.9724   46.8413 H   0  0  0  0  0  0  0  0  0  0  0  0
   57.1317   25.9588   46.8413 H   0  0  0  0  0  0  0  0  0  0  0  0
   58.3157   26.0245   43.4168 H   0  0  0  0  0  0  0  0  0  0  0  0
   56.8197   25.5087   44.2841 H   0  0  0  0  0  0  0  0  0  0  0  0
   59.2309   28.5931   43.9051 H   0  0  0  0  0  0  0  0  0  0  0  0
   57.5736   31.3268   42.7749 H   0  0  0  0  0  0  0  0  0  0  0  0
   58.2988   33.7191   42.7669 H   0  0  0  0  0  0  0  0  0  0  0  0
   59.1711   35.6777   43.9935 H   0  0  0  0  0  0  0  0  0  0  0  0
   59.9636   36.6901   46.1343 H   0  0  0  0  0  0  0  0  0  0  0  0
   60.0250   35.3233   48.2212 H   0  0  0  0  0  0  0  0  0  0  0  0
   59.2906   32.9365   48.1809 H   0  0  0  0  0  0  0  0  0  0  0  0
   55.6740   29.7140   45.9960 H   0  0  0  0  0  0  0  0  0  0  0  0
  1  2  1  0
  2  3  1  0
  2  4  1  0
  4  5  1  0
  5  6  2  0
  6  7  1  0
  7  8  1  0
  8  9  2  0
  9 10  1  0
 10 11  2  0
 11 12  1  0
 12 13  2  0
 13 14  1  0
 14 15  2  0
 15 16  1  0
 16 17  2  0
  7 18  2  0
 18 19  1  0
 19  5  1  0
 17  8  1  0
 16 11  1  0
  1 20  1  0
  1 21  1  0
  1 22  1  0
  3 23  1  0
  3 24  1  0
  3 25  1  0
  4 26  1  0
  4 27  1  0
  6 28  1  0
  9 29  1  0
 10 30  1  0
 12 31  1  0
 13 32  1  0
 14 33  1  0
 15 34  1  0
 18 35  1  0
M  CHG  1  18   1
M  END
>  <UniqueID>  (8) 
8

>  <SMILES>  (8) 
CN(C)Cc1cc(-c2ccc3ccccc3n2)[nH+]o1

>  <Energy>  (8) 
70.91991992376317

>  <Genealogy>  (8) 
CN(C)Cc1cc(-c2ccc3ccccc3n2)[nH+]o1 (protonated)
CN(C)Cc1cc(-c2ccc3ccccc3n2)[nH+]o1 (3D coordinates assigned)
CN(C)Cc1cc(-c2ccc3ccccc3n2)[nH+]o1 (optimized conformer: 70.91991992376317 kcal/mol)

>  <smiles>  (8) 
CN(C)Cc1cc(-c2ccc3ccccc3n2)no1

>  <score_type>  (8) 
oracle

>  <origin>  (8) 
adg

>  <m_score__min__energy>  (8) 
-5.5899999999999999

>  <m_primary>  (8) 
energy

$$$$
8:0
     RDKit          3D

 66 69  0  0  0  0  0  0  0  0999 V2000
   55.9830   30.7610   52.2740 C   0  0  0  0  0  0  0  0  0  0  0  0
   57.3110   30.8040   51.5820 C   0  0  0  0  0  0  0  0  0  0  0  0
   57.8380   29.7580   51.2330 O   0  0  0  0  0  0  0  0  0  0  0  0
   57.9780   32.1130   51.2690 C   0  0  0  0  0  0  0  0  0  0  0  0
   59.3360   31.8790   50.9050 O   0  0  0  0  0  0  0  0  0  0  0  0
   60.0080   32.5250   49.8530 C   0  0  0  0  0  0  0  0  0  0  0  0
   59.7080   33.8540   49.4940 C   0  0  0  0  0  0  0  0  0  0  0  0
   60.4150   34.4880   48.4710 C   0  0  0  0  0  0  0  0  0  0  0  0
   61.4360   33.8130   47.8050 C   0  0  0  0  0  0  0  0  0  0  0  0
   61.7430   32.4950   48.1460 C   0  0  0  0  0  0  0  0  0  0  0  0
   61.0140   31.8250   49.1460 C   0  0  0  0  0  0  0  0  0  0  0  0
   61.3690   30.3850   49.4970 C   0  0  0  0  0  0  0  0  0  0  0  0
   60.2500   29.4140   49.3580 N   0  0  0  0  0  0  0  0  0  0  0  0
   59.2420   29.8390   48.3530 C   0  0  0  0  0  0  0  0  0  0  0  0
   58.4090   28.6510   47.8730 C   0  0  0  0  0  0  0  0  0  0  0  0
   59.2720   27.7080   47.1360 N   0  0  0  0  0  0  0  0  0  0  0  0
   58.5710   26.4470   46.8290 C   0  0  0  0  0  0  0  0  0  0  0  0
   58.3690   26.2870   45.3100 C   0  0  0  0  0  0  0  0  0  0  0  0
   57.3890   27.1970   44.8010 O   0  0  0  0  0  0  0  0  0  0  0  0
   57.5310   28.5930   44.7540 C   0  0  0  0  0  0  0  0  0  0  0  0
   58.7850   29.2250   44.7980 C   0  0  0  0  0  0  0  0  0  0  0  0
   58.8810   30.6120   44.6590 C   0  0  0  0  0  0  0  0  0  0  0  0
   57.7270   31.3920   44.4850 C   0  0  0  0  0  0  0  0  0  0  0  0
   57.8670   32.8910   44.2900 C   0  0  0  0  0  0  0  0  0  0  0  0
   57.0210   33.7330   45.2460 C   0  0  0  0  0  0  0  0  0  0  0  0
   58.2910   34.3260   45.8450 C   0  0  0  0  0  0  0  0  0  0  0  0
   59.1390   33.4910   44.8910 C   0  0  0  0  0  0  0  0  0  0  0  0
   56.4690   30.7570   44.4830 C   0  0  0  0  0  0  0  0  0  0  0  0
   56.3770   29.3720   44.6230 C   0  0  0  0  0  0  0  0  0  0  0  0
   60.6140   27.5070   47.7410 C   0  0  0  0  0  0  0  0  0  0  0  0
   60.6990   28.0010   49.1980 C   0  0  0  0  0  0  0  0  0  0  0  0
   56.1368   30.7660   53.3632 H   0  0  0  0  0  0  0  0  0  0  0  0
   55.3895   31.6404   51.9835 H   0  0  0  0  0  0  0  0  0  0  0  0
   55.4476   29.8450   51.9835 H   0  0  0  0  0  0  0  0  0  0  0  0
   57.4536   32.6014   50.4345 H   0  0  0  0  0  0  0  0  0  0  0  0
   57.9428   32.7637   52.1552 H   0  0  0  0  0  0  0  0  0  0  0  0
   58.9108   34.3959   50.0238 H   0  0  0  0  0  0  0  0  0  0  0  0
   60.1658   35.5219   48.1902 H   0  0  0  0  0  0  0  0  0  0  0  0
   62.0011   34.3199   47.0090 H   0  0  0  0  0  0  0  0  0  0  0  0
   62.5625   31.9750   47.6283 H   0  0  0  0  0  0  0  0  0  0  0  0
   62.1857   30.0628   48.8343 H   0  0  0  0  0  0  0  0  0  0  0  0
   61.6475   30.3857   50.5612 H   0  0  0  0  0  0  0  0  0  0  0  0
   59.7550   29.4470   50.2830 H   0  0  0  0  0  0  0  0  0  0  0  0
   58.5743   30.5858   48.8074 H   0  0  0  0  0  0  0  0  0  0  0  0
   59.7699   30.2677   47.4884 H   0  0  0  0  0  0  0  0  0  0  0  0
   57.9656   28.1403   48.7405 H   0  0  0  0  0  0  0  0  0  0  0  0
   57.6089   29.0099   47.2089 H   0  0  0  0  0  0  0  0  0  0  0  0
   59.1678   25.6025   47.2040 H   0  0  0  0  0  0  0  0  0  0  0  0
   57.5844   26.4656   47.3151 H   0  0  0  0  0  0  0  0  0  0  0  0
   59.3265   26.4758   44.8025 H   0  0  0  0  0  0  0  0  0  0  0  0
   58.0134   25.2635   45.1204 H   0  0  0  0  0  0  0  0  0  0  0  0
   59.6956   28.6250   44.9426 H   0  0  0  0  0  0  0  0  0  0  0  0
   59.8683   31.0963   44.6861 H   0  0  0  0  0  0  0  0  0  0  0  0
   57.6908   32.9331   43.2050 H   0  0  0  0  0  0  0  0  0  0  0  0
   56.3746   34.4686   44.7449 H   0  0  0  0  0  0  0  0  0  0  0  0
   56.2698   33.2561   45.8927 H   0  0  0  0  0  0  0  0  0  0  0  0
   58.3904   35.4118   45.6994 H   0  0  0  0  0  0  0  0  0  0  0  0
   58.4671   34.2783   46.9298 H   0  0  0  0  0  0  0  0  0  0  0  0
   59.7344   34.0848   44.1819 H   0  0  0  0  0  0  0  0  0  0  0  0
   59.9346   32.8377   45.2785 H   0  0  0  0  0  0  0  0  0  0  0  0
   55.5540   31.3570   44.3704 H   0  0  0  0  0  0  0  0  0  0  0  0
   55.3888   28.8888   44.6304 H   0  0  0  0  0  0  0  0  0  0  0  0
   60.8499   26.4328   47.7210 H   0  0  0  0  0  0  0  0  0  0  0  0
   61.3317   28.0967   47.1518 H   0  0  0  0  0  0  0  0  0  0  0  0
   60.0638   27.3576   49.8245 H   0  0  0  0  0  0  0  0  0  0  0  0
   61.7551   27.9534   49.5020 H   0  0  0  0  0  0  0  0  0  0  0  0
  1  2  1  0
  2  3  2  0
  2  4  1  0
  4  5  1  0
  5  6  1  0
  6  7  2  0
  7  8  1  0
  8  9  2  0
  9 10  1  0
 10 11  2  0
 11 12  1  0
 12 13  1  0
 13 14  1  0
 14 15  1  0
 15 16  1  0
 16 17  1  0
 17 18  1  0
 18 19  1  0
 19 20  1  0
 20 21  2  0
 21 22  1  0
 22 23  2  0
 23 24  1  0
 24 25  1  0
 25 26  1  0
 26 27  1  0
 23 28  1  0
 28 29  2  0
 16 30  1  0
 30 31  1  0
 11  6  1  0
 31 13  1  0
 29 20  1  0
 27 24  1  0
  1 32  1  0
  1 33  1  0
  1 34  1  0
  4 35  1  0
  4 36  1  0
  7 37  1  0
  8 38  1  0
  9 39  1  0
 10 40  1  0
 12 41  1  0
 12 42  1  0
 13 43  1  0
 14 44  1  0
 14 45  1  0
 15 46  1  0
 15 47  1  0
 17 48  1  0
 17 49  1  0
 18 50  1  0
 18 51  1  0
 21 52  1  0
 22 53  1  0
 24 54  1  0
 25 55  1  0
 25 56  1  0
 26 57  1  0
 26 58  1  0
 27 59  1  0
 27 60  1  0
 28 61  1  0
 29 62  1  0
 30 63  1  0
 30 64  1  0
 31 65  1  0
 31 66  1  0
M  CHG  1  13   1
M  END
>  <UniqueID>  (9) 
9

>  <SMILES>  (9) 
CC(=O)COc1ccccc1C[NH+]1CCN(CCOc2ccc(C3CCC3)cc2)CC1

>  <Energy>  (9) 
140.7432902918907

>  <Genealogy>  (9) 
CC(=O)COc1ccccc1C[NH+]1CCN(CCOc2ccc(C3CCC3)cc2)CC1 (protonated)
CC(=O)COc1ccccc1C[NH+]1CCN(CCOc2ccc(C3CCC3)cc2)CC1 (3D coordinates assigned)
CC(=O)COc1ccccc1C[NH+]1CCN(CCOc2ccc(C3CCC3)cc2)CC1 (nonaromatic ring conformer: 140.7432902918907 kcal/mol)

>  <smiles>  (9) 
CC(=O)COc1ccccc1CN1CCN(CCOc2ccc(C3CCC3)cc2)CC1

>  <score_type>  (9) 
oracle

>  <origin>  (9) 
adg

>  <m_score__min__energy>  (9) 
-7.8700000000000001

>  <m_primary>  (9) 
energy

$$$$
9:0
     RDKit          3D

 53 56  0  0  0  0  0  0  0  0999 V2000
   65.1780   33.4750   50.2820 C   0  0  0  0  0  0  0  0  0  0  0  0
   63.9870   33.1450   49.5050 N   0  0  0  0  0  0  0  0  0  0  0  0
   63.5560   33.7840   48.3950 C   0  0  0  0  0  0  0  0  0  0  0  0
   62.4170   33.1590   47.9090 C   0  0  0  0  0  0  0  0  0  0  0  0
   61.6160   33.5670   46.7110 C   0  0  0  0  0  0  0  0  0  0  0  0
   60.4420   34.3650   47.1220 N   0  0  0  0  0  0  0  0  0  0  0  0
   59.3990   33.5550   47.7610 C   0  0  0  0  0  0  0  0  0  0  0  0
   58.7820   32.5290   46.8040 C   0  0  0  0  0  0  0  0  0  0  0  0
   58.6010   33.0100   45.4170 N   0  0  0  0  0  0  0  0  0  0  0  0
   57.9330   32.1380   44.4500 C   0  0  0  0  0  0  0  0  0  0  0  0
   57.2740   30.9520   44.8600 C   0  0  0  0  0  0  0  0  0  0  0  0
   56.6360   30.1220   43.9330 C   0  0  0  0  0  0  0  0  0  0  0  0
   56.6420   30.4490   42.5790 C   0  0  0  0  0  0  0  0  0  0  0  0
   57.2870   31.6040   42.1460 C   0  0  0  0  0  0  0  0  0  0  0  0
   57.9270   32.4410   43.0650 C   0  0  0  0  0  0  0  0  0  0  0  0
   59.2010   34.2760   44.9390 C   0  0  0  0  0  0  0  0  0  0  0  0
   59.8440   35.1470   46.0300 C   0  0  0  0  0  0  0  0  0  0  0  0
   62.1500   32.1140   48.7730 C   0  0  0  0  0  0  0  0  0  0  0  0
   63.1460   32.1120   49.7140 C   0  0  0  0  0  0  0  0  0  0  0  0
   63.1910   31.1310   50.8450 C   0  0  0  0  0  0  0  0  0  0  0  0
   62.2660   29.9320   50.5410 C   0  0  0  0  0  0  0  0  0  0  0  0
   60.9490   30.3760   50.0140 N   0  0  2  0  0  0  0  0  0  0  0  0
   60.0390   29.2270   49.8870 C   0  0  0  0  0  0  0  0  0  0  0  0
   61.0870   31.0600   48.7030 C   0  0  0  0  0  0  0  0  0  0  0  0
   64.9452   33.4105   51.3551 H   0  0  0  0  0  0  0  0  0  0  0  0
   65.9829   32.7660   50.0382 H   0  0  0  0  0  0  0  0  0  0  0  0
   65.5033   34.4971   50.0382 H   0  0  0  0  0  0  0  0  0  0  0  0
   64.0356   34.6659   47.9452 H   0  0  0  0  0  0  0  0  0  0  0  0
   62.2472   34.1697   46.0414 H   0  0  0  0  0  0  0  0  0  0  0  0
   61.2676   32.6627   46.1906 H   0  0  0  0  0  0  0  0  0  0  0  0
   59.8415   33.0198   48.6141 H   0  0  0  0  0  0  0  0  0  0  0  0
   58.5972   34.2363   48.0819 H   0  0  0  0  0  0  0  0  0  0  0  0
   59.4381   31.6465   46.7780 H   0  0  0  0  0  0  0  0  0  0  0  0
   57.7761   32.3083   47.1906 H   0  0  0  0  0  0  0  0  0  0  0  0
   57.2643   30.6798   45.9258 H   0  0  0  0  0  0  0  0  0  0  0  0
   56.1278   29.2080   44.2741 H   0  0  0  0  0  0  0  0  0  0  0  0
   56.1374   29.7950   41.8525 H   0  0  0  0  0  0  0  0  0  0  0  0
   57.2932   31.8593   41.0761 H   0  0  0  0  0  0  0  0  0  0  0  0
   58.4341   33.3494   42.7077 H   0  0  0  0  0  0  0  0  0  0  0  0
   59.9772   34.0274   44.2003 H   0  0  0  0  0  0  0  0  0  0  0  0
   58.3731   34.8688   44.5229 H   0  0  0  0  0  0  0  0  0  0  0  0
   60.6317   35.7602   45.5679 H   0  0  0  0  0  0  0  0  0  0  0  0
   59.0443   35.7612   46.4695 H   0  0  0  0  0  0  0  0  0  0  0  0
   64.2225   30.7716   50.9748 H   0  0  0  0  0  0  0  0  0  0  0  0
   62.8499   31.6259   51.7662 H   0  0  0  0  0  0  0  0  0  0  0  0
   62.7510   29.2878   49.7928 H   0  0  0  0  0  0  0  0  0  0  0  0
   62.0939   29.3841   51.4792 H   0  0  0  0  0  0  0  0  0  0  0  0
   60.5210   31.0450   50.6990 H   0  0  0  0  0  0  0  0  0  0  0  0
   59.7566   28.8705   50.8886 H   0  0  0  0  0  0  0  0  0  0  0  0
   59.1359   29.5333   49.3387 H   0  0  0  0  0  0  0  0  0  0  0  0
   60.5441   28.4181   49.3387 H   0  0  0  0  0  0  0  0  0  0  0  0
   61.3596   30.3207   47.9354 H   0  0  0  0  0  0  0  0  0  0  0  0
   60.1291   31.5358   48.4462 H   0  0  0  0  0  0  0  0  0  0  0  0
  1  2  1  0
  2  3  1  0
  3  4  2  0
  4  5  1  0
  5  6  1  0
  6  7  1  0
  7  8  1  0
  8  9  1  0
  9 10  1  0
 10 11  2  0
 11 12  1  0
 12 13  2  0
 13 14  1  0
 14 15  2  0
  9 16  1  0
 16 17  1  0
  4 18  1  0
 18 19  2  0
 19 20  1  0
 20 21  1  0
 21 22  1  0
 22 23  1  0
 22 24  1  0
 19  2  1  0
 17  6  1  0
 24 18  1  0
 15 10  1  0
  1 25  1  0
  1 26  1  0
  1 27  1  0
  3 28  1  0
  5 29  1  0
  5 30  1  0
  7 31  1  0
  7 32  1  0
  8 33  1  0
  8 34  1  0
 11 35  1  0
 12 36  1  0
 13 37  1  0
 14 38  1  0
 15 39  1  0
 16 40  1  0
 16 41  1  0
 17 42  1  0
 17 43  1  0
 20 44  1  0
 20 45  1  0
 21 46  1  0
 21 47  1  0
 22 48  1  1
 23 49  1  0
 23 50  1  0
 23 51  1  0
 24 52  1  0
 24 53  1  0
M  CHG  1  22   1
M  END
>  <UniqueID>  (10) 
10

>  <SMILES>  (10) 
Cn1cc(CN2CCN(c3ccccc3)CC2)c2c1CC[N@H+](C)C2

>  <Energy>  (10) 
94.35835611125016

>  <Genealogy>  (10) 
Cn1cc(CN2CCN(c3ccccc3)CC2)c2c1CC[NH+](C)C2 (protonated)
Cn1cc(CN2CCN(c3ccccc3)CC2)c2c1CC[N@H+](C)C2 (chirality)
Cn1cc(CN2CCN(c3ccccc3)CC2)c2c1CC[N@H+](C)C2 (3D coordinates assigned)
Cn1cc(CN2CCN(c3ccccc3)CC2)c2c1CC[N@H+](C)C2 (nonaromatic ring conformer: 94.35835611125016 kcal/mol)

>  <smiles>  (10) 
CN1CCc2c(c(CN3CCN(c4ccccc4)CC3)cn2C)C1

>  <score_type>  (10) 
oracle

>  <origin>  (10) 
adg

>  <m_score__min__energy>  (10) 
-6.25

>  <m_primary>  (10) 
energy

$$$$
10:0
     RDKit          3D

 41 42  0  0  0  0  0  0  0  0999 V2000
   61.9420   32.7180   47.1230 C   0  0  0  0  0  0  0  0  0  0  0  0
   61.2440   33.8580   46.3820 C   0  0  0  0  0  0  0  0  0  0  0  0
   59.7930   33.8810   46.6790 N   0  0  0  0  0  0  0  0  0  0  0  0
   59.5620   34.4900   48.0120 C   0  0  0  0  0  0  0  0  0  0  0  0
   59.2790   33.4340   49.0800 C   0  0  0  0  0  0  0  0  0  0  0  0
   59.0270   34.5830   45.6130 C   0  0  0  0  0  0  0  0  0  0  0  0
   57.8670   33.7100   45.1240 C   0  0  0  0  0  0  0  0  0  0  0  0
   57.9530   32.3630   45.6890 N   0  0  0  0  0  0  0  0  0  0  0  0
   57.9000   31.1640   44.8930 C   0  0  0  0  0  0  0  0  0  0  0  0
   57.0370   31.1000   43.7920 C   0  0  0  0  0  0  0  0  0  0  0  0
   56.9270   29.9250   43.0540 C   0  0  0  0  0  0  0  0  0  0  0  0
   57.6500   28.8210   43.3890 N   0  0  0  0  0  0  0  0  0  0  0  0
   57.5070   27.6720   42.6350 O   0  0  0  0  0  0  0  0  0  0  0  0
   58.5110   28.8390   44.4540 C   0  0  0  0  0  0  0  0  0  0  0  0
   59.2610   27.6940   44.7900 C   0  0  0  0  0  0  0  0  0  0  0  0
   60.1520   27.7180   45.8620 C   0  0  0  0  0  0  0  0  0  0  0  0
   60.3150   28.8820   46.6110 C   0  0  0  0  0  0  0  0  0  0  0  0
   59.5810   30.0270   46.3000 C   0  0  0  0  0  0  0  0  0  0  0  0
   58.6600   30.0210   45.2320 C   0  0  0  0  0  0  0  0  0  0  0  0
   61.8469   32.8733   48.2078 H   0  0  0  0  0  0  0  0  0  0  0  0
   61.4748   31.7611   46.8473 H   0  0  0  0  0  0  0  0  0  0  0  0
   63.0067   32.6991   46.8473 H   0  0  0  0  0  0  0  0  0  0  0  0
   61.6892   34.8143   46.6938 H   0  0  0  0  0  0  0  0  0  0  0  0
   61.3758   33.7029   45.3010 H   0  0  0  0  0  0  0  0  0  0  0  0
   60.4573   35.0590   48.3030 H   0  0  0  0  0  0  0  0  0  0  0  0
   58.6817   35.1456   47.9392 H   0  0  0  0  0  0  0  0  0  0  0  0
   59.3987   33.8807   50.0781 H   0  0  0  0  0  0  0  0  0  0  0  0
   58.2498   33.0631   48.9653 H   0  0  0  0  0  0  0  0  0  0  0  0
   59.9848   32.5982   48.9653 H   0  0  0  0  0  0  0  0  0  0  0  0
   58.6266   35.5252   46.0154 H   0  0  0  0  0  0  0  0  0  0  0  0
   59.6997   34.7880   44.7672 H   0  0  0  0  0  0  0  0  0  0  0  0
   56.9160   34.1695   45.4314 H   0  0  0  0  0  0  0  0  0  0  0  0
   57.9210   33.6354   44.0279 H   0  0  0  0  0  0  0  0  0  0  0  0
   58.1100   32.2880   46.7200 H   0  0  0  0  0  0  0  0  0  0  0  0
   56.4436   31.9820   43.5092 H   0  0  0  0  0  0  0  0  0  0  0  0
   56.2477   29.8879   42.1896 H   0  0  0  0  0  0  0  0  0  0  0  0
   56.6440   27.1380   42.6360 H   0  0  0  0  0  0  0  0  0  0  0  0
   59.1422   26.7727   44.2008 H   0  0  0  0  0  0  0  0  0  0  0  0
   60.7277   26.8161   46.1173 H   0  0  0  0  0  0  0  0  0  0  0  0
   61.0253   28.8980   47.4508 H   0  0  0  0  0  0  0  0  0  0  0  0
   59.7219   30.9426   46.8931 H   0  0  0  0  0  0  0  0  0  0  0  0
  1  2  1  0
  2  3  1  0
  3  4  1  0
  4  5  1  0
  3  6  1  0
  6  7  1  0
  7  8  1  0
  8  9  1  0
  9 10  2  0
 10 11  1  0
 11 12  2  0
 12 13  1  0
 12 14  1  0
 14 15  2  0
 15 16  1  0
 16 17  2  0
 17 18  1  0
 18 19  2  0
 19  9  1  0
 19 14  1  0
  1 20  1  0
  1 21  1  0
  1 22  1  0
  2 23  1  0
  2 24  1  0
  4 25  1  0
  4 26  1  0
  5 27  1  0
  5 28  1  0
  5 29  1  0
  6 30  1  0
  6 31  1  0
  7 32  1  0
  7 33  1  0
  8 34  1  0
 10 35  1  0
 11 36  1  0
 13 37  1  0
 15 38  1  0
 16 39  1  0
 17 40  1  0
 18 41  1  0
M  CHG  1  12   1
M  END
>  <UniqueID>  (11) 
11

>  <SMILES>  (11) 
CCN(CC)CCNc1cc[n+](O)c2ccccc12

>  <Energy>  (11) 
46.810924776304425

>  <Genealogy>  (11) 
CCN(CC)CCNc1cc[n+](O)c2ccccc12 (protonated)
CCN(CC)CCNc1cc[n+](O)c2ccccc12 (3D coordinates assigned)
CCN(CC)CCNc1cc[n+](O)c2ccccc12 (optimized conformer: 46.810924776304425 kcal/mol)

>  <smiles>  (11) 
CCN(CC)CCNc1cc[n+]([O-])c2ccccc12

>  <score_type>  (11) 
oracle

>  <origin>  (11) 
adg

>  <m_score__min__energy>  (11) 
-4.6299999999999999

>  <m_primary>  (11) 
energy

$$$$
11:0
     RDKit          3D

 52 53  0  0  0  0  0  0  0  0999 V2000
   55.8880   29.7300   43.7560 C   0  0  0  0  0  0  0  0  0  0  0  0
   56.6390   30.4070   42.6070 C   0  0  0  0  0  0  0  0  0  0  0  0
   57.6740   31.3630   43.0570 N   0  0  0  0  0  0  0  0  0  0  0  0
   58.1230   32.3340   42.0290 C   0  0  0  0  0  0  0  0  0  0  0  0
   57.2860   32.3470   40.7420 C   0  0  0  0  0  0  0  0  0  0  0  0
   57.4760   31.8770   44.4300 C   0  0  0  0  0  0  0  0  0  0  0  0
   57.7940   33.3720   44.5070 C   0  0  0  0  0  0  0  0  0  0  0  0
   58.5360   33.6210   45.6810 O   0  0  0  0  0  0  0  0  0  0  0  0
   57.7740   33.2840   46.8190 C   0  0  0  0  0  0  0  0  0  0  0  0
   58.6750   33.3060   48.0550 C   0  0  0  0  0  0  0  0  0  0  0  0
   59.4340   34.5010   48.1280 O   0  0  0  0  0  0  0  0  0  0  0  0
   60.4490   34.4280   49.1140 C   0  0  0  0  0  0  0  0  0  0  0  0
   61.7620   33.9280   48.5370 C   0  0  0  0  0  0  0  0  0  0  0  0
   61.8430   33.8140   47.1420 C   0  0  0  0  0  0  0  0  0  0  0  0
   63.0170   33.3680   46.5420 C   0  0  0  0  0  0  0  0  0  0  0  0
   64.0930   33.0340   47.2970 N   0  0  0  0  0  0  0  0  0  0  0  0
   64.0620   33.1120   48.6580 C   0  0  0  0  0  0  0  0  0  0  0  0
   65.1960   32.7430   49.4010 C   0  0  0  0  0  0  0  0  0  0  0  0
   65.1800   32.7920   50.8000 C   0  0  0  0  0  0  0  0  0  0  0  0
   66.4080   32.4310   51.5820 C   0  0  0  0  0  0  0  0  0  0  0  0
   64.0320   33.2400   51.4590 C   0  0  0  0  0  0  0  0  0  0  0  0
   62.8980   33.6140   50.7360 C   0  0  0  0  0  0  0  0  0  0  0  0
   62.8890   33.5590   49.3250 C   0  0  0  0  0  0  0  0  0  0  0  0
   56.2864   30.0891   44.7164 H   0  0  0  0  0  0  0  0  0  0  0  0
   54.8176   29.9743   43.6887 H   0  0  0  0  0  0  0  0  0  0  0  0
   56.0203   28.6401   43.6887 H   0  0  0  0  0  0  0  0  0  0  0  0
   57.1253   29.6273   42.0024 H   0  0  0  0  0  0  0  0  0  0  0  0
   55.8979   30.9815   42.0319 H   0  0  0  0  0  0  0  0  0  0  0  0
   58.0860   33.3407   42.4707 H   0  0  0  0  0  0  0  0  0  0  0  0
   59.1366   32.0244   41.7344 H   0  0  0  0  0  0  0  0  0  0  0  0
   56.2168   32.3636   41.0001 H   0  0  0  0  0  0  0  0  0  0  0  0
   57.5347   33.2414   40.1519 H   0  0  0  0  0  0  0  0  0  0  0  0
   57.5068   31.4453   40.1519 H   0  0  0  0  0  0  0  0  0  0  0  0
   56.4291   31.7161   44.7269 H   0  0  0  0  0  0  0  0  0  0  0  0
   58.1556   31.3388   45.1071 H   0  0  0  0  0  0  0  0  0  0  0  0
   58.3834   33.6700   43.6274 H   0  0  0  0  0  0  0  0  0  0  0  0
   56.8593   33.9516   44.5266 H   0  0  0  0  0  0  0  0  0  0  0  0
   56.9596   34.0126   46.9449 H   0  0  0  0  0  0  0  0  0  0  0  0
   57.3469   32.2783   46.6920 H   0  0  0  0  0  0  0  0  0  0  0  0
   58.0478   33.2263   48.9551 H   0  0  0  0  0  0  0  0  0  0  0  0
   59.3736   32.4592   47.9858 H   0  0  0  0  0  0  0  0  0  0  0  0
   60.6056   35.4306   49.5385 H   0  0  0  0  0  0  0  0  0  0  0  0
   60.1232   33.7172   49.8877 H   0  0  0  0  0  0  0  0  0  0  0  0
   60.9755   34.0780   46.5194 H   0  0  0  0  0  0  0  0  0  0  0  0
   63.0726   33.2857   45.4465 H   0  0  0  0  0  0  0  0  0  0  0  0
   64.9550   32.7040   46.8080 H   0  0  0  0  0  0  0  0  0  0  0  0
   66.1055   32.4123   48.8782 H   0  0  0  0  0  0  0  0  0  0  0  0
   66.1894   32.4952   52.6582 H   0  0  0  0  0  0  0  0  0  0  0  0
   66.7142   31.4048   51.3307 H   0  0  0  0  0  0  0  0  0  0  0  0
   67.2209   33.1282   51.3307 H   0  0  0  0  0  0  0  0  0  0  0  0
   64.0219   33.2985   52.5574 H   0  0  0  0  0  0  0  0  0  0  0  0
   62.0003   33.9558   51.2720 H   0  0  0  0  0  0  0  0  0  0  0  0
  1  2  1  0
  2  3  1  0
  3  4  1  0
  4  5  1  0
  3  6  1  0
  6  7  1  0
  7  8  1  0
  8  9  1  0
  9 10  1  0
 10 11  1  0
 11 12  1  0
 12 13  1  0
 13 14  2  0
 14 15  1  0
 15 16  2  0
 16 17  1  0
 17 18  2  0
 18 19  1  0
 19 20  1  0
 19 21  2  0
 21 22  1  0
 22 23  2  0
 23 13  1  0
 23 17  1  0
  1 24  1  0
  1 25  1  0
  1 26  1  0
  2 27  1  0
  2 28  1  0
  4 29  1  0
  4 30  1  0
  5 31  1  0
  5 32  1  0
  5 33  1  0
  6 34  1  0
  6 35  1  0
  7 36  1  0
  7 37  1  0
  9 38  1  0
  9 39  1  0
 10 40  1  0
 10 41  1  0
 12 42  1  0
 12 43  1  0
 14 44  1  0
 15 45  1  0
 16 46  1  0
 18 47  1  0
 20 48  1  0
 20 49  1  0
 20 50  1  0
 21 51  1  0
 22 52  1  0
M  CHG  1  16   1
M  END
>  <UniqueID>  (12) 
12

>  <SMILES>  (12) 
CCN(CC)CCOCCOCc1cc[nH+]c2cc(C)ccc12

>  <Energy>  (12) 
62.29091660659543

>  <Genealogy>  (12) 
CCN(CC)CCOCCOCc1cc[nH+]c2cc(C)ccc12 (protonated)
CCN(CC)CCOCCOCc1cc[nH+]c2cc(C)ccc12 (3D coordinates assigned)
CCN(CC)CCOCCOCc1cc[nH+]c2cc(C)ccc12 (optimized conformer: 62.29091660659543 kcal/mol)

>  <smiles>  (12) 
CCN(CC)CCOCCOCc1ccnc2cc(C)ccc12

>  <score_type>  (12) 
oracle

>  <origin>  (12) 
adg

>  <m_score__min__energy>  (12) 
-5.2400000000000002

>  <m_primary>  (12) 
energy

$$$$
12:0
     RDKit          3D

 35 37  0  0  0  0  0  0  0  0999 V2000
   57.9450   29.7760   44.4710 C   0  0  0  0  0  0  0  0  0  0  0  0
   58.0730   31.2040   44.9100 C   0  0  0  0  0  0  0  0  0  0  0  0
   57.5540   32.2370   44.1140 C   0  0  0  0  0  0  0  0  0  0  0  0
   57.7140   33.5700   44.5010 C   0  0  0  0  0  0  0  0  0  0  0  0
   58.3980   33.8830   45.6780 C   0  0  0  0  0  0  0  0  0  0  0  0
   58.9230   32.8600   46.4840 C   0  0  0  0  0  0  0  0  0  0  0  0
   59.6720   33.1960   47.7130 C   0  0  0  0  0  0  0  0  0  0  0  0
   59.0270   33.3760   48.9330 C   0  0  0  0  0  0  0  0  0  0  0  0
   60.1740   33.7830   50.0880 S   0  0  0  0  0  0  0  0  0  0  0  0
   61.5090   33.7350   49.0680 C   0  0  0  0  0  0  0  0  0  0  0  0
   61.0750   33.3760   47.7880 C   0  0  0  0  0  0  0  0  0  0  0  0
   62.0370   33.1220   46.6590 C   0  0  0  0  0  0  0  0  0  0  0  0
   63.3980   33.8120   46.8790 C   0  0  0  0  0  0  0  0  0  0  0  0
   64.3530   33.0340   47.6970 N   0  0  0  0  0  0  0  0  0  0  0  0
   63.9690   32.9490   49.1200 C   0  0  0  0  0  0  0  0  0  0  0  0
   62.9180   34.0040   49.5330 C   0  0  0  0  0  0  0  0  0  0  0  0
   58.7770   31.5220   46.0820 C   0  0  0  0  0  0  0  0  0  0  0  0
   57.8866   29.1244   45.3553 H   0  0  0  0  0  0  0  0  0  0  0  0
   57.0327   29.6582   43.8678 H   0  0  0  0  0  0  0  0  0  0  0  0
   58.8218   29.4978   43.8678 H   0  0  0  0  0  0  0  0  0  0  0  0
   57.0198   31.9965   43.1830 H   0  0  0  0  0  0  0  0  0  0  0  0
   57.3000   34.3756   43.8768 H   0  0  0  0  0  0  0  0  0  0  0  0
   58.5258   34.9345   45.9745 H   0  0  0  0  0  0  0  0  0  0  0  0
   57.9466   33.2694   49.1103 H   0  0  0  0  0  0  0  0  0  0  0  0
   62.2008   32.0378   46.5718 H   0  0  0  0  0  0  0  0  0  0  0  0
   61.5947   33.5383   45.7419 H   0  0  0  0  0  0  0  0  0  0  0  0
   63.8553   33.9922   45.8949 H   0  0  0  0  0  0  0  0  0  0  0  0
   63.1933   34.7397   47.4335 H   0  0  0  0  0  0  0  0  0  0  0  0
   65.3190   33.4230   47.5920 H   0  0  0  0  0  0  0  0  0  0  0  0
   64.3790   32.0630   47.3060 H   0  0  0  0  0  0  0  0  0  0  0  0
   63.5531   31.9486   49.3104 H   0  0  0  0  0  0  0  0  0  0  0  0
   64.8746   33.1410   49.7141 H   0  0  0  0  0  0  0  0  0  0  0  0
   62.9073   34.0594   50.6316 H   0  0  0  0  0  0  0  0  0  0  0  0
   63.2231   34.9409   49.0441 H   0  0  0  0  0  0  0  0  0  0  0  0
   59.2174   30.7179   46.6898 H   0  0  0  0  0  0  0  0  0  0  0  0
  1  2  1  0
  2  3  2  0
  3  4  1  0
  4  5  2  0
  5  6  1  0
  6  7  1  0
  7  8  2  0
  8  9  1  0
  9 10  1  0
 10 11  2  0
 11 12  1  0
 12 13  1  0
 13 14  1  0
 14 15  1  0
 15 16  1  0
  6 17  2  0
 17  2  1  0
 11  7  1  0
 16 10  1  0
  1 18  1  0
  1 19  1  0
  1 20  1  0
  3 21  1  0
  4 22  1  0
  5 23  1  0
  8 24  1  0
 12 25  1  0
 12 26  1  0
 13 27  1  0
 13 28  1  0
 14 29  1  0
 14 30  1  0
 15 31  1  0
 15 32  1  0
 16 33  1  0
 16 34  1  0
 17 35  1  0
M  CHG  1  14   1
M  END
>  <UniqueID>  (13) 
13

>  <SMILES>  (13) 
Cc1cccc(-c2csc3c2CC[NH2+]CC3)c1

>  <Energy>  (13) 
74.96546235789776

>  <Genealogy>  (13) 
Cc1cccc(-c2csc3c2CC[NH2+]CC3)c1 (protonated)
Cc1cccc(-c2csc3c2CC[NH2+]CC3)c1 (3D coordinates assigned)
Cc1cccc(-c2csc3c2CC[NH2+]CC3)c1 (nonaromatic ring conformer: 74.96546235789776 kcal/mol)

>  <smiles>  (13) 
Cc1cccc(-c2csc3c2CCNCC3)c1

>  <score_type>  (13) 
oracle

>  <origin>  (13) 
adg

>  <m_score__min__energy>  (13) 
-4.3399999999999999

>  <m_primary>  (13) 
energy

$$$$
13:0
     RDKit          3D

 55 57  0  0  0  0  0  0  0  0999 V2000
   57.3840   24.8910   43.6830 C   0  0  0  0  0  0  0  0  0  0  0  0
   57.7800   26.3400   43.4220 C   0  0  0  0  0  0  0  0  0  0  0  0
   58.4520   26.9480   44.6370 C   0  0  0  0  0  0  0  0  0  0  0  0
   58.8750   26.0650   45.6380 C   0  0  0  0  0  0  0  0  0  0  0  0
   59.4980   26.5300   46.7850 C   0  0  0  0  0  0  0  0  0  0  0  0
   59.7350   27.8930   46.9600 C   0  0  0  0  0  0  0  0  0  0  0  0
   60.3660   28.3320   48.1220 C   0  0  0  0  0  0  0  0  0  0  0  0
   60.6150   29.6910   48.3160 C   0  0  0  0  0  0  0  0  0  0  0  0
   61.2490   30.1010   49.4900 C   0  0  0  0  0  0  0  0  0  0  0  0
   61.4990   31.4450   49.7040 C   0  0  0  0  0  0  0  0  0  0  0  0
   61.1280   32.3980   48.7430 C   0  0  0  0  0  0  0  0  0  0  0  0
   61.3500   33.7670   48.9640 O   0  0  0  0  0  0  0  0  0  0  0  0
   62.5910   34.3370   49.3700 C   0  0  0  0  0  0  0  0  0  0  0  0
   60.5040   31.9590   47.5460 C   0  0  0  0  0  0  0  0  0  0  0  0
   60.1360   32.8640   46.5210 O   0  0  0  0  0  0  0  0  0  0  0  0
   59.7760   34.2330   46.6750 C   0  0  0  0  0  0  0  0  0  0  0  0
   60.2440   30.6130   47.3610 N   0  0  0  0  0  0  0  0  0  0  0  0
   59.6280   30.1900   46.2080 C   0  0  0  0  0  0  0  0  0  0  0  0
   59.3440   28.8240   45.9680 C   0  0  0  0  0  0  0  0  0  0  0  0
   58.6940   28.3510   44.7760 C   0  0  0  0  0  0  0  0  0  0  0  0
   58.2200   29.2650   43.7460 N   0  0  0  0  0  0  0  0  0  0  0  0
   56.8600   29.7700   44.0450 C   0  0  0  0  0  0  0  0  0  0  0  0
   56.8390   31.2860   44.3150 C   0  0  0  0  0  0  0  0  0  0  0  0
   57.9660   31.9570   43.6270 N   0  0  0  0  0  0  0  0  0  0  0  0
   57.7410   31.9610   42.1720 C   0  0  0  0  0  0  0  0  0  0  0  0
   58.1250   33.3480   44.0930 C   0  0  0  0  0  0  0  0  0  0  0  0
   57.3356   24.7138   44.7675 H   0  0  0  0  0  0  0  0  0  0  0  0
   56.3990   24.6937   43.2349 H   0  0  0  0  0  0  0  0  0  0  0  0
   58.1317   24.2201   43.2349 H   0  0  0  0  0  0  0  0  0  0  0  0
   58.4762   26.3747   42.5711 H   0  0  0  0  0  0  0  0  0  0  0  0
   56.8701   26.9169   43.2000 H   0  0  0  0  0  0  0  0  0  0  0  0
   58.7101   24.9848   45.5118 H   0  0  0  0  0  0  0  0  0  0  0  0
   59.8082   25.8180   47.5640 H   0  0  0  0  0  0  0  0  0  0  0  0
   60.6690   27.6044   48.8893 H   0  0  0  0  0  0  0  0  0  0  0  0
   61.5491   29.3576   50.2431 H   0  0  0  0  0  0  0  0  0  0  0  0
   61.9915   31.7684   50.6329 H   0  0  0  0  0  0  0  0  0  0  0  0
   62.6418   34.3603   50.4686 H   0  0  0  0  0  0  0  0  0  0  0  0
   63.4195   33.7292   48.9774 H   0  0  0  0  0  0  0  0  0  0  0  0
   62.6698   35.3615   48.9774 H   0  0  0  0  0  0  0  0  0  0  0  0
   59.7118   34.4771   47.7457 H   0  0  0  0  0  0  0  0  0  0  0  0
   60.5376   34.8682   46.1992 H   0  0  0  0  0  0  0  0  0  0  0  0
   58.8004   34.4114   46.1992 H   0  0  0  0  0  0  0  0  0  0  0  0
   59.3472   30.9349   45.4488 H   0  0  0  0  0  0  0  0  0  0  0  0
   58.8920   30.0370   43.5480 H   0  0  0  0  0  0  0  0  0  0  0  0
   58.1970   28.7660   42.8280 H   0  0  0  0  0  0  0  0  0  0  0  0
   56.2075   29.5558   43.1857 H   0  0  0  0  0  0  0  0  0  0  0  0
   56.5087   29.2637   44.9562 H   0  0  0  0  0  0  0  0  0  0  0  0
   55.8907   31.7050   43.9472 H   0  0  0  0  0  0  0  0  0  0  0  0
   56.9363   31.4533   45.3978 H   0  0  0  0  0  0  0  0  0  0  0  0
   56.6602   31.9802   41.9682 H   0  0  0  0  0  0  0  0  0  0  0  0
   58.2133   32.8509   41.7304 H   0  0  0  0  0  0  0  0  0  0  0  0
   58.1814   31.0549   41.7304 H   0  0  0  0  0  0  0  0  0  0  0  0
   58.1273   33.3682   45.1928 H   0  0  0  0  0  0  0  0  0  0  0  0
   59.0754   33.7544   43.7168 H   0  0  0  0  0  0  0  0  0  0  0  0
   57.2908   33.9584   43.7168 H   0  0  0  0  0  0  0  0  0  0  0  0
  1  2  1  0
  2  3  1  0
  3  4  2  0
  4  5  1  0
  5  6  2  0
  6  7  1  0
  7  8  2  0
  8  9  1  0
  9 10  2  0
 10 11  1  0
 11 12  1  0
 12 13  1  0
 11 14  2  0
 14 15  1  0
 15 16  1  0
 14 17  1  0
 17 18  2  0
 18 19  1  0
 19 20  2  0
 20 21  1  0
 21 22  1  0
 22 23  1  0
 23 24  1  0
 24 25  1  0
 24 26  1  0
 20  3  1  0
 19  6  1  0
 17  8  1  0
  1 27  1  0
  1 28  1  0
  1 29  1  0
  2 30  1  0
  2 31  1  0
  4 32  1  0
  5 33  1  0
  7 34  1  0
  9 35  1  0
 10 36  1  0
 13 37  1  0
 13 38  1  0
 13 39  1  0
 16 40  1  0
 16 41  1  0
 16 42  1  0
 18 43  1  0
 21 44  1  0
 21 45  1  0
 22 46  1  0
 22 47  1  0
 23 48  1  0
 23 49  1  0
 25 50  1  0
 25 51  1  0
 25 52  1  0
 26 53  1  0
 26 54  1  0
 26 55  1  0
M  CHG  2  17   1  21   1
M  END
>  <UniqueID>  (14) 
14

>  <SMILES>  (14) 
CCc1ccc2cc3ccc(OC)c(OC)[n+]3cc2c1[NH2+]CCN(C)C

>  <Energy>  (14) 
74.84888087876531

>  <Genealogy>  (14) 
CCc1ccc2cc3ccc(OC)c(OC)[n+]3cc2c1[NH2+]CCN(C)C (protonated)
CCc1ccc2cc3ccc(OC)c(OC)[n+]3cc2c1[NH2+]CCN(C)C (3D coordinates assigned)
CCc1ccc2cc3ccc(OC)c(OC)[n+]3cc2c1[NH2+]CCN(C)C (optimized conformer: 74.84888087876531 kcal/mol)

>  <smiles>  (14) 
CCc1ccc2cc3ccc(OC)c(OC)[n+]3cc2c1NCCN(C)C

>  <score_type>  (14) 
oracle

>  <origin>  (14) 
adg

>  <m_score__min__energy>  (14) 
-3.7200000000000002

>  <m_primary>  (14) 
energy

$$$$
14:0
     RDKit          3D

 61 64  0  0  0  0  0  0  0  0999 V2000
   55.5550   30.5290   52.0320 C   0  0  0  0  0  0  0  0  0  0  0  0
   56.8570   30.1480   51.6000 O   0  0  0  0  0  0  0  0  0  0  0  0
   57.8460   31.0460   51.1670 C   0  0  0  0  0  0  0  0  0  0  0  0
   58.5320   30.8700   49.9500 C   0  0  0  0  0  0  0  0  0  0  0  0
   59.5160   31.7830   49.5430 C   0  0  0  0  0  0  0  0  0  0  0  0
   59.7980   32.9030   50.3460 C   0  0  0  0  0  0  0  0  0  0  0  0
   59.1270   33.0700   51.5660 C   0  0  0  0  0  0  0  0  0  0  0  0
   58.1460   32.1490   51.9780 C   0  0  0  0  0  0  0  0  0  0  0  0
   57.4450   32.2960   53.1860 O   0  0  0  0  0  0  0  0  0  0  0  0
   57.7850   31.6400   54.4030 C   0  0  0  0  0  0  0  0  0  0  0  0
   60.8840   33.8820   49.9570 C   0  0  0  0  0  0  0  0  0  0  0  0
   61.1720   33.8720   48.5060 N   0  0  0  0  0  0  0  0  0  0  0  0
   60.1400   34.5790   47.7130 C   0  0  0  0  0  0  0  0  0  0  0  0
   60.2280   34.1780   46.2370 C   0  0  0  0  0  0  0  0  0  0  0  0
   58.9630   34.5050   45.5410 N   0  0  0  0  0  0  0  0  0  0  0  0
   58.8760   33.9210   44.1760 C   0  0  0  0  0  0  0  0  0  0  0  0
   57.9390   32.6990   44.0740 C   0  0  0  0  0  0  0  0  0  0  0  0
   57.9780   31.8590   45.3580 C   0  0  0  0  0  0  0  0  0  0  0  0
   57.1000   30.7360   45.2430 O   0  0  0  0  0  0  0  0  0  0  0  0
   57.4740   29.3850   45.3500 C   0  0  0  0  0  0  0  0  0  0  0  0
   57.3640   28.4720   44.2820 C   0  0  0  0  0  0  0  0  0  0  0  0
   57.7630   27.1420   44.4500 C   0  0  0  0  0  0  0  0  0  0  0  0
   58.2730   26.7100   45.6780 C   0  0  0  0  0  0  0  0  0  0  0  0
   58.8190   24.8940   45.9010 Br  0  0  0  0  0  0  0  0  0  0  0  0
   58.3830   27.6110   46.7410 C   0  0  0  0  0  0  0  0  0  0  0  0
   57.9850   28.9400   46.5770 C   0  0  0  0  0  0  0  0  0  0  0  0
   57.5530   32.7070   46.5740 C   0  0  0  0  0  0  0  0  0  0  0  0
   57.7720   34.2180   46.3650 C   0  0  0  0  0  0  0  0  0  0  0  0
   61.4120   32.4950   48.0320 C   0  0  0  0  0  0  0  0  0  0  0  0
   60.1760   31.6000   48.2020 C   0  0  0  0  0  0  0  0  0  0  0  0
   55.5217   30.5387   53.1315 H   0  0  0  0  0  0  0  0  0  0  0  0
   55.3209   31.5333   51.6492 H   0  0  0  0  0  0  0  0  0  0  0  0
   54.8164   29.8093   51.6492 H   0  0  0  0  0  0  0  0  0  0  0  0
   58.2936   30.0068   49.3112 H   0  0  0  0  0  0  0  0  0  0  0  0
   59.3700   33.9298   52.2076 H   0  0  0  0  0  0  0  0  0  0  0  0
   57.4646   32.2581   55.2546 H   0  0  0  0  0  0  0  0  0  0  0  0
   57.2791   30.6642   54.4473 H   0  0  0  0  0  0  0  0  0  0  0  0
   58.8739   31.4908   54.4473 H   0  0  0  0  0  0  0  0  0  0  0  0
   60.5641   34.8943   50.2448 H   0  0  0  0  0  0  0  0  0  0  0  0
   61.8040   33.5808   50.4793 H   0  0  0  0  0  0  0  0  0  0  0  0
   59.1441   34.3176   48.1002 H   0  0  0  0  0  0  0  0  0  0  0  0
   60.3077   35.6629   47.7974 H   0  0  0  0  0  0  0  0  0  0  0  0
   61.0559   34.7239   45.7611 H   0  0  0  0  0  0  0  0  0  0  0  0
   60.4043   33.0943   46.1699 H   0  0  0  0  0  0  0  0  0  0  0  0
   58.5069   34.6980   43.4904 H   0  0  0  0  0  0  0  0  0  0  0  0
   59.8855   33.5703   43.9152 H   0  0  0  0  0  0  0  0  0  0  0  0
   56.9099   33.0493   43.9059 H   0  0  0  0  0  0  0  0  0  0  0  0
   58.2772   32.0705   43.2370 H   0  0  0  0  0  0  0  0  0  0  0  0
   59.0101   31.5072   45.5029 H   0  0  0  0  0  0  0  0  0  0  0  0
   56.9633   28.8063   43.3137 H   0  0  0  0  0  0  0  0  0  0  0  0
   57.6752   26.4335   43.6131 H   0  0  0  0  0  0  0  0  0  0  0  0
   58.7836   27.2731   47.7081 H   0  0  0  0  0  0  0  0  0  0  0  0
   58.0734   29.6434   47.4181 H   0  0  0  0  0  0  0  0  0  0  0  0
   56.4842   32.5317   46.7664 H   0  0  0  0  0  0  0  0  0  0  0  0
   58.1809   32.3995   47.4232 H   0  0  0  0  0  0  0  0  0  0  0  0
   56.8867   34.6375   45.8646 H   0  0  0  0  0  0  0  0  0  0  0  0
   57.9300   34.6741   47.3535 H   0  0  0  0  0  0  0  0  0  0  0  0
   61.6809   32.5290   46.9659 H   0  0  0  0  0  0  0  0  0  0  0  0
   62.2252   32.0665   48.6362 H   0  0  0  0  0  0  0  0  0  0  0  0
   59.4495   31.8472   47.4139 H   0  0  0  0  0  0  0  0  0  0  0  0
   60.5069   30.5534   48.1306 H   0  0  0  0  0  0  0  0  0  0  0  0
  1  2  1  0
  2  3  1  0
  3  4  2  0
  4  5  1  0
  5  6  2  0
  6  7  1  0
  7  8  2  0
  8  9  1  0
  9 10  1  0
  6 11  1  0
 11 12  1  0
 12 13  1  0
 13 14  1  0
 14 15  1  0
 15 16  1  0
 16 17  1  0
 17 18  1  0
 18 19  1  0
 19 20  1  0
 20 21  2  0
 21 22  1  0
 22 23  2  0
 23 24  1  0
 23 25  1  0
 25 26  2  0
 18 27  1  0
 27 28  1  0
 12 29  1  0
 29 30  1  0
  8  3  1  0
 28 15  1  0
 30  5  1  0
 26 20  1  0
  1 31  1  0
  1 32  1  0
  1 33  1  0
  4 34  1  0
  7 35  1  0
 10 36  1  0
 10 37  1  0
 10 38  1  0
 11 39  1  0
 11 40  1  0
 13 41  1  0
 13 42  1  0
 14 43  1  0
 14 44  1  0
 16 45  1  0
 16 46  1  0
 17 47  1  0
 17 48  1  0
 18 49  1  0
 21 50  1  0
 22 51  1  0
 25 52  1  0
 26 53  1  0
 27 54  1  0
 27 55  1  0
 28 56  1  0
 28 57  1  0
 29 58  1  0
 29 59  1  0
 30 60  1  0
 30 61  1  0
M  END
>  <UniqueID>  (15) 
15

>  <SMILES>  (15) 
COc1cc2c(cc1OC)CN(CCN1CCC(Oc3ccc(Br)cc3)CC1)CC2

>  <Energy>  (15) 
76.45893303574611

>  <Genealogy>  (15) 
COc1cc2c(cc1OC)CN(CCN1CCC(Oc3ccc(Br)cc3)CC1)CC2 (3D coordinates assigned)
COc1cc2c(cc1OC)CN(CCN1CCC(Oc3ccc(Br)cc3)CC1)CC2 (nonaromatic ring conformer: 76.45893303574611 kcal/mol)

>  <smiles>  (15) 
COc1cc2c(cc1OC)CN(CCN1CCC(Oc3ccc(Br)cc3)CC1)CC2

>  <score_type>  (15) 
oracle

>  <origin>  (15) 
adg

>  <m_score__min__energy>  (15) 
-8.5500000000000007

>  <m_primary>  (15) 
energy

$$$$
15:0
     RDKit          3D

 55 58  0  0  0  0  0  0  0  0999 V2000
   62.1010   33.8400   46.3820 C   0  0  0  0  0  0  0  0  0  0  0  0
   63.5540   33.9420   46.8580 C   0  0  0  0  0  0  0  0  0  0  0  0
   64.1440   32.6230   47.1460 N   0  0  0  0  0  0  0  0  0  0  0  0
   63.1220   31.5900   47.3840 C   0  0  0  0  0  0  0  0  0  0  0  0
   62.6930   31.5290   48.8660 C   0  0  0  0  0  0  0  0  0  0  0  0
   61.3540   30.7970   49.0780 C   0  0  0  0  0  0  0  0  0  0  0  0
   60.2360   31.7460   49.5480 C   0  0  0  0  0  0  0  0  0  0  0  0
   58.9490   31.3960   48.9440 N   0  0  0  0  0  0  0  0  0  0  0  0
   58.7450   31.3850   47.5220 C   0  0  0  0  0  0  0  0  0  0  0  0
   58.5540   30.1850   46.8330 C   0  0  0  0  0  0  0  0  0  0  0  0
   58.3590   30.1820   45.4630 C   0  0  0  0  0  0  0  0  0  0  0  0
   58.2240   31.3440   44.7450 N   0  0  0  0  0  0  0  0  0  0  0  0
   57.6830   31.3090   43.3760 C   0  0  0  0  0  0  0  0  0  0  0  0
   58.5280   32.5450   45.3650 C   0  0  0  0  0  0  0  0  0  0  0  0
   58.6350   33.7540   44.6360 C   0  0  0  0  0  0  0  0  0  0  0  0
   58.9060   34.9600   45.2820 C   0  0  0  0  0  0  0  0  0  0  0  0
   59.0870   34.9950   46.6620 C   0  0  0  0  0  0  0  0  0  0  0  0
   59.0200   33.8190   47.4060 C   0  0  0  0  0  0  0  0  0  0  0  0
   58.7590   32.5850   46.7780 C   0  0  0  0  0  0  0  0  0  0  0  0
   58.2180   28.7850   45.0330 C   0  0  0  0  0  0  0  0  0  0  0  0
   58.2410   28.2010   43.7590 C   0  0  0  0  0  0  0  0  0  0  0  0
   58.1730   26.8030   43.6560 C   0  0  0  0  0  0  0  0  0  0  0  0
   58.1340   26.0060   44.8110 C   0  0  0  0  0  0  0  0  0  0  0  0
   58.1850   26.6010   46.0810 C   0  0  0  0  0  0  0  0  0  0  0  0
   58.2360   27.9930   46.1680 C   0  0  0  0  0  0  0  0  0  0  0  0
   58.4370   28.8010   47.4090 C   0  0  0  0  0  0  0  0  0  0  0  0
   61.4320   33.7930   47.2539 H   0  0  0  0  0  0  0  0  0  0  0  0
   61.8511   34.7228   45.7752 H   0  0  0  0  0  0  0  0  0  0  0  0
   61.9769   32.9309   45.7752 H   0  0  0  0  0  0  0  0  0  0  0  0
   64.1494   34.4317   46.0733 H   0  0  0  0  0  0  0  0  0  0  0  0
   63.5613   34.5240   47.7914 H   0  0  0  0  0  0  0  0  0  0  0  0
   64.7340   32.7190   48.0060 H   0  0  0  0  0  0  0  0  0  0  0  0
   64.7570   32.3380   46.3480 H   0  0  0  0  0  0  0  0  0  0  0  0
   62.2391   31.8158   46.7680 H   0  0  0  0  0  0  0  0  0  0  0  0
   63.5562   30.6154   47.1163 H   0  0  0  0  0  0  0  0  0  0  0  0
   63.4736   31.0028   49.4350 H   0  0  0  0  0  0  0  0  0  0  0  0
   62.5589   32.5647   49.2115 H   0  0  0  0  0  0  0  0  0  0  0  0
   61.0492   30.3350   48.1274 H   0  0  0  0  0  0  0  0  0  0  0  0
   61.5049   30.0409   49.8625 H   0  0  0  0  0  0  0  0  0  0  0  0
   60.1474   31.6803   50.6425 H   0  0  0  0  0  0  0  0  0  0  0  0
   60.4971   32.7687   49.2382 H   0  0  0  0  0  0  0  0  0  0  0  0
   58.1160   31.3050   49.5680 H   0  0  0  0  0  0  0  0  0  0  0  0
   56.5861   31.2380   43.4169 H   0  0  0  0  0  0  0  0  0  0  0  0
   57.9714   32.2277   42.8442 H   0  0  0  0  0  0  0  0  0  0  0  0
   58.0874   30.4351   42.8442 H   0  0  0  0  0  0  0  0  0  0  0  0
   58.5024   33.7420   43.5441 H   0  0  0  0  0  0  0  0  0  0  0  0
   58.9772   35.8892   44.6976 H   0  0  0  0  0  0  0  0  0  0  0  0
   59.2833   35.9529   47.1658 H   0  0  0  0  0  0  0  0  0  0  0  0
   59.1724   33.8542   48.4948 H   0  0  0  0  0  0  0  0  0  0  0  0
   58.3110   28.8266   42.8569 H   0  0  0  0  0  0  0  0  0  0  0  0
   58.1501   26.3287   42.6638 H   0  0  0  0  0  0  0  0  0  0  0  0
   58.0633   24.9120   44.7203 H   0  0  0  0  0  0  0  0  0  0  0  0
   58.1848   25.9821   46.9904 H   0  0  0  0  0  0  0  0  0  0  0  0
   57.5766   28.7178   48.0893 H   0  0  0  0  0  0  0  0  0  0  0  0
   59.2974   28.4891   48.0193 H   0  0  0  0  0  0  0  0  0  0  0  0
  1  2  1  0
  2  3  1  0
  3  4  1  0
  4  5  1  0
  5  6  1  0
  6  7  1  0
  7  8  1  0
  8  9  1  0
  9 10  2  0
 10 11  1  0
 11 12  2  0
 12 13  1  0
 12 14  1  0
 14 15  2  0
 15 16  1  0
 16 17  2  0
 17 18  1  0
 18 19  2  0
 11 20  1  0
 20 21  2  0
 21 22  1  0
 22 23  2  0
 23 24  1  0
 24 25  2  0
 25 26  1  0
 19  9  1  0
 25 20  1  0
 26 10  1  0
 19 14  1  0
  1 27  1  0
  1 28  1  0
  1 29  1  0
  2 30  1  0
  2 31  1  0
  3 32  1  0
  3 33  1  0
  4 34  1  0
  4 35  1  0
  5 36  1  0
  5 37  1  0
  6 38  1  0
  6 39  1  0
  7 40  1  0
  7 41  1  0
  8 42  1  0
 13 43  1  0
 13 44  1  0
 13 45  1  0
 15 46  1  0
 16 47  1  0
 17 48  1  0
 18 49  1  0
 21 50  1  0
 22 51  1  0
 23 52  1  0
 24 53  1  0
 26 54  1  0
 26 55  1  0
M  CHG  2   3   1  12   1
M  END
>  <UniqueID>  (16) 
16

>  <SMILES>  (16) 
CC[NH2+]CCCCNc1c2c([n+](C)c3ccccc13)-c1ccccc1C2

>  <Energy>  (16) 
94.18976264779131

>  <Genealogy>  (16) 
CC[NH2+]CCCCNc1c2c([n+](C)c3ccccc13)-c1ccccc1C2 (protonated)
CC[NH2+]CCCCNc1c2c([n+](C)c3ccccc13)-c1ccccc1C2 (3D coordinates assigned)
CC[NH2+]CCCCNc1c2c([n+](C)c3ccccc13)-c1ccccc1C2 (nonaromatic ring conformer: 94.18976264779131 kcal/mol)

>  <smiles>  (16) 
CCNCCCCNc1c2c([n+](C)c3ccccc13)-c1ccccc1C2

>  <score_type>  (16) 
oracle

>  <origin>  (16) 
adg

>  <m_score__min__energy>  (16) 
-5.3700000000000001

>  <m_primary>  (16) 
energy

$$$$
16:0
     RDKit          3D

 76 79  0  0  0  0  0  0  0  0999 V2000
   62.7080   34.2310   49.7420 C   0  0  0  0  0  0  0  0  0  0  0  0
   64.0240   33.4770   49.5090 C   0  0  0  0  0  0  0  0  0  0  0  0
   64.0970   32.8930   48.1380 N   0  0  2  0  0  0  0  0  0  0  0  0
   63.5560   33.8460   47.1480 C   0  0  0  0  0  0  0  0  0  0  0  0
   63.3580   31.6090   48.0310 C   0  0  0  0  0  0  0  0  0  0  0  0
   62.1230   31.7140   47.1130 C   0  0  0  0  0  0  0  0  0  0  0  0
   60.8560   32.0720   47.9210 C   0  0  0  0  0  0  0  0  0  0  0  0
   60.2190   33.3460   47.5120 N   0  0  0  0  0  0  0  0  0  0  0  0
   58.8550   33.5650   48.0430 C   0  0  0  0  0  0  0  0  0  0  0  0
   57.7740   33.3290   46.9720 C   0  0  0  0  0  0  0  0  0  0  0  0
   57.9540   34.1740   45.7620 N   0  0  0  0  0  0  0  0  0  0  0  0
   57.4360   33.4630   44.5690 C   0  0  0  0  0  0  0  0  0  0  0  0
   58.0780   32.0760   44.3870 C   0  0  0  0  0  0  0  0  0  0  0  0
   57.1280   30.9480   44.8490 C   0  0  0  0  0  0  0  0  0  0  0  0
   57.6780   29.5880   44.6440 N   0  0  0  0  0  0  0  0  0  0  0  0
   59.1430   29.5210   44.4140 C   0  0  0  0  0  0  0  0  0  0  0  0
   59.9560   29.3870   45.7190 C   0  0  0  0  0  0  0  0  0  0  0  0
   59.2490   28.5640   46.7060 N   0  0  0  0  0  0  0  0  0  0  0  0
   59.3900   28.8580   48.1060 C   0  0  0  0  0  0  0  0  0  0  0  0
   58.8160   29.9310   48.6950 N   0  0  0  0  0  0  0  0  0  0  0  0
   59.2060   30.0780   49.9910 C   0  0  0  0  0  0  0  0  0  0  0  0
   58.7650   31.2410   50.7980 C   0  0  0  0  0  0  0  0  0  0  0  0
   59.6230   32.3470   50.9570 C   0  0  0  0  0  0  0  0  0  0  0  0
   59.2370   33.4380   51.7410 C   0  0  0  0  0  0  0  0  0  0  0  0
   57.9920   33.4420   52.3690 C   0  0  0  0  0  0  0  0  0  0  0  0
   57.1250   32.3570   52.2070 C   0  0  0  0  0  0  0  0  0  0  0  0
   57.5050   31.2640   51.4230 C   0  0  0  0  0  0  0  0  0  0  0  0
   60.1080   29.1040   50.4390 C   0  0  0  0  0  0  0  0  0  0  0  0
   60.4240   28.0550   49.1610 S   0  0  0  0  0  0  0  0  0  0  0  0
   58.1630   27.7010   46.2430 C   0  0  0  0  0  0  0  0  0  0  0  0
   57.1000   28.5570   45.5480 C   0  0  0  0  0  0  0  0  0  0  0  0
   59.3460   34.6660   45.5890 C   0  0  0  0  0  0  0  0  0  0  0  0
   60.3870   33.6500   46.0740 C   0  0  0  0  0  0  0  0  0  0  0  0
   62.5302   34.3329   50.8227 H   0  0  0  0  0  0  0  0  0  0  0  0
   62.7717   35.2296   49.2851 H   0  0  0  0  0  0  0  0  0  0  0  0
   61.8787   33.6710   49.2851 H   0  0  0  0  0  0  0  0  0  0  0  0
   64.8626   34.1762   49.6425 H   0  0  0  0  0  0  0  0  0  0  0  0
   64.0760   32.6512   50.2338 H   0  0  0  0  0  0  0  0  0  0  0  0
   65.0950   32.7200   47.8650 H   0  0  0  0  0  0  0  0  0  0  0  0
   63.0785   34.6872   47.6718 H   0  0  0  0  0  0  0  0  0  0  0  0
   64.3744   34.2237   46.5174 H   0  0  0  0  0  0  0  0  0  0  0  0
   62.8122   33.3369   46.5174 H   0  0  0  0  0  0  0  0  0  0  0  0
   64.0361   30.8444   47.6242 H   0  0  0  0  0  0  0  0  0  0  0  0
   63.0048   31.3413   49.0378 H   0  0  0  0  0  0  0  0  0  0  0  0
   62.3011   32.4956   46.3598 H   0  0  0  0  0  0  0  0  0  0  0  0
   61.9641   30.7388   46.6295 H   0  0  0  0  0  0  0  0  0  0  0  0
   60.1231   31.2619   47.7917 H   0  0  0  0  0  0  0  0  0  0  0  0
   61.1710   32.1959   48.9676 H   0  0  0  0  0  0  0  0  0  0  0  0
   58.6838   32.8711   48.8792 H   0  0  0  0  0  0  0  0  0  0  0  0
   58.7831   34.6118   48.3733 H   0  0  0  0  0  0  0  0  0  0  0  0
   57.8074   32.2722   46.6685 H   0  0  0  0  0  0  0  0  0  0  0  0
   56.8062   33.6002   47.4191 H   0  0  0  0  0  0  0  0  0  0  0  0
   56.3486   33.3373   44.6773 H   0  0  0  0  0  0  0  0  0  0  0  0
   57.6862   34.0668   43.6842 H   0  0  0  0  0  0  0  0  0  0  0  0
   58.3166   31.9292   43.3233 H   0  0  0  0  0  0  0  0  0  0  0  0
   58.9892   32.0337   45.0018 H   0  0  0  0  0  0  0  0  0  0  0  0
   56.9242   31.0826   45.9215 H   0  0  0  0  0  0  0  0  0  0  0  0
   56.2169   31.0230   44.2372 H   0  0  0  0  0  0  0  0  0  0  0  0
   59.3578   28.6503   43.7770 H   0  0  0  0  0  0  0  0  0  0  0  0
   59.4432   30.4653   43.9364 H   0  0  0  0  0  0  0  0  0  0  0  0
   60.9251   28.9192   45.4909 H   0  0  0  0  0  0  0  0  0  0  0  0
   60.0987   30.3917   46.1435 H   0  0  0  0  0  0  0  0  0  0  0  0
   60.6044   32.3521   50.4603 H   0  0  0  0  0  0  0  0  0  0  0  0
   59.9163   34.2946   51.8627 H   0  0  0  0  0  0  0  0  0  0  0  0
   57.6922   34.2980   52.9913 H   0  0  0  0  0  0  0  0  0  0  0  0
   56.1407   32.3636   52.6981 H   0  0  0  0  0  0  0  0  0  0  0  0
   56.8149   30.4171   51.2940 H   0  0  0  0  0  0  0  0  0  0  0  0
   60.5355   29.0365   51.4503 H   0  0  0  0  0  0  0  0  0  0  0  0
   58.5594   26.9594   45.5338 H   0  0  0  0  0  0  0  0  0  0  0  0
   57.7141   27.1797   47.1013 H   0  0  0  0  0  0  0  0  0  0  0  0
   56.4513   27.8957   44.9548 H   0  0  0  0  0  0  0  0  0  0  0  0
   56.5413   29.0867   46.3337 H   0  0  0  0  0  0  0  0  0  0  0  0
   59.5196   34.8682   44.5218 H   0  0  0  0  0  0  0  0  0  0  0  0
   59.4583   35.5777   46.1942 H   0  0  0  0  0  0  0  0  0  0  0  0
   60.2751   32.7204   45.4967 H   0  0  0  0  0  0  0  0  0  0  0  0
   61.3871   34.0840   45.9276 H   0  0  0  0  0  0  0  0  0  0  0  0
  1  2  1  0
  2  3  1  0
  3  4  1  0
  3  5  1  0
  5  6  1  0
  6  7  1  0
  7  8  1  0
  8  9  1  0
  9 10  1  0
 10 11  1  0
 11 12  1  0
 12 13  1  0
 13 14  1  0
 14 15  1  0
 15 16  1  0
 16 17  1  0
 17 18  1  0
 18 19  1  0
 19 20  2  0
 20 21  1  0
 21 22  1  0
 22 23  2  0
 23 24  1  0
 24 25  2  0
 25 26  1  0
 26 27  2  0
 21 28  2  0
 28 29  1  0
 18 30  1  0
 30 31  1  0
 11 32  1  0
 32 33  1  0
 33  8  1  0
 31 15  1  0
 29 19  1  0
 27 22  1  0
  1 34  1  0
  1 35  1  0
  1 36  1  0
  2 37  1  0
  2 38  1  0
  3 39  1  6
  4 40  1  0
  4 41  1  0
  4 42  1  0
  5 43  1  0
  5 44  1  0
  6 45  1  0
  6 46  1  0
  7 47  1  0
  7 48  1  0
  9 49  1  0
  9 50  1  0
 10 51  1  0
 10 52  1  0
 12 53  1  0
 12 54  1  0
 13 55  1  0
 13 56  1  0
 14 57  1  0
 14 58  1  0
 16 59  1  0
 16 60  1  0
 17 61  1  0
 17 62  1  0
 23 63  1  0
 24 64  1  0
 25 65  1  0
 26 66  1  0
 27 67  1  0
 28 68  1  0
 30 69  1  0
 30 70  1  0
 31 71  1  0
 31 72  1  0
 32 73  1  0
 32 74  1  0
 33 75  1  0
 33 76  1  0
M  CHG  1   3   1
M  END
>  <UniqueID>  (17) 
17

>  <SMILES>  (17) 
CC[N@H+](C)CCCN1CCN(CCCN2CCN(c3nc(-c4ccccc4)cs3)CC2)CC1

>  <Energy>  (17) 
133.73723917441714

>  <Genealogy>  (17) 
CC[NH+](C)CCCN1CCN(CCCN2CCN(c3nc(-c4ccccc4)cs3)CC2)CC1 (protonated)
CC[N@H+](C)CCCN1CCN(CCCN2CCN(c3nc(-c4ccccc4)cs3)CC2)CC1 (chirality)
CC[N@H+](C)CCCN1CCN(CCCN2CCN(c3nc(-c4ccccc4)cs3)CC2)CC1 (3D coordinates assigned)
CC[N@H+](C)CCCN1CCN(CCCN2CCN(c3nc(-c4ccccc4)cs3)CC2)CC1 (nonaromatic ring conformer: 133.73723917441714 kcal/mol)

>  <smiles>  (17) 
CCN(C)CCCN1CCN(CCCN2CCN(c3nc(-c4ccccc4)cs3)CC2)CC1

>  <score_type>  (17) 
oracle

>  <origin>  (17) 
adg

>  <m_score__min__energy>  (17) 
-7.3399999999999999

>  <m_primary>  (17) 
energy

$$$$
17:0
     RDKit          3D

 65 67  0  0  0  0  0  0  0  0999 V2000
   62.2890   32.4000   47.1650 C   0  0  0  0  0  0  0  0  0  0  0  0
   61.6080   33.6950   46.6970 C   0  0  0  0  0  0  0  0  0  0  0  0
   60.1220   33.6730   46.7220 N   0  0  0  0  0  0  0  0  0  0  0  0
   59.4750   34.0460   45.4450 C   0  0  0  0  0  0  0  0  0  0  0  0
   57.9510   34.1440   45.5370 C   0  0  0  0  0  0  0  0  0  0  0  0
   59.4500   34.2130   47.9290 C   0  0  0  0  0  0  0  0  0  0  0  0
   60.0740   33.6440   49.2090 C   0  0  0  0  0  0  0  0  0  0  0  0
   59.2080   33.7960   50.3170 O   0  0  0  0  0  0  0  0  0  0  0  0
   59.2230   32.6400   51.1290 C   0  0  0  0  0  0  0  0  0  0  0  0
   58.6460   31.4650   50.3220 C   0  0  0  0  0  0  0  0  0  0  0  0
   59.6630   30.6350   49.6240 N   0  0  0  0  0  0  0  0  0  0  0  0
   60.7040   30.1070   50.5340 C   0  0  0  0  0  0  0  0  0  0  0  0
   62.0660   30.6920   50.1740 C   0  0  0  0  0  0  0  0  0  0  0  0
   59.0990   29.5820   48.7520 C   0  0  0  0  0  0  0  0  0  0  0  0
   58.6050   30.1520   47.4460 C   0  0  0  0  0  0  0  0  0  0  0  0
   58.3620   31.3880   47.3840 O   0  0  0  0  0  0  0  0  0  0  0  0
   58.4390   29.3270   46.2720 N   0  0  0  0  0  0  0  0  0  0  0  0
   58.8870   27.9660   46.2690 C   0  0  0  0  0  0  0  0  0  0  0  0
   60.2550   27.6890   46.4150 C   0  0  0  0  0  0  0  0  0  0  0  0
   60.7090   26.3690   46.4480 C   0  0  0  0  0  0  0  0  0  0  0  0
   59.8000   25.3170   46.3410 C   0  0  0  0  0  0  0  0  0  0  0  0
   58.4360   25.5820   46.1950 C   0  0  0  0  0  0  0  0  0  0  0  0
   57.9660   26.9080   46.1440 C   0  0  0  0  0  0  0  0  0  0  0  0
   56.5080   27.1530   46.0310 C   0  0  0  0  0  0  0  0  0  0  0  0
   55.7130   26.3480   46.5870 O   0  0  0  0  0  0  0  0  0  0  0  0
   55.9540   28.2150   45.2420 N   0  0  0  0  0  0  0  0  0  0  0  0
   56.6360   29.2930   44.5890 C   0  0  0  0  0  0  0  0  0  0  0  0
   56.0320   29.8840   43.4750 C   0  0  0  0  0  0  0  0  0  0  0  0
   56.6390   30.9650   42.8380 C   0  0  0  0  0  0  0  0  0  0  0  0
   57.8470   31.4570   43.3310 C   0  0  0  0  0  0  0  0  0  0  0  0
   58.4170   30.8910   44.4290 N   0  0  0  0  0  0  0  0  0  0  0  0
   57.8380   29.8380   45.0780 C   0  0  0  0  0  0  0  0  0  0  0  0
   62.3045   32.3705   48.2645 H   0  0  0  0  0  0  0  0  0  0  0  0
   61.7301   31.5330   46.7828 H   0  0  0  0  0  0  0  0  0  0  0  0
   63.3200   32.3691   46.7828 H   0  0  0  0  0  0  0  0  0  0  0  0
   61.9473   34.5130   47.3495 H   0  0  0  0  0  0  0  0  0  0  0  0
   61.8938   33.8266   45.6429 H   0  0  0  0  0  0  0  0  0  0  0  0
   59.8680   35.0234   45.1284 H   0  0  0  0  0  0  0  0  0  0  0  0
   59.7042   33.2492   44.7221 H   0  0  0  0  0  0  0  0  0  0  0  0
   57.6480   34.1635   46.5943 H   0  0  0  0  0  0  0  0  0  0  0  0
   57.6123   35.0658   45.0414 H   0  0  0  0  0  0  0  0  0  0  0  0
   57.4970   33.2732   45.0414 H   0  0  0  0  0  0  0  0  0  0  0  0
   59.5505   35.3084   47.9365 H   0  0  0  0  0  0  0  0  0  0  0  0
   58.3895   33.9224   47.8981 H   0  0  0  0  0  0  0  0  0  0  0  0
   60.2814   32.5739   49.0610 H   0  0  0  0  0  0  0  0  0  0  0  0
   61.0023   34.1964   49.4168 H   0  0  0  0  0  0  0  0  0  0  0  0
   60.2563   32.4114   51.4289 H   0  0  0  0  0  0  0  0  0  0  0  0
   58.6182   32.8079   52.0324 H   0  0  0  0  0  0  0  0  0  0  0  0
   58.0883   30.8154   51.0127 H   0  0  0  0  0  0  0  0  0  0  0  0
   58.0125   31.9062   49.5384 H   0  0  0  0  0  0  0  0  0  0  0  0
   60.4536   30.3804   51.5697 H   0  0  0  0  0  0  0  0  0  0  0  0
   60.7462   29.0124   50.4336 H   0  0  0  0  0  0  0  0  0  0  0  0
   62.6183   30.9292   51.0953 H   0  0  0  0  0  0  0  0  0  0  0  0
   62.6354   29.9591   49.5836 H   0  0  0  0  0  0  0  0  0  0  0  0
   61.9265   31.6096   49.5836 H   0  0  0  0  0  0  0  0  0  0  0  0
   59.8789   28.8348   48.5437 H   0  0  0  0  0  0  0  0  0  0  0  0
   58.2459   29.1228   49.2729 H   0  0  0  0  0  0  0  0  0  0  0  0
   60.9739   28.5168   46.5040 H   0  0  0  0  0  0  0  0  0  0  0  0
   61.7831   26.1591   46.5583 H   0  0  0  0  0  0  0  0  0  0  0  0
   60.1573   24.2771   46.3716 H   0  0  0  0  0  0  0  0  0  0  0  0
   57.7234   24.7475   46.1193 H   0  0  0  0  0  0  0  0  0  0  0  0
   55.0742   29.4943   43.0999 H   0  0  0  0  0  0  0  0  0  0  0  0
   56.1701   31.4251   41.9557 H   0  0  0  0  0  0  0  0  0  0  0  0
   58.3398   32.3040   42.8314 H   0  0  0  0  0  0  0  0  0  0  0  0
   59.3230   31.2770   44.7780 H   0  0  0  0  0  0  0  0  0  0  0  0
  1  2  1  0
  2  3  1  0
  3  4  1  0
  4  5  1  0
  3  6  1  0
  6  7  1  0
  7  8  1  0
  8  9  1  0
  9 10  1  0
 10 11  1  0
 11 12  1  0
 12 13  1  0
 11 14  1  0
 14 15  1  0
 15 16  2  0
 15 17  1  0
 17 18  1  0
 18 19  2  0
 19 20  1  0
 20 21  2  0
 21 22  1  0
 22 23  2  0
 23 24  1  0
 24 25  2  0
 24 26  1  0
 26 27  1  0
 27 28  2  0
 28 29  1  0
 29 30  2  0
 30 31  1  0
 31 32  2  0
 32 17  1  0
 23 18  1  0
 32 27  1  0
  1 33  1  0
  1 34  1  0
  1 35  1  0
  2 36  1  0
  2 37  1  0
  4 38  1  0
  4 39  1  0
  5 40  1  0
  5 41  1  0
  5 42  1  0
  6 43  1  0
  6 44  1  0
  7 45  1  0
  7 46  1  0
  9 47  1  0
  9 48  1  0
 10 49  1  0
 10 50  1  0
 12 51  1  0
 12 52  1  0
 13 53  1  0
 13 54  1  0
 13 55  1  0
 14 56  1  0
 14 57  1  0
 19 58  1  0
 20 59  1  0
 21 60  1  0
 22 61  1  0
 28 62  1  0
 29 63  1  0
 30 64  1  0
 31 65  1  0
M  CHG  2  26  -1  31   1
M  END
>  <UniqueID>  (18) 
18

>  <SMILES>  (18) 
CCN(CC)CCOCCN(CC)CC(=O)N1c2ccccc2C(=O)[N-]c2ccc[nH+]c21

>  <Energy>  (18) 
94.9455072890063

>  <Genealogy>  (18) 
CCN(CC)CCOCCN(CC)CC(=O)N1c2ccccc2C(=O)[N-]c2ccc[nH+]c21 (protonated)
CCN(CC)CCOCCN(CC)CC(=O)N1c2ccccc2C(=O)[N-]c2ccc[nH+]c21 (3D coordinates assigned)
CCN(CC)CCOCCN(CC)CC(=O)N1c2ccccc2C(=O)[N-]c2ccc[nH+]c21 (nonaromatic ring conformer: 94.9455072890063 kcal/mol)

>  <smiles>  (18) 
CCN(CC)CCOCCN(CC)CC(=O)N1c2ccccc2C(=O)Nc2cccnc21

>  <score_type>  (18) 
oracle

>  <origin>  (18) 
adg

>  <m_score__min__energy>  (18) 
-8.1199999999999992

>  <m_primary>  (18) 
energy

$$$$
18:0
     RDKit          3D

 47 50  0  0  1  0  0  0  0  0999 V2000
   63.5740   33.5740   49.8780 C   0  0  0  0  0  0  0  0  0  0  0  0
   63.5030   32.9740   48.5110 C   0  0  0  0  0  0  0  0  0  0  0  0
   62.2920   33.2600   47.7890 N   0  0  0  0  0  0  0  0  0  0  0  0
   62.2370   33.8320   46.5530 C   0  0  0  0  0  0  0  0  0  0  0  0
   60.9440   33.9350   46.2220 N   0  0  0  0  0  0  0  0  0  0  0  0
   60.2110   33.4450   47.2140 C   0  0  0  0  0  0  0  0  0  0  0  0
   58.8560   33.3100   47.3900 C   0  0  0  0  0  0  0  0  0  0  0  0
   58.0780   33.7020   46.4770 N   0  0  0  0  0  0  0  0  0  0  0  0
   58.3250   33.8550   45.0900 C   0  0  0  0  0  0  0  0  0  0  0  0
   57.7510   32.7210   44.2800 C   0  0  0  0  0  0  0  0  0  0  0  0
   57.9080   32.6470   42.9130 C   0  0  0  0  0  0  0  0  0  0  0  0
   57.3720   31.5860   42.1760 C   0  0  0  0  0  0  0  0  0  0  0  0
   56.6690   30.5820   42.8000 C   0  0  0  0  0  0  0  0  0  0  0  0
   56.5010   30.6390   44.1670 C   0  0  0  0  0  0  0  0  0  0  0  0
   55.8150   29.6700   44.8300 F   0  0  0  0  0  0  0  0  0  0  0  0
   57.0390   31.6940   44.8730 C   0  0  0  0  0  0  0  0  0  0  0  0
   58.3820   32.7620   48.5320 N   0  0  0  0  0  0  0  0  0  0  0  0
   59.1740   32.3310   49.5260 C   0  0  0  0  0  0  0  0  0  0  0  0
   58.6980   31.7560   50.7310 N   0  0  0  0  0  0  0  0  0  0  0  0
   59.3230   30.6660   51.4310 C   0  0  0  0  0  0  0  0  0  0  0  0
   58.3280   29.5970   51.8410 C   0  0  0  0  0  0  0  0  0  0  0  0
   57.0140   30.0320   51.6580 O   0  0  0  0  0  0  0  0  0  0  0  0
   56.8630   31.2830   52.2170 C   0  0  0  0  0  0  0  0  0  0  0  0
   57.4790   32.3060   51.3210 C   0  0  0  0  0  0  0  0  0  0  0  0
   60.5050   32.4740   49.3330 N   0  0  0  0  0  0  0  0  0  0  0  0
   61.0350   33.0090   48.2240 C   0  0  0  0  0  0  0  0  0  0  0  0
   63.4799   32.7792   50.6326 H   0  0  0  0  0  0  0  0  0  0  0  0
   64.5391   34.0867   50.0037 H   0  0  0  0  0  0  0  0  0  0  0  0
   62.7552   34.2977   50.0037 H   0  0  0  0  0  0  0  0  0  0  0  0
   64.3502   33.3584   47.9241 H   0  0  0  0  0  0  0  0  0  0  0  0
   63.5306   31.8831   48.6497 H   0  0  0  0  0  0  0  0  0  0  0  0
   63.0947   34.1496   45.9418 H   0  0  0  0  0  0  0  0  0  0  0  0
   57.8704   34.7976   44.7513 H   0  0  0  0  0  0  0  0  0  0  0  0
   59.4147   33.8589   44.9399 H   0  0  0  0  0  0  0  0  0  0  0  0
   58.4661   33.4382   42.3909 H   0  0  0  0  0  0  0  0  0  0  0  0
   57.5142   31.5542   41.0857 H   0  0  0  0  0  0  0  0  0  0  0  0
   56.2483   29.7484   42.2186 H   0  0  0  0  0  0  0  0  0  0  0  0
   56.8947   31.7203   45.9632 H   0  0  0  0  0  0  0  0  0  0  0  0
   57.3470   32.6860   48.6020 H   0  0  0  0  0  0  0  0  0  0  0  0
   60.0794   30.2116   50.7742 H   0  0  0  0  0  0  0  0  0  0  0  0
   59.7768   31.0715   52.3473 H   0  0  0  0  0  0  0  0  0  0  0  0
   58.4962   28.6975   51.2306 H   0  0  0  0  0  0  0  0  0  0  0  0
   58.4756   29.3754   52.9083 H   0  0  0  0  0  0  0  0  0  0  0  0
   55.7923   31.5020   52.3419 H   0  0  0  0  0  0  0  0  0  0  0  0
   57.3593   31.3085   53.1983 H   0  0  0  0  0  0  0  0  0  0  0  0
   56.7703   32.5702   50.5222 H   0  0  0  0  0  0  0  0  0  0  0  0
   57.7236   33.2073   51.9022 H   0  0  0  0  0  0  0  0  0  0  0  0
  1  2  1  0
  2  3  1  0
  3  4  1  0
  4  5  2  0
  5  6  1  0
  6  7  1  0
  7  8  2  0
  8  9  1  0
  9 10  1  0
 10 11  2  0
 11 12  1  0
 12 13  2  0
 13 14  1  0
 14 15  1  0
 14 16  2  0
  7 17  1  0
 17 18  1  0
 18 19  1  0
 19 20  1  0
 20 21  1  0
 21 22  1  0
 22 23  1  0
 23 24  1  0
 18 25  2  0
 25 26  1  0
 26  3  1  0
 26  6  2  0
 16 10  1  0
 24 19  1  0
  1 27  1  0
  1 28  1  0
  1 29  1  0
  2 30  1  0
  2 31  1  0
  4 32  1  0
  9 33  1  0
  9 34  1  0
 11 35  1  0
 12 36  1  0
 13 37  1  0
 16 38  1  0
 17 39  1  0
 20 40  1  0
 20 41  1  0
 21 42  1  0
 21 43  1  0
 23 44  1  0
 23 45  1  0
 24 46  1  0
 24 47  1  0
M  END
>  <smiles>  (19) 
CCn1cnc2c(=NCc3cccc(F)c3)[nH]c(N3CCOCC3)nc21

>  <score_type>  (19) 
oracle

>  <origin>  (19) 
adg

>  <m_score__min__energy>  (19) 
-7.3300000000000001

>  <m_primary>  (19) 
energy

$$$$
19:0
     RDKit          3D

 46 48  0  0  0  0  0  0  0  0999 V2000
   56.4090   25.6700   45.6410 C   0  0  0  0  0  0  0  0  0  0  0  0
   56.3180   27.0670   45.9050 O   0  0  0  0  0  0  0  0  0  0  0  0
   57.3900   27.8680   46.3290 C   0  0  0  0  0  0  0  0  0  0  0  0
   58.4260   27.3620   47.1360 C   0  0  0  0  0  0  0  0  0  0  0  0
   59.4770   28.1890   47.5380 C   0  0  0  0  0  0  0  0  0  0  0  0
   59.5090   29.5360   47.1520 C   0  0  0  0  0  0  0  0  0  0  0  0
   60.5930   30.3940   47.5560 N   0  0  0  0  0  0  0  0  0  0  0  0
   61.5860   30.8360   46.7650 C   0  0  0  0  0  0  0  0  0  0  0  0
   62.3530   31.7210   47.4880 C   0  0  0  0  0  0  0  0  0  0  0  0
   61.8410   31.8560   48.7260 N   0  0  0  0  0  0  0  0  0  0  0  0
   60.7750   31.0280   48.7370 C   0  0  0  0  0  0  0  0  0  0  0  0
   59.6680   30.9120   50.1490 S   0  0  0  0  0  0  0  0  0  0  0  0
   58.5120   32.1940   49.5470 C   0  0  0  0  0  0  0  0  0  0  0  0
   59.2600   33.3230   48.8910 C   0  0  0  0  0  0  0  0  0  0  0  0
   60.1190   33.9400   49.5770 O   0  0  0  0  0  0  0  0  0  0  0  0
   59.0470   33.6950   47.5100 N   0  0  0  0  0  0  0  0  0  0  0  0
   57.9240   33.1490   46.7340 C   0  0  0  0  0  0  0  0  0  0  0  0
   57.5590   34.0950   45.5860 C   0  0  0  0  0  0  0  0  0  0  0  0
   58.7010   34.4270   44.8220 O   0  0  0  0  0  0  0  0  0  0  0  0
   59.5950   35.1790   45.6190 C   0  0  0  0  0  0  0  0  0  0  0  0
   60.1450   34.3310   46.7680 C   0  0  0  0  0  0  0  0  0  0  0  0
   58.4840   30.0380   46.3360 C   0  0  0  0  0  0  0  0  0  0  0  0
   57.4200   29.2100   45.9250 C   0  0  0  0  0  0  0  0  0  0  0  0
   56.3760   29.6870   45.1160 O   0  0  0  0  0  0  0  0  0  0  0  0
   56.5230   30.0790   43.7550 C   0  0  0  0  0  0  0  0  0  0  0  0
   56.4449   25.1187   46.5922 H   0  0  0  0  0  0  0  0  0  0  0  0
   55.5299   25.3480   45.0635 H   0  0  0  0  0  0  0  0  0  0  0  0
   57.3224   25.4647   45.0635 H   0  0  0  0  0  0  0  0  0  0  0  0
   58.4078   26.3085   47.4521 H   0  0  0  0  0  0  0  0  0  0  0  0
   60.2855   27.7804   48.1620 H   0  0  0  0  0  0  0  0  0  0  0  0
   61.7563   30.5409   45.7191 H   0  0  0  0  0  0  0  0  0  0  0  0
   63.2476   32.2389   47.1119 H   0  0  0  0  0  0  0  0  0  0  0  0
   57.8240   31.7445   48.8159 H   0  0  0  0  0  0  0  0  0  0  0  0
   57.9516   32.5940   50.4048 H   0  0  0  0  0  0  0  0  0  0  0  0
   58.2107   32.1708   46.3205 H   0  0  0  0  0  0  0  0  0  0  0  0
   57.0527   33.0384   47.3963 H   0  0  0  0  0  0  0  0  0  0  0  0
   56.8211   33.6032   44.9352 H   0  0  0  0  0  0  0  0  0  0  0  0
   57.1411   35.0190   46.0121 H   0  0  0  0  0  0  0  0  0  0  0  0
   60.4314   35.5250   44.9939 H   0  0  0  0  0  0  0  0  0  0  0  0
   59.0526   36.0370   46.0428 H   0  0  0  0  0  0  0  0  0  0  0  0
   60.8047   33.5515   46.3590 H   0  0  0  0  0  0  0  0  0  0  0  0
   60.7071   34.9824   47.4534 H   0  0  0  0  0  0  0  0  0  0  0  0
   58.5111   31.0893   46.0135 H   0  0  0  0  0  0  0  0  0  0  0  0
   56.9089   31.1081   43.7095 H   0  0  0  0  0  0  0  0  0  0  0  0
   57.2278   29.4005   43.2521 H   0  0  0  0  0  0  0  0  0  0  0  0
   55.5459   30.0312   43.2521 H   0  0  0  0  0  0  0  0  0  0  0  0
  1  2  1  0
  2  3  1  0
  3  4  2  0
  4  5  1  0
  5  6  2  0
  6  7  1  0
  7  8  1  0
  8  9  2  0
  9 10  1  0
 10 11  2  0
 11 12  1  0
 12 13  1  0
 13 14  1  0
 14 15  2  0
 14 16  1  0
 16 17  1  0
 17 18  1  0
 18 19  1  0
 19 20  1  0
 20 21  1  0
  6 22  1  0
 22 23  2  0
 23 24  1  0
 24 25  1  0
 23  3  1  0
 11  7  1  0
 21 16  1  0
  1 26  1  0
  1 27  1  0
  1 28  1  0
  4 29  1  0
  5 30  1  0
  8 31  1  0
  9 32  1  0
 13 33  1  0
 13 34  1  0
 17 35  1  0
 17 36  1  0
 18 37  1  0
 18 38  1  0
 20 39  1  0
 20 40  1  0
 21 41  1  0
 21 42  1  0
 22 43  1  0
 25 44  1  0
 25 45  1  0
 25 46  1  0
M  END
>  <UniqueID>  (20) 
19

>  <SMILES>  (20) 
COc1ccc(-n2ccnc2SCC(=O)N2CCOCC2)cc1OC

>  <Energy>  (20) 
79.59730056180715

>  <Genealogy>  (20) 
COc1ccc(-n2ccnc2SCC(=O)N2CCOCC2)cc1OC (3D coordinates assigned)
COc1ccc(-n2ccnc2SCC(=O)N2CCOCC2)cc1OC (nonaromatic ring conformer: 79.59730056180715 kcal/mol)

>  <smiles>  (20) 
COc1ccc(-n2ccnc2SCC(=O)N2CCOCC2)cc1OC

>  <score_type>  (20) 
oracle

>  <origin>  (20) 
adg

>  <m_score__min__energy>  (20) 
-6.75

>  <m_primary>  (20) 
energy

$$$$
20:0
     RDKit          3D

 42 44  0  0  0  0  0  0  0  0999 V2000
   56.3230   29.7200   42.8690 C   0  0  0  0  0  0  0  0  0  0  0  0
   56.0690   30.4890   44.0410 O   0  0  0  0  0  0  0  0  0  0  0  0
   57.0640   31.0720   44.8420 C   0  0  0  0  0  0  0  0  0  0  0  0
   57.3670   32.4450   44.7740 C   0  0  0  0  0  0  0  0  0  0  0  0
   58.3590   33.0010   45.5940 C   0  0  0  0  0  0  0  0  0  0  0  0
   59.0820   32.1710   46.4740 C   0  0  0  0  0  0  0  0  0  0  0  0
   58.7760   30.8030   46.5420 C   0  0  0  0  0  0  0  0  0  0  0  0
   57.7690   30.2490   45.7310 C   0  0  0  0  0  0  0  0  0  0  0  0
   57.4390   28.8850   45.7790 O   0  0  0  0  0  0  0  0  0  0  0  0
   58.1900   27.8500   45.1510 C   0  0  0  0  0  0  0  0  0  0  0  0
   60.1350   32.7460   47.4070 C   0  0  2  0  0  0  0  0  0  0  0  0
   59.6700   32.7680   48.8590 C   0  0  0  0  0  0  0  0  0  0  0  0
   60.0770   33.7760   49.7560 C   0  0  0  0  0  0  0  0  0  0  0  0
   59.6550   33.7510   51.0860 C   0  0  0  0  0  0  0  0  0  0  0  0
   58.8320   32.7200   51.5440 C   0  0  0  0  0  0  0  0  0  0  0  0
   58.4250   31.6940   50.6730 C   0  0  0  0  0  0  0  0  0  0  0  0
   57.5850   30.6240   51.1440 N   0  0  0  0  0  0  0  0  0  0  0  0
   56.3960   30.8390   51.4590 O   0  0  0  0  0  0  0  0  0  0  0  0
   58.0770   29.3440   51.2530 O   0  0  0  0  0  0  0  0  0  0  0  0
   58.8540   31.7260   49.3340 C   0  0  0  0  0  0  0  0  0  0  0  0
   60.6050   34.0780   46.9720 N   0  0  0  0  0  0  0  0  0  0  0  0
   59.4970   34.9870   46.6430 C   0  0  0  0  0  0  0  0  0  0  0  0
   58.6960   34.4610   45.4490 C   0  0  0  0  0  0  0  0  0  0  0  0
   56.6560   28.7119   43.1569 H   0  0  0  0  0  0  0  0  0  0  0  0
   55.4018   29.6455   42.2726 H   0  0  0  0  0  0  0  0  0  0  0  0
   57.1074   30.2088   42.2726 H   0  0  0  0  0  0  0  0  0  0  0  0
   56.8195   33.0887   44.0698 H   0  0  0  0  0  0  0  0  0  0  0  0
   59.3304   30.1562   47.2379 H   0  0  0  0  0  0  0  0  0  0  0  0
   58.6518   27.2136   45.9203 H   0  0  0  0  0  0  0  0  0  0  0  0
   57.5221   27.2412   44.5239 H   0  0  0  0  0  0  0  0  0  0  0  0
   58.9760   28.2961   44.5239 H   0  0  0  0  0  0  0  0  0  0  0  0
   60.9968   32.0647   47.3512 H   0  0  0  0  0  0  0  0  0  0  0  0
   60.7315   34.5877   49.4055 H   0  0  0  0  0  0  0  0  0  0  0  0
   59.9719   34.5466   51.7763 H   0  0  0  0  0  0  0  0  0  0  0  0
   58.5001   32.7105   52.5927 H   0  0  0  0  0  0  0  0  0  0  0  0
   58.5464   30.9234   48.6476 H   0  0  0  0  0  0  0  0  0  0  0  0
   61.1890   34.5150   47.7230 H   0  0  0  0  0  0  0  0  0  0  0  0
   61.2150   33.9690   46.1280 H   0  0  0  0  0  0  0  0  0  0  0  0
   58.8308   35.0730   47.5141 H   0  0  0  0  0  0  0  0  0  0  0  0
   59.9147   35.9702   46.3807 H   0  0  0  0  0  0  0  0  0  0  0  0
   57.7610   35.0348   45.3683 H   0  0  0  0  0  0  0  0  0  0  0  0
   59.3146   34.5785   44.5471 H   0  0  0  0  0  0  0  0  0  0  0  0
  1  2  1  0
  2  3  1  0
  3  4  2  0
  4  5  1  0
  5  6  2  0
  6  7  1  0
  7  8  2  0
  8  9  1  0
  9 10  1  0
  6 11  1  0
 11 12  1  0
 12 13  2  0
 13 14  1  0
 14 15  2  0
 15 16  1  0
 16 17  1  0
 17 18  2  0
 17 19  1  0
 16 20  2  0
 11 21  1  0
 21 22  1  0
 22 23  1  0
  8  3  1  0
 20 12  1  0
 23  5  1  0
  1 24  1  0
  1 25  1  0
  1 26  1  0
  4 27  1  0
  7 28  1  0
 10 29  1  0
 10 30  1  0
 10 31  1  0
 11 32  1  1
 13 33  1  0
 14 34  1  0
 15 35  1  0
 20 36  1  0
 21 37  1  0
 21 38  1  0
 22 39  1  0
 22 40  1  0
 23 41  1  0
 23 42  1  0
M  CHG  3  17   1  19  -1  21   1
M  END
>  <UniqueID>  (21) 
20

>  <SMILES>  (21) 
COc1cc2c(cc1OC)[C@H](c1cccc([N+](=O)[O-])c1)[NH2+]CC2

>  <Energy>  (21) 
48.32299238288787

>  <Genealogy>  (21) 
COc1cc2c(cc1OC)C(c1cccc([N+](=O)[O-])c1)[NH2+]CC2 (protonated)
COc1cc2c(cc1OC)[C@H](c1cccc([N+](=O)[O-])c1)[NH2+]CC2 (chirality)
COc1cc2c(cc1OC)[C@H](c1cccc([N+](=O)[O-])c1)[NH2+]CC2 (3D coordinates assigned)
COc1cc2c(cc1OC)[C@H](c1cccc([N+](=O)[O-])c1)[NH2+]CC2 (nonaromatic ring conformer: 48.32299238288787 kcal/mol)

>  <smiles>  (21) 
COc1cc2c(cc1OC)C(c1cccc([N+](=O)[O-])c1)NCC2

>  <score_type>  (21) 
oracle

>  <origin>  (21) 
adg

>  <m_score__min__energy>  (21) 
-5.7599999999999998

>  <m_primary>  (21) 
energy

$$$$
21:0
     RDKit          3D

 44 46  0  0  0  0  0  0  0  0999 V2000
   56.2950   30.1060   43.5730 C   0  0  0  0  0  0  0  0  0  0  0  0
   57.3950   31.1290   43.8530 C   0  0  0  0  0  0  0  0  0  0  0  0
   57.3410   31.6420   45.2420 N   0  0  0  0  0  0  0  0  0  0  0  0
   58.4210   31.1310   46.1220 C   0  0  0  0  0  0  0  0  0  0  0  0
   59.2900   30.0420   45.4780 C   0  0  0  0  0  0  0  0  0  0  0  0
   57.2440   33.1200   45.2720 C   0  0  0  0  0  0  0  0  0  0  0  0
   57.5480   33.6600   46.6730 C   0  0  0  0  0  0  0  0  0  0  0  0
   58.6830   34.5270   46.6490 O   0  0  0  0  0  0  0  0  0  0  0  0
   59.9860   34.1930   47.0520 C   0  0  0  0  0  0  0  0  0  0  0  0
   60.8980   33.7960   46.0660 C   0  0  0  0  0  0  0  0  0  0  0  0
   62.2050   33.4340   46.4040 C   0  0  0  0  0  0  0  0  0  0  0  0
   62.6210   33.4720   47.7420 C   0  0  0  0  0  0  0  0  0  0  0  0
   63.8900   33.1160   48.0940 N   0  0  0  0  0  0  0  0  0  0  0  0
   64.2900   33.1560   49.3980 C   0  0  0  0  0  0  0  0  0  0  0  0
   65.5940   32.7900   49.7650 C   0  0  0  0  0  0  0  0  0  0  0  0
   65.9830   32.8380   51.1090 C   0  0  0  0  0  0  0  0  0  0  0  0
   67.7590   32.3370   51.6050 Br  0  0  0  0  0  0  0  0  0  0  0  0
   65.0750   33.2520   52.0900 C   0  0  0  0  0  0  0  0  0  0  0  0
   63.7740   33.6190   51.7320 C   0  0  0  0  0  0  0  0  0  0  0  0
   63.3780   33.5730   50.3920 C   0  0  0  0  0  0  0  0  0  0  0  0
   62.1160   33.9280   50.0360 N   0  0  0  0  0  0  0  0  0  0  0  0
   61.7130   33.8870   48.7400 C   0  0  0  0  0  0  0  0  0  0  0  0
   60.4070   34.2510   48.3950 C   0  0  0  0  0  0  0  0  0  0  0  0
   55.8919   29.7311   44.5253 H   0  0  0  0  0  0  0  0  0  0  0  0
   55.4890   30.5829   42.9960 H   0  0  0  0  0  0  0  0  0  0  0  0
   56.7123   29.2675   42.9960 H   0  0  0  0  0  0  0  0  0  0  0  0
   58.3726   30.6520   43.6892 H   0  0  0  0  0  0  0  0  0  0  0  0
   57.2461   31.9802   43.1723 H   0  0  0  0  0  0  0  0  0  0  0  0
   59.0713   31.9746   46.3967 H   0  0  0  0  0  0  0  0  0  0  0  0
   57.9305   30.6722   46.9932 H   0  0  0  0  0  0  0  0  0  0  0  0
   59.7690   29.4417   46.2655 H   0  0  0  0  0  0  0  0  0  0  0  0
   58.6599   29.3917   44.8535 H   0  0  0  0  0  0  0  0  0  0  0  0
   60.0639   30.5121   44.8535 H   0  0  0  0  0  0  0  0  0  0  0  0
   57.9666   33.5428   44.5585 H   0  0  0  0  0  0  0  0  0  0  0  0
   56.2189   33.4103   44.9985 H   0  0  0  0  0  0  0  0  0  0  0  0
   56.6751   34.2193   47.0408 H   0  0  0  0  0  0  0  0  0  0  0  0
   57.7677   32.8111   47.3372 H   0  0  0  0  0  0  0  0  0  0  0  0
   60.5818   33.7688   45.0128 H   0  0  0  0  0  0  0  0  0  0  0  0
   62.9081   33.1189   45.6189 H   0  0  0  0  0  0  0  0  0  0  0  0
   64.5650   32.8080   47.3550 H   0  0  0  0  0  0  0  0  0  0  0  0
   66.3108   32.4653   48.9964 H   0  0  0  0  0  0  0  0  0  0  0  0
   65.3852   33.2888   53.1447 H   0  0  0  0  0  0  0  0  0  0  0  0
   63.0620   33.9440   52.5049 H   0  0  0  0  0  0  0  0  0  0  0  0
   59.7065   34.5836   49.1751 H   0  0  0  0  0  0  0  0  0  0  0  0
  1  2  1  0
  2  3  1  0
  3  4  1  0
  4  5  1  0
  3  6  1  0
  6  7  1  0
  7  8  1  0
  8  9  1  0
  9 10  2  0
 10 11  1  0
 11 12  2  0
 12 13  1  0
 13 14  2  0
 14 15  1  0
 15 16  2  0
 16 17  1  0
 16 18  1  0
 18 19  2  0
 19 20  1  0
 20 21  2  0
 21 22  1  0
 22 23  2  0
 23  9  1  0
 22 12  1  0
 20 14  1  0
  1 24  1  0
  1 25  1  0
  1 26  1  0
  2 27  1  0
  2 28  1  0
  4 29  1  0
  4 30  1  0
  5 31  1  0
  5 32  1  0
  5 33  1  0
  6 34  1  0
  6 35  1  0
  7 36  1  0
  7 37  1  0
 10 38  1  0
 11 39  1  0
 13 40  1  0
 15 41  1  0
 18 42  1  0
 19 43  1  0
 23 44  1  0
M  CHG  1  13   1
M  END
>  <UniqueID>  (22) 
21

>  <SMILES>  (22) 
CCN(CC)CCOc1ccc2[nH+]c3cc(Br)ccc3nc2c1

>  <Energy>  (22) 
51.82367932316163

>  <Genealogy>  (22) 
CCN(CC)CCOc1ccc2[nH+]c3cc(Br)ccc3nc2c1 (protonated)
CCN(CC)CCOc1ccc2[nH+]c3cc(Br)ccc3nc2c1 (3D coordinates assigned)
CCN(CC)CCOc1ccc2[nH+]c3cc(Br)ccc3nc2c1 (optimized conformer: 51.82367932316163 kcal/mol)

>  <smiles>  (22) 
CCN(CC)CCOc1ccc2nc3cc(Br)ccc3nc2c1

>  <score_type>  (22) 
oracle

>  <origin>  (22) 
adg

>  <m_score__min__energy>  (22) 
-5.9699999999999998

>  <m_primary>  (22) 
energy

$$$$
22:0
     RDKit          3D

 42 44  0  0  0  0  0  0  0  0999 V2000
   59.6450   35.3250   46.7470 C   0  0  0  0  0  0  0  0  0  0  0  0
   58.4470   34.5730   46.1530 C   0  0  0  0  0  0  0  0  0  0  0  0
   58.7540   34.1700   44.7020 C   0  0  0  0  0  0  0  0  0  0  0  0
   58.1120   33.3360   47.0210 C   0  0  0  0  0  0  0  0  0  0  0  0
   58.5830   32.0170   46.4340 C   0  0  0  0  0  0  0  0  0  0  0  0
   57.7380   31.3320   45.6130 N   0  0  0  0  0  0  0  0  0  0  0  0
   58.0420   30.1190   45.0870 C   0  0  0  0  0  0  0  0  0  0  0  0
   57.1360   29.4760   44.2340 C   0  0  0  0  0  0  0  0  0  0  0  0
   57.4510   28.2250   43.6960 C   0  0  0  0  0  0  0  0  0  0  0  0
   58.6680   27.6110   44.0100 C   0  0  0  0  0  0  0  0  0  0  0  0
   59.5760   28.2470   44.8640 C   0  0  0  0  0  0  0  0  0  0  0  0
   59.2660   29.5050   45.4050 C   0  0  0  0  0  0  0  0  0  0  0  0
   60.1480   30.1620   46.2670 C   0  0  0  0  0  0  0  0  0  0  0  0
   59.8260   31.4250   46.7950 C   0  0  0  0  0  0  0  0  0  0  0  0
   60.8170   32.0680   47.7490 C   0  0  0  0  0  0  0  0  0  0  0  0
   62.1730   32.1140   47.1610 N   0  0  0  0  0  0  0  0  0  0  0  0
   63.2400   32.1120   48.1730 C   0  0  0  0  0  0  0  0  0  0  0  0
   63.7230   33.4950   47.7730 C   0  0  0  0  0  0  0  0  0  0  0  0
   62.6110   33.4510   46.7390 C   0  0  0  0  0  0  0  0  0  0  0  0
   59.5912   35.2912   47.8452 H   0  0  0  0  0  0  0  0  0  0  0  0
   60.5789   34.8508   46.4109 H   0  0  0  0  0  0  0  0  0  0  0  0
   59.6239   36.3722   46.4109 H   0  0  0  0  0  0  0  0  0  0  0  0
   57.5659   35.2316   46.1485 H   0  0  0  0  0  0  0  0  0  0  0  0
   59.4206   33.2950   44.6977 H   0  0  0  0  0  0  0  0  0  0  0  0
   57.8161   33.9190   44.1849 H   0  0  0  0  0  0  0  0  0  0  0  0
   59.2450   35.0075   44.1849 H   0  0  0  0  0  0  0  0  0  0  0  0
   58.5880   33.4655   48.0042 H   0  0  0  0  0  0  0  0  0  0  0  0
   57.0151   33.2807   47.0822 H   0  0  0  0  0  0  0  0  0  0  0  0
   56.1771   29.9553   43.9876 H   0  0  0  0  0  0  0  0  0  0  0  0
   56.7401   27.7220   43.0240 H   0  0  0  0  0  0  0  0  0  0  0  0
   58.9118   26.6262   43.5848 H   0  0  0  0  0  0  0  0  0  0  0  0
   60.5317   27.7618   45.1112 H   0  0  0  0  0  0  0  0  0  0  0  0
   61.1032   29.6868   46.5351 H   0  0  0  0  0  0  0  0  0  0  0  0
   60.4873   33.0937   47.9712 H   0  0  0  0  0  0  0  0  0  0  0  0
   60.8564   31.4654   48.6684 H   0  0  0  0  0  0  0  0  0  0  0  0
   62.3420   31.3870   46.4250 H   0  0  0  0  0  0  0  0  0  0  0  0
   62.8643   32.0608   49.2056 H   0  0  0  0  0  0  0  0  0  0  0  0
   63.9597   31.2802   48.1853 H   0  0  0  0  0  0  0  0  0  0  0  0
   63.6113   34.2699   48.5457 H   0  0  0  0  0  0  0  0  0  0  0  0
   64.7703   33.7090   47.5136 H   0  0  0  0  0  0  0  0  0  0  0  0
   61.8466   34.2285   46.8846 H   0  0  0  0  0  0  0  0  0  0  0  0
   62.8620   33.6187   45.6812 H   0  0  0  0  0  0  0  0  0  0  0  0
  1  2  1  0
  2  3  1  0
  2  4  1  0
  4  5  1  0
  5  6  2  0
  6  7  1  0
  7  8  2  0
  8  9  1  0
  9 10  2  0
 10 11  1  0
 11 12  2  0
 12 13  1  0
 13 14  2  0
 14 15  1  0
 15 16  1  0
 16 17  1  0
 17 18  1  0
 18 19  1  0
 14  5  1  0
 19 16  1  0
 12  7  1  0
  1 20  1  0
  1 21  1  0
  1 22  1  0
  2 23  1  0
  3 24  1  0
  3 25  1  0
  3 26  1  0
  4 27  1  0
  4 28  1  0
  8 29  1  0
  9 30  1  0
 10 31  1  0
 11 32  1  0
 13 33  1  0
 15 34  1  0
 15 35  1  0
 16 36  1  0
 17 37  1  0
 17 38  1  0
 18 39  1  0
 18 40  1  0
 19 41  1  0
 19 42  1  0
M  CHG  1  16   1
M  END
>  <UniqueID>  (23) 
22

>  <SMILES>  (23) 
CC(C)Cc1nc2ccccc2cc1C[NH+]1CCC1

>  <Energy>  (23) 
115.17796824341562

>  <Genealogy>  (23) 
CC(C)Cc1nc2ccccc2cc1C[NH+]1CCC1 (protonated)
CC(C)Cc1nc2ccccc2cc1C[NH+]1CCC1 (3D coordinates assigned)
CC(C)Cc1nc2ccccc2cc1C[NH+]1CCC1 (nonaromatic ring conformer: 115.17796824341562 kcal/mol)

>  <smiles>  (23) 
CC(C)Cc1nc2ccccc2cc1CN1CCC1

>  <score_type>  (23) 
oracle

>  <origin>  (23) 
adg

>  <m_score__min__energy>  (23) 
-5.6799999999999997

>  <m_primary>  (23) 
energy

$$$$
23:0
     RDKit          3D

 57 61  0  0  0  0  0  0  0  0999 V2000
   57.7770   26.1940   44.2550 C   0  0  0  0  0  0  0  0  0  0  0  0
   58.1550   27.3560   43.3350 C   0  0  0  0  0  0  0  0  0  0  0  0
   58.0990   28.6650   44.0280 N   0  0  0  0  0  0  0  0  0  0  0  0
   56.7530   29.0080   44.5600 C   0  0  0  0  0  0  0  0  0  0  0  0
   55.9010   29.8970   43.6420 C   0  0  0  0  0  0  0  0  0  0  0  0
   59.1840   28.7700   45.0330 C   0  0  0  0  0  0  0  0  0  0  0  0
   58.7000   28.4370   46.4560 C   0  0  0  0  0  0  0  0  0  0  0  0
   58.4880   29.6530   47.2420 N   0  0  0  0  0  0  0  0  0  0  0  0
   59.3570   30.7990   47.1520 C   0  0  0  0  0  0  0  0  0  0  0  0
   60.5340   30.8320   47.8980 C   0  0  0  0  0  0  0  0  0  0  0  0
   61.3940   31.9360   47.8360 C   0  0  0  0  0  0  0  0  0  0  0  0
   61.1240   32.9720   46.9660 N   0  0  0  0  0  0  0  0  0  0  0  0
   59.9030   33.0290   46.3160 C   0  0  0  0  0  0  0  0  0  0  0  0
   59.4880   34.1810   45.5980 C   0  0  0  0  0  0  0  0  0  0  0  0
   58.2820   34.1970   44.8970 C   0  0  0  0  0  0  0  0  0  0  0  0
   57.4550   33.0800   44.9010 C   0  0  0  0  0  0  0  0  0  0  0  0
   57.8100   31.9510   45.6340 C   0  0  0  0  0  0  0  0  0  0  0  0
   59.0120   31.9180   46.3710 C   0  0  0  0  0  0  0  0  0  0  0  0
   62.1300   34.0530   46.7960 C   0  0  0  0  0  0  0  0  0  0  0  0
   63.5680   33.5530   46.9780 C   0  0  0  0  0  0  0  0  0  0  0  0
   63.6970   32.8000   48.2630 C   0  0  0  0  0  0  0  0  0  0  0  0
   64.8900   32.8640   49.0140 C   0  0  0  0  0  0  0  0  0  0  0  0
   64.9590   32.1220   50.1870 C   0  0  0  0  0  0  0  0  0  0  0  0
   63.9270   31.3520   50.6110 C   0  0  0  0  0  0  0  0  0  0  0  0
   62.7390   31.2490   49.8940 C   0  0  0  0  0  0  0  0  0  0  0  0
   62.6260   31.9700   48.6780 C   0  0  0  0  0  0  0  0  0  0  0  0
   64.2650   30.7440   51.8040 O   0  0  0  0  0  0  0  0  0  0  0  0
   65.5960   31.1550   52.1480 C   0  0  0  0  0  0  0  0  0  0  0  0
   66.0010   32.0330   51.0890 O   0  0  0  0  0  0  0  0  0  0  0  0
   57.8794   26.5086   45.3041 H   0  0  0  0  0  0  0  0  0  0  0  0
   56.7358   25.8967   44.0613 H   0  0  0  0  0  0  0  0  0  0  0  0
   58.4440   25.3410   44.0613 H   0  0  0  0  0  0  0  0  0  0  0  0
   59.1784   27.1954   42.9649 H   0  0  0  0  0  0  0  0  0  0  0  0
   57.4281   27.3814   42.5098 H   0  0  0  0  0  0  0  0  0  0  0  0
   56.2046   28.0701   44.7321 H   0  0  0  0  0  0  0  0  0  0  0  0
   56.9236   29.5881   45.4789 H   0  0  0  0  0  0  0  0  0  0  0  0
   55.2687   30.5568   44.2543 H   0  0  0  0  0  0  0  0  0  0  0  0
   56.5605   30.5069   43.0071 H   0  0  0  0  0  0  0  0  0  0  0  0
   55.2636   29.2640   43.0071 H   0  0  0  0  0  0  0  0  0  0  0  0
   59.9872   28.0698   44.7601 H   0  0  0  0  0  0  0  0  0  0  0  0
   59.5400   29.8108   45.0348 H   0  0  0  0  0  0  0  0  0  0  0  0
   57.7526   27.8818   46.3918 H   0  0  0  0  0  0  0  0  0  0  0  0
   59.4721   27.8315   46.9533 H   0  0  0  0  0  0  0  0  0  0  0  0
   57.7940   29.6150   48.0230 H   0  0  0  0  0  0  0  0  0  0  0  0
   60.7910   29.9796   48.5441 H   0  0  0  0  0  0  0  0  0  0  0  0
   60.1278   35.0758   45.5943 H   0  0  0  0  0  0  0  0  0  0  0  0
   57.9845   35.0971   44.3390 H   0  0  0  0  0  0  0  0  0  0  0  0
   56.5185   33.0881   44.3241 H   0  0  0  0  0  0  0  0  0  0  0  0
   57.1453   31.0745   45.6384 H   0  0  0  0  0  0  0  0  0  0  0  0
   62.0283   34.4732   45.7845 H   0  0  0  0  0  0  0  0  0  0  0  0
   61.9397   34.8105   47.5706 H   0  0  0  0  0  0  0  0  0  0  0  0
   63.8301   32.8895   46.1407 H   0  0  0  0  0  0  0  0  0  0  0  0
   64.2473   34.4179   47.0005 H   0  0  0  0  0  0  0  0  0  0  0  0
   65.7378   33.4811   48.6817 H   0  0  0  0  0  0  0  0  0  0  0  0
   61.9102   30.6254   50.2603 H   0  0  0  0  0  0  0  0  0  0  0  0
   65.5996   31.6851   53.1118 H   0  0  0  0  0  0  0  0  0  0  0  0
   66.2771   30.2980   52.2562 H   0  0  0  0  0  0  0  0  0  0  0  0
  1  2  1  0
  2  3  1  0
  3  4  1  0
  4  5  1  0
  3  6  1  0
  6  7  1  0
  7  8  1  0
  8  9  1  0
  9 10  2  0
 10 11  1  0
 11 12  2  0
 12 13  1  0
 13 14  2  0
 14 15  1  0
 15 16  2  0
 16 17  1  0
 17 18  2  0
 12 19  1  0
 19 20  1  0
 20 21  1  0
 21 22  2  0
 22 23  1  0
 23 24  2  0
 24 25  1  0
 25 26  2  0
 24 27  1  0
 27 28  1  0
 28 29  1  0
 18  9  1  0
 26 21  1  0
 26 11  1  0
 18 13  1  0
 29 23  1  0
  1 30  1  0
  1 31  1  0
  1 32  1  0
  2 33  1  0
  2 34  1  0
  4 35  1  0
  4 36  1  0
  5 37  1  0
  5 38  1  0
  5 39  1  0
  6 40  1  0
  6 41  1  0
  7 42  1  0
  7 43  1  0
  8 44  1  0
 10 45  1  0
 14 46  1  0
 15 47  1  0
 16 48  1  0
 17 49  1  0
 19 50  1  0
 19 51  1  0
 20 52  1  0
 20 53  1  0
 22 54  1  0
 25 55  1  0
 28 56  1  0
 28 57  1  0
M  CHG  1  12   1
M  END
>  <UniqueID>  (24) 
23

>  <SMILES>  (24) 
CCN(CC)CCNc1cc2[n+](c3ccccc13)CCc1cc3c(cc1-2)OCO3

>  <Energy>  (24) 
111.86069207812963

>  <Genealogy>  (24) 
CCN(CC)CCNc1cc2[n+](c3ccccc13)CCc1cc3c(cc1-2)OCO3 (3D coordinates assigned)
CCN(CC)CCNc1cc2[n+](c3ccccc13)CCc1cc3c(cc1-2)OCO3 (nonaromatic ring conformer: 111.86069207812963 kcal/mol)

>  <smiles>  (24) 
CCN(CC)CCNc1cc2[n+](c3ccccc13)CCc1cc3c(cc1-2)OCO3

>  <score_type>  (24) 
oracle

>  <origin>  (24) 
adg

>  <m_score__min__energy>  (24) 
-6.7699999999999996

>  <m_primary>  (24) 
energy

$$$$
24:0
     RDKit          3D

 46 48  0  0  0  0  0  0  0  0999 V2000
   63.2930   33.8120   50.3630 C   0  0  0  0  0  0  0  0  0  0  0  0
   63.0160   33.6780   48.9350 N   0  0  0  0  0  0  0  0  0  0  0  0
   63.9230   33.3860   47.9810 C   0  0  0  0  0  0  0  0  0  0  0  0
   63.2880   33.4050   46.7580 C   0  0  0  0  0  0  0  0  0  0  0  0
   61.9910   33.7060   46.9510 N   0  0  0  0  0  0  0  0  0  0  0  0
   61.8420   33.8480   48.2830 C   0  0  0  0  0  0  0  0  0  0  0  0
   60.5320   34.2310   48.9270 C   0  0  0  0  0  0  0  0  0  0  0  0
   59.3390   33.8690   48.1300 N   0  0  0  0  0  0  0  0  0  0  0  0
   59.2120   32.4510   47.7500 C   0  0  0  0  0  0  0  0  0  0  0  0
   59.8050   32.1700   46.3640 C   0  0  0  0  0  0  0  0  0  0  0  0
   59.2280   33.0520   45.3360 N   0  0  0  0  0  0  0  0  0  0  0  0
   57.8270   32.7170   44.9890 C   0  0  0  0  0  0  0  0  0  0  0  0
   57.7880   31.8040   43.7610 C   0  0  0  0  0  0  0  0  0  0  0  0
   57.8790   30.3960   44.1530 N   0  0  0  0  0  0  0  0  0  0  0  0
   59.1210   29.7150   44.5070 C   0  0  0  0  0  0  0  0  0  0  0  0
   58.7470   28.2250   44.6880 C   0  0  0  0  0  0  0  0  0  0  0  0
   57.3300   28.1290   44.3660 N   0  0  0  0  0  0  0  0  0  0  0  0
   56.8580   29.4190   44.0500 C   0  0  0  0  0  0  0  0  0  0  0  0
   55.2770   29.7480   43.7720 S   0  0  0  0  0  0  0  0  0  0  0  0
   59.4240   34.4730   45.6810 C   0  0  0  0  0  0  0  0  0  0  0  0
   58.9180   34.8320   47.0940 C   0  0  0  0  0  0  0  0  0  0  0  0
   62.4499   33.4041   50.9399 H   0  0  0  0  0  0  0  0  0  0  0  0
   64.2100   33.2579   50.6122 H   0  0  0  0  0  0  0  0  0  0  0  0
   63.4277   34.8749   50.6122 H   0  0  0  0  0  0  0  0  0  0  0  0
   64.9882   33.1695   48.1500 H   0  0  0  0  0  0  0  0  0  0  0  0
   63.7627   33.2070   45.7857 H   0  0  0  0  0  0  0  0  0  0  0  0
   61.2600   33.8160   46.2130 H   0  0  0  0  0  0  0  0  0  0  0  0
   60.4642   33.7235   49.9006 H   0  0  0  0  0  0  0  0  0  0  0  0
   60.5319   35.3272   49.0187 H   0  0  0  0  0  0  0  0  0  0  0  0
   59.7404   31.8359   48.4933 H   0  0  0  0  0  0  0  0  0  0  0  0
   58.1406   32.2039   47.7166 H   0  0  0  0  0  0  0  0  0  0  0  0
   60.8925   32.3309   46.4022 H   0  0  0  0  0  0  0  0  0  0  0  0
   59.5697   31.1297   46.0948 H   0  0  0  0  0  0  0  0  0  0  0  0
   57.3557   32.2021   45.8392 H   0  0  0  0  0  0  0  0  0  0  0  0
   57.2826   33.6455   44.7622 H   0  0  0  0  0  0  0  0  0  0  0  0
   56.8437   31.9671   43.2209 H   0  0  0  0  0  0  0  0  0  0  0  0
   58.6461   32.0453   43.1165 H   0  0  0  0  0  0  0  0  0  0  0  0
   59.8630   29.8289   43.7030 H   0  0  0  0  0  0  0  0  0  0  0  0
   59.5669   30.1347   45.4208 H   0  0  0  0  0  0  0  0  0  0  0  0
   59.3381   27.5962   44.0059 H   0  0  0  0  0  0  0  0  0  0  0  0
   58.9539   27.8773   45.7109 H   0  0  0  0  0  0  0  0  0  0  0  0
   56.7540   27.2590   44.4060 H   0  0  0  0  0  0  0  0  0  0  0  0
   60.4988   34.7008   45.6264 H   0  0  0  0  0  0  0  0  0  0  0  0
   58.8383   35.0668   44.9639 H   0  0  0  0  0  0  0  0  0  0  0  0
   59.3079   35.8250   47.3620 H   0  0  0  0  0  0  0  0  0  0  0  0
   57.8187   34.8120   47.0599 H   0  0  0  0  0  0  0  0  0  0  0  0
  1  2  1  0
  2  3  1  0
  3  4  2  0
  4  5  1  0
  5  6  2  0
  6  7  1  0
  7  8  1  0
  8  9  1  0
  9 10  1  0
 10 11  1  0
 11 12  1  0
 12 13  1  0
 13 14  1  0
 14 15  1  0
 15 16  1  0
 16 17  1  0
 17 18  1  0
 18 19  2  0
 11 20  1  0
 20 21  1  0
  6  2  1  0
 21  8  1  0
 18 14  1  0
  1 22  1  0
  1 23  1  0
  1 24  1  0
  3 25  1  0
  4 26  1  0
  5 27  1  0
  7 28  1  0
  7 29  1  0
  9 30  1  0
  9 31  1  0
 10 32  1  0
 10 33  1  0
 12 34  1  0
 12 35  1  0
 13 36  1  0
 13 37  1  0
 15 38  1  0
 15 39  1  0
 16 40  1  0
 16 41  1  0
 17 42  1  0
 20 43  1  0
 20 44  1  0
 21 45  1  0
 21 46  1  0
M  CHG  1   5   1
M  END
>  <UniqueID>  (25) 
24

>  <SMILES>  (25) 
Cn1cc[nH+]c1CN1CCN(CCN2CCNC2=S)CC1

>  <Energy>  (25) 
96.42005025885008

>  <Genealogy>  (25) 
Cn1cc[nH+]c1CN1CCN(CCN2CCNC2=S)CC1 (protonated)
Cn1cc[nH+]c1CN1CCN(CCN2CCNC2=S)CC1 (3D coordinates assigned)
Cn1cc[nH+]c1CN1CCN(CCN2CCNC2=S)CC1 (nonaromatic ring conformer: 96.42005025885008 kcal/mol)

>  <smiles>  (25) 
Cn1ccnc1CN1CCN(CCN2CCNC2=S)CC1

>  <score_type>  (25) 
oracle

>  <origin>  (25) 
adg

>  <m_score__min__energy>  (25) 
-5.4000000000000004

>  <m_primary>  (25) 
energy

$$$$
25:0
     RDKit          3D

 49 51  0  0  0  0  0  0  0  0999 V2000
   63.3520   32.2560   47.4440 C   0  0  0  0  0  0  0  0  0  0  0  0
   63.9480   33.1010   48.5800 C   0  0  0  0  0  0  0  0  0  0  0  0
   63.6480   32.5960   49.9480 N   0  0  0  0  0  0  0  0  0  0  0  0
   64.8240   32.6220   50.8580 C   0  0  0  0  0  0  0  0  0  0  0  0
   66.1580   32.7480   50.1140 C   0  0  0  0  0  0  0  0  0  0  0  0
   63.0450   31.2360   49.8940 C   0  0  0  0  0  0  0  0  0  0  0  0
   61.8350   31.0880   50.8350 C   0  0  0  0  0  0  0  0  0  0  0  0
   60.9810   32.2290   50.7350 O   0  0  0  0  0  0  0  0  0  0  0  0
   60.5820   32.8510   49.5400 C   0  0  0  0  0  0  0  0  0  0  0  0
   60.8420   34.2080   49.2630 C   0  0  0  0  0  0  0  0  0  0  0  0
   60.4220   34.7780   48.0580 C   0  0  0  0  0  0  0  0  0  0  0  0
   59.7330   34.0010   47.1110 C   0  0  0  0  0  0  0  0  0  0  0  0
   59.2950   34.5240   45.8850 C   0  0  0  0  0  0  0  0  0  0  0  0
   59.5120   35.7280   45.5780 O   0  0  0  0  0  0  0  0  0  0  0  0
   58.6140   33.6970   44.9900 C   0  0  0  0  0  0  0  0  0  0  0  0
   58.3760   32.3560   45.3370 C   0  0  0  0  0  0  0  0  0  0  0  0
   57.6570   31.4270   44.4270 C   0  0  0  0  0  0  0  0  0  0  0  0
   57.4020   31.7580   43.0810 C   0  0  0  0  0  0  0  0  0  0  0  0
   56.7150   30.8660   42.2510 C   0  0  0  0  0  0  0  0  0  0  0  0
   56.2690   29.6420   42.7530 C   0  0  0  0  0  0  0  0  0  0  0  0
   56.5040   29.3090   44.0880 C   0  0  0  0  0  0  0  0  0  0  0  0
   57.1890   30.1960   44.9230 C   0  0  0  0  0  0  0  0  0  0  0  0
   58.8150   31.8920   46.5070 O   0  0  0  0  0  0  0  0  0  0  0  0
   59.4670   32.6430   47.3890 C   0  0  0  0  0  0  0  0  0  0  0  0
   59.8920   32.0810   48.5970 C   0  0  0  0  0  0  0  0  0  0  0  0
   62.7677   31.4276   47.8710 H   0  0  0  0  0  0  0  0  0  0  0  0
   62.6968   32.8853   46.8238 H   0  0  0  0  0  0  0  0  0  0  0  0
   64.1647   31.8500   46.8238 H   0  0  0  0  0  0  0  0  0  0  0  0
   65.0405   33.1240   48.4542 H   0  0  0  0  0  0  0  0  0  0  0  0
   63.4853   34.0962   48.5055 H   0  0  0  0  0  0  0  0  0  0  0  0
   62.9290   33.2500   50.3420 H   0  0  0  0  0  0  0  0  0  0  0  0
   64.7207   33.4797   51.5390 H   0  0  0  0  0  0  0  0  0  0  0  0
   64.8402   31.6650   51.4001 H   0  0  0  0  0  0  0  0  0  0  0  0
   66.9784   32.8255   50.8427 H   0  0  0  0  0  0  0  0  0  0  0  0
   66.3110   31.8603   49.4827 H   0  0  0  0  0  0  0  0  0  0  0  0
   66.1421   33.6486   49.4827 H   0  0  0  0  0  0  0  0  0  0  0  0
   62.7164   31.0368   48.8633 H   0  0  0  0  0  0  0  0  0  0  0  0
   63.8116   30.5180   50.2208 H   0  0  0  0  0  0  0  0  0  0  0  0
   61.2688   30.1866   50.5576 H   0  0  0  0  0  0  0  0  0  0  0  0
   62.1974   31.0045   51.8702 H   0  0  0  0  0  0  0  0  0  0  0  0
   61.3792   34.8228   50.0002 H   0  0  0  0  0  0  0  0  0  0  0  0
   60.6313   35.8377   47.8502 H   0  0  0  0  0  0  0  0  0  0  0  0
   58.2672   34.0908   44.0232 H   0  0  0  0  0  0  0  0  0  0  0  0
   57.7452   32.7234   42.6808 H   0  0  0  0  0  0  0  0  0  0  0  0
   56.5256   31.1296   41.2000 H   0  0  0  0  0  0  0  0  0  0  0  0
   55.7328   28.9405   42.0969 H   0  0  0  0  0  0  0  0  0  0  0  0
   56.1491   28.3460   44.4839 H   0  0  0  0  0  0  0  0  0  0  0  0
   57.3637   29.9299   45.9759 H   0  0  0  0  0  0  0  0  0  0  0  0
   59.6816   31.0222   48.8082 H   0  0  0  0  0  0  0  0  0  0  0  0
  1  2  1  0
  2  3  1  0
  3  4  1  0
  4  5  1  0
  3  6  1  0
  6  7  1  0
  7  8  1  0
  8  9  1  0
  9 10  2  0
 10 11  1  0
 11 12  2  0
 12 13  1  0
 13 14  2  0
 13 15  1  0
 15 16  2  0
 16 17  1  0
 17 18  2  0
 18 19  1  0
 19 20  2  0
 20 21  1  0
 21 22  2  0
 16 23  1  0
 23 24  1  0
 24 25  2  0
 25  9  1  0
 24 12  1  0
 22 17  1  0
  1 26  1  0
  1 27  1  0
  1 28  1  0
  2 29  1  0
  2 30  1  0
  3 31  1  0
  4 32  1  0
  4 33  1  0
  5 34  1  0
  5 35  1  0
  5 36  1  0
  6 37  1  0
  6 38  1  0
  7 39  1  0
  7 40  1  0
 10 41  1  0
 11 42  1  0
 15 43  1  0
 18 44  1  0
 19 45  1  0
 20 46  1  0
 21 47  1  0
 22 48  1  0
 25 49  1  0
M  CHG  1   3   1
M  END
>  <UniqueID>  (26) 
25

>  <SMILES>  (26) 
CC[NH+](CC)CCOc1ccc2c(=O)cc(-c3ccccc3)oc2c1

>  <Energy>  (26) 
62.15126679028739

>  <Genealogy>  (26) 
CC[NH+](CC)CCOc1ccc2c(=O)cc(-c3ccccc3)oc2c1 (protonated)
CC[NH+](CC)CCOc1ccc2c(=O)cc(-c3ccccc3)oc2c1 (3D coordinates assigned)
CC[NH+](CC)CCOc1ccc2c(=O)cc(-c3ccccc3)oc2c1 (optimized conformer: 62.15126679028739 kcal/mol)

>  <smiles>  (26) 
CCN(CC)CCOc1ccc2c(=O)cc(-c3ccccc3)oc2c1

>  <score_type>  (26) 
oracle

>  <origin>  (26) 
adg

>  <m_score__min__energy>  (26) 
-5.7400000000000002

>  <m_primary>  (26) 
energy

$$$$
26:0
     RDKit          3D

 43 45  0  0  0  0  0  0  0  0999 V2000
   59.5750   29.7370   48.7530 C   0  0  0  0  0  0  0  0  0  0  0  0
   59.8010   30.6400   47.6130 N   0  0  0  0  0  0  0  0  0  0  0  0
   61.0830   31.3450   47.7470 C   0  0  0  0  0  0  0  0  0  0  0  0
   58.6640   31.5550   47.3640 C   0  0  0  0  0  0  0  0  0  0  0  0
   58.3990   31.8440   45.8900 C   0  0  0  0  0  0  0  0  0  0  0  0
   58.4140   33.1860   45.4620 C   0  0  0  0  0  0  0  0  0  0  0  0
   58.2220   33.5120   44.1190 C   0  0  0  0  0  0  0  0  0  0  0  0
   58.0020   32.5060   43.1810 C   0  0  0  0  0  0  0  0  0  0  0  0
   57.9620   31.1720   43.5840 C   0  0  0  0  0  0  0  0  0  0  0  0
   58.1500   30.8230   44.9320 C   0  0  0  0  0  0  0  0  0  0  0  0
   58.0400   29.3930   45.2960 C   0  0  0  0  0  0  0  0  0  0  0  0
   56.8390   28.7150   45.4720 C   0  0  0  0  0  0  0  0  0  0  0  0
   57.1910   27.4050   45.7150 C   0  0  0  0  0  0  0  0  0  0  0  0
   58.5570   27.3190   45.6450 C   0  0  0  0  0  0  0  0  0  0  0  0
   59.0880   28.5360   45.4040 N   0  0  0  0  0  0  0  0  0  0  0  0
   60.5090   28.8340   45.2250 C   0  0  0  0  0  0  0  0  0  0  0  0
   59.3050   26.0360   45.8830 C   0  0  0  0  0  0  0  0  0  0  0  0
   58.3980   24.8210   45.5870 C   0  0  0  0  0  0  0  0  0  0  0  0
   57.0190   24.9250   46.2790 C   0  0  0  0  0  0  0  0  0  0  0  0
   56.3460   26.2380   45.9740 C   0  0  0  0  0  0  0  0  0  0  0  0
   55.0910   26.3420   46.0000 O   0  0  0  0  0  0  0  0  0  0  0  0
   59.7137   30.2913   49.6929 H   0  0  0  0  0  0  0  0  0  0  0  0
   58.5499   29.3404   48.7090 H   0  0  0  0  0  0  0  0  0  0  0  0
   60.2925   28.9043   48.7090 H   0  0  0  0  0  0  0  0  0  0  0  0
   61.3201   31.4754   48.8132 H   0  0  0  0  0  0  0  0  0  0  0  0
   61.8772   30.7567   47.2641 H   0  0  0  0  0  0  0  0  0  0  0  0
   61.0116   32.3307   47.2641 H   0  0  0  0  0  0  0  0  0  0  0  0
   57.7581   31.1031   47.7943 H   0  0  0  0  0  0  0  0  0  0  0  0
   58.9266   32.5161   47.8301 H   0  0  0  0  0  0  0  0  0  0  0  0
   58.5793   33.9879   46.1966 H   0  0  0  0  0  0  0  0  0  0  0  0
   58.2444   34.5647   43.8006 H   0  0  0  0  0  0  0  0  0  0  0  0
   57.8597   32.7644   42.1213 H   0  0  0  0  0  0  0  0  0  0  0  0
   57.7812   30.3838   42.8383 H   0  0  0  0  0  0  0  0  0  0  0  0
   55.8234   29.1351   45.4269 H   0  0  0  0  0  0  0  0  0  0  0  0
   60.9894   28.9347   46.2094 H   0  0  0  0  0  0  0  0  0  0  0  0
   60.9874   28.0166   44.6655 H   0  0  0  0  0  0  0  0  0  0  0  0
   60.6187   29.7747   44.6655 H   0  0  0  0  0  0  0  0  0  0  0  0
   60.1843   26.0013   45.2229 H   0  0  0  0  0  0  0  0  0  0  0  0
   59.6210   25.9973   46.9359 H   0  0  0  0  0  0  0  0  0  0  0  0
   58.2425   24.7541   44.5001 H   0  0  0  0  0  0  0  0  0  0  0  0
   58.9015   23.9259   45.9810 H   0  0  0  0  0  0  0  0  0  0  0  0
   56.3783   24.1041   45.9245 H   0  0  0  0  0  0  0  0  0  0  0  0
   57.1726   24.8602   47.3663 H   0  0  0  0  0  0  0  0  0  0  0  0
  1  2  1  0
  2  3  1  0
  2  4  1  0
  4  5  1  0
  5  6  2  0
  6  7  1  0
  7  8  2  0
  8  9  1  0
  9 10  2  0
 10 11  1  0
 11 12  2  0
 12 13  1  0
 13 14  2  0
 14 15  1  0
 15 16  1  0
 14 17  1  0
 17 18  1  0
 18 19  1  0
 19 20  1  0
 20 21  2  0
 10  5  1  0
 15 11  1  0
 20 13  1  0
  1 22  1  0
  1 23  1  0
  1 24  1  0
  3 25  1  0
  3 26  1  0
  3 27  1  0
  4 28  1  0
  4 29  1  0
  6 30  1  0
  7 31  1  0
  8 32  1  0
  9 33  1  0
 12 34  1  0
 16 35  1  0
 16 36  1  0
 16 37  1  0
 17 38  1  0
 17 39  1  0
 18 40  1  0
 18 41  1  0
 19 42  1  0
 19 43  1  0
M  END
>  <UniqueID>  (27) 
26

>  <SMILES>  (27) 
CN(C)Cc1ccccc1-c1cc2c(n1C)CCCC2=O

>  <Energy>  (27) 
80.75651257725252

>  <Genealogy>  (27) 
CN(C)Cc1ccccc1-c1cc2c(n1C)CCCC2=O (3D coordinates assigned)
CN(C)Cc1ccccc1-c1cc2c(n1C)CCCC2=O (nonaromatic ring conformer: 80.75651257725252 kcal/mol)

>  <smiles>  (27) 
CN(C)Cc1ccccc1-c1cc2c(n1C)CCCC2=O

>  <score_type>  (27) 
oracle

>  <origin>  (27) 
adg

>  <m_score__min__energy>  (27) 
-7.3399999999999999

>  <m_primary>  (27) 
energy

$$$$
27:0
     RDKit          3D

 69 73  0  0  0  0  0  0  0  0999 V2000
   59.2360   33.0050   50.6910 C   0  0  0  0  0  0  0  0  0  0  0  0
   60.2930   33.8520   49.9840 C   0  0  0  0  0  0  0  0  0  0  0  0
   61.5920   33.1440   49.8880 N   0  0  0  0  0  0  0  0  0  0  0  0
   62.4370   33.2740   51.1040 C   0  0  0  0  0  0  0  0  0  0  0  0
   63.6610   34.1830   50.9310 C   0  0  0  0  0  0  0  0  0  0  0  0
   62.3360   33.5150   48.6620 C   0  0  0  0  0  0  0  0  0  0  0  0
   63.0670   32.3140   48.0280 C   0  0  0  0  0  0  0  0  0  0  0  0
   62.1350   31.2470   47.4320 C   0  0  0  0  0  0  0  0  0  0  0  0
   60.7470   31.4040   47.8780 N   0  0  0  0  0  0  0  0  0  0  0  0
   59.6790   31.3700   46.9160 C   0  0  0  0  0  0  0  0  0  0  0  0
   59.3470   32.5510   46.2260 C   0  0  0  0  0  0  0  0  0  0  0  0
   59.8220   33.8020   46.6730 C   0  0  0  0  0  0  0  0  0  0  0  0
   59.5040   34.9740   45.9930 C   0  0  0  0  0  0  0  0  0  0  0  0
   58.6960   34.9240   44.8640 C   0  0  0  0  0  0  0  0  0  0  0  0
   58.2000   33.7010   44.4110 C   0  0  0  0  0  0  0  0  0  0  0  0
   58.5180   32.4890   45.0790 C   0  0  0  0  0  0  0  0  0  0  0  0
   58.0440   31.2720   44.6400 N   0  0  0  0  0  0  0  0  0  0  0  0
   57.2760   31.1900   43.3770 C   0  0  0  0  0  0  0  0  0  0  0  0
   58.2310   30.1370   45.3960 C   0  0  0  0  0  0  0  0  0  0  0  0
   57.6350   28.9750   45.0150 N   0  0  0  0  0  0  0  0  0  0  0  0
   57.7210   27.8250   45.7180 C   0  0  0  0  0  0  0  0  0  0  0  0
   57.0550   26.6850   45.2530 C   0  0  0  0  0  0  0  0  0  0  0  0
   57.0810   25.5060   45.9980 C   0  0  0  0  0  0  0  0  0  0  0  0
   57.7620   25.4650   47.2140 C   0  0  0  0  0  0  0  0  0  0  0  0
   58.4330   26.5980   47.6830 C   0  0  0  0  0  0  0  0  0  0  0  0
   58.4420   27.7910   46.9260 C   0  0  0  0  0  0  0  0  0  0  0  0
   59.1220   28.9600   47.3530 C   0  0  0  0  0  0  0  0  0  0  0  0
   59.7890   28.9500   48.6270 N   0  0  0  0  0  0  0  0  0  0  0  0
   59.2370   29.6450   49.7790 C   0  0  0  0  0  0  0  0  0  0  0  0
   59.8530   28.9770   51.0000 C   0  0  0  0  0  0  0  0  0  0  0  0
   61.0160   28.1330   50.4840 C   0  0  0  0  0  0  0  0  0  0  0  0
   60.7660   27.9370   48.9950 C   0  0  0  0  0  0  0  0  0  0  0  0
   59.0280   30.1570   46.5750 C   0  0  0  0  0  0  0  0  0  0  0  0
   59.3568   33.1018   51.7800 H   0  0  0  0  0  0  0  0  0  0  0  0
   58.2335   33.3526   50.4010 H   0  0  0  0  0  0  0  0  0  0  0  0
   59.3567   31.9508   50.4010 H   0  0  0  0  0  0  0  0  0  0  0  0
   59.9401   34.0876   48.9692 H   0  0  0  0  0  0  0  0  0  0  0  0
   60.4460   34.7688   50.5722 H   0  0  0  0  0  0  0  0  0  0  0  0
   61.8150   33.6848   51.9129 H   0  0  0  0  0  0  0  0  0  0  0  0
   62.8220   32.2682   51.3278 H   0  0  0  0  0  0  0  0  0  0  0  0
   64.0474   34.4699   51.9201 H   0  0  0  0  0  0  0  0  0  0  0  0
   64.4420   33.6443   50.3744 H   0  0  0  0  0  0  0  0  0  0  0  0
   63.3711   35.0864   50.3744 H   0  0  0  0  0  0  0  0  0  0  0  0
   61.6254   33.9228   47.9280 H   0  0  0  0  0  0  0  0  0  0  0  0
   63.0966   34.2577   48.9447 H   0  0  0  0  0  0  0  0  0  0  0  0
   63.7164   32.6915   47.2244 H   0  0  0  0  0  0  0  0  0  0  0  0
   63.6280   31.8244   48.8377 H   0  0  0  0  0  0  0  0  0  0  0  0
   62.1645   31.3253   46.3352 H   0  0  0  0  0  0  0  0  0  0  0  0
   62.4883   30.2637   47.7760 H   0  0  0  0  0  0  0  0  0  0  0  0
   60.5320   31.6660   48.8640 H   0  0  0  0  0  0  0  0  0  0  0  0
   60.4532   33.8519   47.5725 H   0  0  0  0  0  0  0  0  0  0  0  0
   59.8923   35.9395   46.3494 H   0  0  0  0  0  0  0  0  0  0  0  0
   58.4467   35.8505   44.3260 H   0  0  0  0  0  0  0  0  0  0  0  0
   57.5523   33.6753   43.5223 H   0  0  0  0  0  0  0  0  0  0  0  0
   56.2060   31.0758   43.6053 H   0  0  0  0  0  0  0  0  0  0  0  0
   57.4303   32.1097   42.7937 H   0  0  0  0  0  0  0  0  0  0  0  0
   57.6210   30.3236   42.7937 H   0  0  0  0  0  0  0  0  0  0  0  0
   56.5100   26.7190   44.2981 H   0  0  0  0  0  0  0  0  0  0  0  0
   56.5644   24.6088   45.6263 H   0  0  0  0  0  0  0  0  0  0  0  0
   57.7712   24.5380   47.8062 H   0  0  0  0  0  0  0  0  0  0  0  0
   58.9581   26.5605   48.6489 H   0  0  0  0  0  0  0  0  0  0  0  0
   59.5065   30.7110   49.7487 H   0  0  0  0  0  0  0  0  0  0  0  0
   58.1386   29.5892   49.7977 H   0  0  0  0  0  0  0  0  0  0  0  0
   60.2177   29.7369   51.7068 H   0  0  0  0  0  0  0  0  0  0  0  0
   59.1155   28.3590   51.5331 H   0  0  0  0  0  0  0  0  0  0  0  0
   61.9695   28.6572   50.6455 H   0  0  0  0  0  0  0  0  0  0  0  0
   61.0792   27.1698   51.0115 H   0  0  0  0  0  0  0  0  0  0  0  0
   61.6976   28.0775   48.4272 H   0  0  0  0  0  0  0  0  0  0  0  0
   60.4044   26.9222   48.7726 H   0  0  0  0  0  0  0  0  0  0  0  0
  1  2  1  0
  2  3  1  0
  3  4  1  0
  4  5  1  0
  3  6  1  0
  6  7  1  0
  7  8  1  0
  8  9  1  0
  9 10  1  0
 10 11  2  0
 11 12  1  0
 12 13  2  0
 13 14  1  0
 14 15  2  0
 15 16  1  0
 16 17  2  0
 17 18  1  0
 17 19  1  0
 19 20  2  0
 20 21  1  0
 21 22  2  0
 22 23  1  0
 23 24  2  0
 24 25  1  0
 25 26  2  0
 26 27  1  0
 27 28  1  0
 28 29  1  0
 29 30  1  0
 30 31  1  0
 31 32  1  0
 27 33  2  0
 33 10  1  0
 16 11  1  0
 33 19  1  0
 26 21  1  0
 32 28  1  0
  1 34  1  0
  1 35  1  0
  1 36  1  0
  2 37  1  0
  2 38  1  0
  4 39  1  0
  4 40  1  0
  5 41  1  0
  5 42  1  0
  5 43  1  0
  6 44  1  0
  6 45  1  0
  7 46  1  0
  7 47  1  0
  8 48  1  0
  8 49  1  0
  9 50  1  0
 12 51  1  0
 13 52  1  0
 14 53  1  0
 15 54  1  0
 18 55  1  0
 18 56  1  0
 18 57  1  0
 22 58  1  0
 23 59  1  0
 24 60  1  0
 25 61  1  0
 29 62  1  0
 29 63  1  0
 30 64  1  0
 30 65  1  0
 31 66  1  0
 31 67  1  0
 32 68  1  0
 32 69  1  0
M  CHG  1  17   1
M  END
>  <UniqueID>  (28) 
27

>  <SMILES>  (28) 
CCN(CC)CCCNc1c2ccccc2[n+](C)c2nc3ccccc3c(N3CCCC3)c12

>  <Energy>  (28) 
107.4941363863597

>  <Genealogy>  (28) 
CCN(CC)CCCNc1c2ccccc2[n+](C)c2nc3ccccc3c(N3CCCC3)c12 (3D coordinates assigned)
CCN(CC)CCCNc1c2ccccc2[n+](C)c2nc3ccccc3c(N3CCCC3)c12 (nonaromatic ring conformer: 107.4941363863597 kcal/mol)

>  <smiles>  (28) 
CCN(CC)CCCNc1c2ccccc2[n+](C)c2nc3ccccc3c(N3CCCC3)c12

>  <score_type>  (28) 
oracle

>  <origin>  (28) 
adg

>  <m_score__min__energy>  (28) 
-6.9500000000000002

>  <m_primary>  (28) 
energy

$$$$
28:0
     RDKit          3D

 45 47  0  0  0  0  0  0  0  0999 V2000
   56.6000   30.1000   42.9170 C   0  0  0  0  0  0  0  0  0  0  0  0
   55.5260   30.0030   43.9940 C   0  0  0  0  0  0  0  0  0  0  0  0
   55.8720   28.9510   44.9560 N   0  0  0  0  0  0  0  0  0  0  0  0
   57.1810   28.3720   44.6280 C   0  0  0  0  0  0  0  0  0  0  0  0
   58.2570   28.8780   45.5950 C   0  0  0  0  0  0  0  0  0  0  0  0
   57.7780   30.0290   46.3660 N   0  0  0  0  0  0  0  0  0  0  0  0
   58.6680   31.0500   46.8560 C   0  0  0  0  0  0  0  0  0  0  0  0
   58.6490   32.3350   46.2840 C   0  0  0  0  0  0  0  0  0  0  0  0
   57.7550   32.6510   45.2350 C   0  0  0  0  0  0  0  0  0  0  0  0
   57.7940   33.8950   44.6140 C   0  0  0  0  0  0  0  0  0  0  0  0
   58.7270   34.8430   45.0130 C   0  0  0  0  0  0  0  0  0  0  0  0
   59.6070   34.5640   46.0580 C   0  0  0  0  0  0  0  0  0  0  0  0
   59.5640   33.3210   46.7430 C   0  0  0  0  0  0  0  0  0  0  0  0
   60.3970   33.0520   47.8130 N   0  0  0  0  0  0  0  0  0  0  0  0
   61.1440   34.1540   48.4620 C   0  0  0  0  0  0  0  0  0  0  0  0
   60.5020   31.7640   48.3050 C   0  0  0  0  0  0  0  0  0  0  0  0
   61.5080   31.4010   49.2330 C   0  0  0  0  0  0  0  0  0  0  0  0
   61.5450   30.1280   49.7980 C   0  0  0  0  0  0  0  0  0  0  0  0
   60.5860   29.1690   49.4600 C   0  0  0  0  0  0  0  0  0  0  0  0
   60.6100   27.8680   50.0750 N   0  0  0  0  0  0  0  0  0  0  0  0
   60.6010   27.7480   51.3180 O   0  0  0  0  0  0  0  0  0  0  0  0
   60.6450   26.7290   49.3020 O   0  0  0  0  0  0  0  0  0  0  0  0
   59.6140   29.4930   48.5010 C   0  0  0  0  0  0  0  0  0  0  0  0
   59.5930   30.7600   47.8790 C   0  0  0  0  0  0  0  0  0  0  0  0
   57.5883   30.1893   43.3917 H   0  0  0  0  0  0  0  0  0  0  0  0
   56.5742   29.1959   42.2910 H   0  0  0  0  0  0  0  0  0  0  0  0
   56.4126   30.9849   42.2910 H   0  0  0  0  0  0  0  0  0  0  0  0
   55.4496   30.9662   44.5197 H   0  0  0  0  0  0  0  0  0  0  0  0
   54.5632   29.7575   43.5220 H   0  0  0  0  0  0  0  0  0  0  0  0
   55.1490   28.2020   44.8790 H   0  0  0  0  0  0  0  0  0  0  0  0
   57.1187   27.2761   44.6990 H   0  0  0  0  0  0  0  0  0  0  0  0
   57.4545   28.6743   43.6063 H   0  0  0  0  0  0  0  0  0  0  0  0
   58.5253   28.0678   46.2890 H   0  0  0  0  0  0  0  0  0  0  0  0
   59.1328   29.1920   45.0082 H   0  0  0  0  0  0  0  0  0  0  0  0
   56.7500   30.2160   46.3730 H   0  0  0  0  0  0  0  0  0  0  0  0
   57.0188   31.9030   44.9056 H   0  0  0  0  0  0  0  0  0  0  0  0
   57.0850   34.1281   43.8059 H   0  0  0  0  0  0  0  0  0  0  0  0
   58.7720   35.8167   44.5033 H   0  0  0  0  0  0  0  0  0  0  0  0
   60.3477   35.3203   46.3570 H   0  0  0  0  0  0  0  0  0  0  0  0
   61.0739   34.0506   49.5549 H   0  0  0  0  0  0  0  0  0  0  0  0
   62.1999   34.1110   48.1566 H   0  0  0  0  0  0  0  0  0  0  0  0
   60.7130   35.1188   48.1566 H   0  0  0  0  0  0  0  0  0  0  0  0
   62.2749   32.1381   49.5132 H   0  0  0  0  0  0  0  0  0  0  0  0
   62.3374   29.8750   50.5178 H   0  0  0  0  0  0  0  0  0  0  0  0
   58.8542   28.7456   48.2289 H   0  0  0  0  0  0  0  0  0  0  0  0
  1  2  1  0
  2  3  1  0
  3  4  1  0
  4  5  1  0
  5  6  1  0
  6  7  1  0
  7  8  2  0
  8  9  1  0
  9 10  2  0
 10 11  1  0
 11 12  2  0
 12 13  1  0
 13 14  2  0
 14 15  1  0
 14 16  1  0
 16 17  2  0
 17 18  1  0
 18 19  2  0
 19 20  1  0
 20 21  2  0
 20 22  1  0
 19 23  1  0
 23 24  2  0
 24  7  1  0
 13  8  1  0
 24 16  1  0
  1 25  1  0
  1 26  1  0
  1 27  1  0
  2 28  1  0
  2 29  1  0
  3 30  1  0
  4 31  1  0
  4 32  1  0
  5 33  1  0
  5 34  1  0
  6 35  1  0
  9 36  1  0
 10 37  1  0
 11 38  1  0
 12 39  1  0
 15 40  1  0
 15 41  1  0
 15 42  1  0
 17 43  1  0
 18 44  1  0
 23 45  1  0
M  CHG  3  14   1  20   1  22  -1
M  END
>  <UniqueID>  (29) 
28

>  <SMILES>  (29) 
CCNCCNc1c2ccccc2[n+](C)c2ccc([N+](=O)[O-])cc12

>  <Energy>  (29) 
68.56822526212217

>  <Genealogy>  (29) 
CCNCCNc1c2ccccc2[n+](C)c2ccc([N+](=O)[O-])cc12 (3D coordinates assigned)
CCNCCNc1c2ccccc2[n+](C)c2ccc([N+](=O)[O-])cc12 (optimized conformer: 68.56822526212217 kcal/mol)

>  <smiles>  (29) 
CCNCCNc1c2ccccc2[n+](C)c2ccc([N+](=O)[O-])cc12

>  <score_type>  (29) 
oracle

>  <origin>  (29) 
adg

>  <m_score__min__energy>  (29) 
-6.04

>  <m_primary>  (29) 
energy

$$$$
29:0
     RDKit          3D

 51 53  0  0  0  0  0  0  0  0999 V2000
   59.0000   24.8250   45.9360 C   0  0  0  0  0  0  0  0  0  0  0  0
   59.9220   26.0140   46.2460 C   0  0  0  0  0  0  0  0  0  0  0  0
   59.2130   27.2120   46.7480 N   0  0  0  0  0  0  0  0  0  0  0  0
   57.7490   27.0790   46.6280 C   0  0  0  0  0  0  0  0  0  0  0  0
   59.6270   27.5850   48.1170 C   0  0  0  0  0  0  0  0  0  0  0  0
   60.4220   28.8940   48.1070 C   0  0  0  0  0  0  0  0  0  0  0  0
   60.4600   29.4610   46.7600 N   0  0  0  0  0  0  0  0  0  0  0  0
   60.3600   30.8800   46.5420 C   0  0  0  0  0  0  0  0  0  0  0  0
   61.3080   31.7310   47.1350 C   0  0  0  0  0  0  0  0  0  0  0  0
   62.4880   31.2140   47.7110 C   0  0  0  0  0  0  0  0  0  0  0  0
   63.4470   32.0680   48.2530 C   0  0  0  0  0  0  0  0  0  0  0  0
   63.2500   33.4430   48.2230 C   0  0  0  0  0  0  0  0  0  0  0  0
   62.0770   33.9720   47.6880 C   0  0  0  0  0  0  0  0  0  0  0  0
   61.0620   33.1250   47.1730 C   0  0  0  0  0  0  0  0  0  0  0  0
   59.8510   33.6220   46.7350 N   0  0  0  0  0  0  0  0  0  0  0  0
   59.4430   34.9970   47.1050 C   0  0  0  0  0  0  0  0  0  0  0  0
   59.0130   32.8290   45.9720 C   0  0  0  0  0  0  0  0  0  0  0  0
   57.8880   33.3750   45.3120 C   0  0  0  0  0  0  0  0  0  0  0  0
   57.0180   32.5760   44.5830 C   0  0  0  0  0  0  0  0  0  0  0  0
   57.2730   31.2160   44.4120 C   0  0  0  0  0  0  0  0  0  0  0  0
   56.3410   30.4040   43.5490 C   0  0  0  0  0  0  0  0  0  0  0  0
   58.4330   30.6460   44.9790 C   0  0  0  0  0  0  0  0  0  0  0  0
   58.8150   29.3180   44.5860 N   0  0  0  0  0  0  0  0  0  0  0  0
   59.2720   31.4350   45.8260 C   0  0  0  0  0  0  0  0  0  0  0  0
   58.6517   24.3758   46.8778 H   0  0  0  0  0  0  0  0  0  0  0  0
   58.1343   25.1743   45.3541 H   0  0  0  0  0  0  0  0  0  0  0  0
   59.5538   24.0735   45.3541 H   0  0  0  0  0  0  0  0  0  0  0  0
   60.6492   25.6979   47.0084 H   0  0  0  0  0  0  0  0  0  0  0  0
   60.3995   26.3015   45.2977 H   0  0  0  0  0  0  0  0  0  0  0  0
   57.3010   27.0383   47.6318 H   0  0  0  0  0  0  0  0  0  0  0  0
   57.3458   27.9442   46.0813 H   0  0  0  0  0  0  0  0  0  0  0  0
   57.5083   26.1553   46.0813 H   0  0  0  0  0  0  0  0  0  0  0  0
   58.7312   27.7118   48.7427 H   0  0  0  0  0  0  0  0  0  0  0  0
   60.2668   26.7869   48.5217 H   0  0  0  0  0  0  0  0  0  0  0  0
   59.9440   29.6128   48.7887 H   0  0  0  0  0  0  0  0  0  0  0  0
   61.4515   28.6869   48.4344 H   0  0  0  0  0  0  0  0  0  0  0  0
   60.6650   28.8320   45.9510 H   0  0  0  0  0  0  0  0  0  0  0  0
   62.6525   30.1266   47.7324 H   0  0  0  0  0  0  0  0  0  0  0  0
   64.3602   31.6532   48.7047 H   0  0  0  0  0  0  0  0  0  0  0  0
   64.0225   34.1163   48.6229 H   0  0  0  0  0  0  0  0  0  0  0  0
   61.9359   35.0627   47.6646 H   0  0  0  0  0  0  0  0  0  0  0  0
   59.4157   35.0890   48.2008 H   0  0  0  0  0  0  0  0  0  0  0  0
   60.1662   35.7171   46.6945 H   0  0  0  0  0  0  0  0  0  0  0  0
   58.4441   35.2061   46.6945 H   0  0  0  0  0  0  0  0  0  0  0  0
   57.6981   34.4565   45.3777 H   0  0  0  0  0  0  0  0  0  0  0  0
   56.1172   33.0209   44.1351 H   0  0  0  0  0  0  0  0  0  0  0  0
   55.6667   29.8165   44.1895 H   0  0  0  0  0  0  0  0  0  0  0  0
   55.7481   31.0787   42.9139 H   0  0  0  0  0  0  0  0  0  0  0  0
   56.9281   29.7243   42.9139 H   0  0  0  0  0  0  0  0  0  0  0  0
   58.9420   28.5530   45.2840 H   0  0  0  0  0  0  0  0  0  0  0  0
   58.8120   29.0400   43.5800 H   0  0  0  0  0  0  0  0  0  0  0  0
  1  2  1  0
  2  3  1  0
  3  4  1  0
  3  5  1  0
  5  6  1  0
  6  7  1  0
  7  8  1  0
  8  9  2  0
  9 10  1  0
 10 11  2  0
 11 12  1  0
 12 13  2  0
 13 14  1  0
 14 15  2  0
 15 16  1  0
 15 17  1  0
 17 18  2  0
 18 19  1  0
 19 20  2  0
 20 21  1  0
 20 22  1  0
 22 23  1  0
 22 24  2  0
 24  8  1  0
 14  9  1  0
 24 17  1  0
  1 25  1  0
  1 26  1  0
  1 27  1  0
  2 28  1  0
  2 29  1  0
  4 30  1  0
  4 31  1  0
  4 32  1  0
  5 33  1  0
  5 34  1  0
  6 35  1  0
  6 36  1  0
  7 37  1  0
 10 38  1  0
 11 39  1  0
 12 40  1  0
 13 41  1  0
 16 42  1  0
 16 43  1  0
 16 44  1  0
 18 45  1  0
 19 46  1  0
 21 47  1  0
 21 48  1  0
 21 49  1  0
 23 50  1  0
 23 51  1  0
M  CHG  1  15   1
M  END
>  <UniqueID>  (30) 
29

>  <SMILES>  (30) 
CCN(C)CCNc1c2ccccc2[n+](C)c2ccc(C)c(N)c12

>  <Energy>  (30) 
87.1820972557903

>  <Genealogy>  (30) 
CCN(C)CCNc1c2ccccc2[n+](C)c2ccc(C)c(N)c12 (3D coordinates assigned)
CCN(C)CCNc1c2ccccc2[n+](C)c2ccc(C)c(N)c12 (optimized conformer: 87.1820972557903 kcal/mol)

>  <smiles>  (30) 
CCN(C)CCNc1c2ccccc2[n+](C)c2ccc(C)c(N)c12

>  <score_type>  (30) 
oracle

>  <origin>  (30) 
adg

>  <m_score__min__energy>  (30) 
-4.9800000000000004

>  <m_primary>  (30) 
energy

$$$$
