0:0
     RDKit          3D

 47 46  0  0  0  0  0  0  0  0999 V2000
   60.0620   34.5960   47.6710 C   0  0  0  0  0  0  0  0  0  0  0  0
   59.4120   34.5210   46.2770 C   0  0  0  0  0  0  0  0  0  0  0  0
   58.4880   33.3630   46.0650 N   0  0  0  0  0  0  0  0  0  0  0  0
   57.3750   33.4070   47.0510 C   0  0  0  0  0  0  0  0  0  0  0  0
   59.2480   32.1090   46.3280 C   0  0  0  0  0  0  0  0  0  0  0  0
   57.8870   33.3400   44.6890 C   0  0  0  0  0  0  0  0  0  0  0  0
   57.6370   31.9440   44.0660 C   0  0  0  0  0  0  0  0  0  0  0  0
   56.6080   31.1880   44.7750 N   0  0  0  0  0  0  0  0  0  0  0  0
   56.2260   29.8520   44.4250 C   0  0  0  0  0  0  0  0  0  0  0  0
   55.1570   29.3590   44.8780 O   0  0  0  0  0  0  0  0  0  0  0  0
   57.1780   28.9790   43.6440 C   0  0  0  0  0  0  0  0  0  0  0  0
   58.0780   28.0840   44.4460 N   0  0  0  0  0  0  0  0  0  0  0  0
   58.1500   26.8040   43.6840 C   0  0  0  0  0  0  0  0  0  0  0  0
   59.4760   28.6370   44.5110 C   0  0  0  0  0  0  0  0  0  0  0  0
   60.1550   28.6310   45.8910 C   0  0  0  0  0  0  0  0  0  0  0  0
   57.4730   27.8140   45.7900 C   0  0  0  0  0  0  0  0  0  0  0  0
   56.9890   26.3700   46.0160 C   0  0  0  0  0  0  0  0  0  0  0  0
   59.2841   34.5062   48.4436 H   0  0  0  0  0  0  0  0  0  0  0  0
   60.7860   33.7754   47.7826 H   0  0  0  0  0  0  0  0  0  0  0  0
   60.5801   35.5599   47.7826 H   0  0  0  0  0  0  0  0  0  0  0  0
   58.8391   35.4466   46.1187 H   0  0  0  0  0  0  0  0  0  0  0  0
   60.2376   34.3868   45.5626 H   0  0  0  0  0  0  0  0  0  0  0  0
   57.7875   33.3907   48.0706 H   0  0  0  0  0  0  0  0  0  0  0  0
   56.7927   34.3289   46.9058 H   0  0  0  0  0  0  0  0  0  0  0  0
   56.7217   32.5340   46.9058 H   0  0  0  0  0  0  0  0  0  0  0  0
   59.3402   31.9569   47.4135 H   0  0  0  0  0  0  0  0  0  0  0  0
   58.7144   31.2566   45.8823 H   0  0  0  0  0  0  0  0  0  0  0  0
   60.2506   32.1876   45.8823 H   0  0  0  0  0  0  0  0  0  0  0  0
   56.9199   33.8618   44.7382 H   0  0  0  0  0  0  0  0  0  0  0  0
   58.6329   33.8194   44.0380 H   0  0  0  0  0  0  0  0  0  0  0  0
   57.3197   32.0763   43.0211 H   0  0  0  0  0  0  0  0  0  0  0  0
   58.5759   31.3751   44.1363 H   0  0  0  0  0  0  0  0  0  0  0  0
   56.5772   28.3402   42.9799 H   0  0  0  0  0  0  0  0  0  0  0  0
   57.8505   29.6759   43.1224 H   0  0  0  0  0  0  0  0  0  0  0  0
   58.1975   25.9603   44.3882 H   0  0  0  0  0  0  0  0  0  0  0  0
   57.2561   26.7034   43.0509 H   0  0  0  0  0  0  0  0  0  0  0  0
   59.0496   26.8043   43.0509 H   0  0  0  0  0  0  0  0  0  0  0  0
   60.1019   28.0434   43.8284 H   0  0  0  0  0  0  0  0  0  0  0  0
   59.3811   29.6986   44.2389 H   0  0  0  0  0  0  0  0  0  0  0  0
   59.3864   28.6378   46.6779 H   0  0  0  0  0  0  0  0  0  0  0  0
   60.7742   27.7274   45.9911 H   0  0  0  0  0  0  0  0  0  0  0  0
   60.7901   29.5236   45.9911 H   0  0  0  0  0  0  0  0  0  0  0  0
   58.2295   28.0425   46.5552 H   0  0  0  0  0  0  0  0  0  0  0  0
   56.5766   28.4484   45.8529 H   0  0  0  0  0  0  0  0  0  0  0  0
   56.9221   26.1705   47.0957 H   0  0  0  0  0  0  0  0  0  0  0  0
   55.9980   26.2394   45.5569 H   0  0  0  0  0  0  0  0  0  0  0  0
   57.7011   25.6685   45.5569 H   0  0  0  0  0  0  0  0  0  0  0  0
  1  2  1  0
  2  3  1  0
  3  4  1  0
  3  5  1  0
  3  6  1  0
  6  7  1  0
  7  8  1  0
  8  9  1  0
  9 10  2  0
  9 11  1  0
 11 12  1  0
 12 13  1  0
 12 14  1  0
 14 15  1  0
 12 16  1  0
 16 17  1  0
  1 18  1  0
  1 19  1  0
  1 20  1  0
  2 21  1  0
  2 22  1  0
  4 23  1  0
  4 24  1  0
  4 25  1  0
  5 26  1  0
  5 27  1  0
  5 28  1  0
  6 29  1  0
  6 30  1  0
  7 31  1  0
  7 32  1  0
 11 33  1  0
 11 34  1  0
 13 35  1  0
 13 36  1  0
 13 37  1  0
 14 38  1  0
 14 39  1  0
 15 40  1  0
 15 41  1  0
 15 42  1  0
 16 43  1  0
 16 44  1  0
 17 45  1  0
 17 46  1  0
 17 47  1  0
M  CHG  3   3   1   8  -1  12   1
M  END
>  <UniqueID>  (1) 
1

>  <SMILES>  (1) 
CC[N+](C)(C)CC[N-]C(=O)C[N+](C)(CC)CC

>  <Energy>  (1) 
65.80848220578328

>  <Genealogy>  (1) 
CC[N+](C)(C)CC[N-]C(=O)C[N+](C)(CC)CC (protonated)
CC[N+](C)(C)CC[N-]C(=O)C[N+](C)(CC)CC (3D coordinates assigned)
CC[N+](C)(C)CC[N-]C(=O)C[N+](C)(CC)CC (optimized conformer: 65.80848220578328 kcal/mol)

>  <smiles>  (1) 
CC[N+](C)(C)CCNC(=O)C[N+](C)(CC)CC

>  <score_type>  (1) 
oracle

>  <origin>  (1) 
adg

>  <m_score__min__energy>  (1) 
-3.8999999999999999

>  <m_primary>  (1) 
energy

$$$$
1:0
     RDKit          3D

 86 86  0  0  0  0  0  0  0  0999 V2000
   56.6850   22.2730   43.1200 C   0  0  0  0  0  0  0  0  0  0  0  0
   56.2650   23.7170   43.3840 C   0  0  0  0  0  0  0  0  0  0  0  0
   57.2290   24.4020   44.3650 C   0  0  0  0  0  0  0  0  0  0  0  0
   56.5000   25.2000   45.4570 C   0  0  0  0  0  0  0  0  0  0  0  0
   57.2260   26.5050   45.8200 C   0  0  0  0  0  0  0  0  0  0  0  0
   58.4250   26.7420   44.8960 C   0  0  0  0  0  0  0  0  0  0  0  0
   58.1070   27.8110   43.8440 C   0  0  0  0  0  0  0  0  0  0  0  0
   57.0570   28.8010   44.3650 C   0  0  0  0  0  0  0  0  0  0  0  0
   56.6100   29.7700   43.2600 C   0  0  0  0  0  0  0  0  0  0  0  0
   57.0540   31.2070   43.5800 C   0  0  0  0  0  0  0  0  0  0  0  0
   56.6610   31.6390   44.8730 O   0  0  0  0  0  0  0  0  0  0  0  0
   57.1580   32.9260   45.2060 C   0  0  0  0  0  0  0  0  0  0  0  0
   58.0710   32.9340   46.4520 C   0  0  0  0  0  0  0  0  0  0  0  0
   58.4840   31.5050   46.8540 C   0  0  0  0  0  0  0  0  0  0  0  0
   59.8860   31.1230   46.3610 C   0  0  0  0  0  0  0  0  0  0  0  0
   60.0000   29.6230   46.0240 C   0  0  0  0  0  0  0  0  0  0  0  0
   60.2080   28.7680   47.2770 C   0  0  0  0  0  0  0  0  0  0  0  0
   60.2430   29.5820   48.4380 O   0  0  0  0  0  0  0  0  0  0  0  0
   59.2950   29.1550   49.4020 C   0  0  0  0  0  0  0  0  0  0  0  0
   59.0430   30.2370   50.4550 C   0  0  2  0  0  0  0  0  0  0  0  0
   57.7830   30.0450   51.0500 O   0  0  0  0  0  0  0  0  0  0  0  0
   57.2930   31.3290   51.2930 C   0  0  0  0  0  0  0  0  0  0  0  0
   58.1910   32.2910   50.5390 C   0  0  1  0  0  0  0  0  0  0  0  0
   58.9300   33.2680   51.4710 C   0  0  0  0  0  0  0  0  0  0  0  0
   60.5300   33.8200   50.7690 S   0  0  0  0  0  0  0  0  0  0  0  0
   59.9620   34.2370   49.0750 C   0  0  0  0  0  0  0  0  0  0  0  0
   60.9610   33.8120   47.9850 C   0  0  0  0  0  0  0  0  0  0  0  0
   62.1530   32.9680   48.4800 C   0  0  0  0  0  0  0  0  0  0  0  0
   61.7490   31.6120   48.8940 N   0  0  0  0  0  0  0  0  0  0  0  0
   62.5620   31.1200   50.0240 C   0  0  0  0  0  0  0  0  0  0  0  0
   63.8900   31.8700   50.1580 C   0  0  0  0  0  0  0  0  0  0  0  0
   59.1070   31.5000   49.8420 O   0  0  0  0  0  0  0  0  0  0  0  0
   56.8359   21.7540   44.0781 H   0  0  0  0  0  0  0  0  0  0  0  0
   55.8984   21.7615   42.5459 H   0  0  0  0  0  0  0  0  0  0  0  0
   57.6232   22.2632   42.5459 H   0  0  0  0  0  0  0  0  0  0  0  0
   56.2656   24.2710   42.4337 H   0  0  0  0  0  0  0  0  0  0  0  0
   55.2586   23.7129   43.8280 H   0  0  0  0  0  0  0  0  0  0  0  0
   57.8470   23.6302   44.8471 H   0  0  0  0  0  0  0  0  0  0  0  0
   57.8395   25.1120   43.7879 H   0  0  0  0  0  0  0  0  0  0  0  0
   55.4900   25.4469   45.0979 H   0  0  0  0  0  0  0  0  0  0  0  0
   56.4676   24.5743   46.3612 H   0  0  0  0  0  0  0  0  0  0  0  0
   56.5242   27.3463   45.7216 H   0  0  0  0  0  0  0  0  0  0  0  0
   57.5912   26.4266   46.8546 H   0  0  0  0  0  0  0  0  0  0  0  0
   59.2830   27.0748   45.4986 H   0  0  0  0  0  0  0  0  0  0  0  0
   58.6590   25.8002   44.3781 H   0  0  0  0  0  0  0  0  0  0  0  0
   59.0283   28.3598   43.5991 H   0  0  0  0  0  0  0  0  0  0  0  0
   57.7052   27.3131   42.9492 H   0  0  0  0  0  0  0  0  0  0  0  0
   56.1823   28.2396   44.7253 H   0  0  0  0  0  0  0  0  0  0  0  0
   57.5054   29.3866   45.1811 H   0  0  0  0  0  0  0  0  0  0  0  0
   57.0578   29.4587   42.3047 H   0  0  0  0  0  0  0  0  0  0  0  0
   55.5122   29.7470   43.1944 H   0  0  0  0  0  0  0  0  0  0  0  0
   58.1508   31.2570   43.5131 H   0  0  0  0  0  0  0  0  0  0  0  0
   56.5647   31.8700   42.8513 H   0  0  0  0  0  0  0  0  0  0  0  0
   57.7342   33.3082   44.3504 H   0  0  0  0  0  0  0  0  0  0  0  0
   56.2878   33.5567   45.4402 H   0  0  0  0  0  0  0  0  0  0  0  0
   58.9756   33.5190   46.2294 H   0  0  0  0  0  0  0  0  0  0  0  0
   57.5132   33.3817   47.2877 H   0  0  0  0  0  0  0  0  0  0  0  0
   58.4665   31.4311   47.9514 H   0  0  0  0  0  0  0  0  0  0  0  0
   57.7706   30.8125   46.3834 H   0  0  0  0  0  0  0  0  0  0  0  0
   60.1142   31.7068   45.4571 H   0  0  0  0  0  0  0  0  0  0  0  0
   60.5980   31.3407   47.1707 H   0  0  0  0  0  0  0  0  0  0  0  0
   59.0753   29.3002   45.5232 H   0  0  0  0  0  0  0  0  0  0  0  0
   60.8745   29.4870   45.3707 H   0  0  0  0  0  0  0  0  0  0  0  0
   59.3805   28.0486   47.3650 H   0  0  0  0  0  0  0  0  0  0  0  0
   61.1671   28.2367   47.1880 H   0  0  0  0  0  0  0  0  0  0  0  0
   58.3475   28.9227   48.8937 H   0  0  0  0  0  0  0  0  0  0  0  0
   59.6944   28.2645   49.9094 H   0  0  0  0  0  0  0  0  0  0  0  0
   59.8109   30.1750   51.2402 H   0  0  0  0  0  0  0  0  0  0  0  0
   56.2579   31.4142   50.9305 H   0  0  0  0  0  0  0  0  0  0  0  0
   57.2906   31.5532   52.3699 H   0  0  0  0  0  0  0  0  0  0  0  0
   57.5868   32.9197   49.8685 H   0  0  0  0  0  0  0  0  0  0  0  0
   58.2931   34.1495   51.6367 H   0  0  0  0  0  0  0  0  0  0  0  0
   59.1392   32.7416   52.4139 H   0  0  0  0  0  0  0  0  0  0  0  0
   59.0045   33.7277   48.8909 H   0  0  0  0  0  0  0  0  0  0  0  0
   59.8618   35.3311   49.0213 H   0  0  0  0  0  0  0  0  0  0  0  0
   60.4149   33.2221   47.2341 H   0  0  0  0  0  0  0  0  0  0  0  0
   61.3907   34.7423   47.5852 H   0  0  0  0  0  0  0  0  0  0  0  0
   62.8885   32.8843   47.6663 H   0  0  0  0  0  0  0  0  0  0  0  0
   62.5794   33.4736   49.3590 H   0  0  0  0  0  0  0  0  0  0  0  0
   61.8930   30.9560   48.0880 H   0  0  0  0  0  0  0  0  0  0  0  0
   60.7320   31.5990   49.1470 H   0  0  0  0  0  0  0  0  0  0  0  0
   61.9886   31.2482   50.9539 H   0  0  0  0  0  0  0  0  0  0  0  0
   62.7925   30.0611   49.8352 H   0  0  0  0  0  0  0  0  0  0  0  0
   64.1290   32.0050   51.2232 H   0  0  0  0  0  0  0  0  0  0  0  0
   64.6892   31.2899   49.6735 H   0  0  0  0  0  0  0  0  0  0  0  0
   63.8059   32.8540   49.6735 H   0  0  0  0  0  0  0  0  0  0  0  0
  1  2  1  0
  2  3  1  0
  3  4  1  0
  4  5  1  0
  5  6  1  0
  6  7  1  0
  7  8  1  0
  8  9  1  0
  9 10  1  0
 10 11  1  0
 11 12  1  0
 12 13  1  0
 13 14  1  0
 14 15  1  0
 15 16  1  0
 16 17  1  0
 17 18  1  0
 18 19  1  0
 19 20  1  0
 20 21  1  0
 21 22  1  0
 22 23  1  0
 23 24  1  0
 24 25  1  0
 25 26  1  0
 26 27  1  0
 27 28  1  0
 28 29  1  0
 29 30  1  0
 30 31  1  0
 23 32  1  0
 32 20  1  0
  1 33  1  0
  1 34  1  0
  1 35  1  0
  2 36  1  0
  2 37  1  0
  3 38  1  0
  3 39  1  0
  4 40  1  0
  4 41  1  0
  5 42  1  0
  5 43  1  0
  6 44  1  0
  6 45  1  0
  7 46  1  0
  7 47  1  0
  8 48  1  0
  8 49  1  0
  9 50  1  0
  9 51  1  0
 10 52  1  0
 10 53  1  0
 12 54  1  0
 12 55  1  0
 13 56  1  0
 13 57  1  0
 14 58  1  0
 14 59  1  0
 15 60  1  0
 15 61  1  0
 16 62  1  0
 16 63  1  0
 17 64  1  0
 17 65  1  0
 19 66  1  0
 19 67  1  0
 20 68  1  1
 22 69  1  0
 22 70  1  0
 23 71  1  6
 24 72  1  0
 24 73  1  0
 26 74  1  0
 26 75  1  0
 27 76  1  0
 27 77  1  0
 28 78  1  0
 28 79  1  0
 29 80  1  0
 29 81  1  0
 30 82  1  0
 30 83  1  0
 31 84  1  0
 31 85  1  0
 31 86  1  0
M  CHG  1  29   1
M  END
>  <UniqueID>  (2) 
2

>  <SMILES>  (2) 
CCCCCCCCCCOCCCCCCOC[C@@H]1OC[C@@H](CSCCC[NH2+]CC)O1

>  <Energy>  (2) 
55.53746943871619

>  <Genealogy>  (2) 
CCCCCCCCCCOCCCCCCOCC1OCC(CSCCC[NH2+]CC)O1 (protonated)
CCCCCCCCCCOCCCCCCOC[C@@H]1OC[C@@H](CSCCC[NH2+]CC)O1 (chirality)
CCCCCCCCCCOCCCCCCOC[C@@H]1OC[C@@H](CSCCC[NH2+]CC)O1 (3D coordinates assigned)
CCCCCCCCCCOCCCCCCOC[C@@H]1OC[C@@H](CSCCC[NH2+]CC)O1 (nonaromatic ring conformer: 55.53746943871619 kcal/mol)

>  <smiles>  (2) 
CCCCCCCCCCOCCCCCCOCC1OCC(CSCCCNCC)O1

>  <score_type>  (2) 
oracle

>  <origin>  (2) 
adg

>  <m_score__min__energy>  (2) 
-4.9400000000000004

>  <m_primary>  (2) 
energy

$$$$
2:0
     RDKit          3D

 78 81  0  0  0  0  0  0  0  0999 V2000
   57.4030   25.1240   44.4070 C   0  0  0  0  0  0  0  0  0  0  0  0
   57.8920   25.5120   45.7430 N   0  0  0  0  0  0  0  0  0  0  0  0
   56.9540   26.4700   46.3490 C   0  0  0  0  0  0  0  0  0  0  0  0
   59.2450   26.1060   45.6670 C   0  0  0  0  0  0  0  0  0  0  0  0
   59.8440   26.3550   47.0610 C   0  0  0  0  0  0  0  0  0  0  0  0
   60.0350   27.8470   47.3470 C   0  0  0  0  0  0  0  0  0  0  0  0
   60.3580   28.5770   46.1220 N   0  0  0  0  0  0  0  0  0  0  0  0
   59.7820   29.8710   45.8800 C   0  0  0  0  0  0  0  0  0  0  0  0
   58.6980   29.9860   44.9990 C   0  0  0  0  0  0  0  0  0  0  0  0
   58.1900   28.8620   44.3130 C   0  0  0  0  0  0  0  0  0  0  0  0
   57.0710   28.9790   43.4910 C   0  0  0  0  0  0  0  0  0  0  0  0
   56.4390   30.2090   43.3490 C   0  0  0  0  0  0  0  0  0  0  0  0
   56.9430   31.3360   44.0000 C   0  0  0  0  0  0  0  0  0  0  0  0
   58.1070   31.2540   44.8060 C   0  0  0  0  0  0  0  0  0  0  0  0
   58.6600   32.3640   45.4090 N   0  0  0  0  0  0  0  0  0  0  0  0
   58.2430   33.7220   44.9860 C   0  0  0  0  0  0  0  0  0  0  0  0
   59.6350   32.2030   46.3770 C   0  0  0  0  0  0  0  0  0  0  0  0
   60.0280   33.2860   47.2030 C   0  0  0  0  0  0  0  0  0  0  0  0
   61.0750   33.1390   48.1200 C   0  0  0  0  0  0  0  0  0  0  0  0
   61.5210   34.1940   48.9290 O   0  0  0  0  0  0  0  0  0  0  0  0
   62.8830   34.4220   49.2920 C   0  0  0  0  0  0  0  0  0  0  0  0
   63.1130   34.0410   50.7710 C   0  0  0  0  0  0  0  0  0  0  0  0
   64.2880   33.1470   51.0440 N   0  0  0  0  0  0  0  0  0  0  0  0
   63.7170   31.8080   51.3690 C   0  0  0  0  0  0  0  0  0  0  0  0
   65.1410   33.0180   49.8220 C   0  0  0  0  0  0  0  0  0  0  0  0
   66.5060   32.3690   50.1220 C   0  0  0  0  0  0  0  0  0  0  0  0
   67.3080   33.1210   51.1470 N   0  0  0  0  0  0  0  0  0  0  0  0
   67.8990   32.1630   52.1140 C   0  0  0  0  0  0  0  0  0  0  0  0
   68.4250   33.8350   50.4750 C   0  0  0  0  0  0  0  0  0  0  0  0
   66.4920   34.1340   51.8840 C   0  0  0  0  0  0  0  0  0  0  0  0
   65.0750   33.6280   52.2350 C   0  0  0  0  0  0  0  0  0  0  0  0
   61.7220   31.9160   48.2090 C   0  0  0  0  0  0  0  0  0  0  0  0
   61.2810   30.8400   47.4470 C   0  0  0  0  0  0  0  0  0  0  0  0
   60.2320   30.9700   46.5670 N   0  0  0  0  0  0  0  0  0  0  0  0
   56.5454   24.4435   44.5138 H   0  0  0  0  0  0  0  0  0  0  0  0
   57.0912   26.0231   43.8553 H   0  0  0  0  0  0  0  0  0  0  0  0
   58.2077   24.6160   43.8553 H   0  0  0  0  0  0  0  0  0  0  0  0
   57.0191   26.4035   47.4451 H   0  0  0  0  0  0  0  0  0  0  0  0
   57.2126   27.4897   46.0275 H   0  0  0  0  0  0  0  0  0  0  0  0
   55.9291   26.2330   46.0275 H   0  0  0  0  0  0  0  0  0  0  0  0
   59.9037   25.4195   45.1149 H   0  0  0  0  0  0  0  0  0  0  0  0
   59.1619   27.0759   45.1548 H   0  0  0  0  0  0  0  0  0  0  0  0
   59.1676   25.9323   47.8185 H   0  0  0  0  0  0  0  0  0  0  0  0
   60.8326   25.8738   47.0961 H   0  0  0  0  0  0  0  0  0  0  0  0
   59.1063   28.2534   47.7739 H   0  0  0  0  0  0  0  0  0  0  0  0
   60.8680   27.9647   48.0557 H   0  0  0  0  0  0  0  0  0  0  0  0
   61.0690   28.2130   45.4480 H   0  0  0  0  0  0  0  0  0  0  0  0
   58.6819   27.8849   44.4283 H   0  0  0  0  0  0  0  0  0  0  0  0
   56.6878   28.0984   42.9546 H   0  0  0  0  0  0  0  0  0  0  0  0
   55.5393   30.2943   42.7219 H   0  0  0  0  0  0  0  0  0  0  0  0
   56.4297   32.3022   43.8862 H   0  0  0  0  0  0  0  0  0  0  0  0
   58.0530   34.3409   45.8753 H   0  0  0  0  0  0  0  0  0  0  0  0
   59.0419   34.1801   44.3844 H   0  0  0  0  0  0  0  0  0  0  0  0
   57.3247   33.6528   44.3844 H   0  0  0  0  0  0  0  0  0  0  0  0
   59.5053   34.2505   47.1225 H   0  0  0  0  0  0  0  0  0  0  0  0
   63.5364   33.8095   48.6534 H   0  0  0  0  0  0  0  0  0  0  0  0
   63.1165   35.4883   49.1561 H   0  0  0  0  0  0  0  0  0  0  0  0
   63.2583   34.9713   51.3398 H   0  0  0  0  0  0  0  0  0  0  0  0
   62.2253   33.4648   51.0709 H   0  0  0  0  0  0  0  0  0  0  0  0
   63.6653   31.6867   52.4611 H   0  0  0  0  0  0  0  0  0  0  0  0
   62.7061   31.7272   50.9428 H   0  0  0  0  0  0  0  0  0  0  0  0
   64.3585   31.0226   50.9428 H   0  0  0  0  0  0  0  0  0  0  0  0
   64.6099   32.3981   49.0847 H   0  0  0  0  0  0  0  0  0  0  0  0
   65.3296   34.0311   49.4371 H   0  0  0  0  0  0  0  0  0  0  0  0
   66.3334   31.3482   50.4937 H   0  0  0  0  0  0  0  0  0  0  0  0
   67.0837   32.3764   49.1859 H   0  0  0  0  0  0  0  0  0  0  0  0
   67.6902   32.5015   53.1396 H   0  0  0  0  0  0  0  0  0  0  0  0
   67.4581   31.1671   51.9596 H   0  0  0  0  0  0  0  0  0  0  0  0
   68.9868   32.1103   51.9596 H   0  0  0  0  0  0  0  0  0  0  0  0
   69.0956   34.2637   51.2343 H   0  0  0  0  0  0  0  0  0  0  0  0
   68.9867   33.1281   49.8467 H   0  0  0  0  0  0  0  0  0  0  0  0
   68.0193   34.6416   49.8467 H   0  0  0  0  0  0  0  0  0  0  0  0
   67.0133   34.3921   52.8176 H   0  0  0  0  0  0  0  0  0  0  0  0
   66.3758   35.0063   51.2240 H   0  0  0  0  0  0  0  0  0  0  0  0
   65.1709   32.7947   52.9466 H   0  0  0  0  0  0  0  0  0  0  0  0
   64.5257   34.4822   52.6577 H   0  0  0  0  0  0  0  0  0  0  0  0
   62.5838   31.7971   48.8822 H   0  0  0  0  0  0  0  0  0  0  0  0
   61.7809   29.8656   47.5499 H   0  0  0  0  0  0  0  0  0  0  0  0
  1  2  1  0
  2  3  1  0
  2  4  1  0
  4  5  1  0
  5  6  1  0
  6  7  1  0
  7  8  1  0
  8  9  2  0
  9 10  1  0
 10 11  2  0
 11 12  1  0
 12 13  2  0
 13 14  1  0
 14 15  2  0
 15 16  1  0
 15 17  1  0
 17 18  2  0
 18 19  1  0
 19 20  1  0
 20 21  1  0
 21 22  1  0
 22 23  1  0
 23 24  1  0
 23 25  1  0
 25 26  1  0
 26 27  1  0
 27 28  1  0
 27 29  1  0
 27 30  1  0
 30 31  1  0
 19 32  2  0
 32 33  1  0
 33 34  2  0
 34  8  1  0
 14  9  1  0
 34 17  1  0
 31 23  1  0
  1 35  1  0
  1 36  1  0
  1 37  1  0
  3 38  1  0
  3 39  1  0
  3 40  1  0
  4 41  1  0
  4 42  1  0
  5 43  1  0
  5 44  1  0
  6 45  1  0
  6 46  1  0
  7 47  1  0
 10 48  1  0
 11 49  1  0
 12 50  1  0
 13 51  1  0
 16 52  1  0
 16 53  1  0
 16 54  1  0
 18 55  1  0
 21 56  1  0
 21 57  1  0
 22 58  1  0
 22 59  1  0
 24 60  1  0
 24 61  1  0
 24 62  1  0
 25 63  1  0
 25 64  1  0
 26 65  1  0
 26 66  1  0
 28 67  1  0
 28 68  1  0
 28 69  1  0
 29 70  1  0
 29 71  1  0
 29 72  1  0
 30 73  1  0
 30 74  1  0
 31 75  1  0
 31 76  1  0
 32 77  1  0
 33 78  1  0
M  CHG  4  15   1  23   1  27   1  34   1
M  END
>  <UniqueID>  (3) 
3

>  <SMILES>  (3) 
CN(C)CCCNc1c2ccccc2[n+](C)c2cc(OCC[N+]3(C)CC[N+](C)(C)CC3)cc[n+]12

>  <Energy>  (3) 
135.26560579698233

>  <Genealogy>  (3) 
CN(C)CCCNc1c2ccccc2[n+](C)c2cc(OCC[N+]3(C)CC[N+](C)(C)CC3)cc[n+]12 (3D coordinates assigned)
CN(C)CCCNc1c2ccccc2[n+](C)c2cc(OCC[N+]3(C)CC[N+](C)(C)CC3)cc[n+]12 (nonaromatic ring conformer: 135.26560579698233 kcal/mol)

>  <smiles>  (3) 
CN(C)CCCNc1c2ccccc2[n+](C)c2cc(OCC[N+]3(C)CC[N+](C)(C)CC3)cc[n+]12

>  <score_type>  (3) 
oracle

>  <origin>  (3) 
adg

>  <m_score__min__energy>  (3) 
-2.4700000000000002

>  <m_primary>  (3) 
energy

$$$$
3:0
     RDKit          3D

 66 68  0  0  0  0  0  0  0  0999 V2000
   63.0270   34.4600   50.4820 C   0  0  0  0  0  0  0  0  0  0  0  0
   63.3500   33.0610   49.9350 C   0  0  0  0  0  0  0  0  0  0  0  0
   62.7020   32.7450   48.6360 N   0  0  2  0  0  0  0  0  0  0  0  0
   62.6120   31.2860   48.4160 C   0  0  0  0  0  0  0  0  0  0  0  0
   63.3690   33.4370   47.5040 C   0  0  0  0  0  0  0  0  0  0  0  0
   62.3800   33.8150   46.3820 C   0  0  0  0  0  0  0  0  0  0  0  0
   61.0560   33.4840   46.7550 O   0  0  0  0  0  0  0  0  0  0  0  0
   60.2700   34.6400   47.0020 C   0  0  0  0  0  0  0  0  0  0  0  0
   59.7550   34.5990   48.4360 C   0  0  0  0  0  0  0  0  0  0  0  0
   60.1300   33.3820   49.0360 O   0  0  0  0  0  0  0  0  0  0  0  0
   59.3370   33.2270   50.1340 N   0  0  0  0  0  0  0  0  0  0  0  0
   60.1760   32.6840   51.2080 C   0  0  0  0  0  0  0  0  0  0  0  0
   58.2750   32.2650   49.7950 C   0  0  0  0  0  0  0  0  0  0  0  0
   58.8800   30.9660   49.2490 C   0  0  0  0  0  0  0  0  0  0  0  0
   59.5530   31.2010   47.9720 N   0  0  0  0  0  0  0  0  0  0  0  0
   59.2560   30.4110   46.8060 C   0  0  0  0  0  0  0  0  0  0  0  0
   59.5660   29.0400   46.7740 C   0  0  0  0  0  0  0  0  0  0  0  0
   60.3020   28.4400   47.8170 C   0  0  0  0  0  0  0  0  0  0  0  0
   60.6220   27.0860   47.7750 C   0  0  0  0  0  0  0  0  0  0  0  0
   60.2470   26.3160   46.6810 C   0  0  0  0  0  0  0  0  0  0  0  0
   59.5380   26.8910   45.6280 C   0  0  0  0  0  0  0  0  0  0  0  0
   59.1590   28.2580   45.6600 C   0  0  0  0  0  0  0  0  0  0  0  0
   58.4280   28.8360   44.6360 N   0  0  0  0  0  0  0  0  0  0  0  0
   57.7690   27.9810   43.6220 C   0  0  0  0  0  0  0  0  0  0  0  0
   58.3010   30.2100   44.5690 C   0  0  0  0  0  0  0  0  0  0  0  0
   57.8010   30.8620   43.4110 C   0  0  0  0  0  0  0  0  0  0  0  0
   57.6210   32.2440   43.3840 C   0  0  0  0  0  0  0  0  0  0  0  0
   57.9440   33.0150   44.4940 C   0  0  0  0  0  0  0  0  0  0  0  0
   58.4770   32.4110   45.6310 C   0  0  0  0  0  0  0  0  0  0  0  0
   58.6820   31.0160   45.6760 C   0  0  0  0  0  0  0  0  0  0  0  0
   63.0330   34.4341   51.5817 H   0  0  0  0  0  0  0  0  0  0  0  0
   63.7835   35.1758   50.1280 H   0  0  0  0  0  0  0  0  0  0  0  0
   62.0333   34.7717   50.1280 H   0  0  0  0  0  0  0  0  0  0  0  0
   64.4395   32.9863   49.8031 H   0  0  0  0  0  0  0  0  0  0  0  0
   62.9560   32.3396   50.6660 H   0  0  0  0  0  0  0  0  0  0  0  0
   61.7200   33.1060   48.7090 H   0  0  0  0  0  0  0  0  0  0  0  0
   62.5802   30.7701   49.3870 H   0  0  0  0  0  0  0  0  0  0  0  0
   61.6980   31.0564   47.8487 H   0  0  0  0  0  0  0  0  0  0  0  0
   63.4909   30.9458   47.8487 H   0  0  0  0  0  0  0  0  0  0  0  0
   63.8434   34.3550   47.8811 H   0  0  0  0  0  0  0  0  0  0  0  0
   64.1114   32.7458   47.0784 H   0  0  0  0  0  0  0  0  0  0  0  0
   62.4430   34.8969   46.1934 H   0  0  0  0  0  0  0  0  0  0  0  0
   62.6435   33.2551   45.4726 H   0  0  0  0  0  0  0  0  0  0  0  0
   60.8848   35.5406   46.8575 H   0  0  0  0  0  0  0  0  0  0  0  0
   59.4197   34.6647   46.3046 H   0  0  0  0  0  0  0  0  0  0  0  0
   60.1866   35.4361   49.0044 H   0  0  0  0  0  0  0  0  0  0  0  0
   58.6582   34.6834   48.4336 H   0  0  0  0  0  0  0  0  0  0  0  0
   59.7483   32.9608   52.1829 H   0  0  0  0  0  0  0  0  0  0  0  0
   60.2164   31.5880   51.1232 H   0  0  0  0  0  0  0  0  0  0  0  0
   61.1924   33.0960   51.1232 H   0  0  0  0  0  0  0  0  0  0  0  0
   57.6892   32.0396   50.6983 H   0  0  0  0  0  0  0  0  0  0  0  0
   57.6278   32.7074   49.0233 H   0  0  0  0  0  0  0  0  0  0  0  0
   59.6092   30.5755   49.9741 H   0  0  0  0  0  0  0  0  0  0  0  0
   58.0693   30.2396   49.0909 H   0  0  0  0  0  0  0  0  0  0  0  0
   60.2110   32.0080   47.8830 H   0  0  0  0  0  0  0  0  0  0  0  0
   60.6268   29.0491   48.6734 H   0  0  0  0  0  0  0  0  0  0  0  0
   61.1722   26.6252   48.6086 H   0  0  0  0  0  0  0  0  0  0  0  0
   60.5107   25.2487   46.6459 H   0  0  0  0  0  0  0  0  0  0  0  0
   59.2677   26.2750   44.7577 H   0  0  0  0  0  0  0  0  0  0  0  0
   57.1724   27.2069   44.1269 H   0  0  0  0  0  0  0  0  0  0  0  0
   57.1112   28.5988   42.9930 H   0  0  0  0  0  0  0  0  0  0  0  0
   58.5339   27.5022   42.9930 H   0  0  0  0  0  0  0  0  0  0  0  0
   57.5515   30.2666   42.5203 H   0  0  0  0  0  0  0  0  0  0  0  0
   57.2214   32.7265   42.4798 H   0  0  0  0  0  0  0  0  0  0  0  0
   57.7789   34.1024   44.4751 H   0  0  0  0  0  0  0  0  0  0  0  0
   58.7406   33.0283   46.5025 H   0  0  0  0  0  0  0  0  0  0  0  0
  1  2  1  0
  2  3  1  0
  3  4  1  0
  3  5  1  0
  5  6  1  0
  6  7  1  0
  7  8  1  0
  8  9  1  0
  9 10  1  0
 10 11  1  0
 11 12  1  0
 11 13  1  0
 13 14  1  0
 14 15  1  0
 15 16  1  0
 16 17  2  0
 17 18  1  0
 18 19  2  0
 19 20  1  0
 20 21  2  0
 21 22  1  0
 22 23  2  0
 23 24  1  0
 23 25  1  0
 25 26  2  0
 26 27  1  0
 27 28  2  0
 28 29  1  0
 29 30  2  0
 30 16  1  0
 22 17  1  0
 30 25  1  0
  1 31  1  0
  1 32  1  0
  1 33  1  0
  2 34  1  0
  2 35  1  0
  3 36  1  1
  4 37  1  0
  4 38  1  0
  4 39  1  0
  5 40  1  0
  5 41  1  0
  6 42  1  0
  6 43  1  0
  8 44  1  0
  8 45  1  0
  9 46  1  0
  9 47  1  0
 12 48  1  0
 12 49  1  0
 12 50  1  0
 13 51  1  0
 13 52  1  0
 14 53  1  0
 14 54  1  0
 15 55  1  0
 18 56  1  0
 19 57  1  0
 20 58  1  0
 21 59  1  0
 24 60  1  0
 24 61  1  0
 24 62  1  0
 26 63  1  0
 27 64  1  0
 28 65  1  0
 29 66  1  0
M  CHG  2   3   1  23   1
M  END
>  <UniqueID>  (4) 
4

>  <SMILES>  (4) 
CC[N@H+](C)CCOCCON(C)CCNc1c2ccccc2[n+](C)c2ccccc12

>  <Energy>  (4) 
86.46291955721424

>  <Genealogy>  (4) 
CC[NH+](C)CCOCCON(C)CCNc1c2ccccc2[n+](C)c2ccccc12 (protonated)
CC[N@H+](C)CCOCCON(C)CCNc1c2ccccc2[n+](C)c2ccccc12 (chirality)
CC[N@H+](C)CCOCCON(C)CCNc1c2ccccc2[n+](C)c2ccccc12 (3D coordinates assigned)
CC[N@H+](C)CCOCCON(C)CCNc1c2ccccc2[n+](C)c2ccccc12 (optimized conformer: 86.46291955721424 kcal/mol)

>  <smiles>  (4) 
CCN(C)CCOCCON(C)CCNc1c2ccccc2[n+](C)c2ccccc12

>  <score_type>  (4) 
oracle

>  <origin>  (4) 
adg

>  <m_score__min__energy>  (4) 
-4.04

>  <m_primary>  (4) 
energy

$$$$
4:0
     RDKit          3D

 47 49  0  0  0  0  0  0  0  0999 V2000
   55.2320   24.1150   44.5590 C   0  0  0  0  0  0  0  0  0  0  0  0
   54.3830   24.8400   45.5980 C   0  0  0  0  0  0  0  0  0  0  0  0
   54.8690   26.1650   45.8140 O   0  0  0  0  0  0  0  0  0  0  0  0
   56.2150   26.5250   46.0040 C   0  0  0  0  0  0  0  0  0  0  0  0
   57.1610   25.6410   46.5560 C   0  0  0  0  0  0  0  0  0  0  0  0
   58.4850   26.0450   46.7370 C   0  0  0  0  0  0  0  0  0  0  0  0
   58.8890   27.3350   46.3710 C   0  0  0  0  0  0  0  0  0  0  0  0
   60.3160   27.7760   46.5790 C   0  0  0  0  0  0  0  0  0  0  0  0
   60.3910   28.8450   47.5770 N   0  0  0  0  0  0  0  0  0  0  0  0
   60.3530   30.2510   47.2640 C   0  0  0  0  0  0  0  0  0  0  0  0
   61.4920   31.0370   47.4910 C   0  0  0  0  0  0  0  0  0  0  0  0
   61.4950   32.3630   47.1880 N   0  0  0  0  0  0  0  0  0  0  0  0
   60.3970   32.9760   46.6590 C   0  0  0  0  0  0  0  0  0  0  0  0
   60.4220   34.3450   46.3490 C   0  0  0  0  0  0  0  0  0  0  0  0
   59.2910   34.9640   45.8060 C   0  0  0  0  0  0  0  0  0  0  0  0
   58.1300   34.2220   45.5700 C   0  0  0  0  0  0  0  0  0  0  0  0
   58.0920   32.8580   45.8750 C   0  0  0  0  0  0  0  0  0  0  0  0
   59.2230   32.2290   46.4200 C   0  0  0  0  0  0  0  0  0  0  0  0
   59.2080   30.8650   46.7300 C   0  0  0  0  0  0  0  0  0  0  0  0
   57.9560   28.2080   45.7910 C   0  0  0  0  0  0  0  0  0  0  0  0
   56.6140   27.8160   45.6220 C   0  0  0  0  0  0  0  0  0  0  0  0
   55.6430   28.6760   45.0800 O   0  0  0  0  0  0  0  0  0  0  0  0
   55.9020   29.9280   44.4430 C   0  0  0  0  0  0  0  0  0  0  0  0
   56.5400   29.7190   43.0730 C   0  0  0  0  0  0  0  0  0  0  0  0
   55.9734   23.4819   45.0684 H   0  0  0  0  0  0  0  0  0  0  0  0
   54.5842   23.4871   43.9296 H   0  0  0  0  0  0  0  0  0  0  0  0
   55.7507   24.8531   43.9296 H   0  0  0  0  0  0  0  0  0  0  0  0
   53.3432   24.8906   45.2426 H   0  0  0  0  0  0  0  0  0  0  0  0
   54.4365   24.2855   46.5465 H   0  0  0  0  0  0  0  0  0  0  0  0
   56.8551   24.6252   46.8467 H   0  0  0  0  0  0  0  0  0  0  0  0
   59.2155   25.3457   47.1698 H   0  0  0  0  0  0  0  0  0  0  0  0
   60.9116   26.9181   46.9243 H   0  0  0  0  0  0  0  0  0  0  0  0
   60.7094   28.1569   45.6250 H   0  0  0  0  0  0  0  0  0  0  0  0
   60.5580   28.5590   48.5690 H   0  0  0  0  0  0  0  0  0  0  0  0
   62.3940   30.5755   47.9193 H   0  0  0  0  0  0  0  0  0  0  0  0
   62.3650   32.9120   47.3680 H   0  0  0  0  0  0  0  0  0  0  0  0
   61.3334   34.9326   46.5336 H   0  0  0  0  0  0  0  0  0  0  0  0
   59.3153   36.0368   45.5642 H   0  0  0  0  0  0  0  0  0  0  0  0
   57.2432   34.7130   45.1428 H   0  0  0  0  0  0  0  0  0  0  0  0
   57.1764   32.2778   45.6881 H   0  0  0  0  0  0  0  0  0  0  0  0
   58.2980   30.2722   46.5553 H   0  0  0  0  0  0  0  0  0  0  0  0
   58.2761   29.2087   45.4650 H   0  0  0  0  0  0  0  0  0  0  0  0
   54.9542   30.4725   44.3198 H   0  0  0  0  0  0  0  0  0  0  0  0
   56.5972   30.5049   45.0706 H   0  0  0  0  0  0  0  0  0  0  0  0
   57.5783   29.3789   43.2001 H   0  0  0  0  0  0  0  0  0  0  0  0
   55.9712   28.9602   42.5156 H   0  0  0  0  0  0  0  0  0  0  0  0
   56.5304   30.6672   42.5156 H   0  0  0  0  0  0  0  0  0  0  0  0
  1  2  1  0
  2  3  1  0
  3  4  1  0
  4  5  2  0
  5  6  1  0
  6  7  2  0
  7  8  1  0
  8  9  1  0
  9 10  1  0
 10 11  2  0
 11 12  1  0
 12 13  2  0
 13 14  1  0
 14 15  2  0
 15 16  1  0
 16 17  2  0
 17 18  1  0
 18 19  2  0
  7 20  1  0
 20 21  2  0
 21 22  1  0
 22 23  1  0
 23 24  1  0
 21  4  1  0
 19 10  1  0
 18 13  1  0
  1 25  1  0
  1 26  1  0
  1 27  1  0
  2 28  1  0
  2 29  1  0
  5 30  1  0
  6 31  1  0
  8 32  1  0
  8 33  1  0
  9 34  1  0
 11 35  1  0
 12 36  1  0
 14 37  1  0
 15 38  1  0
 16 39  1  0
 17 40  1  0
 19 41  1  0
 20 42  1  0
 23 43  1  0
 23 44  1  0
 24 45  1  0
 24 46  1  0
 24 47  1  0
M  CHG  1  12   1
M  END
>  <UniqueID>  (5) 
5

>  <SMILES>  (5) 
CCOc1ccc(CNc2c[nH+]c3ccccc3c2)cc1OCC

>  <Energy>  (5) 
46.49882414247454

>  <Genealogy>  (5) 
CCOc1ccc(CNc2c[nH+]c3ccccc3c2)cc1OCC (protonated)
CCOc1ccc(CNc2c[nH+]c3ccccc3c2)cc1OCC (3D coordinates assigned)
CCOc1ccc(CNc2c[nH+]c3ccccc3c2)cc1OCC (optimized conformer: 46.49882414247454 kcal/mol)

>  <smiles>  (5) 
CCOc1ccc(CNc2cnc3ccccc3c2)cc1OCC

>  <score_type>  (5) 
oracle

>  <origin>  (5) 
adg

>  <m_score__min__energy>  (5) 
-6.8300000000000001

>  <m_primary>  (5) 
energy

$$$$
5:0
     RDKit          3D

 67 69  0  0  0  0  0  0  0  0999 V2000
   56.6810   30.4990   42.6770 C   0  0  0  0  0  0  0  0  0  0  0  0
   57.0610   31.2690   43.9410 C   0  0  0  0  0  0  0  0  0  0  0  0
   57.0310   30.4050   45.1410 N   0  0  0  0  0  0  0  0  0  0  0  0
   56.9640   28.9820   44.7570 C   0  0  0  0  0  0  0  0  0  0  0  0
   58.1130   30.6640   46.1250 C   0  0  0  0  0  0  0  0  0  0  0  0
   59.5380   30.4030   45.6030 C   0  0  0  0  0  0  0  0  0  0  0  0
   60.3060   29.8280   46.6420 O   0  0  0  0  0  0  0  0  0  0  0  0
   59.7540   28.5910   47.0570 C   0  0  0  0  0  0  0  0  0  0  0  0
   59.1470   28.7100   48.4530 C   0  0  0  0  0  0  0  0  0  0  0  0
   59.5250   29.9420   49.0280 O   0  0  0  0  0  0  0  0  0  0  0  0
   60.5990   29.7430   49.9220 C   0  0  0  0  0  0  0  0  0  0  0  0
   60.6640   30.9070   50.9200 C   0  0  0  0  0  0  0  0  0  0  0  0
   59.9160   32.1030   50.4790 N   0  0  0  0  0  0  0  0  0  0  0  0
   60.7190   32.9450   49.5950 C   0  0  0  0  0  0  0  0  0  0  0  0
   60.1940   33.3580   48.3410 C   0  0  0  0  0  0  0  0  0  0  0  0
   58.8000   33.4910   48.1280 C   0  0  0  0  0  0  0  0  0  0  0  0
   58.2880   33.7870   46.8690 C   0  0  0  0  0  0  0  0  0  0  0  0
   59.1450   33.9480   45.7900 C   0  0  0  0  0  0  0  0  0  0  0  0
   60.5210   33.8640   45.9750 C   0  0  0  0  0  0  0  0  0  0  0  0
   61.0820   33.6200   47.2570 C   0  0  0  0  0  0  0  0  0  0  0  0
   62.4470   33.5700   47.4470 N   0  0  0  0  0  0  0  0  0  0  0  0
   63.3630   34.0270   46.3760 C   0  0  0  0  0  0  0  0  0  0  0  0
   62.9670   33.1620   48.6600 C   0  0  0  0  0  0  0  0  0  0  0  0
   64.3390   32.8370   48.8030 C   0  0  0  0  0  0  0  0  0  0  0  0
   64.8890   32.5450   50.0520 C   0  0  0  0  0  0  0  0  0  0  0  0
   66.3510   32.2260   50.1780 C   0  0  0  0  0  0  0  0  0  0  0  0
   64.0960   32.6720   51.1930 C   0  0  0  0  0  0  0  0  0  0  0  0
   62.7360   32.9870   51.0860 C   0  0  0  0  0  0  0  0  0  0  0  0
   62.0700   33.4980   52.3390 C   0  0  0  0  0  0  0  0  0  0  0  0
   62.1230   33.0400   49.7980 C   0  0  0  0  0  0  0  0  0  0  0  0
   56.2102   29.5449   42.9565 H   0  0  0  0  0  0  0  0  0  0  0  0
   55.9742   31.0964   42.0823 H   0  0  0  0  0  0  0  0  0  0  0  0
   57.5850   30.3014   42.0823 H   0  0  0  0  0  0  0  0  0  0  0  0
   58.0765   31.6740   43.8193 H   0  0  0  0  0  0  0  0  0  0  0  0
   56.3274   32.0763   44.0828 H   0  0  0  0  0  0  0  0  0  0  0  0
   56.9347   28.3587   45.6629 H   0  0  0  0  0  0  0  0  0  0  0  0
   56.0565   28.8054   44.1609 H   0  0  0  0  0  0  0  0  0  0  0  0
   57.8508   28.7209   44.1609 H   0  0  0  0  0  0  0  0  0  0  0  0
   58.0495   31.7179   46.4336 H   0  0  0  0  0  0  0  0  0  0  0  0
   57.9530   29.9582   46.9534 H   0  0  0  0  0  0  0  0  0  0  0  0
   59.4977   29.7126   44.7476 H   0  0  0  0  0  0  0  0  0  0  0  0
   59.9964   31.3490   45.2791 H   0  0  0  0  0  0  0  0  0  0  0  0
   58.9697   28.2897   46.3471 H   0  0  0  0  0  0  0  0  0  0  0  0
   60.5556   27.8381   47.0837 H   0  0  0  0  0  0  0  0  0  0  0  0
   58.0505   28.6602   48.3813 H   0  0  0  0  0  0  0  0  0  0  0  0
   59.5117   27.8849   49.0824 H   0  0  0  0  0  0  0  0  0  0  0  0
   60.4496   28.8004   50.4689 H   0  0  0  0  0  0  0  0  0  0  0  0
   61.5406   29.6961   49.3553 H   0  0  0  0  0  0  0  0  0  0  0  0
   60.2446   30.5677   51.8787 H   0  0  0  0  0  0  0  0  0  0  0  0
   61.7207   31.1999   51.0077 H   0  0  0  0  0  0  0  0  0  0  0  0
   59.6410   32.6040   51.3420 H   0  0  0  0  0  0  0  0  0  0  0  0
   59.0010   31.8290   50.0680 H   0  0  0  0  0  0  0  0  0  0  0  0
   58.1095   33.3577   48.9739 H   0  0  0  0  0  0  0  0  0  0  0  0
   57.2022   33.8936   46.7287 H   0  0  0  0  0  0  0  0  0  0  0  0
   58.7360   34.1422   44.7875 H   0  0  0  0  0  0  0  0  0  0  0  0
   61.1890   33.9892   45.1101 H   0  0  0  0  0  0  0  0  0  0  0  0
   64.2606   34.4748   46.8275 H   0  0  0  0  0  0  0  0  0  0  0  0
   63.6552   33.1691   45.7526 H   0  0  0  0  0  0  0  0  0  0  0  0
   62.8533   34.7764   45.7526 H   0  0  0  0  0  0  0  0  0  0  0  0
   64.9833   32.8144   47.9117 H   0  0  0  0  0  0  0  0  0  0  0  0
   66.6229   32.1667   51.2422 H   0  0  0  0  0  0  0  0  0  0  0  0
   66.5590   31.2613   49.6921 H   0  0  0  0  0  0  0  0  0  0  0  0
   66.9419   33.0163   49.6921 H   0  0  0  0  0  0  0  0  0  0  0  0
   64.5438   32.5231   52.1866 H   0  0  0  0  0  0  0  0  0  0  0  0
   62.5917   33.0977   53.2209 H   0  0  0  0  0  0  0  0  0  0  0  0
   62.1130   34.5970   52.3550 H   0  0  0  0  0  0  0  0  0  0  0  0
   61.0196   33.1719   52.3550 H   0  0  0  0  0  0  0  0  0  0  0  0
  1  2  1  0
  2  3  1  0
  3  4  1  0
  3  5  1  0
  5  6  1  0
  6  7  1  0
  7  8  1  0
  8  9  1  0
  9 10  1  0
 10 11  1  0
 11 12  1  0
 12 13  1  0
 13 14  1  0
 14 15  2  0
 15 16  1  0
 16 17  2  0
 17 18  1  0
 18 19  2  0
 19 20  1  0
 20 21  2  0
 21 22  1  0
 21 23  1  0
 23 24  2  0
 24 25  1  0
 25 26  1  0
 25 27  2  0
 27 28  1  0
 28 29  1  0
 28 30  2  0
 30 14  1  0
 20 15  1  0
 30 23  1  0
  1 31  1  0
  1 32  1  0
  1 33  1  0
  2 34  1  0
  2 35  1  0
  4 36  1  0
  4 37  1  0
  4 38  1  0
  5 39  1  0
  5 40  1  0
  6 41  1  0
  6 42  1  0
  8 43  1  0
  8 44  1  0
  9 45  1  0
  9 46  1  0
 11 47  1  0
 11 48  1  0
 12 49  1  0
 12 50  1  0
 13 51  1  0
 13 52  1  0
 16 53  1  0
 17 54  1  0
 18 55  1  0
 19 56  1  0
 22 57  1  0
 22 58  1  0
 22 59  1  0
 24 60  1  0
 26 61  1  0
 26 62  1  0
 26 63  1  0
 27 64  1  0
 29 65  1  0
 29 66  1  0
 29 67  1  0
M  CHG  2  13   1  21   1
M  END
>  <UniqueID>  (6) 
6

>  <SMILES>  (6) 
CCN(C)CCOCCOCC[NH2+]c1c2ccccc2[n+](C)c2cc(C)cc(C)c12

>  <Energy>  (6) 
111.19355819120912

>  <Genealogy>  (6) 
CCN(C)CCOCCOCC[NH2+]c1c2ccccc2[n+](C)c2cc(C)cc(C)c12 (protonated)
CCN(C)CCOCCOCC[NH2+]c1c2ccccc2[n+](C)c2cc(C)cc(C)c12 (3D coordinates assigned)
CCN(C)CCOCCOCC[NH2+]c1c2ccccc2[n+](C)c2cc(C)cc(C)c12 (optimized conformer: 111.19355819120912 kcal/mol)

>  <smiles>  (6) 
CCN(C)CCOCCOCCNc1c2ccccc2[n+](C)c2cc(C)cc(C)c12

>  <score_type>  (6) 
oracle

>  <origin>  (6) 
adg

>  <m_score__min__energy>  (6) 
-4.8499999999999996

>  <m_primary>  (6) 
energy

$$$$
6:0
     RDKit          3D

 48 49  0  0  0  0  0  0  0  0999 V2000
   62.8030   33.5810   46.9840 C   0  0  0  0  0  0  0  0  0  0  0  0
   62.4500   33.6740   48.4780 C   0  0  0  0  0  0  0  0  0  0  0  0
   60.9890   33.6830   48.7640 N   0  0  0  0  0  0  0  0  0  0  0  0
   60.6390   32.5730   49.6780 C   0  0  0  0  0  0  0  0  0  0  0  0
   60.1260   33.7130   47.5440 C   0  0  2  0  0  0  0  0  0  0  0  0
   59.3210   35.0380   47.4330 C   0  0  0  0  0  0  0  0  0  0  0  0
   59.2350   35.4680   46.0890 O   0  0  0  0  0  0  0  0  0  0  0  0
   58.4670   34.5830   45.2830 C   0  0  0  0  0  0  0  0  0  0  0  0
   59.0520   33.1610   45.0280 C   0  0  0  0  0  0  0  0  0  0  0  0
   58.7700   32.1320   46.0690 N   0  0  1  0  0  0  0  0  0  0  0  0
   59.2540   30.7800   45.6870 C   0  0  0  0  0  0  0  0  0  0  0  0
   58.1480   29.7640   45.4970 C   0  0  0  0  0  0  0  0  0  0  0  0
   56.9880   30.1840   45.2410 O   0  0  0  0  0  0  0  0  0  0  0  0
   58.3760   28.3460   45.5930 N   0  0  0  0  0  0  0  0  0  0  0  0
   59.4190   27.7960   46.4690 C   0  0  0  0  0  0  0  0  0  0  0  0
   59.0230   26.3970   46.9500 C   0  0  0  0  0  0  0  0  0  0  0  0
   58.6560   25.5730   45.8610 O   0  0  0  0  0  0  0  0  0  0  0  0
   57.4800   26.0800   45.2620 C   0  0  0  0  0  0  0  0  0  0  0  0
   57.7420   27.4470   44.6230 C   0  0  0  0  0  0  0  0  0  0  0  0
   59.1690   32.4830   47.4530 C   0  0  0  0  0  0  0  0  0  0  0  0
   63.8614   33.3022   46.8740 H   0  0  0  0  0  0  0  0  0  0  0  0
   62.1712   32.8186   46.5047 H   0  0  0  0  0  0  0  0  0  0  0  0
   62.6289   34.5557   46.5047 H   0  0  0  0  0  0  0  0  0  0  0  0
   62.8960   32.8096   48.9916 H   0  0  0  0  0  0  0  0  0  0  0  0
   62.8464   34.6358   48.8356 H   0  0  0  0  0  0  0  0  0  0  0  0
   60.7449   32.9089   50.7201 H   0  0  0  0  0  0  0  0  0  0  0  0
   59.5994   32.2626   49.4966 H   0  0  0  0  0  0  0  0  0  0  0  0
   61.3125   31.7224   49.4966 H   0  0  0  0  0  0  0  0  0  0  0  0
   60.8156   33.6576   46.6888 H   0  0  0  0  0  0  0  0  0  0  0  0
   58.3058   34.8759   47.8244 H   0  0  0  0  0  0  0  0  0  0  0  0
   59.8399   35.8130   48.0162 H   0  0  0  0  0  0  0  0  0  0  0  0
   57.4893   34.4558   45.7708 H   0  0  0  0  0  0  0  0  0  0  0  0
   58.4359   35.0582   44.2914 H   0  0  0  0  0  0  0  0  0  0  0  0
   58.6401   32.7954   44.0758 H   0  0  0  0  0  0  0  0  0  0  0  0
   60.1445   33.2893   45.0323 H   0  0  0  0  0  0  0  0  0  0  0  0
   57.7270   32.0350   46.0900 H   0  0  0  0  0  0  0  0  0  0  0  0
   59.8116   30.8657   44.7427 H   0  0  0  0  0  0  0  0  0  0  0  0
   59.8805   30.4190   46.5159 H   0  0  0  0  0  0  0  0  0  0  0  0
   60.3657   27.7342   45.9122 H   0  0  0  0  0  0  0  0  0  0  0  0
   59.5386   28.4548   47.3417 H   0  0  0  0  0  0  0  0  0  0  0  0
   59.8761   25.9418   47.4743 H   0  0  0  0  0  0  0  0  0  0  0  0
   58.1605   26.4895   47.6264 H   0  0  0  0  0  0  0  0  0  0  0  0
   57.1389   25.3786   44.4863 H   0  0  0  0  0  0  0  0  0  0  0  0
   56.7097   26.1953   46.0388 H   0  0  0  0  0  0  0  0  0  0  0  0
   58.4067   27.3213   43.7556 H   0  0  0  0  0  0  0  0  0  0  0  0
   56.7844   27.8828   44.3021 H   0  0  0  0  0  0  0  0  0  0  0  0
   58.2593   32.7089   48.0287 H   0  0  0  0  0  0  0  0  0  0  0  0
   59.7202   31.6199   47.8545 H   0  0  0  0  0  0  0  0  0  0  0  0
  1  2  1  0
  2  3  1  0
  3  4  1  0
  3  5  1  0
  5  6  1  0
  6  7  1  0
  7  8  1  0
  8  9  1  0
  9 10  1  0
 10 11  1  0
 11 12  1  0
 12 13  2  0
 12 14  1  0
 14 15  1  0
 15 16  1  0
 16 17  1  0
 17 18  1  0
 18 19  1  0
 10 20  1  0
 20  5  1  0
 19 14  1  0
  1 21  1  0
  1 22  1  0
  1 23  1  0
  2 24  1  0
  2 25  1  0
  4 26  1  0
  4 27  1  0
  4 28  1  0
  5 29  1  6
  6 30  1  0
  6 31  1  0
  8 32  1  0
  8 33  1  0
  9 34  1  0
  9 35  1  0
 10 36  1  1
 11 37  1  0
 11 38  1  0
 15 39  1  0
 15 40  1  0
 16 41  1  0
 16 42  1  0
 18 43  1  0
 18 44  1  0
 19 45  1  0
 19 46  1  0
 20 47  1  0
 20 48  1  0
M  CHG  1  10   1
M  END
>  <UniqueID>  (7) 
7

>  <SMILES>  (7) 
CCN(C)[C@@H]1COCC[N@@H+](CC(=O)N2CCOCC2)C1

>  <Energy>  (7) 
78.37745138697515

>  <Genealogy>  (7) 
CCN(C)C1COCC[NH+](CC(=O)N2CCOCC2)C1 (protonated)
CCN(C)[C@@H]1COCC[N@@H+](CC(=O)N2CCOCC2)C1 (chirality)
CCN(C)[C@@H]1COCC[N@@H+](CC(=O)N2CCOCC2)C1 (3D coordinates assigned)
CCN(C)[C@@H]1COCC[N@@H+](CC(=O)N2CCOCC2)C1 (nonaromatic ring conformer: 78.37745138697515 kcal/mol)

>  <smiles>  (7) 
CCN(C)C1COCCN(CC(=O)N2CCOCC2)C1

>  <score_type>  (7) 
oracle

>  <origin>  (7) 
adg

>  <m_score__min__energy>  (7) 
-2.3500000000000001

>  <m_primary>  (7) 
energy

$$$$
7:0
     RDKit          3D

 47 49  0  0  0  0  0  0  0  0999 V2000
   57.4090   32.3710   40.8110 C   0  0  0  0  0  0  0  0  0  0  0  0
   57.4280   31.7630   42.2160 C   0  0  0  0  0  0  0  0  0  0  0  0
   56.9260   30.3810   42.2370 N   0  0  0  0  0  0  0  0  0  0  0  0
   56.0150   30.1060   43.3660 C   0  0  0  0  0  0  0  0  0  0  0  0
   56.7780   29.6960   44.6340 C   0  0  0  0  0  0  0  0  0  0  0  0
   58.1920   30.0440   44.5240 N   0  0  0  0  0  0  0  0  0  0  0  0
   58.9200   30.4850   45.6790 C   0  0  0  0  0  0  0  0  0  0  0  0
   59.0700   31.8580   45.9370 C   0  0  0  0  0  0  0  0  0  0  0  0
   58.4550   32.8190   45.1080 C   0  0  0  0  0  0  0  0  0  0  0  0
   58.5670   34.1770   45.3910 C   0  0  0  0  0  0  0  0  0  0  0  0
   59.2750   34.5990   46.5110 C   0  0  0  0  0  0  0  0  0  0  0  0
   59.8930   33.6660   47.3440 C   0  0  0  0  0  0  0  0  0  0  0  0
   59.8320   32.2770   47.0610 C   0  0  0  0  0  0  0  0  0  0  0  0
   60.4710   31.3410   47.8530 N   0  0  0  0  0  0  0  0  0  0  0  0
   61.4870   31.7770   48.8390 C   0  0  0  0  0  0  0  0  0  0  0  0
   60.1800   29.9970   47.7090 C   0  0  0  0  0  0  0  0  0  0  0  0
   60.5990   29.0340   48.6620 C   0  0  0  0  0  0  0  0  0  0  0  0
   60.3510   27.6700   48.4810 C   0  0  0  0  0  0  0  0  0  0  0  0
   60.8040   26.7760   49.4630 O   0  0  0  0  0  0  0  0  0  0  0  0
   61.1430   27.1470   50.7950 C   0  0  0  0  0  0  0  0  0  0  0  0
   59.6590   27.2420   47.3410 C   0  0  0  0  0  0  0  0  0  0  0  0
   59.1980   28.1700   46.4110 C   0  0  0  0  0  0  0  0  0  0  0  0
   59.4280   29.5490   46.5920 C   0  0  0  0  0  0  0  0  0  0  0  0
   57.3747   33.4679   40.8866 H   0  0  0  0  0  0  0  0  0  0  0  0
   58.3170   32.0690   40.2685 H   0  0  0  0  0  0  0  0  0  0  0  0
   56.5216   32.0129   40.2685 H   0  0  0  0  0  0  0  0  0  0  0  0
   58.4628   31.7684   42.5890 H   0  0  0  0  0  0  0  0  0  0  0  0
   56.7663   32.3693   42.8521 H   0  0  0  0  0  0  0  0  0  0  0  0
   57.7280   29.7090   42.2080 H   0  0  0  0  0  0  0  0  0  0  0  0
   55.4313   31.0134   43.5805 H   0  0  0  0  0  0  0  0  0  0  0  0
   55.3600   29.2704   43.0784 H   0  0  0  0  0  0  0  0  0  0  0  0
   56.3446   30.2176   45.5001 H   0  0  0  0  0  0  0  0  0  0  0  0
   56.6919   28.6067   44.7604 H   0  0  0  0  0  0  0  0  0  0  0  0
   58.6740   30.0520   43.5960 H   0  0  0  0  0  0  0  0  0  0  0  0
   57.8809   32.4918   44.2286 H   0  0  0  0  0  0  0  0  0  0  0  0
   58.0951   34.9172   44.7281 H   0  0  0  0  0  0  0  0  0  0  0  0
   59.3480   35.6722   46.7410 H   0  0  0  0  0  0  0  0  0  0  0  0
   60.4367   34.0130   48.2351 H   0  0  0  0  0  0  0  0  0  0  0  0
   61.1041   31.6127   49.8570 H   0  0  0  0  0  0  0  0  0  0  0  0
   62.4098   31.1957   48.6960 H   0  0  0  0  0  0  0  0  0  0  0  0
   61.7015   32.8464   48.6960 H   0  0  0  0  0  0  0  0  0  0  0  0
   61.1316   29.3680   49.5647 H   0  0  0  0  0  0  0  0  0  0  0  0
   60.5758   26.5262   51.5042 H   0  0  0  0  0  0  0  0  0  0  0  0
   62.2206   26.9949   50.9550 H   0  0  0  0  0  0  0  0  0  0  0  0
   60.8945   28.2066   50.9550 H   0  0  0  0  0  0  0  0  0  0  0  0
   59.4791   26.1689   47.1798 H   0  0  0  0  0  0  0  0  0  0  0  0
   58.6476   27.8229   45.5241 H   0  0  0  0  0  0  0  0  0  0  0  0
  1  2  1  0
  2  3  1  0
  3  4  1  0
  4  5  1  0
  5  6  1  0
  6  7  1  0
  7  8  2  0
  8  9  1  0
  9 10  2  0
 10 11  1  0
 11 12  2  0
 12 13  1  0
 13 14  2  0
 14 15  1  0
 14 16  1  0
 16 17  2  0
 17 18  1  0
 18 19  1  0
 19 20  1  0
 18 21  2  0
 21 22  1  0
 22 23  2  0
 23  7  1  0
 13  8  1  0
 23 16  1  0
  1 24  1  0
  1 25  1  0
  1 26  1  0
  2 27  1  0
  2 28  1  0
  3 29  1  0
  4 30  1  0
  4 31  1  0
  5 32  1  0
  5 33  1  0
  6 34  1  0
  9 35  1  0
 10 36  1  0
 11 37  1  0
 12 38  1  0
 15 39  1  0
 15 40  1  0
 15 41  1  0
 17 42  1  0
 20 43  1  0
 20 44  1  0
 20 45  1  0
 21 46  1  0
 22 47  1  0
M  CHG  1  14   1
M  END
>  <UniqueID>  (8) 
8

>  <SMILES>  (8) 
CCNCCNc1c2ccccc2[n+](C)c2cc(OC)ccc12

>  <Energy>  (8) 
72.67361935119011

>  <Genealogy>  (8) 
CCNCCNc1c2ccccc2[n+](C)c2cc(OC)ccc12 (3D coordinates assigned)
CCNCCNc1c2ccccc2[n+](C)c2cc(OC)ccc12 (optimized conformer: 72.67361935119011 kcal/mol)

>  <smiles>  (8) 
CCNCCNc1c2ccccc2[n+](C)c2cc(OC)ccc12

>  <score_type>  (8) 
oracle

>  <origin>  (8) 
adg

>  <m_score__min__energy>  (8) 
-5.5099999999999998

>  <m_primary>  (8) 
energy

$$$$
8:0
     RDKit          3D

 39 41  0  0  0  0  0  0  0  0999 V2000
   57.8840   25.8170   45.8590 C   0  0  0  0  0  0  0  0  0  0  0  0
   56.6760   26.7250   46.0620 C   0  0  0  0  0  0  0  0  0  0  0  0
   56.7600   27.9010   45.1950 N   0  0  0  0  0  0  0  0  0  0  0  0
   57.4590   29.1180   45.5260 C   0  0  0  0  0  0  0  0  0  0  0  0
   57.4110   30.2570   44.7000 C   0  0  0  0  0  0  0  0  0  0  0  0
   58.1050   31.4170   45.0540 C   0  0  0  0  0  0  0  0  0  0  0  0
   58.8600   31.4570   46.2350 C   0  0  0  0  0  0  0  0  0  0  0  0
   58.8910   30.3460   47.0750 C   0  0  0  0  0  0  0  0  0  0  0  0
   58.2050   29.1740   46.7150 C   0  0  0  0  0  0  0  0  0  0  0  0
   59.7440   30.4040   48.3040 C   0  0  0  0  0  0  0  0  0  0  0  0
   61.1600   30.3910   47.9210 N   0  0  0  0  0  0  0  0  0  0  0  0
   61.7120   31.6660   47.4880 C   0  0  0  0  0  0  0  0  0  0  0  0
   63.1050   31.8310   47.6340 C   0  0  0  0  0  0  0  0  0  0  0  0
   63.7560   32.9750   47.1830 C   0  0  0  0  0  0  0  0  0  0  0  0
   63.0360   33.9800   46.5520 C   0  0  0  0  0  0  0  0  0  0  0  0
   61.6620   33.8460   46.3720 C   0  0  0  0  0  0  0  0  0  0  0  0
   60.9670   32.7060   46.8280 C   0  0  0  0  0  0  0  0  0  0  0  0
   59.5300   32.6630   46.6310 N   0  0  0  0  0  0  0  0  0  0  0  0
   58.7320   33.8900   46.7260 C   0  0  0  0  0  0  0  0  0  0  0  0
   58.2849   25.5157   46.8380 H   0  0  0  0  0  0  0  0  0  0  0  0
   57.5797   24.9222   45.2963 H   0  0  0  0  0  0  0  0  0  0  0  0
   58.6590   26.3581   45.2963 H   0  0  0  0  0  0  0  0  0  0  0  0
   55.7596   26.1653   45.8232 H   0  0  0  0  0  0  0  0  0  0  0  0
   56.6576   27.0593   47.1098 H   0  0  0  0  0  0  0  0  0  0  0  0
   56.2830   27.8400   44.2660 H   0  0  0  0  0  0  0  0  0  0  0  0
   56.8236   30.2337   43.7703 H   0  0  0  0  0  0  0  0  0  0  0  0
   58.0589   32.3027   44.4034 H   0  0  0  0  0  0  0  0  0  0  0  0
   58.2525   28.2918   47.3704 H   0  0  0  0  0  0  0  0  0  0  0  0
   59.5234   31.3274   48.8595 H   0  0  0  0  0  0  0  0  0  0  0  0
   59.5293   29.5321   48.9393 H   0  0  0  0  0  0  0  0  0  0  0  0
   61.6910   30.0680   48.7650 H   0  0  0  0  0  0  0  0  0  0  0  0
   61.3280   29.6830   47.1680 H   0  0  0  0  0  0  0  0  0  0  0  0
   63.6915   31.0353   48.1165 H   0  0  0  0  0  0  0  0  0  0  0  0
   64.8412   33.0830   47.3265 H   0  0  0  0  0  0  0  0  0  0  0  0
   63.5515   34.8833   46.1938 H   0  0  0  0  0  0  0  0  0  0  0  0
   61.1058   34.6469   45.8629 H   0  0  0  0  0  0  0  0  0  0  0  0
   58.5691   34.1404   47.7847 H   0  0  0  0  0  0  0  0  0  0  0  0
   59.2671   34.7146   46.2323 H   0  0  0  0  0  0  0  0  0  0  0  0
   57.7613   33.7352   46.2323 H   0  0  0  0  0  0  0  0  0  0  0  0
  1  2  1  0
  2  3  1  0
  3  4  1  0
  4  5  2  0
  5  6  1  0
  6  7  2  0
  7  8  1  0
  8  9  2  0
  8 10  1  0
 10 11  1  0
 11 12  1  0
 12 13  2  0
 13 14  1  0
 14 15  2  0
 15 16  1  0
 16 17  2  0
 17 18  1  0
 18 19  1  0
  9  4  1  0
 17 12  1  0
 18  7  1  0
  1 20  1  0
  1 21  1  0
  1 22  1  0
  2 23  1  0
  2 24  1  0
  3 25  1  0
  5 26  1  0
  6 27  1  0
  9 28  1  0
 10 29  1  0
 10 30  1  0
 11 31  1  0
 11 32  1  0
 13 33  1  0
 14 34  1  0
 15 35  1  0
 16 36  1  0
 19 37  1  0
 19 38  1  0
 19 39  1  0
M  CHG  1  11   1
M  END
>  <UniqueID>  (9) 
9

>  <SMILES>  (9) 
CCNc1ccc2c(c1)C[NH2+]c1ccccc1N2C

>  <Energy>  (9) 
59.58565545914691

>  <Genealogy>  (9) 
CCNc1ccc2c(c1)C[NH2+]c1ccccc1N2C (protonated)
CCNc1ccc2c(c1)C[NH2+]c1ccccc1N2C (3D coordinates assigned)
CCNc1ccc2c(c1)C[NH2+]c1ccccc1N2C (nonaromatic ring conformer: 59.58565545914691 kcal/mol)

>  <smiles>  (9) 
CCNc1ccc2c(c1)CNc1ccccc1N2C

>  <score_type>  (9) 
oracle

>  <origin>  (9) 
adg

>  <m_score__min__energy>  (9) 
-5.1200000000000001

>  <m_primary>  (9) 
energy

$$$$
9:0
     RDKit          3D

 70 72  0  0  0  0  0  0  0  0999 V2000
   63.3150   33.8920   50.4510 C   0  0  0  0  0  0  0  0  0  0  0  0
   62.8310   34.1970   49.0240 C   0  0  0  0  0  0  0  0  0  0  0  0
   62.7030   33.0140   48.1340 N   0  0  0  0  0  0  0  0  0  0  0  0
   63.7760   32.9800   47.1240 C   0  0  0  0  0  0  0  0  0  0  0  0
   62.5750   31.7100   48.8310 C   0  0  0  0  0  0  0  0  0  0  0  0
   61.5200   30.7980   48.1720 C   0  0  0  0  0  0  0  0  0  0  0  0
   61.3070   31.0940   46.7400 N   0  0  0  0  0  0  0  0  0  0  0  0
   59.9100   30.8900   46.3660 C   0  0  0  0  0  0  0  0  0  0  0  0
   59.4710   29.6170   45.9370 C   0  0  0  0  0  0  0  0  0  0  0  0
   60.0120   28.4260   46.4730 C   0  0  0  0  0  0  0  0  0  0  0  0
   59.5540   27.1800   46.0500 C   0  0  0  0  0  0  0  0  0  0  0  0
   58.5400   27.0950   45.1030 C   0  0  0  0  0  0  0  0  0  0  0  0
   57.9780   28.2540   44.5740 C   0  0  0  0  0  0  0  0  0  0  0  0
   58.4360   29.5360   44.9710 C   0  0  0  0  0  0  0  0  0  0  0  0
   57.9010   30.6900   44.4410 N   0  0  0  0  0  0  0  0  0  0  0  0
   57.1170   30.6350   43.1880 C   0  0  0  0  0  0  0  0  0  0  0  0
   58.0710   31.8860   45.1100 C   0  0  0  0  0  0  0  0  0  0  0  0
   57.2820   33.0170   44.7970 C   0  0  0  0  0  0  0  0  0  0  0  0
   57.4210   34.2050   45.4990 C   0  0  0  0  0  0  0  0  0  0  0  0
   58.2900   34.2830   46.5750 C   0  0  0  0  0  0  0  0  0  0  0  0
   59.0860   33.1850   46.9450 C   0  0  0  0  0  0  0  0  0  0  0  0
   59.7400   33.1920   48.2310 N   0  0  0  0  0  0  0  0  0  0  0  0
   59.1580   32.7190   49.4930 C   0  0  0  0  0  0  0  0  0  0  0  0
   59.6910   33.4900   50.7130 C   0  0  0  0  0  0  0  0  0  0  0  0
   58.7090   33.4600   51.9120 C   0  0  0  0  0  0  0  0  0  0  0  0
   59.3480   33.4730   53.2640 N   0  0  0  0  0  0  0  0  0  0  0  0
   59.1700   34.7840   53.9340 C   0  0  0  0  0  0  0  0  0  0  0  0
   60.8010   33.2380   53.0830 C   0  0  0  0  0  0  0  0  0  0  0  0
   58.8060   32.3960   54.1250 C   0  0  0  0  0  0  0  0  0  0  0  0
   59.0350   31.9930   46.1560 C   0  0  0  0  0  0  0  0  0  0  0  0
   62.6160   34.3325   51.1772 H   0  0  0  0  0  0  0  0  0  0  0  0
   63.3588   32.8028   50.5984 H   0  0  0  0  0  0  0  0  0  0  0  0
   64.3165   34.3225   50.5984 H   0  0  0  0  0  0  0  0  0  0  0  0
   61.8444   34.6783   49.0947 H   0  0  0  0  0  0  0  0  0  0  0  0
   63.6009   34.8387   48.5707 H   0  0  0  0  0  0  0  0  0  0  0  0
   64.7532   32.9490   47.6281 H   0  0  0  0  0  0  0  0  0  0  0  0
   63.6593   32.0851   46.4951 H   0  0  0  0  0  0  0  0  0  0  0  0
   63.7162   33.8805   46.4951 H   0  0  0  0  0  0  0  0  0  0  0  0
   63.5489   31.1990   48.8081 H   0  0  0  0  0  0  0  0  0  0  0  0
   62.2515   31.9093   49.8633 H   0  0  0  0  0  0  0  0  0  0  0  0
   61.8521   29.7537   48.2674 H   0  0  0  0  0  0  0  0  0  0  0  0
   60.5652   30.9770   48.6881 H   0  0  0  0  0  0  0  0  0  0  0  0
   61.6050   32.0780   46.5740 H   0  0  0  0  0  0  0  0  0  0  0  0
   61.9340   30.5050   46.1590 H   0  0  0  0  0  0  0  0  0  0  0  0
   60.8045   28.4837   47.2336 H   0  0  0  0  0  0  0  0  0  0  0  0
   59.9954   26.2623   46.4660 H   0  0  0  0  0  0  0  0  0  0  0  0
   58.1807   26.1099   44.7707 H   0  0  0  0  0  0  0  0  0  0  0  0
   57.1659   28.1738   43.8364 H   0  0  0  0  0  0  0  0  0  0  0  0
   56.0462   30.5599   43.4285 H   0  0  0  0  0  0  0  0  0  0  0  0
   57.2980   31.5481   42.6018 H   0  0  0  0  0  0  0  0  0  0  0  0
   57.4237   29.7562   42.6018 H   0  0  0  0  0  0  0  0  0  0  0  0
   56.5453   32.9534   43.9826 H   0  0  0  0  0  0  0  0  0  0  0  0
   56.8387   35.0891   45.2001 H   0  0  0  0  0  0  0  0  0  0  0  0
   58.3582   35.2189   47.1489 H   0  0  0  0  0  0  0  0  0  0  0  0
   60.7710   33.3650   48.2370 H   0  0  0  0  0  0  0  0  0  0  0  0
   58.0661   32.8435   49.4465 H   0  0  0  0  0  0  0  0  0  0  0  0
   59.4397   31.6628   49.6159 H   0  0  0  0  0  0  0  0  0  0  0  0
   60.6438   33.0385   51.0265 H   0  0  0  0  0  0  0  0  0  0  0  0
   59.8194   34.5406   50.4134 H   0  0  0  0  0  0  0  0  0  0  0  0
   58.0548   34.3412   51.8372 H   0  0  0  0  0  0  0  0  0  0  0  0
   58.1711   32.5032   51.8398 H   0  0  0  0  0  0  0  0  0  0  0  0
   59.1890   34.6439   55.0249 H   0  0  0  0  0  0  0  0  0  0  0  0
   59.9844   35.4611   53.6370 H   0  0  0  0  0  0  0  0  0  0  0  0
   58.2045   35.2194   53.6370 H   0  0  0  0  0  0  0  0  0  0  0  0
   61.2852   33.1597   54.0676 H   0  0  0  0  0  0  0  0  0  0  0  0
   60.9544   32.3034   52.5236 H   0  0  0  0  0  0  0  0  0  0  0  0
   61.2412   34.0766   52.5236 H   0  0  0  0  0  0  0  0  0  0  0  0
   58.9428   32.6678   55.1821 H   0  0  0  0  0  0  0  0  0  0  0  0
   57.7341   32.2640   53.9161 H   0  0  0  0  0  0  0  0  0  0  0  0
   59.3387   31.4565   53.9161 H   0  0  0  0  0  0  0  0  0  0  0  0
  1  2  1  0
  2  3  1  0
  3  4  1  0
  3  5  1  0
  5  6  1  0
  6  7  1  0
  7  8  1  0
  8  9  2  0
  9 10  1  0
 10 11  2  0
 11 12  1  0
 12 13  2  0
 13 14  1  0
 14 15  2  0
 15 16  1  0
 15 17  1  0
 17 18  2  0
 18 19  1  0
 19 20  2  0
 20 21  1  0
 21 22  1  0
 22 23  1  0
 23 24  1  0
 24 25  1  0
 25 26  1  0
 26 27  1  0
 26 28  1  0
 26 29  1  0
 21 30  2  0
 30  8  1  0
 14  9  1  0
 30 17  1  0
  1 31  1  0
  1 32  1  0
  1 33  1  0
  2 34  1  0
  2 35  1  0
  4 36  1  0
  4 37  1  0
  4 38  1  0
  5 39  1  0
  5 40  1  0
  6 41  1  0
  6 42  1  0
  7 43  1  0
  7 44  1  0
 10 45  1  0
 11 46  1  0
 12 47  1  0
 13 48  1  0
 16 49  1  0
 16 50  1  0
 16 51  1  0
 18 52  1  0
 19 53  1  0
 20 54  1  0
 22 55  1  0
 23 56  1  0
 23 57  1  0
 24 58  1  0
 24 59  1  0
 25 60  1  0
 25 61  1  0
 27 62  1  0
 27 63  1  0
 27 64  1  0
 28 65  1  0
 28 66  1  0
 28 67  1  0
 29 68  1  0
 29 69  1  0
 29 70  1  0
M  CHG  3   7   1  15   1  26   1
M  END
>  <UniqueID>  (10) 
10

>  <SMILES>  (10) 
CCN(C)CC[NH2+]c1c2ccccc2[n+](C)c2cccc(NCCC[N+](C)(C)C)c12

>  <Energy>  (10) 
121.41938938251126

>  <Genealogy>  (10) 
CCN(C)CC[NH2+]c1c2ccccc2[n+](C)c2cccc(NCCC[N+](C)(C)C)c12 (protonated)
CCN(C)CC[NH2+]c1c2ccccc2[n+](C)c2cccc(NCCC[N+](C)(C)C)c12 (3D coordinates assigned)
CCN(C)CC[NH2+]c1c2ccccc2[n+](C)c2cccc(NCCC[N+](C)(C)C)c12 (optimized conformer: 121.41938938251126 kcal/mol)

>  <smiles>  (10) 
CCN(C)CCNc1c2ccccc2[n+](C)c2cccc(NCCC[N+](C)(C)C)c12

>  <score_type>  (10) 
oracle

>  <origin>  (10) 
adg

>  <m_score__min__energy>  (10) 
-2.77

>  <m_primary>  (10) 
energy

$$$$
10:0
     RDKit          3D

 43 43  0  0  0  0  0  0  0  0999 V2000
   56.0380   23.8450   44.0200 C   0  0  0  0  0  0  0  0  0  0  0  0
   54.9090   23.7210   45.0360 C   0  0  0  0  0  0  0  0  0  0  0  0
   55.2350   24.4060   46.2430 O   0  0  0  0  0  0  0  0  0  0  0  0
   55.8960   25.6380   46.2750 C   0  0  0  0  0  0  0  0  0  0  0  0
   55.2840   26.7050   45.9950 O   0  0  0  0  0  0  0  0  0  0  0  0
   57.3570   25.6900   46.6040 C   0  0  0  0  0  0  0  0  0  0  0  0
   57.7740   27.0780   47.1220 C   0  0  0  0  0  0  0  0  0  0  0  0
   59.2920   27.3140   47.0770 C   0  0  0  0  0  0  0  0  0  0  0  0
   59.6370   28.4600   46.2430 N   0  0  0  0  0  0  0  0  0  0  0  0
   59.3650   28.6050   44.8440 C   0  0  0  0  0  0  0  0  0  0  0  0
   60.1370   29.3230   44.1530 O   0  0  0  0  0  0  0  0  0  0  0  0
   58.1500   28.0050   44.1890 C   0  0  0  0  0  0  0  0  0  0  0  0
   57.3370   29.0240   43.6130 O   0  0  0  0  0  0  0  0  0  0  0  0
   56.7190   30.0290   44.3680 C   0  0  0  0  0  0  0  0  0  0  0  0
   55.5530   29.8500   44.8150 O   0  0  0  0  0  0  0  0  0  0  0  0
   57.4530   31.2840   44.6570 C   0  0  0  0  0  0  0  0  0  0  0  0
   57.8330   31.5510   45.9850 C   0  0  0  0  0  0  0  0  0  0  0  0
   58.5230   32.7240   46.3100 C   0  0  0  0  0  0  0  0  0  0  0  0
   58.9820   33.0520   48.0130 S   0  0  0  0  0  0  0  0  0  0  0  0
   59.2370   31.2950   48.4100 C   0  0  0  0  0  0  0  0  0  0  0  0
   58.8400   33.6460   45.3100 C   0  0  0  0  0  0  0  0  0  0  0  0
   58.4800   33.3920   43.9870 C   0  0  0  0  0  0  0  0  0  0  0  0
   57.7930   32.2200   43.6470 C   0  0  0  0  0  0  0  0  0  0  0  0
   57.4440   31.9530   41.9400 Cl  0  0  0  0  0  0  0  0  0  0  0  0
   56.9970   23.9503   44.5485 H   0  0  0  0  0  0  0  0  0  0  0  0
   56.0640   22.9443   43.3891 H   0  0  0  0  0  0  0  0  0  0  0  0
   55.8679   24.7299   43.3891 H   0  0  0  0  0  0  0  0  0  0  0  0
   53.9924   24.1560   44.6111 H   0  0  0  0  0  0  0  0  0  0  0  0
   54.7574   22.6560   45.2656 H   0  0  0  0  0  0  0  0  0  0  0  0
   57.5750   24.9400   47.3786 H   0  0  0  0  0  0  0  0  0  0  0  0
   57.9235   25.4824   45.6842 H   0  0  0  0  0  0  0  0  0  0  0  0
   57.2834   27.8434   46.5028 H   0  0  0  0  0  0  0  0  0  0  0  0
   57.4666   27.1376   48.1765 H   0  0  0  0  0  0  0  0  0  0  0  0
   59.6547   27.4956   48.0995 H   0  0  0  0  0  0  0  0  0  0  0  0
   59.7645   26.4204   46.6431 H   0  0  0  0  0  0  0  0  0  0  0  0
   58.4710   27.3092   43.3998 H   0  0  0  0  0  0  0  0  0  0  0  0
   57.5632   27.4710   44.9509 H   0  0  0  0  0  0  0  0  0  0  0  0
   57.5848   30.8292   46.7770 H   0  0  0  0  0  0  0  0  0  0  0  0
   59.2559   31.1649   49.5021 H   0  0  0  0  0  0  0  0  0  0  0  0
   58.4158   30.6999   47.9840 H   0  0  0  0  0  0  0  0  0  0  0  0
   60.1935   30.9579   47.9840 H   0  0  0  0  0  0  0  0  0  0  0  0
   59.3739   34.5730   45.5662 H   0  0  0  0  0  0  0  0  0  0  0  0
   58.7381   34.1191   43.2030 H   0  0  0  0  0  0  0  0  0  0  0  0
  1  2  1  0
  2  3  1  0
  3  4  1  0
  4  5  2  0
  4  6  1  0
  6  7  1  0
  7  8  1  0
  8  9  1  0
  9 10  1  0
 10 11  2  0
 10 12  1  0
 12 13  1  0
 13 14  1  0
 14 15  2  0
 14 16  1  0
 16 17  2  0
 17 18  1  0
 18 19  1  0
 19 20  1  0
 18 21  2  0
 21 22  1  0
 22 23  2  0
 23 24  1  0
 23 16  1  0
  1 25  1  0
  1 26  1  0
  1 27  1  0
  2 28  1  0
  2 29  1  0
  6 30  1  0
  6 31  1  0
  7 32  1  0
  7 33  1  0
  8 34  1  0
  8 35  1  0
 12 36  1  0
 12 37  1  0
 17 38  1  0
 20 39  1  0
 20 40  1  0
 20 41  1  0
 21 42  1  0
 22 43  1  0
M  CHG  1   9  -1
M  END
>  <UniqueID>  (11) 
11

>  <SMILES>  (11) 
CCOC(=O)CCC[N-]C(=O)COC(=O)c1cc(SC)ccc1Cl

>  <Energy>  (11) 
27.969467058760205

>  <Genealogy>  (11) 
CCOC(=O)CCC[N-]C(=O)COC(=O)c1cc(SC)ccc1Cl (protonated)
CCOC(=O)CCC[N-]C(=O)COC(=O)c1cc(SC)ccc1Cl (3D coordinates assigned)
CCOC(=O)CCC[N-]C(=O)COC(=O)c1cc(SC)ccc1Cl (optimized conformer: 27.969467058760205 kcal/mol)

>  <smiles>  (11) 
CCOC(=O)CCCNC(=O)COC(=O)c1cc(SC)ccc1Cl

>  <score_type>  (11) 
oracle

>  <origin>  (11) 
adg

>  <m_score__min__energy>  (11) 
-8.6199999999999992

>  <m_primary>  (11) 
energy

$$$$
11:0
     RDKit          3D

 45 48  0  0  0  0  0  0  0  0999 V2000
   57.3680   32.3390   40.8980 C   0  0  0  0  0  0  0  0  0  0  0  0
   57.6320   32.0800   42.3460 C   0  0  0  0  0  0  0  0  0  0  0  0
   58.2930   33.0300   43.1270 C   0  0  0  0  0  0  0  0  0  0  0  0
   58.5340   32.7610   44.4740 C   0  0  0  0  0  0  0  0  0  0  0  0
   58.1200   31.5480   45.0390 C   0  0  0  0  0  0  0  0  0  0  0  0
   58.4090   31.2970   46.4640 C   0  0  0  0  0  0  0  0  0  0  0  0
   58.7420   30.0740   46.9460 N   0  0  0  0  0  0  0  0  0  0  0  0
   58.9310   30.2900   48.2650 C   0  0  0  0  0  0  0  0  0  0  0  0
   59.2800   29.3260   49.2080 C   0  0  0  0  0  0  0  0  0  0  0  0
   59.4050   29.7380   50.5460 C   0  0  0  0  0  0  0  0  0  0  0  0
   59.1770   31.0810   50.9030 C   0  0  0  0  0  0  0  0  0  0  0  0
   58.8250   32.0090   49.9120 C   0  0  0  0  0  0  0  0  0  0  0  0
   58.7270   31.5690   48.6310 N   0  0  0  0  0  0  0  0  0  0  0  0
   58.3920   32.2160   47.5060 C   0  0  0  0  0  0  0  0  0  0  0  0
   57.9680   33.5820   47.4590 N   0  0  0  0  0  0  0  0  0  0  0  0
   58.9090   34.6460   47.1200 C   0  0  0  0  0  0  0  0  0  0  0  0
   60.3200   34.2340   47.4320 C   0  0  0  0  0  0  0  0  0  0  0  0
   61.1960   33.8480   46.4040 C   0  0  0  0  0  0  0  0  0  0  0  0
   62.5140   33.4860   46.7000 C   0  0  0  0  0  0  0  0  0  0  0  0
   62.9650   33.5030   48.0230 C   0  0  0  0  0  0  0  0  0  0  0  0
   62.0990   33.8850   49.0520 C   0  0  0  0  0  0  0  0  0  0  0  0
   60.7830   34.2550   48.7590 C   0  0  0  0  0  0  0  0  0  0  0  0
   57.3950   30.6380   44.2320 C   0  0  0  0  0  0  0  0  0  0  0  0
   56.8260   29.3560   44.7690 C   0  0  0  0  0  0  0  0  0  0  0  0
   57.1900   30.9270   42.9170 N   0  0  0  0  0  0  0  0  0  0  0  0
   56.5859   33.1062   40.7994 H   0  0  0  0  0  0  0  0  0  0  0  0
   58.2909   32.6918   40.4144 H   0  0  0  0  0  0  0  0  0  0  0  0
   57.0329   31.4096   40.4144 H   0  0  0  0  0  0  0  0  0  0  0  0
   58.6207   33.9820   42.6839 H   0  0  0  0  0  0  0  0  0  0  0  0
   59.0521   33.5056   45.0962 H   0  0  0  0  0  0  0  0  0  0  0  0
   59.4517   28.2795   48.9159 H   0  0  0  0  0  0  0  0  0  0  0  0
   59.6827   29.0066   51.3193 H   0  0  0  0  0  0  0  0  0  0  0  0
   59.2742   31.3999   51.9513 H   0  0  0  0  0  0  0  0  0  0  0  0
   58.6339   33.0623   50.1650 H   0  0  0  0  0  0  0  0  0  0  0  0
   56.9540   33.7610   47.2800 H   0  0  0  0  0  0  0  0  0  0  0  0
   58.8283   34.8694   46.0460 H   0  0  0  0  0  0  0  0  0  0  0  0
   58.6628   35.5362   47.7174 H   0  0  0  0  0  0  0  0  0  0  0  0
   60.8439   33.8304   45.3620 H   0  0  0  0  0  0  0  0  0  0  0  0
   63.1966   33.1875   45.8907 H   0  0  0  0  0  0  0  0  0  0  0  0
   64.0013   33.2158   48.2545 H   0  0  0  0  0  0  0  0  0  0  0  0
   62.4535   33.8944   50.0933 H   0  0  0  0  0  0  0  0  0  0  0  0
   60.1072   34.5638   49.5702 H   0  0  0  0  0  0  0  0  0  0  0  0
   56.8375   29.3820   45.8686 H   0  0  0  0  0  0  0  0  0  0  0  0
   55.7909   29.2379   44.4158 H   0  0  0  0  0  0  0  0  0  0  0  0
   57.4328   28.5092   44.4158 H   0  0  0  0  0  0  0  0  0  0  0  0
  1  2  1  0
  2  3  2  0
  3  4  1  0
  4  5  2  0
  5  6  1  0
  6  7  1  0
  7  8  2  0
  8  9  1  0
  9 10  2  0
 10 11  1  0
 11 12  2  0
 12 13  1  0
 13 14  1  0
 14 15  1  0
 15 16  1  0
 16 17  1  0
 17 18  2  0
 18 19  1  0
 19 20  2  0
 20 21  1  0
 21 22  2  0
  5 23  1  0
 23 24  1  0
 23 25  2  0
 25  2  1  0
 14  6  2  0
 22 17  1  0
 13  8  1  0
  1 26  1  0
  1 27  1  0
  1 28  1  0
  3 29  1  0
  4 30  1  0
  9 31  1  0
 10 32  1  0
 11 33  1  0
 12 34  1  0
 15 35  1  0
 16 36  1  0
 16 37  1  0
 18 38  1  0
 19 39  1  0
 20 40  1  0
 21 41  1  0
 22 42  1  0
 24 43  1  0
 24 44  1  0
 24 45  1  0
M  END
>  <UniqueID>  (12) 
12

>  <SMILES>  (12) 
Cc1ccc(-c2nc3ccccn3c2NCc2ccccc2)c(C)n1

>  <Energy>  (12) 
90.22790437509008

>  <Genealogy>  (12) 
Cc1ccc(-c2nc3ccccn3c2NCc2ccccc2)c(C)n1 (3D coordinates assigned)
Cc1ccc(-c2nc3ccccn3c2NCc2ccccc2)c(C)n1 (optimized conformer: 90.22790437509008 kcal/mol)

>  <smiles>  (12) 
Cc1ccc(-c2nc3ccccn3c2NCc2ccccc2)c(C)n1

>  <score_type>  (12) 
oracle

>  <origin>  (12) 
adg

>  <m_score__min__energy>  (12) 
-7.7199999999999998

>  <m_primary>  (12) 
energy

$$$$
12:0
     RDKit          3D

 72 75  0  0  0  0  0  0  0  0999 V2000
   56.5940   22.1380   42.6320 C   0  0  0  0  0  0  0  0  0  0  0  0
   56.6900   21.3490   43.9340 C   0  0  0  0  0  0  0  0  0  0  0  0
   56.3440   22.1700   45.0500 O   0  0  0  0  0  0  0  0  0  0  0  0
   56.8520   23.4550   45.3080 C   0  0  0  0  0  0  0  0  0  0  0  0
   58.2310   23.7320   45.3720 C   0  0  0  0  0  0  0  0  0  0  0  0
   58.6780   25.0310   45.6330 C   0  0  0  0  0  0  0  0  0  0  0  0
   57.7580   26.0720   45.8290 C   0  0  0  0  0  0  0  0  0  0  0  0
   58.2360   27.4430   46.1240 C   0  0  0  0  0  0  0  0  0  0  0  0
   58.7120   27.7070   47.4070 C   0  0  0  0  0  0  0  0  0  0  0  0
   59.1130   28.9910   47.7650 C   0  0  0  0  0  0  0  0  0  0  0  0
   59.6760   29.2360   49.1480 C   0  0  0  0  0  0  0  0  0  0  0  0
   60.6150   30.3690   49.1240 N   0  0  0  0  0  0  0  0  0  0  0  0
   61.5850   30.3210   50.2330 C   0  0  0  0  0  0  0  0  0  0  0  0
   62.2910   31.6710   50.4540 C   0  0  0  0  0  0  0  0  0  0  0  0
   62.5660   32.3420   49.1410 C   0  0  0  0  0  0  0  0  0  0  0  0
   63.8540   32.8010   48.8260 C   0  0  0  0  0  0  0  0  0  0  0  0
   64.0720   33.4490   47.6090 C   0  0  0  0  0  0  0  0  0  0  0  0
   63.0110   33.6380   46.7230 C   0  0  0  0  0  0  0  0  0  0  0  0
   61.7390   33.1780   47.0730 C   0  0  0  0  0  0  0  0  0  0  0  0
   61.5460   32.5490   48.2630 N   0  0  0  0  0  0  0  0  0  0  0  0
   59.0410   30.0180   46.8130 C   0  0  0  0  0  0  0  0  0  0  0  0
   59.4010   31.1820   47.1440 O   0  0  0  0  0  0  0  0  0  0  0  0
   58.5880   29.7690   45.5350 N   0  0  0  0  0  0  0  0  0  0  0  0
   58.5400   30.8920   44.5690 C   0  0  0  0  0  0  0  0  0  0  0  0
   57.2060   31.6540   44.6720 C   0  0  0  0  0  0  0  0  0  0  0  0
   57.4200   33.1180   44.7410 N   0  0  0  0  0  0  0  0  0  0  0  0
   57.0160   33.6780   46.0540 C   0  0  0  0  0  0  0  0  0  0  0  0
   58.2230   33.8440   46.9960 C   0  0  0  0  0  0  0  0  0  0  0  0
   59.2480   34.6870   46.4870 O   0  0  0  0  0  0  0  0  0  0  0  0
   59.2560   34.7840   45.0710 C   0  0  0  0  0  0  0  0  0  0  0  0
   58.8120   33.4870   44.3740 C   0  0  0  0  0  0  0  0  0  0  0  0
   58.2200   28.4860   45.1610 C   0  0  0  0  0  0  0  0  0  0  0  0
   57.7690   28.1800   43.7430 C   0  0  0  0  0  0  0  0  0  0  0  0
   56.3840   25.7920   45.7820 C   0  0  0  0  0  0  0  0  0  0  0  0
   55.9380   24.4950   45.5210 C   0  0  0  0  0  0  0  0  0  0  0  0
   56.4640   23.2064   42.8594 H   0  0  0  0  0  0  0  0  0  0  0  0
   57.5160   21.9968   42.0489 H   0  0  0  0  0  0  0  0  0  0  0  0
   55.7328   21.7798   42.0489 H   0  0  0  0  0  0  0  0  0  0  0  0
   56.0010   20.4927   43.8886 H   0  0  0  0  0  0  0  0  0  0  0  0
   57.7256   21.0003   44.0599 H   0  0  0  0  0  0  0  0  0  0  0  0
   58.9599   22.9230   45.2160 H   0  0  0  0  0  0  0  0  0  0  0  0
   59.7571   25.2379   45.6849 H   0  0  0  0  0  0  0  0  0  0  0  0
   58.7714   26.8926   48.1441 H   0  0  0  0  0  0  0  0  0  0  0  0
   58.8518   29.4624   49.8404 H   0  0  0  0  0  0  0  0  0  0  0  0
   60.2113   28.3347   49.4812 H   0  0  0  0  0  0  0  0  0  0  0  0
   60.0730   31.2600   49.2170 H   0  0  0  0  0  0  0  0  0  0  0  0
   61.1220   30.3920   48.2080 H   0  0  0  0  0  0  0  0  0  0  0  0
   61.0533   30.0452   51.1556 H   0  0  0  0  0  0  0  0  0  0  0  0
   62.3543   29.5787   49.9738 H   0  0  0  0  0  0  0  0  0  0  0  0
   61.6466   32.3207   51.0644 H   0  0  0  0  0  0  0  0  0  0  0  0
   63.2465   31.4923   50.9689 H   0  0  0  0  0  0  0  0  0  0  0  0
   64.6844   32.6515   49.5317 H   0  0  0  0  0  0  0  0  0  0  0  0
   65.0781   33.8098   47.3491 H   0  0  0  0  0  0  0  0  0  0  0  0
   63.1741   34.1435   45.7597 H   0  0  0  0  0  0  0  0  0  0  0  0
   60.8930   33.3248   46.3854 H   0  0  0  0  0  0  0  0  0  0  0  0
   59.3672   31.5851   44.7822 H   0  0  0  0  0  0  0  0  0  0  0  0
   58.6314   30.4827   43.5521 H   0  0  0  0  0  0  0  0  0  0  0  0
   56.5938   31.4237   43.7876 H   0  0  0  0  0  0  0  0  0  0  0  0
   56.6977   31.3361   45.5943 H   0  0  0  0  0  0  0  0  0  0  0  0
   56.5501   34.6616   45.8943 H   0  0  0  0  0  0  0  0  0  0  0  0
   56.3078   32.9788   46.5227 H   0  0  0  0  0  0  0  0  0  0  0  0
   57.8644   34.2710   47.9442 H   0  0  0  0  0  0  0  0  0  0  0  0
   58.6674   32.8453   47.1192 H   0  0  0  0  0  0  0  0  0  0  0  0
   58.5736   35.5933   44.7718 H   0  0  0  0  0  0  0  0  0  0  0  0
   60.2927   34.9835   44.7622 H   0  0  0  0  0  0  0  0  0  0  0  0
   58.8681   33.6298   43.2848 H   0  0  0  0  0  0  0  0  0  0  0  0
   59.4801   32.6757   44.6987 H   0  0  0  0  0  0  0  0  0  0  0  0
   56.8591   27.5626   43.7728 H   0  0  0  0  0  0  0  0  0  0  0  0
   57.5564   29.1211   43.2147 H   0  0  0  0  0  0  0  0  0  0  0  0
   58.5649   27.6347   43.2147 H   0  0  0  0  0  0  0  0  0  0  0  0
   55.6549   26.5980   45.9516 H   0  0  0  0  0  0  0  0  0  0  0  0
   54.8584   24.2878   45.4822 H   0  0  0  0  0  0  0  0  0  0  0  0
  1  2  1  0
  2  3  1  0
  3  4  1  0
  4  5  2  0
  5  6  1  0
  6  7  2  0
  7  8  1  0
  8  9  1  0
  9 10  2  0
 10 11  1  0
 11 12  1  0
 12 13  1  0
 13 14  1  0
 14 15  1  0
 15 16  2  0
 16 17  1  0
 17 18  2  0
 18 19  1  0
 19 20  2  0
 10 21  1  0
 21 22  2  0
 21 23  1  0
 23 24  1  0
 24 25  1  0
 25 26  1  0
 26 27  1  0
 27 28  1  0
 28 29  1  0
 29 30  1  0
 30 31  1  0
 23 32  1  0
 32 33  1  0
  7 34  1  0
 34 35  2  0
 35  4  1  0
 32  8  2  0
 20 15  1  0
 31 26  1  0
  1 36  1  0
  1 37  1  0
  1 38  1  0
  2 39  1  0
  2 40  1  0
  5 41  1  0
  6 42  1  0
  9 43  1  0
 11 44  1  0
 11 45  1  0
 12 46  1  0
 12 47  1  0
 13 48  1  0
 13 49  1  0
 14 50  1  0
 14 51  1  0
 16 52  1  0
 17 53  1  0
 18 54  1  0
 19 55  1  0
 24 56  1  0
 24 57  1  0
 25 58  1  0
 25 59  1  0
 27 60  1  0
 27 61  1  0
 28 62  1  0
 28 63  1  0
 30 64  1  0
 30 65  1  0
 31 66  1  0
 31 67  1  0
 33 68  1  0
 33 69  1  0
 33 70  1  0
 34 71  1  0
 35 72  1  0
M  CHG  1  12   1
M  END
>  <UniqueID>  (13) 
13

>  <SMILES>  (13) 
CCOc1ccc(-c2cc(C[NH2+]CCc3ccccn3)c(=O)n(CCN3CCOCC3)c2C)cc1

>  <Energy>  (13) 
99.98199959831786

>  <Genealogy>  (13) 
CCOc1ccc(-c2cc(C[NH2+]CCc3ccccn3)c(=O)n(CCN3CCOCC3)c2C)cc1 (protonated)
CCOc1ccc(-c2cc(C[NH2+]CCc3ccccn3)c(=O)n(CCN3CCOCC3)c2C)cc1 (3D coordinates assigned)
CCOc1ccc(-c2cc(C[NH2+]CCc3ccccn3)c(=O)n(CCN3CCOCC3)c2C)cc1 (nonaromatic ring conformer: 99.98199959831786 kcal/mol)

>  <smiles>  (13) 
CCOc1ccc(-c2cc(CNCCc3ccccn3)c(=O)n(CCN3CCOCC3)c2C)cc1

>  <score_type>  (13) 
oracle

>  <origin>  (13) 
adg

>  <m_score__min__energy>  (13) 
-6.9000000000000004

>  <m_primary>  (13) 
energy

$$$$
13:0
     RDKit          3D

 59 61  0  0  0  0  0  0  0  0999 V2000
   58.7610   34.7510   44.8750 C   0  0  0  0  0  0  0  0  0  0  0  0
   59.7100   35.3260   45.9290 C   0  0  0  0  0  0  0  0  0  0  0  0
   60.6610   34.2550   46.4800 C   0  0  0  0  0  0  0  0  0  0  0  0
   60.5930   34.2200   47.9610 N   0  0  0  0  0  0  0  0  0  0  0  0
   61.7060   33.4340   48.5420 C   0  0  0  0  0  0  0  0  0  0  0  0
   62.9680   33.5050   47.6710 C   0  0  0  0  0  0  0  0  0  0  0  0
   63.3630   32.1230   47.1570 C   0  0  0  0  0  0  0  0  0  0  0  0
   59.2480   33.8320   48.4500 C   0  0  0  0  0  0  0  0  0  0  0  0
   58.5740   32.7290   47.6080 C   0  0  0  0  0  0  0  0  0  0  0  0
   59.5370   31.6880   47.2480 N   0  0  0  0  0  0  0  0  0  0  0  0
   59.1190   30.4440   46.6610 C   0  0  0  0  0  0  0  0  0  0  0  0
   58.3550   30.4600   45.4800 C   0  0  0  0  0  0  0  0  0  0  0  0
   58.1370   31.6640   44.7750 C   0  0  0  0  0  0  0  0  0  0  0  0
   57.4080   31.6730   43.5890 C   0  0  0  0  0  0  0  0  0  0  0  0
   56.9030   30.4860   43.0730 C   0  0  0  0  0  0  0  0  0  0  0  0
   57.1090   29.2840   43.7500 C   0  0  0  0  0  0  0  0  0  0  0  0
   57.8190   29.2470   44.9780 C   0  0  0  0  0  0  0  0  0  0  0  0
   58.0090   28.0690   45.6730 N   0  0  0  0  0  0  0  0  0  0  0  0
   57.1990   26.8750   45.3370 C   0  0  0  0  0  0  0  0  0  0  0  0
   58.9430   28.0070   46.6890 C   0  0  0  0  0  0  0  0  0  0  0  0
   59.3800   26.7630   47.2050 C   0  0  0  0  0  0  0  0  0  0  0  0
   60.2740   26.6970   48.2640 C   0  0  0  0  0  0  0  0  0  0  0  0
   60.7700   27.8600   48.8340 C   0  0  0  0  0  0  0  0  0  0  0  0
   60.4060   29.1210   48.3310 C   0  0  0  0  0  0  0  0  0  0  0  0
   60.9420   30.2900   48.8990 O   0  0  0  0  0  0  0  0  0  0  0  0
   61.1470   30.5060   50.2930 C   0  0  0  0  0  0  0  0  0  0  0  0
   59.4970   29.2050   47.2340 C   0  0  0  0  0  0  0  0  0  0  0  0
   57.9228   34.2431   45.3744 H   0  0  0  0  0  0  0  0  0  0  0  0
   58.3736   35.5664   44.2465 H   0  0  0  0  0  0  0  0  0  0  0  0
   59.3045   34.0302   44.2465 H   0  0  0  0  0  0  0  0  0  0  0  0
   60.3051   36.1304   45.4721 H   0  0  0  0  0  0  0  0  0  0  0  0
   59.1044   35.7094   46.7634 H   0  0  0  0  0  0  0  0  0  0  0  0
   60.3715   33.2720   46.0800 H   0  0  0  0  0  0  0  0  0  0  0  0
   61.6894   34.4978   46.1744 H   0  0  0  0  0  0  0  0  0  0  0  0
   61.9396   33.8316   49.5407 H   0  0  0  0  0  0  0  0  0  0  0  0
   61.3887   32.3823   48.6000 H   0  0  0  0  0  0  0  0  0  0  0  0
   62.7748   34.1652   46.8127 H   0  0  0  0  0  0  0  0  0  0  0  0
   63.7927   33.8971   48.2843 H   0  0  0  0  0  0  0  0  0  0  0  0
   63.5538   31.4553   48.0101 H   0  0  0  0  0  0  0  0  0  0  0  0
   62.5463   31.7121   46.5453 H   0  0  0  0  0  0  0  0  0  0  0  0
   64.2735   32.2057   46.5453 H   0  0  0  0  0  0  0  0  0  0  0  0
   59.3463   33.4682   49.4834 H   0  0  0  0  0  0  0  0  0  0  0  0
   58.6104   34.7254   48.3772 H   0  0  0  0  0  0  0  0  0  0  0  0
   57.7573   32.2786   48.1912 H   0  0  0  0  0  0  0  0  0  0  0  0
   58.1817   33.1806   46.6849 H   0  0  0  0  0  0  0  0  0  0  0  0
   60.5600   31.8880   47.3260 H   0  0  0  0  0  0  0  0  0  0  0  0
   58.5480   32.6058   45.1675 H   0  0  0  0  0  0  0  0  0  0  0  0
   57.2316   32.6211   43.0598 H   0  0  0  0  0  0  0  0  0  0  0  0
   56.3394   30.4941   42.1284 H   0  0  0  0  0  0  0  0  0  0  0  0
   56.7145   28.3493   43.3249 H   0  0  0  0  0  0  0  0  0  0  0  0
   56.8665   26.3848   46.2639 H   0  0  0  0  0  0  0  0  0  0  0  0
   56.3213   27.1810   44.7488 H   0  0  0  0  0  0  0  0  0  0  0  0
   57.8078   26.1726   44.7488 H   0  0  0  0  0  0  0  0  0  0  0  0
   59.0036   25.8312   46.7578 H   0  0  0  0  0  0  0  0  0  0  0  0
   60.5907   25.7181   48.6532 H   0  0  0  0  0  0  0  0  0  0  0  0
   61.4570   27.7947   49.6906 H   0  0  0  0  0  0  0  0  0  0  0  0
   60.5016   29.8259   50.8682 H   0  0  0  0  0  0  0  0  0  0  0  0
   62.2003   30.3111   50.5432 H   0  0  0  0  0  0  0  0  0  0  0  0
   60.8974   31.5477   50.5432 H   0  0  0  0  0  0  0  0  0  0  0  0
  1  2  1  0
  2  3  1  0
  3  4  1  0
  4  5  1  0
  5  6  1  0
  6  7  1  0
  4  8  1  0
  8  9  1  0
  9 10  1  0
 10 11  1  0
 11 12  2  0
 12 13  1  0
 13 14  2  0
 14 15  1  0
 15 16  2  0
 16 17  1  0
 17 18  2  0
 18 19  1  0
 18 20  1  0
 20 21  2  0
 21 22  1  0
 22 23  2  0
 23 24  1  0
 24 25  1  0
 25 26  1  0
 24 27  2  0
 27 11  1  0
 17 12  1  0
 27 20  1  0
  1 28  1  0
  1 29  1  0
  1 30  1  0
  2 31  1  0
  2 32  1  0
  3 33  1  0
  3 34  1  0
  5 35  1  0
  5 36  1  0
  6 37  1  0
  6 38  1  0
  7 39  1  0
  7 40  1  0
  7 41  1  0
  8 42  1  0
  8 43  1  0
  9 44  1  0
  9 45  1  0
 10 46  1  0
 13 47  1  0
 14 48  1  0
 15 49  1  0
 16 50  1  0
 19 51  1  0
 19 52  1  0
 19 53  1  0
 21 54  1  0
 22 55  1  0
 23 56  1  0
 26 57  1  0
 26 58  1  0
 26 59  1  0
M  CHG  1  18   1
M  END
>  <UniqueID>  (14) 
14

>  <SMILES>  (14) 
CCCN(CCC)CCNc1c2ccccc2[n+](C)c2cccc(OC)c12

>  <Energy>  (14) 
84.07034799939389

>  <Genealogy>  (14) 
CCCN(CCC)CCNc1c2ccccc2[n+](C)c2cccc(OC)c12 (3D coordinates assigned)
CCCN(CCC)CCNc1c2ccccc2[n+](C)c2cccc(OC)c12 (optimized conformer: 84.07034799939389 kcal/mol)

>  <smiles>  (14) 
CCCN(CCC)CCNc1c2ccccc2[n+](C)c2cccc(OC)c12

>  <score_type>  (14) 
oracle

>  <origin>  (14) 
adg

>  <m_score__min__energy>  (14) 
-5.4299999999999997

>  <m_primary>  (14) 
energy

$$$$
14:0
     RDKit          3D

 59 61  0  0  0  0  0  0  0  0999 V2000
   59.2310   34.8690   46.7940 C   0  0  0  0  0  0  0  0  0  0  0  0
   59.5620   33.9900   45.5920 C   0  0  0  0  0  0  0  0  0  0  0  0
   58.5520   32.9370   45.4480 N   0  0  0  0  0  0  0  0  0  0  0  0
   57.7530   33.1580   44.2350 C   0  0  0  0  0  0  0  0  0  0  0  0
   57.7360   31.8930   43.3700 C   0  0  0  0  0  0  0  0  0  0  0  0
   56.6470   30.8990   43.8170 C   0  0  0  0  0  0  0  0  0  0  0  0
   57.2290   29.7670   44.6790 C   0  0  0  0  0  0  0  0  0  0  0  0
   57.7120   30.2920   45.9650 N   0  0  0  0  0  0  0  0  0  0  0  0
   58.5680   29.3090   46.6420 C   0  0  0  0  0  0  0  0  0  0  0  0
   59.6530   30.0110   47.4830 C   0  0  0  0  0  0  0  0  0  0  0  0
   59.5980   31.4890   47.4200 N   0  0  0  0  0  0  0  0  0  0  0  0
   60.2890   32.1320   48.5280 C   0  0  0  0  0  0  0  0  0  0  0  0
   61.6250   32.5390   48.3660 C   0  0  0  0  0  0  0  0  0  0  0  0
   62.3360   33.0930   49.4010 C   0  0  0  0  0  0  0  0  0  0  0  0
   61.7890   33.2820   50.6420 N   0  0  0  0  0  0  0  0  0  0  0  0
   62.6060   33.8670   51.7260 C   0  0  0  0  0  0  0  0  0  0  0  0
   60.4610   32.9550   50.8520 C   0  0  0  0  0  0  0  0  0  0  0  0
   59.8420   33.1810   52.1080 C   0  0  0  0  0  0  0  0  0  0  0  0
   58.5090   32.8480   52.3250 C   0  0  0  0  0  0  0  0  0  0  0  0
   57.7530   32.2920   51.3040 C   0  0  0  0  0  0  0  0  0  0  0  0
   58.3210   32.0620   50.0530 C   0  0  0  0  0  0  0  0  0  0  0  0
   59.6770   32.3780   49.7950 C   0  0  0  0  0  0  0  0  0  0  0  0
   63.7210   33.4510   48.9830 C   0  0  0  0  0  0  0  0  0  0  0  0
   63.7770   33.1220   47.4870 C   0  0  0  0  0  0  0  0  0  0  0  0
   62.4330   32.4860   47.1140 C   0  0  0  0  0  0  0  0  0  0  0  0
   59.4394   34.3155   47.7215 H   0  0  0  0  0  0  0  0  0  0  0  0
   59.8480   35.7792   46.7636 H   0  0  0  0  0  0  0  0  0  0  0  0
   58.1669   35.1461   46.7636 H   0  0  0  0  0  0  0  0  0  0  0  0
   59.5766   34.6077   44.6819 H   0  0  0  0  0  0  0  0  0  0  0  0
   60.5479   33.5265   45.7440 H   0  0  0  0  0  0  0  0  0  0  0  0
   59.0540   32.0250   45.3420 H   0  0  0  0  0  0  0  0  0  0  0  0
   56.7226   33.4154   44.5214 H   0  0  0  0  0  0  0  0  0  0  0  0
   58.2006   33.9800   43.6571 H   0  0  0  0  0  0  0  0  0  0  0  0
   57.5465   32.1804   42.3253 H   0  0  0  0  0  0  0  0  0  0  0  0
   58.7118   31.3967   43.4771 H   0  0  0  0  0  0  0  0  0  0  0  0
   55.8896   31.4400   44.4032 H   0  0  0  0  0  0  0  0  0  0  0  0
   56.2023   30.4501   42.9166 H   0  0  0  0  0  0  0  0  0  0  0  0
   56.4471   29.0162   44.8657 H   0  0  0  0  0  0  0  0  0  0  0  0
   58.0739   29.3109   44.1422 H   0  0  0  0  0  0  0  0  0  0  0  0
   58.2680   31.1530   45.7860 H   0  0  0  0  0  0  0  0  0  0  0  0
   57.9476   28.6855   47.3026 H   0  0  0  0  0  0  0  0  0  0  0  0
   59.0612   28.6882   45.8795 H   0  0  0  0  0  0  0  0  0  0  0  0
   59.5303   29.7043   48.5322 H   0  0  0  0  0  0  0  0  0  0  0  0
   60.6251   29.7096   47.0658 H   0  0  0  0  0  0  0  0  0  0  0  0
   60.0600   31.7820   46.5300 H   0  0  0  0  0  0  0  0  0  0  0  0
   58.6170   31.8150   47.3000 H   0  0  0  0  0  0  0  0  0  0  0  0
   62.1903   33.5693   52.6999 H   0  0  0  0  0  0  0  0  0  0  0  0
   63.6408   33.5033   51.6424 H   0  0  0  0  0  0  0  0  0  0  0  0
   62.5950   34.9638   51.6424 H   0  0  0  0  0  0  0  0  0  0  0  0
   60.4268   33.6278   52.9255 H   0  0  0  0  0  0  0  0  0  0  0  0
   58.0529   33.0263   53.3100 H   0  0  0  0  0  0  0  0  0  0  0  0
   56.6994   32.0313   51.4829 H   0  0  0  0  0  0  0  0  0  0  0  0
   57.7055   31.6274   49.2516 H   0  0  0  0  0  0  0  0  0  0  0  0
   63.9121   34.5211   49.1517 H   0  0  0  0  0  0  0  0  0  0  0  0
   64.4824   32.9026   49.5571 H   0  0  0  0  0  0  0  0  0  0  0  0
   63.9338   34.0416   46.9042 H   0  0  0  0  0  0  0  0  0  0  0  0
   64.6086   32.4360   47.2681 H   0  0  0  0  0  0  0  0  0  0  0  0
   61.9430   33.0580   46.3123 H   0  0  0  0  0  0  0  0  0  0  0  0
   62.5501   31.4585   46.7390 H   0  0  0  0  0  0  0  0  0  0  0  0
  1  2  1  0
  2  3  1  0
  3  4  1  0
  4  5  1  0
  5  6  1  0
  6  7  1  0
  7  8  1  0
  8  9  1  0
  9 10  1  0
 10 11  1  0
 11 12  1  0
 12 13  2  0
 13 14  1  0
 14 15  2  0
 15 16  1  0
 15 17  1  0
 17 18  2  0
 18 19  1  0
 19 20  2  0
 20 21  1  0
 21 22  2  0
 14 23  1  0
 23 24  1  0
 24 25  1  0
 22 12  1  0
 25 13  1  0
 22 17  1  0
  1 26  1  0
  1 27  1  0
  1 28  1  0
  2 29  1  0
  2 30  1  0
  3 31  1  0
  4 32  1  0
  4 33  1  0
  5 34  1  0
  5 35  1  0
  6 36  1  0
  6 37  1  0
  7 38  1  0
  7 39  1  0
  8 40  1  0
  9 41  1  0
  9 42  1  0
 10 43  1  0
 10 44  1  0
 11 45  1  0
 11 46  1  0
 16 47  1  0
 16 48  1  0
 16 49  1  0
 18 50  1  0
 19 51  1  0
 20 52  1  0
 21 53  1  0
 23 54  1  0
 23 55  1  0
 24 56  1  0
 24 57  1  0
 25 58  1  0
 25 59  1  0
M  CHG  2  11   1  15   1
M  END
>  <UniqueID>  (15) 
15

>  <SMILES>  (15) 
CCNCCCCNCC[NH2+]c1c2c([n+](C)c3ccccc13)CCC2

>  <Energy>  (15) 
69.2873990877478

>  <Genealogy>  (15) 
CCNCCCCNCC[NH2+]c1c2c([n+](C)c3ccccc13)CCC2 (protonated)
CCNCCCCNCC[NH2+]c1c2c([n+](C)c3ccccc13)CCC2 (3D coordinates assigned)
CCNCCCCNCC[NH2+]c1c2c([n+](C)c3ccccc13)CCC2 (nonaromatic ring conformer: 69.2873990877478 kcal/mol)

>  <smiles>  (15) 
CCNCCCCNCCNc1c2c([n+](C)c3ccccc13)CCC2

>  <score_type>  (15) 
oracle

>  <origin>  (15) 
adg

>  <m_score__min__energy>  (15) 
-3.1800000000000002

>  <m_primary>  (15) 
energy

$$$$
15:0
     RDKit          3D

 33 34  0  0  0  0  0  0  0  0999 V2000
   55.8620   29.7180   44.1090 C   0  0  0  0  0  0  0  0  0  0  0  0
   56.9040   30.8350   43.9590 C   0  0  0  0  0  0  0  0  0  0  0  0
   57.2830   31.4870   45.2300 N   0  0  0  0  0  0  0  0  0  0  0  0
   58.5600   30.9950   45.7890 C   0  0  0  0  0  0  0  0  0  0  0  0
   58.9900   31.8690   46.9740 C   0  0  0  0  0  0  0  0  0  0  0  0
   59.2460   33.2970   46.5670 N   0  0  0  0  0  0  0  0  0  0  0  0
   58.9250   34.2100   47.6910 C   0  0  0  0  0  0  0  0  0  0  0  0
   60.1320   34.2130   48.6180 C   0  0  0  0  0  0  0  0  0  0  0  0
   61.3070   33.8390   47.7290 C   0  0  0  0  0  0  0  0  0  0  0  0
   60.6980   33.5160   46.3660 C   0  0  0  0  0  0  0  0  0  0  0  0
   58.4950   33.6750   45.3260 C   0  0  0  0  0  0  0  0  0  0  0  0
   57.1360   32.9630   45.2350 C   0  0  0  0  0  0  0  0  0  0  0  0
   55.6822   29.5253   45.1770 H   0  0  0  0  0  0  0  0  0  0  0  0
   54.9218   30.0268   43.6288 H   0  0  0  0  0  0  0  0  0  0  0  0
   56.2353   28.8015   43.6288 H   0  0  0  0  0  0  0  0  0  0  0  0
   57.8103   30.4028   43.5098 H   0  0  0  0  0  0  0  0  0  0  0  0
   56.4447   31.6123   43.3306 H   0  0  0  0  0  0  0  0  0  0  0  0
   58.4316   29.9572   46.1304 H   0  0  0  0  0  0  0  0  0  0  0  0
   59.3347   31.0402   45.0094 H   0  0  0  0  0  0  0  0  0  0  0  0
   58.1930   31.8545   47.7320 H   0  0  0  0  0  0  0  0  0  0  0  0
   59.9298   31.4585   47.3719 H   0  0  0  0  0  0  0  0  0  0  0  0
   58.7371   35.2253   47.3116 H   0  0  0  0  0  0  0  0  0  0  0  0
   58.0216   33.8767   48.2227 H   0  0  0  0  0  0  0  0  0  0  0  0
   60.2807   35.2106   49.0570 H   0  0  0  0  0  0  0  0  0  0  0  0
   60.0102   33.5153   49.4596 H   0  0  0  0  0  0  0  0  0  0  0  0
   62.0103   34.6807   47.6465 H   0  0  0  0  0  0  0  0  0  0  0  0
   61.8732   32.9882   48.1359 H   0  0  0  0  0  0  0  0  0  0  0  0
   60.8588   34.3560   45.6743 H   0  0  0  0  0  0  0  0  0  0  0  0
   61.1686   32.6205   45.9340 H   0  0  0  0  0  0  0  0  0  0  0  0
   58.3266   34.7620   45.3302 H   0  0  0  0  0  0  0  0  0  0  0  0
   59.0975   33.3686   44.4582 H   0  0  0  0  0  0  0  0  0  0  0  0
   56.5225   33.2562   46.0997 H   0  0  0  0  0  0  0  0  0  0  0  0
   56.6582   33.2608   44.2900 H   0  0  0  0  0  0  0  0  0  0  0  0
  1  2  1  0
  2  3  1  0
  3  4  1  0
  4  5  1  0
  5  6  1  0
  6  7  1  0
  7  8  1  0
  8  9  1  0
  9 10  1  0
  6 11  1  0
 11 12  1  0
 12  3  1  0
 10  6  1  0
  1 13  1  0
  1 14  1  0
  1 15  1  0
  2 16  1  0
  2 17  1  0
  4 18  1  0
  4 19  1  0
  5 20  1  0
  5 21  1  0
  7 22  1  0
  7 23  1  0
  8 24  1  0
  8 25  1  0
  9 26  1  0
  9 27  1  0
 10 28  1  0
 10 29  1  0
 11 30  1  0
 11 31  1  0
 12 32  1  0
 12 33  1  0
M  CHG  1   6   1
M  END
>  <UniqueID>  (16) 
16

>  <SMILES>  (16) 
CCN1CC[N+]2(CCCC2)CC1

>  <Energy>  (16) 
53.02015200090952

>  <Genealogy>  (16) 
CCN1CC[N+]2(CCCC2)CC1 (protonated)
CCN1CC[N+]2(CCCC2)CC1 (3D coordinates assigned)
CCN1CC[N+]2(CCCC2)CC1 (nonaromatic ring conformer: 53.02015200090952 kcal/mol)

>  <smiles>  (16) 
CC[N+]1CC[N+]2(CCCC2)CC1

>  <score_type>  (16) 
oracle

>  <origin>  (16) 
adg

>  <m_score__min__energy>  (16) 
-3.8199999999999998

>  <m_primary>  (16) 
energy

$$$$
16:0
     RDKit          3D

 43 44  0  0  0  0  0  0  0  0999 V2000
   58.7290   31.7880   50.3230 C   0  0  0  0  0  0  0  0  0  0  0  0
   60.1460   32.2550   50.6760 C   0  0  0  0  0  0  0  0  0  0  0  0
   60.6900   33.1870   49.6580 N   0  0  1  0  0  0  0  0  0  0  0  0
   59.7100   34.2580   49.3930 C   0  0  0  0  0  0  0  0  0  0  0  0
   61.9990   33.7700   50.0780 C   0  0  0  0  0  0  0  0  0  0  0  0
   62.9710   33.9030   48.8980 C   0  0  0  0  0  0  0  0  0  0  0  0
   62.3440   33.4620   47.7140 O   0  0  0  0  0  0  0  0  0  0  0  0
   63.0500   32.3720   47.1510 C   0  0  0  0  0  0  0  0  0  0  0  0
   62.1850   31.1140   47.2380 C   0  0  0  0  0  0  0  0  0  0  0  0
   60.8530   31.4360   47.6460 O   0  0  0  0  0  0  0  0  0  0  0  0
   59.6980   31.2850   46.8580 C   0  0  0  0  0  0  0  0  0  0  0  0
   59.0410   30.0510   46.7260 C   0  0  0  0  0  0  0  0  0  0  0  0
   57.8770   29.9760   45.9550 C   0  0  0  0  0  0  0  0  0  0  0  0
   57.2770   28.8760   45.8320 O   0  0  0  0  0  0  0  0  0  0  0  0
   57.3960   31.0560   45.3500 O   0  0  0  0  0  0  0  0  0  0  0  0
   57.9860   32.2450   45.4340 C   0  0  0  0  0  0  0  0  0  0  0  0
   57.4210   33.3460   44.7800 C   0  0  0  0  0  0  0  0  0  0  0  0
   58.0290   34.6010   44.8680 C   0  0  0  0  0  0  0  0  0  0  0  0
   59.2060   34.7610   45.6020 C   0  0  0  0  0  0  0  0  0  0  0  0
   59.7830   33.6670   46.2540 C   0  0  0  0  0  0  0  0  0  0  0  0
   59.1760   32.4010   46.1820 C   0  0  0  0  0  0  0  0  0  0  0  0
   58.1633   31.6016   51.2478 H   0  0  0  0  0  0  0  0  0  0  0  0
   58.2224   32.5667   49.7340 H   0  0  0  0  0  0  0  0  0  0  0  0
   58.7846   30.8607   49.7340 H   0  0  0  0  0  0  0  0  0  0  0  0
   60.1198   32.7670   51.6492 H   0  0  0  0  0  0  0  0  0  0  0  0
   60.7981   31.3699   50.7115 H   0  0  0  0  0  0  0  0  0  0  0  0
   60.7990   32.6550   48.7630 H   0  0  0  0  0  0  0  0  0  0  0  0
   59.3408   34.6615   50.3474 H   0  0  0  0  0  0  0  0  0  0  0  0
   60.1920   35.0617   48.8170 H   0  0  0  0  0  0  0  0  0  0  0  0
   58.8667   33.8491   48.8170 H   0  0  0  0  0  0  0  0  0  0  0  0
   61.8227   34.7671   50.5077 H   0  0  0  0  0  0  0  0  0  0  0  0
   62.4517   33.0937   50.8181 H   0  0  0  0  0  0  0  0  0  0  0  0
   63.2667   34.9564   48.7847 H   0  0  0  0  0  0  0  0  0  0  0  0
   63.8626   33.2878   49.0891 H   0  0  0  0  0  0  0  0  0  0  0  0
   63.2806   32.5878   46.0973 H   0  0  0  0  0  0  0  0  0  0  0  0
   63.9881   32.2144   47.7033 H   0  0  0  0  0  0  0  0  0  0  0  0
   62.1520   30.6310   46.2503 H   0  0  0  0  0  0  0  0  0  0  0  0
   62.6260   30.4360   47.9836 H   0  0  0  0  0  0  0  0  0  0  0  0
   59.4375   29.1536   47.2235 H   0  0  0  0  0  0  0  0  0  0  0  0
   56.4970   33.2231   44.1959 H   0  0  0  0  0  0  0  0  0  0  0  0
   57.5791   35.4654   44.3576 H   0  0  0  0  0  0  0  0  0  0  0  0
   59.6809   35.7511   45.6675 H   0  0  0  0  0  0  0  0  0  0  0  0
   60.7143   33.7972   46.8248 H   0  0  0  0  0  0  0  0  0  0  0  0
  1  2  1  0
  2  3  1  0
  3  4  1  0
  3  5  1  0
  5  6  1  0
  6  7  1  0
  7  8  1  0
  8  9  1  0
  9 10  1  0
 10 11  1  0
 11 12  2  0
 12 13  1  0
 13 14  2  0
 13 15  1  0
 15 16  1  0
 16 17  2  0
 17 18  1  0
 18 19  2  0
 19 20  1  0
 20 21  2  0
 21 11  1  0
 21 16  1  0
  1 22  1  0
  1 23  1  0
  1 24  1  0
  2 25  1  0
  2 26  1  0
  3 27  1  6
  4 28  1  0
  4 29  1  0
  4 30  1  0
  5 31  1  0
  5 32  1  0
  6 33  1  0
  6 34  1  0
  8 35  1  0
  8 36  1  0
  9 37  1  0
  9 38  1  0
 12 39  1  0
 17 40  1  0
 18 41  1  0
 19 42  1  0
 20 43  1  0
M  CHG  1   3   1
M  END
>  <UniqueID>  (17) 
17

>  <SMILES>  (17) 
CC[N@@H+](C)CCOCCOc1cc(=O)oc2ccccc12

>  <Energy>  (17) 
45.430501805806955

>  <Genealogy>  (17) 
CC[NH+](C)CCOCCOc1cc(=O)oc2ccccc12 (protonated)
CC[N@@H+](C)CCOCCOc1cc(=O)oc2ccccc12 (chirality)
CC[N@@H+](C)CCOCCOc1cc(=O)oc2ccccc12 (3D coordinates assigned)
CC[N@@H+](C)CCOCCOc1cc(=O)oc2ccccc12 (optimized conformer: 45.430501805806955 kcal/mol)

>  <smiles>  (17) 
CCN(C)CCOCCOc1cc(=O)oc2ccccc12

>  <score_type>  (17) 
oracle

>  <origin>  (17) 
adg

>  <m_score__min__energy>  (17) 
-3.6699999999999999

>  <m_primary>  (17) 
energy

$$$$
17:0
     RDKit          3D

 69 72  0  0  0  0  0  0  0  0999 V2000
   65.4986   31.8903   48.7731 H   0  0  0  0  0  0  0  0  0  0  0  0
   65.1340   32.3650   49.6960 C   0  0  0  0  0  0  0  0  0  0  0  0
   63.8390   32.2260   50.0290 C   0  0  0  0  0  0  0  0  0  0  0  0
   62.8510   31.6570   49.1520 N   0  0  0  0  0  0  0  0  0  0  0  0
   62.9320   31.6960   47.6860 C   0  0  0  0  0  0  0  0  0  0  0  0
   63.8505   31.1848   47.3619 H   0  0  0  0  0  0  0  0  0  0  0  0
   62.0465   31.1927   47.2706 H   0  0  0  0  0  0  0  0  0  0  0  0
   62.9570   33.1430   47.1800 C   0  0  0  0  0  0  0  0  0  0  0  0
   63.5900   33.7474   47.8463 H   0  0  0  0  0  0  0  0  0  0  0  0
   63.3608   33.1525   46.1568 H   0  0  0  0  0  0  0  0  0  0  0  0
   61.5680   33.7240   47.1570 C   0  0  0  0  0  0  0  0  0  0  0  0
   60.8660   33.8200   45.9440 C   0  0  0  0  0  0  0  0  0  0  0  0
   61.3443   33.4981   45.0072 H   0  0  0  0  0  0  0  0  0  0  0  0
   59.5620   34.3230   45.9230 C   0  0  0  0  0  0  0  0  0  0  0  0
   59.0182   34.3994   44.9699 H   0  0  0  0  0  0  0  0  0  0  0  0
   58.9480   34.7290   47.1110 C   0  0  0  0  0  0  0  0  0  0  0  0
   57.9213   35.1234   47.0925 H   0  0  0  0  0  0  0  0  0  0  0  0
   59.6380   34.6340   48.3220 C   0  0  0  0  0  0  0  0  0  0  0  0
   59.1541   34.9537   49.2567 H   0  0  0  0  0  0  0  0  0  0  0  0
   60.9430   34.1330   48.3470 C   0  0  0  0  0  0  0  0  0  0  0  0
   61.4828   34.0587   49.3026 H   0  0  0  0  0  0  0  0  0  0  0  0
   61.6650   31.7050   49.9520 C   0  0  0  0  0  0  0  0  0  0  0  0
   60.3870   31.2050   49.6670 C   0  0  0  0  0  0  0  0  0  0  0  0
   60.1110   30.5490   48.4250 N   0  0  0  0  0  0  0  0  0  0  0  0
   60.7130   29.7360   48.1620 H   0  0  0  0  0  0  0  0  0  0  0  0
   59.1990   31.1520   47.4490 C   0  0  0  0  0  0  0  0  0  0  0  0
   58.3947   31.6719   47.9901 H   0  0  0  0  0  0  0  0  0  0  0  0
   59.7813   31.8499   46.8294 H   0  0  0  0  0  0  0  0  0  0  0  0
   58.5670   30.0980   46.5100 C   0  0  0  0  0  0  0  0  0  0  0  0
   59.3617   29.6930   45.8662 H   0  0  0  0  0  0  0  0  0  0  0  0
   58.1069   29.3400   47.1609 H   0  0  0  0  0  0  0  0  0  0  0  0
   57.4830   30.6120   45.6370 N   0  0  0  0  0  0  0  0  0  0  0  0
   57.7730   31.9250   45.0200 C   0  0  0  0  0  0  0  0  0  0  0  0
   57.0145   32.6509   45.3483 H   0  0  0  0  0  0  0  0  0  0  0  0
   58.7775   32.2434   45.3356 H   0  0  0  0  0  0  0  0  0  0  0  0
   57.7510   31.8370   43.4950 C   0  0  0  0  0  0  0  0  0  0  0  0
   57.4946   30.8115   43.1906 H   0  0  0  0  0  0  0  0  0  0  0  0
   56.9999   32.5359   43.0982 H   0  0  0  0  0  0  0  0  0  0  0  0
   58.7426   32.1002   43.0982 H   0  0  0  0  0  0  0  0  0  0  0  0
   57.0330   29.6150   44.6390 C   0  0  0  0  0  0  0  0  0  0  0  0
   56.0794   29.1763   44.9680 H   0  0  0  0  0  0  0  0  0  0  0  0
   56.9014   30.1137   43.6674 H   0  0  0  0  0  0  0  0  0  0  0  0
   58.0730   28.5090   44.4940 C   0  0  0  0  0  0  0  0  0  0  0  0
   58.3906   28.1713   45.4915 H   0  0  0  0  0  0  0  0  0  0  0  0
   57.6350   27.6637   43.9429 H   0  0  0  0  0  0  0  0  0  0  0  0
   58.9436   28.8943   43.9429 H   0  0  0  0  0  0  0  0  0  0  0  0
   59.3970   31.3090   50.6730 C   0  0  0  0  0  0  0  0  0  0  0  0
   58.1160   30.7480   50.4930 C   0  0  0  0  0  0  0  0  0  0  0  0
   57.8858   30.2065   49.5636 H   0  0  0  0  0  0  0  0  0  0  0  0
   57.1390   30.8710   51.4770 C   0  0  0  0  0  0  0  0  0  0  0  0
   56.1398   30.4407   51.3142 H   0  0  0  0  0  0  0  0  0  0  0  0
   57.4220   31.5360   52.6650 C   0  0  0  0  0  0  0  0  0  0  0  0
   56.6409   31.6434   53.4320 H   0  0  0  0  0  0  0  0  0  0  0  0
   58.6910   32.0670   52.8880 C   0  0  0  0  0  0  0  0  0  0  0  0
   58.9037   32.5805   53.8372 H   0  0  0  0  0  0  0  0  0  0  0  0
   59.7110   31.9560   51.9120 C   0  0  0  0  0  0  0  0  0  0  0  0
   60.9900   32.4320   52.1450 N   0  0  0  0  0  0  0  0  0  0  0  0
   61.3390   33.0750   53.4260 C   0  0  0  0  0  0  0  0  0  0  0  0
   60.9961   32.4433   54.2587 H   0  0  0  0  0  0  0  0  0  0  0  0
   62.4299   33.2021   53.4872 H   0  0  0  0  0  0  0  0  0  0  0  0
   60.8512   34.0590   53.4872 H   0  0  0  0  0  0  0  0  0  0  0  0
   61.9430   32.2750   51.1730 C   0  0  0  0  0  0  0  0  0  0  0  0
   63.3200   32.6440   51.3040 N   0  0  0  0  0  0  0  0  0  0  0  0
   63.7690   32.1010   52.0780 H   0  0  0  0  0  0  0  0  0  0  0  0
   63.4100   33.6810   51.4080 H   0  0  0  0  0  0  0  0  0  0  0  0
   66.0970   33.1430   50.5370 C   0  0  0  0  0  0  0  0  0  0  0  0
   65.8796   32.9674   51.6009 H   0  0  0  0  0  0  0  0  0  0  0  0
   67.1240   32.8181   50.3141 H   0  0  0  0  0  0  0  0  0  0  0  0
   65.9952   34.2154   50.3141 H   0  0  0  0  0  0  0  0  0  0  0  0
  1  2  1  0
  2  3  2  0
  3  4  1  0
  4  5  1  0
  5  6  1  0
  5  7  1  0
  5  8  1  0
  8  9  1  0
  8 10  1  0
  8 11  1  0
 11 12  2  0
 12 13  1  0
 12 14  1  0
 14 15  1  0
 14 16  2  0
 16 17  1  0
 16 18  1  0
 18 19  1  0
 18 20  2  0
 20 21  1  0
  4 22  1  0
 22 23  2  0
 23 24  1  0
 24 25  1  0
 24 26  1  0
 26 27  1  0
 26 28  1  0
 26 29  1  0
 29 30  1  0
 29 31  1  0
 29 32  1  0
 32 33  1  0
 33 34  1  0
 33 35  1  0
 33 36  1  0
 36 37  1  0
 36 38  1  0
 36 39  1  0
 32 40  1  0
 40 41  1  0
 40 42  1  0
 40 43  1  0
 43 44  1  0
 43 45  1  0
 43 46  1  0
 23 47  1  0
 47 48  2  0
 48 49  1  0
 48 50  1  0
 50 51  1  0
 50 52  2  0
 52 53  1  0
 52 54  1  0
 54 55  1  0
 54 56  2  0
 56 57  1  0
 57 58  1  0
 58 59  1  0
 58 60  1  0
 58 61  1  0
 57 62  2  0
 62 63  1  0
 63 64  1  0
 63 65  1  0
  2 66  1  0
 66 67  1  0
 66 68  1  0
 66 69  1  0
 63  3  1  0
 20 11  1  0
 62 22  1  0
 56 47  1  0
M  CHG  2  57   1  63   1
M  END
>  <UniqueID>  (18) 
18

>  <SMILES>  (18) 
C/C=C1\[NH2+]c2c(c(NCCN(CC)CC)c3ccccc3[n+]2C)N1CCc1ccccc1

>  <Energy>  (18) 
106.27798972872093

>  <Genealogy>  (18) 
CC=C1[NH2+]c2c(c(NCCN(CC)CC)c3ccccc3[n+]2C)N1CCc1ccccc1 (protonated)
C/C=C1\[NH2+]c2c(c(NCCN(CC)CC)c3ccccc3[n+]2C)N1CCc1ccccc1 (cis-trans isomerization)
C/C=C1\[NH2+]c2c(c(NCCN(CC)CC)c3ccccc3[n+]2C)N1CCc1ccccc1 (3D coordinates assigned)
C/C=C1\[NH2+]c2c(c(NCCN(CC)CC)c3ccccc3[n+]2C)N1CCc1ccccc1 (nonaromatic ring conformer: 106.27798972872093 kcal/mol)

>  <smiles>  (18) 
CC=C1Nc2c(c(NCCN(CC)CC)c3ccccc3[n+]2C)N1CCc1ccccc1

>  <score_type>  (18) 
oracle

>  <origin>  (18) 
adg

>  <m_score__min__energy>  (18) 
-5.1900000000000004

>  <m_primary>  (18) 
energy

$$$$
18:0
     RDKit          3D

 71 75  0  0  0  0  0  0  0  0999 V2000
   64.7330   28.7410   51.9950 C   0  0  0  0  0  0  0  0  0  0  0  0
   65.1190   27.9160   53.2210 C   0  0  0  0  0  0  0  0  0  0  0  0
   64.9930   26.4680   52.9420 N   0  0  0  0  0  0  0  0  0  0  0  0
   65.4520   25.9950   51.6100 C   0  0  0  0  0  0  0  0  0  0  0  0
   66.9080   26.3380   51.2600 C   0  0  0  0  0  0  0  0  0  0  0  0
   65.3660   25.5950   54.0770 C   0  0  0  0  0  0  0  0  0  0  0  0
   64.2830   24.5670   54.4410 C   0  0  0  0  0  0  0  0  0  0  0  0
   63.1700   24.5460   53.3880 C   0  0  0  0  0  0  0  0  0  0  0  0
   62.2400   25.6070   53.6140 O   0  0  0  0  0  0  0  0  0  0  0  0
   61.8030   26.5360   52.6520 C   0  0  0  0  0  0  0  0  0  0  0  0
   61.5160   26.1640   51.3240 C   0  0  0  0  0  0  0  0  0  0  0  0
   61.0540   27.1130   50.4050 C   0  0  0  0  0  0  0  0  0  0  0  0
   60.7390   26.7410   49.0830 C   0  0  0  0  0  0  0  0  0  0  0  0
   60.2700   27.7250   48.2200 C   0  0  0  0  0  0  0  0  0  0  0  0
   60.1240   29.0180   48.6550 C   0  0  0  0  0  0  0  0  0  0  0  0
   60.4210   29.4020   49.9230 N   0  0  0  0  0  0  0  0  0  0  0  0
   60.8870   28.4680   50.8120 C   0  0  0  0  0  0  0  0  0  0  0  0
   61.1970   28.8350   52.1270 C   0  0  0  0  0  0  0  0  0  0  0  0
   61.6550   27.8740   53.0500 C   0  0  0  0  0  0  0  0  0  0  0  0
   61.9700   28.2100   54.3760 O   0  0  0  0  0  0  0  0  0  0  0  0
   61.2630   27.7390   55.5200 C   0  0  0  0  0  0  0  0  0  0  0  0
   59.5880   29.7890   47.5570 C   0  0  0  0  0  0  0  0  0  0  0  0
   59.2710   31.1440   47.5150 C   0  0  0  0  0  0  0  0  0  0  0  0
   58.7320   31.6730   46.3220 C   0  0  0  0  0  0  0  0  0  0  0  0
   58.5620   30.8140   45.2010 C   0  0  0  0  0  0  0  0  0  0  0  0
   58.9280   29.4540   45.3040 C   0  0  0  0  0  0  0  0  0  0  0  0
   58.8090   28.6750   44.3180 O   0  0  0  0  0  0  0  0  0  0  0  0
   59.4170   28.9880   46.4840 N   0  0  0  0  0  0  0  0  0  0  0  0
   59.8330   27.6130   46.7900 C   0  0  0  0  0  0  0  0  0  0  0  0
   58.0640   31.3880   43.9000 C   0  0  0  0  0  0  0  0  0  0  0  0
   57.1410   32.4440   44.1390 O   0  0  0  0  0  0  0  0  0  0  0  0
   57.3080   33.3530   45.1850 C   0  0  0  0  0  0  0  0  0  0  0  0
   56.5230   34.3330   45.2770 O   0  0  0  0  0  0  0  0  0  0  0  0
   58.4160   33.1660   46.2010 C   0  0  1  0  0  0  0  0  0  0  0  0
   57.9490   33.6610   47.4390 O   0  0  0  0  0  0  0  0  0  0  0  0
   59.6960   33.9150   45.7330 C   0  0  0  0  0  0  0  0  0  0  0  0
   59.8220   35.3320   46.2980 C   0  0  0  0  0  0  0  0  0  0  0  0
   64.2875   29.6931   52.3192 H   0  0  0  0  0  0  0  0  0  0  0  0
   65.6302   28.9427   51.3914 H   0  0  0  0  0  0  0  0  0  0  0  0
   64.0032   28.1814   51.3914 H   0  0  0  0  0  0  0  0  0  0  0  0
   66.1606   28.1413   53.4937 H   0  0  0  0  0  0  0  0  0  0  0  0
   64.4416   28.1757   54.0478 H   0  0  0  0  0  0  0  0  0  0  0  0
   65.3440   24.9007   51.5817 H   0  0  0  0  0  0  0  0  0  0  0  0
   64.8288   26.5174   50.8692 H   0  0  0  0  0  0  0  0  0  0  0  0
   67.4855   26.4740   52.1863 H   0  0  0  0  0  0  0  0  0  0  0  0
   67.3465   25.5186   50.6716 H   0  0  0  0  0  0  0  0  0  0  0  0
   66.9346   27.2670   50.6716 H   0  0  0  0  0  0  0  0  0  0  0  0
   66.2857   25.0529   53.8118 H   0  0  0  0  0  0  0  0  0  0  0  0
   65.5032   26.2449   54.9538 H   0  0  0  0  0  0  0  0  0  0  0  0
   64.7404   23.5684   54.5009 H   0  0  0  0  0  0  0  0  0  0  0  0
   63.8440   24.8484   55.4095 H   0  0  0  0  0  0  0  0  0  0  0  0
   63.6157   24.6633   52.3892 H   0  0  0  0  0  0  0  0  0  0  0  0
   62.6357   23.5870   53.4576 H   0  0  0  0  0  0  0  0  0  0  0  0
   61.6560   25.1200   51.0070 H   0  0  0  0  0  0  0  0  0  0  0  0
   60.8607   25.7018   48.7434 H   0  0  0  0  0  0  0  0  0  0  0  0
   60.2870   30.3970   50.2110 H   0  0  0  0  0  0  0  0  0  0  0  0
   61.0820   29.8825   52.4423 H   0  0  0  0  0  0  0  0  0  0  0  0
   61.7740   28.0794   56.4327 H   0  0  0  0  0  0  0  0  0  0  0  0
   60.2366   28.1345   55.5052 H   0  0  0  0  0  0  0  0  0  0  0  0
   61.2326   26.6395   55.5052 H   0  0  0  0  0  0  0  0  0  0  0  0
   59.4367   31.7879   48.3914 H   0  0  0  0  0  0  0  0  0  0  0  0
   58.9942   26.9094   46.6833 H   0  0  0  0  0  0  0  0  0  0  0  0
   60.6146   27.2284   46.1183 H   0  0  0  0  0  0  0  0  0  0  0  0
   58.9180   31.7773   43.3263 H   0  0  0  0  0  0  0  0  0  0  0  0
   57.5553   30.5939   43.3338 H   0  0  0  0  0  0  0  0  0  0  0  0
   57.0610   34.0830   47.3040 H   0  0  0  0  0  0  0  0  0  0  0  0
   60.5741   33.3346   46.0524 H   0  0  0  0  0  0  0  0  0  0  0  0
   59.6305   34.0102   44.6391 H   0  0  0  0  0  0  0  0  0  0  0  0
   59.8183   35.2901   47.3972 H   0  0  0  0  0  0  0  0  0  0  0  0
   60.7637   35.7825   45.9514 H   0  0  0  0  0  0  0  0  0  0  0  0
   58.9745   35.9416   45.9514 H   0  0  0  0  0  0  0  0  0  0  0  0
  1  2  1  0
  2  3  1  0
  3  4  1  0
  4  5  1  0
  3  6  1  0
  6  7  1  0
  7  8  1  0
  8  9  1  0
  9 10  1  0
 10 11  2  0
 11 12  1  0
 12 13  2  0
 13 14  1  0
 14 15  2  0
 15 16  1  0
 16 17  2  0
 17 18  1  0
 18 19  2  0
 19 20  1  0
 20 21  1  0
 15 22  1  0
 22 23  2  0
 23 24  1  0
 24 25  2  0
 25 26  1  0
 26 27  2  0
 26 28  1  0
 28 29  1  0
 25 30  1  0
 30 31  1  0
 31 32  1  0
 32 33  2  0
 32 34  1  0
 34 35  1  1
 34 36  1  0
 36 37  1  0
 19 10  1  0
 28 22  1  0
 17 12  1  0
 34 24  1  0
 29 14  1  0
  1 38  1  0
  1 39  1  0
  1 40  1  0
  2 41  1  0
  2 42  1  0
  4 43  1  0
  4 44  1  0
  5 45  1  0
  5 46  1  0
  5 47  1  0
  6 48  1  0
  6 49  1  0
  7 50  1  0
  7 51  1  0
  8 52  1  0
  8 53  1  0
 11 54  1  0
 13 55  1  0
 16 56  1  0
 18 57  1  0
 21 58  1  0
 21 59  1  0
 21 60  1  0
 23 61  1  0
 29 62  1  0
 29 63  1  0
 30 64  1  0
 30 65  1  0
 35 66  1  0
 36 67  1  0
 36 68  1  0
 37 69  1  0
 37 70  1  0
 37 71  1  0
M  CHG  1  16   1
M  END
>  <UniqueID>  (19) 
19

>  <SMILES>  (19) 
CCN(CC)CCCOc1cc2cc3c([nH+]c2cc1OC)-c1cc2c(c(=O)n1C3)COC(=O)[C@]2(O)CC

>  <Energy>  (19) 
111.20114874198308

>  <Genealogy>  (19) 
CCN(CC)CCCOc1cc2cc3c([nH+]c2cc1OC)-c1cc2c(c(=O)n1C3)COC(=O)C2(O)CC (protonated)
CCN(CC)CCCOc1cc2cc3c([nH+]c2cc1OC)-c1cc2c(c(=O)n1C3)COC(=O)[C@]2(O)CC (chirality)
CCN(CC)CCCOc1cc2cc3c([nH+]c2cc1OC)-c1cc2c(c(=O)n1C3)COC(=O)[C@]2(O)CC (3D coordinates assigned)
CCN(CC)CCCOc1cc2cc3c([nH+]c2cc1OC)-c1cc2c(c(=O)n1C3)COC(=O)[C@]2(O)CC (nonaromatic ring conformer: 111.20114874198308 kcal/mol)

>  <smiles>  (19) 
CCN(CC)CCCOc1cc2cc3c(nc2cc1OC)-c1cc2c(c(=O)n1C3)COC(=O)C2(O)CC

>  <score_type>  (19) 
oracle

>  <origin>  (19) 
adg

>  <m_score__min__energy>  (19) 
-6.7599999999999998

>  <m_primary>  (19) 
energy

$$$$
