0:0
     RDKit          3D

 54 57  0  0  0  0  0  0  0  0999 V2000
   59.4970   29.1520   52.1010 C   0  0  0  0  0  0  0  0  0  0  0  0
   58.4090   30.1020   51.5990 C   0  0  0  0  0  0  0  0  0  0  0  0
   58.6280   30.5050   50.1910 N   0  0  0  0  0  0  0  0  0  0  0  0
   58.4850   31.9650   50.0360 C   0  0  0  0  0  0  0  0  0  0  0  0
   59.9740   30.0780   49.7370 C   0  0  0  0  0  0  0  0  0  0  0  0
   59.9150   29.4270   48.3460 C   0  0  0  0  0  0  0  0  0  0  0  0
   58.5510   29.0630   47.9420 N   0  0  0  0  0  0  0  0  0  0  0  0
   58.2240   28.5410   46.6440 C   0  0  0  0  0  0  0  0  0  0  0  0
   58.0850   27.1540   46.4040 C   0  0  0  0  0  0  0  0  0  0  0  0
   58.0760   26.2360   47.4720 C   0  0  0  0  0  0  0  0  0  0  0  0
   57.9220   24.8710   47.2360 C   0  0  0  0  0  0  0  0  0  0  0  0
   57.7520   24.4000   45.9390 C   0  0  0  0  0  0  0  0  0  0  0  0
   57.7310   25.2870   44.8630 C   0  0  0  0  0  0  0  0  0  0  0  0
   57.9050   26.6790   45.0600 C   0  0  0  0  0  0  0  0  0  0  0  0
   57.8830   27.5700   43.9970 N   0  0  0  0  0  0  0  0  0  0  0  0
   57.8160   27.1010   42.6010 C   0  0  0  0  0  0  0  0  0  0  0  0
   57.9000   28.9130   44.2760 C   0  0  0  0  0  0  0  0  0  0  0  0
   57.7700   29.9240   43.3810 N   0  0  0  0  0  0  0  0  0  0  0  0
   57.8670   31.0530   44.1100 C   0  0  0  0  0  0  0  0  0  0  0  0
   57.7830   32.3590   43.6340 C   0  0  0  0  0  0  0  0  0  0  0  0
   57.8850   33.4080   44.5610 C   0  0  0  0  0  0  0  0  0  0  0  0
   58.0620   33.1470   45.9380 C   0  0  0  0  0  0  0  0  0  0  0  0
   58.1350   34.2390   46.8150 O   0  0  0  0  0  0  0  0  0  0  0  0
   59.3040   34.6170   47.5350 C   0  0  0  0  0  0  0  0  0  0  0  0
   58.1570   31.8080   46.3910 C   0  0  0  0  0  0  0  0  0  0  0  0
   58.0530   30.7810   45.4480 C   0  0  0  0  0  0  0  0  0  0  0  0
   58.0660   29.3990   45.5580 C   0  0  0  0  0  0  0  0  0  0  0  0
   59.5014   29.1481   53.2010 H   0  0  0  0  0  0  0  0  0  0  0  0
   59.2954   28.1357   51.7316 H   0  0  0  0  0  0  0  0  0  0  0  0
   60.4769   29.4888   51.7316 H   0  0  0  0  0  0  0  0  0  0  0  0
   57.4345   29.5977   51.6762 H   0  0  0  0  0  0  0  0  0  0  0  0
   58.4388   31.0096   52.2198 H   0  0  0  0  0  0  0  0  0  0  0  0
   58.4388   32.4364   51.0288 H   0  0  0  0  0  0  0  0  0  0  0  0
   59.3486   32.3612   49.4818 H   0  0  0  0  0  0  0  0  0  0  0  0
   57.5609   32.1861   49.4818 H   0  0  0  0  0  0  0  0  0  0  0  0
   60.6329   30.9577   49.6930 H   0  0  0  0  0  0  0  0  0  0  0  0
   60.3615   29.3362   50.4508 H   0  0  0  0  0  0  0  0  0  0  0  0
   60.3217   30.1356   47.6095 H   0  0  0  0  0  0  0  0  0  0  0  0
   60.5043   28.4992   48.3909 H   0  0  0  0  0  0  0  0  0  0  0  0
   57.7720   29.2360   48.6150 H   0  0  0  0  0  0  0  0  0  0  0  0
   58.1918   26.6002   48.5035 H   0  0  0  0  0  0  0  0  0  0  0  0
   57.9350   24.1641   48.0787 H   0  0  0  0  0  0  0  0  0  0  0  0
   57.6333   23.3211   45.7604 H   0  0  0  0  0  0  0  0  0  0  0  0
   57.5769   24.8995   43.8451 H   0  0  0  0  0  0  0  0  0  0  0  0
   57.6605   26.0121   42.5871 H   0  0  0  0  0  0  0  0  0  0  0  0
   56.9797   27.5975   42.0871 H   0  0  0  0  0  0  0  0  0  0  0  0
   58.7579   27.3434   42.0871 H   0  0  0  0  0  0  0  0  0  0  0  0
   57.5950   29.8780   42.3540 H   0  0  0  0  0  0  0  0  0  0  0  0
   57.6408   32.5627   42.5624 H   0  0  0  0  0  0  0  0  0  0  0  0
   57.8262   34.4488   44.2100 H   0  0  0  0  0  0  0  0  0  0  0  0
   59.1061   34.5530   48.6152 H   0  0  0  0  0  0  0  0  0  0  0  0
   60.1308   33.9404   47.2730 H   0  0  0  0  0  0  0  0  0  0  0  0
   59.5781   35.6496   47.2730 H   0  0  0  0  0  0  0  0  0  0  0  0
   58.3086   31.5822   47.4569 H   0  0  0  0  0  0  0  0  0  0  0  0
  1  2  1  0
  2  3  1  0
  3  4  1  0
  3  5  1  0
  5  6  1  0
  6  7  1  0
  7  8  1  0
  8  9  2  0
  9 10  1  0
 10 11  2  0
 11 12  1  0
 12 13  2  0
 13 14  1  0
 14 15  2  0
 15 16  1  0
 15 17  1  0
 17 18  1  0
 18 19  1  0
 19 20  2  0
 20 21  1  0
 21 22  2  0
 22 23  1  0
 23 24  1  0
 22 25  1  0
 25 26  2  0
 26 27  1  0
 27  8  1  0
 14  9  1  0
 27 17  2  0
 26 19  1  0
  1 28  1  0
  1 29  1  0
  1 30  1  0
  2 31  1  0
  2 32  1  0
  4 33  1  0
  4 34  1  0
  4 35  1  0
  5 36  1  0
  5 37  1  0
  6 38  1  0
  6 39  1  0
  7 40  1  0
 10 41  1  0
 11 42  1  0
 12 43  1  0
 13 44  1  0
 16 45  1  0
 16 46  1  0
 16 47  1  0
 18 48  1  0
 20 49  1  0
 21 50  1  0
 24 51  1  0
 24 52  1  0
 24 53  1  0
 25 54  1  0
M  CHG  1  15   1
M  END
>  <UniqueID>  (1) 
1

>  <SMILES>  (1) 
CCN(C)CCNc1c2ccccc2[n+](C)c2[nH]c3ccc(OC)cc3c12

>  <Energy>  (1) 
110.94575158401967

>  <Genealogy>  (1) 
CCN(C)CCNc1c2ccccc2[n+](C)c2[nH]c3ccc(OC)cc3c12 (3D coordinates assigned)
CCN(C)CCNc1c2ccccc2[n+](C)c2[nH]c3ccc(OC)cc3c12 (optimized conformer: 110.94575158401967 kcal/mol)

>  <smiles>  (1) 
CCN(C)CCNc1c2ccccc2[n+](C)c2[nH]c3ccc(OC)cc3c12

>  <score_type>  (1) 
oracle

>  <origin>  (1) 
adg

>  <m_score__min__energy>  (1) 
-6.0199999999999996

>  <m_primary>  (1) 
energy

$$$$
1:0
     RDKit          3D

 46 48  0  0  0  0  0  0  0  0999 V2000
   61.3940   29.2660   51.1360 C   0  0  0  0  0  0  0  0  0  0  0  0
   62.6640   29.7240   51.8590 C   0  0  0  0  0  0  0  0  0  0  0  0
   63.5180   30.5770   51.0140 N   0  0  0  0  0  0  0  0  0  0  0  0
   64.8520   30.7970   51.6050 C   0  0  0  0  0  0  0  0  0  0  0  0
   65.7700   31.6090   50.6740 C   0  0  0  0  0  0  0  0  0  0  0  0
   65.0340   32.5750   49.7300 C   0  0  0  0  0  0  0  0  0  0  0  0
   64.0480   31.8970   48.9470 O   0  0  0  0  0  0  0  0  0  0  0  0
   62.8370   32.4340   48.4780 C   0  0  0  0  0  0  0  0  0  0  0  0
   62.4880   33.7250   48.8930 C   0  0  0  0  0  0  0  0  0  0  0  0
   61.3130   34.3310   48.4400 C   0  0  0  0  0  0  0  0  0  0  0  0
   60.4640   33.6460   47.5550 C   0  0  0  0  0  0  0  0  0  0  0  0
   59.2850   34.2170   47.0500 C   0  0  0  0  0  0  0  0  0  0  0  0
   58.9360   35.3830   47.3790 O   0  0  0  0  0  0  0  0  0  0  0  0
   58.4920   33.4840   46.1660 C   0  0  0  0  0  0  0  0  0  0  0  0
   58.8900   32.1860   45.8000 C   0  0  0  0  0  0  0  0  0  0  0  0
   58.0990   31.3620   44.8510 C   0  0  0  0  0  0  0  0  0  0  0  0
   57.7770   31.8220   43.5590 C   0  0  0  0  0  0  0  0  0  0  0  0
   57.0230   31.0260   42.6910 C   0  0  0  0  0  0  0  0  0  0  0  0
   56.5790   29.7670   43.1020 C   0  0  0  0  0  0  0  0  0  0  0  0
   56.8810   29.3050   44.3840 C   0  0  0  0  0  0  0  0  0  0  0  0
   57.6340   30.0970   45.2560 C   0  0  0  0  0  0  0  0  0  0  0  0
   60.0150   31.6780   46.3000 O   0  0  0  0  0  0  0  0  0  0  0  0
   60.8010   32.3400   47.1430 C   0  0  0  0  0  0  0  0  0  0  0  0
   61.9680   31.7350   47.6160 C   0  0  0  0  0  0  0  0  0  0  0  0
   60.6294   28.9903   51.8771 H   0  0  0  0  0  0  0  0  0  0  0  0
   61.0155   30.0843   50.5058 H   0  0  0  0  0  0  0  0  0  0  0  0
   61.6249   28.3945   50.5058 H   0  0  0  0  0  0  0  0  0  0  0  0
   62.3742   30.2925   52.7550 H   0  0  0  0  0  0  0  0  0  0  0  0
   63.2427   28.8255   52.1195 H   0  0  0  0  0  0  0  0  0  0  0  0
   63.6100   30.1060   50.0850 H   0  0  0  0  0  0  0  0  0  0  0  0
   63.0490   31.5000   50.8540 H   0  0  0  0  0  0  0  0  0  0  0  0
   64.7346   31.3434   52.5525 H   0  0  0  0  0  0  0  0  0  0  0  0
   65.3175   29.8136   51.7669 H   0  0  0  0  0  0  0  0  0  0  0  0
   66.4578   32.1977   51.2988 H   0  0  0  0  0  0  0  0  0  0  0  0
   66.2860   30.8796   50.0323 H   0  0  0  0  0  0  0  0  0  0  0  0
   64.5400   33.3534   50.3301 H   0  0  0  0  0  0  0  0  0  0  0  0
   65.7730   33.0167   49.0453 H   0  0  0  0  0  0  0  0  0  0  0  0
   63.1475   34.2695   49.5848 H   0  0  0  0  0  0  0  0  0  0  0  0
   61.0527   35.3453   48.7768 H   0  0  0  0  0  0  0  0  0  0  0  0
   57.5658   33.9169   45.7600 H   0  0  0  0  0  0  0  0  0  0  0  0
   58.1210   32.8139   43.2307 H   0  0  0  0  0  0  0  0  0  0  0  0
   56.7791   31.3920   41.6827 H   0  0  0  0  0  0  0  0  0  0  0  0
   55.9915   29.1398   42.4154 H   0  0  0  0  0  0  0  0  0  0  0  0
   56.5259   28.3159   44.7089 H   0  0  0  0  0  0  0  0  0  0  0  0
   57.8648   29.7285   46.2664 H   0  0  0  0  0  0  0  0  0  0  0  0
   62.2105   30.7056   47.3135 H   0  0  0  0  0  0  0  0  0  0  0  0
  1  2  1  0
  2  3  1  0
  3  4  1  0
  4  5  1  0
  5  6  1  0
  6  7  1  0
  7  8  1  0
  8  9  2  0
  9 10  1  0
 10 11  2  0
 11 12  1  0
 12 13  2  0
 12 14  1  0
 14 15  2  0
 15 16  1  0
 16 17  2  0
 17 18  1  0
 18 19  2  0
 19 20  1  0
 20 21  2  0
 15 22  1  0
 22 23  1  0
 23 24  2  0
 24  8  1  0
 23 11  1  0
 21 16  1  0
  1 25  1  0
  1 26  1  0
  1 27  1  0
  2 28  1  0
  2 29  1  0
  3 30  1  0
  3 31  1  0
  4 32  1  0
  4 33  1  0
  5 34  1  0
  5 35  1  0
  6 36  1  0
  6 37  1  0
  9 38  1  0
 10 39  1  0
 14 40  1  0
 17 41  1  0
 18 42  1  0
 19 43  1  0
 20 44  1  0
 21 45  1  0
 24 46  1  0
M  CHG  1   3   1
M  END
>  <UniqueID>  (2) 
2

>  <SMILES>  (2) 
CC[NH2+]CCCOc1ccc2c(=O)cc(-c3ccccc3)oc2c1

>  <Energy>  (2) 
53.54261469095678

>  <Genealogy>  (2) 
CC[NH2+]CCCOc1ccc2c(=O)cc(-c3ccccc3)oc2c1 (protonated)
CC[NH2+]CCCOc1ccc2c(=O)cc(-c3ccccc3)oc2c1 (3D coordinates assigned)
CC[NH2+]CCCOc1ccc2c(=O)cc(-c3ccccc3)oc2c1 (optimized conformer: 53.54261469095678 kcal/mol)

>  <smiles>  (2) 
CCNCCCOc1ccc2c(=O)cc(-c3ccccc3)oc2c1

>  <score_type>  (2) 
oracle

>  <origin>  (2) 
adg

>  <m_score__min__energy>  (2) 
-6.0800000000000001

>  <m_primary>  (2) 
energy

$$$$
2:0
     RDKit          3D

 40 41  0  0  0  0  0  0  0  0999 V2000
   58.0560   26.9870   42.6320 C   0  0  0  0  0  0  0  0  0  0  0  0
   58.3120   28.0430   43.7020 C   0  0  0  0  0  0  0  0  0  0  0  0
   57.1070   28.3490   44.4020 O   0  0  0  0  0  0  0  0  0  0  0  0
   56.3540   29.5040   44.1640 C   0  0  0  0  0  0  0  0  0  0  0  0
   55.3700   29.7960   44.8980 O   0  0  0  0  0  0  0  0  0  0  0  0
   56.7410   30.4150   43.0420 C   0  0  0  0  0  0  0  0  0  0  0  0
   57.9010   31.3350   43.4400 C   0  0  0  0  0  0  0  0  0  0  0  0
   57.5440   32.3110   44.9490 S   0  0  0  0  0  0  0  0  0  0  0  0
   58.5740   31.3150   46.0290 C   0  0  0  0  0  0  0  0  0  0  0  0
   59.7270   31.8350   46.5190 N   0  0  0  0  0  0  0  0  0  0  0  0
   60.5390   31.1210   47.3440 C   0  0  0  0  0  0  0  0  0  0  0  0
   61.7890   31.7440   47.8490 C   0  0  0  0  0  0  0  0  0  0  0  0
   62.3160   31.3480   49.0940 C   0  0  0  0  0  0  0  0  0  0  0  0
   63.4850   31.9320   49.5890 C   0  0  0  0  0  0  0  0  0  0  0  0
   64.1390   32.9240   48.8540 C   0  0  0  0  0  0  0  0  0  0  0  0
   65.2720   33.4900   49.3370 F   0  0  0  0  0  0  0  0  0  0  0  0
   63.6220   33.3360   47.6240 C   0  0  0  0  0  0  0  0  0  0  0  0
   62.4540   32.7540   47.1230 C   0  0  0  0  0  0  0  0  0  0  0  0
   60.1560   29.8210   47.7090 C   0  0  0  0  0  0  0  0  0  0  0  0
   58.9690   29.2910   47.1890 C   0  0  0  0  0  0  0  0  0  0  0  0
   58.5170   27.9200   47.5940 C   0  0  0  0  0  0  0  0  0  0  0  0
   58.1940   30.0550   46.3690 N   0  0  0  0  0  0  0  0  0  0  0  0
   57.8230   26.0259   43.1137 H   0  0  0  0  0  0  0  0  0  0  0  0
   57.2073   27.2983   42.0053 H   0  0  0  0  0  0  0  0  0  0  0  0
   58.9530   26.8751   42.0053 H   0  0  0  0  0  0  0  0  0  0  0  0
   59.0579   27.6621   44.4151 H   0  0  0  0  0  0  0  0  0  0  0  0
   58.6831   28.9578   43.2167 H   0  0  0  0  0  0  0  0  0  0  0  0
   57.0470   29.8074   42.1776 H   0  0  0  0  0  0  0  0  0  0  0  0
   55.8729   31.0426   42.7918 H   0  0  0  0  0  0  0  0  0  0  0  0
   58.7929   30.7177   43.6230 H   0  0  0  0  0  0  0  0  0  0  0  0
   58.0599   32.0450   42.6150 H   0  0  0  0  0  0  0  0  0  0  0  0
   61.8029   30.5724   49.6815 H   0  0  0  0  0  0  0  0  0  0  0  0
   63.8911   31.6101   50.5593 H   0  0  0  0  0  0  0  0  0  0  0  0
   64.1350   34.1203   47.0481 H   0  0  0  0  0  0  0  0  0  0  0  0
   62.0504   33.0862   46.1552 H   0  0  0  0  0  0  0  0  0  0  0  0
   60.7794   29.2272   48.3937 H   0  0  0  0  0  0  0  0  0  0  0  0
   58.4942   27.8508   48.6916 H   0  0  0  0  0  0  0  0  0  0  0  0
   57.5096   27.7329   47.1938 H   0  0  0  0  0  0  0  0  0  0  0  0
   59.2156   27.1705   47.1938 H   0  0  0  0  0  0  0  0  0  0  0  0
   57.2950   29.6730   45.9950 H   0  0  0  0  0  0  0  0  0  0  0  0
  1  2  1  0
  2  3  1  0
  3  4  1  0
  4  5  2  0
  4  6  1  0
  6  7  1  0
  7  8  1  0
  8  9  1  0
  9 10  2  0
 10 11  1  0
 11 12  1  0
 12 13  2  0
 13 14  1  0
 14 15  2  0
 15 16  1  0
 15 17  1  0
 17 18  2  0
 11 19  2  0
 19 20  1  0
 20 21  1  0
 20 22  2  0
 22  9  1  0
 18 12  1  0
  1 23  1  0
  1 24  1  0
  1 25  1  0
  2 26  1  0
  2 27  1  0
  6 28  1  0
  6 29  1  0
  7 30  1  0
  7 31  1  0
 13 32  1  0
 14 33  1  0
 17 34  1  0
 18 35  1  0
 19 36  1  0
 21 37  1  0
 21 38  1  0
 21 39  1  0
 22 40  1  0
M  CHG  1  22   1
M  END
>  <UniqueID>  (3) 
3

>  <SMILES>  (3) 
CCOC(=O)CCSc1nc(-c2ccc(F)cc2)cc(C)[nH+]1

>  <Energy>  (3) 
32.0874162474546

>  <Genealogy>  (3) 
CCOC(=O)CCSc1nc(-c2ccc(F)cc2)cc(C)[nH+]1 (protonated)
CCOC(=O)CCSc1nc(-c2ccc(F)cc2)cc(C)[nH+]1 (3D coordinates assigned)
CCOC(=O)CCSc1nc(-c2ccc(F)cc2)cc(C)[nH+]1 (optimized conformer: 32.0874162474546 kcal/mol)

>  <smiles>  (3) 
CCOC(=O)CCSc1nc(C)cc(-c2ccc(F)cc2)n1

>  <score_type>  (3) 
oracle

>  <origin>  (3) 
adg

>  <m_score__min__energy>  (3) 
-5.75

>  <m_primary>  (3) 
energy

$$$$
3:0
     RDKit          3D

 46 48  0  0  0  0  0  0  0  0999 V2000
   62.7140   31.6080   49.2170 C   0  0  0  0  0  0  0  0  0  0  0  0
   63.8000   32.4850   48.6020 C   0  0  0  0  0  0  0  0  0  0  0  0
   63.6540   32.5380   47.1400 N   0  0  0  0  0  0  0  0  0  0  0  0
   63.1370   33.8410   46.6990 C   0  0  0  0  0  0  0  0  0  0  0  0
   61.6160   33.7850   46.5040 C   0  0  0  0  0  0  0  0  0  0  0  0
   60.8460   34.2310   47.7570 C   0  0  0  0  0  0  0  0  0  0  0  0
   59.3760   34.5500   47.4470 C   0  0  0  0  0  0  0  0  0  0  0  0
   58.5260   33.3790   47.6690 N   0  0  0  0  0  0  0  0  0  0  0  0
   58.6890   32.1670   46.9160 C   0  0  0  0  0  0  0  0  0  0  0  0
   59.0660   30.9460   47.5150 C   0  0  0  0  0  0  0  0  0  0  0  0
   59.4000   30.8840   48.8820 C   0  0  0  0  0  0  0  0  0  0  0  0
   59.7130   29.6680   49.4830 C   0  0  0  0  0  0  0  0  0  0  0  0
   59.7020   28.4960   48.7360 C   0  0  0  0  0  0  0  0  0  0  0  0
   59.4140   28.5330   47.3710 C   0  0  0  0  0  0  0  0  0  0  0  0
   59.1290   29.7570   46.7160 C   0  0  0  0  0  0  0  0  0  0  0  0
   58.9130   29.8180   45.3460 N   0  0  0  0  0  0  0  0  0  0  0  0
   59.1020   28.6250   44.4970 C   0  0  0  0  0  0  0  0  0  0  0  0
   58.5210   31.0120   44.7860 C   0  0  0  0  0  0  0  0  0  0  0  0
   58.1380   31.2310   43.4440 C   0  0  0  0  0  0  0  0  0  0  0  0
   57.7860   32.5510   43.1790 C   0  0  0  0  0  0  0  0  0  0  0  0
   57.9250   33.4500   44.5950 S   0  0  0  0  0  0  0  0  0  0  0  0
   58.4390   32.1650   45.5500 C   0  0  0  0  0  0  0  0  0  0  0  0
   62.7783   31.6599   50.3139 H   0  0  0  0  0  0  0  0  0  0  0  0
   61.7260   31.9646   48.8903 H   0  0  0  0  0  0  0  0  0  0  0  0
   62.8546   30.5671   48.8903 H   0  0  0  0  0  0  0  0  0  0  0  0
   63.7178   33.5028   49.0109 H   0  0  0  0  0  0  0  0  0  0  0  0
   64.7833   32.0562   48.8456 H   0  0  0  0  0  0  0  0  0  0  0  0
   64.6100   32.4210   46.7290 H   0  0  0  0  0  0  0  0  0  0  0  0
   63.3756   34.5998   47.4588 H   0  0  0  0  0  0  0  0  0  0  0  0
   63.6067   34.1004   45.7387 H   0  0  0  0  0  0  0  0  0  0  0  0
   61.3428   34.4458   45.6681 H   0  0  0  0  0  0  0  0  0  0  0  0
   61.3433   32.7394   46.2983 H   0  0  0  0  0  0  0  0  0  0  0  0
   60.8843   33.4237   48.5032 H   0  0  0  0  0  0  0  0  0  0  0  0
   61.3193   35.1481   48.1376 H   0  0  0  0  0  0  0  0  0  0  0  0
   59.0398   35.3676   48.1015 H   0  0  0  0  0  0  0  0  0  0  0  0
   59.2971   34.8445   46.3901 H   0  0  0  0  0  0  0  0  0  0  0  0
   58.0390   33.3150   48.5920 H   0  0  0  0  0  0  0  0  0  0  0  0
   59.4136   31.8064   49.4811 H   0  0  0  0  0  0  0  0  0  0  0  0
   59.9698   29.6346   50.5521 H   0  0  0  0  0  0  0  0  0  0  0  0
   59.9214   27.5345   49.2231 H   0  0  0  0  0  0  0  0  0  0  0  0
   59.4081   27.5966   46.7939 H   0  0  0  0  0  0  0  0  0  0  0  0
   59.2423   27.7397   45.1346 H   0  0  0  0  0  0  0  0  0  0  0  0
   58.2152   28.4827   43.8619 H   0  0  0  0  0  0  0  0  0  0  0  0
   59.9894   28.7638   43.8619 H   0  0  0  0  0  0  0  0  0  0  0  0
   58.1198   30.4365   42.6835 H   0  0  0  0  0  0  0  0  0  0  0  0
   57.4682   32.9435   42.2018 H   0  0  0  0  0  0  0  0  0  0  0  0
  1  2  1  0
  2  3  1  0
  3  4  1  0
  4  5  1  0
  5  6  1  0
  6  7  1  0
  7  8  1  0
  8  9  1  0
  9 10  2  0
 10 11  1  0
 11 12  2  0
 12 13  1  0
 13 14  2  0
 14 15  1  0
 15 16  2  0
 16 17  1  0
 16 18  1  0
 18 19  1  0
 19 20  2  0
 20 21  1  0
 21 22  1  0
 22  9  1  0
 15 10  1  0
 22 18  2  0
  1 23  1  0
  1 24  1  0
  1 25  1  0
  2 26  1  0
  2 27  1  0
  3 28  1  0
  4 29  1  0
  4 30  1  0
  5 31  1  0
  5 32  1  0
  6 33  1  0
  6 34  1  0
  7 35  1  0
  7 36  1  0
  8 37  1  0
 11 38  1  0
 12 39  1  0
 13 40  1  0
 14 41  1  0
 17 42  1  0
 17 43  1  0
 17 44  1  0
 19 45  1  0
 20 46  1  0
M  CHG  1  16   1
M  END
>  <UniqueID>  (4) 
4

>  <SMILES>  (4) 
CCNCCCCNc1c2ccccc2[n+](C)c2ccsc12

>  <Energy>  (4) 
87.11471317452718

>  <Genealogy>  (4) 
CCNCCCCNc1c2ccccc2[n+](C)c2ccsc12 (3D coordinates assigned)
CCNCCCCNc1c2ccccc2[n+](C)c2ccsc12 (optimized conformer: 87.11471317452718 kcal/mol)

>  <smiles>  (4) 
CCNCCCCNc1c2ccccc2[n+](C)c2ccsc12

>  <score_type>  (4) 
oracle

>  <origin>  (4) 
adg

>  <m_score__min__energy>  (4) 
-5.5700000000000003

>  <m_primary>  (4) 
energy

$$$$
4:0
     RDKit          3D

 56 59  0  0  0  0  0  0  0  0999 V2000
   63.9970   33.1050   48.5980 C   0  0  0  0  0  0  0  0  0  0  0  0
   63.6650   33.4080   47.1400 C   0  0  0  0  0  0  0  0  0  0  0  0
   62.3800   32.7740   46.7640 N   0  0  0  0  0  0  0  0  0  0  0  0
   61.9120   31.8740   47.8340 C   0  0  0  0  0  0  0  0  0  0  0  0
   61.3430   33.7840   46.4560 C   0  0  0  0  0  0  0  0  0  0  0  0
   60.5740   34.1910   47.7240 C   0  0  0  0  0  0  0  0  0  0  0  0
   59.3070   35.0050   47.4290 C   0  0  0  0  0  0  0  0  0  0  0  0
   58.1390   34.1380   47.2770 N   0  0  0  0  0  0  0  0  0  0  0  0
   58.2790   32.7270   47.0250 C   0  0  0  0  0  0  0  0  0  0  0  0
   58.1310   32.2270   45.7180 C   0  0  0  0  0  0  0  0  0  0  0  0
   57.9270   33.0960   44.6230 C   0  0  0  0  0  0  0  0  0  0  0  0
   57.7690   32.5910   43.3340 C   0  0  0  0  0  0  0  0  0  0  0  0
   57.8190   31.2190   43.1100 C   0  0  0  0  0  0  0  0  0  0  0  0
   58.0410   30.3450   44.1740 C   0  0  0  0  0  0  0  0  0  0  0  0
   58.2110   30.8340   45.4910 C   0  0  0  0  0  0  0  0  0  0  0  0
   58.4650   29.9650   46.5810 C   0  0  0  0  0  0  0  0  0  0  0  0
   58.5380   28.5020   46.3310 C   0  0  0  0  0  0  0  0  0  0  0  0
   57.3660   27.7650   46.1160 C   0  0  0  0  0  0  0  0  0  0  0  0
   57.4360   26.3880   45.8820 C   0  0  0  0  0  0  0  0  0  0  0  0
   58.6780   25.7430   45.8610 C   0  0  0  0  0  0  0  0  0  0  0  0
   58.7660   24.0160   45.5670 Cl  0  0  0  0  0  0  0  0  0  0  0  0
   59.8500   26.4770   46.0750 C   0  0  0  0  0  0  0  0  0  0  0  0
   59.7830   27.8540   46.3100 C   0  0  0  0  0  0  0  0  0  0  0  0
   58.6490   30.4730   47.8530 N   0  0  0  0  0  0  0  0  0  0  0  0
   58.9160   29.6260   48.9070 C   0  0  0  0  0  0  0  0  0  0  0  0
   59.1020   30.1080   50.1990 C   0  0  0  0  0  0  0  0  0  0  0  0
   59.0190   31.4690   50.4400 C   0  0  0  0  0  0  0  0  0  0  0  0
   58.7510   32.3370   49.3910 C   0  0  0  0  0  0  0  0  0  0  0  0
   58.5640   31.8360   48.0830 C   0  0  0  0  0  0  0  0  0  0  0  0
   63.3448   33.7003   49.2539 H   0  0  0  0  0  0  0  0  0  0  0  0
   63.8374   32.0347   48.7956 H   0  0  0  0  0  0  0  0  0  0  0  0
   65.0483   33.3615   48.7956 H   0  0  0  0  0  0  0  0  0  0  0  0
   63.5861   34.4967   47.0043 H   0  0  0  0  0  0  0  0  0  0  0  0
   64.4639   33.0059   46.4996 H   0  0  0  0  0  0  0  0  0  0  0  0
   62.1428   32.3179   48.8136 H   0  0  0  0  0  0  0  0  0  0  0  0
   60.8252   31.7307   47.7433 H   0  0  0  0  0  0  0  0  0  0  0  0
   62.4188   30.9019   47.7433 H   0  0  0  0  0  0  0  0  0  0  0  0
   61.8250   34.6746   46.0266 H   0  0  0  0  0  0  0  0  0  0  0  0
   60.6310   33.3472   45.7402 H   0  0  0  0  0  0  0  0  0  0  0  0
   60.2846   33.2781   48.2652 H   0  0  0  0  0  0  0  0  0  0  0  0
   61.2418   34.8310   48.3193 H   0  0  0  0  0  0  0  0  0  0  0  0
   59.1287   35.7033   48.2600 H   0  0  0  0  0  0  0  0  0  0  0  0
   59.4580   35.5509   46.4860 H   0  0  0  0  0  0  0  0  0  0  0  0
   57.1920   34.5710   47.1980 H   0  0  0  0  0  0  0  0  0  0  0  0
   57.8925   34.1827   44.7897 H   0  0  0  0  0  0  0  0  0  0  0  0
   57.6043   33.2789   42.4916 H   0  0  0  0  0  0  0  0  0  0  0  0
   57.6833   30.8230   42.0928 H   0  0  0  0  0  0  0  0  0  0  0  0
   58.0845   29.2619   43.9871 H   0  0  0  0  0  0  0  0  0  0  0  0
   56.3891   28.2703   46.1313 H   0  0  0  0  0  0  0  0  0  0  0  0
   56.5143   25.8114   45.7143 H   0  0  0  0  0  0  0  0  0  0  0  0
   60.8260   25.9699   46.0584 H   0  0  0  0  0  0  0  0  0  0  0  0
   60.7055   28.4290   46.4783 H   0  0  0  0  0  0  0  0  0  0  0  0
   58.9836   28.5437   48.7225 H   0  0  0  0  0  0  0  0  0  0  0  0
   59.3137   29.4119   51.0240 H   0  0  0  0  0  0  0  0  0  0  0  0
   59.1648   31.8601   51.4577 H   0  0  0  0  0  0  0  0  0  0  0  0
   58.6839   33.4189   49.5783 H   0  0  0  0  0  0  0  0  0  0  0  0
  1  2  1  0
  2  3  1  0
  3  4  1  0
  3  5  1  0
  5  6  1  0
  6  7  1  0
  7  8  1  0
  8  9  1  0
  9 10  2  0
 10 11  1  0
 11 12  2  0
 12 13  1  0
 13 14  2  0
 14 15  1  0
 15 16  2  0
 16 17  1  0
 17 18  2  0
 18 19  1  0
 19 20  2  0
 20 21  1  0
 20 22  1  0
 22 23  2  0
 16 24  1  0
 24 25  2  0
 25 26  1  0
 26 27  2  0
 27 28  1  0
 28 29  2  0
 29  9  1  0
 15 10  1  0
 23 17  1  0
 29 24  1  0
  1 30  1  0
  1 31  1  0
  1 32  1  0
  2 33  1  0
  2 34  1  0
  4 35  1  0
  4 36  1  0
  4 37  1  0
  5 38  1  0
  5 39  1  0
  6 40  1  0
  6 41  1  0
  7 42  1  0
  7 43  1  0
  8 44  1  0
 11 45  1  0
 12 46  1  0
 13 47  1  0
 14 48  1  0
 18 49  1  0
 19 50  1  0
 22 51  1  0
 23 52  1  0
 25 53  1  0
 26 54  1  0
 27 55  1  0
 28 56  1  0
M  CHG  1  24   1
M  END
>  <UniqueID>  (5) 
5

>  <SMILES>  (5) 
CCN(C)CCCNc1c2ccccc2c(-c2ccc(Cl)cc2)[n+]2ccccc12

>  <Energy>  (5) 
84.48655489852248

>  <Genealogy>  (5) 
CCN(C)CCCNc1c2ccccc2c(-c2ccc(Cl)cc2)[n+]2ccccc12 (3D coordinates assigned)
CCN(C)CCCNc1c2ccccc2c(-c2ccc(Cl)cc2)[n+]2ccccc12 (optimized conformer: 84.48655489852248 kcal/mol)

>  <smiles>  (5) 
CCN(C)CCCNc1c2ccccc2c(-c2ccc(Cl)cc2)[n+]2ccccc12

>  <score_type>  (5) 
oracle

>  <origin>  (5) 
adg

>  <m_score__min__energy>  (5) 
-6.7800000000000002

>  <m_primary>  (5) 
energy

$$$$
5:0
     RDKit          3D

 35 36  0  0  0  0  0  0  0  0999 V2000
   60.0650   26.9940   46.4000 C   0  0  0  0  0  0  0  0  0  0  0  0
   60.3340   28.0330   45.3170 C   0  0  0  0  0  0  0  0  0  0  0  0
   59.0740   28.5800   44.8020 N   0  0  0  0  0  0  0  0  0  0  0  0
   57.9500   27.7040   44.4520 C   0  0  0  0  0  0  0  0  0  0  0  0
   58.1500   27.1030   43.0650 C   0  0  0  0  0  0  0  0  0  0  0  0
   58.8720   29.9980   44.8170 C   0  0  0  0  0  0  0  0  0  0  0  0
   59.2320   30.7180   45.9120 N   0  0  0  0  0  0  0  0  0  0  0  0
   59.0460   32.0630   45.9680 C   0  0  0  0  0  0  0  0  0  0  0  0
   58.5020   32.7340   44.8530 C   0  0  0  0  0  0  0  0  0  0  0  0
   58.1270   31.9690   43.7440 C   0  0  0  0  0  0  0  0  0  0  0  0
   58.3200   30.6240   43.7430 N   0  0  0  0  0  0  0  0  0  0  0  0
   58.2120   34.2150   44.8770 C   0  0  0  0  0  0  0  0  0  0  0  0
   59.0040   34.9490   45.9650 C   0  0  0  0  0  0  0  0  0  0  0  0
   58.9010   34.2060   47.2970 C   0  0  0  0  0  0  0  0  0  0  0  0
   59.5260   32.8110   47.1830 C   0  0  0  0  0  0  0  0  0  0  0  0
   60.1849   27.4573   47.3905 H   0  0  0  0  0  0  0  0  0  0  0  0
   59.0385   26.6127   46.2954 H   0  0  0  0  0  0  0  0  0  0  0  0
   60.7775   26.1625   46.2954 H   0  0  0  0  0  0  0  0  0  0  0  0
   60.9361   28.8499   45.7413 H   0  0  0  0  0  0  0  0  0  0  0  0
   60.8758   27.5510   44.4898 H   0  0  0  0  0  0  0  0  0  0  0  0
   57.8804   26.8923   45.1911 H   0  0  0  0  0  0  0  0  0  0  0  0
   57.0242   28.2980   44.4511 H   0  0  0  0  0  0  0  0  0  0  0  0
   58.4960   26.0634   43.1623 H   0  0  0  0  0  0  0  0  0  0  0  0
   57.1970   27.1224   42.5161 H   0  0  0  0  0  0  0  0  0  0  0  0
   58.9014   27.6896   42.5161 H   0  0  0  0  0  0  0  0  0  0  0  0
   57.6740   32.4581   42.8690 H   0  0  0  0  0  0  0  0  0  0  0  0
   58.0370   30.0670   42.9050 H   0  0  0  0  0  0  0  0  0  0  0  0
   58.4765   34.6425   43.8986 H   0  0  0  0  0  0  0  0  0  0  0  0
   57.1420   34.3433   45.0975 H   0  0  0  0  0  0  0  0  0  0  0  0
   60.0606   35.0092   45.6650 H   0  0  0  0  0  0  0  0  0  0  0  0
   58.5862   35.9591   46.0883 H   0  0  0  0  0  0  0  0  0  0  0  0
   59.4313   34.7780   48.0726 H   0  0  0  0  0  0  0  0  0  0  0  0
   57.8392   34.0995   47.5639 H   0  0  0  0  0  0  0  0  0  0  0  0
   60.6191   32.9178   47.1227 H   0  0  0  0  0  0  0  0  0  0  0  0
   59.2248   32.2357   48.0709 H   0  0  0  0  0  0  0  0  0  0  0  0
  1  2  1  0
  2  3  1  0
  3  4  1  0
  4  5  1  0
  3  6  1  0
  6  7  2  0
  7  8  1  0
  8  9  2  0
  9 10  1  0
 10 11  2  0
  9 12  1  0
 12 13  1  0
 13 14  1  0
 14 15  1  0
 11  6  1  0
 15  8  1  0
  1 16  1  0
  1 17  1  0
  1 18  1  0
  2 19  1  0
  2 20  1  0
  4 21  1  0
  4 22  1  0
  5 23  1  0
  5 24  1  0
  5 25  1  0
 10 26  1  0
 11 27  1  0
 12 28  1  0
 12 29  1  0
 13 30  1  0
 13 31  1  0
 14 32  1  0
 14 33  1  0
 15 34  1  0
 15 35  1  0
M  CHG  1  11   1
M  END
>  <UniqueID>  (6) 
6

>  <SMILES>  (6) 
CCN(CC)c1nc2c(c[nH+]1)CCCC2

>  <Energy>  (6) 
31.258479377214137

>  <Genealogy>  (6) 
CCN(CC)c1nc2c(c[nH+]1)CCCC2 (protonated)
CCN(CC)c1nc2c(c[nH+]1)CCCC2 (3D coordinates assigned)
CCN(CC)c1nc2c(c[nH+]1)CCCC2 (nonaromatic ring conformer: 31.258479377214137 kcal/mol)

>  <smiles>  (6) 
CCN(CC)c1ncc2c(n1)CCCC2

>  <score_type>  (6) 
oracle

>  <origin>  (6) 
adg

>  <m_score__min__energy>  (6) 
-4.29

>  <m_primary>  (6) 
energy

$$$$
6:0
     RDKit          3D

 32 34  0  0  0  0  0  0  0  0999 V2000
   59.6440   25.4930   46.3650 C   0  0  0  0  0  0  0  0  0  0  0  0
   58.8100   26.6920   46.0080 C   0  0  0  0  0  0  0  0  0  0  0  0
   59.4260   27.9400   45.8100 C   0  0  0  0  0  0  0  0  0  0  0  0
   58.6620   29.0690   45.4830 C   0  0  0  0  0  0  0  0  0  0  0  0
   57.2710   28.9450   45.3260 C   0  0  0  0  0  0  0  0  0  0  0  0
   56.6530   27.7090   45.5290 C   0  0  0  0  0  0  0  0  0  0  0  0
   57.4110   26.5830   45.8690 C   0  0  0  0  0  0  0  0  0  0  0  0
   56.5810   25.0500   46.1080 Cl  0  0  0  0  0  0  0  0  0  0  0  0
   56.4960   30.0560   44.9860 O   0  0  0  0  0  0  0  0  0  0  0  0
   57.0810   31.2910   44.5820 C   0  0  0  0  0  0  0  0  0  0  0  0
   58.3540   31.4950   45.2810 N   0  0  0  0  0  0  0  0  0  0  0  0
   58.7850   32.8250   45.6280 C   0  0  0  0  0  0  0  0  0  0  0  0
   58.8470   33.8270   44.6450 C   0  0  0  0  0  0  0  0  0  0  0  0
   59.2670   35.1190   44.9770 C   0  0  0  0  0  0  0  0  0  0  0  0
   59.6310   35.4210   46.2910 C   0  0  0  0  0  0  0  0  0  0  0  0
   59.5770   34.4310   47.2760 C   0  0  0  0  0  0  0  0  0  0  0  0
   59.1570   33.1380   46.9490 C   0  0  0  0  0  0  0  0  0  0  0  0
   59.3330   30.3990   45.2610 C   0  0  0  0  0  0  0  0  0  0  0  0
   59.7068   25.4028   47.4595 H   0  0  0  0  0  0  0  0  0  0  0  0
   59.1804   24.5867   45.9483 H   0  0  0  0  0  0  0  0  0  0  0  0
   60.6550   25.6124   45.9483 H   0  0  0  0  0  0  0  0  0  0  0  0
   60.5174   28.0315   45.9126 H   0  0  0  0  0  0  0  0  0  0  0  0
   55.5620   27.6200   45.4208 H   0  0  0  0  0  0  0  0  0  0  0  0
   57.2602   31.2715   43.4969 H   0  0  0  0  0  0  0  0  0  0  0  0
   56.3956   32.1143   44.8320 H   0  0  0  0  0  0  0  0  0  0  0  0
   58.5635   33.5939   43.6081 H   0  0  0  0  0  0  0  0  0  0  0  0
   59.3107   35.8984   44.2020 H   0  0  0  0  0  0  0  0  0  0  0  0
   59.9602   36.4380   46.5507 H   0  0  0  0  0  0  0  0  0  0  0  0
   59.8654   34.6694   48.3104 H   0  0  0  0  0  0  0  0  0  0  0  0
   59.1171   32.3619   47.7276 H   0  0  0  0  0  0  0  0  0  0  0  0
   59.8395   30.3874   44.2846 H   0  0  0  0  0  0  0  0  0  0  0  0
   60.0588   30.5638   46.0709 H   0  0  0  0  0  0  0  0  0  0  0  0
  1  2  1  0
  2  3  2  0
  3  4  1  0
  4  5  2  0
  5  6  1  0
  6  7  2  0
  7  8  1  0
  5  9  1  0
  9 10  1  0
 10 11  1  0
 11 12  1  0
 12 13  2  0
 13 14  1  0
 14 15  2  0
 15 16  1  0
 16 17  2  0
 11 18  1  0
  7  2  1  0
 17 12  1  0
 18  4  1  0
  1 19  1  0
  1 20  1  0
  1 21  1  0
  3 22  1  0
  6 23  1  0
 10 24  1  0
 10 25  1  0
 13 26  1  0
 14 27  1  0
 15 28  1  0
 16 29  1  0
 17 30  1  0
 18 31  1  0
 18 32  1  0
M  END
>  <UniqueID>  (7) 
7

>  <SMILES>  (7) 
Cc1cc2c(cc1Cl)OCN(c1ccccc1)C2

>  <Energy>  (7) 
40.93725765147836

>  <Genealogy>  (7) 
Cc1cc2c(cc1Cl)OCN(c1ccccc1)C2 (3D coordinates assigned)
Cc1cc2c(cc1Cl)OCN(c1ccccc1)C2 (nonaromatic ring conformer: 40.93725765147836 kcal/mol)

>  <smiles>  (7) 
Cc1cc2c(cc1Cl)OCN(c1ccccc1)C2

>  <score_type>  (7) 
oracle

>  <origin>  (7) 
adg

>  <m_score__min__energy>  (7) 
-6.8300000000000001

>  <m_primary>  (7) 
energy

$$$$
7:0
     RDKit          3D

 67 69  0  0  0  0  0  0  0  0999 V2000
   63.5920   33.8360   49.6100 C   0  0  0  0  0  0  0  0  0  0  0  0
   62.3370   34.2170   48.8070 C   0  0  0  0  0  0  0  0  0  0  0  0
   62.4900   34.1490   47.3310 N   0  0  0  0  0  0  0  0  0  0  0  0
   63.7220   33.5140   46.8140 C   0  0  0  0  0  0  0  0  0  0  0  0
   63.7010   32.0080   47.0620 C   0  0  0  0  0  0  0  0  0  0  0  0
   61.2630   33.7810   46.5900 C   0  0  0  0  0  0  0  0  0  0  0  0
   59.9670   34.1680   47.3130 C   0  0  0  0  0  0  0  0  0  0  0  0
   59.2180   35.0320   46.4840 O   0  0  0  0  0  0  0  0  0  0  0  0
   59.0890   34.4590   45.1970 C   0  0  0  0  0  0  0  0  0  0  0  0
   57.7480   33.7280   45.0820 C   0  0  0  0  0  0  0  0  0  0  0  0
   57.7760   32.3080   45.6660 C   0  0  0  0  0  0  0  0  0  0  0  0
   56.8690   31.4090   44.9360 N   0  0  0  0  0  0  0  0  0  0  0  0
   57.5670   30.7190   43.8380 C   0  0  0  0  0  0  0  0  0  0  0  0
   57.4060   29.1870   43.9280 C   0  0  0  0  0  0  0  0  0  0  0  0
   58.6470   28.5190   44.3600 N   0  0  0  0  0  0  0  0  0  0  0  0
   59.1670   29.0960   45.5800 C   0  0  0  0  0  0  0  0  0  0  0  0
   60.4210   29.7220   45.5910 C   0  0  0  0  0  0  0  0  0  0  0  0
   60.9040   30.3180   46.7560 C   0  0  0  0  0  0  0  0  0  0  0  0
   60.1640   30.2810   47.9560 C   0  0  0  0  0  0  0  0  0  0  0  0
   58.9280   29.5710   47.9670 C   0  0  0  0  0  0  0  0  0  0  0  0
   58.4380   29.0180   46.7760 C   0  0  0  0  0  0  0  0  0  0  0  0
   58.1530   29.3610   49.1150 O   0  0  0  0  0  0  0  0  0  0  0  0
   58.6170   29.4920   50.4500 C   0  0  0  0  0  0  0  0  0  0  0  0
   58.8010   30.9400   50.7750 C   0  0  0  0  0  0  0  0  0  0  0  0
   57.9770   31.5630   51.7290 C   0  0  0  0  0  0  0  0  0  0  0  0
   58.1690   32.9090   52.0530 C   0  0  0  0  0  0  0  0  0  0  0  0
   59.1860   33.6370   51.4340 C   0  0  0  0  0  0  0  0  0  0  0  0
   60.0070   33.0260   50.4850 C   0  0  0  0  0  0  0  0  0  0  0  0
   59.8080   31.6800   50.1280 C   0  0  0  0  0  0  0  0  0  0  0  0
   60.6880   31.0650   49.1110 C   0  0  0  0  0  0  0  0  0  0  0  0
   61.9270   31.3040   49.1750 O   0  0  0  0  0  0  0  0  0  0  0  0
   63.3730   33.9025   50.6859 H   0  0  0  0  0  0  0  0  0  0  0  0
   63.8894   32.8071   49.3592 H   0  0  0  0  0  0  0  0  0  0  0  0
   64.4112   34.5259   49.3592 H   0  0  0  0  0  0  0  0  0  0  0  0
   61.5257   33.5334   49.0976 H   0  0  0  0  0  0  0  0  0  0  0  0
   62.1281   35.2703   49.0456 H   0  0  0  0  0  0  0  0  0  0  0  0
   63.7972   33.7003   45.7325 H   0  0  0  0  0  0  0  0  0  0  0  0
   64.5875   33.9455   47.3381 H   0  0  0  0  0  0  0  0  0  0  0  0
   63.6983   31.8147   48.1449 H   0  0  0  0  0  0  0  0  0  0  0  0
   62.7967   31.5745   46.6099 H   0  0  0  0  0  0  0  0  0  0  0  0
   64.5928   31.5495   46.6099 H   0  0  0  0  0  0  0  0  0  0  0  0
   61.2812   34.2885   45.6142 H   0  0  0  0  0  0  0  0  0  0  0  0
   61.2623   32.6853   46.4931 H   0  0  0  0  0  0  0  0  0  0  0  0
   59.3802   33.2627   47.5279 H   0  0  0  0  0  0  0  0  0  0  0  0
   60.2067   34.6760   48.2588 H   0  0  0  0  0  0  0  0  0  0  0  0
   59.1372   35.2536   44.4378 H   0  0  0  0  0  0  0  0  0  0  0  0
   59.9069   33.7410   45.0374 H   0  0  0  0  0  0  0  0  0  0  0  0
   56.9857   34.3112   45.6194 H   0  0  0  0  0  0  0  0  0  0  0  0
   57.5200   33.6340   44.0100 H   0  0  0  0  0  0  0  0  0  0  0  0
   58.8008   31.9138   45.5992 H   0  0  0  0  0  0  0  0  0  0  0  0
   57.4443   32.3581   46.7136 H   0  0  0  0  0  0  0  0  0  0  0  0
   56.0660   31.9580   44.5470 H   0  0  0  0  0  0  0  0  0  0  0  0
   57.1520   31.0647   42.8797 H   0  0  0  0  0  0  0  0  0  0  0  0
   58.6388   30.9546   43.9135 H   0  0  0  0  0  0  0  0  0  0  0  0
   56.6100   28.9568   44.6514 H   0  0  0  0  0  0  0  0  0  0  0  0
   57.1555   28.8151   42.9235 H   0  0  0  0  0  0  0  0  0  0  0  0
   59.3700   28.6330   43.6080 H   0  0  0  0  0  0  0  0  0  0  0  0
   58.4700   27.4920   44.4690 H   0  0  0  0  0  0  0  0  0  0  0  0
   61.0286   29.7434   44.6743 H   0  0  0  0  0  0  0  0  0  0  0  0
   61.8795   30.8260   46.7384 H   0  0  0  0  0  0  0  0  0  0  0  0
   57.4612   28.5122   46.7791 H   0  0  0  0  0  0  0  0  0  0  0  0
   57.8805   29.0525   51.1388 H   0  0  0  0  0  0  0  0  0  0  0  0
   59.5781   28.9677   50.5568 H   0  0  0  0  0  0  0  0  0  0  0  0
   57.1785   30.9891   52.2220 H   0  0  0  0  0  0  0  0  0  0  0  0
   57.5187   33.3943   52.7957 H   0  0  0  0  0  0  0  0  0  0  0  0
   59.3409   34.6944   51.6945 H   0  0  0  0  0  0  0  0  0  0  0  0
   60.8164   33.6018   50.0123 H   0  0  0  0  0  0  0  0  0  0  0  0
  1  2  1  0
  2  3  1  0
  3  4  1  0
  4  5  1  0
  3  6  1  0
  6  7  1  0
  7  8  1  0
  8  9  1  0
  9 10  1  0
 10 11  1  0
 11 12  1  0
 12 13  1  0
 13 14  1  0
 14 15  1  0
 15 16  1  0
 16 17  2  0
 17 18  1  0
 18 19  2  0
 19 20  1  0
 20 21  2  0
 20 22  1  0
 22 23  1  0
 23 24  1  0
 24 25  2  0
 25 26  1  0
 26 27  2  0
 27 28  1  0
 28 29  2  0
 29 30  1  0
 30 31  2  0
 21 16  1  0
 29 24  1  0
 30 19  1  0
  1 32  1  0
  1 33  1  0
  1 34  1  0
  2 35  1  0
  2 36  1  0
  4 37  1  0
  4 38  1  0
  5 39  1  0
  5 40  1  0
  5 41  1  0
  6 42  1  0
  6 43  1  0
  7 44  1  0
  7 45  1  0
  9 46  1  0
  9 47  1  0
 10 48  1  0
 10 49  1  0
 11 50  1  0
 11 51  1  0
 12 52  1  0
 13 53  1  0
 13 54  1  0
 14 55  1  0
 14 56  1  0
 15 57  1  0
 15 58  1  0
 17 59  1  0
 18 60  1  0
 21 61  1  0
 23 62  1  0
 23 63  1  0
 25 64  1  0
 26 65  1  0
 27 66  1  0
 28 67  1  0
M  CHG  1  15   1
M  END
>  <UniqueID>  (8) 
8

>  <SMILES>  (8) 
CCN(CC)CCOCCCNCC[NH2+]c1ccc2c(c1)OCc1ccccc1C2=O

>  <Energy>  (8) 
85.62405143431508

>  <Genealogy>  (8) 
CCN(CC)CCOCCCNCC[NH2+]c1ccc2c(c1)OCc1ccccc1C2=O (protonated)
CCN(CC)CCOCCCNCC[NH2+]c1ccc2c(c1)OCc1ccccc1C2=O (3D coordinates assigned)
CCN(CC)CCOCCCNCC[NH2+]c1ccc2c(c1)OCc1ccccc1C2=O (nonaromatic ring conformer: 85.62405143431508 kcal/mol)

>  <smiles>  (8) 
CCN(CC)CCOCCCNCCNc1ccc2c(c1)OCc1ccccc1C2=O

>  <score_type>  (8) 
oracle

>  <origin>  (8) 
adg

>  <m_score__min__energy>  (8) 
-6.4500000000000002

>  <m_primary>  (8) 
energy

$$$$
8:0
     RDKit          3D

 30 32  0  0  0  0  0  0  0  0999 V2000
   59.2200   34.5050   46.7220 C   0  0  0  0  0  0  0  0  0  0  0  0
   59.0490   33.1400   46.1900 N   0  0  0  0  0  0  0  0  0  0  0  0
   59.9560   32.1440   46.4840 C   0  0  0  0  0  0  0  0  0  0  0  0
   61.1850   32.3910   47.2690 C   0  0  0  0  0  0  0  0  0  0  0  0
   62.2000   33.2250   46.7700 C   0  0  0  0  0  0  0  0  0  0  0  0
   63.3690   33.4290   47.5090 C   0  0  0  0  0  0  0  0  0  0  0  0
   63.5400   32.7940   48.7430 C   0  0  0  0  0  0  0  0  0  0  0  0
   65.1390   33.0750   49.7490 Br  0  0  0  0  0  0  0  0  0  0  0  0
   62.5420   31.9470   49.2360 C   0  0  0  0  0  0  0  0  0  0  0  0
   61.3720   31.7400   48.4990 C   0  0  0  0  0  0  0  0  0  0  0  0
   59.7400   30.8760   46.0450 N   0  0  0  0  0  0  0  0  0  0  0  0
   58.6700   30.5560   45.2810 C   0  0  0  0  0  0  0  0  0  0  0  0
   58.4880   29.2380   44.8480 C   0  0  0  0  0  0  0  0  0  0  0  0
   57.3920   28.9120   44.0440 C   0  0  0  0  0  0  0  0  0  0  0  0
   56.4780   29.9000   43.6710 C   0  0  0  0  0  0  0  0  0  0  0  0
   56.6540   31.2200   44.1000 C   0  0  0  0  0  0  0  0  0  0  0  0
   57.7540   31.5570   44.9120 C   0  0  0  0  0  0  0  0  0  0  0  0
   57.9730   32.8640   45.3800 C   0  0  0  0  0  0  0  0  0  0  0  0
   57.1710   33.7830   45.0520 O   0  0  0  0  0  0  0  0  0  0  0  0
   59.2160   34.4732   47.8215 H   0  0  0  0  0  0  0  0  0  0  0  0
   60.1769   34.9183   46.3706 H   0  0  0  0  0  0  0  0  0  0  0  0
   58.3946   35.1416   46.3706 H   0  0  0  0  0  0  0  0  0  0  0  0
   62.0743   33.7187   45.7951 H   0  0  0  0  0  0  0  0  0  0  0  0
   64.1563   34.0907   47.1188 H   0  0  0  0  0  0  0  0  0  0  0  0
   62.6778   31.4433   50.2044 H   0  0  0  0  0  0  0  0  0  0  0  0
   60.5945   31.0641   48.8845 H   0  0  0  0  0  0  0  0  0  0  0  0
   59.2072   28.4586   45.1402 H   0  0  0  0  0  0  0  0  0  0  0  0
   57.2491   27.8755   43.7045 H   0  0  0  0  0  0  0  0  0  0  0  0
   55.6170   29.6395   43.0379 H   0  0  0  0  0  0  0  0  0  0  0  0
   55.9325   31.9953   43.8027 H   0  0  0  0  0  0  0  0  0  0  0  0
  1  2  1  0
  2  3  1  0
  3  4  1  0
  4  5  2  0
  5  6  1  0
  6  7  2  0
  7  8  1  0
  7  9  1  0
  9 10  2  0
  3 11  2  0
 11 12  1  0
 12 13  2  0
 13 14  1  0
 14 15  2  0
 15 16  1  0
 16 17  2  0
 17 18  1  0
 18 19  2  0
 18  2  1  0
 10  4  1  0
 17 12  1  0
  1 20  1  0
  1 21  1  0
  1 22  1  0
  5 23  1  0
  6 24  1  0
  9 25  1  0
 10 26  1  0
 13 27  1  0
 14 28  1  0
 15 29  1  0
 16 30  1  0
M  END
>  <UniqueID>  (9) 
9

>  <SMILES>  (9) 
Cn1c(-c2ccc(Br)cc2)nc2ccccc2c1=O

>  <Energy>  (9) 
47.60533893996819

>  <Genealogy>  (9) 
Cn1c(-c2ccc(Br)cc2)nc2ccccc2c1=O (3D coordinates assigned)
Cn1c(-c2ccc(Br)cc2)nc2ccccc2c1=O (optimized conformer: 47.60533893996819 kcal/mol)

>  <smiles>  (9) 
Cn1c(-c2ccc(Br)cc2)nc2ccccc2c1=O

>  <score_type>  (9) 
oracle

>  <origin>  (9) 
adg

>  <m_score__min__energy>  (9) 
-7.0899999999999999

>  <m_primary>  (9) 
energy

$$$$
9:0
     RDKit          3D

 41 43  0  0  0  0  0  0  0  0999 V2000
   53.8200   23.4060   45.9550 C   0  0  0  0  0  0  0  0  0  0  0  0
   55.0210   23.7210   46.8590 C   0  0  0  0  0  0  0  0  0  0  0  0
   55.9140   24.7760   46.3330 N   0  0  0  0  0  0  0  0  0  0  0  0
   57.1290   24.9820   47.1380 C   0  0  0  0  0  0  0  0  0  0  0  0
   57.7550   26.3220   46.7500 C   0  0  0  0  0  0  0  0  0  0  0  0
   57.8080   26.4850   45.2880 N   0  0  0  0  0  0  0  0  0  0  0  0
   58.3120   27.7090   44.7000 C   0  0  0  0  0  0  0  0  0  0  0  0
   58.4170   27.8050   43.4460 O   0  0  0  0  0  0  0  0  0  0  0  0
   58.6520   28.9180   45.5360 C   0  0  0  0  0  0  0  0  0  0  0  0
   58.2920   30.1480   44.8310 N   0  0  0  0  0  0  0  0  0  0  0  0
   57.8870   30.2030   43.5670 N   0  0  0  0  0  0  0  0  0  0  0  0
   57.6900   31.4960   43.2140 C   0  0  0  0  0  0  0  0  0  0  0  0
   57.9950   32.2780   44.3090 C   0  0  0  0  0  0  0  0  0  0  0  0
   57.9860   33.6560   44.4980 C   0  0  0  0  0  0  0  0  0  0  0  0
   58.3820   34.1440   45.7580 C   0  0  0  0  0  0  0  0  0  0  0  0
   58.7760   33.2500   46.7830 C   0  0  0  0  0  0  0  0  0  0  0  0
   59.2730   33.8760   48.3440 Cl  0  0  0  0  0  0  0  0  0  0  0  0
   58.7740   31.8600   46.5570 C   0  0  0  0  0  0  0  0  0  0  0  0
   58.3690   31.4100   45.2990 C   0  0  0  0  0  0  0  0  0  0  0  0
   57.4880   25.3290   44.4330 C   0  0  0  0  0  0  0  0  0  0  0  0
   56.1800   24.6430   44.8800 C   0  0  0  0  0  0  0  0  0  0  0  0
   52.9428   23.1759   46.5776 H   0  0  0  0  0  0  0  0  0  0  0  0
   53.6006   24.2770   45.3200 H   0  0  0  0  0  0  0  0  0  0  0  0
   54.0564   22.5395   45.3200 H   0  0  0  0  0  0  0  0  0  0  0  0
   54.6400   24.0477   47.8378 H   0  0  0  0  0  0  0  0  0  0  0  0
   55.6204   22.8008   46.9212 H   0  0  0  0  0  0  0  0  0  0  0  0
   56.8675   24.9915   48.2064 H   0  0  0  0  0  0  0  0  0  0  0  0
   57.8440   24.1671   46.9513 H   0  0  0  0  0  0  0  0  0  0  0  0
   57.1531   27.1363   47.1796 H   0  0  0  0  0  0  0  0  0  0  0  0
   58.7833   26.3503   47.1397 H   0  0  0  0  0  0  0  0  0  0  0  0
   58.0974   28.8693   46.4847 H   0  0  0  0  0  0  0  0  0  0  0  0
   59.7350   28.9232   45.7287 H   0  0  0  0  0  0  0  0  0  0  0  0
   57.7560   29.3730   42.9460 H   0  0  0  0  0  0  0  0  0  0  0  0
   57.3488   31.8569   42.2325 H   0  0  0  0  0  0  0  0  0  0  0  0
   57.6806   34.3398   43.6923 H   0  0  0  0  0  0  0  0  0  0  0  0
   58.3853   35.2276   45.9475 H   0  0  0  0  0  0  0  0  0  0  0  0
   59.0805   31.1543   47.3432 H   0  0  0  0  0  0  0  0  0  0  0  0
   57.3750   25.6726   43.3942 H   0  0  0  0  0  0  0  0  0  0  0  0
   58.3073   24.5997   44.5160 H   0  0  0  0  0  0  0  0  0  0  0  0
   55.3425   25.0957   44.3290 H   0  0  0  0  0  0  0  0  0  0  0  0
   56.2857   23.5693   44.6653 H   0  0  0  0  0  0  0  0  0  0  0  0
  1  2  1  0
  2  3  1  0
  3  4  1  0
  4  5  1  0
  5  6  1  0
  6  7  1  0
  7  8  2  0
  7  9  1  0
  9 10  1  0
 10 11  1  0
 11 12  2  0
 12 13  1  0
 13 14  2  0
 14 15  1  0
 15 16  2  0
 16 17  1  0
 16 18  1  0
 18 19  2  0
  6 20  1  0
 20 21  1  0
 21  3  1  0
 19 10  1  0
 19 13  1  0
  1 22  1  0
  1 23  1  0
  1 24  1  0
  2 25  1  0
  2 26  1  0
  4 27  1  0
  4 28  1  0
  5 29  1  0
  5 30  1  0
  9 31  1  0
  9 32  1  0
 11 33  1  0
 12 34  1  0
 14 35  1  0
 15 36  1  0
 18 37  1  0
 20 38  1  0
 20 39  1  0
 21 40  1  0
 21 41  1  0
M  CHG  1  11   1
M  END
>  <UniqueID>  (10) 
10

>  <SMILES>  (10) 
CCN1CCN(C(=O)Cn2[nH+]cc3ccc(Cl)cc32)CC1

>  <Energy>  (10) 
87.46456996048381

>  <Genealogy>  (10) 
CCN1CCN(C(=O)Cn2[nH+]cc3ccc(Cl)cc32)CC1 (protonated)
CCN1CCN(C(=O)Cn2[nH+]cc3ccc(Cl)cc32)CC1 (3D coordinates assigned)
CCN1CCN(C(=O)Cn2[nH+]cc3ccc(Cl)cc32)CC1 (nonaromatic ring conformer: 87.46456996048381 kcal/mol)

>  <smiles>  (10) 
CCN1CCN(C(=O)Cn2ncc3ccc(Cl)cc32)CC1

>  <score_type>  (10) 
oracle

>  <origin>  (10) 
adg

>  <m_score__min__energy>  (10) 
-5.9900000000000002

>  <m_primary>  (10) 
energy

$$$$
10:0
     RDKit          3D

 64 67  0  0  0  0  0  0  0  0999 V2000
   58.1360   31.5820   43.1870 C   0  0  0  0  0  0  0  0  0  0  0  0
   57.3210   31.5840   44.4740 C   0  0  0  0  0  0  0  0  0  0  0  0
   57.9140   30.6680   45.4540 N   0  0  0  0  0  0  0  0  0  0  0  0
   58.4400   30.9790   46.6710 C   0  0  0  0  0  0  0  0  0  0  0  0
   58.5560   32.3660   47.2470 C   0  0  0  0  0  0  0  0  0  0  0  0
   59.6230   33.2130   46.5400 C   0  0  0  0  0  0  0  0  0  0  0  0
   60.9450   33.1000   47.2060 N   0  0  0  0  0  0  0  0  0  0  0  0
   61.9200   34.0920   46.6880 C   0  0  0  0  0  0  0  0  0  0  0  0
   63.3910   33.6090   46.6880 C   0  0  0  0  0  0  0  0  0  0  0  0
   63.7240   32.6380   47.7640 N   0  0  0  0  0  0  0  0  0  0  0  0
   64.2020   33.2780   49.0160 C   0  0  0  0  0  0  0  0  0  0  0  0
   63.0930   33.8670   49.8960 C   0  0  0  0  0  0  0  0  0  0  0  0
   62.6930   31.5890   48.0030 C   0  0  0  0  0  0  0  0  0  0  0  0
   61.4670   31.7300   47.1000 C   0  0  0  0  0  0  0  0  0  0  0  0
   58.8730   29.8310   47.3300 C   0  0  0  0  0  0  0  0  0  0  0  0
   58.5800   28.7920   46.4760 C   0  0  0  0  0  0  0  0  0  0  0  0
   58.7850   27.4230   46.6270 C   0  0  0  0  0  0  0  0  0  0  0  0
   58.3610   26.5700   45.5890 C   0  0  0  0  0  0  0  0  0  0  0  0
   58.5970   24.8240   45.7260 S   0  0  0  0  0  0  0  0  0  0  0  0
   60.0520   24.5480   45.9840 O   0  0  0  0  0  0  0  0  0  0  0  0
   57.8120   24.3170   46.9030 O   0  0  0  0  0  0  0  0  0  0  0  0
   58.1010   23.9570   44.2930 N   0  0  0  0  0  0  0  0  0  0  0  0
   58.2950   22.5150   44.4280 C   0  0  0  0  0  0  0  0  0  0  0  0
   57.3020   21.8580   43.4820 C   0  0  0  0  0  0  0  0  0  0  0  0
   56.2510   22.9200   43.2000 C   0  0  0  0  0  0  0  0  0  0  0  0
   56.6800   24.1350   44.0070 C   0  0  0  0  0  0  0  0  0  0  0  0
   57.7590   27.1160   44.4300 C   0  0  0  0  0  0  0  0  0  0  0  0
   57.5680   28.5030   44.3060 C   0  0  0  0  0  0  0  0  0  0  0  0
   57.9970   29.3230   45.3550 C   0  0  0  0  0  0  0  0  0  0  0  0
   59.2083   31.5794   43.4321 H   0  0  0  0  0  0  0  0  0  0  0  0
   57.8919   30.6845   42.5998 H   0  0  0  0  0  0  0  0  0  0  0  0
   57.8963   32.4807   42.5998 H   0  0  0  0  0  0  0  0  0  0  0  0
   57.3051   32.6015   44.8917 H   0  0  0  0  0  0  0  0  0  0  0  0
   56.2965   31.2526   44.2490 H   0  0  0  0  0  0  0  0  0  0  0  0
   57.5836   32.8706   47.1482 H   0  0  0  0  0  0  0  0  0  0  0  0
   58.8562   32.2646   48.3004 H   0  0  0  0  0  0  0  0  0  0  0  0
   59.7179   32.8702   45.4991 H   0  0  0  0  0  0  0  0  0  0  0  0
   59.3074   34.2659   46.5815 H   0  0  0  0  0  0  0  0  0  0  0  0
   61.6402   34.3405   45.6536 H   0  0  0  0  0  0  0  0  0  0  0  0
   61.8754   34.9570   47.3661 H   0  0  0  0  0  0  0  0  0  0  0  0
   63.5949   33.1303   45.7188 H   0  0  0  0  0  0  0  0  0  0  0  0
   64.0113   34.4993   46.8687 H   0  0  0  0  0  0  0  0  0  0  0  0
   64.5670   32.1260   47.4060 H   0  0  0  0  0  0  0  0  0  0  0  0
   64.7409   32.5207   49.6043 H   0  0  0  0  0  0  0  0  0  0  0  0
   64.8389   34.1215   48.7112 H   0  0  0  0  0  0  0  0  0  0  0  0
   63.3535   33.7287   50.9557 H   0  0  0  0  0  0  0  0  0  0  0  0
   62.9863   34.9406   49.6818 H   0  0  0  0  0  0  0  0  0  0  0  0
   62.1437   33.3542   49.6818 H   0  0  0  0  0  0  0  0  0  0  0  0
   63.1484   30.6041   47.8224 H   0  0  0  0  0  0  0  0  0  0  0  0
   62.3479   31.7015   49.0414 H   0  0  0  0  0  0  0  0  0  0  0  0
   61.7519   31.5243   46.0577 H   0  0  0  0  0  0  0  0  0  0  0  0
   60.6928   31.0138   47.4126 H   0  0  0  0  0  0  0  0  0  0  0  0
   59.3474   29.7681   48.3205 H   0  0  0  0  0  0  0  0  0  0  0  0
   59.2643   27.0191   47.5309 H   0  0  0  0  0  0  0  0  0  0  0  0
   59.3235   22.2418   44.1497 H   0  0  0  0  0  0  0  0  0  0  0  0
   58.1349   22.1864   45.4655 H   0  0  0  0  0  0  0  0  0  0  0  0
   57.8014   21.5536   42.5504 H   0  0  0  0  0  0  0  0  0  0  0  0
   56.8599   20.9502   43.9184 H   0  0  0  0  0  0  0  0  0  0  0  0
   56.2246   23.1602   42.1269 H   0  0  0  0  0  0  0  0  0  0  0  0
   55.2416   22.5807   43.4757 H   0  0  0  0  0  0  0  0  0  0  0  0
   56.5211   25.0545   43.4245 H   0  0  0  0  0  0  0  0  0  0  0  0
   56.0943   24.2263   44.9336 H   0  0  0  0  0  0  0  0  0  0  0  0
   57.4372   26.4477   43.6177 H   0  0  0  0  0  0  0  0  0  0  0  0
   57.0949   28.9313   43.4100 H   0  0  0  0  0  0  0  0  0  0  0  0
  1  2  1  0
  2  3  1  0
  3  4  1  0
  4  5  1  0
  5  6  1  0
  6  7  1  0
  7  8  1  0
  8  9  1  0
  9 10  1  0
 10 11  1  0
 11 12  1  0
 10 13  1  0
 13 14  1  0
  4 15  2  0
 15 16  1  0
 16 17  2  0
 17 18  1  0
 18 19  1  0
 19 20  2  0
 19 21  2  0
 19 22  1  0
 22 23  1  0
 23 24  1  0
 24 25  1  0
 25 26  1  0
 18 27  2  0
 27 28  1  0
 28 29  2  0
 29  3  1  0
 14  7  1  0
 29 16  1  0
 26 22  1  0
  1 30  1  0
  1 31  1  0
  1 32  1  0
  2 33  1  0
  2 34  1  0
  5 35  1  0
  5 36  1  0
  6 37  1  0
  6 38  1  0
  8 39  1  0
  8 40  1  0
  9 41  1  0
  9 42  1  0
 10 43  1  0
 11 44  1  0
 11 45  1  0
 12 46  1  0
 12 47  1  0
 12 48  1  0
 13 49  1  0
 13 50  1  0
 14 51  1  0
 14 52  1  0
 15 53  1  0
 17 54  1  0
 23 55  1  0
 23 56  1  0
 24 57  1  0
 24 58  1  0
 25 59  1  0
 25 60  1  0
 26 61  1  0
 26 62  1  0
 27 63  1  0
 28 64  1  0
M  CHG  1  10   1
M  END
>  <UniqueID>  (11) 
11

>  <SMILES>  (11) 
CCn1c(CCN2CC[NH+](CC)CC2)cc2cc(S(=O)(=O)N3CCCC3)ccc21

>  <Energy>  (11) 
110.41598362598283

>  <Genealogy>  (11) 
CCn1c(CCN2CC[NH+](CC)CC2)cc2cc(S(=O)(=O)N3CCCC3)ccc21 (protonated)
CCn1c(CCN2CC[NH+](CC)CC2)cc2cc(S(=O)(=O)N3CCCC3)ccc21 (3D coordinates assigned)
CCn1c(CCN2CC[NH+](CC)CC2)cc2cc(S(=O)(=O)N3CCCC3)ccc21 (nonaromatic ring conformer: 110.41598362598283 kcal/mol)

>  <smiles>  (11) 
CCN1CCN(CCc2cc3cc(S(=O)(=O)N4CCCC4)ccc3n2CC)CC1

>  <score_type>  (11) 
oracle

>  <origin>  (11) 
adg

>  <m_score__min__energy>  (11) 
-8.0600000000000005

>  <m_primary>  (11) 
energy

$$$$
11:0
     RDKit          3D

 40 42  0  0  0  0  0  0  0  0999 V2000
   56.3590   30.3940   43.7190 C   0  0  0  0  0  0  0  0  0  0  0  0
   57.4020   31.5030   43.6160 C   0  0  0  0  0  0  0  0  0  0  0  0
   58.0580   31.7230   44.9110 N   0  0  0  0  0  0  0  0  0  0  0  0
   58.7280   30.6480   45.5940 C   0  0  0  0  0  0  0  0  0  0  0  0
   59.5060   29.7210   44.8800 C   0  0  0  0  0  0  0  0  0  0  0  0
   60.1470   28.6730   45.5500 C   0  0  0  0  0  0  0  0  0  0  0  0
   60.0160   28.5430   46.9360 C   0  0  0  0  0  0  0  0  0  0  0  0
   60.6420   27.5290   47.5830 F   0  0  0  0  0  0  0  0  0  0  0  0
   59.2430   29.4610   47.6540 C   0  0  0  0  0  0  0  0  0  0  0  0
   58.6000   30.5080   46.9870 C   0  0  0  0  0  0  0  0  0  0  0  0
   58.0090   33.3090   45.6260 S   0  0  0  0  0  0  0  0  0  0  0  0
   56.7750   33.4610   46.4740 O   0  0  0  0  0  0  0  0  0  0  0  0
   57.9820   34.3400   44.5320 O   0  0  0  0  0  0  0  0  0  0  0  0
   59.4180   33.5310   46.6580 C   0  0  0  0  0  0  0  0  0  0  0  0
   59.2330   33.7850   48.0380 C   0  0  0  0  0  0  0  0  0  0  0  0
   60.3410   33.9540   48.8880 C   0  0  0  0  0  0  0  0  0  0  0  0
   61.6160   33.8600   48.3270 C   0  0  0  0  0  0  0  0  0  0  0  0
   61.7950   33.6160   46.9900 C   0  0  0  0  0  0  0  0  0  0  0  0
   63.1530   33.5950   46.7470 C   0  0  0  0  0  0  0  0  0  0  0  0
   63.7490   33.8340   47.9790 C   0  0  0  0  0  0  0  0  0  0  0  0
   62.8070   33.9900   48.9410 N   0  0  0  0  0  0  0  0  0  0  0  0
   63.0470   34.2860   50.3500 C   0  0  0  0  0  0  0  0  0  0  0  0
   60.7200   33.4460   46.1210 C   0  0  0  0  0  0  0  0  0  0  0  0
   56.1563   30.1785   44.7785 H   0  0  0  0  0  0  0  0  0  0  0  0
   55.4301   30.7173   43.2264 H   0  0  0  0  0  0  0  0  0  0  0  0
   56.7386   29.4867   43.2264 H   0  0  0  0  0  0  0  0  0  0  0  0
   58.1599   31.2174   42.8716 H   0  0  0  0  0  0  0  0  0  0  0  0
   56.8992   32.4331   43.3127 H   0  0  0  0  0  0  0  0  0  0  0  0
   59.6116   29.8196   43.7895 H   0  0  0  0  0  0  0  0  0  0  0  0
   60.7548   27.9505   44.9856 H   0  0  0  0  0  0  0  0  0  0  0  0
   59.1408   29.3592   48.7445 H   0  0  0  0  0  0  0  0  0  0  0  0
   57.9906   31.2262   47.5552 H   0  0  0  0  0  0  0  0  0  0  0  0
   58.2148   33.8508   48.4491 H   0  0  0  0  0  0  0  0  0  0  0  0
   60.2070   34.1540   49.9613 H   0  0  0  0  0  0  0  0  0  0  0  0
   63.6562   33.4253   45.7837 H   0  0  0  0  0  0  0  0  0  0  0  0
   64.8342   33.8890   48.1499 H   0  0  0  0  0  0  0  0  0  0  0  0
   62.4768   33.5827   50.9747 H   0  0  0  0  0  0  0  0  0  0  0  0
   64.1202   34.1835   50.5686 H   0  0  0  0  0  0  0  0  0  0  0  0
   62.7249   35.3148   50.5686 H   0  0  0  0  0  0  0  0  0  0  0  0
   60.8808   33.2517   45.0503 H   0  0  0  0  0  0  0  0  0  0  0  0
  1  2  1  0
  2  3  1  0
  3  4  1  0
  4  5  2  0
  5  6  1  0
  6  7  2  0
  7  8  1  0
  7  9  1  0
  9 10  2  0
  3 11  1  0
 11 12  2  0
 11 13  2  0
 11 14  1  0
 14 15  2  0
 15 16  1  0
 16 17  2  0
 17 18  1  0
 18 19  1  0
 19 20  2  0
 20 21  1  0
 21 22  1  0
 18 23  2  0
 10  4  1  0
 23 14  1  0
 21 17  1  0
  1 24  1  0
  1 25  1  0
  1 26  1  0
  2 27  1  0
  2 28  1  0
  5 29  1  0
  6 30  1  0
  9 31  1  0
 10 32  1  0
 15 33  1  0
 16 34  1  0
 19 35  1  0
 20 36  1  0
 22 37  1  0
 22 38  1  0
 22 39  1  0
 23 40  1  0
M  END
>  <UniqueID>  (12) 
12

>  <SMILES>  (12) 
CCN(c1ccc(F)cc1)S(=O)(=O)c1ccc2c(ccn2C)c1

>  <Energy>  (12) 
76.85184173301845

>  <Genealogy>  (12) 
CCN(c1ccc(F)cc1)S(=O)(=O)c1ccc2c(ccn2C)c1 (3D coordinates assigned)
CCN(c1ccc(F)cc1)S(=O)(=O)c1ccc2c(ccn2C)c1 (optimized conformer: 76.85184173301845 kcal/mol)

>  <smiles>  (12) 
CCN(c1ccc(F)cc1)S(=O)(=O)c1ccc2c(ccn2C)c1

>  <score_type>  (12) 
oracle

>  <origin>  (12) 
adg

>  <m_score__min__energy>  (12) 
-8.0700000000000003

>  <m_primary>  (12) 
energy

$$$$
12:0
     RDKit          3D

 75 79  0  0  0  0  0  0  0  0999 V2000
   63.3820   33.8990   46.3870 C   0  0  0  0  0  0  0  0  0  0  0  0
   63.2130   34.0860   47.8930 C   0  0  0  0  0  0  0  0  0  0  0  0
   63.0520   32.7960   48.5820 N   0  0  0  0  0  0  0  0  0  0  0  0
   63.3830   31.6170   47.7600 C   0  0  0  0  0  0  0  0  0  0  0  0
   62.1600   30.8640   47.1890 C   0  0  0  0  0  0  0  0  0  0  0  0
   60.9030   31.2410   47.8600 N   0  0  0  0  0  0  0  0  0  0  0  0
   59.8060   31.3020   46.9050 C   0  0  0  0  0  0  0  0  0  0  0  0
   59.4800   32.5150   46.2390 C   0  0  0  0  0  0  0  0  0  0  0  0
   60.0880   33.7440   46.5940 C   0  0  0  0  0  0  0  0  0  0  0  0
   59.7640   34.9250   45.9330 C   0  0  0  0  0  0  0  0  0  0  0  0
   58.8220   34.9180   44.9150 C   0  0  0  0  0  0  0  0  0  0  0  0
   58.1940   33.7290   44.5520 C   0  0  0  0  0  0  0  0  0  0  0  0
   58.5070   32.5040   45.1970 C   0  0  0  0  0  0  0  0  0  0  0  0
   57.8810   31.3270   44.8380 N   0  0  0  0  0  0  0  0  0  0  0  0
   56.9430   31.3020   43.6930 C   0  0  0  0  0  0  0  0  0  0  0  0
   58.0870   30.1800   45.5680 C   0  0  0  0  0  0  0  0  0  0  0  0
   57.3700   29.0540   45.2840 N   0  0  0  0  0  0  0  0  0  0  0  0
   57.5050   27.8930   45.9720 C   0  0  0  0  0  0  0  0  0  0  0  0
   56.7360   26.7780   45.6210 C   0  0  0  0  0  0  0  0  0  0  0  0
   56.8590   25.5750   46.3460 C   0  0  0  0  0  0  0  0  0  0  0  0
   56.1160   24.4230   46.0400 O   0  0  0  0  0  0  0  0  0  0  0  0
   55.1290   24.3250   45.0140 C   0  0  0  0  0  0  0  0  0  0  0  0
   55.7480   23.7200   43.7300 C   0  0  0  0  0  0  0  0  0  0  0  0
   56.6240   22.5180   43.9350 N   0  0  0  0  0  0  0  0  0  0  0  0
   56.7410   21.7670   42.6560 C   0  0  0  0  0  0  0  0  0  0  0  0
   56.0460   21.6530   45.0120 C   0  0  0  0  0  0  0  0  0  0  0  0
   56.9930   20.5320   45.4740 C   0  0  0  0  0  0  0  0  0  0  0  0
   58.3300   21.1030   45.9310 C   0  0  0  0  0  0  0  0  0  0  0  0
   58.9480   21.9480   44.8240 C   0  0  0  0  0  0  0  0  0  0  0  0
   57.9670   23.0350   44.3490 C   0  0  0  0  0  0  0  0  0  0  0  0
   57.7610   25.5130   47.4160 C   0  0  0  0  0  0  0  0  0  0  0  0
   58.5330   26.6250   47.7650 C   0  0  0  0  0  0  0  0  0  0  0  0
   58.4090   27.8200   47.0410 C   0  0  0  0  0  0  0  0  0  0  0  0
   59.1680   28.9480   47.3630 C   0  0  0  0  0  0  0  0  0  0  0  0
   59.0350   30.1460   46.6210 C   0  0  0  0  0  0  0  0  0  0  0  0
   64.1084   33.0952   46.1966 H   0  0  0  0  0  0  0  0  0  0  0  0
   62.4133   33.6313   45.9398 H   0  0  0  0  0  0  0  0  0  0  0  0
   63.7460   34.8357   45.9398 H   0  0  0  0  0  0  0  0  0  0  0  0
   64.1024   34.5957   48.2919 H   0  0  0  0  0  0  0  0  0  0  0  0
   62.3072   34.6854   48.0668 H   0  0  0  0  0  0  0  0  0  0  0  0
   63.6280   32.7950   49.4540 H   0  0  0  0  0  0  0  0  0  0  0  0
   64.0043   31.9512   46.9160 H   0  0  0  0  0  0  0  0  0  0  0  0
   63.9005   30.9099   48.4250 H   0  0  0  0  0  0  0  0  0  0  0  0
   62.0714   31.0959   46.1174 H   0  0  0  0  0  0  0  0  0  0  0  0
   62.3201   29.7888   47.3575 H   0  0  0  0  0  0  0  0  0  0  0  0
   60.6810   30.5700   48.6270 H   0  0  0  0  0  0  0  0  0  0  0  0
   61.0050   32.1560   48.3550 H   0  0  0  0  0  0  0  0  0  0  0  0
   60.8293   33.7653   47.4064 H   0  0  0  0  0  0  0  0  0  0  0  0
   60.2562   35.8664   46.2186 H   0  0  0  0  0  0  0  0  0  0  0  0
   58.5704   35.8532   44.3934 H   0  0  0  0  0  0  0  0  0  0  0  0
   57.4411   33.7395   43.7501 H   0  0  0  0  0  0  0  0  0  0  0  0
   55.9088   31.2744   44.0668 H   0  0  0  0  0  0  0  0  0  0  0  0
   57.0877   32.2043   43.0807 H   0  0  0  0  0  0  0  0  0  0  0  0
   57.1355   30.4087   43.0807 H   0  0  0  0  0  0  0  0  0  0  0  0
   56.0334   26.8402   44.7769 H   0  0  0  0  0  0  0  0  0  0  0  0
   54.3083   23.6796   45.3602 H   0  0  0  0  0  0  0  0  0  0  0  0
   54.7467   25.3312   44.7875 H   0  0  0  0  0  0  0  0  0  0  0  0
   54.9239   23.4280   43.0624 H   0  0  0  0  0  0  0  0  0  0  0  0
   56.4020   24.5011   43.3150 H   0  0  0  0  0  0  0  0  0  0  0  0
   56.9071   20.7010   42.8706 H   0  0  0  0  0  0  0  0  0  0  0  0
   55.8138   21.8841   42.0759 H   0  0  0  0  0  0  0  0  0  0  0  0
   57.5887   22.1606   42.0759 H   0  0  0  0  0  0  0  0  0  0  0  0
   55.8092   22.2877   45.8786 H   0  0  0  0  0  0  0  0  0  0  0  0
   55.1520   21.1685   44.5925 H   0  0  0  0  0  0  0  0  0  0  0  0
   56.5281   19.9899   46.3107 H   0  0  0  0  0  0  0  0  0  0  0  0
   57.1721   19.8524   44.6278 H   0  0  0  0  0  0  0  0  0  0  0  0
   58.1721   21.7297   46.8211 H   0  0  0  0  0  0  0  0  0  0  0  0
   59.0110   20.2733   46.1714 H   0  0  0  0  0  0  0  0  0  0  0  0
   59.8610   22.4287   45.2052 H   0  0  0  0  0  0  0  0  0  0  0  0
   59.1850   21.2927   43.9729 H   0  0  0  0  0  0  0  0  0  0  0  0
   57.8215   23.7505   45.1718 H   0  0  0  0  0  0  0  0  0  0  0  0
   58.4156   23.4941   43.4557 H   0  0  0  0  0  0  0  0  0  0  0  0
   57.8630   24.5789   47.9880 H   0  0  0  0  0  0  0  0  0  0  0  0
   59.2377   26.5629   48.6074 H   0  0  0  0  0  0  0  0  0  0  0  0
   59.8771   28.9045   48.2028 H   0  0  0  0  0  0  0  0  0  0  0  0
  1  2  1  0
  2  3  1  0
  3  4  1  0
  4  5  1  0
  5  6  1  0
  6  7  1  0
  7  8  2  0
  8  9  1  0
  9 10  2  0
 10 11  1  0
 11 12  2  0
 12 13  1  0
 13 14  2  0
 14 15  1  0
 14 16  1  0
 16 17  2  0
 17 18  1  0
 18 19  2  0
 19 20  1  0
 20 21  1  0
 21 22  1  0
 22 23  1  0
 23 24  1  0
 24 25  1  0
 24 26  1  0
 26 27  1  0
 27 28  1  0
 28 29  1  0
 29 30  1  0
 20 31  2  0
 31 32  1  0
 32 33  2  0
 33 34  1  0
 34 35  2  0
 35  7  1  0
 13  8  1  0
 35 16  1  0
 33 18  1  0
 30 24  1  0
  1 36  1  0
  1 37  1  0
  1 38  1  0
  2 39  1  0
  2 40  1  0
  3 41  1  0
  4 42  1  0
  4 43  1  0
  5 44  1  0
  5 45  1  0
  6 46  1  0
  6 47  1  0
  9 48  1  0
 10 49  1  0
 11 50  1  0
 12 51  1  0
 15 52  1  0
 15 53  1  0
 15 54  1  0
 19 55  1  0
 22 56  1  0
 22 57  1  0
 23 58  1  0
 23 59  1  0
 25 60  1  0
 25 61  1  0
 25 62  1  0
 26 63  1  0
 26 64  1  0
 27 65  1  0
 27 66  1  0
 28 67  1  0
 28 68  1  0
 29 69  1  0
 29 70  1  0
 30 71  1  0
 30 72  1  0
 31 73  1  0
 32 74  1  0
 34 75  1  0
M  CHG  3   6   1  14   1  24   1
M  END
>  <UniqueID>  (13) 
13

>  <SMILES>  (13) 
CCNCC[NH2+]c1c2ccccc2[n+](C)c2nc3cc(OCC[N+]4(C)CCCCC4)ccc3cc12

>  <Energy>  (13) 
110.26075975187389

>  <Genealogy>  (13) 
CCNCC[NH2+]c1c2ccccc2[n+](C)c2nc3cc(OCC[N+]4(C)CCCCC4)ccc3cc12 (protonated)
CCNCC[NH2+]c1c2ccccc2[n+](C)c2nc3cc(OCC[N+]4(C)CCCCC4)ccc3cc12 (3D coordinates assigned)
CCNCC[NH2+]c1c2ccccc2[n+](C)c2nc3cc(OCC[N+]4(C)CCCCC4)ccc3cc12 (nonaromatic ring conformer: 110.26075975187389 kcal/mol)

>  <smiles>  (13) 
CCNCCNc1c2ccccc2[n+](C)c2nc3cc(OCC[N+]4(C)CCCCC4)ccc3cc12

>  <score_type>  (13) 
oracle

>  <origin>  (13) 
adg

>  <m_score__min__energy>  (13) 
-5.0300000000000002

>  <m_primary>  (13) 
energy

$$$$
13:0
     RDKit          3D

 37 38  0  0  0  0  0  0  0  0999 V2000
   62.6210   33.0150   47.1260 C   0  0  0  0  0  0  0  0  0  0  0  0
   61.2520   32.3200   47.1270 C   0  0  0  0  0  0  0  0  0  0  0  0
   60.0870   33.2400   47.2380 N   0  0  1  0  0  0  0  0  0  0  0  0
   59.6230   33.3560   48.6340 C   0  0  0  0  0  0  0  0  0  0  0  0
   60.3120   34.5890   46.6620 C   0  0  0  0  0  0  0  0  0  0  0  0
   59.2680   34.9580   45.5840 C   0  0  0  0  0  0  0  0  0  0  0  0
   57.9670   34.3110   45.8270 N   0  0  0  0  0  0  0  0  0  0  0  0
   57.4280   33.6570   44.6260 C   0  0  0  0  0  0  0  0  0  0  0  0
   57.4970   32.1710   44.7700 C   0  0  0  0  0  0  0  0  0  0  0  0
   57.9650   31.5530   45.8830 N   0  0  0  0  0  0  0  0  0  0  0  0
   57.9550   30.2050   45.7290 C   0  0  0  0  0  0  0  0  0  0  0  0
   58.3750   29.2970   46.7020 C   0  0  0  0  0  0  0  0  0  0  0  0
   58.3170   27.9220   46.4130 C   0  0  0  0  0  0  0  0  0  0  0  0
   57.8450   27.4730   45.1620 C   0  0  0  0  0  0  0  0  0  0  0  0
   57.7740   25.6030   44.7860 Br  0  0  0  0  0  0  0  0  0  0  0  0
   57.4250   28.3980   44.1910 C   0  0  0  0  0  0  0  0  0  0  0  0
   57.4930   29.7530   44.5030 C   0  0  0  0  0  0  0  0  0  0  0  0
   57.0720   31.0710   43.5530 S   0  0  0  0  0  0  0  0  0  0  0  0
   62.9485   33.1813   48.1629 H   0  0  0  0  0  0  0  0  0  0  0  0
   63.3542   32.3800   46.6072 H   0  0  0  0  0  0  0  0  0  0  0  0
   62.5411   33.9817   46.6072 H   0  0  0  0  0  0  0  0  0  0  0  0
   61.1540   31.7549   46.1883 H   0  0  0  0  0  0  0  0  0  0  0  0
   61.2290   31.6806   48.0218 H   0  0  0  0  0  0  0  0  0  0  0  0
   59.3020   32.7960   46.7050 H   0  0  0  0  0  0  0  0  0  0  0  0
   60.4595   33.1469   49.3170 H   0  0  0  0  0  0  0  0  0  0  0  0
   59.2496   34.3751   48.8128 H   0  0  0  0  0  0  0  0  0  0  0  0
   58.8140   32.6325   48.8128 H   0  0  0  0  0  0  0  0  0  0  0  0
   60.2588   35.3311   47.4722 H   0  0  0  0  0  0  0  0  0  0  0  0
   61.3006   34.5841   46.1797 H   0  0  0  0  0  0  0  0  0  0  0  0
   59.1272   36.0490   45.5855 H   0  0  0  0  0  0  0  0  0  0  0  0
   59.6452   34.6052   44.6128 H   0  0  0  0  0  0  0  0  0  0  0  0
   58.0610   33.6000   46.5890 H   0  0  0  0  0  0  0  0  0  0  0  0
   56.3797   33.9599   44.4873 H   0  0  0  0  0  0  0  0  0  0  0  0
   58.0262   33.9604   43.7541 H   0  0  0  0  0  0  0  0  0  0  0  0
   58.7443   29.6500   47.6762 H   0  0  0  0  0  0  0  0  0  0  0  0
   58.6421   27.1912   47.1681 H   0  0  0  0  0  0  0  0  0  0  0  0
   57.0531   28.0609   43.2122 H   0  0  0  0  0  0  0  0  0  0  0  0
  1  2  1  0
  2  3  1  0
  3  4  1  0
  3  5  1  0
  5  6  1  0
  6  7  1  0
  7  8  1  0
  8  9  1  0
  9 10  2  0
 10 11  1  0
 11 12  2  0
 12 13  1  0
 13 14  2  0
 14 15  1  0
 14 16  1  0
 16 17  2  0
 17 18  1  0
 18  9  1  0
 17 11  1  0
  1 19  1  0
  1 20  1  0
  1 21  1  0
  2 22  1  0
  2 23  1  0
  3 24  1  6
  4 25  1  0
  4 26  1  0
  4 27  1  0
  5 28  1  0
  5 29  1  0
  6 30  1  0
  6 31  1  0
  7 32  1  0
  8 33  1  0
  8 34  1  0
 12 35  1  0
 13 36  1  0
 16 37  1  0
M  CHG  1   3   1
M  END
>  <UniqueID>  (14) 
14

>  <SMILES>  (14) 
CC[N@@H+](C)CCNCc1nc2ccc(Br)cc2s1

>  <Energy>  (14) 
72.42764750620312

>  <Genealogy>  (14) 
CC[NH+](C)CCNCc1nc2ccc(Br)cc2s1 (protonated)
CC[N@@H+](C)CCNCc1nc2ccc(Br)cc2s1 (chirality)
CC[N@@H+](C)CCNCc1nc2ccc(Br)cc2s1 (3D coordinates assigned)
CC[N@@H+](C)CCNCc1nc2ccc(Br)cc2s1 (optimized conformer: 72.42764750620312 kcal/mol)

>  <smiles>  (14) 
CCN(C)CCNCc1nc2ccc(Br)cc2s1

>  <score_type>  (14) 
oracle

>  <origin>  (14) 
adg

>  <m_score__min__energy>  (14) 
-4.1500000000000004

>  <m_primary>  (14) 
energy

$$$$
14:0
     RDKit          3D

 51 52  0  0  0  0  0  0  0  0999 V2000
   57.0300   31.1730   42.7410 C   0  0  0  0  0  0  0  0  0  0  0  0
   56.2440   30.0820   43.4590 C   0  0  0  0  0  0  0  0  0  0  0  0
   56.4260   30.1750   44.8600 O   0  0  0  0  0  0  0  0  0  0  0  0
   57.3470   29.2030   45.3220 C   0  0  0  0  0  0  0  0  0  0  0  0
   58.7840   29.6840   45.1180 C   0  0  0  0  0  0  0  0  0  0  0  0
   59.5810   29.2520   46.2100 O   0  0  0  0  0  0  0  0  0  0  0  0
   58.7930   28.7230   47.2600 C   0  0  0  0  0  0  0  0  0  0  0  0
   58.9340   29.5820   48.5350 C   0  0  0  0  0  0  0  0  0  0  0  0
   59.6710   30.8510   48.2860 N   0  0  0  0  0  0  0  0  0  0  0  0
   60.8550   30.9480   49.1810 C   0  0  0  0  0  0  0  0  0  0  0  0
   61.8620   31.9640   48.6880 C   0  0  0  0  0  0  0  0  0  0  0  0
   62.5960   31.7160   47.5160 C   0  0  0  0  0  0  0  0  0  0  0  0
   63.5310   32.6490   47.0580 C   0  0  0  0  0  0  0  0  0  0  0  0
   63.7430   33.8350   47.7690 C   0  0  0  0  0  0  0  0  0  0  0  0
   63.0160   34.0900   48.9340 C   0  0  0  0  0  0  0  0  0  0  0  0
   62.0800   33.1600   49.3950 C   0  0  0  0  0  0  0  0  0  0  0  0
   58.7760   32.0180   48.4990 C   0  0  0  0  0  0  0  0  0  0  0  0
   58.7270   32.9230   47.2880 C   0  0  0  0  0  0  0  0  0  0  0  0
   57.7400   32.7330   46.3070 C   0  0  0  0  0  0  0  0  0  0  0  0
   57.7010   33.5570   45.1770 C   0  0  0  0  0  0  0  0  0  0  0  0
   58.6450   34.5740   45.0190 C   0  0  0  0  0  0  0  0  0  0  0  0
   59.6290   34.7710   45.9920 C   0  0  0  0  0  0  0  0  0  0  0  0
   59.6710   33.9510   47.1240 C   0  0  0  0  0  0  0  0  0  0  0  0
   57.5046   31.8318   43.4831 H   0  0  0  0  0  0  0  0  0  0  0  0
   57.8050   30.7123   42.1109 H   0  0  0  0  0  0  0  0  0  0  0  0
   56.3476   31.7623   42.1109 H   0  0  0  0  0  0  0  0  0  0  0  0
   55.1749   30.1937   43.2254 H   0  0  0  0  0  0  0  0  0  0  0  0
   56.6080   29.1012   43.1190 H   0  0  0  0  0  0  0  0  0  0  0  0
   57.1749   29.0222   46.3933 H   0  0  0  0  0  0  0  0  0  0  0  0
   57.1992   28.2745   44.7510 H   0  0  0  0  0  0  0  0  0  0  0  0
   59.1830   29.2643   44.1828 H   0  0  0  0  0  0  0  0  0  0  0  0
   58.8010   30.7824   45.0602 H   0  0  0  0  0  0  0  0  0  0  0  0
   57.7381   28.7099   46.9484 H   0  0  0  0  0  0  0  0  0  0  0  0
   59.1385   27.7024   47.4815 H   0  0  0  0  0  0  0  0  0  0  0  0
   57.9289   29.8251   48.9101 H   0  0  0  0  0  0  0  0  0  0  0  0
   59.5086   28.9993   49.2700 H   0  0  0  0  0  0  0  0  0  0  0  0
   60.0040   30.8580   47.2920 H   0  0  0  0  0  0  0  0  0  0  0  0
   60.5168   31.2429   50.1853 H   0  0  0  0  0  0  0  0  0  0  0  0
   61.3476   29.9646   49.1974 H   0  0  0  0  0  0  0  0  0  0  0  0
   62.4342   30.7831   46.9560 H   0  0  0  0  0  0  0  0  0  0  0  0
   64.1003   32.4504   46.1380 H   0  0  0  0  0  0  0  0  0  0  0  0
   64.4821   34.5666   47.4106 H   0  0  0  0  0  0  0  0  0  0  0  0
   63.1804   35.0248   49.4899 H   0  0  0  0  0  0  0  0  0  0  0  0
   61.5117   33.3643   50.3144 H   0  0  0  0  0  0  0  0  0  0  0  0
   57.7603   31.6526   48.7106 H   0  0  0  0  0  0  0  0  0  0  0  0
   59.1730   32.6011   49.3430 H   0  0  0  0  0  0  0  0  0  0  0  0
   56.9946   31.9331   46.4276 H   0  0  0  0  0  0  0  0  0  0  0  0
   56.9257   33.4036   44.4119 H   0  0  0  0  0  0  0  0  0  0  0  0
   58.6142   35.2198   44.1291 H   0  0  0  0  0  0  0  0  0  0  0  0
   60.3718   35.5726   45.8670 H   0  0  0  0  0  0  0  0  0  0  0  0
   60.4455   34.1112   47.8885 H   0  0  0  0  0  0  0  0  0  0  0  0
  1  2  1  0
  2  3  1  0
  3  4  1  0
  4  5  1  0
  5  6  1  0
  6  7  1  0
  7  8  1  0
  8  9  1  0
  9 10  1  0
 10 11  1  0
 11 12  2  0
 12 13  1  0
 13 14  2  0
 14 15  1  0
 15 16  2  0
  9 17  1  0
 17 18  1  0
 18 19  2  0
 19 20  1  0
 20 21  2  0
 21 22  1  0
 22 23  2  0
 16 11  1  0
 23 18  1  0
  1 24  1  0
  1 25  1  0
  1 26  1  0
  2 27  1  0
  2 28  1  0
  4 29  1  0
  4 30  1  0
  5 31  1  0
  5 32  1  0
  7 33  1  0
  7 34  1  0
  8 35  1  0
  8 36  1  0
  9 37  1  0
 10 38  1  0
 10 39  1  0
 12 40  1  0
 13 41  1  0
 14 42  1  0
 15 43  1  0
 16 44  1  0
 17 45  1  0
 17 46  1  0
 19 47  1  0
 20 48  1  0
 21 49  1  0
 22 50  1  0
 23 51  1  0
M  CHG  1   9   1
M  END
>  <UniqueID>  (15) 
15

>  <SMILES>  (15) 
CCOCCOCC[NH+](Cc1ccccc1)Cc1ccccc1

>  <Energy>  (15) 
54.2066506033237

>  <Genealogy>  (15) 
CCOCCOCC[NH+](Cc1ccccc1)Cc1ccccc1 (protonated)
CCOCCOCC[NH+](Cc1ccccc1)Cc1ccccc1 (3D coordinates assigned)
CCOCCOCC[NH+](Cc1ccccc1)Cc1ccccc1 (optimized conformer: 54.2066506033237 kcal/mol)

>  <smiles>  (15) 
CCOCCOCCN(Cc1ccccc1)Cc1ccccc1

>  <score_type>  (15) 
oracle

>  <origin>  (15) 
adg

>  <m_score__min__energy>  (15) 
-4.9199999999999999

>  <m_primary>  (15) 
energy

$$$$
15:0
     RDKit          3D

 35 36  0  0  0  0  0  0  0  0999 V2000
   60.3960   30.0350   46.9640 C   0  0  0  0  0  0  0  0  0  0  0  0
   58.9990   30.0860   47.5710 C   0  0  0  0  0  0  0  0  0  0  0  0
   58.2410   31.1560   47.0080 O   0  0  0  0  0  0  0  0  0  0  0  0
   58.0550   31.4020   45.6360 C   0  0  0  0  0  0  0  0  0  0  0  0
   57.6430   30.3910   44.7430 C   0  0  0  0  0  0  0  0  0  0  0  0
   57.4690   30.6730   43.3870 C   0  0  0  0  0  0  0  0  0  0  0  0
   57.7090   31.9580   42.9000 C   0  0  0  0  0  0  0  0  0  0  0  0
   57.4510   32.3420   41.0470 Br  0  0  0  0  0  0  0  0  0  0  0  0
   58.1170   32.9680   43.7730 C   0  0  0  0  0  0  0  0  0  0  0  0
   58.2770   32.7060   45.1430 C   0  0  0  0  0  0  0  0  0  0  0  0
   58.6590   33.8350   46.0780 C   0  0  0  0  0  0  0  0  0  0  0  0
   59.3510   33.3570   47.2910 N   0  0  0  0  0  0  0  0  0  0  0  0
   60.2930   34.3410   47.8600 C   0  0  0  0  0  0  0  0  0  0  0  0
   61.7130   33.8470   47.8590 C   0  0  0  0  0  0  0  0  0  0  0  0
   62.4630   33.5370   46.7300 C   0  0  0  0  0  0  0  0  0  0  0  0
   63.7500   33.0770   47.0310 C   0  0  0  0  0  0  0  0  0  0  0  0
   64.0120   33.0020   48.3920 C   0  0  0  0  0  0  0  0  0  0  0  0
   62.6410   33.5080   49.2230 S   0  0  0  0  0  0  0  0  0  0  0  0
   61.1449   30.0077   47.7692 H   0  0  0  0  0  0  0  0  0  0  0  0
   60.4929   29.1327   46.3423 H   0  0  0  0  0  0  0  0  0  0  0  0
   60.5585   30.9278   46.3423 H   0  0  0  0  0  0  0  0  0  0  0  0
   58.4839   29.1348   47.3711 H   0  0  0  0  0  0  0  0  0  0  0  0
   59.0911   30.2510   48.6547 H   0  0  0  0  0  0  0  0  0  0  0  0
   57.4576   29.3735   45.1176 H   0  0  0  0  0  0  0  0  0  0  0  0
   57.1414   29.8789   42.6999 H   0  0  0  0  0  0  0  0  0  0  0  0
   58.3148   33.9778   43.3842 H   0  0  0  0  0  0  0  0  0  0  0  0
   59.3252   34.5267   45.5416 H   0  0  0  0  0  0  0  0  0  0  0  0
   57.7311   34.3319   46.3974 H   0  0  0  0  0  0  0  0  0  0  0  0
   58.6630   33.0360   48.0100 H   0  0  0  0  0  0  0  0  0  0  0  0
   59.9080   32.5140   47.0150 H   0  0  0  0  0  0  0  0  0  0  0  0
   60.2405   35.2645   47.2647 H   0  0  0  0  0  0  0  0  0  0  0  0
   60.0012   34.5165   48.9060 H   0  0  0  0  0  0  0  0  0  0  0  0
   62.0829   33.6427   45.7032 H   0  0  0  0  0  0  0  0  0  0  0  0
   64.4853   32.8007   46.2609 H   0  0  0  0  0  0  0  0  0  0  0  0
   64.9555   32.6685   48.8488 H   0  0  0  0  0  0  0  0  0  0  0  0
  1  2  1  0
  2  3  1  0
  3  4  1  0
  4  5  2  0
  5  6  1  0
  6  7  2  0
  7  8  1  0
  7  9  1  0
  9 10  2  0
 10 11  1  0
 11 12  1  0
 12 13  1  0
 13 14  1  0
 14 15  2  0
 15 16  1  0
 16 17  2  0
 17 18  1  0
 10  4  1  0
 18 14  1  0
  1 19  1  0
  1 20  1  0
  1 21  1  0
  2 22  1  0
  2 23  1  0
  5 24  1  0
  6 25  1  0
  9 26  1  0
 11 27  1  0
 11 28  1  0
 12 29  1  0
 12 30  1  0
 13 31  1  0
 13 32  1  0
 15 33  1  0
 16 34  1  0
 17 35  1  0
M  CHG  1  12   1
M  END
>  <UniqueID>  (16) 
16

>  <SMILES>  (16) 
CCOc1ccc(Br)cc1C[NH2+]Cc1cccs1

>  <Energy>  (16) 
56.82877409973531

>  <Genealogy>  (16) 
CCOc1ccc(Br)cc1C[NH2+]Cc1cccs1 (protonated)
CCOc1ccc(Br)cc1C[NH2+]Cc1cccs1 (3D coordinates assigned)
CCOc1ccc(Br)cc1C[NH2+]Cc1cccs1 (optimized conformer: 56.82877409973531 kcal/mol)

>  <smiles>  (16) 
CCOc1ccc(Br)cc1CNCc1cccs1

>  <score_type>  (16) 
oracle

>  <origin>  (16) 
adg

>  <m_score__min__energy>  (16) 
-4.2599999999999998

>  <m_primary>  (16) 
energy

$$$$
16:0
     RDKit          3D

 66 69  0  0  0  0  0  0  0  0999 V2000
   57.0030   34.1300   45.2820 C   0  0  0  0  0  0  0  0  0  0  0  0
   58.0910   33.5550   44.3740 C   0  0  0  0  0  0  0  0  0  0  0  0
   59.4400   33.7360   44.9290 N   0  0  0  0  0  0  0  0  0  0  0  0
   59.6130   35.0010   45.6690 C   0  0  0  0  0  0  0  0  0  0  0  0
   60.0180   34.7630   47.1390 C   0  0  0  0  0  0  0  0  0  0  0  0
   60.2930   33.2720   47.4340 C   0  0  1  0  0  0  0  0  0  0  0  0
   61.7890   32.9670   47.2970 C   0  0  0  0  0  0  0  0  0  0  0  0
   62.0520   31.4610   47.4720 C   0  0  0  0  0  0  0  0  0  0  0  0
   61.3010   30.8300   48.5970 N   0  0  2  0  0  0  0  0  0  0  0  0
   60.3370   29.8520   48.1040 C   0  0  0  0  0  0  0  0  0  0  0  0
   59.6390   29.2330   48.8960 O   0  0  0  0  0  0  0  0  0  0  0  0
   60.1300   29.5820   46.6190 C   0  0  2  0  0  0  0  0  0  0  0  0
   59.6830   30.7520   45.9440 O   0  0  0  0  0  0  0  0  0  0  0  0
   58.2930   30.9590   46.1240 C   0  0  0  0  0  0  0  0  0  0  0  0
   57.4850   29.8730   45.4140 C   0  0  0  0  0  0  0  0  0  0  0  0
   57.9820   28.5100   45.8020 C   0  0  0  0  0  0  0  0  0  0  0  0
   57.1790   27.3820   45.5790 C   0  0  0  0  0  0  0  0  0  0  0  0
   57.6580   26.0950   45.8800 C   0  0  0  0  0  0  0  0  0  0  0  0
   56.8010   24.9040   45.6710 C   0  0  0  0  0  0  0  0  0  0  0  0
   55.8880   24.5050   46.6590 C   0  0  0  0  0  0  0  0  0  0  0  0
   55.1090   23.3630   46.4780 C   0  0  0  0  0  0  0  0  0  0  0  0
   55.2330   22.6060   45.3110 C   0  0  0  0  0  0  0  0  0  0  0  0
   56.1300   22.9860   44.3090 C   0  0  0  0  0  0  0  0  0  0  0  0
   56.2110   22.1980   43.1520 O   0  0  0  0  0  0  0  0  0  0  0  0
   57.1230   21.1200   42.9740 C   0  0  0  0  0  0  0  0  0  0  0  0
   56.9190   24.1390   44.4950 C   0  0  0  0  0  0  0  0  0  0  0  0
   58.9590   25.9500   46.3910 C   0  0  0  0  0  0  0  0  0  0  0  0
   59.7630   27.0710   46.6070 C   0  0  0  0  0  0  0  0  0  0  0  0
   59.2810   28.3580   46.3190 C   0  0  0  0  0  0  0  0  0  0  0  0
   60.6740   31.8010   49.5290 C   0  0  0  0  0  0  0  0  0  0  0  0
   59.7850   32.8550   48.8350 C   0  0  0  0  0  0  0  0  0  0  0  0
   57.2865   33.9801   46.3342 H   0  0  0  0  0  0  0  0  0  0  0  0
   56.8896   35.2058   45.0824 H   0  0  0  0  0  0  0  0  0  0  0  0
   56.0503   33.6176   45.0824 H   0  0  0  0  0  0  0  0  0  0  0  0
   57.9062   32.4790   44.2395 H   0  0  0  0  0  0  0  0  0  0  0  0
   58.0478   34.0951   43.4167 H   0  0  0  0  0  0  0  0  0  0  0  0
   59.7050   32.9020   45.5050 H   0  0  0  0  0  0  0  0  0  0  0  0
   60.3969   35.5954   45.1769 H   0  0  0  0  0  0  0  0  0  0  0  0
   58.6488   35.5304   45.6648 H   0  0  0  0  0  0  0  0  0  0  0  0
   60.9293   35.3405   47.3534 H   0  0  0  0  0  0  0  0  0  0  0  0
   59.1812   35.0847   47.7763 H   0  0  0  0  0  0  0  0  0  0  0  0
   59.7353   32.6819   46.6918 H   0  0  0  0  0  0  0  0  0  0  0  0
   62.3435   33.5229   48.0674 H   0  0  0  0  0  0  0  0  0  0  0  0
   62.1230   33.2715   46.2942 H   0  0  0  0  0  0  0  0  0  0  0  0
   63.1275   31.3185   47.6537 H   0  0  0  0  0  0  0  0  0  0  0  0
   61.7042   30.9726   46.5498 H   0  0  0  0  0  0  0  0  0  0  0  0
   62.0040   30.3220   49.1810 H   0  0  0  0  0  0  0  0  0  0  0  0
   61.1185   29.3217   46.2127 H   0  0  0  0  0  0  0  0  0  0  0  0
   58.0614   30.9358   47.1991 H   0  0  0  0  0  0  0  0  0  0  0  0
   58.0239   31.9354   45.6948 H   0  0  0  0  0  0  0  0  0  0  0  0
   56.4261   29.9663   45.6968 H   0  0  0  0  0  0  0  0  0  0  0  0
   57.5994   29.9975   44.3271 H   0  0  0  0  0  0  0  0  0  0  0  0
   56.1671   27.5052   45.1656 H   0  0  0  0  0  0  0  0  0  0  0  0
   55.7864   25.0962   47.5810 H   0  0  0  0  0  0  0  0  0  0  0  0
   54.3946   23.0574   47.2566 H   0  0  0  0  0  0  0  0  0  0  0  0
   54.6192   21.7027   45.1793 H   0  0  0  0  0  0  0  0  0  0  0  0
   57.4417   20.7432   43.9571 H   0  0  0  0  0  0  0  0  0  0  0  0
   56.6304   20.3117   42.4137 H   0  0  0  0  0  0  0  0  0  0  0  0
   58.0018   21.4719   42.4137 H   0  0  0  0  0  0  0  0  0  0  0  0
   57.6326   24.4435   43.7152 H   0  0  0  0  0  0  0  0  0  0  0  0
   59.3465   24.9469   46.6223 H   0  0  0  0  0  0  0  0  0  0  0  0
   60.7806   26.9451   47.0054 H   0  0  0  0  0  0  0  0  0  0  0  0
   61.4743   32.3264   50.0707 H   0  0  0  0  0  0  0  0  0  0  0  0
   60.0186   31.2226   50.1968 H   0  0  0  0  0  0  0  0  0  0  0  0
   59.7474   33.7512   49.4717 H   0  0  0  0  0  0  0  0  0  0  0  0
   58.7943   32.3979   48.6948 H   0  0  0  0  0  0  0  0  0  0  0  0
  1  2  1  0
  2  3  1  0
  3  4  1  0
  4  5  1  0
  5  6  1  0
  6  7  1  0
  7  8  1  0
  8  9  1  0
  9 10  1  0
 10 11  2  0
 10 12  1  0
 12 13  1  0
 13 14  1  0
 14 15  1  0
 15 16  1  0
 16 17  2  0
 17 18  1  0
 18 19  1  0
 19 20  2  0
 20 21  1  0
 21 22  2  0
 22 23  1  0
 23 24  1  0
 24 25  1  0
 23 26  2  0
 18 27  2  0
 27 28  1  0
 28 29  2  0
  9 30  1  0
 30 31  1  0
 31  6  1  0
 29 12  1  0
 29 16  1  0
 26 19  1  0
  1 32  1  0
  1 33  1  0
  1 34  1  0
  2 35  1  0
  2 36  1  0
  3 37  1  0
  4 38  1  0
  4 39  1  0
  5 40  1  0
  5 41  1  0
  6 42  1  6
  7 43  1  0
  7 44  1  0
  8 45  1  0
  8 46  1  0
  9 47  1  1
 12 48  1  6
 14 49  1  0
 14 50  1  0
 15 51  1  0
 15 52  1  0
 17 53  1  0
 20 54  1  0
 21 55  1  0
 22 56  1  0
 25 57  1  0
 25 58  1  0
 25 59  1  0
 26 60  1  0
 27 61  1  0
 28 62  1  0
 30 63  1  0
 30 64  1  0
 31 65  1  0
 31 66  1  0
M  CHG  1   9   1
M  END
>  <UniqueID>  (17) 
17

>  <SMILES>  (17) 
CCNCCC1CC[NH+](C(=O)[C@@H]2OCCc3cc(-c4cccc(OC)c4)ccc32)CC1

>  <Energy>  (17) 
87.26127009554149

>  <Genealogy>  (17) 
CCNCCC1CC[NH+](C(=O)C2OCCc3cc(-c4cccc(OC)c4)ccc32)CC1 (protonated)
CCNCCC1CC[NH+](C(=O)[C@@H]2OCCc3cc(-c4cccc(OC)c4)ccc32)CC1 (chirality)
CCNCCC1CC[NH+](C(=O)[C@@H]2OCCc3cc(-c4cccc(OC)c4)ccc32)CC1 (3D coordinates assigned)
CCNCCC1CC[NH+](C(=O)[C@@H]2OCCc3cc(-c4cccc(OC)c4)ccc32)CC1 (nonaromatic ring conformer: 87.26127009554149 kcal/mol)

>  <smiles>  (17) 
CCNCCC1CCN(C(=O)C2OCCc3cc(-c4cccc(OC)c4)ccc32)CC1

>  <score_type>  (17) 
oracle

>  <origin>  (17) 
adg

>  <m_score__min__energy>  (17) 
-7.9199999999999999

>  <m_primary>  (17) 
energy

$$$$
17:0
     RDKit          3D

 62 63  0  0  0  0  0  0  0  0999 V2000
   62.4840   33.8600   46.3550 C   0  0  0  0  0  0  0  0  0  0  0  0
   63.7370   33.0870   46.7630 C   0  0  0  0  0  0  0  0  0  0  0  0
   63.4330   31.8730   47.6620 C   0  0  0  0  0  0  0  0  0  0  0  0
   63.9340   31.9870   49.1150 C   0  0  0  0  0  0  0  0  0  0  0  0
   63.4910   33.2610   49.8710 C   0  0  0  0  0  0  0  0  0  0  0  0
   62.3960   33.0220   50.9330 C   0  0  0  0  0  0  0  0  0  0  0  0
   61.1040   33.8270   50.7180 C   0  0  0  0  0  0  0  0  0  0  0  0
   60.3650   33.3700   49.5290 N   0  0  0  0  0  0  0  0  0  0  0  0
   59.9850   32.0620   49.4350 C   0  0  0  0  0  0  0  0  0  0  0  0
   59.2520   31.5890   48.3340 C   0  0  0  0  0  0  0  0  0  0  0  0
   58.8840   30.1160   48.2920 C   0  0  0  0  0  0  0  0  0  0  0  0
   59.1200   29.5270   46.9610 N   0  0  0  0  0  0  0  0  0  0  0  0
   60.5320   29.6320   46.5540 C   0  0  0  0  0  0  0  0  0  0  0  0
   60.7930   28.9800   45.1830 C   0  0  0  0  0  0  0  0  0  0  0  0
   59.5320   28.3850   44.5350 C   0  0  0  0  0  0  0  0  0  0  0  0
   58.5600   29.4390   44.2010 N   0  0  0  0  0  0  0  0  0  0  0  0
   57.1650   29.0210   44.4240 C   0  0  0  0  0  0  0  0  0  0  0  0
   56.1610   29.9930   43.7990 C   0  0  0  0  0  0  0  0  0  0  0  0
   58.9190   32.4970   47.2980 C   0  0  0  0  0  0  0  0  0  0  0  0
   58.1860   32.1110   46.1540 C   0  0  0  0  0  0  0  0  0  0  0  0
   57.8830   33.0410   45.1570 C   0  0  0  0  0  0  0  0  0  0  0  0
   58.3000   34.3660   45.2790 C   0  0  0  0  0  0  0  0  0  0  0  0
   59.0240   34.7700   46.4000 C   0  0  0  0  0  0  0  0  0  0  0  0
   59.3380   33.8460   47.4100 C   0  0  0  0  0  0  0  0  0  0  0  0
   60.0660   34.2520   48.5320 C   0  0  0  0  0  0  0  0  0  0  0  0
   61.9476   34.1909   47.2565 H   0  0  0  0  0  0  0  0  0  0  0  0
   62.7727   34.7372   45.7574 H   0  0  0  0  0  0  0  0  0  0  0  0
   61.8296   33.2084   45.7574 H   0  0  0  0  0  0  0  0  0  0  0  0
   64.2405   32.7307   45.8522 H   0  0  0  0  0  0  0  0  0  0  0  0
   64.3714   33.7736   47.3428 H   0  0  0  0  0  0  0  0  0  0  0  0
   62.3421   31.7347   47.6886 H   0  0  0  0  0  0  0  0  0  0  0  0
   63.9745   31.0239   47.2195 H   0  0  0  0  0  0  0  0  0  0  0  0
   63.5611   31.1148   49.6720 H   0  0  0  0  0  0  0  0  0  0  0  0
   65.0312   32.0365   49.0544 H   0  0  0  0  0  0  0  0  0  0  0  0
   64.3717   33.6866   50.3742 H   0  0  0  0  0  0  0  0  0  0  0  0
   63.0585   33.9383   49.1199 H   0  0  0  0  0  0  0  0  0  0  0  0
   62.1385   31.9526   50.9246 H   0  0  0  0  0  0  0  0  0  0  0  0
   62.8155   33.3594   51.8923 H   0  0  0  0  0  0  0  0  0  0  0  0
   60.4610   33.7110   51.6029 H   0  0  0  0  0  0  0  0  0  0  0  0
   61.3799   34.8807   50.5644 H   0  0  0  0  0  0  0  0  0  0  0  0
   60.2589   31.3632   50.2391 H   0  0  0  0  0  0  0  0  0  0  0  0
   59.4926   29.5763   49.0325 H   0  0  0  0  0  0  0  0  0  0  0  0
   57.8113   30.0265   48.5186 H   0  0  0  0  0  0  0  0  0  0  0  0
   58.8450   28.5170   47.0030 H   0  0  0  0  0  0  0  0  0  0  0  0
   58.5140   30.0080   46.2590 H   0  0  0  0  0  0  0  0  0  0  0  0
   60.8063   30.6958   46.4982 H   0  0  0  0  0  0  0  0  0  0  0  0
   61.1391   29.1004   47.3015 H   0  0  0  0  0  0  0  0  0  0  0  0
   61.2040   29.7442   44.5069 H   0  0  0  0  0  0  0  0  0  0  0  0
   61.4937   28.1484   45.3491 H   0  0  0  0  0  0  0  0  0  0  0  0
   59.8173   27.8546   43.6145 H   0  0  0  0  0  0  0  0  0  0  0  0
   59.0646   27.6930   45.2510 H   0  0  0  0  0  0  0  0  0  0  0  0
   58.6900   29.7220   43.2010 H   0  0  0  0  0  0  0  0  0  0  0  0
   57.0183   28.0259   43.9788 H   0  0  0  0  0  0  0  0  0  0  0  0
   56.9875   29.0052   45.5095 H   0  0  0  0  0  0  0  0  0  0  0  0
   55.6163   30.5203   44.5960 H   0  0  0  0  0  0  0  0  0  0  0  0
   56.6973   30.7238   43.1759 H   0  0  0  0  0  0  0  0  0  0  0  0
   55.4479   29.4333   43.1759 H   0  0  0  0  0  0  0  0  0  0  0  0
   57.8508   31.0687   46.0473 H   0  0  0  0  0  0  0  0  0  0  0  0
   57.3123   32.7265   44.2708 H   0  0  0  0  0  0  0  0  0  0  0  0
   58.0575   35.0932   44.4901 H   0  0  0  0  0  0  0  0  0  0  0  0
   59.3504   35.8163   46.4937 H   0  0  0  0  0  0  0  0  0  0  0  0
   60.4022   35.2963   48.6122 H   0  0  0  0  0  0  0  0  0  0  0  0
  1  2  1  0
  2  3  1  0
  3  4  1  0
  4  5  1  0
  5  6  1  0
  6  7  1  0
  7  8  1  0
  8  9  2  0
  9 10  1  0
 10 11  1  0
 11 12  1  0
 12 13  1  0
 13 14  1  0
 14 15  1  0
 15 16  1  0
 16 17  1  0
 17 18  1  0
 10 19  2  0
 19 20  1  0
 20 21  2  0
 21 22  1  0
 22 23  2  0
 23 24  1  0
 24 25  2  0
 25  8  1  0
 24 19  1  0
  1 26  1  0
  1 27  1  0
  1 28  1  0
  2 29  1  0
  2 30  1  0
  3 31  1  0
  3 32  1  0
  4 33  1  0
  4 34  1  0
  5 35  1  0
  5 36  1  0
  6 37  1  0
  6 38  1  0
  7 39  1  0
  7 40  1  0
  9 41  1  0
 11 42  1  0
 11 43  1  0
 12 44  1  0
 12 45  1  0
 13 46  1  0
 13 47  1  0
 14 48  1  0
 14 49  1  0
 15 50  1  0
 15 51  1  0
 16 52  1  0
 17 53  1  0
 17 54  1  0
 18 55  1  0
 18 56  1  0
 18 57  1  0
 20 58  1  0
 21 59  1  0
 22 60  1  0
 23 61  1  0
 25 62  1  0
M  CHG  2   8   1  12   1
M  END
>  <UniqueID>  (18) 
18

>  <SMILES>  (18) 
CCCCCCC[n+]1cc(C[NH2+]CCCNCC)c2ccccc2c1

>  <Energy>  (18) 
56.43573209640391

>  <Genealogy>  (18) 
CCCCCCC[n+]1cc(C[NH2+]CCCNCC)c2ccccc2c1 (protonated)
CCCCCCC[n+]1cc(C[NH2+]CCCNCC)c2ccccc2c1 (3D coordinates assigned)
CCCCCCC[n+]1cc(C[NH2+]CCCNCC)c2ccccc2c1 (optimized conformer: 56.43573209640391 kcal/mol)

>  <smiles>  (18) 
CCCCCCC[n+]1cc(CNCCCNCC)c2ccccc2c1

>  <score_type>  (18) 
oracle

>  <origin>  (18) 
adg

>  <m_score__min__energy>  (18) 
-4.4100000000000001

>  <m_primary>  (18) 
energy

$$$$
18:0
     RDKit          3D

 47 49  0  0  0  0  0  0  0  0999 V2000
   58.8680   27.6900   44.1880 C   0  0  0  0  0  0  0  0  0  0  0  0
   58.5190   27.3510   45.6390 C   0  0  0  0  0  0  0  0  0  0  0  0
   59.7110   27.0730   46.4540 N   0  0  0  0  0  0  0  0  0  0  0  0
   59.5400   27.4180   47.8790 C   0  0  0  0  0  0  0  0  0  0  0  0
   59.7530   28.9160   48.1390 C   0  0  0  0  0  0  0  0  0  0  0  0
   60.4880   29.5220   47.0300 N   0  0  0  0  0  0  0  0  0  0  0  0
   60.4200   30.9370   46.7840 C   0  0  0  0  0  0  0  0  0  0  0  0
   61.4970   31.7670   47.1450 C   0  0  0  0  0  0  0  0  0  0  0  0
   62.6880   31.2190   47.6660 C   0  0  0  0  0  0  0  0  0  0  0  0
   63.7700   32.0360   47.9800 C   0  0  0  0  0  0  0  0  0  0  0  0
   63.6940   33.4060   47.7610 C   0  0  0  0  0  0  0  0  0  0  0  0
   62.5280   33.9710   47.2450 C   0  0  0  0  0  0  0  0  0  0  0  0
   61.3940   33.1710   46.9510 C   0  0  0  0  0  0  0  0  0  0  0  0
   60.2200   33.7190   46.4670 N   0  0  0  0  0  0  0  0  0  0  0  0
   60.0050   35.1820   46.5370 C   0  0  0  0  0  0  0  0  0  0  0  0
   59.2390   32.8990   45.9410 C   0  0  0  0  0  0  0  0  0  0  0  0
   58.1520   33.4230   45.1990 C   0  0  0  0  0  0  0  0  0  0  0  0
   57.1340   32.5940   44.7300 C   0  0  0  0  0  0  0  0  0  0  0  0
   57.1670   31.2230   44.9660 C   0  0  0  0  0  0  0  0  0  0  0  0
   56.1030   30.4410   44.4910 O   0  0  0  0  0  0  0  0  0  0  0  0
   56.1220   29.7130   43.2670 C   0  0  0  0  0  0  0  0  0  0  0  0
   58.2580   30.6750   45.6570 C   0  0  0  0  0  0  0  0  0  0  0  0
   59.3080   31.4940   46.1260 C   0  0  0  0  0  0  0  0  0  0  0  0
   59.6569   28.4563   44.1701 H   0  0  0  0  0  0  0  0  0  0  0  0
   59.2247   26.7844   43.6755 H   0  0  0  0  0  0  0  0  0  0  0  0
   57.9732   28.0729   43.6755 H   0  0  0  0  0  0  0  0  0  0  0  0
   57.9803   28.2024   46.0805 H   0  0  0  0  0  0  0  0  0  0  0  0
   57.9000   26.4417   45.6305 H   0  0  0  0  0  0  0  0  0  0  0  0
   60.5480   27.5440   46.0340 H   0  0  0  0  0  0  0  0  0  0  0  0
   58.5209   27.1451   48.1904 H   0  0  0  0  0  0  0  0  0  0  0  0
   60.2949   26.8630   48.4553 H   0  0  0  0  0  0  0  0  0  0  0  0
   58.7752   29.4098   48.2397 H   0  0  0  0  0  0  0  0  0  0  0  0
   60.3339   29.0403   49.0648 H   0  0  0  0  0  0  0  0  0  0  0  0
   60.8450   28.8950   46.2750 H   0  0  0  0  0  0  0  0  0  0  0  0
   62.7623   30.1332   47.8259 H   0  0  0  0  0  0  0  0  0  0  0  0
   64.6861   31.5969   48.4019 H   0  0  0  0  0  0  0  0  0  0  0  0
   64.5565   34.0472   47.9954 H   0  0  0  0  0  0  0  0  0  0  0  0
   62.4870   35.0551   47.0629 H   0  0  0  0  0  0  0  0  0  0  0  0
   59.9589   35.4958   47.5903 H   0  0  0  0  0  0  0  0  0  0  0  0
   60.8368   35.6992   46.0364 H   0  0  0  0  0  0  0  0  0  0  0  0
   59.0596   35.4380   46.0364 H   0  0  0  0  0  0  0  0  0  0  0  0
   58.1105   34.5020   44.9894 H   0  0  0  0  0  0  0  0  0  0  0  0
   56.2950   33.0287   44.1669 H   0  0  0  0  0  0  0  0  0  0  0  0
   56.1501   28.6346   43.4822 H   0  0  0  0  0  0  0  0  0  0  0  0
   55.2174   29.9476   42.6867 H   0  0  0  0  0  0  0  0  0  0  0  0
   57.0131   29.9945   42.6867 H   0  0  0  0  0  0  0  0  0  0  0  0
   58.2959   29.5904   45.8362 H   0  0  0  0  0  0  0  0  0  0  0  0
  1  2  1  0
  2  3  1  0
  3  4  1  0
  4  5  1  0
  5  6  1  0
  6  7  1  0
  7  8  2  0
  8  9  1  0
  9 10  2  0
 10 11  1  0
 11 12  2  0
 12 13  1  0
 13 14  2  0
 14 15  1  0
 14 16  1  0
 16 17  2  0
 17 18  1  0
 18 19  2  0
 19 20  1  0
 20 21  1  0
 19 22  1  0
 22 23  2  0
 23  7  1  0
 13  8  1  0
 23 16  1  0
  1 24  1  0
  1 25  1  0
  1 26  1  0
  2 27  1  0
  2 28  1  0
  3 29  1  0
  4 30  1  0
  4 31  1  0
  5 32  1  0
  5 33  1  0
  6 34  1  0
  9 35  1  0
 10 36  1  0
 11 37  1  0
 12 38  1  0
 15 39  1  0
 15 40  1  0
 15 41  1  0
 17 42  1  0
 18 43  1  0
 21 44  1  0
 21 45  1  0
 21 46  1  0
 22 47  1  0
M  CHG  1  14   1
M  END
>  <UniqueID>  (19) 
19

>  <SMILES>  (19) 
CCNCCNc1c2ccccc2[n+](C)c2ccc(OC)cc12

>  <Energy>  (19) 
72.24081501090077

>  <Genealogy>  (19) 
CCNCCNc1c2ccccc2[n+](C)c2ccc(OC)cc12 (3D coordinates assigned)
CCNCCNc1c2ccccc2[n+](C)c2ccc(OC)cc12 (optimized conformer: 72.24081501090077 kcal/mol)

>  <smiles>  (19) 
CCNCCNc1c2ccccc2[n+](C)c2ccc(OC)cc12

>  <score_type>  (19) 
oracle

>  <origin>  (19) 
adg

>  <m_score__min__energy>  (19) 
-5.5700000000000003

>  <m_primary>  (19) 
energy

$$$$
19:0
     RDKit          3D

 51 55  0  0  0  0  0  0  0  0999 V2000
   58.0410   33.0700   43.7970 C   0  0  0  0  0  0  0  0  0  0  0  0
   58.8060   34.1810   44.5140 C   0  0  0  0  0  0  0  0  0  0  0  0
   58.4040   34.2940   45.9320 N   0  0  0  0  0  0  0  0  0  0  0  0
   59.4860   34.7230   46.8510 C   0  0  0  0  0  0  0  0  0  0  0  0
   60.9030   34.3400   46.3910 C   0  0  0  0  0  0  0  0  0  0  0  0
   57.5490   33.1990   46.4550 C   0  0  0  0  0  0  0  0  0  0  0  0
   58.2750   31.8880   46.6470 C   0  0  0  0  0  0  0  0  0  0  0  0
   59.4370   31.8270   47.4350 C   0  0  0  0  0  0  0  0  0  0  0  0
   60.1120   30.6180   47.6190 C   0  0  0  0  0  0  0  0  0  0  0  0
   59.6400   29.4500   47.0060 C   0  0  0  0  0  0  0  0  0  0  0  0
   60.3060   28.2190   47.1820 C   0  0  0  0  0  0  0  0  0  0  0  0
   59.7840   27.0990   46.5430 C   0  0  0  0  0  0  0  0  0  0  0  0
   58.6570   27.2070   45.7670 C   0  0  0  0  0  0  0  0  0  0  0  0
   58.0000   28.3770   45.5820 N   0  0  0  0  0  0  0  0  0  0  0  0
   58.4720   29.5070   46.1890 C   0  0  0  0  0  0  0  0  0  0  0  0
   57.8090   30.7240   46.0120 C   0  0  0  0  0  0  0  0  0  0  0  0
   58.3650   25.8970   45.2460 C   0  0  0  0  0  0  0  0  0  0  0  0
   57.3420   25.5340   44.4340 N   0  0  0  0  0  0  0  0  0  0  0  0
   57.2330   24.2290   44.0430 C   0  0  0  0  0  0  0  0  0  0  0  0
   56.1850   23.8260   43.2030 C   0  0  0  0  0  0  0  0  0  0  0  0
   56.0750   22.4900   42.8050 C   0  0  0  0  0  0  0  0  0  0  0  0
   57.0080   21.5460   43.2420 C   0  0  0  0  0  0  0  0  0  0  0  0
   58.0590   21.9280   44.0810 C   0  0  0  0  0  0  0  0  0  0  0  0
   58.1840   23.2680   44.4900 C   0  0  0  0  0  0  0  0  0  0  0  0
   59.2280   23.6990   45.3340 C   0  0  0  0  0  0  0  0  0  0  0  0
   60.0990   22.8920   45.7600 O   0  0  0  0  0  0  0  0  0  0  0  0
   59.2810   25.0100   45.6850 N   0  0  0  0  0  0  0  0  0  0  0  0
   60.2680   25.6750   46.5460 C   0  0  0  0  0  0  0  0  0  0  0  0
   57.5813   32.4024   44.5407 H   0  0  0  0  0  0  0  0  0  0  0  0
   57.2557   33.5132   43.1670 H   0  0  0  0  0  0  0  0  0  0  0  0
   58.7351   32.4944   43.1670 H   0  0  0  0  0  0  0  0  0  0  0  0
   59.8827   33.9614   44.4651 H   0  0  0  0  0  0  0  0  0  0  0  0
   58.5751   35.1337   44.0150 H   0  0  0  0  0  0  0  0  0  0  0  0
   59.4404   35.8178   46.9480 H   0  0  0  0  0  0  0  0  0  0  0  0
   59.3139   34.1993   47.8029 H   0  0  0  0  0  0  0  0  0  0  0  0
   61.5402   34.1678   47.2710 H   0  0  0  0  0  0  0  0  0  0  0  0
   60.8567   33.4221   45.7865 H   0  0  0  0  0  0  0  0  0  0  0  0
   61.3254   35.1562   45.7865 H   0  0  0  0  0  0  0  0  0  0  0  0
   57.1409   33.5135   47.4269 H   0  0  0  0  0  0  0  0  0  0  0  0
   56.7661   33.0210   45.7031 H   0  0  0  0  0  0  0  0  0  0  0  0
   59.8192   32.7414   47.9122 H   0  0  0  0  0  0  0  0  0  0  0  0
   61.0152   30.5829   48.2459 H   0  0  0  0  0  0  0  0  0  0  0  0
   61.2097   28.1470   47.8050 H   0  0  0  0  0  0  0  0  0  0  0  0
   56.9161   30.7715   45.3713 H   0  0  0  0  0  0  0  0  0  0  0  0
   56.6520   26.2520   44.1150 H   0  0  0  0  0  0  0  0  0  0  0  0
   55.4466   24.5637   42.8558 H   0  0  0  0  0  0  0  0  0  0  0  0
   55.2508   22.1810   42.1453 H   0  0  0  0  0  0  0  0  0  0  0  0
   56.9150   20.4970   42.9243 H   0  0  0  0  0  0  0  0  0  0  0  0
   58.7894   21.1794   44.4219 H   0  0  0  0  0  0  0  0  0  0  0  0
   60.2597   25.2531   47.5618 H   0  0  0  0  0  0  0  0  0  0  0  0
   61.3054   25.5605   46.1986 H   0  0  0  0  0  0  0  0  0  0  0  0
  1  2  1  0
  2  3  1  0
  3  4  1  0
  4  5  1  0
  3  6  1  0
  6  7  1  0
  7  8  2  0
  8  9  1  0
  9 10  2  0
 10 11  1  0
 11 12  2  0
 12 13  1  0
 13 14  2  0
 14 15  1  0
 15 16  2  0
 13 17  1  0
 17 18  2  0
 18 19  1  0
 19 20  2  0
 20 21  1  0
 21 22  2  0
 22 23  1  0
 23 24  2  0
 24 25  1  0
 25 26  2  0
 25 27  1  0
 27 28  1  0
 16  7  1  0
 27 17  1  0
 15 10  1  0
 24 19  1  0
 28 12  1  0
  1 29  1  0
  1 30  1  0
  1 31  1  0
  2 32  1  0
  2 33  1  0
  4 34  1  0
  4 35  1  0
  5 36  1  0
  5 37  1  0
  5 38  1  0
  6 39  1  0
  6 40  1  0
  8 41  1  0
  9 42  1  0
 11 43  1  0
 16 44  1  0
 18 45  1  0
 20 46  1  0
 21 47  1  0
 22 48  1  0
 23 49  1  0
 28 50  1  0
 28 51  1  0
M  CHG  1  18   1
M  END
>  <UniqueID>  (20) 
20

>  <SMILES>  (20) 
CCN(CC)Cc1ccc2cc3c(nc2c1)-c1[nH+]c2ccccc2c(=O)n1C3

>  <Energy>  (20) 
96.05062447866138

>  <Genealogy>  (20) 
CCN(CC)Cc1ccc2cc3c(nc2c1)-c1[nH+]c2ccccc2c(=O)n1C3 (protonated)
CCN(CC)Cc1ccc2cc3c(nc2c1)-c1[nH+]c2ccccc2c(=O)n1C3 (3D coordinates assigned)
CCN(CC)Cc1ccc2cc3c(nc2c1)-c1[nH+]c2ccccc2c(=O)n1C3 (nonaromatic ring conformer: 96.05062447866138 kcal/mol)

>  <smiles>  (20) 
CCN(CC)Cc1ccc2cc3c(nc2c1)-c1nc2ccccc2c(=O)n1C3

>  <score_type>  (20) 
oracle

>  <origin>  (20) 
adg

>  <m_score__min__energy>  (20) 
-6.7199999999999998

>  <m_primary>  (20) 
energy

$$$$
20:0
     RDKit          3D

 48 49  0  0  0  0  0  0  0  0999 V2000
   56.2840   29.7170   42.7330 C   0  0  0  0  0  0  0  0  0  0  0  0
   56.7560   29.5760   44.1760 C   0  0  0  0  0  0  0  0  0  0  0  0
   56.6600   30.8670   44.8700 N   0  0  0  0  0  0  0  0  0  0  0  0
   57.3330   31.9330   44.1140 C   0  0  0  0  0  0  0  0  0  0  0  0
   57.6850   33.1160   45.0200 C   0  0  0  0  0  0  0  0  0  0  0  0
   57.9670   32.6850   46.3520 O   0  0  0  0  0  0  0  0  0  0  0  0
   59.1810   32.8510   47.0480 C   0  0  0  0  0  0  0  0  0  0  0  0
   59.8920   34.0650   47.0410 C   0  0  0  0  0  0  0  0  0  0  0  0
   61.0820   34.1930   47.7600 C   0  0  0  0  0  0  0  0  0  0  0  0
   61.5930   33.1140   48.4930 C   0  0  0  0  0  0  0  0  0  0  0  0
   62.8390   33.2650   49.2840 C   0  0  0  0  0  0  0  0  0  0  0  0
   62.8620   34.0820   50.4300 C   0  0  0  0  0  0  0  0  0  0  0  0
   64.0330   34.2150   51.1830 C   0  0  0  0  0  0  0  0  0  0  0  0
   65.1930   33.5380   50.7990 C   0  0  0  0  0  0  0  0  0  0  0  0
   65.1840   32.7260   49.6620 C   0  0  0  0  0  0  0  0  0  0  0  0
   64.0140   32.5860   48.9080 C   0  0  0  0  0  0  0  0  0  0  0  0
   60.8960   31.8950   48.4860 C   0  0  0  0  0  0  0  0  0  0  0  0
   59.6940   31.7570   47.7720 C   0  0  0  0  0  0  0  0  0  0  0  0
   58.9050   30.4780   47.8790 C   0  0  0  0  0  0  0  0  0  0  0  0
   58.9280   29.7800   46.5750 N   0  0  0  0  0  0  0  0  0  0  0  0
   60.2790   29.8010   45.9930 C   0  0  0  0  0  0  0  0  0  0  0  0
   58.4770   28.3860   46.7200 C   0  0  0  0  0  0  0  0  0  0  0  0
   55.2301   30.0318   42.7211 H   0  0  0  0  0  0  0  0  0  0  0  0
   56.8978   30.4710   42.2185 H   0  0  0  0  0  0  0  0  0  0  0  0
   56.3836   28.7499   42.2185 H   0  0  0  0  0  0  0  0  0  0  0  0
   56.1262   28.8375   44.6937 H   0  0  0  0  0  0  0  0  0  0  0  0
   57.8047   29.2439   44.1796 H   0  0  0  0  0  0  0  0  0  0  0  0
   57.1670   30.7630   45.7810 H   0  0  0  0  0  0  0  0  0  0  0  0
   58.2571   31.5315   43.6727 H   0  0  0  0  0  0  0  0  0  0  0  0
   56.6501   32.2872   43.3278 H   0  0  0  0  0  0  0  0  0  0  0  0
   58.5704   33.6270   44.6139 H   0  0  0  0  0  0  0  0  0  0  0  0
   56.8220   33.7974   45.0515 H   0  0  0  0  0  0  0  0  0  0  0  0
   59.5076   34.9196   46.4649 H   0  0  0  0  0  0  0  0  0  0  0  0
   61.6236   35.1504   47.7508 H   0  0  0  0  0  0  0  0  0  0  0  0
   61.9523   34.6198   50.7355 H   0  0  0  0  0  0  0  0  0  0  0  0
   64.0406   34.8535   52.0787 H   0  0  0  0  0  0  0  0  0  0  0  0
   66.1135   33.6442   51.3918 H   0  0  0  0  0  0  0  0  0  0  0  0
   66.0989   32.1957   49.3591 H   0  0  0  0  0  0  0  0  0  0  0  0
   64.0118   31.9419   48.0163 H   0  0  0  0  0  0  0  0  0  0  0  0
   61.2962   31.0374   49.0466 H   0  0  0  0  0  0  0  0  0  0  0  0
   59.3531   29.8330   48.6492 H   0  0  0  0  0  0  0  0  0  0  0  0
   57.8656   30.7078   48.1561 H   0  0  0  0  0  0  0  0  0  0  0  0
   61.0259   29.8126   46.8004 H   0  0  0  0  0  0  0  0  0  0  0  0
   60.4246   28.9050   45.3717 H   0  0  0  0  0  0  0  0  0  0  0  0
   60.3966   30.7011   45.3717 H   0  0  0  0  0  0  0  0  0  0  0  0
   58.3961   28.1360   47.7882 H   0  0  0  0  0  0  0  0  0  0  0  0
   57.4944   28.2667   46.2401 H   0  0  0  0  0  0  0  0  0  0  0  0
   59.2035   27.7138   46.2401 H   0  0  0  0  0  0  0  0  0  0  0  0
  1  2  1  0
  2  3  1  0
  3  4  1  0
  4  5  1  0
  5  6  1  0
  6  7  1  0
  7  8  2  0
  8  9  1  0
  9 10  2  0
 10 11  1  0
 11 12  2  0
 12 13  1  0
 13 14  2  0
 14 15  1  0
 15 16  2  0
 10 17  1  0
 17 18  2  0
 18 19  1  0
 19 20  1  0
 20 21  1  0
 20 22  1  0
 18  7  1  0
 16 11  1  0
  1 23  1  0
  1 24  1  0
  1 25  1  0
  2 26  1  0
  2 27  1  0
  3 28  1  0
  4 29  1  0
  4 30  1  0
  5 31  1  0
  5 32  1  0
  8 33  1  0
  9 34  1  0
 12 35  1  0
 13 36  1  0
 14 37  1  0
 15 38  1  0
 16 39  1  0
 17 40  1  0
 19 41  1  0
 19 42  1  0
 21 43  1  0
 21 44  1  0
 21 45  1  0
 22 46  1  0
 22 47  1  0
 22 48  1  0
M  END
>  <UniqueID>  (21) 
21

>  <SMILES>  (21) 
CCNCCOc1ccc(-c2ccccc2)cc1CN(C)C

>  <Energy>  (21) 
50.313448494685204

>  <Genealogy>  (21) 
CCNCCOc1ccc(-c2ccccc2)cc1CN(C)C (3D coordinates assigned)
CCNCCOc1ccc(-c2ccccc2)cc1CN(C)C (optimized conformer: 50.313448494685204 kcal/mol)

>  <smiles>  (21) 
CCNCCOc1ccc(-c2ccccc2)cc1CN(C)C

>  <score_type>  (21) 
oracle

>  <origin>  (21) 
adg

>  <m_score__min__energy>  (21) 
-7.2199999999999998

>  <m_primary>  (21) 
energy

$$$$
21:0
     RDKit          3D

 77 80  0  0  0  0  0  0  0  0999 V2000
   58.6710   33.0800   48.4450 C   0  0  0  0  0  0  0  0  0  0  0  0
   59.8440   34.0520   48.5510 C   0  0  0  0  0  0  0  0  0  0  0  0
   60.3300   34.4740   47.2160 N   0  0  0  0  0  0  0  0  0  0  0  0
   61.1110   33.4080   46.5510 C   0  0  0  0  0  0  0  0  0  0  0  0
   62.5590   33.8550   46.3710 C   0  0  0  0  0  0  0  0  0  0  0  0
   59.2880   35.0650   46.3360 C   0  0  0  0  0  0  0  0  0  0  0  0
   59.2950   34.5630   44.8810 C   0  0  0  0  0  0  0  0  0  0  0  0
   58.0320   34.0320   44.5320 O   0  0  0  0  0  0  0  0  0  0  0  0
   57.5820   33.1210   45.5170 C   0  0  0  0  0  0  0  0  0  0  0  0
   56.8360   31.9580   44.8360 C   0  0  0  0  0  0  0  0  0  0  0  0
   57.4950   30.6400   44.9650 N   0  0  0  0  0  0  0  0  0  0  0  0
   58.6850   30.4670   44.1190 C   0  0  0  0  0  0  0  0  0  0  0  0
   59.4970   29.2450   44.5960 C   0  0  0  0  0  0  0  0  0  0  0  0
   58.7060   28.2960   45.4180 N   0  0  0  0  0  0  0  0  0  0  0  0
   58.7560   28.6080   46.8670 C   0  0  0  0  0  0  0  0  0  0  0  0
   59.9250   27.8980   47.5610 C   0  0  0  0  0  0  0  0  0  0  0  0
   60.3880   28.6550   48.7220 N   0  0  0  0  0  0  0  0  0  0  0  0
   60.7300   28.1630   50.0030 C   0  0  0  0  0  0  0  0  0  0  0  0
   60.6920   26.9440   50.3140 O   0  0  0  0  0  0  0  0  0  0  0  0
   61.1270   29.1860   50.9100 N   0  0  0  0  0  0  0  0  0  0  0  0
   61.0610   30.4690   50.1970 C   0  0  0  0  0  0  0  0  0  0  0  0
   60.0830   31.3770   50.9450 C   0  0  0  0  0  0  0  0  0  0  0  0
   60.4690   32.6330   51.4660 C   0  0  0  0  0  0  0  0  0  0  0  0
   59.5370   33.4560   52.1070 C   0  0  0  0  0  0  0  0  0  0  0  0
   58.2060   33.0540   52.2190 C   0  0  0  0  0  0  0  0  0  0  0  0
   57.7980   31.8330   51.6800 C   0  0  0  0  0  0  0  0  0  0  0  0
   58.7250   31.0070   51.0360 C   0  0  0  0  0  0  0  0  0  0  0  0
   62.4460   31.1070   50.0570 C   0  0  0  0  0  0  0  0  0  0  0  0
   62.7340   32.0560   49.0500 C   0  0  0  0  0  0  0  0  0  0  0  0
   64.0050   32.6300   48.9580 C   0  0  0  0  0  0  0  0  0  0  0  0
   65.0000   32.2810   49.8730 C   0  0  0  0  0  0  0  0  0  0  0  0
   64.7280   31.3610   50.8840 C   0  0  0  0  0  0  0  0  0  0  0  0
   63.4600   30.7810   50.9810 C   0  0  0  0  0  0  0  0  0  0  0  0
   60.5800   30.0580   48.8230 C   0  0  0  0  0  0  0  0  0  0  0  0
   60.3770   30.8520   47.8670 O   0  0  0  0  0  0  0  0  0  0  0  0
   57.3270   28.1540   44.8990 C   0  0  0  0  0  0  0  0  0  0  0  0
   56.5690   29.5000   44.8370 C   0  0  0  0  0  0  0  0  0  0  0  0
   58.3339   32.8007   49.4541 H   0  0  0  0  0  0  0  0  0  0  0  0
   57.8440   33.5611   47.9023 H   0  0  0  0  0  0  0  0  0  0  0  0
   58.9901   32.1780   47.9023 H   0  0  0  0  0  0  0  0  0  0  0  0
   59.5196   34.9422   49.1098 H   0  0  0  0  0  0  0  0  0  0  0  0
   60.6679   33.5392   49.0690 H   0  0  0  0  0  0  0  0  0  0  0  0
   61.0850   32.4983   47.1689 H   0  0  0  0  0  0  0  0  0  0  0  0
   60.6719   33.2019   45.5637 H   0  0  0  0  0  0  0  0  0  0  0  0
   63.0238   33.9985   47.3576 H   0  0  0  0  0  0  0  0  0  0  0  0
   63.1134   33.0862   45.8128 H   0  0  0  0  0  0  0  0  0  0  0  0
   62.5835   34.8025   45.8128 H   0  0  0  0  0  0  0  0  0  0  0  0
   58.3045   34.8335   46.7708 H   0  0  0  0  0  0  0  0  0  0  0  0
   59.5054   36.1422   46.2876 H   0  0  0  0  0  0  0  0  0  0  0  0
   59.5324   35.4019   44.2102 H   0  0  0  0  0  0  0  0  0  0  0  0
   60.0522   33.7712   44.7826 H   0  0  0  0  0  0  0  0  0  0  0  0
   58.4448   32.7273   46.0742 H   0  0  0  0  0  0  0  0  0  0  0  0
   56.9025   33.6368   46.2114 H   0  0  0  0  0  0  0  0  0  0  0  0
   55.8338   31.8851   45.2836 H   0  0  0  0  0  0  0  0  0  0  0  0
   56.8145   32.1903   43.7610 H   0  0  0  0  0  0  0  0  0  0  0  0
   58.3714   30.3117   43.0762 H   0  0  0  0  0  0  0  0  0  0  0  0
   59.3125   31.3678   44.1891 H   0  0  0  0  0  0  0  0  0  0  0  0
   59.8739   28.7101   43.7118 H   0  0  0  0  0  0  0  0  0  0  0  0
   60.3112   29.6241   45.2311 H   0  0  0  0  0  0  0  0  0  0  0  0
   58.8731   29.6944   46.9937 H   0  0  0  0  0  0  0  0  0  0  0  0
   57.8203   28.2558   47.3257 H   0  0  0  0  0  0  0  0  0  0  0  0
   59.5952   26.9016   47.8904 H   0  0  0  0  0  0  0  0  0  0  0  0
   60.7562   27.8141   46.8454 H   0  0  0  0  0  0  0  0  0  0  0  0
   61.5125   32.9665   51.3664 H   0  0  0  0  0  0  0  0  0  0  0  0
   59.8547   34.4231   52.5240 H   0  0  0  0  0  0  0  0  0  0  0  0
   57.4779   33.6994   52.7322 H   0  0  0  0  0  0  0  0  0  0  0  0
   56.7466   31.5200   51.7617 H   0  0  0  0  0  0  0  0  0  0  0  0
   58.3906   30.0565   50.5948 H   0  0  0  0  0  0  0  0  0  0  0  0
   61.9516   32.3451   48.3329 H   0  0  0  0  0  0  0  0  0  0  0  0
   64.2219   33.3584   48.1628 H   0  0  0  0  0  0  0  0  0  0  0  0
   66.0000   32.7327   49.7959 H   0  0  0  0  0  0  0  0  0  0  0  0
   65.5122   31.0910   51.6065 H   0  0  0  0  0  0  0  0  0  0  0  0
   63.2508   30.0623   51.7870 H   0  0  0  0  0  0  0  0  0  0  0  0
   57.3749   27.7305   43.8849 H   0  0  0  0  0  0  0  0  0  0  0  0
   56.7790   27.4966   45.5900 H   0  0  0  0  0  0  0  0  0  0  0  0
   56.0430   29.5715   43.8736 H   0  0  0  0  0  0  0  0  0  0  0  0
   55.8546   29.5361   45.6727 H   0  0  0  0  0  0  0  0  0  0  0  0
  1  2  1  0
  2  3  1  0
  3  4  1  0
  4  5  1  0
  3  6  1  0
  6  7  1  0
  7  8  1  0
  8  9  1  0
  9 10  1  0
 10 11  1  0
 11 12  1  0
 12 13  1  0
 13 14  1  0
 14 15  1  0
 15 16  1  0
 16 17  1  0
 17 18  1  0
 18 19  2  0
 18 20  1  0
 20 21  1  0
 21 22  1  0
 22 23  2  0
 23 24  1  0
 24 25  2  0
 25 26  1  0
 26 27  2  0
 21 28  1  0
 28 29  2  0
 29 30  1  0
 30 31  2  0
 31 32  1  0
 32 33  2  0
 21 34  1  0
 34 35  2  0
 14 36  1  0
 36 37  1  0
 37 11  1  0
 34 17  1  0
 27 22  1  0
 33 28  1  0
  1 38  1  0
  1 39  1  0
  1 40  1  0
  2 41  1  0
  2 42  1  0
  4 43  1  0
  4 44  1  0
  5 45  1  0
  5 46  1  0
  5 47  1  0
  6 48  1  0
  6 49  1  0
  7 50  1  0
  7 51  1  0
  9 52  1  0
  9 53  1  0
 10 54  1  0
 10 55  1  0
 12 56  1  0
 12 57  1  0
 13 58  1  0
 13 59  1  0
 15 60  1  0
 15 61  1  0
 16 62  1  0
 16 63  1  0
 23 64  1  0
 24 65  1  0
 25 66  1  0
 26 67  1  0
 27 68  1  0
 29 69  1  0
 30 70  1  0
 31 71  1  0
 32 72  1  0
 33 73  1  0
 36 74  1  0
 36 75  1  0
 37 76  1  0
 37 77  1  0
M  CHG  1  20  -1
M  END
>  <UniqueID>  (22) 
22

>  <SMILES>  (22) 
CCN(CC)CCOCCN1CCN(CCN2C(=O)[N-]C(c3ccccc3)(c3ccccc3)C2=O)CC1

>  <Energy>  (22) 
119.95092161798121

>  <Genealogy>  (22) 
CCN(CC)CCOCCN1CCN(CCN2C(=O)[N-]C(c3ccccc3)(c3ccccc3)C2=O)CC1 (protonated)
CCN(CC)CCOCCN1CCN(CCN2C(=O)[N-]C(c3ccccc3)(c3ccccc3)C2=O)CC1 (3D coordinates assigned)
CCN(CC)CCOCCN1CCN(CCN2C(=O)[N-]C(c3ccccc3)(c3ccccc3)C2=O)CC1 (nonaromatic ring conformer: 119.95092161798121 kcal/mol)

>  <smiles>  (22) 
CCN(CC)CCOCCN1CCN(CCN2C(=O)NC(c3ccccc3)(c3ccccc3)C2=O)CC1

>  <score_type>  (22) 
oracle

>  <origin>  (22) 
adg

>  <m_score__min__energy>  (22) 
-9.8900000000000006

>  <m_primary>  (22) 
energy

$$$$
22:0
     RDKit          3D

 43 45  0  0  0  0  0  0  0  0999 V2000
   62.9160   32.8710   47.1260 C   0  0  0  0  0  0  0  0  0  0  0  0
   61.7750   32.8190   48.1380 C   0  0  0  0  0  0  0  0  0  0  0  0
   61.4690   31.3920   48.6090 C   0  0  0  0  0  0  0  0  0  0  0  0
   61.5120   30.4490   47.4890 N   0  0  0  0  0  0  0  0  0  0  0  0
   60.3680   29.8730   46.8260 C   0  0  0  0  0  0  0  0  0  0  0  0
   59.9200   28.5480   47.0930 C   0  0  0  0  0  0  0  0  0  0  0  0
   58.7940   28.0220   46.4360 C   0  0  0  0  0  0  0  0  0  0  0  0
   58.1320   28.8320   45.5190 C   0  0  0  0  0  0  0  0  0  0  0  0
   57.0320   28.5240   44.8120 N   0  0  0  0  0  0  0  0  0  0  0  0
   56.7440   29.6230   44.0770 C   0  0  0  0  0  0  0  0  0  0  0  0
   55.5300   29.7320   43.2080 C   0  0  0  0  0  0  0  0  0  0  0  0
   57.6710   30.6390   44.3260 C   0  0  0  0  0  0  0  0  0  0  0  0
   57.6490   32.0460   43.7950 C   0  0  0  0  0  0  0  0  0  0  0  0
   58.1110   33.0150   44.8500 C   0  0  0  0  0  0  0  0  0  0  0  0
   59.1440   33.9250   44.5730 C   0  0  0  0  0  0  0  0  0  0  0  0
   59.5920   34.8060   45.5620 C   0  0  0  0  0  0  0  0  0  0  0  0
   59.0160   34.7820   46.8340 C   0  0  0  0  0  0  0  0  0  0  0  0
   57.9900   33.8780   47.1200 C   0  0  0  0  0  0  0  0  0  0  0  0
   57.5380   32.9950   46.1340 C   0  0  0  0  0  0  0  0  0  0  0  0
   58.5500   30.1090   45.2540 C   0  0  0  0  0  0  0  0  0  0  0  0
   59.6610   30.6630   45.8920 C   0  0  0  0  0  0  0  0  0  0  0  0
   63.8772   32.9148   47.6591 H   0  0  0  0  0  0  0  0  0  0  0  0
   62.8875   31.9706   46.4947 H   0  0  0  0  0  0  0  0  0  0  0  0
   62.8057   33.7651   46.4947 H   0  0  0  0  0  0  0  0  0  0  0  0
   62.0514   33.4268   49.0121 H   0  0  0  0  0  0  0  0  0  0  0  0
   60.8726   33.2071   47.6429 H   0  0  0  0  0  0  0  0  0  0  0  0
   62.2154   31.0932   49.3597 H   0  0  0  0  0  0  0  0  0  0  0  0
   60.4582   31.3752   49.0426 H   0  0  0  0  0  0  0  0  0  0  0  0
   62.4630   30.2010   47.1300 H   0  0  0  0  0  0  0  0  0  0  0  0
   60.4618   27.9282   47.8226 H   0  0  0  0  0  0  0  0  0  0  0  0
   58.4462   26.9988   46.6412 H   0  0  0  0  0  0  0  0  0  0  0  0
   56.4950   27.6280   44.8430 H   0  0  0  0  0  0  0  0  0  0  0  0
   54.6330   29.8125   43.8396 H   0  0  0  0  0  0  0  0  0  0  0  0
   55.6128   30.6263   42.5729 H   0  0  0  0  0  0  0  0  0  0  0  0
   55.4521   28.8372   42.5729 H   0  0  0  0  0  0  0  0  0  0  0  0
   58.3166   32.1144   42.9234 H   0  0  0  0  0  0  0  0  0  0  0  0
   56.6190   32.3006   43.5048 H   0  0  0  0  0  0  0  0  0  0  0  0
   59.6028   33.9448   43.5734 H   0  0  0  0  0  0  0  0  0  0  0  0
   60.3992   35.5189   45.3379 H   0  0  0  0  0  0  0  0  0  0  0  0
   59.3703   35.4752   47.6111 H   0  0  0  0  0  0  0  0  0  0  0  0
   57.5369   33.8606   48.1222 H   0  0  0  0  0  0  0  0  0  0  0  0
   56.7318   32.2827   46.3636 H   0  0  0  0  0  0  0  0  0  0  0  0
   59.9794   31.6927   45.6723 H   0  0  0  0  0  0  0  0  0  0  0  0
  1  2  1  0
  2  3  1  0
  3  4  1  0
  4  5  1  0
  5  6  2  0
  6  7  1  0
  7  8  2  0
  8  9  1  0
  9 10  1  0
 10 11  1  0
 10 12  2  0
 12 13  1  0
 13 14  1  0
 14 15  2  0
 15 16  1  0
 16 17  2  0
 17 18  1  0
 18 19  2  0
 12 20  1  0
 20 21  2  0
 21  5  1  0
 20  8  1  0
 19 14  1  0
  1 22  1  0
  1 23  1  0
  1 24  1  0
  2 25  1  0
  2 26  1  0
  3 27  1  0
  3 28  1  0
  4 29  1  0
  6 30  1  0
  7 31  1  0
  9 32  1  0
 11 33  1  0
 11 34  1  0
 11 35  1  0
 13 36  1  0
 13 37  1  0
 15 38  1  0
 16 39  1  0
 17 40  1  0
 18 41  1  0
 19 42  1  0
 21 43  1  0
M  END
>  <UniqueID>  (23) 
23

>  <SMILES>  (23) 
CCCNc1ccc2[nH]c(C)c(Cc3ccccc3)c2c1

>  <Energy>  (23) 
71.00260214344284

>  <Genealogy>  (23) 
CCCNc1ccc2[nH]c(C)c(Cc3ccccc3)c2c1 (3D coordinates assigned)
CCCNc1ccc2[nH]c(C)c(Cc3ccccc3)c2c1 (optimized conformer: 71.00260214344284 kcal/mol)

>  <smiles>  (23) 
CCCNc1ccc2[nH]c(C)c(Cc3ccccc3)c2c1

>  <score_type>  (23) 
oracle

>  <origin>  (23) 
adg

>  <m_score__min__energy>  (23) 
-7.5999999999999996

>  <m_primary>  (23) 
energy

$$$$
23:0
     RDKit          3D

 24 26  0  0  0  0  0  0  0  0999 V2000
   57.3820   31.9740   41.3490 C   0  0  0  0  0  0  0  0  0  0  0  0
   57.5320   31.9110   42.8080 N   0  0  0  0  0  0  0  0  0  0  0  0
   58.2900   32.8180   43.4400 N   0  0  0  0  0  0  0  0  0  0  0  0
   58.4450   32.7830   44.7880 C   0  0  0  0  0  0  0  0  0  0  0  0
   59.2130   33.7010   45.4330 N   0  0  0  0  0  0  0  0  0  0  0  0
   59.3620   33.6570   46.7850 C   0  0  0  0  0  0  0  0  0  0  0  0
   60.1530   34.6030   47.4460 C   0  0  0  0  0  0  0  0  0  0  0  0
   60.2950   34.5430   48.8360 C   0  0  0  0  0  0  0  0  0  0  0  0
   59.6470   33.5400   49.5680 C   0  0  0  0  0  0  0  0  0  0  0  0
   58.8550   32.5900   48.9130 C   0  0  0  0  0  0  0  0  0  0  0  0
   58.7090   32.6440   47.5230 C   0  0  0  0  0  0  0  0  0  0  0  0
   57.9420   31.7290   46.8710 N   0  0  0  0  0  0  0  0  0  0  0  0
   57.7980   31.7800   45.5200 C   0  0  0  0  0  0  0  0  0  0  0  0
   57.0350   30.8700   44.8720 N   0  0  0  0  0  0  0  0  0  0  0  0
   56.8960   30.9260   43.5220 C   0  0  0  0  0  0  0  0  0  0  0  0
   56.1800   30.0680   42.9400 O   0  0  0  0  0  0  0  0  0  0  0  0
   56.3942   32.3889   41.0995 H   0  0  0  0  0  0  0  0  0  0  0  0
   58.1675   32.6182   40.9271 H   0  0  0  0  0  0  0  0  0  0  0  0
   57.4719   30.9621   40.9271 H   0  0  0  0  0  0  0  0  0  0  0  0
   58.7760   33.5710   42.8990 H   0  0  0  0  0  0  0  0  0  0  0  0
   60.6622   35.3923   46.8736 H   0  0  0  0  0  0  0  0  0  0  0  0
   60.9176   35.2859   49.3561 H   0  0  0  0  0  0  0  0  0  0  0  0
   59.7609   33.4988   50.6613 H   0  0  0  0  0  0  0  0  0  0  0  0
   58.3484   31.8025   49.4902 H   0  0  0  0  0  0  0  0  0  0  0  0
  1  2  1  0
  2  3  1  0
  3  4  2  0
  4  5  1  0
  5  6  2  0
  6  7  1  0
  7  8  2  0
  8  9  1  0
  9 10  2  0
 10 11  1  0
 11 12  2  0
 12 13  1  0
 13 14  2  0
 14 15  1  0
 15 16  2  0
 15  2  1  0
 13  4  1  0
 11  6  1  0
  1 17  1  0
  1 18  1  0
  1 19  1  0
  3 20  1  0
  7 21  1  0
  8 22  1  0
  9 23  1  0
 10 24  1  0
M  CHG  1   3   1
M  END
>  <UniqueID>  (24) 
24

>  <SMILES>  (24) 
Cn1[nH+]c2nc3ccccc3nc2nc1=O

>  <Energy>  (24) 
34.78936626563113

>  <Genealogy>  (24) 
Cn1[nH+]c2nc3ccccc3nc2nc1=O (protonated)
Cn1[nH+]c2nc3ccccc3nc2nc1=O (3D coordinates assigned)
Cn1[nH+]c2nc3ccccc3nc2nc1=O (optimized conformer: 34.78936626563113 kcal/mol)

>  <smiles>  (24) 
Cn1nc2nc3ccccc3nc2nc1=O

>  <score_type>  (24) 
oracle

>  <origin>  (24) 
adg

>  <m_score__min__energy>  (24) 
-4.9100000000000001

>  <m_primary>  (24) 
energy

$$$$
24:0
     RDKit          3D

 33 35  0  0  0  0  0  0  0  0999 V2000
   57.1160   24.0410   43.8400 C   0  0  0  0  0  0  0  0  0  0  0  0
   57.4620   25.4680   43.5780 C   0  0  0  0  0  0  0  0  0  0  0  0
   57.7680   25.9710   42.3710 N   0  0  0  0  0  0  0  0  0  0  0  0
   58.0450   27.2530   42.5320 N   0  0  0  0  0  0  0  0  0  0  0  0
   57.9000   27.4890   43.8540 C   0  0  0  0  0  0  0  0  0  0  0  0
   58.1140   28.8000   44.4950 C   0  0  0  0  0  0  0  0  0  0  0  0
   59.3730   29.1610   44.9970 C   0  0  0  0  0  0  0  0  0  0  0  0
   59.5570   30.4040   45.6040 C   0  0  0  0  0  0  0  0  0  0  0  0
   58.4740   31.2960   45.7070 C   0  0  0  0  0  0  0  0  0  0  0  0
   58.6180   32.5910   46.3320 N   0  0  0  0  0  0  0  0  0  0  0  0
   58.5490   32.7400   47.7920 C   0  0  0  0  0  0  0  0  0  0  0  0
   59.3100   33.9920   48.2380 C   0  0  0  0  0  0  0  0  0  0  0  0
   58.8980   35.1240   47.4990 O   0  0  0  0  0  0  0  0  0  0  0  0
   59.2630   34.9610   46.1440 C   0  0  0  0  0  0  0  0  0  0  0  0
   58.4880   33.8020   45.5100 C   0  0  0  0  0  0  0  0  0  0  0  0
   57.2610   30.9180   45.2150 N   0  0  0  0  0  0  0  0  0  0  0  0
   57.0580   29.7130   44.6210 C   0  0  0  0  0  0  0  0  0  0  0  0
   57.5460   26.3970   44.4990 O   0  0  0  0  0  0  0  0  0  0  0  0
   57.0739   23.8672   44.9254 H   0  0  0  0  0  0  0  0  0  0  0  0
   56.1366   23.8133   43.3939 H   0  0  0  0  0  0  0  0  0  0  0  0
   57.8823   23.3900   43.3939 H   0  0  0  0  0  0  0  0  0  0  0  0
   57.7940   25.4630   41.4580 H   0  0  0  0  0  0  0  0  0  0  0  0
   60.2181   28.4620   44.9119 H   0  0  0  0  0  0  0  0  0  0  0  0
   60.5440   30.6850   46.0000 H   0  0  0  0  0  0  0  0  0  0  0  0
   57.4960   32.8278   48.0979 H   0  0  0  0  0  0  0  0  0  0  0  0
   59.0073   31.8576   48.2625 H   0  0  0  0  0  0  0  0  0  0  0  0
   59.1163   34.1695   49.3062 H   0  0  0  0  0  0  0  0  0  0  0  0
   60.3840   33.8307   48.0632 H   0  0  0  0  0  0  0  0  0  0  0  0
   59.0389   35.8879   45.5957 H   0  0  0  0  0  0  0  0  0  0  0  0
   60.3388   34.7373   46.0921 H   0  0  0  0  0  0  0  0  0  0  0  0
   57.4254   34.0755   45.4325 H   0  0  0  0  0  0  0  0  0  0  0  0
   58.8996   33.6013   44.5098 H   0  0  0  0  0  0  0  0  0  0  0  0
   56.0605   29.4528   44.2373 H   0  0  0  0  0  0  0  0  0  0  0  0
  1  2  1  0
  2  3  2  0
  3  4  1  0
  4  5  2  0
  5  6  1  0
  6  7  2  0
  7  8  1  0
  8  9  2  0
  9 10  1  0
 10 11  1  0
 11 12  1  0
 12 13  1  0
 13 14  1  0
 14 15  1  0
  9 16  1  0
 16 17  2  0
  5 18  1  0
 18  2  1  0
 17  6  1  0
 15 10  1  0
  1 19  1  0
  1 20  1  0
  1 21  1  0
  3 22  1  0
  7 23  1  0
  8 24  1  0
 11 25  1  0
 11 26  1  0
 12 27  1  0
 12 28  1  0
 14 29  1  0
 14 30  1  0
 15 31  1  0
 15 32  1  0
 17 33  1  0
M  CHG  1   3   1
M  END
>  <UniqueID>  (25) 
25

>  <SMILES>  (25) 
Cc1[nH+]nc(-c2ccc(N3CCOCC3)nc2)o1

>  <Energy>  (25) 
72.89453183925882

>  <Genealogy>  (25) 
Cc1[nH+]nc(-c2ccc(N3CCOCC3)nc2)o1 (protonated)
Cc1[nH+]nc(-c2ccc(N3CCOCC3)nc2)o1 (3D coordinates assigned)
Cc1[nH+]nc(-c2ccc(N3CCOCC3)nc2)o1 (nonaromatic ring conformer: 72.89453183925882 kcal/mol)

>  <smiles>  (25) 
Cc1nnc(-c2ccc(N3CCOCC3)nc2)o1

>  <score_type>  (25) 
oracle

>  <origin>  (25) 
adg

>  <m_score__min__energy>  (25) 
-5.0899999999999999

>  <m_primary>  (25) 
energy

$$$$
25:0
     RDKit          3D

 57 59  0  0  0  0  0  0  0  0999 V2000
   61.1880   31.0580   51.1400 C   0  0  0  0  0  0  0  0  0  0  0  0
   60.7000   32.2950   50.5110 N   0  0  0  0  0  0  0  0  0  0  0  0
   59.2660   32.4670   50.8010 C   0  0  0  0  0  0  0  0  0  0  0  0
   61.4780   33.4640   50.9810 C   0  0  0  0  0  0  0  0  0  0  0  0
   62.7400   33.6450   50.1320 C   0  0  0  0  0  0  0  0  0  0  0  0
   62.3860   34.2180   48.8280 N   0  0  0  0  0  0  0  0  0  0  0  0
   63.3420   33.8320   47.7790 C   0  0  0  0  0  0  0  0  0  0  0  0
   63.5170   32.3050   47.6790 C   0  0  0  0  0  0  0  0  0  0  0  0
   62.2830   31.5580   47.1370 C   0  0  0  0  0  0  0  0  0  0  0  0
   61.1140   31.6810   48.0310 N   0  0  0  0  0  0  0  0  0  0  0  0
   59.8720   31.4800   47.2960 C   0  0  0  0  0  0  0  0  0  0  0  0
   59.3260   30.1830   47.1470 C   0  0  0  0  0  0  0  0  0  0  0  0
   59.5870   29.1600   48.0840 C   0  0  0  0  0  0  0  0  0  0  0  0
   59.0400   27.8890   47.9250 C   0  0  0  0  0  0  0  0  0  0  0  0
   58.2070   27.6200   46.8450 C   0  0  0  0  0  0  0  0  0  0  0  0
   57.9290   28.6160   45.9090 C   0  0  0  0  0  0  0  0  0  0  0  0
   58.4990   29.9090   46.0280 C   0  0  0  0  0  0  0  0  0  0  0  0
   58.2750   30.8900   45.0840 N   0  0  0  0  0  0  0  0  0  0  0  0
   57.7560   30.5290   43.7460 C   0  0  0  0  0  0  0  0  0  0  0  0
   58.5230   32.2120   45.4030 C   0  0  0  0  0  0  0  0  0  0  0  0
   58.0310   33.2680   44.5970 C   0  0  0  0  0  0  0  0  0  0  0  0
   58.2560   34.5970   44.9410 C   0  0  0  0  0  0  0  0  0  0  0  0
   58.8880   34.9120   46.1350 C   0  0  0  0  0  0  0  0  0  0  0  0
   59.3380   33.9010   46.9900 C   0  0  0  0  0  0  0  0  0  0  0  0
   59.6780   34.2670   48.3350 N   0  0  0  0  0  0  0  0  0  0  0  0
   59.2620   32.5380   46.5760 C   0  0  0  0  0  0  0  0  0  0  0  0
   61.1469   31.1622   52.2343 H   0  0  0  0  0  0  0  0  0  0  0  0
   60.5555   30.2138   50.8280 H   0  0  0  0  0  0  0  0  0  0  0  0
   62.2265   30.8730   50.8280 H   0  0  0  0  0  0  0  0  0  0  0  0
   59.1118   32.4855   51.8900 H   0  0  0  0  0  0  0  0  0  0  0  0
   58.9147   33.4137   50.3648 H   0  0  0  0  0  0  0  0  0  0  0  0
   58.7007   31.6302   50.3648 H   0  0  0  0  0  0  0  0  0  0  0  0
   60.8562   34.3680   50.9025 H   0  0  0  0  0  0  0  0  0  0  0  0
   61.7740   33.2970   52.0272 H   0  0  0  0  0  0  0  0  0  0  0  0
   63.4351   34.3213   50.6511 H   0  0  0  0  0  0  0  0  0  0  0  0
   63.2181   32.6661   49.9800 H   0  0  0  0  0  0  0  0  0  0  0  0
   62.4230   35.2610   48.9150 H   0  0  0  0  0  0  0  0  0  0  0  0
   62.9779   34.2101   46.8123 H   0  0  0  0  0  0  0  0  0  0  0  0
   64.3189   34.2658   48.0386 H   0  0  0  0  0  0  0  0  0  0  0  0
   64.3655   32.0988   47.0100 H   0  0  0  0  0  0  0  0  0  0  0  0
   63.6808   31.9396   48.7035 H   0  0  0  0  0  0  0  0  0  0  0  0
   62.0212   31.9751   46.1534 H   0  0  0  0  0  0  0  0  0  0  0  0
   62.5407   30.4910   47.0661 H   0  0  0  0  0  0  0  0  0  0  0  0
   61.1730   32.6440   48.4240 H   0  0  0  0  0  0  0  0  0  0  0  0
   61.1670   31.0040   48.8230 H   0  0  0  0  0  0  0  0  0  0  0  0
   60.2308   29.3693   48.9510 H   0  0  0  0  0  0  0  0  0  0  0  0
   59.2672   27.0976   48.6544 H   0  0  0  0  0  0  0  0  0  0  0  0
   57.7660   26.6191   46.7283 H   0  0  0  0  0  0  0  0  0  0  0  0
   57.2577   28.3952   45.0660 H   0  0  0  0  0  0  0  0  0  0  0  0
   56.8576   29.9041   43.8575 H   0  0  0  0  0  0  0  0  0  0  0  0
   57.4994   31.4446   43.1929 H   0  0  0  0  0  0  0  0  0  0  0  0
   58.5252   29.9699   43.1929 H   0  0  0  0  0  0  0  0  0  0  0  0
   57.4623   33.0335   43.6851 H   0  0  0  0  0  0  0  0  0  0  0  0
   57.9316   35.4009   44.2638 H   0  0  0  0  0  0  0  0  0  0  0  0
   59.0365   35.9662   46.4117 H   0  0  0  0  0  0  0  0  0  0  0  0
   59.4600   35.2180   48.7070 H   0  0  0  0  0  0  0  0  0  0  0  0
   60.3020   33.6580   48.9110 H   0  0  0  0  0  0  0  0  0  0  0  0
  1  2  1  0
  2  3  1  0
  2  4  1  0
  4  5  1  0
  5  6  1  0
  6  7  1  0
  7  8  1  0
  8  9  1  0
  9 10  1  0
 10 11  1  0
 11 12  2  0
 12 13  1  0
 13 14  2  0
 14 15  1  0
 15 16  2  0
 16 17  1  0
 17 18  2  0
 18 19  1  0
 18 20  1  0
 20 21  2  0
 21 22  1  0
 22 23  2  0
 23 24  1  0
 24 25  1  0
 24 26  2  0
 26 11  1  0
 17 12  1  0
 26 20  1  0
  1 27  1  0
  1 28  1  0
  1 29  1  0
  3 30  1  0
  3 31  1  0
  3 32  1  0
  4 33  1  0
  4 34  1  0
  5 35  1  0
  5 36  1  0
  6 37  1  0
  7 38  1  0
  7 39  1  0
  8 40  1  0
  8 41  1  0
  9 42  1  0
  9 43  1  0
 10 44  1  0
 10 45  1  0
 13 46  1  0
 14 47  1  0
 15 48  1  0
 16 49  1  0
 19 50  1  0
 19 51  1  0
 19 52  1  0
 21 53  1  0
 22 54  1  0
 23 55  1  0
 25 56  1  0
 25 57  1  0
M  CHG  2  10   1  18   1
M  END
>  <UniqueID>  (26) 
26

>  <SMILES>  (26) 
CN(C)CCNCCC[NH2+]c1c2ccccc2[n+](C)c2cccc(N)c12

>  <Energy>  (26) 
92.97908726694952

>  <Genealogy>  (26) 
CN(C)CCNCCC[NH2+]c1c2ccccc2[n+](C)c2cccc(N)c12 (protonated)
CN(C)CCNCCC[NH2+]c1c2ccccc2[n+](C)c2cccc(N)c12 (3D coordinates assigned)
CN(C)CCNCCC[NH2+]c1c2ccccc2[n+](C)c2cccc(N)c12 (optimized conformer: 92.97908726694952 kcal/mol)

>  <smiles>  (26) 
CN(C)CCNCCCNc1c2ccccc2[n+](C)c2cccc(N)c12

>  <score_type>  (26) 
oracle

>  <origin>  (26) 
adg

>  <m_score__min__energy>  (26) 
-3.5800000000000001

>  <m_primary>  (26) 
energy

$$$$
26:0
     RDKit          3D

 45 47  0  0  0  0  0  0  0  0999 V2000
   58.5150   32.0100   50.0050 C   0  0  0  0  0  0  0  0  0  0  0  0
   59.0580   32.9680   51.0600 C   0  0  0  0  0  0  0  0  0  0  0  0
   59.9400   33.9220   50.4680 O   0  0  0  0  0  0  0  0  0  0  0  0
   61.3160   33.7380   50.2450 C   0  0  0  0  0  0  0  0  0  0  0  0
   62.2300   33.8450   51.2590 N   0  0  0  0  0  0  0  0  0  0  0  0
   63.5650   33.7130   51.0330 C   0  0  0  0  0  0  0  0  0  0  0  0
   64.0410   33.4660   49.7460 C   0  0  0  0  0  0  0  0  0  0  0  0
   63.1340   33.3400   48.6960 C   0  0  0  0  0  0  0  0  0  0  0  0
   61.7590   33.4510   48.9390 C   0  0  0  0  0  0  0  0  0  0  0  0
   60.8130   33.3190   47.8140 C   0  0  0  0  0  0  0  0  0  0  0  0
   60.1990   34.4000   47.2600 N   0  0  0  0  0  0  0  0  0  0  0  0
   59.4360   33.8480   46.3000 C   0  0  0  0  0  0  0  0  0  0  0  0
   58.5790   34.4870   45.4160 C   0  0  0  0  0  0  0  0  0  0  0  0
   57.8960   33.7190   44.5180 N   0  0  0  0  0  0  0  0  0  0  0  0
   58.0230   32.3510   44.4540 C   0  0  0  0  0  0  0  0  0  0  0  0
   57.2560   31.6150   43.4670 N   0  0  0  0  0  0  0  0  0  0  0  0
   57.4140   31.9620   42.0510 C   0  0  0  0  0  0  0  0  0  0  0  0
   56.3200   30.5390   43.8340 C   0  0  0  0  0  0  0  0  0  0  0  0
   56.2670   29.4780   42.7390 C   0  0  0  0  0  0  0  0  0  0  0  0
   58.9020   31.6990   45.3600 C   0  0  0  0  0  0  0  0  0  0  0  0
   59.5900   32.4990   46.2700 C   0  0  0  0  0  0  0  0  0  0  0  0
   60.4740   32.1420   47.2170 N   0  0  0  0  0  0  0  0  0  0  0  0
   60.9700   30.7950   47.4960 C   0  0  0  0  0  0  0  0  0  0  0  0
   58.0307   31.1555   50.5002 H   0  0  0  0  0  0  0  0  0  0  0  0
   57.7800   32.5346   49.3769 H   0  0  0  0  0  0  0  0  0  0  0  0
   59.3427   31.6489   49.3769 H   0  0  0  0  0  0  0  0  0  0  0  0
   58.2182   33.4976   51.5335 H   0  0  0  0  0  0  0  0  0  0  0  0
   59.6154   32.3888   51.8109 H   0  0  0  0  0  0  0  0  0  0  0  0
   61.9270   34.0350   52.2380 H   0  0  0  0  0  0  0  0  0  0  0  0
   64.2729   33.8016   51.8703 H   0  0  0  0  0  0  0  0  0  0  0  0
   65.1213   33.3716   49.5616 H   0  0  0  0  0  0  0  0  0  0  0  0
   63.4981   33.1531   47.6750 H   0  0  0  0  0  0  0  0  0  0  0  0
   58.4537   35.5796   45.4381 H   0  0  0  0  0  0  0  0  0  0  0  0
   57.8685   32.9602   41.9666 H   0  0  0  0  0  0  0  0  0  0  0  0
   58.0634   31.2209   41.5621 H   0  0  0  0  0  0  0  0  0  0  0  0
   56.4286   31.9653   41.5621 H   0  0  0  0  0  0  0  0  0  0  0  0
   56.6543   30.0734   44.7729 H   0  0  0  0  0  0  0  0  0  0  0  0
   55.3157   30.9697   43.9599 H   0  0  0  0  0  0  0  0  0  0  0  0
   56.2171   28.4796   43.1980 H   0  0  0  0  0  0  0  0  0  0  0  0
   55.3758   29.6395   42.1148 H   0  0  0  0  0  0  0  0  0  0  0  0
   57.1699   29.5499   42.1148 H   0  0  0  0  0  0  0  0  0  0  0  0
   59.0340   30.6071   45.3437 H   0  0  0  0  0  0  0  0  0  0  0  0
   61.0260   30.6429   48.5840 H   0  0  0  0  0  0  0  0  0  0  0  0
   60.2857   30.0540   47.0569 H   0  0  0  0  0  0  0  0  0  0  0  0
   61.9714   30.6747   47.0569 H   0  0  0  0  0  0  0  0  0  0  0  0
  1  2  1  0
  2  3  1  0
  3  4  1  0
  4  5  2  0
  5  6  1  0
  6  7  2  0
  7  8  1  0
  8  9  2  0
  9 10  1  0
 10 11  2  0
 11 12  1  0
 12 13  2  0
 13 14  1  0
 14 15  2  0
 15 16  1  0
 16 17  1  0
 16 18  1  0
 18 19  1  0
 15 20  1  0
 20 21  2  0
 21 22  1  0
 22 23  1  0
  9  4  1  0
 22 10  1  0
 21 12  1  0
  1 24  1  0
  1 25  1  0
  1 26  1  0
  2 27  1  0
  2 28  1  0
  5 29  1  0
  6 30  1  0
  7 31  1  0
  8 32  1  0
 13 33  1  0
 17 34  1  0
 17 35  1  0
 17 36  1  0
 18 37  1  0
 18 38  1  0
 19 39  1  0
 19 40  1  0
 19 41  1  0
 20 42  1  0
 23 43  1  0
 23 44  1  0
 23 45  1  0
M  CHG  1   5   1
M  END
>  <UniqueID>  (27) 
27

>  <SMILES>  (27) 
CCOc1[nH+]cccc1-c1nc2cnc(N(C)CC)cc2n1C

>  <Energy>  (27) 
86.39607841573671

>  <Genealogy>  (27) 
CCOc1[nH+]cccc1-c1nc2cnc(N(C)CC)cc2n1C (protonated)
CCOc1[nH+]cccc1-c1nc2cnc(N(C)CC)cc2n1C (3D coordinates assigned)
CCOc1[nH+]cccc1-c1nc2cnc(N(C)CC)cc2n1C (optimized conformer: 86.39607841573671 kcal/mol)

>  <smiles>  (27) 
CCOc1ncccc1-c1nc2cnc(N(C)CC)cc2n1C

>  <score_type>  (27) 
oracle

>  <origin>  (27) 
adg

>  <m_score__min__energy>  (27) 
-4.9800000000000004

>  <m_primary>  (27) 
energy

$$$$
