0:0
     RDKit          3D

 47 49  0  0  0  0  0  0  0  0999 V2000
   61.2090   32.6750   49.1320 C   0  0  0  0  0  0  0  0  0  0  0  0
   60.6140   33.9480   49.7270 C   0  0  0  0  0  0  0  0  0  0  0  0
   59.2850   34.1110   49.2580 O   0  0  0  0  0  0  0  0  0  0  0  0
   59.0970   33.9260   47.8930 C   0  0  0  0  0  0  0  0  0  0  0  0
   59.7000   34.7980   46.9820 C   0  0  0  0  0  0  0  0  0  0  0  0
   59.5420   34.6520   45.6180 C   0  0  0  0  0  0  0  0  0  0  0  0
   58.7510   33.5980   45.1490 C   0  0  0  0  0  0  0  0  0  0  0  0
   58.4540   33.2600   43.8700 N   0  0  0  0  0  0  0  0  0  0  0  0
   57.6510   32.1590   43.9490 C   0  0  0  0  0  0  0  0  0  0  0  0
   57.0150   31.3620   42.4830 S   0  0  0  0  0  0  0  0  0  0  0  0
   56.3190   29.7540   42.8670 C   0  0  0  0  0  0  0  0  0  0  0  0
   57.0430   28.9940   43.8900 C   0  0  0  0  0  0  0  0  0  0  0  0
   57.7990   28.0550   43.4960 O   0  0  0  0  0  0  0  0  0  0  0  0
   56.9400   29.2520   45.2770 N   0  0  0  0  0  0  0  0  0  0  0  0
   57.7180   28.4120   46.1500 C   0  0  0  0  0  0  0  0  0  0  0  0
   58.9540   28.8480   46.6220 C   0  0  0  0  0  0  0  0  0  0  0  0
   59.7310   28.0670   47.4630 C   0  0  0  0  0  0  0  0  0  0  0  0
   59.2250   26.8130   47.8200 C   0  0  0  0  0  0  0  0  0  0  0  0
   57.9960   26.3810   47.3490 C   0  0  0  0  0  0  0  0  0  0  0  0
   57.2290   27.1530   46.5200 C   0  0  0  0  0  0  0  0  0  0  0  0
   56.0010   26.8060   46.0070 O   0  0  0  0  0  0  0  0  0  0  0  0
   55.7240   25.4700   45.6790 C   0  0  0  0  0  0  0  0  0  0  0  0
   56.6760   24.8400   44.7190 C   0  0  0  0  0  0  0  0  0  0  0  0
   57.4700   31.8460   45.2410 N   0  0  0  0  0  0  0  0  0  0  0  0
   58.1410   32.7220   46.0260 C   0  0  0  0  0  0  0  0  0  0  0  0
   58.3240   32.9000   47.3750 C   0  0  0  0  0  0  0  0  0  0  0  0
   61.5232   32.0028   49.9440 H   0  0  0  0  0  0  0  0  0  0  0  0
   60.4527   32.1720   48.5115 H   0  0  0  0  0  0  0  0  0  0  0  0
   62.0800   32.9326   48.5115 H   0  0  0  0  0  0  0  0  0  0  0  0
   60.6092   33.8728   50.8244 H   0  0  0  0  0  0  0  0  0  0  0  0
   61.2199   34.8140   49.4223 H   0  0  0  0  0  0  0  0  0  0  0  0
   60.3182   35.6244   47.3627 H   0  0  0  0  0  0  0  0  0  0  0  0
   60.0265   35.3478   44.9172 H   0  0  0  0  0  0  0  0  0  0  0  0
   58.7860   33.7570   43.0320 H   0  0  0  0  0  0  0  0  0  0  0  0
   55.2877   29.9038   43.2192 H   0  0  0  0  0  0  0  0  0  0  0  0
   56.3829   29.1624   41.9418 H   0  0  0  0  0  0  0  0  0  0  0  0
   56.3280   30.0160   45.6350 H   0  0  0  0  0  0  0  0  0  0  0  0
   59.3233   29.8389   46.3191 H   0  0  0  0  0  0  0  0  0  0  0  0
   60.7049   28.4187   47.8342 H   0  0  0  0  0  0  0  0  0  0  0  0
   59.8111   26.1607   48.4840 H   0  0  0  0  0  0  0  0  0  0  0  0
   57.6265   25.3896   47.6499 H   0  0  0  0  0  0  0  0  0  0  0  0
   55.7389   24.8816   46.6083 H   0  0  0  0  0  0  0  0  0  0  0  0
   54.7450   25.4760   45.1776 H   0  0  0  0  0  0  0  0  0  0  0  0
   57.4667   24.3168   45.2768 H   0  0  0  0  0  0  0  0  0  0  0  0
   56.1360   24.1203   44.0861 H   0  0  0  0  0  0  0  0  0  0  0  0
   57.1274   25.6183   44.0861 H   0  0  0  0  0  0  0  0  0  0  0  0
   57.8380   32.2008   48.0713 H   0  0  0  0  0  0  0  0  0  0  0  0
  1  2  1  0
  2  3  1  0
  3  4  1  0
  4  5  2  0
  5  6  1  0
  6  7  2  0
  7  8  1  0
  8  9  1  0
  9 10  1  0
 10 11  1  0
 11 12  1  0
 12 13  2  0
 12 14  1  0
 14 15  1  0
 15 16  2  0
 16 17  1  0
 17 18  2  0
 18 19  1  0
 19 20  2  0
 20 21  1  0
 21 22  1  0
 22 23  1  0
  9 24  2  0
 24 25  1  0
 25 26  2  0
 26  4  1  0
 25  7  1  0
 20 15  1  0
  1 27  1  0
  1 28  1  0
  1 29  1  0
  2 30  1  0
  2 31  1  0
  5 32  1  0
  6 33  1  0
  8 34  1  0
 11 35  1  0
 11 36  1  0
 14 37  1  0
 16 38  1  0
 17 39  1  0
 18 40  1  0
 19 41  1  0
 22 42  1  0
 22 43  1  0
 23 44  1  0
 23 45  1  0
 23 46  1  0
 26 47  1  0
M  END
>  <smiles>  (1) 
CCOc1ccc2[nH]c(SCC(=O)Nc3ccccc3OCC)nc2c1

>  <score_type>  (1) 
oracle

>  <origin>  (1) 
adg

>  <m_score__min__energy>  (1) 
-7.3700000000000001

>  <m_primary>  (1) 
energy

$$$$
1:0
     RDKit          3D

 40 42  0  0  0  0  0  0  0  0999 V2000
   56.8240   23.0960   44.7370 C   0  0  0  0  0  0  0  0  0  0  0  0
   56.8230   24.5850   44.9140 C   0  0  0  0  0  0  0  0  0  0  0  0
   55.9320   25.1910   45.8130 C   0  0  0  0  0  0  0  0  0  0  0  0
   55.9550   26.5750   46.0040 C   0  0  0  0  0  0  0  0  0  0  0  0
   56.8870   27.3720   45.3230 C   0  0  0  0  0  0  0  0  0  0  0  0
   56.8730   28.7960   45.5210 N   0  0  0  0  0  0  0  0  0  0  0  0
   56.5510   29.7510   44.5010 C   0  0  0  0  0  0  0  0  0  0  0  0
   56.4210   29.3880   43.3010 O   0  0  0  0  0  0  0  0  0  0  0  0
   56.3690   31.1240   44.8690 N   0  0  0  0  0  0  0  0  0  0  0  0
   57.3910   32.0780   45.1990 C   0  0  0  0  0  0  0  0  0  0  0  0
   57.1740   33.4620   45.0870 C   0  0  0  0  0  0  0  0  0  0  0  0
   58.1760   34.3590   45.4560 C   0  0  0  0  0  0  0  0  0  0  0  0
   59.3930   33.8700   45.9280 C   0  0  0  0  0  0  0  0  0  0  0  0
   59.6040   32.5290   46.0020 N   0  0  0  0  0  0  0  0  0  0  0  0
   58.6560   31.6260   45.6310 C   0  0  0  0  0  0  0  0  0  0  0  0
   58.9560   30.2610   45.7370 O   0  0  0  0  0  0  0  0  0  0  0  0
   59.3630   29.6160   46.9150 C   0  0  0  0  0  0  0  0  0  0  0  0
   59.2250   30.2910   48.1350 C   0  0  0  0  0  0  0  0  0  0  0  0
   59.6220   29.6820   49.3290 C   0  0  0  0  0  0  0  0  0  0  0  0
   60.1680   28.3950   49.3110 C   0  0  0  0  0  0  0  0  0  0  0  0
   60.3270   27.7200   48.0970 C   0  0  0  0  0  0  0  0  0  0  0  0
   59.9320   28.3270   46.9010 C   0  0  0  0  0  0  0  0  0  0  0  0
   57.7760   26.7650   44.4190 C   0  0  0  0  0  0  0  0  0  0  0  0
   57.7520   25.3800   44.2260 C   0  0  0  0  0  0  0  0  0  0  0  0
   56.8243   22.6095   45.7236 H   0  0  0  0  0  0  0  0  0  0  0  0
   55.9261   22.7925   44.1788 H   0  0  0  0  0  0  0  0  0  0  0  0
   57.7223   22.7937   44.1788 H   0  0  0  0  0  0  0  0  0  0  0  0
   55.2120   24.5735   46.3700 H   0  0  0  0  0  0  0  0  0  0  0  0
   55.2369   27.0430   46.6935 H   0  0  0  0  0  0  0  0  0  0  0  0
   57.2040   29.1710   46.4390 H   0  0  0  0  0  0  0  0  0  0  0  0
   56.2124   33.8383   44.7077 H   0  0  0  0  0  0  0  0  0  0  0  0
   58.0074   35.4430   45.3753 H   0  0  0  0  0  0  0  0  0  0  0  0
   60.1826   34.5691   46.2406 H   0  0  0  0  0  0  0  0  0  0  0  0
   58.8018   31.3062   48.1534 H   0  0  0  0  0  0  0  0  0  0  0  0
   59.5047   30.2158   50.2836 H   0  0  0  0  0  0  0  0  0  0  0  0
   60.4725   27.9135   50.2520 H   0  0  0  0  0  0  0  0  0  0  0  0
   60.7633   26.7103   48.0828 H   0  0  0  0  0  0  0  0  0  0  0  0
   60.0658   27.7968   45.9465 H   0  0  0  0  0  0  0  0  0  0  0  0
   58.4945   27.3827   43.8603 H   0  0  0  0  0  0  0  0  0  0  0  0
   58.4649   24.9117   43.5314 H   0  0  0  0  0  0  0  0  0  0  0  0
  1  2  1  0
  2  3  2  0
  3  4  1  0
  4  5  2  0
  5  6  1  0
  6  7  1  0
  7  8  2  0
  7  9  1  0
  9 10  1  0
 10 11  2  0
 11 12  1  0
 12 13  2  0
 13 14  1  0
 14 15  2  0
 15 16  1  0
 16 17  1  0
 17 18  2  0
 18 19  1  0
 19 20  2  0
 20 21  1  0
 21 22  2  0
  5 23  1  0
 23 24  2  0
 24  2  1  0
 15 10  1  0
 22 17  1  0
  1 25  1  0
  1 26  1  0
  1 27  1  0
  3 28  1  0
  4 29  1  0
  6 30  1  0
 11 31  1  0
 12 32  1  0
 13 33  1  0
 18 34  1  0
 19 35  1  0
 20 36  1  0
 21 37  1  0
 22 38  1  0
 23 39  1  0
 24 40  1  0
M  CHG  1   9  -1
M  END
>  <UniqueID>  (2) 
1

>  <SMILES>  (2) 
Cc1ccc(NC(=O)[N-]c2cccnc2Oc2ccccc2)cc1

>  <Energy>  (2) 
57.16785167321125

>  <Genealogy>  (2) 
Cc1ccc(NC(=O)[N-]c2cccnc2Oc2ccccc2)cc1 (protonated)
Cc1ccc(NC(=O)[N-]c2cccnc2Oc2ccccc2)cc1 (3D coordinates assigned)
Cc1ccc(NC(=O)[N-]c2cccnc2Oc2ccccc2)cc1 (optimized conformer: 57.16785167321125 kcal/mol)

>  <smiles>  (2) 
Cc1ccc(NC(=O)Nc2cccnc2Oc2ccccc2)cc1

>  <score_type>  (2) 
oracle

>  <origin>  (2) 
adg

>  <m_score__min__energy>  (2) 
-8.9199999999999999

>  <m_primary>  (2) 
energy

$$$$
2:0
     RDKit          3D

 52 54  0  0  0  0  0  0  0  0999 V2000
   59.7730   27.9980   47.6400 C   0  0  0  0  0  0  0  0  0  0  0  0
   58.5450   28.9010   47.5280 C   0  0  0  0  0  0  0  0  0  0  0  0
   58.9250   30.3250   47.3390 N   0  0  0  0  0  0  0  0  0  0  0  0
   60.0970   30.6960   48.1710 C   0  0  0  0  0  0  0  0  0  0  0  0
   59.7190   31.6930   49.2320 C   0  0  0  0  0  0  0  0  0  0  0  0
   59.8690   33.0740   49.2070 C   0  0  0  0  0  0  0  0  0  0  0  0
   60.4620   33.8880   48.0910 C   0  0  0  0  0  0  0  0  0  0  0  0
   59.5080   34.0050   46.9320 C   0  0  0  0  0  0  0  0  0  0  0  0
   59.9920   34.2620   45.6380 C   0  0  0  0  0  0  0  0  0  0  0  0
   59.1080   34.3230   44.5550 C   0  0  0  0  0  0  0  0  0  0  0  0
   57.7390   34.1230   44.7560 C   0  0  0  0  0  0  0  0  0  0  0  0
   57.2520   33.8570   46.0400 C   0  0  0  0  0  0  0  0  0  0  0  0
   58.1320   33.7930   47.1250 C   0  0  0  0  0  0  0  0  0  0  0  0
   59.3120   33.6060   50.3160 N   0  0  0  0  0  0  0  0  0  0  0  0
   58.8400   32.6090   51.0470 N   0  0  0  0  0  0  0  0  0  0  0  0
   58.1340   32.7930   52.3080 C   0  0  0  0  0  0  0  0  0  0  0  0
   59.0570   31.4380   50.4180 C   0  0  0  0  0  0  0  0  0  0  0  0
   58.5200   29.8710   51.0010 Cl  0  0  0  0  0  0  0  0  0  0  0  0
   59.2120   30.5890   45.9110 C   0  0  0  0  0  0  0  0  0  0  0  0
   58.0010   30.3080   45.0680 C   0  0  0  0  0  0  0  0  0  0  0  0
   56.9610   31.1640   44.9730 N   0  0  0  0  0  0  0  0  0  0  0  0
   56.0970   30.5460   44.1410 C   0  0  0  0  0  0  0  0  0  0  0  0
   56.6200   29.3350   43.7470 C   0  0  0  0  0  0  0  0  0  0  0  0
   57.8150   29.1830   44.3410 N   0  0  0  0  0  0  0  0  0  0  0  0
   58.7350   28.0610   44.1500 C   0  0  0  0  0  0  0  0  0  0  0  0
   58.1570   27.0620   43.1560 C   0  0  0  0  0  0  0  0  0  0  0  0
   60.0064   27.8264   48.7012 H   0  0  0  0  0  0  0  0  0  0  0  0
   59.5661   27.0353   47.1497 H   0  0  0  0  0  0  0  0  0  0  0  0
   60.6303   28.4824   47.1497 H   0  0  0  0  0  0  0  0  0  0  0  0
   57.9409   28.5761   46.6680 H   0  0  0  0  0  0  0  0  0  0  0  0
   57.9735   28.8201   48.4644 H   0  0  0  0  0  0  0  0  0  0  0  0
   60.4943   29.7913   48.6544 H   0  0  0  0  0  0  0  0  0  0  0  0
   60.8557   31.1532   47.5188 H   0  0  0  0  0  0  0  0  0  0  0  0
   60.6945   34.8954   48.4667 H   0  0  0  0  0  0  0  0  0  0  0  0
   61.3742   33.3832   47.7401 H   0  0  0  0  0  0  0  0  0  0  0  0
   61.0691   34.4157   45.4759 H   0  0  0  0  0  0  0  0  0  0  0  0
   59.4906   34.5285   43.5444 H   0  0  0  0  0  0  0  0  0  0  0  0
   57.0448   34.1748   43.9043 H   0  0  0  0  0  0  0  0  0  0  0  0
   56.1749   33.6979   46.1966 H   0  0  0  0  0  0  0  0  0  0  0  0
   57.7463   33.5762   48.1321 H   0  0  0  0  0  0  0  0  0  0  0  0
   58.8250   32.6129   53.1447 H   0  0  0  0  0  0  0  0  0  0  0  0
   57.7485   33.8216   52.3657 H   0  0  0  0  0  0  0  0  0  0  0  0
   57.2955   32.0834   52.3657 H   0  0  0  0  0  0  0  0  0  0  0  0
   59.5006   31.6434   45.7891 H   0  0  0  0  0  0  0  0  0  0  0  0
   60.0310   29.9305   45.5861 H   0  0  0  0  0  0  0  0  0  0  0  0
   55.1231   30.9485   43.8256 H   0  0  0  0  0  0  0  0  0  0  0  0
   56.1423   28.6168   43.0644 H   0  0  0  0  0  0  0  0  0  0  0  0
   59.6938   28.4400   43.7666 H   0  0  0  0  0  0  0  0  0  0  0  0
   58.8863   27.5560   45.1155 H   0  0  0  0  0  0  0  0  0  0  0  0
   57.6789   26.2357   43.7025 H   0  0  0  0  0  0  0  0  0  0  0  0
   57.4099   27.5642   42.5238 H   0  0  0  0  0  0  0  0  0  0  0  0
   58.9647   26.6646   42.5238 H   0  0  0  0  0  0  0  0  0  0  0  0
  1  2  1  0
  2  3  1  0
  3  4  1  0
  4  5  1  0
  5  6  1  0
  6  7  1  0
  7  8  1  0
  8  9  2  0
  9 10  1  0
 10 11  2  0
 11 12  1  0
 12 13  2  0
  6 14  2  0
 14 15  1  0
 15 16  1  0
 15 17  1  0
 17 18  1  0
  3 19  1  0
 19 20  1  0
 20 21  2  0
 21 22  1  0
 22 23  2  0
 23 24  1  0
 24 25  1  0
 25 26  1  0
 17  5  2  0
 24 20  1  0
 13  8  1  0
  1 27  1  0
  1 28  1  0
  1 29  1  0
  2 30  1  0
  2 31  1  0
  4 32  1  0
  4 33  1  0
  7 34  1  0
  7 35  1  0
  9 36  1  0
 10 37  1  0
 11 38  1  0
 12 39  1  0
 13 40  1  0
 16 41  1  0
 16 42  1  0
 16 43  1  0
 19 44  1  0
 19 45  1  0
 22 46  1  0
 23 47  1  0
 25 48  1  0
 25 49  1  0
 26 50  1  0
 26 51  1  0
 26 52  1  0
M  END
>  <UniqueID>  (3) 
2

>  <SMILES>  (3) 
CCN(Cc1c(Cc2ccccc2)nn(C)c1Cl)Cc1nccn1CC

>  <Energy>  (3) 
106.3232876631734

>  <Genealogy>  (3) 
CCN(Cc1c(Cc2ccccc2)nn(C)c1Cl)Cc1nccn1CC (3D coordinates assigned)
CCN(Cc1c(Cc2ccccc2)nn(C)c1Cl)Cc1nccn1CC (optimized conformer: 106.3232876631734 kcal/mol)

>  <smiles>  (3) 
CCN(Cc1c(Cc2ccccc2)nn(C)c1Cl)Cc1nccn1CC

>  <score_type>  (3) 
oracle

>  <origin>  (3) 
adg

>  <m_score__min__energy>  (3) 
-7.7699999999999996

>  <m_primary>  (3) 
energy

$$$$
3:0
     RDKit          3D

 25 26  0  0  0  0  0  0  0  0999 V2000
   58.4310   33.5580   45.0330 C   0  0  0  0  0  0  0  0  0  0  0  0
   57.7800   32.5200   44.1830 C   0  0  0  0  0  0  0  0  0  0  0  0
   56.9500   31.5700   44.6440 N   0  0  0  0  0  0  0  0  0  0  0  0
   56.6140   30.9070   43.5220 C   0  0  0  0  0  0  0  0  0  0  0  0
   55.7410   29.6960   43.4940 C   0  0  0  0  0  0  0  0  0  0  0  0
   55.6120   29.1690   44.8490 N   0  0  0  0  0  0  0  0  0  0  0  0
   57.1700   28.6840   45.4420 S   0  0  0  0  0  0  0  0  0  0  0  0
   58.1460   28.6460   44.3020 O   0  0  0  0  0  0  0  0  0  0  0  0
   57.6560   29.6760   46.4630 O   0  0  0  0  0  0  0  0  0  0  0  0
   57.0750   27.0890   46.1670 C   0  0  0  0  0  0  0  0  0  0  0  0
   58.0670   26.4910   46.9280 C   0  0  0  0  0  0  0  0  0  0  0  0
   57.7240   25.2020   47.3520 C   0  0  0  0  0  0  0  0  0  0  0  0
   56.4680   24.7880   46.9220 C   0  0  0  0  0  0  0  0  0  0  0  0
   55.7840   26.0270   46.0110 S   0  0  0  0  0  0  0  0  0  0  0  0
   57.2220   31.4230   42.4350 N   0  0  0  0  0  0  0  0  0  0  0  0
   57.9260   32.4220   42.8820 O   0  0  0  0  0  0  0  0  0  0  0  0
   58.2770   33.3124   46.0941 H   0  0  0  0  0  0  0  0  0  0  0  0
   59.5090   33.5864   44.8159 H   0  0  0  0  0  0  0  0  0  0  0  0
   57.9872   34.5408   44.8159 H   0  0  0  0  0  0  0  0  0  0  0  0
   56.6480   31.3870   45.6260 H   0  0  0  0  0  0  0  0  0  0  0  0
   54.7473   29.9671   43.1080 H   0  0  0  0  0  0  0  0  0  0  0  0
   56.1874   28.9323   42.8402 H   0  0  0  0  0  0  0  0  0  0  0  0
   59.0226   26.9778   47.1728 H   0  0  0  0  0  0  0  0  0  0  0  0
   58.3859   24.5752   47.9676 H   0  0  0  0  0  0  0  0  0  0  0  0
   56.0010   23.8162   47.1401 H   0  0  0  0  0  0  0  0  0  0  0  0
  1  2  1  0
  2  3  2  0
  3  4  1  0
  4  5  1  0
  5  6  1  0
  6  7  1  0
  7  8  2  0
  7  9  2  0
  7 10  1  0
 10 11  2  0
 11 12  1  0
 12 13  2  0
 13 14  1  0
  4 15  2  0
 15 16  1  0
 16  2  1  0
 14 10  1  0
  1 17  1  0
  1 18  1  0
  1 19  1  0
  3 20  1  0
  5 21  1  0
  5 22  1  0
 11 23  1  0
 12 24  1  0
 13 25  1  0
M  CHG  2   3   1   6  -1
M  END
>  <UniqueID>  (4) 
3

>  <SMILES>  (4) 
Cc1[nH+]c(C[N-]S(=O)(=O)c2cccs2)no1

>  <Energy>  (4) 
81.20161269922754

>  <Genealogy>  (4) 
Cc1[nH+]c(C[N-]S(=O)(=O)c2cccs2)no1 (protonated)
Cc1[nH+]c(C[N-]S(=O)(=O)c2cccs2)no1 (3D coordinates assigned)
Cc1[nH+]c(C[N-]S(=O)(=O)c2cccs2)no1 (optimized conformer: 81.20161269922754 kcal/mol)

>  <smiles>  (4) 
Cc1nc(CNS(=O)(=O)c2cccs2)no1

>  <score_type>  (4) 
oracle

>  <origin>  (4) 
adg

>  <m_score__min__energy>  (4) 
-6.6500000000000004

>  <m_primary>  (4) 
energy

$$$$
4:0
     RDKit          3D

 40 42  0  0  0  0  0  0  0  0999 V2000
   57.0770   33.8130   45.6170 C   0  0  0  0  0  0  0  0  0  0  0  0
   57.5310   32.5840   46.4010 C   0  0  0  0  0  0  0  0  0  0  0  0
   57.6550   31.4240   45.5120 N   0  0  0  0  0  0  0  0  0  0  0  0
   56.8090   31.2760   44.4970 N   0  0  0  0  0  0  0  0  0  0  0  0
   57.0530   30.1010   43.8880 C   0  0  0  0  0  0  0  0  0  0  0  0
   56.2700   29.5730   42.7320 C   0  0  0  0  0  0  0  0  0  0  0  0
   58.0690   29.4660   44.5580 C   0  0  0  0  0  0  0  0  0  0  0  0
   58.6410   28.2160   44.3470 C   0  0  0  0  0  0  0  0  0  0  0  0
   59.6540   27.8080   45.2170 C   0  0  0  0  0  0  0  0  0  0  0  0
   60.0830   28.6530   46.2560 C   0  0  0  0  0  0  0  0  0  0  0  0
   59.5160   29.9380   46.4510 C   0  0  0  0  0  0  0  0  0  0  0  0
   60.1380   30.8150   47.5170 C   0  0  0  0  0  0  0  0  0  0  0  0
   61.6140   30.7600   47.5080 N   0  0  0  0  0  0  0  0  0  0  0  0
   62.2540   32.0880   47.5720 C   0  0  0  0  0  0  0  0  0  0  0  0
   61.2800   33.2150   47.3640 C   0  0  0  0  0  0  0  0  0  0  0  0
   60.9960   33.8540   46.1610 C   0  0  0  0  0  0  0  0  0  0  0  0
   60.0150   34.8450   46.2810 C   0  0  0  0  0  0  0  0  0  0  0  0
   59.5060   34.9740   47.5660 C   0  0  0  0  0  0  0  0  0  0  0  0
   60.2780   33.8540   48.5540 S   0  0  0  0  0  0  0  0  0  0  0  0
   58.4540   30.3140   45.5760 C   0  0  0  0  0  0  0  0  0  0  0  0
   56.7834   34.6077   46.3187 H   0  0  0  0  0  0  0  0  0  0  0  0
   57.9027   34.1696   44.9838 H   0  0  0  0  0  0  0  0  0  0  0  0
   56.2177   33.5472   44.9838 H   0  0  0  0  0  0  0  0  0  0  0  0
   58.5069   32.7906   46.8646 H   0  0  0  0  0  0  0  0  0  0  0  0
   56.7828   32.3600   47.1756 H   0  0  0  0  0  0  0  0  0  0  0  0
   55.4118   28.9943   43.1042 H   0  0  0  0  0  0  0  0  0  0  0  0
   55.9085   30.4125   42.1200 H   0  0  0  0  0  0  0  0  0  0  0  0
   56.9128   28.9232   42.1200 H   0  0  0  0  0  0  0  0  0  0  0  0
   58.3064   27.5701   43.5219 H   0  0  0  0  0  0  0  0  0  0  0  0
   60.1193   26.8195   45.0889 H   0  0  0  0  0  0  0  0  0  0  0  0
   60.8778   28.3087   46.9340 H   0  0  0  0  0  0  0  0  0  0  0  0
   59.8232   31.8549   47.3455 H   0  0  0  0  0  0  0  0  0  0  0  0
   59.7968   30.4437   48.4946 H   0  0  0  0  0  0  0  0  0  0  0  0
   61.9780   30.1570   48.2780 H   0  0  0  0  0  0  0  0  0  0  0  0
   61.9070   30.3140   46.6080 H   0  0  0  0  0  0  0  0  0  0  0  0
   62.7216   32.2055   48.5607 H   0  0  0  0  0  0  0  0  0  0  0  0
   62.9959   32.1375   46.7613 H   0  0  0  0  0  0  0  0  0  0  0  0
   61.4924   33.6053   45.2114 H   0  0  0  0  0  0  0  0  0  0  0  0
   59.6788   35.4638   45.4360 H   0  0  0  0  0  0  0  0  0  0  0  0
   58.7306   35.6867   47.8834 H   0  0  0  0  0  0  0  0  0  0  0  0
  1  2  1  0
  2  3  1  0
  3  4  1  0
  4  5  2  0
  5  6  1  0
  5  7  1  0
  7  8  2  0
  8  9  1  0
  9 10  2  0
 10 11  1  0
 11 12  1  0
 12 13  1  0
 13 14  1  0
 14 15  1  0
 15 16  2  0
 16 17  1  0
 17 18  2  0
 18 19  1  0
 11 20  2  0
 20  3  1  0
 20  7  1  0
 19 15  1  0
  1 21  1  0
  1 22  1  0
  1 23  1  0
  2 24  1  0
  2 25  1  0
  6 26  1  0
  6 27  1  0
  6 28  1  0
  8 29  1  0
  9 30  1  0
 10 31  1  0
 12 32  1  0
 12 33  1  0
 13 34  1  0
 13 35  1  0
 14 36  1  0
 14 37  1  0
 16 38  1  0
 17 39  1  0
 18 40  1  0
M  CHG  1  13   1
M  END
>  <UniqueID>  (5) 
4

>  <SMILES>  (5) 
CCn1nc(C)c2cccc(C[NH2+]Cc3cccs3)c21

>  <Energy>  (5) 
109.00914866459205

>  <Genealogy>  (5) 
CCn1nc(C)c2cccc(C[NH2+]Cc3cccs3)c21 (protonated)
CCn1nc(C)c2cccc(C[NH2+]Cc3cccs3)c21 (3D coordinates assigned)
CCn1nc(C)c2cccc(C[NH2+]Cc3cccs3)c21 (optimized conformer: 109.00914866459205 kcal/mol)

>  <smiles>  (5) 
CCn1nc(C)c2cccc(CNCc3cccs3)c21

>  <score_type>  (5) 
oracle

>  <origin>  (5) 
adg

>  <m_score__min__energy>  (5) 
-5.5

>  <m_primary>  (5) 
energy

$$$$
5:0
     RDKit          3D

 46 48  0  0  0  0  0  0  0  0999 V2000
   59.6290   34.9760   46.1450 C   0  0  0  0  0  0  0  0  0  0  0  0
   58.8090   33.7820   45.7310 C   0  0  0  0  0  0  0  0  0  0  0  0
   58.1520   33.8100   44.4900 C   0  0  0  0  0  0  0  0  0  0  0  0
   57.3960   32.7210   44.0580 C   0  0  0  0  0  0  0  0  0  0  0  0
   57.2810   31.5740   44.8560 C   0  0  0  0  0  0  0  0  0  0  0  0
   56.4630   30.4260   44.3930 C   0  0  0  0  0  0  0  0  0  0  0  0
   56.0580   30.3970   43.2000 O   0  0  0  0  0  0  0  0  0  0  0  0
   56.1530   29.3180   45.2490 N   0  0  0  0  0  0  0  0  0  0  0  0
   57.0310   28.2340   45.5850 C   0  0  0  0  0  0  0  0  0  0  0  0
   58.4140   28.4290   45.4700 C   0  0  0  0  0  0  0  0  0  0  0  0
   59.3030   27.4010   45.7990 C   0  0  0  0  0  0  0  0  0  0  0  0
   60.6400   27.6030   45.7010 F   0  0  0  0  0  0  0  0  0  0  0  0
   58.8140   26.1640   46.2270 C   0  0  0  0  0  0  0  0  0  0  0  0
   57.4350   25.9500   46.3150 C   0  0  0  0  0  0  0  0  0  0  0  0
   56.5420   26.9750   45.9890 C   0  0  0  0  0  0  0  0  0  0  0  0
   55.2100   26.7220   46.0260 F   0  0  0  0  0  0  0  0  0  0  0  0
   57.9690   31.5220   46.0790 C   0  0  0  0  0  0  0  0  0  0  0  0
   58.7300   32.6130   46.5280 C   0  0  0  0  0  0  0  0  0  0  0  0
   59.5660   32.4870   48.0850 S   0  0  0  0  0  0  0  0  0  0  0  0
   59.4610   31.0840   48.6190 O   0  0  0  0  0  0  0  0  0  0  0  0
   58.9110   33.4230   49.0620 O   0  0  0  0  0  0  0  0  0  0  0  0
   61.2490   32.9070   47.8930 N   0  0  0  0  0  0  0  0  0  0  0  0
   62.0300   31.7120   47.5380 C   0  0  0  0  0  0  0  0  0  0  0  0
   63.4630   32.1070   47.1380 C   0  0  0  0  0  0  0  0  0  0  0  0
   63.8920   33.4530   47.7480 C   0  0  0  0  0  0  0  0  0  0  0  0
   63.3000   33.6350   49.1480 C   0  0  0  0  0  0  0  0  0  0  0  0
   61.7590   33.5230   49.1360 C   0  0  0  0  0  0  0  0  0  0  0  0
   59.6672   35.0317   47.2429 H   0  0  0  0  0  0  0  0  0  0  0  0
   60.6496   34.8756   45.7472 H   0  0  0  0  0  0  0  0  0  0  0  0
   59.1689   35.8925   45.7472 H   0  0  0  0  0  0  0  0  0  0  0  0
   58.2348   34.7017   43.8512 H   0  0  0  0  0  0  0  0  0  0  0  0
   56.8862   32.7621   43.0841 H   0  0  0  0  0  0  0  0  0  0  0  0
   58.8025   29.3964   45.1189 H   0  0  0  0  0  0  0  0  0  0  0  0
   59.5138   25.3586   46.4947 H   0  0  0  0  0  0  0  0  0  0  0  0
   57.0516   24.9721   46.6417 H   0  0  0  0  0  0  0  0  0  0  0  0
   57.9108   30.6124   46.6948 H   0  0  0  0  0  0  0  0  0  0  0  0
   62.0690   31.0342   48.4035 H   0  0  0  0  0  0  0  0  0  0  0  0
   61.5473   31.2102   46.6865 H   0  0  0  0  0  0  0  0  0  0  0  0
   64.1548   31.3253   47.4849 H   0  0  0  0  0  0  0  0  0  0  0  0
   63.4891   32.2112   46.0433 H   0  0  0  0  0  0  0  0  0  0  0  0
   64.9895   33.4840   47.8148 H   0  0  0  0  0  0  0  0  0  0  0  0
   63.5218   34.2636   47.1031 H   0  0  0  0  0  0  0  0  0  0  0  0
   63.7087   32.8586   49.8115 H   0  0  0  0  0  0  0  0  0  0  0  0
   63.5679   34.6402   49.5055 H   0  0  0  0  0  0  0  0  0  0  0  0
   61.4428   32.9074   49.9910 H   0  0  0  0  0  0  0  0  0  0  0  0
   61.3480   34.5414   49.1990 H   0  0  0  0  0  0  0  0  0  0  0  0
  1  2  1  0
  2  3  2  0
  3  4  1  0
  4  5  2  0
  5  6  1  0
  6  7  2  0
  6  8  1  0
  8  9  1  0
  9 10  2  0
 10 11  1  0
 11 12  1  0
 11 13  2  0
 13 14  1  0
 14 15  2  0
 15 16  1  0
  5 17  1  0
 17 18  2  0
 18 19  1  0
 19 20  2  0
 19 21  2  0
 19 22  1  0
 22 23  1  0
 23 24  1  0
 24 25  1  0
 25 26  1  0
 26 27  1  0
 18  2  1  0
 27 22  1  0
 15  9  1  0
  1 28  1  0
  1 29  1  0
  1 30  1  0
  3 31  1  0
  4 32  1  0
 10 33  1  0
 13 34  1  0
 14 35  1  0
 17 36  1  0
 23 37  1  0
 23 38  1  0
 24 39  1  0
 24 40  1  0
 25 41  1  0
 25 42  1  0
 26 43  1  0
 26 44  1  0
 27 45  1  0
 27 46  1  0
M  CHG  1   8  -1
M  END
>  <UniqueID>  (6) 
5

>  <SMILES>  (6) 
Cc1ccc(C(=O)[N-]c2cc(F)ccc2F)cc1S(=O)(=O)N1CCCCC1

>  <Energy>  (6) 
58.24456350645256

>  <Genealogy>  (6) 
Cc1ccc(C(=O)[N-]c2cc(F)ccc2F)cc1S(=O)(=O)N1CCCCC1 (protonated)
Cc1ccc(C(=O)[N-]c2cc(F)ccc2F)cc1S(=O)(=O)N1CCCCC1 (3D coordinates assigned)
Cc1ccc(C(=O)[N-]c2cc(F)ccc2F)cc1S(=O)(=O)N1CCCCC1 (nonaromatic ring conformer: 58.24456350645256 kcal/mol)

>  <smiles>  (6) 
Cc1ccc(C(=O)Nc2cc(F)ccc2F)cc1S(=O)(=O)N1CCCCC1

>  <score_type>  (6) 
oracle

>  <origin>  (6) 
adg

>  <m_score__min__energy>  (6) 
-11.32

>  <m_primary>  (6) 
energy

$$$$
6:0
     RDKit          3D

 39 42  0  0  0  0  0  0  0  0999 V2000
   54.7150   30.3080   53.1940 C   0  0  0  0  0  0  0  0  0  0  0  0
   55.9880   30.3760   52.4900 N   0  0  0  0  0  0  0  0  0  0  0  0
   56.4460   31.4350   51.7960 C   0  0  0  0  0  0  0  0  0  0  0  0
   57.6450   31.0660   51.2270 C   0  0  0  0  0  0  0  0  0  0  0  0
   58.4990   31.8630   50.3980 N   0  0  0  0  0  0  0  0  0  0  0  0
   59.7310   32.3060   50.7120 C   0  0  0  0  0  0  0  0  0  0  0  0
   60.2090   33.0470   49.6500 C   0  0  0  0  0  0  0  0  0  0  0  0
   61.5100   33.7980   49.6190 C   0  0  0  0  0  0  0  0  0  0  0  0
   62.3980   33.2750   48.5800 N   0  0  0  0  0  0  0  0  0  0  0  0
   63.1650   33.9790   47.7300 C   0  0  0  0  0  0  0  0  0  0  0  0
   63.7500   33.0940   46.8540 C   0  0  0  0  0  0  0  0  0  0  0  0
   63.3380   31.8400   47.1350 N   0  0  0  0  0  0  0  0  0  0  0  0
   62.5080   31.9900   48.1880 C   0  0  0  0  0  0  0  0  0  0  0  0
   59.1920   33.0030   48.6990 C   0  0  0  0  0  0  0  0  0  0  0  0
   59.1560   33.6600   47.3770 C   0  0  0  0  0  0  0  0  0  0  0  0
   59.6940   34.9490   47.2260 C   0  0  0  0  0  0  0  0  0  0  0  0
   59.6560   35.5890   45.9820 C   0  0  0  0  0  0  0  0  0  0  0  0
   59.0700   34.9540   44.8850 C   0  0  0  0  0  0  0  0  0  0  0  0
   58.5120   33.6810   45.0310 C   0  0  0  0  0  0  0  0  0  0  0  0
   58.5480   33.0390   46.2720 C   0  0  0  0  0  0  0  0  0  0  0  0
   58.1610   32.2840   49.1880 N   0  0  0  0  0  0  0  0  0  0  0  0
   57.8580   29.7540   51.6070 C   0  0  0  0  0  0  0  0  0  0  0  0
   56.8230   29.3540   52.3730 N   0  0  0  0  0  0  0  0  0  0  0  0
   54.8951   30.3176   54.2791 H   0  0  0  0  0  0  0  0  0  0  0  0
   54.0963   31.1744   52.9173 H   0  0  0  0  0  0  0  0  0  0  0  0
   54.1921   29.3806   52.9173 H   0  0  0  0  0  0  0  0  0  0  0  0
   55.9536   32.4141   51.7009 H   0  0  0  0  0  0  0  0  0  0  0  0
   60.2652   32.1109   51.6536 H   0  0  0  0  0  0  0  0  0  0  0  0
   61.3067   34.8598   49.4162 H   0  0  0  0  0  0  0  0  0  0  0  0
   62.0053   33.6774   50.5938 H   0  0  0  0  0  0  0  0  0  0  0  0
   63.3011   35.0705   47.7340 H   0  0  0  0  0  0  0  0  0  0  0  0
   64.4469   33.3668   46.0479 H   0  0  0  0  0  0  0  0  0  0  0  0
   61.9795   31.1560   48.6730 H   0  0  0  0  0  0  0  0  0  0  0  0
   60.1473   35.4576   48.0896 H   0  0  0  0  0  0  0  0  0  0  0  0
   60.0885   36.5940   45.8681 H   0  0  0  0  0  0  0  0  0  0  0  0
   59.0476   35.4556   43.9063 H   0  0  0  0  0  0  0  0  0  0  0  0
   58.0441   33.1839   44.1685 H   0  0  0  0  0  0  0  0  0  0  0  0
   58.0978   32.0417   46.3848 H   0  0  0  0  0  0  0  0  0  0  0  0
   58.7270   29.1389   51.3305 H   0  0  0  0  0  0  0  0  0  0  0  0
  1  2  1  0
  2  3  1  0
  3  4  2  0
  4  5  1  0
  5  6  1  0
  6  7  2  0
  7  8  1  0
  8  9  1  0
  9 10  1  0
 10 11  2  0
 11 12  1  0
 12 13  2  0
  7 14  1  0
 14 15  1  0
 15 16  2  0
 16 17  1  0
 17 18  2  0
 18 19  1  0
 19 20  2  0
 14 21  2  0
  4 22  1  0
 22 23  2  0
 23  2  1  0
 21  5  1  0
 13  9  1  0
 20 15  1  0
  1 24  1  0
  1 25  1  0
  1 26  1  0
  3 27  1  0
  6 28  1  0
  8 29  1  0
  8 30  1  0
 10 31  1  0
 11 32  1  0
 13 33  1  0
 16 34  1  0
 17 35  1  0
 18 36  1  0
 19 37  1  0
 20 38  1  0
 22 39  1  0
M  END
>  <UniqueID>  (7) 
6

>  <SMILES>  (7) 
Cn1cc(-n2cc(Cn3ccnc3)c(-c3ccccc3)n2)cn1

>  <Energy>  (7) 
135.54350679136067

>  <Genealogy>  (7) 
Cn1cc(-n2cc(Cn3ccnc3)c(-c3ccccc3)n2)cn1 (3D coordinates assigned)
Cn1cc(-n2cc(Cn3ccnc3)c(-c3ccccc3)n2)cn1 (optimized conformer: 135.54350679136067 kcal/mol)

>  <smiles>  (7) 
Cn1cc(-n2cc(Cn3ccnc3)c(-c3ccccc3)n2)cn1

>  <score_type>  (7) 
oracle

>  <origin>  (7) 
adg

>  <m_score__min__energy>  (7) 
-6.8099999999999996

>  <m_primary>  (7) 
energy

$$$$
7:0
     RDKit          3D

 45 48  0  0  0  0  0  0  0  0999 V2000
   59.9200   33.6070   50.4950 C   0  0  0  0  0  0  0  0  0  0  0  0
   61.0950   34.2240   49.7400 C   0  0  0  0  0  0  0  0  0  0  0  0
   61.8930   33.1830   49.0710 N   0  0  0  0  0  0  0  0  0  0  0  0
   63.3280   33.4180   48.8470 C   0  0  0  0  0  0  0  0  0  0  0  0
   63.7040   33.1680   47.3880 C   0  0  0  0  0  0  0  0  0  0  0  0
   61.2800   31.9490   48.6340 C   0  0  0  0  0  0  0  0  0  0  0  0
   61.7080   30.7110   49.1530 C   0  0  0  0  0  0  0  0  0  0  0  0
   61.1230   29.5170   48.7240 C   0  0  0  0  0  0  0  0  0  0  0  0
   60.1020   29.5430   47.7710 C   0  0  0  0  0  0  0  0  0  0  0  0
   59.5230   28.3900   47.3560 N   0  0  0  0  0  0  0  0  0  0  0  0
   58.5250   28.3780   46.4310 C   0  0  0  0  0  0  0  0  0  0  0  0
   57.9040   27.0780   46.1110 C   0  0  0  0  0  0  0  0  0  0  0  0
   57.3840   26.1580   47.0170 C   0  0  0  0  0  0  0  0  0  0  0  0
   56.9550   24.9690   46.4150 C   0  0  0  0  0  0  0  0  0  0  0  0
   57.1580   24.9340   45.0430 C   0  0  0  0  0  0  0  0  0  0  0  0
   57.8750   26.3820   44.5790 S   0  0  0  0  0  0  0  0  0  0  0  0
   58.1000   29.6070   45.8650 C   0  0  0  0  0  0  0  0  0  0  0  0
   57.1220   29.6620   44.7530 C   0  0  0  0  0  0  0  0  0  0  0  0
   57.4250   29.6440   43.4030 C   0  0  0  0  0  0  0  0  0  0  0  0
   56.2140   29.6940   42.7480 C   0  0  0  0  0  0  0  0  0  0  0  0
   55.2480   29.7330   43.7310 C   0  0  0  0  0  0  0  0  0  0  0  0
   55.8190   29.7090   44.9130 O   0  0  0  0  0  0  0  0  0  0  0  0
   58.6700   30.7680   46.3050 N   0  0  0  0  0  0  0  0  0  0  0  0
   59.6580   30.7660   47.2440 C   0  0  0  0  0  0  0  0  0  0  0  0
   60.2480   31.9640   47.6770 C   0  0  0  0  0  0  0  0  0  0  0  0
   60.0919   33.6972   51.5777 H   0  0  0  0  0  0  0  0  0  0  0  0
   58.9933   34.1348   50.2256 H   0  0  0  0  0  0  0  0  0  0  0  0
   59.8284   32.5444   50.2256 H   0  0  0  0  0  0  0  0  0  0  0  0
   60.7099   34.9243   48.9841 H   0  0  0  0  0  0  0  0  0  0  0  0
   61.7377   34.7519   50.4599 H   0  0  0  0  0  0  0  0  0  0  0  0
   63.5663   34.4602   49.1061 H   0  0  0  0  0  0  0  0  0  0  0  0
   63.8992   32.7226   49.4795 H   0  0  0  0  0  0  0  0  0  0  0  0
   64.6193   32.5594   47.3443 H   0  0  0  0  0  0  0  0  0  0  0  0
   62.8845   32.6343   46.8844 H   0  0  0  0  0  0  0  0  0  0  0  0
   63.8790   34.1302   46.8844 H   0  0  0  0  0  0  0  0  0  0  0  0
   62.5113   30.6843   49.9040 H   0  0  0  0  0  0  0  0  0  0  0  0
   61.4663   28.5568   49.1365 H   0  0  0  0  0  0  0  0  0  0  0  0
   57.3168   26.3465   48.0986 H   0  0  0  0  0  0  0  0  0  0  0  0
   56.4997   24.1403   46.9771 H   0  0  0  0  0  0  0  0  0  0  0  0
   56.8949   24.1016   44.3737 H   0  0  0  0  0  0  0  0  0  0  0  0
   58.4252   29.5991   42.9473 H   0  0  0  0  0  0  0  0  0  0  0  0
   56.0507   29.7013   41.6602 H   0  0  0  0  0  0  0  0  0  0  0  0
   54.1636   29.7775   43.5521 H   0  0  0  0  0  0  0  0  0  0  0  0
   58.3720   31.6790   45.8880 H   0  0  0  0  0  0  0  0  0  0  0  0
   59.9007   32.9229   47.2647 H   0  0  0  0  0  0  0  0  0  0  0  0
  1  2  1  0
  2  3  1  0
  3  4  1  0
  4  5  1  0
  3  6  1  0
  6  7  2  0
  7  8  1  0
  8  9  2  0
  9 10  1  0
 10 11  2  0
 11 12  1  0
 12 13  2  0
 13 14  1  0
 14 15  2  0
 15 16  1  0
 11 17  1  0
 17 18  1  0
 18 19  2  0
 19 20  1  0
 20 21  2  0
 21 22  1  0
 17 23  2  0
 23 24  1  0
 24 25  2  0
 25  6  1  0
 24  9  1  0
 16 12  1  0
 22 18  1  0
  1 26  1  0
  1 27  1  0
  1 28  1  0
  2 29  1  0
  2 30  1  0
  4 31  1  0
  4 32  1  0
  5 33  1  0
  5 34  1  0
  5 35  1  0
  7 36  1  0
  8 37  1  0
 13 38  1  0
 14 39  1  0
 15 40  1  0
 19 41  1  0
 20 42  1  0
 21 43  1  0
 23 44  1  0
 25 45  1  0
M  CHG  1  23   1
M  END
>  <UniqueID>  (8) 
7

>  <SMILES>  (8) 
CCN(CC)c1ccc2nc(-c3cccs3)c(-c3ccco3)[nH+]c2c1

>  <Energy>  (8) 
110.08231799676176

>  <Genealogy>  (8) 
CCN(CC)c1ccc2nc(-c3cccs3)c(-c3ccco3)[nH+]c2c1 (protonated)
CCN(CC)c1ccc2nc(-c3cccs3)c(-c3ccco3)[nH+]c2c1 (3D coordinates assigned)
CCN(CC)c1ccc2nc(-c3cccs3)c(-c3ccco3)[nH+]c2c1 (optimized conformer: 110.08231799676176 kcal/mol)

>  <smiles>  (8) 
CCN(CC)c1ccc2nc(-c3cccs3)c(-c3ccco3)nc2c1

>  <score_type>  (8) 
oracle

>  <origin>  (8) 
adg

>  <m_score__min__energy>  (8) 
-5.1600000000000001

>  <m_primary>  (8) 
energy

$$$$
9:0
     RDKit          3D

 35 36  0  0  0  0  0  0  0  0999 V2000
   57.6190   31.7690   44.1690 C   0  0  0  0  0  0  0  0  0  0  0  0
   56.9570   30.7150   44.8670 O   0  0  0  0  0  0  0  0  0  0  0  0
   57.5140   29.4500   45.1040 C   0  0  0  0  0  0  0  0  0  0  0  0
   58.9030   29.2420   45.1870 C   0  0  0  0  0  0  0  0  0  0  0  0
   59.4070   27.9580   45.4130 C   0  0  0  0  0  0  0  0  0  0  0  0
   58.5370   26.8770   45.5650 C   0  0  0  0  0  0  0  0  0  0  0  0
   57.1480   27.0720   45.5090 C   0  0  0  0  0  0  0  0  0  0  0  0
   56.2290   25.9230   45.6750 C   0  0  0  0  0  0  0  0  0  0  0  0
   55.1650   26.0830   46.3370 O   0  0  0  0  0  0  0  0  0  0  0  0
   56.5240   24.6290   45.1120 N   0  0  0  0  0  0  0  0  0  0  0  0
   57.2770   24.4960   43.8580 C   0  0  0  0  0  0  0  0  0  0  0  0
   56.6410   23.4160   42.9650 C   0  0  0  0  0  0  0  0  0  0  0  0
   56.2100   22.1920   43.6970 N   0  0  0  0  0  0  0  0  0  0  0  0
   56.6720   20.9730   43.0170 C   0  0  0  0  0  0  0  0  0  0  0  0
   56.6000   22.1640   45.1190 C   0  0  0  0  0  0  0  0  0  0  0  0
   56.0970   23.4240   45.8270 C   0  0  0  0  0  0  0  0  0  0  0  0
   56.6480   28.3600   45.2590 C   0  0  0  0  0  0  0  0  0  0  0  0
   58.0589   32.4694   44.8942 H   0  0  0  0  0  0  0  0  0  0  0  0
   58.4148   31.3473   43.5374 H   0  0  0  0  0  0  0  0  0  0  0  0
   56.8936   32.3027   43.5374 H   0  0  0  0  0  0  0  0  0  0  0  0
   59.5933   30.0910   45.0739 H   0  0  0  0  0  0  0  0  0  0  0  0
   60.4938   27.7987   45.4713 H   0  0  0  0  0  0  0  0  0  0  0  0
   58.9418   25.8675   45.7294 H   0  0  0  0  0  0  0  0  0  0  0  0
   57.2681   25.4585   43.3256 H   0  0  0  0  0  0  0  0  0  0  0  0
   58.3115   24.2038   44.0912 H   0  0  0  0  0  0  0  0  0  0  0  0
   55.7591   23.8515   42.4725 H   0  0  0  0  0  0  0  0  0  0  0  0
   57.4163   23.1001   42.2514 H   0  0  0  0  0  0  0  0  0  0  0  0
   56.9572   20.2205   43.7669 H   0  0  0  0  0  0  0  0  0  0  0  0
   55.8624   20.5750   42.3877 H   0  0  0  0  0  0  0  0  0  0  0  0
   57.5421   21.2116   42.3877 H   0  0  0  0  0  0  0  0  0  0  0  0
   56.1611   21.2770   45.5993 H   0  0  0  0  0  0  0  0  0  0  0  0
   57.6969   22.1242   45.1908 H   0  0  0  0  0  0  0  0  0  0  0  0
   54.9980   23.3998   45.8684 H   0  0  0  0  0  0  0  0  0  0  0  0
   56.5184   23.4492   46.8428 H   0  0  0  0  0  0  0  0  0  0  0  0
   55.5616   28.5152   45.1839 H   0  0  0  0  0  0  0  0  0  0  0  0
  1  2  1  0
  2  3  1  0
  3  4  2  0
  4  5  1  0
  5  6  2  0
  6  7  1  0
  7  8  1  0
  8  9  2  0
  8 10  1  0
 10 11  1  0
 11 12  1  0
 12 13  1  0
 13 14  1  0
 13 15  1  0
 15 16  1  0
  7 17  2  0
 17  3  1  0
 16 10  1  0
  1 18  1  0
  1 19  1  0
  1 20  1  0
  4 21  1  0
  5 22  1  0
  6 23  1  0
 11 24  1  0
 11 25  1  0
 12 26  1  0
 12 27  1  0
 14 28  1  0
 14 29  1  0
 14 30  1  0
 15 31  1  0
 15 32  1  0
 16 33  1  0
 16 34  1  0
 17 35  1  0
M  END
>  <UniqueID>  (9) 
8

>  <SMILES>  (9) 
COc1cccc(C(=O)N2CCN(C)CC2)c1

>  <Energy>  (9) 
43.85879021625345

>  <Genealogy>  (9) 
COc1cccc(C(=O)N2CCN(C)CC2)c1 (3D coordinates assigned)
COc1cccc(C(=O)N2CCN(C)CC2)c1 (nonaromatic ring conformer: 43.85879021625345 kcal/mol)

>  <smiles>  (9) 
COc1cccc(C(=O)N2CCN(C)CC2)c1

>  <score_type>  (9) 
oracle

>  <origin>  (9) 
adg

>  <m_score__min__energy>  (9) 
-6.4100000000000001

>  <m_primary>  (9) 
energy

$$$$
10:0
     RDKit          3D

 31 32  0  0  0  0  0  0  0  0999 V2000
   55.2915   28.4688   44.3266 H   0  0  0  0  0  0  0  0  0  0  0  0
   56.1490   28.9750   44.7940 C   0  0  0  0  0  0  0  0  0  0  0  0
   56.3710   30.2940   44.5590 N   0  0  0  0  0  0  0  0  0  0  0  0
   57.4110   30.9810   45.1060 C   0  0  0  0  0  0  0  0  0  0  0  0
   57.4830   32.2560   44.8350 N   0  0  0  0  0  0  0  0  0  0  0  0
   57.5250   33.3820   45.7200 C   0  0  0  0  0  0  0  0  0  0  0  0
   56.7050   33.4720   46.6740 O   0  0  0  0  0  0  0  0  0  0  0  0
   58.4230   34.5370   45.4060 C   0  0  0  0  0  0  0  0  0  0  0  0
   58.4299   34.7020   44.3185 H   0  0  0  0  0  0  0  0  0  0  0  0
   58.0440   35.4277   45.9285 H   0  0  0  0  0  0  0  0  0  0  0  0
   59.7890   34.2770   45.8590 N   0  0  0  0  0  0  0  0  0  0  0  0
   60.5330   34.0770   45.1530 H   0  0  0  0  0  0  0  0  0  0  0  0
   60.1470   34.3790   47.2460 C   0  0  0  0  0  0  0  0  0  0  0  0
   59.3090   34.8350   48.0710 O   0  0  0  0  0  0  0  0  0  0  0  0
   61.4910   33.9740   47.7240 C   0  0  0  0  0  0  0  0  0  0  0  0
   62.4900   33.5550   46.8250 C   0  0  0  0  0  0  0  0  0  0  0  0
   62.2777   33.5288   45.7460 H   0  0  0  0  0  0  0  0  0  0  0  0
   63.7500   33.1720   47.2940 C   0  0  0  0  0  0  0  0  0  0  0  0
   64.5254   32.8508   46.5830 H   0  0  0  0  0  0  0  0  0  0  0  0
   64.0270   33.1960   48.6620 C   0  0  0  0  0  0  0  0  0  0  0  0
   65.2490   32.8220   49.1140 F   0  0  0  0  0  0  0  0  0  0  0  0
   63.0410   33.5980   49.5670 C   0  0  0  0  0  0  0  0  0  0  0  0
   63.2578   33.6134   50.6453 H   0  0  0  0  0  0  0  0  0  0  0  0
   61.7780   33.9810   49.1020 C   0  0  0  0  0  0  0  0  0  0  0  0
   61.0032   34.2900   49.8191 H   0  0  0  0  0  0  0  0  0  0  0  0
   58.3480   30.2700   45.9130 C   0  0  0  0  0  0  0  0  0  0  0  0
   60.0610   30.9280   46.4860 Br  0  0  0  0  0  0  0  0  0  0  0  0
   58.1130   28.9150   46.1750 C   0  0  0  0  0  0  0  0  0  0  0  0
   58.8077   28.3572   46.8202 H   0  0  0  0  0  0  0  0  0  0  0  0
   57.0080   28.2650   45.6270 C   0  0  0  0  0  0  0  0  0  0  0  0
   56.7070   26.4110   45.9730 Br  0  0  0  0  0  0  0  0  0  0  0  0
  1  2  1  0
  2  3  1  0
  3  4  1  0
  4  5  2  0
  5  6  1  0
  6  7  2  0
  6  8  1  0
  8  9  1  0
  8 10  1  0
  8 11  1  0
 11 12  1  0
 11 13  1  0
 13 14  2  0
 13 15  1  0
 15 16  2  0
 16 17  1  0
 16 18  1  0
 18 19  1  0
 18 20  2  0
 20 21  1  0
 20 22  1  0
 22 23  1  0
 22 24  2  0
 24 25  1  0
  4 26  1  0
 26 27  1  0
 26 28  2  0
 28 29  1  0
 28 30  1  0
 30 31  1  0
 30  2  2  0
 24 15  1  0
M  CHG  1   3  -1
M  END
>  <UniqueID>  (10) 
9

>  <SMILES>  (10) 
O=C(CNC(=O)c1ccc(F)cc1)/N=c1/[n-]cc(Br)cc1Br

>  <Energy>  (10) 
48.65838786491045

>  <Genealogy>  (10) 
O=C(CNC(=O)c1ccc(F)cc1)N=c1[n-]cc(Br)cc1Br (protonated)
O=C(CNC(=O)c1ccc(F)cc1)/N=c1/[n-]cc(Br)cc1Br (cis-trans isomerization)
O=C(CNC(=O)c1ccc(F)cc1)/N=c1/[n-]cc(Br)cc1Br (3D coordinates assigned)
O=C(CNC(=O)c1ccc(F)cc1)/N=c1/[n-]cc(Br)cc1Br (optimized conformer: 48.65838786491045 kcal/mol)

>  <smiles>  (10) 
O=C(CNC(=O)c1ccc(F)cc1)N=c1[nH]cc(Br)cc1Br

>  <score_type>  (10) 
oracle

>  <origin>  (10) 
adg

>  <m_score__min__energy>  (10) 
-9.5899999999999999

>  <m_primary>  (10) 
energy

$$$$
11:0
     RDKit          3D

 25 26  0  0  0  0  0  0  0  0999 V2000
   57.4000   31.8170   42.1360 C   0  0  0  0  0  0  0  0  0  0  0  0
   57.5410   31.5810   43.6400 C   0  0  0  0  0  0  0  0  0  0  0  0
   56.3740   30.7670   44.2180 C   0  0  0  0  0  0  0  0  0  0  0  0
   56.8220   29.4150   44.6990 C   0  0  0  0  0  0  0  0  0  0  0  0
   58.1950   29.0660   44.6920 C   0  0  0  0  0  0  0  0  0  0  0  0
   58.5710   27.8050   45.1760 C   0  0  0  0  0  0  0  0  0  0  0  0
   59.7800   27.4490   45.1930 O   0  0  0  0  0  0  0  0  0  0  0  0
   57.5940   26.9820   45.6250 N   0  0  0  0  0  0  0  0  0  0  0  0
   57.7130   25.7690   46.1280 N   0  0  0  0  0  0  0  0  0  0  0  0
   56.4400   25.4030   46.4200 C   0  0  0  0  0  0  0  0  0  0  0  0
   56.0950   24.1050   47.0690 C   0  0  0  0  0  0  0  0  0  0  0  0
   55.5180   26.3610   46.1340 N   0  0  0  0  0  0  0  0  0  0  0  0
   56.3070   27.3250   45.6310 C   0  0  0  0  0  0  0  0  0  0  0  0
   55.8930   28.5330   45.1780 N   0  0  0  0  0  0  0  0  0  0  0  0
   56.8429   32.7494   41.9618 H   0  0  0  0  0  0  0  0  0  0  0  0
   58.3988   31.8964   41.6821 H   0  0  0  0  0  0  0  0  0  0  0  0
   56.8568   30.9751   41.6821 H   0  0  0  0  0  0  0  0  0  0  0  0
   58.4780   31.0354   43.8254 H   0  0  0  0  0  0  0  0  0  0  0  0
   57.5413   32.5635   44.1346 H   0  0  0  0  0  0  0  0  0  0  0  0
   55.9385   31.3196   45.0635 H   0  0  0  0  0  0  0  0  0  0  0  0
   55.6321   30.6178   43.4197 H   0  0  0  0  0  0  0  0  0  0  0  0
   58.9509   29.7702   44.3144 H   0  0  0  0  0  0  0  0  0  0  0  0
   56.1261   24.2220   48.1623 H   0  0  0  0  0  0  0  0  0  0  0  0
   55.0842   23.7986   46.7616 H   0  0  0  0  0  0  0  0  0  0  0  0
   56.8203   23.3372   46.7616 H   0  0  0  0  0  0  0  0  0  0  0  0
  1  2  1  0
  2  3  1  0
  3  4  1  0
  4  5  2  0
  5  6  1  0
  6  7  2  0
  6  8  1  0
  8  9  1  0
  9 10  2  0
 10 11  1  0
 10 12  1  0
 12 13  2  0
 13 14  1  0
 14  4  1  0
 13  8  1  0
  1 15  1  0
  1 16  1  0
  1 17  1  0
  2 18  1  0
  2 19  1  0
  3 20  1  0
  3 21  1  0
  5 22  1  0
 11 23  1  0
 11 24  1  0
 11 25  1  0
M  CHG  1  14  -1
M  END
>  <UniqueID>  (11) 
10

>  <SMILES>  (11) 
CCCc1cc(=O)n2nc(C)nc2[n-]1

>  <Energy>  (11) 
58.52543894359912

>  <Genealogy>  (11) 
CCCc1cc(=O)n2nc(C)nc2[n-]1 (protonated)
CCCc1cc(=O)n2nc(C)nc2[n-]1 (3D coordinates assigned)
CCCc1cc(=O)n2nc(C)nc2[n-]1 (optimized conformer: 58.52543894359912 kcal/mol)

>  <smiles>  (11) 
CCCc1cc(=O)n2nc(C)nc2[nH]1

>  <score_type>  (11) 
oracle

>  <origin>  (11) 
adg

>  <m_score__min__energy>  (11) 
-6.9400000000000004

>  <m_primary>  (11) 
energy

$$$$
12:0
     RDKit          3D

 48 51  0  0  0  0  0  0  0  0999 V2000
   56.0506   31.7718   43.8868 H   0  0  0  0  0  0  0  0  0  0  0  0
   56.9660   31.8690   44.4890 C   0  0  0  0  0  0  0  0  0  0  0  0
   57.3970   33.1060   44.7780 C   0  0  0  0  0  0  0  0  0  0  0  0
   57.2365   33.8932   44.0267 H   0  0  0  0  0  0  0  0  0  0  0  0
   58.0760   33.4850   46.0430 C   0  0  0  0  0  0  0  0  0  0  0  0
   57.8310   32.7320   47.2030 C   0  0  0  0  0  0  0  0  0  0  0  0
   57.0977   31.9123   47.1827 H   0  0  0  0  0  0  0  0  0  0  0  0
   58.5170   33.0240   48.3780 C   0  0  0  0  0  0  0  0  0  0  0  0
   58.3225   32.4416   49.2907 H   0  0  0  0  0  0  0  0  0  0  0  0
   59.4500   34.0560   48.3930 C   0  0  0  0  0  0  0  0  0  0  0  0
   60.0010   34.2922   49.3153 H   0  0  0  0  0  0  0  0  0  0  0  0
   59.6810   34.7890   47.2280 C   0  0  0  0  0  0  0  0  0  0  0  0
   60.4202   35.6036   47.2366 H   0  0  0  0  0  0  0  0  0  0  0  0
   58.9990   34.5070   46.0740 N   0  0  0  0  0  0  0  0  0  0  0  0
   59.2820   35.3040   44.8720 C   0  0  0  0  0  0  0  0  0  0  0  0
   59.6364   36.3021   45.1689 H   0  0  0  0  0  0  0  0  0  0  0  0
   60.0571   34.8027   44.2737 H   0  0  0  0  0  0  0  0  0  0  0  0
   58.3643   35.4037   44.2737 H   0  0  0  0  0  0  0  0  0  0  0  0
   57.6410   30.6250   44.9270 C   0  0  0  0  0  0  0  0  0  0  0  0
   59.0090   30.6290   45.2190 C   0  0  0  0  0  0  0  0  0  0  0  0
   59.5833   31.5576   45.0856 H   0  0  0  0  0  0  0  0  0  0  0  0
   59.6510   29.5050   45.6670 N   0  0  0  0  0  0  0  0  0  0  0  0
   61.0950   29.6220   45.9620 C   0  0  0  0  0  0  0  0  0  0  0  0
   61.5100   28.6169   46.1277 H   0  0  0  0  0  0  0  0  0  0  0  0
   61.5870   30.1085   45.1069 H   0  0  0  0  0  0  0  0  0  0  0  0
   61.3340   30.4620   47.1920 C   0  0  0  0  0  0  0  0  0  0  0  0
   62.2240   31.5500   47.1570 C   0  0  0  0  0  0  0  0  0  0  0  0
   62.7492   31.7983   46.2229 H   0  0  0  0  0  0  0  0  0  0  0  0
   62.4440   32.3170   48.3040 C   0  0  0  0  0  0  0  0  0  0  0  0
   63.1327   33.1739   48.2673 H   0  0  0  0  0  0  0  0  0  0  0  0
   61.7910   31.9980   49.4980 C   0  0  0  0  0  0  0  0  0  0  0  0
   61.9607   32.6075   50.3978 H   0  0  0  0  0  0  0  0  0  0  0  0
   60.9230   30.9050   49.5480 C   0  0  0  0  0  0  0  0  0  0  0  0
   60.4150   30.6494   50.4896 H   0  0  0  0  0  0  0  0  0  0  0  0
   60.6990   30.1350   48.4020 C   0  0  0  0  0  0  0  0  0  0  0  0
   60.0223   29.2690   48.4483 H   0  0  0  0  0  0  0  0  0  0  0  0
   58.9520   28.3220   45.8220 C   0  0  0  0  0  0  0  0  0  0  0  0
   59.5800   27.1270   46.2510 C   0  0  0  0  0  0  0  0  0  0  0  0
   60.6591   27.1288   46.4644 H   0  0  0  0  0  0  0  0  0  0  0  0
   58.8510   25.9480   46.4070 C   0  0  0  0  0  0  0  0  0  0  0  0
   59.3591   25.0306   46.7392 H   0  0  0  0  0  0  0  0  0  0  0  0
   57.4860   25.9260   46.1450 C   0  0  0  0  0  0  0  0  0  0  0  0
   56.9171   24.9933   46.2728 H   0  0  0  0  0  0  0  0  0  0  0  0
   56.8380   27.0830   45.7210 C   0  0  0  0  0  0  0  0  0  0  0  0
   55.7577   27.0590   45.5154 H   0  0  0  0  0  0  0  0  0  0  0  0
   57.5550   28.2850   45.5530 C   0  0  0  0  0  0  0  0  0  0  0  0
   56.9050   29.4520   45.1180 C   0  0  0  0  0  0  0  0  0  0  0  0
   55.6640   29.4460   44.8850 O   0  0  0  0  0  0  0  0  0  0  0  0
  1  2  1  0
  2  3  2  0
  3  4  1  0
  3  5  1  0
  5  6  2  0
  6  7  1  0
  6  8  1  0
  8  9  1  0
  8 10  2  0
 10 11  1  0
 10 12  1  0
 12 13  1  0
 12 14  2  0
 14 15  1  0
 15 16  1  0
 15 17  1  0
 15 18  1  0
  2 19  1  0
 19 20  2  0
 20 21  1  0
 20 22  1  0
 22 23  1  0
 23 24  1  0
 23 25  1  0
 23 26  1  0
 26 27  2  0
 27 28  1  0
 27 29  1  0
 29 30  1  0
 29 31  2  0
 31 32  1  0
 31 33  1  0
 33 34  1  0
 33 35  2  0
 35 36  1  0
 22 37  1  0
 37 38  2  0
 38 39  1  0
 38 40  1  0
 40 41  1  0
 40 42  2  0
 42 43  1  0
 42 44  1  0
 44 45  1  0
 44 46  2  0
 46 47  1  0
 47 48  2  0
 14  5  1  0
 47 19  1  0
 35 26  1  0
 46 37  1  0
M  CHG  1  14   1
M  END
>  <UniqueID>  (12) 
11

>  <SMILES>  (12) 
C[n+]1ccccc1/C=C\c1cn(Cc2ccccc2)c2ccccc2c1=O

>  <Energy>  (12) 
72.58884747285437

>  <Genealogy>  (12) 
C[n+]1ccccc1/C=C\c1cn(Cc2ccccc2)c2ccccc2c1=O (cis-trans isomerization)
C[n+]1ccccc1/C=C\c1cn(Cc2ccccc2)c2ccccc2c1=O (3D coordinates assigned)
C[n+]1ccccc1/C=C\c1cn(Cc2ccccc2)c2ccccc2c1=O (optimized conformer: 72.58884747285437 kcal/mol)

>  <smiles>  (12) 
C[n+]1ccccc1C=Cc1cn(Cc2ccccc2)c2ccccc2c1=O

>  <score_type>  (12) 
oracle

>  <origin>  (12) 
adg

>  <m_score__min__energy>  (12) 
-6.79

>  <m_primary>  (12) 
energy

$$$$
13:0
     RDKit          3D

 41 43  0  0  0  0  0  0  0  0999 V2000
   56.9310   26.2790   45.6180 C   0  0  0  0  0  0  0  0  0  0  0  0
   57.6970   27.4350   46.0660 N   0  0  0  0  0  0  0  0  0  0  0  0
   57.4690   28.7170   45.7010 C   0  0  0  0  0  0  0  0  0  0  0  0
   58.3630   29.5110   46.3960 C   0  0  0  0  0  0  0  0  0  0  0  0
   59.0800   28.6330   47.1620 C   0  0  0  0  0  0  0  0  0  0  0  0
   60.0810   29.0770   48.0100 C   0  0  0  0  0  0  0  0  0  0  0  0
   60.3300   30.4170   48.0600 N   0  0  0  0  0  0  0  0  0  0  0  0
   59.6320   31.3370   47.3160 C   0  0  0  0  0  0  0  0  0  0  0  0
   58.6100   30.8940   46.4390 C   0  0  0  0  0  0  0  0  0  0  0  0
   57.9230   31.8430   45.6710 C   0  0  0  0  0  0  0  0  0  0  0  0
   57.0200   31.4730   44.8710 O   0  0  0  0  0  0  0  0  0  0  0  0
   58.2420   33.1700   45.7800 N   0  0  0  0  0  0  0  0  0  0  0  0
   57.5450   34.1610   44.9400 C   0  0  0  0  0  0  0  0  0  0  0  0
   59.2610   33.5750   46.6070 C   0  0  0  0  0  0  0  0  0  0  0  0
   59.5960   34.7940   46.6250 O   0  0  0  0  0  0  0  0  0  0  0  0
   59.9230   32.6750   47.4090 N   0  0  0  0  0  0  0  0  0  0  0  0
   60.9800   33.1480   48.3400 C   0  0  0  0  0  0  0  0  0  0  0  0
   62.4170   33.1150   47.7300 C   0  0  0  0  0  0  0  0  0  0  0  0
   62.9080   31.6680   47.5280 C   0  0  0  0  0  0  0  0  0  0  0  0
   62.4700   33.8550   46.3780 C   0  0  0  0  0  0  0  0  0  0  0  0
   63.3760   33.8220   48.7110 C   0  0  0  0  0  0  0  0  0  0  0  0
   58.6690   27.3680   46.9670 N   0  0  0  0  0  0  0  0  0  0  0  0
   56.5622   25.7224   46.4922 H   0  0  0  0  0  0  0  0  0  0  0  0
   56.0776   26.6171   45.0118 H   0  0  0  0  0  0  0  0  0  0  0  0
   57.5750   25.6249   45.0118 H   0  0  0  0  0  0  0  0  0  0  0  0
   56.7115   29.0645   44.9831 H   0  0  0  0  0  0  0  0  0  0  0  0
   60.6578   28.3702   48.6246 H   0  0  0  0  0  0  0  0  0  0  0  0
   57.0317   34.8908   45.5834 H   0  0  0  0  0  0  0  0  0  0  0  0
   58.2763   34.6825   44.3049 H   0  0  0  0  0  0  0  0  0  0  0  0
   56.8070   33.6491   44.3049 H   0  0  0  0  0  0  0  0  0  0  0  0
   60.7495   34.1840   48.6290 H   0  0  0  0  0  0  0  0  0  0  0  0
   60.9807   32.4617   49.1996 H   0  0  0  0  0  0  0  0  0  0  0  0
   63.0685   31.1951   48.5081 H   0  0  0  0  0  0  0  0  0  0  0  0
   62.1525   31.0995   46.9659 H   0  0  0  0  0  0  0  0  0  0  0  0
   63.8535   31.6767   46.9659 H   0  0  0  0  0  0  0  0  0  0  0  0
   62.5476   34.9378   46.5555 H   0  0  0  0  0  0  0  0  0  0  0  0
   63.3460   33.5133   45.8071 H   0  0  0  0  0  0  0  0  0  0  0  0
   61.5543   33.6417   45.8071 H   0  0  0  0  0  0  0  0  0  0  0  0
   63.0732   33.5988   49.7447 H   0  0  0  0  0  0  0  0  0  0  0  0
   64.4021   33.4626   48.5438 H   0  0  0  0  0  0  0  0  0  0  0  0
   63.3362   34.9085   48.5438 H   0  0  0  0  0  0  0  0  0  0  0  0
  1  2  1  0
  2  3  1  0
  3  4  2  0
  4  5  1  0
  5  6  1  0
  6  7  2  0
  7  8  1  0
  8  9  2  0
  9 10  1  0
 10 11  2  0
 10 12  1  0
 12 13  1  0
 12 14  1  0
 14 15  2  0
 14 16  1  0
 16 17  1  0
 17 18  1  0
 18 19  1  0
 18 20  1  0
 18 21  1  0
  5 22  2  0
 22  2  1  0
  9  4  1  0
 16  8  1  0
  1 23  1  0
  1 24  1  0
  1 25  1  0
  3 26  1  0
  6 27  1  0
 13 28  1  0
 13 29  1  0
 13 30  1  0
 17 31  1  0
 17 32  1  0
 19 33  1  0
 19 34  1  0
 19 35  1  0
 20 36  1  0
 20 37  1  0
 20 38  1  0
 21 39  1  0
 21 40  1  0
 21 41  1  0
M  END
>  <UniqueID>  (13) 
12

>  <SMILES>  (13) 
Cn1cc2c(cnc3c2c(=O)n(C)c(=O)n3CC(C)(C)C)n1

>  <Energy>  (13) 
90.11069377646317

>  <Genealogy>  (13) 
Cn1cc2c(cnc3c2c(=O)n(C)c(=O)n3CC(C)(C)C)n1 (3D coordinates assigned)
Cn1cc2c(cnc3c2c(=O)n(C)c(=O)n3CC(C)(C)C)n1 (optimized conformer: 90.11069377646317 kcal/mol)

>  <smiles>  (13) 
Cn1cc2c(cnc3c2c(=O)n(C)c(=O)n3CC(C)(C)C)n1

>  <score_type>  (13) 
oracle

>  <origin>  (13) 
adg

>  <m_score__min__energy>  (13) 
-6.8099999999999996

>  <m_primary>  (13) 
energy

$$$$
14:0
     RDKit          3D

 29 29  0  0  0  0  0  0  0  0999 V2000
   55.5420   29.7050   45.9830 H   0  0  0  0  0  0  0  0  0  0  0  0
   55.7530   29.7510   44.9600 N   0  0  0  0  0  0  0  0  0  0  0  0
   56.4780   30.7000   44.4620 C   0  0  0  0  0  0  0  0  0  0  0  0
   56.7000   30.7460   43.1260 N   0  0  0  0  0  0  0  0  0  0  0  0
   57.4550   31.7350   42.5760 C   0  0  0  0  0  0  0  0  0  0  0  0
   57.6770   31.7840   41.1960 O   0  0  0  0  0  0  0  0  0  0  0  0
   57.0730   32.7600   40.3540 C   0  0  0  0  0  0  0  0  0  0  0  0
   56.5946   33.5330   40.9733 H   0  0  0  0  0  0  0  0  0  0  0  0
   57.8426   33.2232   39.7190 H   0  0  0  0  0  0  0  0  0  0  0  0
   56.3151   32.2779   39.7190 H   0  0  0  0  0  0  0  0  0  0  0  0
   58.0140   32.7170   43.3950 C   0  0  0  0  0  0  0  0  0  0  0  0
   58.6248   33.5231   42.9624 H   0  0  0  0  0  0  0  0  0  0  0  0
   57.7850   32.6610   44.7820 C   0  0  0  0  0  0  0  0  0  0  0  0
   58.3220   33.6490   45.6990 N   0  0  0  0  0  0  0  0  0  0  0  0
   58.9610   34.8460   45.1410 C   0  0  0  0  0  0  0  0  0  0  0  0
   59.3064   35.4931   45.9607 H   0  0  0  0  0  0  0  0  0  0  0  0
   59.8201   34.5482   44.5220 H   0  0  0  0  0  0  0  0  0  0  0  0
   58.2355   35.3941   44.5220 H   0  0  0  0  0  0  0  0  0  0  0  0
   58.2070   33.5350   47.1640 C   0  0  0  0  0  0  0  0  0  0  0  0
   57.2313   33.9348   47.4774 H   0  0  0  0  0  0  0  0  0  0  0  0
   58.3025   32.4730   47.4343 H   0  0  0  0  0  0  0  0  0  0  0  0
   59.3180   34.3140   47.8820 C   0  0  0  0  0  0  0  0  0  0  0  0
   59.3530   35.3341   47.4719 H   0  0  0  0  0  0  0  0  0  0  0  0
   59.0812   34.3132   48.9562 H   0  0  0  0  0  0  0  0  0  0  0  0
   60.6940   33.6740   47.7150 C   0  0  0  0  0  0  0  0  0  0  0  0
   61.1273   33.4725   48.7058 H   0  0  0  0  0  0  0  0  0  0  0  0
   60.5943   32.7298   47.1595 H   0  0  0  0  0  0  0  0  0  0  0  0
   61.3518   34.3586   47.1595 H   0  0  0  0  0  0  0  0  0  0  0  0
   57.0140   31.6500   45.2730 N   0  0  0  0  0  0  0  0  0  0  0  0
  1  2  1  0
  2  3  2  0
  3  4  1  0
  4  5  2  0
  5  6  1  0
  6  7  1  0
  7  8  1  0
  7  9  1  0
  7 10  1  0
  5 11  1  0
 11 12  1  0
 11 13  2  0
 13 14  1  0
 14 15  1  0
 15 16  1  0
 15 17  1  0
 15 18  1  0
 14 19  1  0
 19 20  1  0
 19 21  1  0
 19 22  1  0
 22 23  1  0
 22 24  1  0
 22 25  1  0
 25 26  1  0
 25 27  1  0
 25 28  1  0
 13 29  1  0
 29  3  1  0
M  CHG  1  29  -1
M  END
>  <UniqueID>  (14) 
13

>  <SMILES>  (14) 
[H]/N=c1/nc(OC)cc(N(C)CCC)[n-]1

>  <Energy>  (14) 
21.94818922339619

>  <Genealogy>  (14) 
CCCN(C)c1cc(OC)nc(=N)[n-]1 (protonated)
[H]/N=c1/nc(OC)cc(N(C)CCC)[n-]1 (cis-trans isomerization)
[H]/N=c1/nc(OC)cc(N(C)CCC)[n-]1 (3D coordinates assigned)
[H]/N=c1/nc(OC)cc(N(C)CCC)[n-]1 (optimized conformer: 21.94818922339619 kcal/mol)

>  <smiles>  (14) 
CCCN(C)c1cc(OC)nc(=N)[nH]1

>  <score_type>  (14) 
oracle

>  <origin>  (14) 
adg

>  <m_score__min__energy>  (14) 
-6.6900000000000004

>  <m_primary>  (14) 
energy

$$$$
15:0
     RDKit          3D

 23 23  0  0  0  0  0  0  0  0999 V2000
   55.5209   28.9832   43.2399 H   0  0  0  0  0  0  0  0  0  0  0  0
   56.2300   29.3070   44.0160 C   0  0  0  0  0  0  0  0  0  0  0  0
   57.3690   30.0930   43.6320 N   0  0  0  0  0  0  0  0  0  0  0  0
   57.7930   29.8860   42.7010 H   0  0  0  0  0  0  0  0  0  0  0  0
   57.8460   31.2400   44.3620 C   0  0  0  0  0  0  0  0  0  0  0  0
   57.9590   31.1960   45.7640 C   0  0  0  0  0  0  0  0  0  0  0  0
   57.6928   30.2745   46.3026 H   0  0  0  0  0  0  0  0  0  0  0  0
   58.4060   32.3110   46.4800 C   0  0  0  0  0  0  0  0  0  0  0  0
   58.5430   32.2000   48.2300 Cl  0  0  0  0  0  0  0  0  0  0  0  0
   58.7320   33.4940   45.8000 C   0  0  0  0  0  0  0  0  0  0  0  0
   59.2980   34.9180   46.6630 Cl  0  0  0  0  0  0  0  0  0  0  0  0
   58.6050   33.5530   44.4080 C   0  0  0  0  0  0  0  0  0  0  0  0
   58.8563   34.4822   43.8757 H   0  0  0  0  0  0  0  0  0  0  0  0
   58.1600   32.4370   43.6870 C   0  0  0  0  0  0  0  0  0  0  0  0
   58.0580   32.5300   42.2510 C   0  0  0  0  0  0  0  0  0  0  0  0
   57.9770   32.6050   41.0990 N   0  0  0  0  0  0  0  0  0  0  0  0
   56.0100   28.9660   45.2500 N   0  0  0  0  0  0  0  0  0  0  0  0
   55.8620   29.7190   45.9620 H   0  0  0  0  0  0  0  0  0  0  0  0
   55.9080   27.6430   45.6260 O   0  0  0  0  0  0  0  0  0  0  0  0
   57.0540   26.9020   46.0190 C   0  0  0  0  0  0  0  0  0  0  0  0
   57.1089   26.8665   47.1171 H   0  0  0  0  0  0  0  0  0  0  0  0
   56.9827   25.8786   45.6222 H   0  0  0  0  0  0  0  0  0  0  0  0
   57.9581   27.3870   45.6222 H   0  0  0  0  0  0  0  0  0  0  0  0
  1  2  1  0
  2  3  1  0
  3  4  1  0
  3  5  1  0
  5  6  2  0
  6  7  1  0
  6  8  1  0
  8  9  1  0
  8 10  2  0
 10 11  1  0
 10 12  1  0
 12 13  1  0
 12 14  2  0
 14 15  1  0
 15 16  3  0
  2 17  2  0
 17 18  1  0
 17 19  1  0
 19 20  1  0
 20 21  1  0
 20 22  1  0
 20 23  1  0
 14  5  1  0
M  CHG  1  17   1
M  END
>  <UniqueID>  (15) 
14

>  <SMILES>  (15) 
CO/[NH+]=C\Nc1cc(Cl)c(Cl)cc1C#N

>  <Energy>  (15) 
24.036729401787305

>  <Genealogy>  (15) 
CO[NH+]=CNc1cc(Cl)c(Cl)cc1C#N (protonated)
CO/[NH+]=C\Nc1cc(Cl)c(Cl)cc1C#N (cis-trans isomerization)
CO/[NH+]=C\Nc1cc(Cl)c(Cl)cc1C#N (3D coordinates assigned)
CO/[NH+]=C\Nc1cc(Cl)c(Cl)cc1C#N (optimized conformer: 24.036729401787305 kcal/mol)

>  <smiles>  (15) 
CON=CNc1cc(Cl)c(Cl)cc1C#N

>  <score_type>  (15) 
oracle

>  <origin>  (15) 
adg

>  <m_score__min__energy>  (15) 
-4.9400000000000004

>  <m_primary>  (15) 
energy

$$$$
16:0
     RDKit          3D

 59 63  0  0  0  0  0  0  0  0999 V2000
   57.1640   30.8230   51.2820 C   0  0  0  0  0  0  0  0  0  0  0  0
   58.1280   30.0710   50.5530 O   0  0  0  0  0  0  0  0  0  0  0  0
   59.4420   29.8310   50.9840 C   0  0  0  0  0  0  0  0  0  0  0  0
   59.7840   29.7890   52.3500 C   0  0  0  0  0  0  0  0  0  0  0  0
   61.1080   29.5700   52.7390 C   0  0  0  0  0  0  0  0  0  0  0  0
   62.1020   29.3910   51.7770 C   0  0  0  0  0  0  0  0  0  0  0  0
   61.7750   29.4270   50.4190 C   0  0  0  0  0  0  0  0  0  0  0  0
   60.4480   29.6390   50.0160 C   0  0  0  0  0  0  0  0  0  0  0  0
   60.1230   29.6680   48.6170 N   0  0  0  0  0  0  0  0  0  0  0  0
   60.8280   30.6050   47.7310 C   0  0  0  0  0  0  0  0  0  0  0  0
   60.3080   30.5090   46.2940 C   0  0  0  0  0  0  0  0  0  0  0  0
   58.8370   30.4650   46.3000 N   0  0  0  0  0  0  0  0  0  0  0  0
   58.0500   31.3050   45.4330 C   0  0  0  0  0  0  0  0  0  0  0  0
   56.9400   30.8820   45.0060 O   0  0  0  0  0  0  0  0  0  0  0  0
   58.5360   32.6680   45.0080 C   0  0  0  0  0  0  0  0  0  0  0  0
   58.3370   33.7230   46.1050 C   0  0  0  0  0  0  0  0  0  0  0  0
   58.2960   33.0750   47.4920 C   0  0  0  0  0  0  0  0  0  0  0  0
   59.4390   33.5110   48.2890 N   0  0  0  0  0  0  0  0  0  0  0  0
   59.5770   33.3830   49.7160 C   0  0  0  0  0  0  0  0  0  0  0  0
   58.6230   33.1680   50.5090 O   0  0  0  0  0  0  0  0  0  0  0  0
   60.9890   33.4920   50.0830 C   0  0  0  0  0  0  0  0  0  0  0  0
   61.6910   33.4190   51.2850 C   0  0  0  0  0  0  0  0  0  0  0  0
   63.1030   33.5200   51.2300 C   0  0  0  0  0  0  0  0  0  0  0  0
   63.7730   33.6710   49.9860 C   0  0  0  0  0  0  0  0  0  0  0  0
   63.0260   33.7250   48.7930 C   0  0  0  0  0  0  0  0  0  0  0  0
   63.5650   33.8330   47.4970 C   0  0  0  0  0  0  0  0  0  0  0  0
   62.6970   33.8370   46.3730 C   0  0  0  0  0  0  0  0  0  0  0  0
   61.2940   33.7380   46.5380 C   0  0  0  0  0  0  0  0  0  0  0  0
   60.7930   33.6480   47.8390 C   0  0  0  0  0  0  0  0  0  0  0  0
   61.6500   33.6440   48.9020 C   0  0  0  0  0  0  0  0  0  0  0  0
   58.1450   29.4960   47.1650 C   0  0  0  0  0  0  0  0  0  0  0  0
   59.1240   28.7410   48.0720 C   0  0  0  0  0  0  0  0  0  0  0  0
   57.3345   30.6900   52.3605 H   0  0  0  0  0  0  0  0  0  0  0  0
   57.2587   31.8882   51.0244 H   0  0  0  0  0  0  0  0  0  0  0  0
   56.1539   30.4719   51.0244 H   0  0  0  0  0  0  0  0  0  0  0  0
   59.0051   29.9293   53.1139 H   0  0  0  0  0  0  0  0  0  0  0  0
   61.3673   29.5386   53.8075 H   0  0  0  0  0  0  0  0  0  0  0  0
   63.1436   29.2215   52.0875 H   0  0  0  0  0  0  0  0  0  0  0  0
   62.5615   29.2885   49.6625 H   0  0  0  0  0  0  0  0  0  0  0  0
   60.6758   31.6302   48.0995 H   0  0  0  0  0  0  0  0  0  0  0  0
   61.8971   30.3463   47.7317 H   0  0  0  0  0  0  0  0  0  0  0  0
   60.6451   31.3872   45.7239 H   0  0  0  0  0  0  0  0  0  0  0  0
   60.6977   29.5928   45.8264 H   0  0  0  0  0  0  0  0  0  0  0  0
   59.6078   32.6032   44.7691 H   0  0  0  0  0  0  0  0  0  0  0  0
   57.9482   32.9777   44.1313 H   0  0  0  0  0  0  0  0  0  0  0  0
   59.1696   34.4409   46.0683 H   0  0  0  0  0  0  0  0  0  0  0  0
   57.3785   34.2333   45.9293 H   0  0  0  0  0  0  0  0  0  0  0  0
   57.3658   33.3669   48.0015 H   0  0  0  0  0  0  0  0  0  0  0  0
   58.3358   31.9817   47.3775 H   0  0  0  0  0  0  0  0  0  0  0  0
   61.1668   33.2875   52.2431 H   0  0  0  0  0  0  0  0  0  0  0  0
   63.6875   33.4811   52.1611 H   0  0  0  0  0  0  0  0  0  0  0  0
   64.8700   33.7454   49.9548 H   0  0  0  0  0  0  0  0  0  0  0  0
   64.6529   33.9139   47.3557 H   0  0  0  0  0  0  0  0  0  0  0  0
   63.1201   33.9181   45.3609 H   0  0  0  0  0  0  0  0  0  0  0  0
   60.6197   33.7321   45.6689 H   0  0  0  0  0  0  0  0  0  0  0  0
   57.4201   30.0341   47.7935 H   0  0  0  0  0  0  0  0  0  0  0  0
   57.6407   28.7613   46.5200 H   0  0  0  0  0  0  0  0  0  0  0  0
   58.5686   28.2765   48.9001 H   0  0  0  0  0  0  0  0  0  0  0  0
   59.6356   27.9653   47.4832 H   0  0  0  0  0  0  0  0  0  0  0  0
  1  2  1  0
  2  3  1  0
  3  4  2  0
  4  5  1  0
  5  6  2  0
  6  7  1  0
  7  8  2  0
  8  9  1  0
  9 10  1  0
 10 11  1  0
 11 12  1  0
 12 13  1  0
 13 14  2  0
 13 15  1  0
 15 16  1  0
 16 17  1  0
 17 18  1  0
 18 19  1  0
 19 20  2  0
 19 21  1  0
 21 22  1  0
 22 23  2  0
 23 24  1  0
 24 25  2  0
 25 26  1  0
 26 27  2  0
 27 28  1  0
 28 29  2  0
 29 30  1  0
 12 31  1  0
 31 32  1  0
  8  3  1  0
 32  9  1  0
 29 18  1  0
 30 21  2  0
 30 25  1  0
  1 33  1  0
  1 34  1  0
  1 35  1  0
  4 36  1  0
  5 37  1  0
  6 38  1  0
  7 39  1  0
 10 40  1  0
 10 41  1  0
 11 42  1  0
 11 43  1  0
 15 44  1  0
 15 45  1  0
 16 46  1  0
 16 47  1  0
 17 48  1  0
 17 49  1  0
 22 50  1  0
 23 51  1  0
 24 52  1  0
 26 53  1  0
 27 54  1  0
 28 55  1  0
 31 56  1  0
 31 57  1  0
 32 58  1  0
 32 59  1  0
M  END
>  <UniqueID>  (16) 
15

>  <SMILES>  (16) 
COc1ccccc1N1CCN(C(=O)CCCN2C(=O)c3cccc4cccc2c34)CC1

>  <Energy>  (16) 
108.0755428106071

>  <Genealogy>  (16) 
COc1ccccc1N1CCN(C(=O)CCCN2C(=O)c3cccc4cccc2c34)CC1 (3D coordinates assigned)
COc1ccccc1N1CCN(C(=O)CCCN2C(=O)c3cccc4cccc2c34)CC1 (nonaromatic ring conformer: 108.0755428106071 kcal/mol)

>  <smiles>  (16) 
COc1ccccc1N1CCN(C(=O)CCCN2C(=O)c3cccc4cccc2c34)CC1

>  <score_type>  (16) 
oracle

>  <origin>  (16) 
adg

>  <m_score__min__energy>  (16) 
-9.1199999999999992

>  <m_primary>  (16) 
energy

$$$$
17:0
     RDKit          3D

 51 55  0  0  0  0  0  0  0  0999 V2000
   59.6920   29.2540   49.0350 C   0  0  0  0  0  0  0  0  0  0  0  0
   60.8730   29.6070   49.8710 C   0  0  0  0  0  0  0  0  0  0  0  0
   61.0410   29.2110   51.1490 N   0  0  0  0  0  0  0  0  0  0  0  0
   62.1850   29.7500   51.5350 N   0  0  0  0  0  0  0  0  0  0  0  0
   62.6750   30.4540   50.4960 C   0  0  0  0  0  0  0  0  0  0  0  0
   63.9290   31.2410   50.5000 C   0  0  0  0  0  0  0  0  0  0  0  0
   64.9850   30.7960   51.3130 C   0  0  0  0  0  0  0  0  0  0  0  0
   66.2020   31.4800   51.3340 C   0  0  0  0  0  0  0  0  0  0  0  0
   66.3780   32.6230   50.5550 C   0  0  0  0  0  0  0  0  0  0  0  0
   65.3310   33.0940   49.7610 C   0  0  0  0  0  0  0  0  0  0  0  0
   64.1000   32.4170   49.7230 C   0  0  0  0  0  0  0  0  0  0  0  0
   62.9900   33.0170   48.9460 C   0  0  0  0  0  0  0  0  0  0  0  0
   62.0820   33.8590   49.6070 C   0  0  0  0  0  0  0  0  0  0  0  0
   61.0380   34.4650   48.9070 C   0  0  0  0  0  0  0  0  0  0  0  0
   60.8950   34.2470   47.5350 C   0  0  0  0  0  0  0  0  0  0  0  0
   59.5720   35.0540   46.6330 S   0  0  0  0  0  0  0  0  0  0  0  0
   58.8660   33.4930   46.1010 C   0  0  0  0  0  0  0  0  0  0  0  0
   58.7540   32.4320   47.0060 C   0  0  0  0  0  0  0  0  0  0  0  0
   58.2190   31.2090   46.5950 C   0  0  0  0  0  0  0  0  0  0  0  0
   57.7880   31.0370   45.2710 C   0  0  0  0  0  0  0  0  0  0  0  0
   57.2520   29.8130   44.8450 C   0  0  0  0  0  0  0  0  0  0  0  0
   56.8280   29.6540   43.5220 C   0  0  0  0  0  0  0  0  0  0  0  0
   56.9340   30.7150   42.6170 C   0  0  0  0  0  0  0  0  0  0  0  0
   57.4670   31.9410   43.0280 C   0  0  0  0  0  0  0  0  0  0  0  0
   57.8970   32.1120   44.3540 C   0  0  0  0  0  0  0  0  0  0  0  0
   58.4340   33.3360   44.7790 C   0  0  0  0  0  0  0  0  0  0  0  0
   61.7880   33.4050   46.8640 C   0  0  0  0  0  0  0  0  0  0  0  0
   62.8330   32.7720   47.5600 C   0  0  0  0  0  0  0  0  0  0  0  0
   63.7690   31.8640   46.8080 C   0  0  0  0  0  0  0  0  0  0  0  0
   61.8600   30.3750   49.4700 O   0  0  0  0  0  0  0  0  0  0  0  0
   58.8435   29.0004   49.6875 H   0  0  0  0  0  0  0  0  0  0  0  0
   59.4229   30.1110   48.4000 H   0  0  0  0  0  0  0  0  0  0  0  0
   59.9373   28.3899   48.4000 H   0  0  0  0  0  0  0  0  0  0  0  0
   62.5820   29.6620   52.4950 H   0  0  0  0  0  0  0  0  0  0  0  0
   64.8518   29.9009   51.9384 H   0  0  0  0  0  0  0  0  0  0  0  0
   67.0246   31.1160   51.9671 H   0  0  0  0  0  0  0  0  0  0  0  0
   67.3416   33.1534   50.5662 H   0  0  0  0  0  0  0  0  0  0  0  0
   65.4708   34.0040   49.1591 H   0  0  0  0  0  0  0  0  0  0  0  0
   62.1944   34.0426   50.6857 H   0  0  0  0  0  0  0  0  0  0  0  0
   60.3265   35.1155   49.4367 H   0  0  0  0  0  0  0  0  0  0  0  0
   59.0887   32.5615   48.0458 H   0  0  0  0  0  0  0  0  0  0  0  0
   58.1354   30.3784   47.3113 H   0  0  0  0  0  0  0  0  0  0  0  0
   57.1649   28.9760   45.5534 H   0  0  0  0  0  0  0  0  0  0  0  0
   56.4098   28.6916   43.1921 H   0  0  0  0  0  0  0  0  0  0  0  0
   56.5969   30.5848   41.5781 H   0  0  0  0  0  0  0  0  0  0  0  0
   57.5495   32.7720   42.3121 H   0  0  0  0  0  0  0  0  0  0  0  0
   58.5158   34.1745   44.0717 H   0  0  0  0  0  0  0  0  0  0  0  0
   61.6718   33.2367   45.7832 H   0  0  0  0  0  0  0  0  0  0  0  0
   64.3688   31.2821   47.5232 H   0  0  0  0  0  0  0  0  0  0  0  0
   63.1857   31.1785   46.1756 H   0  0  0  0  0  0  0  0  0  0  0  0
   64.4364   32.4679   46.1756 H   0  0  0  0  0  0  0  0  0  0  0  0
  1  2  1  0
  2  3  2  0
  3  4  1  0
  4  5  2  0
  5  6  1  0
  6  7  2  0
  7  8  1  0
  8  9  2  0
  9 10  1  0
 10 11  2  0
 11 12  1  0
 12 13  2  0
 13 14  1  0
 14 15  2  0
 15 16  1  0
 16 17  1  0
 17 18  2  0
 18 19  1  0
 19 20  2  0
 20 21  1  0
 21 22  2  0
 22 23  1  0
 23 24  2  0
 24 25  1  0
 25 26  2  0
 15 27  1  0
 27 28  2  0
 28 29  1  0
  5 30  1  0
 30  2  1  0
 11  6  1  0
 28 12  1  0
 26 17  1  0
 25 20  1  0
  1 31  1  0
  1 32  1  0
  1 33  1  0
  4 34  1  0
  7 35  1  0
  8 36  1  0
  9 37  1  0
 10 38  1  0
 13 39  1  0
 14 40  1  0
 18 41  1  0
 19 42  1  0
 21 43  1  0
 22 44  1  0
 23 45  1  0
 24 46  1  0
 26 47  1  0
 27 48  1  0
 29 49  1  0
 29 50  1  0
 29 51  1  0
M  CHG  1   4   1
M  END
>  <UniqueID>  (17) 
16

>  <SMILES>  (17) 
Cc1n[nH+]c(-c2ccccc2-c2ccc(Sc3ccc4ccccc4c3)cc2C)o1

>  <Energy>  (17) 
100.60821319571501

>  <Genealogy>  (17) 
Cc1n[nH+]c(-c2ccccc2-c2ccc(Sc3ccc4ccccc4c3)cc2C)o1 (protonated)
Cc1n[nH+]c(-c2ccccc2-c2ccc(Sc3ccc4ccccc4c3)cc2C)o1 (3D coordinates assigned)
Cc1n[nH+]c(-c2ccccc2-c2ccc(Sc3ccc4ccccc4c3)cc2C)o1 (optimized conformer: 100.60821319571501 kcal/mol)

>  <smiles>  (17) 
Cc1nnc(-c2ccccc2-c2ccc(Sc3ccc4ccccc4c3)cc2C)o1

>  <score_type>  (17) 
oracle

>  <origin>  (17) 
adg

>  <m_score__min__energy>  (17) 
-8.5999999999999996

>  <m_primary>  (17) 
energy

$$$$
19:0
     RDKit          3D

 54 57  0  0  0  0  0  0  0  0999 V2000
   69.0770   32.3050   52.7300 C   0  0  0  0  0  0  0  0  0  0  0  0
   67.6510   32.0750   53.2320 C   0  0  0  0  0  0  0  0  0  0  0  0
   66.6630   32.2720   52.1490 N   0  0  0  0  0  0  0  0  0  0  0  0
   65.5380   33.1400   52.5820 C   0  0  0  0  0  0  0  0  0  0  0  0
   64.8550   33.9120   51.4300 C   0  0  0  0  0  0  0  0  0  0  0  0
   65.0200   33.2330   50.1320 N   0  0  0  0  0  0  0  0  0  0  0  0
   63.9590   33.2830   49.1450 C   0  0  0  0  0  0  0  0  0  0  0  0
   62.6640   33.4260   49.5490 N   0  0  0  0  0  0  0  0  0  0  0  0
   61.6400   33.4770   48.6600 C   0  0  0  0  0  0  0  0  0  0  0  0
   60.3220   33.6140   49.1070 C   0  0  0  0  0  0  0  0  0  0  0  0
   59.2720   33.6620   48.1850 C   0  0  0  0  0  0  0  0  0  0  0  0
   59.5340   33.5800   46.8090 C   0  0  0  0  0  0  0  0  0  0  0  0
   58.2150   33.6130   45.6460 S   0  0  0  0  0  0  0  0  0  0  0  0
   56.9810   34.2020   46.2720 O   0  0  0  0  0  0  0  0  0  0  0  0
   58.5980   34.4700   44.4720 O   0  0  0  0  0  0  0  0  0  0  0  0
   57.8820   31.9690   45.1140 C   0  0  0  0  0  0  0  0  0  0  0  0
   57.3940   31.7310   43.8230 C   0  0  0  0  0  0  0  0  0  0  0  0
   57.1470   30.4230   43.3970 C   0  0  0  0  0  0  0  0  0  0  0  0
   57.3920   29.3490   44.2560 C   0  0  0  0  0  0  0  0  0  0  0  0
   57.8900   29.5690   45.5460 C   0  0  0  0  0  0  0  0  0  0  0  0
   58.1240   28.4570   46.3680 O   0  0  0  0  0  0  0  0  0  0  0  0
   58.4420   27.1540   45.8870 C   0  0  0  0  0  0  0  0  0  0  0  0
   58.1370   30.8890   45.9720 C   0  0  0  0  0  0  0  0  0  0  0  0
   60.8540   33.4380   46.3590 C   0  0  0  0  0  0  0  0  0  0  0  0
   61.9070   33.3880   47.2840 C   0  0  0  0  0  0  0  0  0  0  0  0
   63.2360   33.2420   46.8780 C   0  0  0  0  0  0  0  0  0  0  0  0
   64.2310   33.1910   47.8050 N   0  0  0  0  0  0  0  0  0  0  0  0
   66.3460   32.7090   49.7710 C   0  0  0  0  0  0  0  0  0  0  0  0
   67.3220   32.8000   50.9440 C   0  0  0  0  0  0  0  0  0  0  0  0
   69.7550   32.4144   53.5892 H   0  0  0  0  0  0  0  0  0  0  0  0
   69.3939   31.4464   52.1198 H   0  0  0  0  0  0  0  0  0  0  0  0
   69.1079   33.2197   52.1198 H   0  0  0  0  0  0  0  0  0  0  0  0
   67.5662   31.0462   53.6119 H   0  0  0  0  0  0  0  0  0  0  0  0
   67.4417   32.8024   54.0302 H   0  0  0  0  0  0  0  0  0  0  0  0
   64.7817   32.5073   53.0695 H   0  0  0  0  0  0  0  0  0  0  0  0
   65.9632   33.8944   53.2603 H   0  0  0  0  0  0  0  0  0  0  0  0
   63.7808   34.0000   51.6501 H   0  0  0  0  0  0  0  0  0  0  0  0
   65.3303   34.9013   51.3572 H   0  0  0  0  0  0  0  0  0  0  0  0
   60.1113   33.6840   50.1844 H   0  0  0  0  0  0  0  0  0  0  0  0
   58.2359   33.7645   48.5399 H   0  0  0  0  0  0  0  0  0  0  0  0
   57.2048   32.5749   43.1432 H   0  0  0  0  0  0  0  0  0  0  0  0
   56.7592   30.2391   42.3842 H   0  0  0  0  0  0  0  0  0  0  0  0
   57.1921   28.3221   43.9162 H   0  0  0  0  0  0  0  0  0  0  0  0
   58.6068   26.4786   46.7394 H   0  0  0  0  0  0  0  0  0  0  0  0
   57.6098   26.7758   45.2751 H   0  0  0  0  0  0  0  0  0  0  0  0
   59.3549   27.2017   45.2751 H   0  0  0  0  0  0  0  0  0  0  0  0
   58.5316   31.0735   46.9821 H   0  0  0  0  0  0  0  0  0  0  0  0
   61.0637   33.3659   45.2816 H   0  0  0  0  0  0  0  0  0  0  0  0
   63.4783   33.1682   45.8076 H   0  0  0  0  0  0  0  0  0  0  0  0
   65.2070   33.0780   47.4530 H   0  0  0  0  0  0  0  0  0  0  0  0
   66.2446   31.6555   49.4711 H   0  0  0  0  0  0  0  0  0  0  0  0
   66.7432   33.3150   48.9433 H   0  0  0  0  0  0  0  0  0  0  0  0
   68.2214   32.2062   50.7239 H   0  0  0  0  0  0  0  0  0  0  0  0
   67.6157   33.8476   51.1064 H   0  0  0  0  0  0  0  0  0  0  0  0
  1  2  1  0
  2  3  1  0
  3  4  1  0
  4  5  1  0
  5  6  1  0
  6  7  1  0
  7  8  2  0
  8  9  1  0
  9 10  2  0
 10 11  1  0
 11 12  2  0
 12 13  1  0
 13 14  2  0
 13 15  2  0
 13 16  1  0
 16 17  2  0
 17 18  1  0
 18 19  2  0
 19 20  1  0
 20 21  1  0
 21 22  1  0
 20 23  2  0
 12 24  1  0
 24 25  2  0
 25 26  1  0
 26 27  2  0
  6 28  1  0
 28 29  1  0
 29  3  1  0
 27  7  1  0
 25  9  1  0
 23 16  1  0
  1 30  1  0
  1 31  1  0
  1 32  1  0
  2 33  1  0
  2 34  1  0
  4 35  1  0
  4 36  1  0
  5 37  1  0
  5 38  1  0
 10 39  1  0
 11 40  1  0
 17 41  1  0
 18 42  1  0
 19 43  1  0
 22 44  1  0
 22 45  1  0
 22 46  1  0
 23 47  1  0
 24 48  1  0
 26 49  1  0
 27 50  1  0
 28 51  1  0
 28 52  1  0
 29 53  1  0
 29 54  1  0
M  CHG  1  27   1
M  END
>  <UniqueID>  (18) 
17

>  <SMILES>  (18) 
CCN1CCN(c2nc3ccc(S(=O)(=O)c4cccc(OC)c4)cc3c[nH+]2)CC1

>  <Energy>  (18) 
67.01247015969969

>  <Genealogy>  (18) 
CCN1CCN(c2nc3ccc(S(=O)(=O)c4cccc(OC)c4)cc3c[nH+]2)CC1 (protonated)
CCN1CCN(c2nc3ccc(S(=O)(=O)c4cccc(OC)c4)cc3c[nH+]2)CC1 (3D coordinates assigned)
CCN1CCN(c2nc3ccc(S(=O)(=O)c4cccc(OC)c4)cc3c[nH+]2)CC1 (nonaromatic ring conformer: 67.01247015969969 kcal/mol)

>  <smiles>  (18) 
CCN1CCN(c2ncc3cc(S(=O)(=O)c4cccc(OC)c4)ccc3n2)CC1

>  <score_type>  (18) 
oracle

>  <origin>  (18) 
adg

>  <m_score__min__energy>  (18) 
-8.0399999999999991

>  <m_primary>  (18) 
energy

$$$$
20:0
     RDKit          3D

 48 50  0  0  0  0  0  0  0  0999 V2000
   63.3860   31.9580   47.1190 C   0  0  0  0  0  0  0  0  0  0  0  0
   63.0970   33.4480   47.2910 C   0  0  0  0  0  0  0  0  0  0  0  0
   63.0300   33.8480   48.7680 C   0  0  0  0  0  0  0  0  0  0  0  0
   61.7260   34.4670   49.0660 N   0  0  0  0  0  0  0  0  0  0  0  0
   60.6260   33.4980   49.3260 C   0  0  0  0  0  0  0  0  0  0  0  0
   59.9460   33.0610   48.0060 C   0  0  0  0  0  0  0  0  0  0  0  0
   59.9460   31.6970   47.6400 C   0  0  0  0  0  0  0  0  0  0  0  0
   59.3090   31.2580   46.4790 C   0  0  0  0  0  0  0  0  0  0  0  0
   58.6190   32.1620   45.6560 C   0  0  0  0  0  0  0  0  0  0  0  0
   57.9410   31.6930   44.4210 C   0  0  0  0  0  0  0  0  0  0  0  0
   57.1230   30.5500   44.4420 C   0  0  0  0  0  0  0  0  0  0  0  0
   56.4950   30.1270   43.2680 C   0  0  0  0  0  0  0  0  0  0  0  0
   56.6720   30.8180   42.1110 N   0  0  0  0  0  0  0  0  0  0  0  0
   57.4550   31.9270   42.0570 C   0  0  0  0  0  0  0  0  0  0  0  0
   58.1040   32.3850   43.2070 C   0  0  0  0  0  0  0  0  0  0  0  0
   58.5700   33.5120   46.0330 C   0  0  0  0  0  0  0  0  0  0  0  0
   59.2090   33.9540   47.1940 C   0  0  0  0  0  0  0  0  0  0  0  0
   61.2420   32.2090   49.9640 C   0  0  0  0  0  0  0  0  0  0  0  0
   61.4820   32.3660   51.4700 C   0  0  0  0  0  0  0  0  0  0  0  0
   60.1580   32.5620   52.2340 C   0  0  0  0  0  0  0  0  0  0  0  0
   59.0520   33.1990   51.3720 C   0  0  0  0  0  0  0  0  0  0  0  0
   59.6430   34.1810   50.3500 C   0  0  0  0  0  0  0  0  0  0  0  0
   63.4776   31.4857   48.1082 H   0  0  0  0  0  0  0  0  0  0  0  0
   62.5625   31.4866   46.5625 H   0  0  0  0  0  0  0  0  0  0  0  0
   64.3260   31.8287   46.5625 H   0  0  0  0  0  0  0  0  0  0  0  0
   63.8961   34.0244   46.8020 H   0  0  0  0  0  0  0  0  0  0  0  0
   62.1192   33.6614   46.8344 H   0  0  0  0  0  0  0  0  0  0  0  0
   63.1593   32.9526   49.3937 H   0  0  0  0  0  0  0  0  0  0  0  0
   63.8298   34.5723   48.9817 H   0  0  0  0  0  0  0  0  0  0  0  0
   61.8510   35.1400   49.8580 H   0  0  0  0  0  0  0  0  0  0  0  0
   60.4584   30.9663   48.2830 H   0  0  0  0  0  0  0  0  0  0  0  0
   59.3478   30.1932   46.2058 H   0  0  0  0  0  0  0  0  0  0  0  0
   56.9781   29.9913   45.3784 H   0  0  0  0  0  0  0  0  0  0  0  0
   55.8554   29.2321   43.2800 H   0  0  0  0  0  0  0  0  0  0  0  0
   57.5785   32.4657   41.1059 H   0  0  0  0  0  0  0  0  0  0  0  0
   58.7391   33.2821   43.1631 H   0  0  0  0  0  0  0  0  0  0  0  0
   58.0218   34.2314   45.4070 H   0  0  0  0  0  0  0  0  0  0  0  0
   59.1378   35.0135   47.4811 H   0  0  0  0  0  0  0  0  0  0  0  0
   60.5515   31.3684   49.8011 H   0  0  0  0  0  0  0  0  0  0  0  0
   62.2149   32.0267   49.4843 H   0  0  0  0  0  0  0  0  0  0  0  0
   61.9830   31.4628   51.8484 H   0  0  0  0  0  0  0  0  0  0  0  0
   62.1082   33.2562   51.6294 H   0  0  0  0  0  0  0  0  0  0  0  0
   59.8071   31.5800   52.5841 H   0  0  0  0  0  0  0  0  0  0  0  0
   60.3597   33.2489   53.0691 H   0  0  0  0  0  0  0  0  0  0  0  0
   58.5121   32.4045   50.8360 H   0  0  0  0  0  0  0  0  0  0  0  0
   58.3693   33.7525   52.0335 H   0  0  0  0  0  0  0  0  0  0  0  0
   58.8162   34.6393   49.7876 H   0  0  0  0  0  0  0  0  0  0  0  0
   60.2247   34.9260   50.9127 H   0  0  0  0  0  0  0  0  0  0  0  0
  1  2  1  0
  2  3  1  0
  3  4  1  0
  4  5  1  0
  5  6  1  0
  6  7  2  0
  7  8  1  0
  8  9  2  0
  9 10  1  0
 10 11  2  0
 11 12  1  0
 12 13  2  0
 13 14  1  0
 14 15  2  0
  9 16  1  0
 16 17  2  0
  5 18  1  0
 18 19  1  0
 19 20  1  0
 20 21  1  0
 21 22  1  0
 22  5  1  0
 17  6  1  0
 15 10  1  0
  1 23  1  0
  1 24  1  0
  1 25  1  0
  2 26  1  0
  2 27  1  0
  3 28  1  0
  3 29  1  0
  4 30  1  0
  7 31  1  0
  8 32  1  0
 11 33  1  0
 12 34  1  0
 14 35  1  0
 15 36  1  0
 16 37  1  0
 17 38  1  0
 18 39  1  0
 18 40  1  0
 19 41  1  0
 19 42  1  0
 20 43  1  0
 20 44  1  0
 21 45  1  0
 21 46  1  0
 22 47  1  0
 22 48  1  0
M  END
>  <UniqueID>  (19) 
18

>  <SMILES>  (19) 
CCCNC1(c2ccc(-c3ccncc3)cc2)CCCCC1

>  <Energy>  (19) 
63.54982977598939

>  <Genealogy>  (19) 
CCCNC1(c2ccc(-c3ccncc3)cc2)CCCCC1 (3D coordinates assigned)
CCCNC1(c2ccc(-c3ccncc3)cc2)CCCCC1 (nonaromatic ring conformer: 63.54982977598939 kcal/mol)

>  <smiles>  (19) 
CCCNC1(c2ccc(-c3ccncc3)cc2)CCCCC1

>  <score_type>  (19) 
oracle

>  <origin>  (19) 
adg

>  <m_score__min__energy>  (19) 
-7.6900000000000004

>  <m_primary>  (19) 
energy

$$$$
21:0
     RDKit          3D

 35 36  0  0  0  0  0  0  0  0999 V2000
   58.1310   26.7360   42.4670 C   0  0  0  0  0  0  0  0  0  0  0  0
   58.1440   27.4040   43.8440 C   0  0  0  0  0  0  0  0  0  0  0  0
   58.0670   28.8760   43.7460 N   0  0  0  0  0  0  0  0  0  0  0  0
   56.7990   29.3460   43.1450 C   0  0  0  0  0  0  0  0  0  0  0  0
   56.1410   30.4850   43.9410 C   0  0  0  0  0  0  0  0  0  0  0  0
   56.8690   30.7750   45.1370 O   0  0  0  0  0  0  0  0  0  0  0  0
   57.7100   31.8800   45.3670 C   0  0  0  0  0  0  0  0  0  0  0  0
   57.3720   33.1820   44.9410 C   0  0  0  0  0  0  0  0  0  0  0  0
   58.2100   34.2610   45.2280 C   0  0  0  0  0  0  0  0  0  0  0  0
   59.3920   34.0620   45.9370 C   0  0  0  0  0  0  0  0  0  0  0  0
   59.7490   32.7790   46.3510 C   0  0  0  0  0  0  0  0  0  0  0  0
   58.9270   31.6770   46.0590 C   0  0  0  0  0  0  0  0  0  0  0  0
   59.3360   30.3320   46.5270 C   0  0  0  0  0  0  0  0  0  0  0  0
   58.8910   29.6750   47.6720 C   0  0  0  0  0  0  0  0  0  0  0  0
   59.4540   28.4040   47.8400 C   0  0  0  0  0  0  0  0  0  0  0  0
   60.3390   28.0470   46.8320 C   0  0  0  0  0  0  0  0  0  0  0  0
   60.4160   29.3130   45.7300 S   0  0  0  0  0  0  0  0  0  0  0  0
   58.1097   25.6431   42.5898 H   0  0  0  0  0  0  0  0  0  0  0  0
   57.2390   27.0599   41.9107 H   0  0  0  0  0  0  0  0  0  0  0  0
   59.0349   27.0249   41.9107 H   0  0  0  0  0  0  0  0  0  0  0  0
   57.2819   27.0411   44.4229 H   0  0  0  0  0  0  0  0  0  0  0  0
   59.0923   27.1456   44.3379 H   0  0  0  0  0  0  0  0  0  0  0  0
   58.8840   29.2240   43.1950 H   0  0  0  0  0  0  0  0  0  0  0  0
   58.1660   29.2930   44.7020 H   0  0  0  0  0  0  0  0  0  0  0  0
   57.0063   29.7050   42.1261 H   0  0  0  0  0  0  0  0  0  0  0  0
   56.0997   28.4969   43.1477 H   0  0  0  0  0  0  0  0  0  0  0  0
   56.1093   31.3880   43.3137 H   0  0  0  0  0  0  0  0  0  0  0  0
   55.1257   30.1687   44.2222 H   0  0  0  0  0  0  0  0  0  0  0  0
   56.4413   33.3480   44.3786 H   0  0  0  0  0  0  0  0  0  0  0  0
   57.9357   35.2722   44.8929 H   0  0  0  0  0  0  0  0  0  0  0  0
   60.0440   34.9167   46.1704 H   0  0  0  0  0  0  0  0  0  0  0  0
   60.6833   32.6280   46.9117 H   0  0  0  0  0  0  0  0  0  0  0  0
   58.1675   30.1123   48.3758 H   0  0  0  0  0  0  0  0  0  0  0  0
   59.2170   27.7493   48.6916 H   0  0  0  0  0  0  0  0  0  0  0  0
   60.8938   27.0994   46.7661 H   0  0  0  0  0  0  0  0  0  0  0  0
  1  2  1  0
  2  3  1  0
  3  4  1  0
  4  5  1  0
  5  6  1  0
  6  7  1  0
  7  8  2  0
  8  9  1  0
  9 10  2  0
 10 11  1  0
 11 12  2  0
 12 13  1  0
 13 14  2  0
 14 15  1  0
 15 16  2  0
 16 17  1  0
 12  7  1  0
 17 13  1  0
  1 18  1  0
  1 19  1  0
  1 20  1  0
  2 21  1  0
  2 22  1  0
  3 23  1  0
  3 24  1  0
  4 25  1  0
  4 26  1  0
  5 27  1  0
  5 28  1  0
  8 29  1  0
  9 30  1  0
 10 31  1  0
 11 32  1  0
 14 33  1  0
 15 34  1  0
 16 35  1  0
M  CHG  1   3   1
M  END
>  <UniqueID>  (20) 
19

>  <SMILES>  (20) 
CC[NH2+]CCOc1ccccc1-c1cccs1

>  <Energy>  (20) 
66.26503383984029

>  <Genealogy>  (20) 
CC[NH2+]CCOc1ccccc1-c1cccs1 (protonated)
CC[NH2+]CCOc1ccccc1-c1cccs1 (3D coordinates assigned)
CC[NH2+]CCOc1ccccc1-c1cccs1 (optimized conformer: 66.26503383984029 kcal/mol)

>  <smiles>  (20) 
CCNCCOc1ccccc1-c1cccs1

>  <score_type>  (20) 
oracle

>  <origin>  (20) 
adg

>  <m_score__min__energy>  (20) 
-4.7599999999999998

>  <m_primary>  (20) 
energy

$$$$
22:0
     RDKit          3D

 51 53  0  0  0  0  0  0  0  0999 V2000
   61.0730   28.3360   44.9760 O   0  0  0  0  0  0  0  0  0  0  0  0
   60.1670   28.3710   45.8530 C   0  0  0  0  0  0  0  0  0  0  0  0
   58.9150   27.5630   45.6460 C   0  0  0  0  0  0  0  0  0  0  0  0
   57.9740   28.1790   44.5960 C   0  0  0  0  0  0  0  0  0  0  0  0
   57.2870   29.4860   45.0820 C   0  0  0  0  0  0  0  0  0  0  0  0
   55.9280   29.6910   44.4140 C   0  0  0  0  0  0  0  0  0  0  0  0
   56.2110   30.4490   43.1300 C   0  0  0  0  0  0  0  0  0  0  0  0
   57.4860   31.2480   43.3810 C   0  0  0  0  0  0  0  0  0  0  0  0
   58.0780   30.7400   44.6940 C   0  0  0  0  0  0  0  0  0  0  0  0
   60.3460   29.1860   47.0240 N   0  0  0  0  0  0  0  0  0  0  0  0
   59.6300   28.8580   48.2690 C   0  0  0  0  0  0  0  0  0  0  0  0
   58.8900   30.0730   48.8790 C   0  0  0  0  0  0  0  0  0  0  0  0
   59.8130   31.2000   49.3940 C   0  0  0  0  0  0  0  0  0  0  0  0
   60.2010   32.2130   48.3690 N   0  0  2  0  0  0  0  0  0  0  0  0
   59.3710   33.4450   48.4340 C   0  0  0  0  0  0  0  0  0  0  0  0
   58.7950   33.8640   47.1070 C   0  0  0  0  0  0  0  0  0  0  0  0
   59.4340   34.6400   46.1470 C   0  0  0  0  0  0  0  0  0  0  0  0
   58.6590   34.8480   45.0000 C   0  0  0  0  0  0  0  0  0  0  0  0
   57.4160   34.2310   45.0470 C   0  0  0  0  0  0  0  0  0  0  0  0
   57.2820   33.4240   46.5170 S   0  0  0  0  0  0  0  0  0  0  0  0
   60.3120   31.6990   46.9820 C   0  0  0  0  0  0  0  0  0  0  0  0
   61.1490   30.4120   46.9000 C   0  0  0  0  0  0  0  0  0  0  0  0
   59.1992   26.5535   45.3140 H   0  0  0  0  0  0  0  0  0  0  0  0
   58.3735   27.5407   46.6032 H   0  0  0  0  0  0  0  0  0  0  0  0
   58.5590   28.4065   43.6927 H   0  0  0  0  0  0  0  0  0  0  0  0
   57.1786   27.4451   44.3989 H   0  0  0  0  0  0  0  0  0  0  0  0
   57.2122   29.3646   46.1727 H   0  0  0  0  0  0  0  0  0  0  0  0
   55.4600   28.7208   44.1913 H   0  0  0  0  0  0  0  0  0  0  0  0
   55.2344   30.2421   45.0661 H   0  0  0  0  0  0  0  0  0  0  0  0
   56.3590   29.7462   42.2968 H   0  0  0  0  0  0  0  0  0  0  0  0
   55.3720   31.1068   42.8591 H   0  0  0  0  0  0  0  0  0  0  0  0
   58.1992   31.0901   42.5586 H   0  0  0  0  0  0  0  0  0  0  0  0
   57.2704   32.3252   43.4375 H   0  0  0  0  0  0  0  0  0  0  0  0
   59.1407   30.4903   44.5585 H   0  0  0  0  0  0  0  0  0  0  0  0
   58.0109   31.5071   45.4795 H   0  0  0  0  0  0  0  0  0  0  0  0
   58.8926   28.0710   48.0524 H   0  0  0  0  0  0  0  0  0  0  0  0
   60.3800   28.5272   49.0026 H   0  0  0  0  0  0  0  0  0  0  0  0
   58.2312   30.4961   48.1063 H   0  0  0  0  0  0  0  0  0  0  0  0
   58.3428   29.6952   49.7553 H   0  0  0  0  0  0  0  0  0  0  0  0
   59.2920   31.7221   50.2101 H   0  0  0  0  0  0  0  0  0  0  0  0
   60.7457   30.7125   49.7140 H   0  0  0  0  0  0  0  0  0  0  0  0
   61.1640   32.5350   48.6330 H   0  0  0  0  0  0  0  0  0  0  0  0
   58.5394   33.2659   49.1314 H   0  0  0  0  0  0  0  0  0  0  0  0
   60.0329   34.2585   48.7657 H   0  0  0  0  0  0  0  0  0  0  0  0
   60.4468   35.0495   46.2757 H   0  0  0  0  0  0  0  0  0  0  0  0
   59.0025   35.4443   44.1419 H   0  0  0  0  0  0  0  0  0  0  0  0
   56.6501   34.2642   44.2582 H   0  0  0  0  0  0  0  0  0  0  0  0
   59.3017   31.4884   46.6012 H   0  0  0  0  0  0  0  0  0  0  0  0
   60.8176   32.4673   46.3787 H   0  0  0  0  0  0  0  0  0  0  0  0
   61.6666   30.3935   45.9295 H   0  0  0  0  0  0  0  0  0  0  0  0
   61.8527   30.4270   47.7453 H   0  0  0  0  0  0  0  0  0  0  0  0
  1  2  2  0
  2  3  1  0
  3  4  1  0
  4  5  1  0
  5  6  1  0
  6  7  1  0
  7  8  1  0
  8  9  1  0
  2 10  1  0
 10 11  1  0
 11 12  1  0
 12 13  1  0
 13 14  1  0
 14 15  1  0
 15 16  1  0
 16 17  2  0
 17 18  1  0
 18 19  2  0
 19 20  1  0
 14 21  1  0
 21 22  1  0
  9  5  1  0
 22 10  1  0
 20 16  1  0
  3 23  1  0
  3 24  1  0
  4 25  1  0
  4 26  1  0
  5 27  1  0
  6 28  1  0
  6 29  1  0
  7 30  1  0
  7 31  1  0
  8 32  1  0
  8 33  1  0
  9 34  1  0
  9 35  1  0
 11 36  1  0
 11 37  1  0
 12 38  1  0
 12 39  1  0
 13 40  1  0
 13 41  1  0
 14 42  1  1
 15 43  1  0
 15 44  1  0
 17 45  1  0
 18 46  1  0
 19 47  1  0
 21 48  1  0
 21 49  1  0
 22 50  1  0
 22 51  1  0
M  CHG  1  14   1
M  END
>  <UniqueID>  (21) 
20

>  <SMILES>  (21) 
O=C(CCC1CCCC1)N1CCC[N@H+](Cc2cccs2)CC1

>  <Energy>  (21) 
92.88057362519878

>  <Genealogy>  (21) 
O=C(CCC1CCCC1)N1CCC[NH+](Cc2cccs2)CC1 (protonated)
O=C(CCC1CCCC1)N1CCC[N@H+](Cc2cccs2)CC1 (chirality)
O=C(CCC1CCCC1)N1CCC[N@H+](Cc2cccs2)CC1 (3D coordinates assigned)
O=C(CCC1CCCC1)N1CCC[N@H+](Cc2cccs2)CC1 (nonaromatic ring conformer: 92.88057362519878 kcal/mol)

>  <smiles>  (21) 
O=C(CCC1CCCC1)N1CCCN(Cc2cccs2)CC1

>  <score_type>  (21) 
oracle

>  <origin>  (21) 
adg

>  <m_score__min__energy>  (21) 
-4.4500000000000002

>  <m_primary>  (21) 
energy

$$$$
23:0
     RDKit          3D

 31 33  0  0  0  0  0  0  0  0999 V2000
   57.3470   32.0360   41.5080 C   0  0  0  0  0  0  0  0  0  0  0  0
   57.4990   31.2380   42.5690 C   0  0  0  0  0  0  0  0  0  0  0  0
   56.3210   30.7520   43.3560 C   0  0  0  0  0  0  0  0  0  0  0  0
   56.6740   30.6510   44.7330 O   0  0  0  0  0  0  0  0  0  0  0  0
   57.5450   31.5290   45.3950 C   0  0  0  0  0  0  0  0  0  0  0  0
   57.2240   32.8790   45.6260 C   0  0  0  0  0  0  0  0  0  0  0  0
   58.1240   33.7170   46.2910 C   0  0  0  0  0  0  0  0  0  0  0  0
   59.3600   33.2180   46.7360 C   0  0  0  0  0  0  0  0  0  0  0  0
   60.2940   34.0250   47.4100 C   0  0  0  0  0  0  0  0  0  0  0  0
   60.0420   35.2420   47.6350 O   0  0  0  0  0  0  0  0  0  0  0  0
   61.5130   33.4620   47.8290 C   0  0  0  0  0  0  0  0  0  0  0  0
   62.4910   34.2130   48.5070 C   0  0  0  0  0  0  0  0  0  0  0  0
   63.6880   33.6100   48.9040 C   0  0  0  0  0  0  0  0  0  0  0  0
   63.9190   32.2590   48.6310 C   0  0  0  0  0  0  0  0  0  0  0  0
   62.9560   31.5040   47.9590 C   0  0  0  0  0  0  0  0  0  0  0  0
   61.7530   32.0950   47.5560 C   0  0  0  0  0  0  0  0  0  0  0  0
   60.8450   31.3650   46.9160 O   0  0  0  0  0  0  0  0  0  0  0  0
   59.6830   31.8620   46.5050 C   0  0  0  0  0  0  0  0  0  0  0  0
   58.7750   31.0310   45.8390 C   0  0  0  0  0  0  0  0  0  0  0  0
   58.2288   32.3790   40.9470 H   0  0  0  0  0  0  0  0  0  0  0  0
   56.3401   32.3499   41.1956 H   0  0  0  0  0  0  0  0  0  0  0  0
   58.5113   30.9314   42.8710 H   0  0  0  0  0  0  0  0  0  0  0  0
   55.4876   31.4610   43.2429 H   0  0  0  0  0  0  0  0  0  0  0  0
   56.0163   29.7627   42.9838 H   0  0  0  0  0  0  0  0  0  0  0  0
   56.2586   33.2779   45.2812 H   0  0  0  0  0  0  0  0  0  0  0  0
   57.8636   34.7712   46.4666 H   0  0  0  0  0  0  0  0  0  0  0  0
   62.3133   35.2764   48.7250 H   0  0  0  0  0  0  0  0  0  0  0  0
   64.4505   34.2007   49.4329 H   0  0  0  0  0  0  0  0  0  0  0  0
   64.8623   31.7892   48.9465 H   0  0  0  0  0  0  0  0  0  0  0  0
   63.1433   30.4413   47.7456 H   0  0  0  0  0  0  0  0  0  0  0  0
   59.0308   29.9758   45.6628 H   0  0  0  0  0  0  0  0  0  0  0  0
  1  2  2  0
  2  3  1  0
  3  4  1  0
  4  5  1  0
  5  6  2  0
  6  7  1  0
  7  8  2  0
  8  9  1  0
  9 10  2  0
  9 11  1  0
 11 12  2  0
 12 13  1  0
 13 14  2  0
 14 15  1  0
 15 16  2  0
 16 17  1  0
 17 18  1  0
 18 19  2  0
 19  5  1  0
 18  8  1  0
 16 11  1  0
  1 20  1  0
  1 21  1  0
  2 22  1  0
  3 23  1  0
  3 24  1  0
  6 25  1  0
  7 26  1  0
 12 27  1  0
 13 28  1  0
 14 29  1  0
 15 30  1  0
 19 31  1  0
M  END
>  <UniqueID>  (22) 
21

>  <SMILES>  (22) 
C=CCOc1ccc2c(=O)c3ccccc3oc2c1

>  <Energy>  (22) 
38.7855727104535

>  <Genealogy>  (22) 
C=CCOc1ccc2c(=O)c3ccccc3oc2c1 (3D coordinates assigned)
C=CCOc1ccc2c(=O)c3ccccc3oc2c1 (optimized conformer: 38.7855727104535 kcal/mol)

>  <smiles>  (22) 
C=CCOc1ccc2c(=O)c3ccccc3oc2c1

>  <score_type>  (22) 
oracle

>  <origin>  (22) 
adg

>  <m_score__min__energy>  (22) 
-6.7999999999999998

>  <m_primary>  (22) 
energy

$$$$
24:0
     RDKit          3D

 27 27  0  0  0  0  0  0  0  0999 V2000
   59.7580   28.2070   44.2990 C   0  0  0  0  0  0  0  0  0  0  0  0
   58.3680   28.2190   43.8190 N   0  0  0  0  0  0  0  0  0  0  0  0
   58.1290   27.1140   42.8780 C   0  0  0  0  0  0  0  0  0  0  0  0
   57.4490   28.1350   44.9370 C   0  0  0  0  0  0  0  0  0  0  0  0
   56.9950   27.0520   45.2830 O   0  0  0  0  0  0  0  0  0  0  0  0
   57.0290   29.3780   45.6760 C   0  0  0  0  0  0  0  0  0  0  0  0
   57.0440   30.5100   44.8060 O   0  0  0  0  0  0  0  0  0  0  0  0
   57.6550   31.7440   45.0860 C   0  0  0  0  0  0  0  0  0  0  0  0
   57.8810   32.1920   46.4030 C   0  0  0  0  0  0  0  0  0  0  0  0
   58.4990   33.4240   46.6330 C   0  0  0  0  0  0  0  0  0  0  0  0
   58.8940   34.2220   45.5570 C   0  0  0  0  0  0  0  0  0  0  0  0
   59.4940   35.4170   45.7820 F   0  0  0  0  0  0  0  0  0  0  0  0
   58.6710   33.7890   44.2480 C   0  0  0  0  0  0  0  0  0  0  0  0
   58.0530   32.5550   44.0110 C   0  0  0  0  0  0  0  0  0  0  0  0
   57.7720   31.9860   42.2060 Br  0  0  0  0  0  0  0  0  0  0  0  0
   59.7661   28.2069   45.3990 H   0  0  0  0  0  0  0  0  0  0  0  0
   60.2661   27.3044   43.9285 H   0  0  0  0  0  0  0  0  0  0  0  0
   60.2816   29.1007   43.9285 H   0  0  0  0  0  0  0  0  0  0  0  0
   58.2120   29.1180   43.3040 H   0  0  0  0  0  0  0  0  0  0  0  0
   57.9292   26.1901   43.4405 H   0  0  0  0  0  0  0  0  0  0  0  0
   57.2617   27.3527   42.2449 H   0  0  0  0  0  0  0  0  0  0  0  0
   59.0174   26.9729   42.2449 H   0  0  0  0  0  0  0  0  0  0  0  0
   56.0113   29.2380   46.0694 H   0  0  0  0  0  0  0  0  0  0  0  0
   57.7351   29.5555   46.5006 H   0  0  0  0  0  0  0  0  0  0  0  0
   57.5694   31.5687   47.2541 H   0  0  0  0  0  0  0  0  0  0  0  0
   58.6747   33.7660   47.6636 H   0  0  0  0  0  0  0  0  0  0  0  0
   58.9815   34.4188   43.4013 H   0  0  0  0  0  0  0  0  0  0  0  0
  1  2  1  0
  2  3  1  0
  2  4  1  0
  4  5  2  0
  4  6  1  0
  6  7  1  0
  7  8  1  0
  8  9  2  0
  9 10  1  0
 10 11  2  0
 11 12  1  0
 11 13  1  0
 13 14  2  0
 14 15  1  0
 14  8  1  0
  1 16  1  0
  1 17  1  0
  1 18  1  0
  2 19  1  0
  3 20  1  0
  3 21  1  0
  3 22  1  0
  6 23  1  0
  6 24  1  0
  9 25  1  0
 10 26  1  0
 13 27  1  0
M  CHG  1   2   1
M  END
>  <UniqueID>  (23) 
22

>  <SMILES>  (23) 
C[NH+](C)C(=O)COc1ccc(F)cc1Br

>  <Energy>  (23) 
23.372336695480058

>  <Genealogy>  (23) 
C[NH+](C)C(=O)COc1ccc(F)cc1Br (protonated)
C[NH+](C)C(=O)COc1ccc(F)cc1Br (3D coordinates assigned)
C[NH+](C)C(=O)COc1ccc(F)cc1Br (optimized conformer: 23.372336695480058 kcal/mol)

>  <smiles>  (23) 
CN(C)C(=O)COc1ccc(F)cc1Br

>  <score_type>  (23) 
oracle

>  <origin>  (23) 
adg

>  <m_score__min__energy>  (23) 
-4.6500000000000004

>  <m_primary>  (23) 
energy

$$$$
25:0
     RDKit          3D

 46 49  0  0  0  0  0  0  0  0999 V2000
   63.4750   33.2020   52.0850 C   0  0  0  0  0  0  0  0  0  0  0  0
   62.0550   33.3230   51.6010 C   0  0  0  0  0  0  0  0  0  0  0  0
   61.0340   32.9500   52.4300 N   0  0  0  0  0  0  0  0  0  0  0  0
   59.7310   33.0250   52.0470 C   0  0  0  0  0  0  0  0  0  0  0  0
   59.3990   33.4880   50.7780 C   0  0  0  0  0  0  0  0  0  0  0  0
   60.4120   33.8720   49.9030 C   0  0  0  0  0  0  0  0  0  0  0  0
   61.7560   33.7970   50.2980 C   0  0  0  0  0  0  0  0  0  0  0  0
   62.8380   34.2040   49.3220 C   0  0  0  0  0  0  0  0  0  0  0  0
   63.3390   33.0220   48.5890 N   0  0  0  0  0  0  0  0  0  0  0  0
   62.6000   31.7630   48.8650 C   0  0  0  0  0  0  0  0  0  0  0  0
   61.9110   31.1280   47.6440 C   0  0  0  0  0  0  0  0  0  0  0  0
   60.9080   32.0530   47.0400 C   0  0  0  0  0  0  0  0  0  0  0  0
   59.5920   31.7610   46.9690 N   0  0  0  0  0  0  0  0  0  0  0  0
   59.0540   32.8460   46.3740 C   0  0  0  0  0  0  0  0  0  0  0  0
   57.6120   32.9630   46.0000 C   0  0  0  0  0  0  0  0  0  0  0  0
   57.3350   32.1360   44.8320 N   0  0  0  0  0  0  0  0  0  0  0  0
   57.8320   32.2970   43.5950 C   0  0  0  0  0  0  0  0  0  0  0  0
   57.4260   31.3080   42.7770 N   0  0  0  0  0  0  0  0  0  0  0  0
   56.6680   30.5440   43.5950 C   0  0  0  0  0  0  0  0  0  0  0  0
   56.6110   31.0320   44.8500 N   0  0  0  0  0  0  0  0  0  0  0  0
   60.0400   33.7600   46.0790 C   0  0  0  0  0  0  0  0  0  0  0  0
   61.2090   33.2650   46.5190 N   0  0  0  0  0  0  0  0  0  0  0  0
   62.5160   33.9100   46.3480 C   0  0  0  0  0  0  0  0  0  0  0  0
   63.6650   33.2740   47.1670 C   0  0  0  0  0  0  0  0  0  0  0  0
   63.4886   33.2008   53.1849 H   0  0  0  0  0  0  0  0  0  0  0  0
   63.9108   32.2635   51.7119 H   0  0  0  0  0  0  0  0  0  0  0  0
   64.0633   34.0533   51.7119 H   0  0  0  0  0  0  0  0  0  0  0  0
   61.2430   32.5930   53.3900 H   0  0  0  0  0  0  0  0  0  0  0  0
   58.9367   32.7183   52.7435 H   0  0  0  0  0  0  0  0  0  0  0  0
   58.3453   33.5503   50.4683 H   0  0  0  0  0  0  0  0  0  0  0  0
   60.1570   34.2361   48.8968 H   0  0  0  0  0  0  0  0  0  0  0  0
   62.4254   34.9281   48.6041 H   0  0  0  0  0  0  0  0  0  0  0  0
   63.6702   34.6584   49.8796 H   0  0  0  0  0  0  0  0  0  0  0  0
   63.3136   31.0315   49.2720 H   0  0  0  0  0  0  0  0  0  0  0  0
   61.7954   32.0282   49.5666 H   0  0  0  0  0  0  0  0  0  0  0  0
   62.6736   30.8854   46.8893 H   0  0  0  0  0  0  0  0  0  0  0  0
   61.3868   30.2200   47.9768 H   0  0  0  0  0  0  0  0  0  0  0  0
   56.9883   32.6269   46.8414 H   0  0  0  0  0  0  0  0  0  0  0  0
   57.3825   34.0126   45.7639 H   0  0  0  0  0  0  0  0  0  0  0  0
   58.4851   33.1279   43.2901 H   0  0  0  0  0  0  0  0  0  0  0  0
   56.1548   29.6261   43.2722 H   0  0  0  0  0  0  0  0  0  0  0  0
   59.8962   34.7257   45.5722 H   0  0  0  0  0  0  0  0  0  0  0  0
   62.7860   33.8593   45.2829 H   0  0  0  0  0  0  0  0  0  0  0  0
   62.4043   34.9397   46.7185 H   0  0  0  0  0  0  0  0  0  0  0  0
   63.9294   32.3139   46.6998 H   0  0  0  0  0  0  0  0  0  0  0  0
   64.4927   33.9984   47.1595 H   0  0  0  0  0  0  0  0  0  0  0  0
  1  2  1  0
  2  3  2  0
  3  4  1  0
  4  5  2  0
  5  6  1  0
  6  7  2  0
  7  8  1  0
  8  9  1  0
  9 10  1  0
 10 11  1  0
 11 12  1  0
 12 13  2  0
 13 14  1  0
 14 15  1  0
 15 16  1  0
 16 17  1  0
 17 18  2  0
 18 19  1  0
 19 20  2  0
 14 21  2  0
 21 22  1  0
 22 23  1  0
 23 24  1  0
  7  2  1  0
 24  9  1  0
 22 12  1  0
 20 16  1  0
  1 25  1  0
  1 26  1  0
  1 27  1  0
  3 28  1  0
  4 29  1  0
  5 30  1  0
  6 31  1  0
  8 32  1  0
  8 33  1  0
 10 34  1  0
 10 35  1  0
 11 36  1  0
 11 37  1  0
 15 38  1  0
 15 39  1  0
 17 40  1  0
 19 41  1  0
 21 42  1  0
 23 43  1  0
 23 44  1  0
 24 45  1  0
 24 46  1  0
M  CHG  1   3   1
M  END
>  <UniqueID>  (24) 
23

>  <SMILES>  (24) 
Cc1[nH+]cccc1CN1CCc2nc(Cn3cncn3)cn2CC1

>  <Energy>  (24) 
121.97147937249916

>  <Genealogy>  (24) 
Cc1[nH+]cccc1CN1CCc2nc(Cn3cncn3)cn2CC1 (protonated)
Cc1[nH+]cccc1CN1CCc2nc(Cn3cncn3)cn2CC1 (3D coordinates assigned)
Cc1[nH+]cccc1CN1CCc2nc(Cn3cncn3)cn2CC1 (nonaromatic ring conformer: 121.97147937249916 kcal/mol)

>  <smiles>  (24) 
Cc1ncccc1CN1CCc2nc(Cn3cncn3)cn2CC1

>  <score_type>  (24) 
oracle

>  <origin>  (24) 
adg

>  <m_score__min__energy>  (24) 
-4.2000000000000002

>  <m_primary>  (24) 
energy

$$$$
26:0
     RDKit          3D

 41 43  0  0  0  0  0  0  0  0999 V2000
   58.0138   34.2113   43.5669 H   0  0  0  0  0  0  0  0  0  0  0  0
   57.9900   33.6260   44.4980 C   0  0  0  0  0  0  0  0  0  0  0  0
   58.2160   34.2790   45.6470 C   0  0  0  0  0  0  0  0  0  0  0  0
   57.4611   35.0104   45.9712 H   0  0  0  0  0  0  0  0  0  0  0  0
   59.4010   34.0930   46.5130 C   0  0  0  0  0  0  0  0  0  0  0  0
   60.6770   33.8740   45.9740 C   0  0  0  0  0  0  0  0  0  0  0  0
   60.8113   33.8376   44.8828 H   0  0  0  0  0  0  0  0  0  0  0  0
   61.7770   33.7020   46.8150 C   0  0  0  0  0  0  0  0  0  0  0  0
   62.7707   33.5182   46.3805 H   0  0  0  0  0  0  0  0  0  0  0  0
   61.6290   33.7610   48.2110 C   0  0  0  0  0  0  0  0  0  0  0  0
   62.7770   33.5590   49.0550 N   0  0  0  0  0  0  0  0  0  0  0  0
   63.8290   32.7440   48.8290 C   0  0  0  0  0  0  0  0  0  0  0  0
   63.9523   32.0766   47.9634 H   0  0  0  0  0  0  0  0  0  0  0  0
   64.7220   32.8910   49.8680 C   0  0  0  0  0  0  0  0  0  0  0  0
   65.6788   32.3584   49.9722 H   0  0  0  0  0  0  0  0  0  0  0  0
   64.2280   33.7950   50.7340 N   0  0  0  0  0  0  0  0  0  0  0  0
   64.6700   34.1260   51.6190 H   0  0  0  0  0  0  0  0  0  0  0  0
   63.0490   34.1900   50.2170 C   0  0  0  0  0  0  0  0  0  0  0  0
   62.3886   34.9354   50.6842 H   0  0  0  0  0  0  0  0  0  0  0  0
   60.3580   34.0330   48.7620 C   0  0  0  0  0  0  0  0  0  0  0  0
   60.2300   34.1510   50.1550 O   0  0  0  0  0  0  0  0  0  0  0  0
   59.2920   33.4310   50.9480 C   0  0  0  0  0  0  0  0  0  0  0  0
   59.5086   33.5973   52.0136 H   0  0  0  0  0  0  0  0  0  0  0  0
   58.2745   33.7822   50.7216 H   0  0  0  0  0  0  0  0  0  0  0  0
   59.3682   32.3573   50.7216 H   0  0  0  0  0  0  0  0  0  0  0  0
   59.2530   34.1990   47.9020 C   0  0  0  0  0  0  0  0  0  0  0  0
   58.2617   34.4146   48.3273 H   0  0  0  0  0  0  0  0  0  0  0  0
   57.7120   32.1820   44.3890 C   0  0  0  0  0  0  0  0  0  0  0  0
   57.7800   31.1270   45.6980 S   0  0  0  0  0  0  0  0  0  0  0  0
   57.4050   29.7390   44.8290 C   0  0  0  0  0  0  0  0  0  0  0  0
   57.3640   28.3590   45.3920 C   0  0  0  0  0  0  0  0  0  0  0  0
   57.3655   28.4111   46.4908 H   0  0  0  0  0  0  0  0  0  0  0  0
   56.4504   27.8506   45.0503 H   0  0  0  0  0  0  0  0  0  0  0  0
   58.2458   27.7972   45.0503 H   0  0  0  0  0  0  0  0  0  0  0  0
   57.2680   30.0710   43.4870 C   0  0  0  0  0  0  0  0  0  0  0  0
   57.0372   29.3347   42.7030 H   0  0  0  0  0  0  0  0  0  0  0  0
   57.4530   31.4380   43.2300 C   0  0  0  0  0  0  0  0  0  0  0  0
   57.3990   31.9980   41.8400 C   0  0  0  0  0  0  0  0  0  0  0  0
   57.2935   33.0918   41.8892 H   0  0  0  0  0  0  0  0  0  0  0  0
   58.3259   31.7427   41.3056 H   0  0  0  0  0  0  0  0  0  0  0  0
   56.5379   31.5703   41.3056 H   0  0  0  0  0  0  0  0  0  0  0  0
  1  2  1  0
  2  3  2  0
  3  4  1  0
  3  5  1  0
  5  6  2  0
  6  7  1  0
  6  8  1  0
  8  9  1  0
  8 10  2  0
 10 11  1  0
 11 12  1  0
 12 13  1  0
 12 14  2  0
 14 15  1  0
 14 16  1  0
 16 17  1  0
 16 18  2  0
 18 19  1  0
 10 20  1  0
 20 21  1  0
 21 22  1  0
 22 23  1  0
 22 24  1  0
 22 25  1  0
 20 26  2  0
 26 27  1  0
  2 28  1  0
 28 29  1  0
 29 30  1  0
 30 31  1  0
 31 32  1  0
 31 33  1  0
 31 34  1  0
 30 35  2  0
 35 36  1  0
 35 37  1  0
 37 38  1  0
 38 39  1  0
 38 40  1  0
 38 41  1  0
 26  5  1  0
 37 28  2  0
 18 11  1  0
M  CHG  1  16   1
M  END
>  <UniqueID>  (25) 
24

>  <SMILES>  (25) 
COc1cc(/C=C\c2sc(C)cc2C)ccc1-n1cc[nH+]c1

>  <Energy>  (25) 
110.40538114482595

>  <Genealogy>  (25) 
COc1cc(C=Cc2sc(C)cc2C)ccc1-n1cc[nH+]c1 (protonated)
COc1cc(/C=C\c2sc(C)cc2C)ccc1-n1cc[nH+]c1 (cis-trans isomerization)
COc1cc(/C=C\c2sc(C)cc2C)ccc1-n1cc[nH+]c1 (3D coordinates assigned)
COc1cc(/C=C\c2sc(C)cc2C)ccc1-n1cc[nH+]c1 (optimized conformer: 110.40538114482595 kcal/mol)

>  <smiles>  (25) 
COc1cc(C=Cc2sc(C)cc2C)ccc1-n1ccnc1

>  <score_type>  (25) 
oracle

>  <origin>  (25) 
adg

>  <m_score__min__energy>  (25) 
-6.1200000000000001

>  <m_primary>  (25) 
energy

$$$$
27:0
     RDKit          3D

 54 58  0  0  0  0  0  0  0  0999 V2000
   60.8420   30.6720   48.1620 O   0  0  0  0  0  0  0  0  0  0  0  0
   59.8850   31.3300   47.6670 C   0  0  0  0  0  0  0  0  0  0  0  0
   59.2950   32.3580   48.4250 C   0  0  0  0  0  0  0  0  0  0  0  0
   59.7930   32.7270   49.7740 C   0  0  0  0  0  0  0  0  0  0  0  0
   61.1690   32.9000   50.0040 C   0  0  0  0  0  0  0  0  0  0  0  0
   61.6390   33.2610   51.2690 C   0  0  0  0  0  0  0  0  0  0  0  0
   60.7390   33.4620   52.3250 C   0  0  0  0  0  0  0  0  0  0  0  0
   61.2000   33.8270   53.6000 C   0  0  0  0  0  0  0  0  0  0  0  0
   60.2920   34.0260   54.6440 C   0  0  0  0  0  0  0  0  0  0  0  0
   58.9230   33.8610   54.4250 C   0  0  0  0  0  0  0  0  0  0  0  0
   58.4500   33.4970   53.1610 C   0  0  0  0  0  0  0  0  0  0  0  0
   59.3510   33.2940   52.1040 C   0  0  0  0  0  0  0  0  0  0  0  0
   58.8890   32.9310   50.8300 C   0  0  0  0  0  0  0  0  0  0  0  0
   58.2010   33.0290   47.8810 C   0  0  0  0  0  0  0  0  0  0  0  0
   57.7410   32.7010   46.6520 N   0  0  0  0  0  0  0  0  0  0  0  0
   58.3290   31.7230   45.9100 C   0  0  0  0  0  0  0  0  0  0  0  0
   57.7500   31.4160   44.5830 C   0  0  0  0  0  0  0  0  0  0  0  0
   58.1630   32.1360   43.4530 C   0  0  0  0  0  0  0  0  0  0  0  0
   57.6180   31.8490   42.1980 C   0  0  0  0  0  0  0  0  0  0  0  0
   56.6510   30.8500   42.0680 C   0  0  0  0  0  0  0  0  0  0  0  0
   56.2210   30.1400   43.1920 C   0  0  0  0  0  0  0  0  0  0  0  0
   56.7630   30.4230   44.4510 C   0  0  0  0  0  0  0  0  0  0  0  0
   56.3290   29.7050   45.5600 O   0  0  0  0  0  0  0  0  0  0  0  0
   59.4070   31.0250   46.4130 N   0  0  0  0  0  0  0  0  0  0  0  0
   60.0170   29.9190   45.6380 C   0  0  0  0  0  0  0  0  0  0  0  0
   59.1410   28.6910   45.6620 C   0  0  0  0  0  0  0  0  0  0  0  0
   58.5930   28.2370   46.8710 C   0  0  0  0  0  0  0  0  0  0  0  0
   57.7560   27.1180   46.8910 C   0  0  0  0  0  0  0  0  0  0  0  0
   57.4740   26.4170   45.7050 C   0  0  0  0  0  0  0  0  0  0  0  0
   56.5180   25.2510   45.7210 C   0  0  0  0  0  0  0  0  0  0  0  0
   56.7890   24.4060   46.7850 F   0  0  0  0  0  0  0  0  0  0  0  0
   56.6460   24.5440   44.5400 F   0  0  0  0  0  0  0  0  0  0  0  0
   55.2120   25.6950   45.8410 F   0  0  0  0  0  0  0  0  0  0  0  0
   58.0190   26.8780   44.4950 C   0  0  0  0  0  0  0  0  0  0  0  0
   58.8580   27.9950   44.4760 C   0  0  0  0  0  0  0  0  0  0  0  0
   61.8823   32.7497   49.1802 H   0  0  0  0  0  0  0  0  0  0  0  0
   62.7186   33.3880   51.4371 H   0  0  0  0  0  0  0  0  0  0  0  0
   62.2778   33.9566   53.7777 H   0  0  0  0  0  0  0  0  0  0  0  0
   60.6571   34.3134   55.6410 H   0  0  0  0  0  0  0  0  0  0  0  0
   58.2135   34.0181   55.2508 H   0  0  0  0  0  0  0  0  0  0  0  0
   57.3702   33.3695   52.9944 H   0  0  0  0  0  0  0  0  0  0  0  0
   57.8101   32.8051   50.6565 H   0  0  0  0  0  0  0  0  0  0  0  0
   57.7094   33.8291   48.4539 H   0  0  0  0  0  0  0  0  0  0  0  0
   56.9200   33.2230   46.2710 H   0  0  0  0  0  0  0  0  0  0  0  0
   58.9183   32.9293   43.5543 H   0  0  0  0  0  0  0  0  0  0  0  0
   57.9510   32.4103   41.3126 H   0  0  0  0  0  0  0  0  0  0  0  0
   56.2270   30.6216   41.0790 H   0  0  0  0  0  0  0  0  0  0  0  0
   55.4552   29.3573   43.0872 H   0  0  0  0  0  0  0  0  0  0  0  0
   60.1528   30.2430   44.5956 H   0  0  0  0  0  0  0  0  0  0  0  0
   60.9857   29.6660   46.0937 H   0  0  0  0  0  0  0  0  0  0  0  0
   58.8234   28.7646   47.8083 H   0  0  0  0  0  0  0  0  0  0  0  0
   57.3146   26.7832   47.8413 H   0  0  0  0  0  0  0  0  0  0  0  0
   57.7835   26.3558   43.5559 H   0  0  0  0  0  0  0  0  0  0  0  0
   59.2995   28.3311   43.5262 H   0  0  0  0  0  0  0  0  0  0  0  0
  1  2  2  0
  2  3  1  0
  3  4  1  0
  4  5  2  0
  5  6  1  0
  6  7  2  0
  7  8  1  0
  8  9  2  0
  9 10  1  0
 10 11  2  0
 11 12  1  0
 12 13  2  0
  3 14  2  0
 14 15  1  0
 15 16  2  0
 16 17  1  0
 17 18  2  0
 18 19  1  0
 19 20  2  0
 20 21  1  0
 21 22  2  0
 22 23  1  0
 16 24  1  0
 24 25  1  0
 25 26  1  0
 26 27  2  0
 27 28  1  0
 28 29  2  0
 29 30  1  0
 30 31  1  0
 30 32  1  0
 30 33  1  0
 29 34  1  0
 34 35  2  0
 24  2  1  0
 35 26  1  0
 13  4  1  0
 22 17  1  0
 12  7  1  0
  5 36  1  0
  6 37  1  0
  8 38  1  0
  9 39  1  0
 10 40  1  0
 11 41  1  0
 13 42  1  0
 14 43  1  0
 15 44  1  0
 18 45  1  0
 19 46  1  0
 20 47  1  0
 21 48  1  0
 25 49  1  0
 25 50  1  0
 27 51  1  0
 28 52  1  0
 34 53  1  0
 35 54  1  0
M  CHG  2  15   1  23  -1
M  END
>  <UniqueID>  (26) 
25

>  <SMILES>  (26) 
O=c1c(-c2ccc3ccccc3c2)c[nH+]c(-c2ccccc2[O-])n1Cc1ccc(C(F)(F)F)cc1

>  <Energy>  (26) 
81.32635737960283

>  <Genealogy>  (26) 
O=c1c(-c2ccc3ccccc3c2)c[nH+]c(-c2ccccc2[O-])n1Cc1ccc(C(F)(F)F)cc1 (protonated)
O=c1c(-c2ccc3ccccc3c2)c[nH+]c(-c2ccccc2[O-])n1Cc1ccc(C(F)(F)F)cc1 (3D coordinates assigned)
O=c1c(-c2ccc3ccccc3c2)c[nH+]c(-c2ccccc2[O-])n1Cc1ccc(C(F)(F)F)cc1 (optimized conformer: 81.32635737960283 kcal/mol)

>  <smiles>  (26) 
O=c1c(-c2ccc3ccccc3c2)cnc(-c2ccccc2O)n1Cc1ccc(C(F)(F)F)cc1

>  <score_type>  (26) 
oracle

>  <origin>  (26) 
adg

>  <m_score__min__energy>  (26) 
-9.8599999999999994

>  <m_primary>  (26) 
energy

$$$$
28:0
     RDKit          3D

 38 41  0  0  0  0  0  0  0  0999 V2000
   62.2990   30.4080   50.1010 F   0  0  0  0  0  0  0  0  0  0  0  0
   62.0030   29.5660   51.1570 C   0  0  0  0  0  0  0  0  0  0  0  0
   63.1360   28.8500   51.4920 F   0  0  0  0  0  0  0  0  0  0  0  0
   60.9720   28.6580   50.7810 O   0  0  0  0  0  0  0  0  0  0  0  0
   60.3330   28.6460   49.5320 C   0  0  0  0  0  0  0  0  0  0  0  0
   59.5510   29.7500   49.1750 C   0  0  0  0  0  0  0  0  0  0  0  0
   58.8950   29.7910   47.9420 C   0  0  0  0  0  0  0  0  0  0  0  0
   59.0190   28.7240   47.0350 C   0  0  0  0  0  0  0  0  0  0  0  0
   58.3280   28.7400   45.7250 C   0  0  0  0  0  0  0  0  0  0  0  0
   58.0110   27.6220   45.0210 N   0  0  0  0  0  0  0  0  0  0  0  0
   57.4140   28.0230   43.9020 N   0  0  0  0  0  0  0  0  0  0  0  0
   57.3800   29.3640   43.9300 C   0  0  0  0  0  0  0  0  0  0  0  0
   56.8930   30.2450   42.9760 C   0  0  0  0  0  0  0  0  0  0  0  0
   57.0210   31.5790   43.2330 N   0  0  0  0  0  0  0  0  0  0  0  0
   57.6180   32.0260   44.3820 C   0  0  0  0  0  0  0  0  0  0  0  0
   57.7660   33.7800   44.6950 S   0  0  0  0  0  0  0  0  0  0  0  0
   58.7990   33.5150   46.1350 C   0  0  0  0  0  0  0  0  0  0  0  0
   58.2140   33.2970   47.3900 C   0  0  0  0  0  0  0  0  0  0  0  0
   59.0230   33.0830   48.5100 C   0  0  0  0  0  0  0  0  0  0  0  0
   60.4150   33.0900   48.3810 C   0  0  0  0  0  0  0  0  0  0  0  0
   61.0000   33.3100   47.1300 C   0  0  0  0  0  0  0  0  0  0  0  0
   60.1940   33.5250   46.0080 C   0  0  0  0  0  0  0  0  0  0  0  0
   58.0940   31.1300   45.2940 N   0  0  0  0  0  0  0  0  0  0  0  0
   57.9390   29.8340   45.0410 N   0  0  0  0  0  0  0  0  0  0  0  0
   59.7930   27.6100   47.3980 C   0  0  0  0  0  0  0  0  0  0  0  0
   60.4490   27.5700   48.6320 C   0  0  0  0  0  0  0  0  0  0  0  0
   61.6636   30.1639   52.0157 H   0  0  0  0  0  0  0  0  0  0  0  0
   59.4516   30.5947   49.8725 H   0  0  0  0  0  0  0  0  0  0  0  0
   58.2781   30.6630   47.6795 H   0  0  0  0  0  0  0  0  0  0  0  0
   57.0590   27.3920   43.1490 H   0  0  0  0  0  0  0  0  0  0  0  0
   56.4227   29.8831   42.0498 H   0  0  0  0  0  0  0  0  0  0  0  0
   57.1189   33.2943   47.4936 H   0  0  0  0  0  0  0  0  0  0  0  0
   58.5635   32.9089   49.4942 H   0  0  0  0  0  0  0  0  0  0  0  0
   61.0501   32.9225   49.2634 H   0  0  0  0  0  0  0  0  0  0  0  0
   62.0953   33.3139   47.0286 H   0  0  0  0  0  0  0  0  0  0  0  0
   60.6554   33.7021   45.0253 H   0  0  0  0  0  0  0  0  0  0  0  0
   59.8841   26.7607   46.7049 H   0  0  0  0  0  0  0  0  0  0  0  0
   61.0581   26.6943   48.9006 H   0  0  0  0  0  0  0  0  0  0  0  0
  1  2  1  0
  2  3  1  0
  2  4  1  0
  4  5  1  0
  5  6  2  0
  6  7  1  0
  7  8  2  0
  8  9  1  0
  9 10  2  0
 10 11  1  0
 11 12  2  0
 12 13  1  0
 13 14  2  0
 14 15  1  0
 15 16  1  0
 16 17  1  0
 17 18  2  0
 18 19  1  0
 19 20  2  0
 20 21  1  0
 21 22  2  0
 15 23  2  0
 23 24  1  0
  8 25  1  0
 25 26  2  0
 26  5  1  0
 24  9  1  0
 24 12  1  0
 22 17  1  0
  2 27  1  0
  6 28  1  0
  7 29  1  0
 11 30  1  0
 13 31  1  0
 18 32  1  0
 19 33  1  0
 20 34  1  0
 21 35  1  0
 22 36  1  0
 25 37  1  0
 26 38  1  0
M  CHG  1  11   1
M  END
>  <UniqueID>  (27) 
26

>  <SMILES>  (27) 
FC(F)Oc1ccc(-c2n[nH+]c3cnc(Sc4ccccc4)nn23)cc1

>  <Energy>  (27) 
86.9560683274774

>  <Genealogy>  (27) 
FC(F)Oc1ccc(-c2n[nH+]c3cnc(Sc4ccccc4)nn23)cc1 (protonated)
FC(F)Oc1ccc(-c2n[nH+]c3cnc(Sc4ccccc4)nn23)cc1 (3D coordinates assigned)
FC(F)Oc1ccc(-c2n[nH+]c3cnc(Sc4ccccc4)nn23)cc1 (optimized conformer: 86.9560683274774 kcal/mol)

>  <smiles>  (27) 
FC(F)Oc1ccc(-c2nnc3cnc(Sc4ccccc4)nn23)cc1

>  <score_type>  (27) 
oracle

>  <origin>  (27) 
adg

>  <m_score__min__energy>  (27) 
-5.9400000000000004

>  <m_primary>  (27) 
energy

$$$$
29:0
     RDKit          3D

 46 48  0  0  0  0  0  0  0  0999 V2000
   60.1680   30.6280   47.0140 C   0  0  0  0  0  0  0  0  0  0  0  0
   61.2730   31.6420   47.1320 C   0  0  0  0  0  0  0  0  0  0  0  0
   62.5600   31.2220   47.5060 C   0  0  0  0  0  0  0  0  0  0  0  0
   63.6000   32.1470   47.6240 C   0  0  0  0  0  0  0  0  0  0  0  0
   63.3680   33.4990   47.3620 C   0  0  0  0  0  0  0  0  0  0  0  0
   62.0980   33.9280   46.9730 C   0  0  0  0  0  0  0  0  0  0  0  0
   61.0470   33.0070   46.8450 C   0  0  0  0  0  0  0  0  0  0  0  0
   59.7590   33.4750   46.4160 N   0  0  0  0  0  0  0  0  0  0  0  0
   58.5600   33.1650   47.1960 C   0  0  0  0  0  0  0  0  0  0  0  0
   57.4340   32.6610   46.2720 C   0  0  0  0  0  0  0  0  0  0  0  0
   57.3960   33.3170   44.9340 N   0  0  0  0  0  0  0  0  0  0  0  0
   57.7470   32.3870   43.8400 C   0  0  0  0  0  0  0  0  0  0  0  0
   57.1770   31.0260   44.1140 C   0  0  0  0  0  0  0  0  0  0  0  0
   56.0500   30.9310   44.6720 O   0  0  0  0  0  0  0  0  0  0  0  0
   57.9170   29.8460   43.7700 N   0  0  0  0  0  0  0  0  0  0  0  0
   57.4140   28.5020   44.0370 C   0  0  0  0  0  0  0  0  0  0  0  0
   58.2170   27.8550   45.1200 C   0  0  0  0  0  0  0  0  0  0  0  0
   59.6030   27.8390   45.2120 C   0  0  0  0  0  0  0  0  0  0  0  0
   60.0690   27.1850   46.3590 C   0  0  0  0  0  0  0  0  0  0  0  0
   59.0560   26.6940   47.1720 C   0  0  0  0  0  0  0  0  0  0  0  0
   57.5770   27.0730   46.4640 S   0  0  0  0  0  0  0  0  0  0  0  0
   58.1850   34.5670   44.8660 C   0  0  0  0  0  0  0  0  0  0  0  0
   59.6570   34.3200   45.2250 C   0  0  0  0  0  0  0  0  0  0  0  0
   59.8387   30.3259   48.0191 H   0  0  0  0  0  0  0  0  0  0  0  0
   59.3214   31.0701   46.4683 H   0  0  0  0  0  0  0  0  0  0  0  0
   60.5359   29.7466   46.4683 H   0  0  0  0  0  0  0  0  0  0  0  0
   62.7503   30.1575   47.7073 H   0  0  0  0  0  0  0  0  0  0  0  0
   64.6033   31.8100   47.9238 H   0  0  0  0  0  0  0  0  0  0  0  0
   64.1869   34.2265   47.4623 H   0  0  0  0  0  0  0  0  0  0  0  0
   61.9201   34.9935   46.7657 H   0  0  0  0  0  0  0  0  0  0  0  0
   58.7993   32.3855   47.9343 H   0  0  0  0  0  0  0  0  0  0  0  0
   58.2206   34.0780   47.7071 H   0  0  0  0  0  0  0  0  0  0  0  0
   57.5704   31.5799   46.1215 H   0  0  0  0  0  0  0  0  0  0  0  0
   56.4848   32.9080   46.7700 H   0  0  0  0  0  0  0  0  0  0  0  0
   57.3373   32.7686   42.8932 H   0  0  0  0  0  0  0  0  0  0  0  0
   58.8422   32.3104   43.7715 H   0  0  0  0  0  0  0  0  0  0  0  0
   58.8580   29.9450   43.3270 H   0  0  0  0  0  0  0  0  0  0  0  0
   56.3620   28.5639   44.3524 H   0  0  0  0  0  0  0  0  0  0  0  0
   57.4968   27.8994   43.1204 H   0  0  0  0  0  0  0  0  0  0  0  0
   60.2661   28.2933   44.4611 H   0  0  0  0  0  0  0  0  0  0  0  0
   61.1375   27.0708   46.5941 H   0  0  0  0  0  0  0  0  0  0  0  0
   59.1963   26.1500   48.1177 H   0  0  0  0  0  0  0  0  0  0  0  0
   58.1286   34.9708   43.8443 H   0  0  0  0  0  0  0  0  0  0  0  0
   57.7667   35.2805   45.5912 H   0  0  0  0  0  0  0  0  0  0  0  0
   60.1562   33.8196   44.3822 H   0  0  0  0  0  0  0  0  0  0  0  0
   60.1399   35.2864   45.4318 H   0  0  0  0  0  0  0  0  0  0  0  0
  1  2  1  0
  2  3  2  0
  3  4  1  0
  4  5  2  0
  5  6  1  0
  6  7  2  0
  7  8  1  0
  8  9  1  0
  9 10  1  0
 10 11  1  0
 11 12  1  0
 12 13  1  0
 13 14  2  0
 13 15  1  0
 15 16  1  0
 16 17  1  0
 17 18  2  0
 18 19  1  0
 19 20  2  0
 20 21  1  0
 11 22  1  0
 22 23  1  0
  7  2  1  0
 23  8  1  0
 21 17  1  0
  1 24  1  0
  1 25  1  0
  1 26  1  0
  3 27  1  0
  4 28  1  0
  5 29  1  0
  6 30  1  0
  9 31  1  0
  9 32  1  0
 10 33  1  0
 10 34  1  0
 12 35  1  0
 12 36  1  0
 15 37  1  0
 16 38  1  0
 16 39  1  0
 18 40  1  0
 19 41  1  0
 20 42  1  0
 22 43  1  0
 22 44  1  0
 23 45  1  0
 23 46  1  0
M  END
>  <UniqueID>  (28) 
27

>  <SMILES>  (28) 
Cc1ccccc1N1CCN(CC(=O)NCc2cccs2)CC1

>  <Energy>  (28) 
81.34167371245142

>  <Genealogy>  (28) 
Cc1ccccc1N1CCN(CC(=O)NCc2cccs2)CC1 (3D coordinates assigned)
Cc1ccccc1N1CCN(CC(=O)NCc2cccs2)CC1 (nonaromatic ring conformer: 81.34167371245142 kcal/mol)

>  <smiles>  (28) 
Cc1ccccc1N1CCN(CC(=O)NCc2cccs2)CC1

>  <score_type>  (28) 
oracle

>  <origin>  (28) 
adg

>  <m_score__min__energy>  (28) 
-8.2599999999999998

>  <m_primary>  (28) 
energy

$$$$
30:0
     RDKit          3D

 52 55  0  0  0  0  0  0  0  0999 V2000
   63.5770   32.0130   49.7050 C   0  0  0  0  0  0  0  0  0  0  0  0
   63.1400   33.4720   49.7700 C   0  0  0  0  0  0  0  0  0  0  0  0
   62.1890   33.7940   48.6500 C   0  0  0  0  0  0  0  0  0  0  0  0
   60.9300   34.3520   48.9280 C   0  0  0  0  0  0  0  0  0  0  0  0
   60.0340   34.6240   47.8900 C   0  0  0  0  0  0  0  0  0  0  0  0
   60.3790   34.3280   46.5640 C   0  0  0  0  0  0  0  0  0  0  0  0
   59.2540   34.6980   45.2610 S   0  0  0  0  0  0  0  0  0  0  0  0
   59.5940   33.8560   44.0630 O   0  0  0  0  0  0  0  0  0  0  0  0
   59.3730   36.1460   44.8720 O   0  0  0  0  0  0  0  0  0  0  0  0
   57.6220   34.3600   45.7530 N   0  0  0  0  0  0  0  0  0  0  0  0
   57.6130   33.2680   46.7260 C   0  0  0  0  0  0  0  0  0  0  0  0
   57.8180   31.9620   46.0220 C   0  0  0  0  0  0  0  0  0  0  0  0
   56.9900   31.5350   45.0320 N   0  0  0  0  0  0  0  0  0  0  0  0
   57.5020   30.3360   44.7030 C   0  0  0  0  0  0  0  0  0  0  0  0
   57.0380   29.4580   43.7280 C   0  0  0  0  0  0  0  0  0  0  0  0
   57.7340   28.2490   43.5490 C   0  0  0  0  0  0  0  0  0  0  0  0
   58.8650   27.9510   44.3420 C   0  0  0  0  0  0  0  0  0  0  0  0
   59.3090   28.8600   45.3210 C   0  0  0  0  0  0  0  0  0  0  0  0
   58.5940   30.0510   45.4730 C   0  0  0  0  0  0  0  0  0  0  0  0
   58.8050   31.0720   46.3230 N   0  0  0  0  0  0  0  0  0  0  0  0
   59.8760   31.2180   47.3150 C   0  0  0  0  0  0  0  0  0  0  0  0
   59.3510   30.9710   48.7040 C   0  0  0  0  0  0  0  0  0  0  0  0
   59.5490   29.7280   49.3310 C   0  0  0  0  0  0  0  0  0  0  0  0
   59.0560   29.5010   50.6200 C   0  0  0  0  0  0  0  0  0  0  0  0
   58.3690   30.5130   51.2950 C   0  0  0  0  0  0  0  0  0  0  0  0
   58.1760   31.7540   50.6840 C   0  0  0  0  0  0  0  0  0  0  0  0
   58.6670   31.9860   49.3950 C   0  0  0  0  0  0  0  0  0  0  0  0
   61.6310   33.7650   46.2840 C   0  0  0  0  0  0  0  0  0  0  0  0
   62.5290   33.4930   47.3210 C   0  0  0  0  0  0  0  0  0  0  0  0
   63.6948   31.6197   50.7255 H   0  0  0  0  0  0  0  0  0  0  0  0
   62.8154   31.4255   49.1713 H   0  0  0  0  0  0  0  0  0  0  0  0
   64.5361   31.9410   49.1713 H   0  0  0  0  0  0  0  0  0  0  0  0
   62.6399   33.6564   50.7322 H   0  0  0  0  0  0  0  0  0  0  0  0
   64.0296   34.1117   49.6727 H   0  0  0  0  0  0  0  0  0  0  0  0
   60.6479   34.5759   49.9674 H   0  0  0  0  0  0  0  0  0  0  0  0
   59.0547   35.0719   48.1146 H   0  0  0  0  0  0  0  0  0  0  0  0
   57.1060   34.0410   44.9000 H   0  0  0  0  0  0  0  0  0  0  0  0
   58.4224   33.4213   47.4550 H   0  0  0  0  0  0  0  0  0  0  0  0
   56.6443   33.2526   47.2469 H   0  0  0  0  0  0  0  0  0  0  0  0
   56.1560   29.7016   43.1175 H   0  0  0  0  0  0  0  0  0  0  0  0
   57.3959   27.5311   42.7872 H   0  0  0  0  0  0  0  0  0  0  0  0
   59.4020   27.0026   44.1934 H   0  0  0  0  0  0  0  0  0  0  0  0
   60.1881   28.6404   45.9446 H   0  0  0  0  0  0  0  0  0  0  0  0
   60.6729   30.4922   47.0957 H   0  0  0  0  0  0  0  0  0  0  0  0
   60.2696   32.2438   47.2626 H   0  0  0  0  0  0  0  0  0  0  0  0
   60.0942   28.9304   48.8052 H   0  0  0  0  0  0  0  0  0  0  0  0
   59.2093   28.5246   51.1028 H   0  0  0  0  0  0  0  0  0  0  0  0
   57.9800   30.3324   52.3079 H   0  0  0  0  0  0  0  0  0  0  0  0
   57.6368   32.5506   51.2176 H   0  0  0  0  0  0  0  0  0  0  0  0
   58.5172   32.9668   48.9201 H   0  0  0  0  0  0  0  0  0  0  0  0
   61.9087   33.5360   45.2446 H   0  0  0  0  0  0  0  0  0  0  0  0
   63.5061   33.0412   47.0947 H   0  0  0  0  0  0  0  0  0  0  0  0
  1  2  1  0
  2  3  1  0
  3  4  2  0
  4  5  1  0
  5  6  2  0
  6  7  1  0
  7  8  2  0
  7  9  2  0
  7 10  1  0
 10 11  1  0
 11 12  1  0
 12 13  2  0
 13 14  1  0
 14 15  2  0
 15 16  1  0
 16 17  2  0
 17 18  1  0
 18 19  2  0
 19 20  1  0
 20 21  1  0
 21 22  1  0
 22 23  2  0
 23 24  1  0
 24 25  2  0
 25 26  1  0
 26 27  2  0
  6 28  1  0
 28 29  2  0
 29  3  1  0
 20 12  1  0
 27 22  1  0
 19 14  1  0
  1 30  1  0
  1 31  1  0
  1 32  1  0
  2 33  1  0
  2 34  1  0
  4 35  1  0
  5 36  1  0
 10 37  1  0
 11 38  1  0
 11 39  1  0
 15 40  1  0
 16 41  1  0
 17 42  1  0
 18 43  1  0
 21 44  1  0
 21 45  1  0
 23 46  1  0
 24 47  1  0
 25 48  1  0
 26 49  1  0
 27 50  1  0
 28 51  1  0
 29 52  1  0
M  END
>  <UniqueID>  (29) 
28

>  <SMILES>  (29) 
CCc1ccc(S(=O)(=O)NCc2nc3ccccc3n2Cc2ccccc2)cc1

>  <Energy>  (29) 
84.77807595922727

>  <Genealogy>  (29) 
CCc1ccc(S(=O)(=O)NCc2nc3ccccc3n2Cc2ccccc2)cc1 (3D coordinates assigned)
CCc1ccc(S(=O)(=O)NCc2nc3ccccc3n2Cc2ccccc2)cc1 (optimized conformer: 84.77807595922727 kcal/mol)

>  <smiles>  (29) 
CCc1ccc(S(=O)(=O)NCc2nc3ccccc3n2Cc2ccccc2)cc1

>  <score_type>  (29) 
oracle

>  <origin>  (29) 
adg

>  <m_score__min__energy>  (29) 
-9.0099999999999998

>  <m_primary>  (29) 
energy

$$$$
31:0
     RDKit          3D

 39 41  0  0  0  0  0  0  0  0999 V2000
   58.5150   32.2020   49.3330 C   0  0  0  0  0  0  0  0  0  0  0  0
   58.2690   32.2030   47.9310 O   0  0  0  0  0  0  0  0  0  0  0  0
   58.6340   33.2430   47.0590 C   0  0  0  0  0  0  0  0  0  0  0  0
   59.4470   34.3140   47.4800 C   0  0  0  0  0  0  0  0  0  0  0  0
   59.7700   35.3450   46.5950 C   0  0  0  0  0  0  0  0  0  0  0  0
   59.2910   35.3220   45.2860 C   0  0  0  0  0  0  0  0  0  0  0  0
   58.4950   34.2600   44.8510 C   0  0  0  0  0  0  0  0  0  0  0  0
   58.1720   33.2090   45.7270 C   0  0  0  0  0  0  0  0  0  0  0  0
   57.3250   32.0630   45.2390 C   0  0  0  0  0  0  0  0  0  0  0  0
   57.8260   30.7990   45.7750 N   0  0  0  0  0  0  0  0  0  0  0  0
   57.1580   29.5500   45.5510 C   0  0  0  0  0  0  0  0  0  0  0  0
   56.1030   29.5060   44.8600 O   0  0  0  0  0  0  0  0  0  0  0  0
   57.7410   28.2800   46.0940 C   0  0  0  0  0  0  0  0  0  0  0  0
   59.4130   27.9690   45.4310 S   0  0  0  0  0  0  0  0  0  0  0  0
   60.2170   29.1820   46.4750 C   0  0  0  0  0  0  0  0  0  0  0  0
   60.3120   29.0470   47.8240 N   0  0  0  0  0  0  0  0  0  0  0  0
   60.9940   30.1530   48.1610 C   0  0  0  0  0  0  0  0  0  0  0  0
   61.4150   30.5460   49.4290 C   0  0  0  0  0  0  0  0  0  0  0  0
   62.1270   31.7550   49.5360 C   0  0  0  0  0  0  0  0  0  0  0  0
   62.4040   32.5270   48.3830 C   0  0  0  0  0  0  0  0  0  0  0  0
   61.9730   32.0930   47.1150 C   0  0  0  0  0  0  0  0  0  0  0  0
   61.2710   30.8920   47.0520 C   0  0  0  0  0  0  0  0  0  0  0  0
   60.7880   30.2780   46.0070 O   0  0  0  0  0  0  0  0  0  0  0  0
   57.5569   32.2059   49.8734 H   0  0  0  0  0  0  0  0  0  0  0  0
   59.0855   31.3015   49.6045 H   0  0  0  0  0  0  0  0  0  0  0  0
   59.0928   33.0978   49.6045 H   0  0  0  0  0  0  0  0  0  0  0  0
   59.8293   34.3382   48.5111 H   0  0  0  0  0  0  0  0  0  0  0  0
   60.4045   36.1780   46.9320 H   0  0  0  0  0  0  0  0  0  0  0  0
   59.5402   36.1409   44.5952 H   0  0  0  0  0  0  0  0  0  0  0  0
   58.1188   34.2459   43.8174 H   0  0  0  0  0  0  0  0  0  0  0  0
   56.2868   32.2119   45.5706 H   0  0  0  0  0  0  0  0  0  0  0  0
   57.3679   32.0283   44.1404 H   0  0  0  0  0  0  0  0  0  0  0  0
   58.7180   30.8120   46.3170 H   0  0  0  0  0  0  0  0  0  0  0  0
   57.8000   28.3545   47.1899 H   0  0  0  0  0  0  0  0  0  0  0  0
   57.0907   27.4463   45.7907 H   0  0  0  0  0  0  0  0  0  0  0  0
   61.1985   29.9326   50.3161 H   0  0  0  0  0  0  0  0  0  0  0  0
   62.4703   32.1020   50.5218 H   0  0  0  0  0  0  0  0  0  0  0  0
   62.9593   33.4718   48.4780 H   0  0  0  0  0  0  0  0  0  0  0  0
   62.1827   32.6801   46.2087 H   0  0  0  0  0  0  0  0  0  0  0  0
  1  2  1  0
  2  3  1  0
  3  4  2  0
  4  5  1  0
  5  6  2  0
  6  7  1  0
  7  8  2  0
  8  9  1  0
  9 10  1  0
 10 11  1  0
 11 12  2  0
 11 13  1  0
 13 14  1  0
 14 15  1  0
 15 16  2  0
 16 17  1  0
 17 18  2  0
 18 19  1  0
 19 20  2  0
 20 21  1  0
 21 22  2  0
 22 23  1  0
  8  3  1  0
 23 15  1  0
 22 17  1  0
  1 24  1  0
  1 25  1  0
  1 26  1  0
  4 27  1  0
  5 28  1  0
  6 29  1  0
  7 30  1  0
  9 31  1  0
  9 32  1  0
 10 33  1  0
 13 34  1  0
 13 35  1  0
 18 36  1  0
 19 37  1  0
 20 38  1  0
 21 39  1  0
M  END
>  <UniqueID>  (30) 
29

>  <SMILES>  (30) 
COc1ccccc1CNC(=O)CSc1nc2ccccc2o1

>  <Energy>  (30) 
66.98035334938305

>  <Genealogy>  (30) 
COc1ccccc1CNC(=O)CSc1nc2ccccc2o1 (3D coordinates assigned)
COc1ccccc1CNC(=O)CSc1nc2ccccc2o1 (optimized conformer: 66.98035334938305 kcal/mol)

>  <smiles>  (30) 
COc1ccccc1CNC(=O)CSc1nc2ccccc2o1

>  <score_type>  (30) 
oracle

>  <origin>  (30) 
adg

>  <m_score__min__energy>  (30) 
-7.4500000000000002

>  <m_primary>  (30) 
energy

$$$$
32:0
     RDKit          3D

 47 49  0  0  0  0  0  0  0  0999 V2000
   60.1530   26.0260   46.3720 C   0  0  0  0  0  0  0  0  0  0  0  0
   59.7020   27.3620   45.8390 C   0  0  0  0  0  0  0  0  0  0  0  0
   60.4190   28.5190   46.1860 C   0  0  0  0  0  0  0  0  0  0  0  0
   60.0220   29.7700   45.7120 C   0  0  0  0  0  0  0  0  0  0  0  0
   58.8990   29.8880   44.8810 C   0  0  0  0  0  0  0  0  0  0  0  0
   58.4590   31.2360   44.3750 C   0  0  0  0  0  0  0  0  0  0  0  0
   57.4290   31.8140   45.2650 N   0  0  0  0  0  0  0  0  0  0  0  0
   56.9960   33.1520   44.8100 C   0  0  0  0  0  0  0  0  0  0  0  0
   58.1280   34.1840   44.9350 C   0  0  0  0  0  0  0  0  0  0  0  0
   58.8910   33.9760   46.1700 N   0  0  0  0  0  0  0  0  0  0  0  0
   60.0630   34.7740   46.4140 C   0  0  0  0  0  0  0  0  0  0  0  0
   60.0910   35.9700   46.0130 O   0  0  0  0  0  0  0  0  0  0  0  0
   61.2510   34.2160   47.1030 C   0  0  0  0  0  0  0  0  0  0  0  0
   61.2640   34.0930   48.5040 C   0  0  0  0  0  0  0  0  0  0  0  0
   62.3890   33.5810   49.1590 C   0  0  0  0  0  0  0  0  0  0  0  0
   63.5130   33.1950   48.4250 C   0  0  0  0  0  0  0  0  0  0  0  0
   63.5170   33.3250   47.0340 C   0  0  0  0  0  0  0  0  0  0  0  0
   62.3950   33.8370   46.3750 C   0  0  0  0  0  0  0  0  0  0  0  0
   58.2940   33.1680   47.2390 C   0  0  0  0  0  0  0  0  0  0  0  0
   57.8350   31.8000   46.6970 C   0  0  0  0  0  0  0  0  0  0  0  0
   58.1760   28.7390   44.5340 C   0  0  0  0  0  0  0  0  0  0  0  0
   58.5620   27.4740   45.0080 C   0  0  0  0  0  0  0  0  0  0  0  0
   57.7620   26.2600   44.6110 C   0  0  0  0  0  0  0  0  0  0  0  0
   60.1454   26.0485   47.4717 H   0  0  0  0  0  0  0  0  0  0  0  0
   59.4704   25.2401   46.0166 H   0  0  0  0  0  0  0  0  0  0  0  0
   61.1723   25.8146   46.0166 H   0  0  0  0  0  0  0  0  0  0  0  0
   61.3017   28.4382   46.8375 H   0  0  0  0  0  0  0  0  0  0  0  0
   60.5928   30.6677   45.9917 H   0  0  0  0  0  0  0  0  0  0  0  0
   59.3272   31.9105   44.3407 H   0  0  0  0  0  0  0  0  0  0  0  0
   58.0316   31.1154   43.3686 H   0  0  0  0  0  0  0  0  0  0  0  0
   56.6856   33.0880   43.7567 H   0  0  0  0  0  0  0  0  0  0  0  0
   56.1600   33.4786   45.4459 H   0  0  0  0  0  0  0  0  0  0  0  0
   58.8037   34.0837   44.0728 H   0  0  0  0  0  0  0  0  0  0  0  0
   57.6850   35.1905   44.9606 H   0  0  0  0  0  0  0  0  0  0  0  0
   60.3843   34.4012   49.0881 H   0  0  0  0  0  0  0  0  0  0  0  0
   62.3885   33.4821   50.2545 H   0  0  0  0  0  0  0  0  0  0  0  0
   64.3948   32.7888   48.9421 H   0  0  0  0  0  0  0  0  0  0  0  0
   64.4037   33.0243   46.4566 H   0  0  0  0  0  0  0  0  0  0  0  0
   62.4062   33.9444   45.2803 H   0  0  0  0  0  0  0  0  0  0  0  0
   59.0400   33.0103   48.0318 H   0  0  0  0  0  0  0  0  0  0  0  0
   57.4190   33.7015   47.6386 H   0  0  0  0  0  0  0  0  0  0  0  0
   58.6649   31.0873   46.8129 H   0  0  0  0  0  0  0  0  0  0  0  0
   56.9433   31.5151   47.2747 H   0  0  0  0  0  0  0  0  0  0  0  0
   57.2946   28.8286   43.8819 H   0  0  0  0  0  0  0  0  0  0  0  0
   57.4171   25.7365   45.5149 H   0  0  0  0  0  0  0  0  0  0  0  0
   56.8926   26.5729   44.0142 H   0  0  0  0  0  0  0  0  0  0  0  0
   58.3925   25.5845   44.0142 H   0  0  0  0  0  0  0  0  0  0  0  0
  1  2  1  0
  2  3  2  0
  3  4  1  0
  4  5  2  0
  5  6  1  0
  6  7  1  0
  7  8  1  0
  8  9  1  0
  9 10  1  0
 10 11  1  0
 11 12  2  0
 11 13  1  0
 13 14  2  0
 14 15  1  0
 15 16  2  0
 16 17  1  0
 17 18  2  0
 10 19  1  0
 19 20  1  0
  5 21  1  0
 21 22  2  0
 22 23  1  0
 22  2  1  0
 20  7  1  0
 18 13  1  0
  1 24  1  0
  1 25  1  0
  1 26  1  0
  3 27  1  0
  4 28  1  0
  6 29  1  0
  6 30  1  0
  8 31  1  0
  8 32  1  0
  9 33  1  0
  9 34  1  0
 14 35  1  0
 15 36  1  0
 16 37  1  0
 17 38  1  0
 18 39  1  0
 19 40  1  0
 19 41  1  0
 20 42  1  0
 20 43  1  0
 21 44  1  0
 23 45  1  0
 23 46  1  0
 23 47  1  0
M  END
>  <UniqueID>  (31) 
30

>  <SMILES>  (31) 
Cc1ccc(CN2CCN(C(=O)c3ccccc3)CC2)cc1C

>  <Energy>  (31) 
59.77407089454666

>  <Genealogy>  (31) 
Cc1ccc(CN2CCN(C(=O)c3ccccc3)CC2)cc1C (3D coordinates assigned)
Cc1ccc(CN2CCN(C(=O)c3ccccc3)CC2)cc1C (nonaromatic ring conformer: 59.77407089454666 kcal/mol)

>  <smiles>  (31) 
Cc1ccc(CN2CCN(C(=O)c3ccccc3)CC2)cc1C

>  <score_type>  (31) 
oracle

>  <origin>  (31) 
adg

>  <m_score__min__energy>  (31) 
-7.9100000000000001

>  <m_primary>  (31) 
energy

$$$$
33:0
     RDKit          3D

 48 51  0  0  0  0  0  0  0  0999 V2000
   57.7680   31.0530   46.7570 O   0  0  0  0  0  0  0  0  0  0  0  0
   58.1110   31.7070   45.7340 C   0  0  0  0  0  0  0  0  0  0  0  0
   57.9260   31.0750   44.3590 C   0  0  2  0  0  0  0  0  0  0  0  0
   56.4300   30.8560   44.0280 C   0  0  0  0  0  0  0  0  0  0  0  0
   55.7970   29.8470   44.8050 O   0  0  0  0  0  0  0  0  0  0  0  0
   56.6210   28.7250   45.1060 C   0  0  0  0  0  0  0  0  0  0  0  0
   57.8150   28.5100   44.1480 C   0  0  2  0  0  0  0  0  0  0  0  0
   58.7290   27.3640   44.6060 C   0  0  0  0  0  0  0  0  0  0  0  0
   60.0330   27.9420   44.9950 N   0  0  2  0  0  0  0  0  0  0  0  0
   60.6210   27.2460   46.1750 C   0  0  0  0  0  0  0  0  0  0  0  0
   60.3850   27.9380   47.5210 C   0  0  0  0  0  0  0  0  0  0  0  0
   59.6200   26.7120   48.0110 C   0  0  0  0  0  0  0  0  0  0  0  0
   59.8680   26.0090   46.6820 C   0  0  0  0  0  0  0  0  0  0  0  0
   59.8310   29.3990   45.1050 C   0  0  0  0  0  0  0  0  0  0  0  0
   58.7090   29.7450   44.1280 C   0  0  2  0  0  0  0  0  0  0  0  0
   58.7500   32.9940   45.9050 N   0  0  0  0  0  0  0  0  0  0  0  0
   59.5390   33.2170   47.1290 C   0  0  0  0  0  0  0  0  0  0  0  0
   59.8220   34.7030   47.3560 C   0  0  0  0  0  0  0  0  0  0  0  0
   60.2980   35.3030   46.1710 O   0  0  0  0  0  0  0  0  0  0  0  0
   59.2500   35.3410   45.2270 C   0  0  0  0  0  0  0  0  0  0  0  0
   58.8680   33.9280   44.7710 C   0  0  0  0  0  0  0  0  0  0  0  0
   58.3637   31.8131   43.6708 H   0  0  0  0  0  0  0  0  0  0  0  0
   55.8982   31.8040   44.1965 H   0  0  0  0  0  0  0  0  0  0  0  0
   56.3865   30.5194   42.9817 H   0  0  0  0  0  0  0  0  0  0  0  0
   57.0199   28.8585   46.1224 H   0  0  0  0  0  0  0  0  0  0  0  0
   55.9798   27.8376   44.9989 H   0  0  0  0  0  0  0  0  0  0  0  0
   57.3710   28.2899   43.1660 H   0  0  0  0  0  0  0  0  0  0  0  0
   58.2779   26.8491   45.4671 H   0  0  0  0  0  0  0  0  0  0  0  0
   58.8631   26.6359   43.7924 H   0  0  0  0  0  0  0  0  0  0  0  0
   60.6940   27.7870   44.1940 H   0  0  0  0  0  0  0  0  0  0  0  0
   61.6366   27.1361   45.7669 H   0  0  0  0  0  0  0  0  0  0  0  0
   61.3051   28.1495   48.0856 H   0  0  0  0  0  0  0  0  0  0  0  0
   59.9255   28.9366   47.5627 H   0  0  0  0  0  0  0  0  0  0  0  0
   60.0829   26.2119   48.8745 H   0  0  0  0  0  0  0  0  0  0  0  0
   58.5953   26.8183   48.3966 H   0  0  0  0  0  0  0  0  0  0  0  0
   60.4894   25.1047   46.7604 H   0  0  0  0  0  0  0  0  0  0  0  0
   59.0293   25.5906   46.1062 H   0  0  0  0  0  0  0  0  0  0  0  0
   59.5403   29.6679   46.1312 H   0  0  0  0  0  0  0  0  0  0  0  0
   60.7528   29.9517   44.8710 H   0  0  0  0  0  0  0  0  0  0  0  0
   59.1437   29.9716   43.1433 H   0  0  0  0  0  0  0  0  0  0  0  0
   58.9789   32.8250   47.9907 H   0  0  0  0  0  0  0  0  0  0  0  0
   60.5020   32.6976   47.0159 H   0  0  0  0  0  0  0  0  0  0  0  0
   58.8940   35.2045   47.6680 H   0  0  0  0  0  0  0  0  0  0  0  0
   60.5891   34.8032   48.1380 H   0  0  0  0  0  0  0  0  0  0  0  0
   58.3720   35.8210   45.6838 H   0  0  0  0  0  0  0  0  0  0  0  0
   59.5895   35.9118   44.3501 H   0  0  0  0  0  0  0  0  0  0  0  0
   57.9022   33.9732   44.2464 H   0  0  0  0  0  0  0  0  0  0  0  0
   59.6643   33.5583   44.1083 H   0  0  0  0  0  0  0  0  0  0  0  0
  1  2  2  0
  2  3  1  0
  3  4  1  0
  4  5  1  0
  5  6  1  0
  6  7  1  0
  7  8  1  0
  8  9  1  0
  9 10  1  0
 10 11  1  0
 11 12  1  0
 12 13  1  0
  9 14  1  0
 14 15  1  0
  2 16  1  0
 16 17  1  0
 17 18  1  0
 18 19  1  0
 19 20  1  0
 20 21  1  0
 15  3  1  0
 21 16  1  0
 15  7  1  0
 13 10  1  0
  3 22  1  6
  4 23  1  0
  4 24  1  0
  6 25  1  0
  6 26  1  0
  7 27  1  6
  8 28  1  0
  8 29  1  0
  9 30  1  6
 10 31  1  0
 11 32  1  0
 11 33  1  0
 12 34  1  0
 12 35  1  0
 13 36  1  0
 13 37  1  0
 14 38  1  0
 14 39  1  0
 15 40  1  6
 17 41  1  0
 17 42  1  0
 18 43  1  0
 18 44  1  0
 20 45  1  0
 20 46  1  0
 21 47  1  0
 21 48  1  0
M  CHG  1   9   1
M  END
>  <UniqueID>  (32) 
31

>  <SMILES>  (32) 
O=C([C@@H]1COC[C@@H]2C[NH+](C3CCC3)CC21)N1CCOCC1

>  <Energy>  (32) 
137.5943959801927

>  <Genealogy>  (32) 
O=C(C1COCC2C[NH+](C3CCC3)CC21)N1CCOCC1 (protonated)
O=C([C@@H]1COC[C@@H]2C[NH+](C3CCC3)CC21)N1CCOCC1 (chirality)
O=C([C@@H]1COC[C@@H]2C[NH+](C3CCC3)CC21)N1CCOCC1 (3D coordinates assigned)
O=C([C@@H]1COC[C@@H]2C[NH+](C3CCC3)CC21)N1CCOCC1 (nonaromatic ring conformer: 137.5943959801927 kcal/mol)

>  <smiles>  (32) 
O=C(C1COCC2CN(C3CCC3)CC21)N1CCOCC1

>  <score_type>  (32) 
oracle

>  <origin>  (32) 
adg

>  <m_score__min__energy>  (32) 
-5.96

>  <m_primary>  (32) 
energy

$$$$
34:0
     RDKit          3D

 39 40  0  0  0  0  0  0  0  0999 V2000
   61.7940   30.7350   48.0280 O   0  0  0  0  0  0  0  0  0  0  0  0
   60.6300   30.6420   47.5560 C   0  0  0  0  0  0  0  0  0  0  0  0
   60.0500   31.7840   46.7690 C   0  0  0  0  0  0  0  0  0  0  0  0
   58.5650   31.7810   46.7940 N   0  0  0  0  0  0  0  0  0  0  0  0
   58.0340   31.6840   45.4070 C   0  0  0  0  0  0  0  0  0  0  0  0
   58.4220   32.8480   44.4630 C   0  0  0  0  0  0  0  0  0  0  0  0
   58.0000   34.2500   44.9360 C   0  0  0  0  0  0  0  0  0  0  0  0
   58.9490   34.9190   45.9610 C   0  0  0  0  0  0  0  0  0  0  0  0
   59.0190   34.2380   47.3400 C   0  0  0  0  0  0  0  0  0  0  0  0
   58.1020   33.0060   47.4960 C   0  0  0  0  0  0  0  0  0  0  0  0
   59.8380   29.4720   47.7900 N   0  0  0  0  0  0  0  0  0  0  0  0
   59.1680   28.6890   46.7910 C   0  0  0  0  0  0  0  0  0  0  0  0
   58.0270   27.9230   47.0930 C   0  0  0  0  0  0  0  0  0  0  0  0
   57.4020   27.1420   46.1010 C   0  0  0  0  0  0  0  0  0  0  0  0
   56.2320   26.3620   46.4060 N   0  0  0  0  0  0  0  0  0  0  0  0
   55.1080   26.7100   45.9880 O   0  0  0  0  0  0  0  0  0  0  0  0
   56.3330   25.2160   47.1610 O   0  0  0  0  0  0  0  0  0  0  0  0
   57.9460   27.1270   44.8050 C   0  0  0  0  0  0  0  0  0  0  0  0
   59.0940   27.8660   44.5100 C   0  0  0  0  0  0  0  0  0  0  0  0
   59.7080   28.6370   45.4990 C   0  0  0  0  0  0  0  0  0  0  0  0
   60.8240   29.3460   45.1970 F   0  0  0  0  0  0  0  0  0  0  0  0
   60.4103   32.7303   47.1987 H   0  0  0  0  0  0  0  0  0  0  0  0
   60.3719   31.6732   45.7230 H   0  0  0  0  0  0  0  0  0  0  0  0
   58.2780   30.9450   47.3530 H   0  0  0  0  0  0  0  0  0  0  0  0
   58.4093   30.7493   44.9648 H   0  0  0  0  0  0  0  0  0  0  0  0
   56.9385   31.7217   45.4992 H   0  0  0  0  0  0  0  0  0  0  0  0
   59.5162   32.8430   44.3500 H   0  0  0  0  0  0  0  0  0  0  0  0
   57.8797   32.6694   43.5228 H   0  0  0  0  0  0  0  0  0  0  0  0
   57.9404   34.9026   44.0525 H   0  0  0  0  0  0  0  0  0  0  0  0
   57.0386   34.1184   45.4541 H   0  0  0  0  0  0  0  0  0  0  0  0
   59.9622   34.9229   45.5328 H   0  0  0  0  0  0  0  0  0  0  0  0
   58.5404   35.9244   46.1404 H   0  0  0  0  0  0  0  0  0  0  0  0
   60.0570   33.9170   47.5117 H   0  0  0  0  0  0  0  0  0  0  0  0
   58.6701   34.9808   48.0724 H   0  0  0  0  0  0  0  0  0  0  0  0
   58.0224   32.7744   48.5684 H   0  0  0  0  0  0  0  0  0  0  0  0
   57.1420   33.2790   47.0336 H   0  0  0  0  0  0  0  0  0  0  0  0
   57.6187   27.9341   48.1144 H   0  0  0  0  0  0  0  0  0  0  0  0
   57.4642   26.5290   44.0174 H   0  0  0  0  0  0  0  0  0  0  0  0
   59.5160   27.8405   43.4945 H   0  0  0  0  0  0  0  0  0  0  0  0
  1  2  2  0
  2  3  1  0
  3  4  1  0
  4  5  1  0
  5  6  1  0
  6  7  1  0
  7  8  1  0
  8  9  1  0
  9 10  1  0
  2 11  1  0
 11 12  1  0
 12 13  2  0
 13 14  1  0
 14 15  1  0
 15 16  2  0
 15 17  1  0
 14 18  2  0
 18 19  1  0
 19 20  2  0
 20 21  1  0
 10  4  1  0
 20 12  1  0
  3 22  1  0
  3 23  1  0
  4 24  1  0
  5 25  1  0
  5 26  1  0
  6 27  1  0
  6 28  1  0
  7 29  1  0
  7 30  1  0
  8 31  1  0
  8 32  1  0
  9 33  1  0
  9 34  1  0
 10 35  1  0
 10 36  1  0
 13 37  1  0
 18 38  1  0
 19 39  1  0
M  CHG  4   4   1  11  -1  15   1  17  -1
M  END
>  <UniqueID>  (33) 
32

>  <SMILES>  (33) 
O=C(C[NH+]1CCCCCC1)[N-]c1cc([N+](=O)[O-])ccc1F

>  <Energy>  (33) 
56.40379567648231

>  <Genealogy>  (33) 
O=C(C[NH+]1CCCCCC1)[N-]c1cc([N+](=O)[O-])ccc1F (protonated)
O=C(C[NH+]1CCCCCC1)[N-]c1cc([N+](=O)[O-])ccc1F (3D coordinates assigned)
O=C(C[NH+]1CCCCCC1)[N-]c1cc([N+](=O)[O-])ccc1F (nonaromatic ring conformer: 56.40379567648231 kcal/mol)

>  <smiles>  (33) 
O=C(CN1CCCCCC1)Nc1cc([N+](=O)[O-])ccc1F

>  <score_type>  (33) 
oracle

>  <origin>  (33) 
adg

>  <m_score__min__energy>  (33) 
-4.8300000000000001

>  <m_primary>  (33) 
energy

$$$$
35:0
     RDKit          3D

 36 37  0  0  0  0  0  0  0  0999 V2000
   59.6420   35.3750   46.4380 C   0  0  0  0  0  0  0  0  0  0  0  0
   59.0100   34.2140   45.8260 N   0  0  0  0  0  0  0  0  0  0  0  0
   58.7560   34.0530   44.5120 C   0  0  0  0  0  0  0  0  0  0  0  0
   58.2530   32.7880   44.2950 C   0  0  0  0  0  0  0  0  0  0  0  0
   57.7630   32.1350   42.7420 Cl  0  0  0  0  0  0  0  0  0  0  0  0
   58.1980   32.1560   45.5280 C   0  0  0  0  0  0  0  0  0  0  0  0
   57.7760   30.7640   45.7820 C   0  0  0  0  0  0  0  0  0  0  0  0
   58.4480   30.0600   46.5820 O   0  0  0  0  0  0  0  0  0  0  0  0
   56.6560   30.1630   45.1190 N   0  0  0  0  0  0  0  0  0  0  0  0
   56.7230   29.3350   43.9210 C   0  0  0  0  0  0  0  0  0  0  0  0
   57.7230   28.1800   44.1080 C   0  0  0  0  0  0  0  0  0  0  0  0
   57.9670   27.7510   45.5130 N   0  0  0  0  0  0  0  0  0  0  0  0
   59.3760   27.3660   45.7980 C   0  0  0  0  0  0  0  0  0  0  0  0
   59.5670   25.8540   45.9970 C   0  0  0  0  0  0  0  0  0  0  0  0
   58.6100   25.1320   45.2600 O   0  0  0  0  0  0  0  0  0  0  0  0
   57.3390   25.3070   45.8480 C   0  0  0  0  0  0  0  0  0  0  0  0
   56.9560   26.7960   46.0360 C   0  0  0  0  0  0  0  0  0  0  0  0
   58.6950   33.0620   46.4500 C   0  0  0  0  0  0  0  0  0  0  0  0
   59.5928   35.2845   47.5332 H   0  0  0  0  0  0  0  0  0  0  0  0
   60.6941   35.4292   46.1215 H   0  0  0  0  0  0  0  0  0  0  0  0
   59.1164   36.2880   46.1215 H   0  0  0  0  0  0  0  0  0  0  0  0
   58.9239   34.8125   43.7342 H   0  0  0  0  0  0  0  0  0  0  0  0
   55.7260   28.9186   43.7146 H   0  0  0  0  0  0  0  0  0  0  0  0
   57.0597   29.9593   43.0802 H   0  0  0  0  0  0  0  0  0  0  0  0
   57.3417   27.3109   43.5518 H   0  0  0  0  0  0  0  0  0  0  0  0
   58.6880   28.5599   43.7413 H   0  0  0  0  0  0  0  0  0  0  0  0
   57.8100   28.6310   46.0630 H   0  0  0  0  0  0  0  0  0  0  0  0
   60.0032   27.6886   44.9539 H   0  0  0  0  0  0  0  0  0  0  0  0
   59.6626   27.8564   46.7400 H   0  0  0  0  0  0  0  0  0  0  0  0
   60.5741   25.5693   45.6583 H   0  0  0  0  0  0  0  0  0  0  0  0
   59.4435   25.6187   47.0644 H   0  0  0  0  0  0  0  0  0  0  0  0
   56.5862   24.8307   45.2027 H   0  0  0  0  0  0  0  0  0  0  0  0
   57.3742   24.8488   46.8474 H   0  0  0  0  0  0  0  0  0  0  0  0
   56.0056   26.9774   45.5126 H   0  0  0  0  0  0  0  0  0  0  0  0
   56.8832   26.9714   47.1195 H   0  0  0  0  0  0  0  0  0  0  0  0
   58.8143   32.8706   47.5266 H   0  0  0  0  0  0  0  0  0  0  0  0
  1  2  1  0
  2  3  1  0
  3  4  2  0
  4  5  1  0
  4  6  1  0
  6  7  1  0
  7  8  2  0
  7  9  1  0
  9 10  1  0
 10 11  1  0
 11 12  1  0
 12 13  1  0
 13 14  1  0
 14 15  1  0
 15 16  1  0
 16 17  1  0
  6 18  2  0
 18  2  1  0
 17 12  1  0
  1 19  1  0
  1 20  1  0
  1 21  1  0
  3 22  1  0
 10 23  1  0
 10 24  1  0
 11 25  1  0
 11 26  1  0
 12 27  1  0
 13 28  1  0
 13 29  1  0
 14 30  1  0
 14 31  1  0
 16 32  1  0
 16 33  1  0
 17 34  1  0
 17 35  1  0
 18 36  1  0
M  CHG  2   9  -1  12   1
M  END
>  <UniqueID>  (34) 
33

>  <SMILES>  (34) 
Cn1cc(Cl)c(C(=O)[N-]CC[NH+]2CCOCC2)c1

>  <Energy>  (34) 
79.17385841636066

>  <Genealogy>  (34) 
Cn1cc(Cl)c(C(=O)[N-]CC[NH+]2CCOCC2)c1 (protonated)
Cn1cc(Cl)c(C(=O)[N-]CC[NH+]2CCOCC2)c1 (3D coordinates assigned)
Cn1cc(Cl)c(C(=O)[N-]CC[NH+]2CCOCC2)c1 (nonaromatic ring conformer: 79.17385841636066 kcal/mol)

>  <smiles>  (34) 
Cn1cc(Cl)c(C(=O)NCCN2CCOCC2)c1

>  <score_type>  (34) 
oracle

>  <origin>  (34) 
adg

>  <m_score__min__energy>  (34) 
-6.1900000000000004

>  <m_primary>  (34) 
energy

$$$$
36:0
     RDKit          3D

 65 67  0  0  0  0  0  0  0  0999 V2000
   58.3747   23.8114   45.7887 H   0  0  0  0  0  0  0  0  0  0  0  0
   57.3640   24.0290   45.4130 C   0  0  0  0  0  0  0  0  0  0  0  0
   57.1040   25.1910   44.8940 N   0  0  0  0  0  0  0  0  0  0  0  0
   56.6220   26.3150   45.6440 C   0  0  0  0  0  0  0  0  0  0  0  0
   55.4970   26.2280   46.2050 O   0  0  0  0  0  0  0  0  0  0  0  0
   57.4290   27.5510   45.8170 C   0  0  0  0  0  0  0  0  0  0  0  0
   57.2740   28.6140   44.9150 C   0  0  0  0  0  0  0  0  0  0  0  0
   56.5637   28.5143   44.0810 H   0  0  0  0  0  0  0  0  0  0  0  0
   57.9880   29.7710   45.0520 N   0  0  0  0  0  0  0  0  0  0  0  0
   57.7790   30.8510   44.0710 C   0  0  0  0  0  0  0  0  0  0  0  0
   57.4652   31.7636   44.5989 H   0  0  0  0  0  0  0  0  0  0  0  0
   58.7214   31.0292   43.5323 H   0  0  0  0  0  0  0  0  0  0  0  0
   56.7020   30.4580   43.0640 C   0  0  0  0  0  0  0  0  0  0  0  0
   55.8003   30.1290   43.6012 H   0  0  0  0  0  0  0  0  0  0  0  0
   56.4568   31.3246   42.4324 H   0  0  0  0  0  0  0  0  0  0  0  0
   57.0726   29.6371   42.4324 H   0  0  0  0  0  0  0  0  0  0  0  0
   58.9150   29.9010   46.0560 C   0  0  0  0  0  0  0  0  0  0  0  0
   59.6480   31.0430   46.1730 N   0  0  0  0  0  0  0  0  0  0  0  0
   60.5790   31.2300   47.1480 C   0  0  0  0  0  0  0  0  0  0  0  0
   61.2940   32.4790   47.2110 N   0  0  0  0  0  0  0  0  0  0  0  0
   62.7610   32.4840   47.1290 C   0  0  0  0  0  0  0  0  0  0  0  0
   63.1514   31.6248   47.6942 H   0  0  0  0  0  0  0  0  0  0  0  0
   63.0426   32.4224   46.0674 H   0  0  0  0  0  0  0  0  0  0  0  0
   63.3670   33.7790   47.7090 C   0  0  0  0  0  0  0  0  0  0  0  0
   64.4331   33.6034   47.9155 H   0  0  0  0  0  0  0  0  0  0  0  0
   63.2140   34.5725   46.9627 H   0  0  0  0  0  0  0  0  0  0  0  0
   62.7120   34.2240   48.9630 N   0  0  0  0  0  0  0  0  0  0  0  0
   63.4220   33.8540   50.2060 C   0  0  0  0  0  0  0  0  0  0  0  0
   63.7874   34.7745   50.6848 H   0  0  0  0  0  0  0  0  0  0  0  0
   62.7041   33.3101   50.8375 H   0  0  0  0  0  0  0  0  0  0  0  0
   64.6150   32.9210   49.9770 C   0  0  0  0  0  0  0  0  0  0  0  0
   65.0227   32.6021   50.9476 H   0  0  0  0  0  0  0  0  0  0  0  0
   64.2862   32.0379   49.4095 H   0  0  0  0  0  0  0  0  0  0  0  0
   65.3928   33.4529   49.4095 H   0  0  0  0  0  0  0  0  0  0  0  0
   61.2380   34.0700   49.0450 C   0  0  0  0  0  0  0  0  0  0  0  0
   61.0050   33.2877   49.7824 H   0  0  0  0  0  0  0  0  0  0  0  0
   60.8152   35.0415   49.3408 H   0  0  0  0  0  0  0  0  0  0  0  0
   60.6180   33.6810   47.7050 C   0  0  0  0  0  0  0  0  0  0  0  0
   59.5457   33.4753   47.8382 H   0  0  0  0  0  0  0  0  0  0  0  0
   60.7351   34.5026   46.9831 H   0  0  0  0  0  0  0  0  0  0  0  0
   60.8090   30.2060   48.0810 C   0  0  0  0  0  0  0  0  0  0  0  0
   61.7540   30.3310   49.0450 F   0  0  0  0  0  0  0  0  0  0  0  0
   60.0800   29.0190   47.9900 C   0  0  0  0  0  0  0  0  0  0  0  0
   60.2560   28.2118   48.7163 H   0  0  0  0  0  0  0  0  0  0  0  0
   59.1230   28.8500   46.9760 C   0  0  0  0  0  0  0  0  0  0  0  0
   58.3700   27.6700   46.8530 C   0  0  0  0  0  0  0  0  0  0  0  0
   58.5310   26.7240   47.6740 O   0  0  0  0  0  0  0  0  0  0  0  0
   56.2900   22.9790   45.5030 C   0  0  0  0  0  0  0  0  0  0  0  0
   55.5504   23.2953   46.2532 H   0  0  0  0  0  0  0  0  0  0  0  0
   56.7737   22.0317   45.7834 H   0  0  0  0  0  0  0  0  0  0  0  0
   55.5940   22.7620   44.2130 N   0  0  0  0  0  0  0  0  0  0  0  0
   56.5300   22.7300   43.0630 C   0  0  0  0  0  0  0  0  0  0  0  0
   57.2867   23.5186   43.1873 H   0  0  0  0  0  0  0  0  0  0  0  0
   55.9658   22.8972   42.1337 H   0  0  0  0  0  0  0  0  0  0  0  0
   57.2210   21.3750   42.9910 C   0  0  0  0  0  0  0  0  0  0  0  0
   57.4097   21.0050   44.0096 H   0  0  0  0  0  0  0  0  0  0  0  0
   56.5761   20.6625   42.4557 H   0  0  0  0  0  0  0  0  0  0  0  0
   58.1764   21.4786   42.4557 H   0  0  0  0  0  0  0  0  0  0  0  0
   54.4760   23.7100   44.0100 C   0  0  0  0  0  0  0  0  0  0  0  0
   54.8812   24.6939   43.7314 H   0  0  0  0  0  0  0  0  0  0  0  0
   53.8256   23.3284   43.2091 H   0  0  0  0  0  0  0  0  0  0  0  0
   53.6560   23.8480   45.2900 C   0  0  0  0  0  0  0  0  0  0  0  0
   54.3166   23.7368   46.1625 H   0  0  0  0  0  0  0  0  0  0  0  0
   53.1793   24.8390   45.3150 H   0  0  0  0  0  0  0  0  0  0  0  0
   52.8811   23.0676   45.3150 H   0  0  0  0  0  0  0  0  0  0  0  0
  1  2  1  0
  2  3  2  0
  3  4  1  0
  4  5  2  0
  4  6  1  0
  6  7  2  0
  7  8  1  0
  7  9  1  0
  9 10  1  0
 10 11  1  0
 10 12  1  0
 10 13  1  0
 13 14  1  0
 13 15  1  0
 13 16  1  0
  9 17  1  0
 17 18  2  0
 18 19  1  0
 19 20  1  0
 20 21  1  0
 21 22  1  0
 21 23  1  0
 21 24  1  0
 24 25  1  0
 24 26  1  0
 24 27  1  0
 27 28  1  0
 28 29  1  0
 28 30  1  0
 28 31  1  0
 31 32  1  0
 31 33  1  0
 31 34  1  0
 27 35  1  0
 35 36  1  0
 35 37  1  0
 35 38  1  0
 38 39  1  0
 38 40  1  0
 19 41  2  0
 41 42  1  0
 41 43  1  0
 43 44  1  0
 43 45  2  0
 45 46  1  0
 46 47  2  0
  2 48  1  0
 48 49  1  0
 48 50  1  0
 48 51  1  0
 51 52  1  0
 52 53  1  0
 52 54  1  0
 52 55  1  0
 55 56  1  0
 55 57  1  0
 55 58  1  0
 51 59  1  0
 59 60  1  0
 59 61  1  0
 59 62  1  0
 62 63  1  0
 62 64  1  0
 62 65  1  0
 46  6  1  0
 45 17  1  0
 38 20  1  0
M  END
>  <UniqueID>  (35) 
34

>  <SMILES>  (35) 
CCN(CC)C/C=N/C(=O)c1cn(CC)c2nc(N3CCN(CC)CC3)c(F)cc2c1=O

>  <Energy>  (35) 
86.11261197029552

>  <Genealogy>  (35) 
CCN(CC)C/C=N/C(=O)c1cn(CC)c2nc(N3CCN(CC)CC3)c(F)cc2c1=O (cis-trans isomerization)
CCN(CC)C/C=N/C(=O)c1cn(CC)c2nc(N3CCN(CC)CC3)c(F)cc2c1=O (3D coordinates assigned)
CCN(CC)C/C=N/C(=O)c1cn(CC)c2nc(N3CCN(CC)CC3)c(F)cc2c1=O (nonaromatic ring conformer: 86.11261197029552 kcal/mol)

>  <smiles>  (35) 
CCN(CC)CC=NC(=O)c1cn(CC)c2nc(N3CCN(CC)CC3)c(F)cc2c1=O

>  <score_type>  (35) 
oracle

>  <origin>  (35) 
adg

>  <m_score__min__energy>  (35) 
-7.5800000000000001

>  <m_primary>  (35) 
energy

$$$$
37:0
     RDKit          3D

 53 56  0  0  0  0  0  0  0  0999 V2000
   54.6190   24.4050   45.4110 C   0  0  0  0  0  0  0  0  0  0  0  0
   55.1660   25.5770   46.0060 O   0  0  0  0  0  0  0  0  0  0  0  0
   56.5360   25.8740   46.0550 C   0  0  0  0  0  0  0  0  0  0  0  0
   57.4520   24.8820   45.6940 C   0  0  0  0  0  0  0  0  0  0  0  0
   58.7870   25.1330   45.7290 N   0  0  0  0  0  0  0  0  0  0  0  0
   59.2790   26.3410   46.1080 C   0  0  0  0  0  0  0  0  0  0  0  0
   58.4070   27.3720   46.4820 C   0  0  0  0  0  0  0  0  0  0  0  0
   58.9340   28.6900   46.8940 C   0  0  0  0  0  0  0  0  0  0  0  0
   59.7030   28.9840   48.0240 C   0  0  0  0  0  0  0  0  0  0  0  0
   60.1520   27.9830   49.0500 C   0  0  0  0  0  0  0  0  0  0  0  0
   59.9490   30.3220   48.0920 N   0  0  0  0  0  0  0  0  0  0  0  0
   60.6320   31.0340   49.1810 C   0  0  0  0  0  0  0  0  0  0  0  0
   61.6570   31.9850   48.6220 C   0  0  0  0  0  0  0  0  0  0  0  0
   61.6940   33.3230   49.0470 C   0  0  0  0  0  0  0  0  0  0  0  0
   62.6310   34.2100   48.5050 C   0  0  0  0  0  0  0  0  0  0  0  0
   63.5350   33.7660   47.5370 C   0  0  0  0  0  0  0  0  0  0  0  0
   63.5050   32.4370   47.1090 C   0  0  0  0  0  0  0  0  0  0  0  0
   62.5690   31.5480   47.6470 C   0  0  0  0  0  0  0  0  0  0  0  0
   59.3460   30.8680   47.0090 C   0  0  0  0  0  0  0  0  0  0  0  0
   59.2810   32.2160   46.6430 C   0  0  0  0  0  0  0  0  0  0  0  0
   58.5540   32.5680   45.4810 C   0  0  0  0  0  0  0  0  0  0  0  0
   58.4450   33.9000   45.0510 O   0  0  0  0  0  0  0  0  0  0  0  0
   59.2750   34.9650   45.5050 C   0  0  0  0  0  0  0  0  0  0  0  0
   57.9070   31.5660   44.7180 C   0  0  0  0  0  0  0  0  0  0  0  0
   57.1930   31.9570   43.5750 O   0  0  0  0  0  0  0  0  0  0  0  0
   57.7570   32.0790   42.2750 C   0  0  0  0  0  0  0  0  0  0  0  0
   57.9890   30.2110   45.1190 C   0  0  0  0  0  0  0  0  0  0  0  0
   58.7270   29.9000   46.2600 C   0  0  0  0  0  0  0  0  0  0  0  0
   57.0260   27.1320   46.4490 C   0  0  0  0  0  0  0  0  0  0  0  0
   54.2948   23.7104   46.1999 H   0  0  0  0  0  0  0  0  0  0  0  0
   53.7559   24.6794   44.7867 H   0  0  0  0  0  0  0  0  0  0  0  0
   55.3836   23.9197   44.7867 H   0  0  0  0  0  0  0  0  0  0  0  0
   57.0900   23.8920   45.3796 H   0  0  0  0  0  0  0  0  0  0  0  0
   60.3658   26.5105   46.1214 H   0  0  0  0  0  0  0  0  0  0  0  0
   59.9717   28.3850   50.0579 H   0  0  0  0  0  0  0  0  0  0  0  0
   59.5871   27.0479   48.9217 H   0  0  0  0  0  0  0  0  0  0  0  0
   61.2260   27.7831   48.9217 H   0  0  0  0  0  0  0  0  0  0  0  0
   59.8915   31.6007   49.7645 H   0  0  0  0  0  0  0  0  0  0  0  0
   61.1386   30.3005   49.8255 H   0  0  0  0  0  0  0  0  0  0  0  0
   60.9834   33.6753   49.8092 H   0  0  0  0  0  0  0  0  0  0  0  0
   62.6557   35.2570   48.8413 H   0  0  0  0  0  0  0  0  0  0  0  0
   64.2712   34.4638   47.1115 H   0  0  0  0  0  0  0  0  0  0  0  0
   64.2186   32.0889   46.3476 H   0  0  0  0  0  0  0  0  0  0  0  0
   62.5469   30.5026   47.3054 H   0  0  0  0  0  0  0  0  0  0  0  0
   59.7843   32.9865   47.2455 H   0  0  0  0  0  0  0  0  0  0  0  0
   59.2855   34.9784   46.6049 H   0  0  0  0  0  0  0  0  0  0  0  0
   60.2986   34.8174   45.1304 H   0  0  0  0  0  0  0  0  0  0  0  0
   58.8818   35.9216   45.1304 H   0  0  0  0  0  0  0  0  0  0  0  0
   58.8289   32.3109   42.3606 H   0  0  0  0  0  0  0  0  0  0  0  0
   57.6290   31.1324   41.7295 H   0  0  0  0  0  0  0  0  0  0  0  0
   57.2493   32.8881   41.7295 H   0  0  0  0  0  0  0  0  0  0  0  0
   57.4823   29.4220   44.5438 H   0  0  0  0  0  0  0  0  0  0  0  0
   56.3238   27.9300   46.7321 H   0  0  0  0  0  0  0  0  0  0  0  0
  1  2  1  0
  2  3  1  0
  3  4  2  0
  4  5  1  0
  5  6  2  0
  6  7  1  0
  7  8  1  0
  8  9  2  0
  9 10  1  0
  9 11  1  0
 11 12  1  0
 12 13  1  0
 13 14  2  0
 14 15  1  0
 15 16  2  0
 16 17  1  0
 17 18  2  0
 11 19  1  0
 19 20  2  0
 20 21  1  0
 21 22  1  0
 22 23  1  0
 21 24  2  0
 24 25  1  0
 25 26  1  0
 24 27  1  0
 27 28  2  0
  7 29  2  0
 29  3  1  0
 28  8  1  0
 18 13  1  0
 28 19  1  0
  1 30  1  0
  1 31  1  0
  1 32  1  0
  4 33  1  0
  6 34  1  0
 10 35  1  0
 10 36  1  0
 10 37  1  0
 12 38  1  0
 12 39  1  0
 14 40  1  0
 15 41  1  0
 16 42  1  0
 17 43  1  0
 18 44  1  0
 20 45  1  0
 23 46  1  0
 23 47  1  0
 23 48  1  0
 26 49  1  0
 26 50  1  0
 26 51  1  0
 27 52  1  0
 29 53  1  0
M  END
>  <UniqueID>  (36) 
35

>  <SMILES>  (36) 
COc1cncc(-c2c(C)n(Cc3ccccc3)c3cc(OC)c(OC)cc23)c1

>  <Energy>  (36) 
93.21451033838748

>  <Genealogy>  (36) 
COc1cncc(-c2c(C)n(Cc3ccccc3)c3cc(OC)c(OC)cc23)c1 (3D coordinates assigned)
COc1cncc(-c2c(C)n(Cc3ccccc3)c3cc(OC)c(OC)cc23)c1 (optimized conformer: 93.21451033838748 kcal/mol)

>  <smiles>  (36) 
COc1cncc(-c2c(C)n(Cc3ccccc3)c3cc(OC)c(OC)cc23)c1

>  <score_type>  (36) 
oracle

>  <origin>  (36) 
adg

>  <m_score__min__energy>  (36) 
-7.8499999999999996

>  <m_primary>  (36) 
energy

$$$$
38:0
     RDKit          3D

 50 52  0  0  0  0  0  0  0  0999 V2000
   58.1280   26.7780   43.0790 C   0  0  0  0  0  0  0  0  0  0  0  0
   57.7250   26.2770   44.4610 C   0  0  0  0  0  0  0  0  0  0  0  0
   57.1740   27.3380   45.2440 O   0  0  0  0  0  0  0  0  0  0  0  0
   57.4070   28.7140   45.0570 C   0  0  0  0  0  0  0  0  0  0  0  0
   56.5940   29.4880   44.2080 C   0  0  0  0  0  0  0  0  0  0  0  0
   56.8390   30.8480   44.0280 C   0  0  0  0  0  0  0  0  0  0  0  0
   57.9060   31.4740   44.6810 C   0  0  0  0  0  0  0  0  0  0  0  0
   58.1360   32.9590   44.4720 C   0  0  0  0  0  0  0  0  0  0  0  0
   58.7780   33.5910   45.6490 N   0  0  0  0  0  0  0  0  0  0  0  0
   57.7890   33.7670   46.7260 C   0  0  0  0  0  0  0  0  0  0  0  0
   59.3710   34.8960   45.3040 C   0  0  0  0  0  0  0  0  0  0  0  0
   58.7280   30.7210   45.5400 C   0  0  0  0  0  0  0  0  0  0  0  0
   59.7290   31.3210   46.1780 O   0  0  0  0  0  0  0  0  0  0  0  0
   60.5510   30.6960   47.0150 C   0  0  0  0  0  0  0  0  0  0  0  0
   61.6250   31.4830   47.6750 C   0  0  0  0  0  0  0  0  0  0  0  0
   62.1260   32.6740   47.1140 C   0  0  0  0  0  0  0  0  0  0  0  0
   63.1470   33.3830   47.7520 C   0  0  0  0  0  0  0  0  0  0  0  0
   63.6950   32.9200   48.9520 C   0  0  0  0  0  0  0  0  0  0  0  0
   64.7170   33.6700   49.5520 O   0  0  0  0  0  0  0  0  0  0  0  0
   65.2440   33.4170   50.8500 C   0  0  0  0  0  0  0  0  0  0  0  0
   63.2090   31.7250   49.5110 C   0  0  0  0  0  0  0  0  0  0  0  0
   62.1880   31.0120   48.8740 C   0  0  0  0  0  0  0  0  0  0  0  0
   60.3880   29.3200   47.2400 C   0  0  0  0  0  0  0  0  0  0  0  0
   59.3550   28.6390   46.5990 C   0  0  0  0  0  0  0  0  0  0  0  0
   59.2180   27.4030   46.8130 O   0  0  0  0  0  0  0  0  0  0  0  0
   58.4880   29.3370   45.7300 C   0  0  0  0  0  0  0  0  0  0  0  0
   58.8143   27.6312   43.1840 H   0  0  0  0  0  0  0  0  0  0  0  0
   58.6301   25.9692   42.5278 H   0  0  0  0  0  0  0  0  0  0  0  0
   57.2304   27.0951   42.5278 H   0  0  0  0  0  0  0  0  0  0  0  0
   56.9731   25.4816   44.3513 H   0  0  0  0  0  0  0  0  0  0  0  0
   58.6196   25.8901   44.9708 H   0  0  0  0  0  0  0  0  0  0  0  0
   55.7542   29.0132   43.6796 H   0  0  0  0  0  0  0  0  0  0  0  0
   56.1864   31.4355   43.3654 H   0  0  0  0  0  0  0  0  0  0  0  0
   58.7857   33.0981   43.5953 H   0  0  0  0  0  0  0  0  0  0  0  0
   57.1570   33.4371   44.3206 H   0  0  0  0  0  0  0  0  0  0  0  0
   59.5360   32.9640   46.0100 H   0  0  0  0  0  0  0  0  0  0  0  0
   58.2895   33.6779   47.7015 H   0  0  0  0  0  0  0  0  0  0  0  0
   57.3268   34.7615   46.6405 H   0  0  0  0  0  0  0  0  0  0  0  0
   57.0121   32.9930   46.6405 H   0  0  0  0  0  0  0  0  0  0  0  0
   59.6189   35.4415   46.2265 H   0  0  0  0  0  0  0  0  0  0  0  0
   60.2860   34.7385   44.7141 H   0  0  0  0  0  0  0  0  0  0  0  0
   58.6506   35.4816   44.7141 H   0  0  0  0  0  0  0  0  0  0  0  0
   61.7105   33.0485   46.1669 H   0  0  0  0  0  0  0  0  0  0  0  0
   63.5236   34.3151   47.3055 H   0  0  0  0  0  0  0  0  0  0  0  0
   64.5273   33.7611   51.6102 H   0  0  0  0  0  0  0  0  0  0  0  0
   65.4173   32.3375   50.9714 H   0  0  0  0  0  0  0  0  0  0  0  0
   66.1947   33.9569   50.9714 H   0  0  0  0  0  0  0  0  0  0  0  0
   63.6336   31.3491   50.4535 H   0  0  0  0  0  0  0  0  0  0  0  0
   61.8219   30.0734   49.3156 H   0  0  0  0  0  0  0  0  0  0  0  0
   61.0699   28.7839   47.9165 H   0  0  0  0  0  0  0  0  0  0  0  0
  1  2  1  0
  2  3  1  0
  3  4  1  0
  4  5  2  0
  5  6  1  0
  6  7  2  0
  7  8  1  0
  8  9  1  0
  9 10  1  0
  9 11  1  0
  7 12  1  0
 12 13  1  0
 13 14  1  0
 14 15  1  0
 15 16  2  0
 16 17  1  0
 17 18  2  0
 18 19  1  0
 19 20  1  0
 18 21  1  0
 21 22  2  0
 14 23  2  0
 23 24  1  0
 24 25  2  0
 24 26  1  0
 26  4  1  0
 26 12  2  0
 22 15  1  0
  1 27  1  0
  1 28  1  0
  1 29  1  0
  2 30  1  0
  2 31  1  0
  5 32  1  0
  6 33  1  0
  8 34  1  0
  8 35  1  0
  9 36  1  0
 10 37  1  0
 10 38  1  0
 10 39  1  0
 11 40  1  0
 11 41  1  0
 11 42  1  0
 16 43  1  0
 17 44  1  0
 20 45  1  0
 20 46  1  0
 20 47  1  0
 21 48  1  0
 22 49  1  0
 23 50  1  0
M  CHG  1   9   1
M  END
>  <UniqueID>  (37) 
36

>  <SMILES>  (37) 
CCOc1ccc(C[NH+](C)C)c2oc(-c3ccc(OC)cc3)cc(=O)c12

>  <Energy>  (37) 
59.56649160246761

>  <Genealogy>  (37) 
CCOc1ccc(C[NH+](C)C)c2oc(-c3ccc(OC)cc3)cc(=O)c12 (protonated)
CCOc1ccc(C[NH+](C)C)c2oc(-c3ccc(OC)cc3)cc(=O)c12 (3D coordinates assigned)
CCOc1ccc(C[NH+](C)C)c2oc(-c3ccc(OC)cc3)cc(=O)c12 (optimized conformer: 59.56649160246761 kcal/mol)

>  <smiles>  (37) 
CCOc1ccc(CN(C)C)c2oc(-c3ccc(OC)cc3)cc(=O)c12

>  <score_type>  (37) 
oracle

>  <origin>  (37) 
adg

>  <m_score__min__energy>  (37) 
-5.3399999999999999

>  <m_primary>  (37) 
energy

$$$$
39:0
     RDKit          3D

 42 44  0  0  0  0  0  0  0  0999 V2000
   54.4790   28.4010   44.1320 H   0  0  0  0  0  0  0  0  0  0  0  0
   54.8800   29.3570   43.9960 N   0  0  0  0  0  0  0  0  0  0  0  0
   55.9410   29.7440   44.6320 C   0  0  0  0  0  0  0  0  0  0  0  0
   56.3880   31.0160   44.4820 N   0  0  0  0  0  0  0  0  0  0  0  0
   57.4920   31.4800   45.1200 C   0  0  0  0  0  0  0  0  0  0  0  0
   57.8890   32.8040   44.9110 C   0  0  0  0  0  0  0  0  0  0  0  0
   57.3065   33.4495   44.2372 H   0  0  0  0  0  0  0  0  0  0  0  0
   59.0180   33.3110   45.5510 C   0  0  0  0  0  0  0  0  0  0  0  0
   59.3215   34.3545   45.3809 H   0  0  0  0  0  0  0  0  0  0  0  0
   59.7700   32.4960   46.4120 C   0  0  0  0  0  0  0  0  0  0  0  0
   60.9130   32.9630   47.0780 O   0  0  0  0  0  0  0  0  0  0  0  0
   62.0350   32.1530   47.4190 C   0  0  0  0  0  0  0  0  0  0  0  0
   62.1225   32.0899   48.5137 H   0  0  0  0  0  0  0  0  0  0  0  0
   61.8985   31.1438   47.0032 H   0  0  0  0  0  0  0  0  0  0  0  0
   62.9500   32.6002   47.0032 H   0  0  0  0  0  0  0  0  0  0  0  0
   59.3760   31.1690   46.6240 C   0  0  0  0  0  0  0  0  0  0  0  0
   59.9652   30.5316   47.2997 H   0  0  0  0  0  0  0  0  0  0  0  0
   58.2330   30.6340   45.9840 C   0  0  0  0  0  0  0  0  0  0  0  0
   57.7860   29.2940   46.1620 C   0  0  0  0  0  0  0  0  0  0  0  0
   58.4380   28.3570   46.9960 C   0  0  0  0  0  0  0  0  0  0  0  0
   59.3412   28.6553   47.5485 H   0  0  0  0  0  0  0  0  0  0  0  0
   57.9470   27.0580   47.1250 C   0  0  0  0  0  0  0  0  0  0  0  0
   58.4598   26.3364   47.7779 H   0  0  0  0  0  0  0  0  0  0  0  0
   56.8030   26.6770   46.4230 C   0  0  0  0  0  0  0  0  0  0  0  0
   56.3490   25.4640   46.5460 N   0  0  0  0  0  0  0  0  0  0  0  0
   57.1310   24.2480   46.3160 C   0  0  0  0  0  0  0  0  0  0  0  0
   57.7851   24.0730   47.1829 H   0  0  0  0  0  0  0  0  0  0  0  0
   56.4348   23.4075   46.1787 H   0  0  0  0  0  0  0  0  0  0  0  0
   57.9950   24.3730   45.0550 C   0  0  0  0  0  0  0  0  0  0  0  0
   58.8678   25.0043   45.2780 H   0  0  0  0  0  0  0  0  0  0  0  0
   58.3158   23.3664   44.7487 H   0  0  0  0  0  0  0  0  0  0  0  0
   57.2330   24.9780   43.9520 N   0  0  0  0  0  0  0  0  0  0  0  0
   56.7310   25.8140   44.3360 H   0  0  0  0  0  0  0  0  0  0  0  0
   56.2170   24.0540   43.4310 C   0  0  0  0  0  0  0  0  0  0  0  0
   55.3666   24.0174   44.1278 H   0  0  0  0  0  0  0  0  0  0  0  0
   55.8781   24.4085   42.4464 H   0  0  0  0  0  0  0  0  0  0  0  0
   56.8080   22.6580   43.2830 C   0  0  0  0  0  0  0  0  0  0  0  0
   56.9896   22.2292   44.2796 H   0  0  0  0  0  0  0  0  0  0  0  0
   56.1035   22.0182   42.7313 H   0  0  0  0  0  0  0  0  0  0  0  0
   57.7577   22.7185   42.7313 H   0  0  0  0  0  0  0  0  0  0  0  0
   56.1770   27.5810   45.6240 N   0  0  0  0  0  0  0  0  0  0  0  0
   56.6260   28.8580   45.4720 C   0  0  0  0  0  0  0  0  0  0  0  0
  1  2  1  0
  2  3  2  0
  3  4  1  0
  4  5  1  0
  5  6  2  0
  6  7  1  0
  6  8  1  0
  8  9  1  0
  8 10  2  0
 10 11  1  0
 11 12  1  0
 12 13  1  0
 12 14  1  0
 12 15  1  0
 10 16  1  0
 16 17  1  0
 16 18  2  0
 18 19  1  0
 19 20  1  0
 20 21  1  0
 20 22  2  0
 22 23  1  0
 22 24  1  0
 24 25  2  0
 25 26  1  0
 26 27  1  0
 26 28  1  0
 26 29  1  0
 29 30  1  0
 29 31  1  0
 29 32  1  0
 32 33  1  0
 32 34  1  0
 34 35  1  0
 34 36  1  0
 34 37  1  0
 37 38  1  0
 37 39  1  0
 37 40  1  0
 24 41  1  0
 41 42  1  0
 42  3  1  0
 18  5  1  0
 42 19  2  0
M  CHG  2   4  -1  41  -1
M  END
>  <UniqueID>  (38) 
37

>  <SMILES>  (38) 
[H]/N=c1\[n-]c2ccc(OC)cc2c2cc/c(=N/CCNCC)[n-]c12

>  <Energy>  (38) 
49.23641158732554

>  <Genealogy>  (38) 
CCNCCN=c1ccc2c([n-]1)c(=N)[n-]c1ccc(OC)cc12 (protonated)
[H]/N=c1\[n-]c2ccc(OC)cc2c2cc/c(=N/CCNCC)[n-]c12 (cis-trans isomerization)
[H]/N=c1\[n-]c2ccc(OC)cc2c2cc/c(=N/CCNCC)[n-]c12 (3D coordinates assigned)
[H]/N=c1\[n-]c2ccc(OC)cc2c2cc/c(=N/CCNCC)[n-]c12 (optimized conformer: 49.23641158732554 kcal/mol)

>  <smiles>  (38) 
CCNCCN=c1ccc2c([nH]1)c(=N)[nH]c1ccc(OC)cc12

>  <score_type>  (38) 
oracle

>  <origin>  (38) 
adg

>  <m_score__min__energy>  (38) 
-10.800000000000001

>  <m_primary>  (38) 
energy

$$$$
40:0
     RDKit          3D

 42 44  0  0  0  0  0  0  0  0999 V2000
   56.4730   21.8100   42.6160 C   0  0  0  0  0  0  0  0  0  0  0  0
   56.2430   23.1380   42.9760 C   0  0  0  0  0  0  0  0  0  0  0  0
   57.0080   23.7280   43.9820 C   0  0  0  0  0  0  0  0  0  0  0  0
   58.0110   22.9780   44.6160 C   0  0  0  0  0  0  0  0  0  0  0  0
   58.8210   23.5840   45.7290 C   0  0  0  0  0  0  0  0  0  0  0  0
   57.9250   24.4130   46.6530 C   0  0  0  0  0  0  0  0  0  0  0  0
   57.9040   25.8530   46.2180 C   0  0  0  0  0  0  0  0  0  0  0  0
   59.0970   26.5340   45.9460 C   0  0  0  0  0  0  0  0  0  0  0  0
   59.0640   27.8600   45.5110 C   0  0  0  0  0  0  0  0  0  0  0  0
   57.8270   28.5060   45.3390 C   0  0  0  0  0  0  0  0  0  0  0  0
   57.7510   29.8770   44.8890 N   0  0  0  0  0  0  0  0  0  0  0  0
   56.8490   30.2310   43.7820 C   0  0  0  0  0  0  0  0  0  0  0  0
   57.4440   31.3810   42.9630 C   0  0  0  0  0  0  0  0  0  0  0  0
   57.7690   32.6190   43.8240 C   0  0  0  0  0  0  0  0  0  0  0  0
   57.8730   32.3180   45.3280 C   0  0  0  0  0  0  0  0  0  0  0  0
   58.4860   30.9390   45.5980 C   0  0  0  0  0  0  0  0  0  0  0  0
   56.6810   27.8130   45.5940 N   0  0  0  0  0  0  0  0  0  0  0  0
   56.6880   26.5220   46.0180 C   0  0  0  0  0  0  0  0  0  0  0  0
   58.2080   21.6750   44.2560 N   0  0  0  0  0  0  0  0  0  0  0  0
   57.4690   21.0870   43.2760 C   0  0  0  0  0  0  0  0  0  0  0  0
   55.8767   21.3377   41.8214 H   0  0  0  0  0  0  0  0  0  0  0  0
   55.4596   23.7189   42.4673 H   0  0  0  0  0  0  0  0  0  0  0  0
   56.8269   24.7724   44.2761 H   0  0  0  0  0  0  0  0  0  0  0  0
   59.2958   22.7801   46.3106 H   0  0  0  0  0  0  0  0  0  0  0  0
   59.5887   24.2409   45.2940 H   0  0  0  0  0  0  0  0  0  0  0  0
   56.9017   24.0106   46.6207 H   0  0  0  0  0  0  0  0  0  0  0  0
   58.3235   24.3576   47.6768 H   0  0  0  0  0  0  0  0  0  0  0  0
   60.0624   26.0228   46.0754 H   0  0  0  0  0  0  0  0  0  0  0  0
   60.0014   28.3970   45.3037 H   0  0  0  0  0  0  0  0  0  0  0  0
   56.7107   29.3549   43.1314 H   0  0  0  0  0  0  0  0  0  0  0  0
   55.8801   30.5479   44.1953 H   0  0  0  0  0  0  0  0  0  0  0  0
   58.3713   31.0306   42.4863 H   0  0  0  0  0  0  0  0  0  0  0  0
   56.6925   31.6822   42.2183 H   0  0  0  0  0  0  0  0  0  0  0  0
   58.7300   33.0341   43.4860 H   0  0  0  0  0  0  0  0  0  0  0  0
   56.9366   33.3265   43.6954 H   0  0  0  0  0  0  0  0  0  0  0  0
   58.5036   33.0854   45.8007 H   0  0  0  0  0  0  0  0  0  0  0  0
   56.8557   32.3248   45.7464 H   0  0  0  0  0  0  0  0  0  0  0  0
   59.5320   30.9392   45.2575 H   0  0  0  0  0  0  0  0  0  0  0  0
   58.4277   30.7392   46.6781 H   0  0  0  0  0  0  0  0  0  0  0  0
   55.7376   26.0006   46.2048 H   0  0  0  0  0  0  0  0  0  0  0  0
   58.9390   21.1060   44.7400 H   0  0  0  0  0  0  0  0  0  0  0  0
   57.6570   20.0382   43.0027 H   0  0  0  0  0  0  0  0  0  0  0  0
  1  2  2  0
  2  3  1  0
  3  4  2  0
  4  5  1  0
  5  6  1  0
  6  7  1  0
  7  8  2  0
  8  9  1  0
  9 10  2  0
 10 11  1  0
 11 12  1  0
 12 13  1  0
 13 14  1  0
 14 15  1  0
 15 16  1  0
 10 17  1  0
 17 18  2  0
  4 19  1  0
 19 20  2  0
 20  1  1  0
 18  7  1  0
 16 11  1  0
  1 21  1  0
  2 22  1  0
  3 23  1  0
  5 24  1  0
  5 25  1  0
  6 26  1  0
  6 27  1  0
  8 28  1  0
  9 29  1  0
 12 30  1  0
 12 31  1  0
 13 32  1  0
 13 33  1  0
 14 34  1  0
 14 35  1  0
 15 36  1  0
 15 37  1  0
 16 38  1  0
 16 39  1  0
 18 40  1  0
 19 41  1  0
 20 42  1  0
M  CHG  1  19   1
M  END
>  <UniqueID>  (39) 
38

>  <SMILES>  (39) 
c1ccc(CCc2ccc(N3CCCCC3)nc2)[nH+]c1

>  <Energy>  (39) 
43.01803957104772

>  <Genealogy>  (39) 
c1ccc(CCc2ccc(N3CCCCC3)nc2)[nH+]c1 (protonated)
c1ccc(CCc2ccc(N3CCCCC3)nc2)[nH+]c1 (3D coordinates assigned)
c1ccc(CCc2ccc(N3CCCCC3)nc2)[nH+]c1 (nonaromatic ring conformer: 43.01803957104772 kcal/mol)

>  <smiles>  (39) 
c1ccc(CCc2ccc(N3CCCCC3)nc2)nc1

>  <score_type>  (39) 
oracle

>  <origin>  (39) 
adg

>  <m_score__min__energy>  (39) 
-5.8200000000000003

>  <m_primary>  (39) 
energy

$$$$
41:0
     RDKit          3D

 44 45  0  0  0  0  0  0  0  0999 V2000
   54.0270   22.0850   46.1460 C   0  0  0  0  0  0  0  0  0  0  0  0
   55.0570   22.6360   45.2050 C   0  0  0  0  0  0  0  0  0  0  0  0
   55.8980   21.7650   44.5790 N   0  0  0  0  0  0  0  0  0  0  0  0
   56.8580   22.1790   43.7130 C   0  0  0  0  0  0  0  0  0  0  0  0
   57.0120   23.5380   43.4400 C   0  0  0  0  0  0  0  0  0  0  0  0
   56.1670   24.4590   44.0590 C   0  0  0  0  0  0  0  0  0  0  0  0
   55.1640   24.0210   44.9390 C   0  0  0  0  0  0  0  0  0  0  0  0
   54.2840   25.0380   45.6160 C   0  0  0  0  0  0  0  0  0  0  0  0
   55.0790   26.2080   45.9700 N   0  0  0  0  0  0  0  0  0  0  0  0
   56.3340   26.1660   46.6590 C   0  0  0  0  0  0  0  0  0  0  0  0
   56.5480   25.2310   47.4740 O   0  0  0  0  0  0  0  0  0  0  0  0
   57.4230   27.1730   46.4030 C   0  0  0  0  0  0  0  0  0  0  0  0
   57.3010   27.7830   44.9980 C   0  0  0  0  0  0  0  0  0  0  0  0
   57.0340   29.2360   45.0670 N   0  0  0  0  0  0  0  0  0  0  0  0
   56.2430   29.7740   43.9280 C   0  0  0  0  0  0  0  0  0  0  0  0
   56.9880   30.8240   43.0930 C   0  0  0  0  0  0  0  0  0  0  0  0
   57.5800   31.9610   43.9450 C   0  0  0  0  0  0  0  0  0  0  0  0
   57.8420   31.5590   45.4050 C   0  0  0  0  0  0  0  0  0  0  0  0
   58.1720   30.0650   45.5490 C   0  0  2  0  0  0  0  0  0  0  0  0
   59.5270   29.7160   44.8900 C   0  0  0  0  0  0  0  0  0  0  0  0
   54.3489   22.2572   47.1837 H   0  0  0  0  0  0  0  0  0  0  0  0
   53.0647   22.5888   45.9722 H   0  0  0  0  0  0  0  0  0  0  0  0
   53.9120   21.0049   45.9722 H   0  0  0  0  0  0  0  0  0  0  0  0
   57.5145   21.4425   43.2266 H   0  0  0  0  0  0  0  0  0  0  0  0
   57.7918   23.8800   42.7437 H   0  0  0  0  0  0  0  0  0  0  0  0
   56.2868   25.5336   43.8569 H   0  0  0  0  0  0  0  0  0  0  0  0
   53.4757   25.3368   44.9324 H   0  0  0  0  0  0  0  0  0  0  0  0
   53.8499   24.5998   46.5268 H   0  0  0  0  0  0  0  0  0  0  0  0
   57.3503   27.9770   47.1502 H   0  0  0  0  0  0  0  0  0  0  0  0
   58.3936   26.6605   46.4757 H   0  0  0  0  0  0  0  0  0  0  0  0
   58.2411   27.6165   44.4517 H   0  0  0  0  0  0  0  0  0  0  0  0
   56.4602   27.2986   44.4798 H   0  0  0  0  0  0  0  0  0  0  0  0
   55.9718   28.9363   43.2687 H   0  0  0  0  0  0  0  0  0  0  0  0
   55.3636   30.2749   44.3590 H   0  0  0  0  0  0  0  0  0  0  0  0
   57.8079   30.3262   42.5545 H   0  0  0  0  0  0  0  0  0  0  0  0
   56.2582   31.2748   42.4044 H   0  0  0  0  0  0  0  0  0  0  0  0
   58.5328   32.2747   43.4937 H   0  0  0  0  0  0  0  0  0  0  0  0
   56.8389   32.7737   43.9607 H   0  0  0  0  0  0  0  0  0  0  0  0
   58.6897   32.1468   45.7870 H   0  0  0  0  0  0  0  0  0  0  0  0
   56.9244   31.7574   45.9782 H   0  0  0  0  0  0  0  0  0  0  0  0
   58.3025   29.8257   46.6147 H   0  0  0  0  0  0  0  0  0  0  0  0
   60.2762   29.5230   45.6720 H   0  0  0  0  0  0  0  0  0  0  0  0
   59.4103   28.8186   44.2646 H   0  0  0  0  0  0  0  0  0  0  0  0
   59.8583   30.5581   44.2646 H   0  0  0  0  0  0  0  0  0  0  0  0
  1  2  1  0
  2  3  2  0
  3  4  1  0
  4  5  2  0
  5  6  1  0
  6  7  2  0
  7  8  1  0
  8  9  1  0
  9 10  1  0
 10 11  2  0
 10 12  1  0
 12 13  1  0
 13 14  1  0
 14 15  1  0
 15 16  1  0
 16 17  1  0
 17 18  1  0
 18 19  1  0
 19 20  1  0
  7  2  1  0
 19 14  1  0
  1 21  1  0
  1 22  1  0
  1 23  1  0
  4 24  1  0
  5 25  1  0
  6 26  1  0
  8 27  1  0
  8 28  1  0
 12 29  1  0
 12 30  1  0
 13 31  1  0
 13 32  1  0
 15 33  1  0
 15 34  1  0
 16 35  1  0
 16 36  1  0
 17 37  1  0
 17 38  1  0
 18 39  1  0
 18 40  1  0
 19 41  1  1
 20 42  1  0
 20 43  1  0
 20 44  1  0
M  CHG  1   9  -1
M  END
>  <UniqueID>  (40) 
39

>  <SMILES>  (40) 
Cc1ncccc1C[N-]C(=O)CCN1CCCC[C@@H]1C

>  <Energy>  (40) 
51.23025981179122

>  <Genealogy>  (40) 
Cc1ncccc1C[N-]C(=O)CCN1CCCCC1C (protonated)
Cc1ncccc1C[N-]C(=O)CCN1CCCC[C@@H]1C (chirality)
Cc1ncccc1C[N-]C(=O)CCN1CCCC[C@@H]1C (3D coordinates assigned)
Cc1ncccc1C[N-]C(=O)CCN1CCCC[C@@H]1C (nonaromatic ring conformer: 51.23025981179122 kcal/mol)

>  <smiles>  (40) 
Cc1ncccc1CNC(=O)CCN1CCCCC1C

>  <score_type>  (40) 
oracle

>  <origin>  (40) 
adg

>  <m_score__min__energy>  (40) 
-9.1899999999999995

>  <m_primary>  (40) 
energy

$$$$
42:0
     RDKit          3D

 31 33  0  0  0  0  0  0  0  0999 V2000
   56.9250   25.8750   45.6530 C   0  0  0  0  0  0  0  0  0  0  0  0
   56.1250   27.0520   45.6190 O   0  0  0  0  0  0  0  0  0  0  0  0
   56.6330   28.3490   45.4550 C   0  0  0  0  0  0  0  0  0  0  0  0
   56.0380   29.2900   44.5910 C   0  0  0  0  0  0  0  0  0  0  0  0
   56.5820   30.5710   44.4630 C   0  0  0  0  0  0  0  0  0  0  0  0
   57.7210   30.9370   45.1980 C   0  0  0  0  0  0  0  0  0  0  0  0
   58.2860   32.2520   45.0620 N   0  0  0  0  0  0  0  0  0  0  0  0
   58.4920   32.9890   43.9340 C   0  0  0  0  0  0  0  0  0  0  0  0
   58.1320   32.5400   42.5520 C   0  0  0  0  0  0  0  0  0  0  0  0
   59.0620   34.2020   44.1730 N   0  0  0  0  0  0  0  0  0  0  0  0
   59.1990   34.2110   45.5120 C   0  0  0  0  0  0  0  0  0  0  0  0
   59.7410   35.2040   46.3190 C   0  0  0  0  0  0  0  0  0  0  0  0
   59.7870   34.9550   47.7030 C   0  0  0  0  0  0  0  0  0  0  0  0
   59.2970   33.7300   48.2140 C   0  0  0  0  0  0  0  0  0  0  0  0
   58.7760   32.7850   47.3720 N   0  0  0  0  0  0  0  0  0  0  0  0
   58.7320   33.0510   46.0420 C   0  0  0  0  0  0  0  0  0  0  0  0
   58.3170   29.9960   46.0500 C   0  0  0  0  0  0  0  0  0  0  0  0
   57.7740   28.7140   46.1790 C   0  0  0  0  0  0  0  0  0  0  0  0
   57.1171   25.5923   46.6986 H   0  0  0  0  0  0  0  0  0  0  0  0
   56.3952   25.0567   45.1434 H   0  0  0  0  0  0  0  0  0  0  0  0
   57.8808   26.0665   45.1434 H   0  0  0  0  0  0  0  0  0  0  0  0
   55.1420   29.0152   44.0151 H   0  0  0  0  0  0  0  0  0  0  0  0
   56.1147   31.2974   43.7818 H   0  0  0  0  0  0  0  0  0  0  0  0
   57.4449   31.6831   42.6122 H   0  0  0  0  0  0  0  0  0  0  0  0
   57.6426   33.3653   42.0142 H   0  0  0  0  0  0  0  0  0  0  0  0
   59.0440   32.2417   42.0142 H   0  0  0  0  0  0  0  0  0  0  0  0
   60.1184   36.1455   45.8935 H   0  0  0  0  0  0  0  0  0  0  0  0
   60.2027   35.7106   48.3858 H   0  0  0  0  0  0  0  0  0  0  0  0
   59.3350   33.5356   49.2960 H   0  0  0  0  0  0  0  0  0  0  0  0
   59.2173   30.2682   46.6204 H   0  0  0  0  0  0  0  0  0  0  0  0
   58.2472   27.9865   46.8548 H   0  0  0  0  0  0  0  0  0  0  0  0
  1  2  1  0
  2  3  1  0
  3  4  2  0
  4  5  1  0
  5  6  2  0
  6  7  1  0
  7  8  1  0
  8  9  1  0
  8 10  2  0
 10 11  1  0
 11 12  2  0
 12 13  1  0
 13 14  2  0
 14 15  1  0
 15 16  2  0
  6 17  1  0
 17 18  2  0
 18  3  1  0
 16  7  1  0
 16 11  1  0
  1 19  1  0
  1 20  1  0
  1 21  1  0
  4 22  1  0
  5 23  1  0
  9 24  1  0
  9 25  1  0
  9 26  1  0
 12 27  1  0
 13 28  1  0
 14 29  1  0
 17 30  1  0
 18 31  1  0
M  END
>  <UniqueID>  (41) 
40

>  <SMILES>  (41) 
COc1ccc(-n2c(C)nc3cccnc32)cc1

>  <Energy>  (41) 
77.2281413776465

>  <Genealogy>  (41) 
COc1ccc(-n2c(C)nc3cccnc32)cc1 (3D coordinates assigned)
COc1ccc(-n2c(C)nc3cccnc32)cc1 (optimized conformer: 77.2281413776465 kcal/mol)

>  <smiles>  (41) 
COc1ccc(-n2c(C)nc3cccnc32)cc1

>  <score_type>  (41) 
oracle

>  <origin>  (41) 
adg

>  <m_score__min__energy>  (41) 
-6.0199999999999996

>  <m_primary>  (41) 
energy

$$$$
43:0
     RDKit          3D

 43 45  0  0  0  0  0  0  0  0999 V2000
   60.0250   33.8410   49.6210 C   0  0  0  0  0  0  0  0  0  0  0  0
   59.7540   34.6900   48.5100 O   0  0  0  0  0  0  0  0  0  0  0  0
   59.3450   34.2360   47.2470 C   0  0  0  0  0  0  0  0  0  0  0  0
   59.4940   35.0140   46.0820 C   0  0  0  0  0  0  0  0  0  0  0  0
   59.0710   34.5210   44.8430 C   0  0  0  0  0  0  0  0  0  0  0  0
   58.4990   33.2500   44.7510 C   0  0  0  0  0  0  0  0  0  0  0  0
   58.0980   32.7840   43.5720 O   0  0  0  0  0  0  0  0  0  0  0  0
   57.5480   31.5830   43.4200 C   0  0  0  0  0  0  0  0  0  0  0  0
   57.1950   31.2170   42.2680 O   0  0  0  0  0  0  0  0  0  0  0  0
   57.3630   30.7360   44.5320 C   0  0  0  0  0  0  0  0  0  0  0  0
   56.7590   29.3530   44.3990 C   0  0  0  0  0  0  0  0  0  0  0  0
   57.4120   28.5600   43.3380 N   0  0  0  0  0  0  0  0  0  0  0  0
   58.3770   27.5580   43.8530 C   0  0  0  0  0  0  0  0  0  0  0  0
   57.7060   26.5960   44.8790 C   0  0  0  0  0  0  0  0  0  0  0  0
   58.7080   26.0460   45.8970 C   0  0  0  0  0  0  0  0  0  0  0  0
   59.3410   27.1760   46.7330 C   0  0  0  0  0  0  0  0  0  0  0  0
   59.4820   28.5010   45.9600 C   0  0  0  0  0  0  0  0  0  0  0  0
   59.6270   28.2640   44.4530 C   0  0  0  0  0  0  0  0  0  0  0  0
   57.7710   31.1980   45.7900 C   0  0  0  0  0  0  0  0  0  0  0  0
   58.3470   32.4650   45.9120 C   0  0  0  0  0  0  0  0  0  0  0  0
   58.7710   32.9620   47.1530 C   0  0  0  0  0  0  0  0  0  0  0  0
   59.8488   34.3931   50.5559 H   0  0  0  0  0  0  0  0  0  0  0  0
   59.3622   32.9640   49.5826 H   0  0  0  0  0  0  0  0  0  0  0  0
   61.0734   33.5102   49.5826 H   0  0  0  0  0  0  0  0  0  0  0  0
   59.9456   36.0149   46.1470 H   0  0  0  0  0  0  0  0  0  0  0  0
   59.1892   35.1360   43.9387 H   0  0  0  0  0  0  0  0  0  0  0  0
   56.8709   28.8237   45.3568 H   0  0  0  0  0  0  0  0  0  0  0  0
   55.6992   29.4713   44.1291 H   0  0  0  0  0  0  0  0  0  0  0  0
   56.6670   28.0830   42.7800 H   0  0  0  0  0  0  0  0  0  0  0  0
   57.9070   29.2170   42.6890 H   0  0  0  0  0  0  0  0  0  0  0  0
   58.7134   26.9380   43.0090 H   0  0  0  0  0  0  0  0  0  0  0  0
   56.9194   27.1450   45.4173 H   0  0  0  0  0  0  0  0  0  0  0  0
   57.2897   25.7443   44.3210 H   0  0  0  0  0  0  0  0  0  0  0  0
   58.1870   25.3508   46.5718 H   0  0  0  0  0  0  0  0  0  0  0  0
   59.5105   25.5312   45.3483 H   0  0  0  0  0  0  0  0  0  0  0  0
   58.7094   27.3526   47.6161 H   0  0  0  0  0  0  0  0  0  0  0  0
   60.3551   26.8494   47.0069 H   0  0  0  0  0  0  0  0  0  0  0  0
   58.5878   29.1158   46.1400 H   0  0  0  0  0  0  0  0  0  0  0  0
   60.3889   29.0115   46.3162 H   0  0  0  0  0  0  0  0  0  0  0  0
   59.7622   29.2339   43.9520 H   0  0  0  0  0  0  0  0  0  0  0  0
   60.4970   27.6101   44.2932 H   0  0  0  0  0  0  0  0  0  0  0  0
   57.6382   30.5648   46.6796 H   0  0  0  0  0  0  0  0  0  0  0  0
   58.6520   32.3477   48.0577 H   0  0  0  0  0  0  0  0  0  0  0  0
  1  2  1  0
  2  3  1  0
  3  4  2  0
  4  5  1  0
  5  6  2  0
  6  7  1  0
  7  8  1  0
  8  9  2  0
  8 10  1  0
 10 11  1  0
 11 12  1  0
 12 13  1  0
 13 14  1  0
 14 15  1  0
 15 16  1  0
 16 17  1  0
 17 18  1  0
 10 19  2  0
 19 20  1  0
 20 21  2  0
 21  3  1  0
 20  6  1  0
 18 13  1  0
  1 22  1  0
  1 23  1  0
  1 24  1  0
  4 25  1  0
  5 26  1  0
 11 27  1  0
 11 28  1  0
 12 29  1  0
 12 30  1  0
 13 31  1  0
 14 32  1  0
 14 33  1  0
 15 34  1  0
 15 35  1  0
 16 36  1  0
 16 37  1  0
 17 38  1  0
 17 39  1  0
 18 40  1  0
 18 41  1  0
 19 42  1  0
 21 43  1  0
M  CHG  1  12   1
M  END
>  <UniqueID>  (42) 
41

>  <SMILES>  (42) 
COc1ccc2oc(=O)c(C[NH2+]C3CCCCC3)cc2c1

>  <Energy>  (42) 
52.0829547908243

>  <Genealogy>  (42) 
COc1ccc2oc(=O)c(C[NH2+]C3CCCCC3)cc2c1 (protonated)
COc1ccc2oc(=O)c(C[NH2+]C3CCCCC3)cc2c1 (3D coordinates assigned)
COc1ccc2oc(=O)c(C[NH2+]C3CCCCC3)cc2c1 (nonaromatic ring conformer: 52.0829547908243 kcal/mol)

>  <smiles>  (42) 
COc1ccc2oc(=O)c(CNC3CCCCC3)cc2c1

>  <score_type>  (42) 
oracle

>  <origin>  (42) 
adg

>  <m_score__min__energy>  (42) 
-6.0899999999999999

>  <m_primary>  (42) 
energy

$$$$
44:0
     RDKit          3D

 53 56  0  0  0  0  0  0  0  0999 V2000
   59.9950   34.3510   46.2690 C   0  0  0  0  0  0  0  0  0  0  0  0
   58.9070   33.3680   46.2430 N   0  0  0  0  0  0  0  0  0  0  0  0
   57.6810   33.6680   45.4830 C   0  0  0  0  0  0  0  0  0  0  0  0
   57.3420   32.5570   44.5260 C   0  0  0  0  0  0  0  0  0  0  0  0
   57.7820   32.6200   43.1960 C   0  0  0  0  0  0  0  0  0  0  0  0
   57.4830   31.5690   42.3240 C   0  0  0  0  0  0  0  0  0  0  0  0
   56.7570   30.4690   42.7830 C   0  0  0  0  0  0  0  0  0  0  0  0
   56.3440   30.4340   44.1180 C   0  0  0  0  0  0  0  0  0  0  0  0
   56.6470   31.4630   44.9540 N   0  0  0  0  0  0  0  0  0  0  0  0
   59.0710   32.1270   46.9660 C   0  0  0  0  0  0  0  0  0  0  0  0
   58.1990   31.7990   47.8110 O   0  0  0  0  0  0  0  0  0  0  0  0
   60.2740   31.2280   46.7220 C   0  0  0  0  0  0  0  0  0  0  0  0
   59.9660   29.8360   46.3270 N   0  0  0  0  0  0  0  0  0  0  0  0
   59.3690   29.7060   44.9770 C   0  0  0  0  0  0  0  0  0  0  0  0
   59.4490   28.2460   44.5120 C   0  0  0  0  0  0  0  0  0  0  0  0
   58.9850   27.3680   45.5820 N   0  0  0  0  0  0  0  0  0  0  0  0
   58.4930   26.1260   45.4860 C   0  0  0  0  0  0  0  0  0  0  0  0
   58.1500   25.7270   46.7620 C   0  0  0  0  0  0  0  0  0  0  0  0
   57.3560   24.5050   47.1020 C   0  0  0  0  0  0  0  0  0  0  0  0
   55.9340   24.8320   47.0780 N   0  0  0  0  0  0  0  0  0  0  0  0
   55.2330   25.1760   45.8770 C   0  0  0  0  0  0  0  0  0  0  0  0
   54.7680   26.3360   45.7170 O   0  0  0  0  0  0  0  0  0  0  0  0
   55.0490   24.1500   44.8090 C   0  0  0  0  0  0  0  0  0  0  0  0
   56.1900   24.0550   43.8050 C   0  0  0  0  0  0  0  0  0  0  0  0
   56.0450   22.9970   44.8860 C   0  0  0  0  0  0  0  0  0  0  0  0
   58.4140   26.7160   47.6480 N   0  0  0  0  0  0  0  0  0  0  0  0
   58.9520   27.6860   46.8850 C   0  0  0  0  0  0  0  0  0  0  0  0
   59.2550   29.0680   47.3720 C   0  0  0  0  0  0  0  0  0  0  0  0
   60.2534   34.5844   47.3124 H   0  0  0  0  0  0  0  0  0  0  0  0
   60.8760   33.9365   45.7570 H   0  0  0  0  0  0  0  0  0  0  0  0
   59.6717   35.2694   45.7570 H   0  0  0  0  0  0  0  0  0  0  0  0
   56.8467   33.8004   46.1875 H   0  0  0  0  0  0  0  0  0  0  0  0
   57.8504   34.5861   44.9013 H   0  0  0  0  0  0  0  0  0  0  0  0
   58.3571   33.4884   42.8421 H   0  0  0  0  0  0  0  0  0  0  0  0
   57.8195   31.6090   41.2775 H   0  0  0  0  0  0  0  0  0  0  0  0
   56.5128   29.6398   42.1027 H   0  0  0  0  0  0  0  0  0  0  0  0
   55.7726   29.5722   44.4932 H   0  0  0  0  0  0  0  0  0  0  0  0
   60.8772   31.6808   45.9213 H   0  0  0  0  0  0  0  0  0  0  0  0
   60.7954   31.1568   47.6879 H   0  0  0  0  0  0  0  0  0  0  0  0
   58.3157   30.0211   45.0116 H   0  0  0  0  0  0  0  0  0  0  0  0
   59.9233   30.3428   44.2718 H   0  0  0  0  0  0  0  0  0  0  0  0
   58.8144   28.1088   43.6241 H   0  0  0  0  0  0  0  0  0  0  0  0
   60.4907   27.9981   44.2603 H   0  0  0  0  0  0  0  0  0  0  0  0
   58.3831   25.5356   44.5644 H   0  0  0  0  0  0  0  0  0  0  0  0
   57.5639   23.7149   46.3654 H   0  0  0  0  0  0  0  0  0  0  0  0
   57.6359   24.1508   48.1051 H   0  0  0  0  0  0  0  0  0  0  0  0
   53.9557   24.2437   44.7324 H   0  0  0  0  0  0  0  0  0  0  0  0
   55.9789   23.8010   42.7557 H   0  0  0  0  0  0  0  0  0  0  0  0
   56.9971   24.7283   43.4805 H   0  0  0  0  0  0  0  0  0  0  0  0
   55.7283   21.9779   44.6192 H   0  0  0  0  0  0  0  0  0  0  0  0
   56.7026   22.5881   45.6673 H   0  0  0  0  0  0  0  0  0  0  0  0
   58.3136   29.5796   47.6210 H   0  0  0  0  0  0  0  0  0  0  0  0
   59.8947   29.0008   48.2643 H   0  0  0  0  0  0  0  0  0  0  0  0
  1  2  1  0
  2  3  1  0
  3  4  1  0
  4  5  2  0
  5  6  1  0
  6  7  2  0
  7  8  1  0
  8  9  2  0
  2 10  1  0
 10 11  2  0
 10 12  1  0
 12 13  1  0
 13 14  1  0
 14 15  1  0
 15 16  1  0
 16 17  1  0
 17 18  2  0
 18 19  1  0
 19 20  1  0
 20 21  1  0
 21 22  2  0
 21 23  1  0
 23 24  1  0
 24 25  1  0
 18 26  1  0
 26 27  2  0
 27 28  1  0
  9  4  1  0
 28 13  1  0
 27 16  1  0
 25 23  1  0
  1 29  1  0
  1 30  1  0
  1 31  1  0
  3 32  1  0
  3 33  1  0
  5 34  1  0
  6 35  1  0
  7 36  1  0
  8 37  1  0
 12 38  1  0
 12 39  1  0
 14 40  1  0
 14 41  1  0
 15 42  1  0
 15 43  1  0
 17 44  1  0
 19 45  1  0
 19 46  1  0
 23 47  1  0
 24 48  1  0
 24 49  1  0
 25 50  1  0
 25 51  1  0
 28 52  1  0
 28 53  1  0
M  CHG  1  20  -1
M  END
>  <UniqueID>  (43) 
42

>  <SMILES>  (43) 
CN(Cc1ccccn1)C(=O)CN1CCn2cc(C[N-]C(=O)C3CC3)nc2C1

>  <Energy>  (43) 
352.3389952205613

>  <Genealogy>  (43) 
CN(Cc1ccccn1)C(=O)CN1CCn2cc(C[N-]C(=O)C3CC3)nc2C1 (protonated)
CN(Cc1ccccn1)C(=O)CN1CCn2cc(C[N-]C(=O)C3CC3)nc2C1 (3D coordinates assigned)
CN(Cc1ccccn1)C(=O)CN1CCn2cc(C[N-]C(=O)C3CC3)nc2C1 (nonaromatic ring conformer: 352.3389952205613 kcal/mol)

>  <smiles>  (43) 
CN(Cc1ccccn1)C(=O)CN1CCn2cc(CNC(=O)C3CC3)nc2C1

>  <score_type>  (43) 
oracle

>  <origin>  (43) 
adg

>  <m_score__min__energy>  (43) 
-10.4

>  <m_primary>  (43) 
energy

$$$$
45:0
     RDKit          3D

 28 29  0  0  0  0  0  0  0  0999 V2000
   63.8870   33.4700   48.0910 C   0  0  0  0  0  0  0  0  0  0  0  0
   62.4040   33.3230   47.9310 C   0  0  0  0  0  0  0  0  0  0  0  0
   61.8770   32.3050   47.1230 C   0  0  0  0  0  0  0  0  0  0  0  0
   60.4930   32.1430   47.0030 C   0  0  0  0  0  0  0  0  0  0  0  0
   59.6170   32.9910   47.7000 C   0  0  0  0  0  0  0  0  0  0  0  0
   58.1220   32.8110   47.5860 C   0  0  0  0  0  0  0  0  0  0  0  0
   57.5670   33.5220   46.4130 N   0  0  1  0  0  0  0  0  0  0  0  0
   58.4840   34.5870   45.9340 C   0  0  0  0  0  0  0  0  0  0  0  0
   58.8830   34.2070   44.5400 C   0  0  0  0  0  0  0  0  0  0  0  0
   58.2910   33.0950   44.1670 C   0  0  0  0  0  0  0  0  0  0  0  0
   57.4700   32.6630   45.2680 C   0  0  0  0  0  0  0  0  0  0  0  0
   56.6910   31.6730   45.2060 O   0  0  0  0  0  0  0  0  0  0  0  0
   60.1450   33.9980   48.5230 C   0  0  0  0  0  0  0  0  0  0  0  0
   61.5290   34.1590   48.6420 C   0  0  0  0  0  0  0  0  0  0  0  0
   64.1396   33.4950   49.1613 H   0  0  0  0  0  0  0  0  0  0  0  0
   64.3935   32.6177   47.6146 H   0  0  0  0  0  0  0  0  0  0  0  0
   64.2163   34.4052   47.6146 H   0  0  0  0  0  0  0  0  0  0  0  0
   62.5558   31.6303   46.5807 H   0  0  0  0  0  0  0  0  0  0  0  0
   60.0887   31.3476   46.3596 H   0  0  0  0  0  0  0  0  0  0  0  0
   57.8996   31.7381   47.4891 H   0  0  0  0  0  0  0  0  0  0  0  0
   57.6586   33.2328   48.4901 H   0  0  0  0  0  0  0  0  0  0  0  0
   56.6260   33.9300   46.6260 H   0  0  0  0  0  0  0  0  0  0  0  0
   57.9692   35.5591   45.9307 H   0  0  0  0  0  0  0  0  0  0  0  0
   59.3630   34.6804   46.5887 H   0  0  0  0  0  0  0  0  0  0  0  0
   59.5792   34.7828   43.9125 H   0  0  0  0  0  0  0  0  0  0  0  0
   58.4017   32.5893   43.1964 H   0  0  0  0  0  0  0  0  0  0  0  0
   59.4669   34.6637   49.0770 H   0  0  0  0  0  0  0  0  0  0  0  0
   61.9341   34.9450   49.2963 H   0  0  0  0  0  0  0  0  0  0  0  0
  1  2  1  0
  2  3  2  0
  3  4  1  0
  4  5  2  0
  5  6  1  0
  6  7  1  0
  7  8  1  0
  8  9  1  0
  9 10  2  0
 10 11  1  0
 11 12  2  0
  5 13  1  0
 13 14  2  0
 14  2  1  0
 11  7  1  0
  1 15  1  0
  1 16  1  0
  1 17  1  0
  3 18  1  0
  4 19  1  0
  6 20  1  0
  6 21  1  0
  7 22  1  1
  8 23  1  0
  8 24  1  0
  9 25  1  0
 10 26  1  0
 13 27  1  0
 14 28  1  0
M  CHG  1   7   1
M  END
>  <UniqueID>  (44) 
43

>  <SMILES>  (44) 
Cc1ccc(C[N@H+]2CC=CC2=O)cc1

>  <Energy>  (44) 
40.261779734061946

>  <Genealogy>  (44) 
Cc1ccc(C[NH+]2CC=CC2=O)cc1 (protonated)
Cc1ccc(C[N@H+]2CC=CC2=O)cc1 (chirality)
Cc1ccc(C[N@H+]2CC=CC2=O)cc1 (3D coordinates assigned)
Cc1ccc(C[N@H+]2CC=CC2=O)cc1 (nonaromatic ring conformer: 40.261779734061946 kcal/mol)

>  <smiles>  (44) 
Cc1ccc(CN2CC=CC2=O)cc1

>  <score_type>  (44) 
oracle

>  <origin>  (44) 
adg

>  <m_score__min__energy>  (44) 
-4.6100000000000003

>  <m_primary>  (44) 
energy

$$$$
