0:0
     RDKit          3D

 51 52  0  0  0  0  0  0  0  0999 V2000
   58.0240   27.9240   43.9240 C   0  0  0  0  0  0  0  0  0  0  0  0
   57.2620   28.2370   45.2020 C   0  0  0  0  0  0  0  0  0  0  0  0
   57.0270   29.6980   45.3080 N   0  0  0  0  0  0  0  0  0  0  0  0
   56.7950   30.3010   43.9750 C   0  0  0  0  0  0  0  0  0  0  0  0
   55.5210   29.7390   43.3580 C   0  0  0  0  0  0  0  0  0  0  0  0
   58.1440   30.3660   46.0150 C   0  0  0  0  0  0  0  0  0  0  0  0
   59.2010   29.3410   46.4570 C   0  0  0  0  0  0  0  0  0  0  0  0
   59.1130   29.0100   47.9580 C   0  0  0  0  0  0  0  0  0  0  0  0
   60.7370   29.1160   48.8060 S   0  0  0  0  0  0  0  0  0  0  0  0
   61.0600   30.8280   48.3700 C   0  0  0  0  0  0  0  0  0  0  0  0
   61.9030   31.2060   47.3950 N   0  0  0  0  0  0  0  0  0  0  0  0
   61.9490   32.5280   47.3820 N   0  0  0  0  0  0  0  0  0  0  0  0
   61.1040   32.9480   48.3480 C   0  0  0  0  0  0  0  0  0  0  0  0
   60.8990   34.4030   48.6670 C   0  0  0  0  0  0  0  0  0  0  0  0
   59.6000   34.8530   48.1640 N   0  0  0  0  0  0  0  0  0  0  0  0
   59.0150   34.4140   46.9240 C   0  0  0  0  0  0  0  0  0  0  0  0
   57.7460   33.8070   46.9390 C   0  0  0  0  0  0  0  0  0  0  0  0
   57.1610   33.3700   45.7470 C   0  0  0  0  0  0  0  0  0  0  0  0
   57.8160   33.5610   44.5270 C   0  0  0  0  0  0  0  0  0  0  0  0
   59.0610   34.1890   44.4980 C   0  0  0  0  0  0  0  0  0  0  0  0
   59.6660   34.6100   45.6860 C   0  0  0  0  0  0  0  0  0  0  0  0
   60.5160   31.9030   48.9780 N   0  0  0  0  0  0  0  0  0  0  0  0
   59.5690   31.9110   50.0930 C   0  0  0  0  0  0  0  0  0  0  0  0
   59.0141   27.5173   44.1777 H   0  0  0  0  0  0  0  0  0  0  0  0
   57.4633   27.1833   43.3349 H   0  0  0  0  0  0  0  0  0  0  0  0
   58.1459   28.8449   43.3349 H   0  0  0  0  0  0  0  0  0  0  0  0
   56.2951   27.7127   45.1873 H   0  0  0  0  0  0  0  0  0  0  0  0
   57.8545   27.9030   46.0665 H   0  0  0  0  0  0  0  0  0  0  0  0
   56.6967   31.3914   44.0816 H   0  0  0  0  0  0  0  0  0  0  0  0
   57.6462   30.0628   43.3203 H   0  0  0  0  0  0  0  0  0  0  0  0
   54.8299   29.4341   44.1576 H   0  0  0  0  0  0  0  0  0  0  0  0
   55.0440   30.5102   42.7354 H   0  0  0  0  0  0  0  0  0  0  0  0
   55.7690   28.8667   42.7354 H   0  0  0  0  0  0  0  0  0  0  0  0
   58.6116   31.0980   45.3401 H   0  0  0  0  0  0  0  0  0  0  0  0
   57.7453   30.8689   46.9084 H   0  0  0  0  0  0  0  0  0  0  0  0
   59.0550   28.4143   45.8827 H   0  0  0  0  0  0  0  0  0  0  0  0
   60.1913   29.7819   46.2704 H   0  0  0  0  0  0  0  0  0  0  0  0
   58.4208   29.7198   48.4344 H   0  0  0  0  0  0  0  0  0  0  0  0
   58.7594   27.9723   48.0481 H   0  0  0  0  0  0  0  0  0  0  0  0
   62.4580   30.5840   46.7670 H   0  0  0  0  0  0  0  0  0  0  0  0
   60.9352   34.5445   49.7573 H   0  0  0  0  0  0  0  0  0  0  0  0
   61.6937   34.9914   48.1851 H   0  0  0  0  0  0  0  0  0  0  0  0
   59.0290   35.4700   48.7930 H   0  0  0  0  0  0  0  0  0  0  0  0
   57.2123   33.6758   47.8919 H   0  0  0  0  0  0  0  0  0  0  0  0
   56.1799   32.8731   45.7692 H   0  0  0  0  0  0  0  0  0  0  0  0
   57.3505   33.2167   43.5917 H   0  0  0  0  0  0  0  0  0  0  0  0
   59.5690   34.3537   43.5364 H   0  0  0  0  0  0  0  0  0  0  0  0
   60.6526   35.0956   45.6564 H   0  0  0  0  0  0  0  0  0  0  0  0
   60.1221   31.9063   51.0438 H   0  0  0  0  0  0  0  0  0  0  0  0
   58.9440   32.8145   50.0368 H   0  0  0  0  0  0  0  0  0  0  0  0
   58.9288   31.0182   50.0368 H   0  0  0  0  0  0  0  0  0  0  0  0
  1  2  1  0
  2  3  1  0
  3  4  1  0
  4  5  1  0
  3  6  1  0
  6  7  1  0
  7  8  1  0
  8  9  1  0
  9 10  1  0
 10 11  2  0
 11 12  1  0
 12 13  2  0
 13 14  1  0
 14 15  1  0
 15 16  1  0
 16 17  2  0
 17 18  1  0
 18 19  2  0
 19 20  1  0
 20 21  2  0
 13 22  1  0
 22 23  1  0
 22 10  1  0
 21 16  1  0
  1 24  1  0
  1 25  1  0
  1 26  1  0
  2 27  1  0
  2 28  1  0
  4 29  1  0
  4 30  1  0
  5 31  1  0
  5 32  1  0
  5 33  1  0
  6 34  1  0
  6 35  1  0
  7 36  1  0
  7 37  1  0
  8 38  1  0
  8 39  1  0
 11 40  1  0
 14 41  1  0
 14 42  1  0
 15 43  1  0
 17 44  1  0
 18 45  1  0
 19 46  1  0
 20 47  1  0
 21 48  1  0
 23 49  1  0
 23 50  1  0
 23 51  1  0
M  CHG  1  11   1
M  END
>  <UniqueID>  (1) 
1

>  <SMILES>  (1) 
CCN(CC)CCCSc1[nH+]nc(CNc2ccccc2)n1C

>  <Energy>  (1) 
75.28503707237948

>  <Genealogy>  (1) 
CCN(CC)CCCSc1[nH+]nc(CNc2ccccc2)n1C (protonated)
CCN(CC)CCCSc1[nH+]nc(CNc2ccccc2)n1C (3D coordinates assigned)
CCN(CC)CCCSc1[nH+]nc(CNc2ccccc2)n1C (optimized conformer: 75.28503707237948 kcal/mol)

>  <smiles>  (1) 
CCN(CC)CCCSc1nnc(CNc2ccccc2)n1C

>  <score_type>  (1) 
oracle

>  <origin>  (1) 
adg

>  <m_score__min__energy>  (1) 
-5.3799999999999999

>  <m_primary>  (1) 
energy

$$$$
1:0
     RDKit          3D

 57 58  0  0  0  0  0  0  0  0999 V2000
   57.7552   32.4401   47.6649 H   0  0  0  0  0  0  0  0  0  0  0  0
   58.7690   32.8530   47.5570 C   0  0  0  0  0  0  0  0  0  0  0  0
   59.7960   32.0730   47.9740 C   0  0  0  0  0  0  0  0  0  0  0  0
   61.1570   32.6720   48.0330 C   0  0  0  0  0  0  0  0  0  0  0  0
   61.4620   33.6570   48.9920 C   0  0  0  0  0  0  0  0  0  0  0  0
   60.6900   33.9809   49.7056 H   0  0  0  0  0  0  0  0  0  0  0  0
   62.7380   34.2270   49.0450 C   0  0  0  0  0  0  0  0  0  0  0  0
   62.9669   34.9931   49.8005 H   0  0  0  0  0  0  0  0  0  0  0  0
   63.7220   33.8240   48.1390 C   0  0  0  0  0  0  0  0  0  0  0  0
   64.7257   34.2721   48.1816 H   0  0  0  0  0  0  0  0  0  0  0  0
   63.4310   32.8510   47.1780 C   0  0  0  0  0  0  0  0  0  0  0  0
   64.2060   32.5352   46.4641 H   0  0  0  0  0  0  0  0  0  0  0  0
   62.1570   32.2790   47.1230 C   0  0  0  0  0  0  0  0  0  0  0  0
   61.9338   31.5158   46.3629 H   0  0  0  0  0  0  0  0  0  0  0  0
   59.6400   30.5920   48.3140 C   0  0  1  0  0  0  0  0  0  0  0  0
   60.5526   30.2519   48.8253 H   0  0  0  0  0  0  0  0  0  0  0  0
   58.5360   30.4000   49.1930 O   0  0  0  0  0  0  0  0  0  0  0  0
   58.7930   30.8470   50.5140 C   0  0  0  0  0  0  0  0  0  0  0  0
   58.6404   30.0126   51.2144 H   0  0  0  0  0  0  0  0  0  0  0  0
   59.8310   31.2064   50.5718 H   0  0  0  0  0  0  0  0  0  0  0  0
   57.8550   31.9900   50.8840 C   0  0  0  0  0  0  0  0  0  0  0  0
   57.7891   32.0703   51.9791 H   0  0  0  0  0  0  0  0  0  0  0  0
   58.2438   32.9320   50.4700 H   0  0  0  0  0  0  0  0  0  0  0  0
   56.8552   31.7925   50.4700 H   0  0  0  0  0  0  0  0  0  0  0  0
   59.4750   29.7640   47.0460 C   0  0  0  0  0  0  0  0  0  0  0  0
   60.4700   29.7310   46.0460 C   0  0  0  0  0  0  0  0  0  0  0  0
   61.4042   30.2946   46.1863 H   0  0  0  0  0  0  0  0  0  0  0  0
   60.2770   28.9870   44.8780 C   0  0  0  0  0  0  0  0  0  0  0  0
   61.0655   28.9558   44.1116 H   0  0  0  0  0  0  0  0  0  0  0  0
   59.0880   28.2840   44.6810 C   0  0  0  0  0  0  0  0  0  0  0  0
   58.9429   27.6945   43.7637 H   0  0  0  0  0  0  0  0  0  0  0  0
   58.0820   28.3290   45.6490 C   0  0  0  0  0  0  0  0  0  0  0  0
   57.1417   27.7807   45.4902 H   0  0  0  0  0  0  0  0  0  0  0  0
   58.2690   29.0700   46.8190 C   0  0  0  0  0  0  0  0  0  0  0  0
   57.4669   29.1122   47.5706 H   0  0  0  0  0  0  0  0  0  0  0  0
   58.8830   34.2310   46.9600 C   0  0  0  0  0  0  0  0  0  0  0  0
   59.9003   34.6153   47.1257 H   0  0  0  0  0  0  0  0  0  0  0  0
   58.1476   34.8919   47.4420 H   0  0  0  0  0  0  0  0  0  0  0  0
   58.5990   34.1830   45.4520 C   0  0  0  0  0  0  0  0  0  0  0  0
   59.4859   33.7815   44.9399 H   0  0  0  0  0  0  0  0  0  0  0  0
   58.3684   35.2078   45.1256 H   0  0  0  0  0  0  0  0  0  0  0  0
   57.3870   33.3010   45.1010 C   0  0  0  0  0  0  0  0  0  0  0  0
   56.8444   33.7790   44.2721 H   0  0  0  0  0  0  0  0  0  0  0  0
   56.7884   33.2169   46.0200 H   0  0  0  0  0  0  0  0  0  0  0  0
   57.7370   31.8620   44.6780 C   0  0  0  0  0  0  0  0  0  0  0  0
   57.0821   31.1668   45.2237 H   0  0  0  0  0  0  0  0  0  0  0  0
   58.7983   31.6974   44.9158 H   0  0  0  0  0  0  0  0  0  0  0  0
   57.5600   31.6210   43.1710 C   0  0  0  0  0  0  0  0  0  0  0  0
   58.5476   31.4619   42.7134 H   0  0  0  0  0  0  0  0  0  0  0  0
   57.0691   32.5010   42.7300 H   0  0  0  0  0  0  0  0  0  0  0  0
   56.6820   30.3890   42.9120 C   0  0  0  0  0  0  0  0  0  0  0  0
   57.3297   29.5159   42.7440 H   0  0  0  0  0  0  0  0  0  0  0  0
   56.0585   30.5859   42.0275 H   0  0  0  0  0  0  0  0  0  0  0  0
   55.7630   30.1060   44.0970 C   0  0  0  0  0  0  0  0  0  0  0  0
   56.3118   30.2750   45.0352 H   0  0  0  0  0  0  0  0  0  0  0  0
   54.8930   30.7779   44.0550 H   0  0  0  0  0  0  0  0  0  0  0  0
   55.4217   29.0611   44.0550 H   0  0  0  0  0  0  0  0  0  0  0  0
  1  2  1  0
  2  3  2  0
  3  4  1  0
  4  5  2  0
  5  6  1  0
  5  7  1  0
  7  8  1  0
  7  9  2  0
  9 10  1  0
  9 11  1  0
 11 12  1  0
 11 13  2  0
 13 14  1  0
  3 15  1  0
 15 16  1  1
 15 17  1  0
 17 18  1  0
 18 19  1  0
 18 20  1  0
 18 21  1  0
 21 22  1  0
 21 23  1  0
 21 24  1  0
 15 25  1  0
 25 26  2  0
 26 27  1  0
 26 28  1  0
 28 29  1  0
 28 30  2  0
 30 31  1  0
 30 32  1  0
 32 33  1  0
 32 34  2  0
 34 35  1  0
  2 36  1  0
 36 37  1  0
 36 38  1  0
 36 39  1  0
 39 40  1  0
 39 41  1  0
 39 42  1  0
 42 43  1  0
 42 44  1  0
 42 45  1  0
 45 46  1  0
 45 47  1  0
 45 48  1  0
 48 49  1  0
 48 50  1  0
 48 51  1  0
 51 52  1  0
 51 53  1  0
 51 54  1  0
 54 55  1  0
 54 56  1  0
 54 57  1  0
 13  4  1  0
 34 25  1  0
M  END
>  <UniqueID>  (2) 
2

>  <SMILES>  (2) 
CCCCCCC/C=C(/c1ccccc1)[C@@H](OCC)c1ccccc1

>  <Energy>  (2) 
54.94090498783012

>  <Genealogy>  (2) 
CCCCCCCC=C(c1ccccc1)[C@@H](OCC)c1ccccc1 (chirality)
CCCCCCC/C=C(/c1ccccc1)[C@@H](OCC)c1ccccc1 (cis-trans isomerization)
CCCCCCC/C=C(/c1ccccc1)[C@@H](OCC)c1ccccc1 (3D coordinates assigned)
CCCCCCC/C=C(/c1ccccc1)[C@@H](OCC)c1ccccc1 (optimized conformer: 54.94090498783012 kcal/mol)

>  <smiles>  (2) 
CCCCCCCC=C(c1ccccc1)C(OCC)c1ccccc1

>  <score_type>  (2) 
oracle

>  <origin>  (2) 
adg

>  <m_score__min__energy>  (2) 
-7.79

>  <m_primary>  (2) 
energy

$$$$
2:0
     RDKit          3D

 49 50  0  0  0  0  0  0  0  0999 V2000
   58.0326   32.0780   41.7138 H   0  0  0  0  0  0  0  0  0  0  0  0
   57.7550   31.5790   42.6540 C   0  0  0  0  0  0  0  0  0  0  0  0
   58.4050   31.8420   43.7460 N   0  0  0  0  0  0  0  0  0  0  0  0
   57.7850   32.2800   44.9620 C   0  0  0  0  0  0  0  0  0  0  0  0
   57.0200   31.5070   45.6030 O   0  0  0  0  0  0  0  0  0  0  0  0
   58.1440   33.6330   45.5300 C   0  0  1  0  0  0  0  0  0  0  0  0
   57.2303   34.1935   45.2828 H   0  0  0  0  0  0  0  0  0  0  0  0
   58.4610   33.6280   47.0450 C   0  0  1  0  0  0  0  0  0  0  0  0
   57.5654   33.4164   47.6476 H   0  0  0  0  0  0  0  0  0  0  0  0
   59.6040   32.6360   47.3590 C   0  0  0  0  0  0  0  0  0  0  0  0
   59.4236   31.6611   46.8825 H   0  0  0  0  0  0  0  0  0  0  0  0
   59.7099   32.4222   48.4328 H   0  0  0  0  0  0  0  0  0  0  0  0
   60.8350   33.3260   46.7550 C   0  0  0  0  0  0  0  0  0  0  0  0
   61.2863   32.7099   45.9634 H   0  0  0  0  0  0  0  0  0  0  0  0
   61.6405   33.4976   47.4842 H   0  0  0  0  0  0  0  0  0  0  0  0
   60.2470   34.6250   46.1790 C   0  0  2  0  0  0  0  0  0  0  0  0
   61.0151   35.3845   45.9713 H   0  0  0  0  0  0  0  0  0  0  0  0
   59.1740   34.9530   47.1940 C   0  0  0  0  0  0  0  0  0  0  0  0
   58.5525   35.8123   46.9019 H   0  0  0  0  0  0  0  0  0  0  0  0
   59.4929   35.2568   48.2020 H   0  0  0  0  0  0  0  0  0  0  0  0
   59.4170   34.2740   44.9280 C   0  0  0  0  0  0  0  0  0  0  0  0
   59.9530   33.5612   44.2841 H   0  0  0  0  0  0  0  0  0  0  0  0
   59.2058   35.1430   44.2876 H   0  0  0  0  0  0  0  0  0  0  0  0
   56.6310   30.5990   42.6760 C   0  0  0  0  0  0  0  0  0  0  0  0
   56.6458   30.0000   41.7535 H   0  0  0  0  0  0  0  0  0  0  0  0
   55.6724   31.1343   42.7434 H   0  0  0  0  0  0  0  0  0  0  0  0
   56.7830   29.7510   43.7930 O   0  0  0  0  0  0  0  0  0  0  0  0
   57.3970   28.5450   43.3940 C   0  0  0  0  0  0  0  0  0  0  0  0
   57.8453   28.6790   42.3984 H   0  0  0  0  0  0  0  0  0  0  0  0
   56.6361   27.7513   43.3632 H   0  0  0  0  0  0  0  0  0  0  0  0
   58.4940   28.1440   44.3930 C   0  0  0  0  0  0  0  0  0  0  0  0
   59.3991   27.8978   43.8183 H   0  0  0  0  0  0  0  0  0  0  0  0
   58.0808   27.2999   44.9647 H   0  0  0  0  0  0  0  0  0  0  0  0
   58.8620   29.1720   45.4040 N   0  0  0  0  0  0  0  0  0  0  0  0
   58.5030   30.0600   44.9760 H   0  0  0  0  0  0  0  0  0  0  0  0
   58.1170   29.0220   46.6820 C   0  0  0  0  0  0  0  0  0  0  0  0
   57.7432   27.9900   46.7546 H   0  0  0  0  0  0  0  0  0  0  0  0
   57.2913   29.7487   46.6777 H   0  0  0  0  0  0  0  0  0  0  0  0
   58.9950   29.3160   47.9050 C   0  0  0  0  0  0  0  0  0  0  0  0
   58.4208   29.1237   48.8233 H   0  0  0  0  0  0  0  0  0  0  0  0
   59.8821   28.6659   47.8843 H   0  0  0  0  0  0  0  0  0  0  0  0
   59.3117   30.3692   47.8843 H   0  0  0  0  0  0  0  0  0  0  0  0
   60.3350   29.3790   45.5380 C   0  0  0  0  0  0  0  0  0  0  0  0
   60.5396   30.4497   45.3907 H   0  0  0  0  0  0  0  0  0  0  0  0
   60.5982   29.0051   46.5385 H   0  0  0  0  0  0  0  0  0  0  0  0
   61.2170   28.5910   44.5540 C   0  0  0  0  0  0  0  0  0  0  0  0
   61.9218   27.9613   45.1167 H   0  0  0  0  0  0  0  0  0  0  0  0
   60.5815   27.9544   43.9209 H   0  0  0  0  0  0  0  0  0  0  0  0
   61.7783   29.2939   43.9209 H   0  0  0  0  0  0  0  0  0  0  0  0
  1  2  1  0
  2  3  2  0
  3  4  1  0
  4  5  2  0
  4  6  1  0
  6  7  1  1
  6  8  1  0
  8  9  1  1
  8 10  1  0
 10 11  1  0
 10 12  1  0
 10 13  1  0
 13 14  1  0
 13 15  1  0
 13 16  1  0
 16 17  1  6
 16 18  1  0
 18 19  1  0
 18 20  1  0
 16 21  1  0
 21 22  1  0
 21 23  1  0
  2 24  1  0
 24 25  1  0
 24 26  1  0
 24 27  1  0
 27 28  1  0
 28 29  1  0
 28 30  1  0
 28 31  1  0
 31 32  1  0
 31 33  1  0
 31 34  1  0
 34 35  1  0
 34 36  1  0
 36 37  1  0
 36 38  1  0
 36 39  1  0
 39 40  1  0
 39 41  1  0
 39 42  1  0
 34 43  1  0
 43 44  1  0
 43 45  1  0
 43 46  1  0
 46 47  1  0
 46 48  1  0
 46 49  1  0
 21  6  1  0
 18  8  1  0
M  CHG  1  34   1
M  END
>  <UniqueID>  (3) 
3

>  <SMILES>  (3) 
CC[NH+](CC)CCOC/C=N/C(=O)[C@@H]1C[C@@H]2CCC1C2

>  <Energy>  (3) 
77.97149941244672

>  <Genealogy>  (3) 
CC[NH+](CC)CCOCC=NC(=O)C1CC2CCC1C2 (protonated)
CC[NH+](CC)CCOCC=NC(=O)[C@@H]1C[C@@H]2CCC1C2 (chirality)
CC[NH+](CC)CCOC/C=N/C(=O)[C@@H]1C[C@@H]2CCC1C2 (cis-trans isomerization)
CC[NH+](CC)CCOC/C=N/C(=O)[C@@H]1C[C@@H]2CCC1C2 (3D coordinates assigned)
CC[NH+](CC)CCOC/C=N/C(=O)[C@@H]1C[C@@H]2CCC1C2 (nonaromatic ring conformer: 77.97149941244672 kcal/mol)

>  <smiles>  (3) 
CCN(CC)CCOCC=NC(=O)C1CC2CCC1C2

>  <score_type>  (3) 
oracle

>  <origin>  (3) 
adg

>  <m_score__min__energy>  (3) 
-4.3499999999999996

>  <m_primary>  (3) 
energy

$$$$
3:0
     RDKit          3D

 59 63  0  0  0  0  0  0  0  0999 V2000
   56.4760   29.7280   43.0510 C   0  0  0  0  0  0  0  0  0  0  0  0
   56.2590   30.7700   44.1450 C   0  0  0  0  0  0  0  0  0  0  0  0
   57.4290   31.6670   44.3040 N   0  0  0  0  0  0  0  0  0  0  0  0
   57.7980   32.2060   42.9840 C   0  0  0  0  0  0  0  0  0  0  0  0
   57.1750   32.7750   45.2590 C   0  0  0  0  0  0  0  0  0  0  0  0
   58.4170   33.0790   46.1200 C   0  0  0  0  0  0  0  0  0  0  0  0
   59.6370   32.3800   45.6580 N   0  0  0  0  0  0  0  0  0  0  0  0
   60.1650   31.4650   46.6660 C   0  0  0  0  0  0  0  0  0  0  0  0
   61.1890   31.8870   47.5630 C   0  0  0  0  0  0  0  0  0  0  0  0
   61.5010   31.0740   48.6810 C   0  0  0  0  0  0  0  0  0  0  0  0
   60.6750   30.0270   49.0140 N   0  0  0  0  0  0  0  0  0  0  0  0
   60.5670   29.5740   50.4130 C   0  0  0  0  0  0  0  0  0  0  0  0
   59.8680   29.4670   48.0500 C   0  0  0  0  0  0  0  0  0  0  0  0
   59.2610   28.2030   48.2530 C   0  0  0  0  0  0  0  0  0  0  0  0
   58.4920   27.6090   47.2560 C   0  0  0  0  0  0  0  0  0  0  0  0
   58.3300   28.2430   46.0330 C   0  0  0  0  0  0  0  0  0  0  0  0
   58.9060   29.4920   45.8070 C   0  0  0  0  0  0  0  0  0  0  0  0
   59.6460   30.1480   46.8210 C   0  0  0  0  0  0  0  0  0  0  0  0
   62.7530   31.3990   49.4340 C   0  0  0  0  0  0  0  0  0  0  0  0
   63.3910   30.6310   50.3570 N   0  0  0  0  0  0  0  0  0  0  0  0
   64.5730   31.2330   50.5820 C   0  0  0  0  0  0  0  0  0  0  0  0
   65.6050   30.7790   51.4050 C   0  0  0  0  0  0  0  0  0  0  0  0
   66.8060   31.5130   51.4180 C   0  0  0  0  0  0  0  0  0  0  0  0
   66.9570   32.6550   50.6010 C   0  0  0  0  0  0  0  0  0  0  0  0
   65.9070   33.0770   49.7650 C   0  0  0  0  0  0  0  0  0  0  0  0
   64.7190   32.3470   49.7970 C   0  0  0  0  0  0  0  0  0  0  0  0
   63.5620   32.4610   49.0600 C   0  0  0  0  0  0  0  0  0  0  0  0
   63.3400   33.2560   47.8190 C   0  0  0  0  0  0  0  0  0  0  0  0
   61.8490   33.2700   47.4630 C   0  0  0  0  0  0  0  0  0  0  0  0
   56.6797   28.7500   43.5114 H   0  0  0  0  0  0  0  0  0  0  0  0
   55.5731   29.6584   42.4266 H   0  0  0  0  0  0  0  0  0  0  0  0
   57.3316   30.0247   42.4266 H   0  0  0  0  0  0  0  0  0  0  0  0
   55.3794   31.3776   43.8861 H   0  0  0  0  0  0  0  0  0  0  0  0
   56.1111   30.2362   45.0953 H   0  0  0  0  0  0  0  0  0  0  0  0
   58.4149   33.1072   43.1153 H   0  0  0  0  0  0  0  0  0  0  0  0
   58.3684   31.4493   42.4254 H   0  0  0  0  0  0  0  0  0  0  0  0
   56.8862   32.4641   42.4254 H   0  0  0  0  0  0  0  0  0  0  0  0
   56.9031   33.6784   44.6933 H   0  0  0  0  0  0  0  0  0  0  0  0
   56.3581   32.4703   45.9296 H   0  0  0  0  0  0  0  0  0  0  0  0
   58.6041   34.1626   46.0920 H   0  0  0  0  0  0  0  0  0  0  0  0
   58.2027   32.7206   47.1377 H   0  0  0  0  0  0  0  0  0  0  0  0
   60.3740   33.0780   45.4120 H   0  0  0  0  0  0  0  0  0  0  0  0
   59.4220   31.9260   44.7500 H   0  0  0  0  0  0  0  0  0  0  0  0
   60.7683   30.4185   51.0884 H   0  0  0  0  0  0  0  0  0  0  0  0
   59.5524   29.1910   50.5971 H   0  0  0  0  0  0  0  0  0  0  0  0
   61.2997   28.7745   50.5971 H   0  0  0  0  0  0  0  0  0  0  0  0
   59.3994   27.6833   49.2126 H   0  0  0  0  0  0  0  0  0  0  0  0
   58.0124   26.6360   47.4383 H   0  0  0  0  0  0  0  0  0  0  0  0
   57.7445   27.7580   45.2381 H   0  0  0  0  0  0  0  0  0  0  0  0
   58.7840   29.9754   44.8265 H   0  0  0  0  0  0  0  0  0  0  0  0
   63.1150   29.7030   50.7410 H   0  0  0  0  0  0  0  0  0  0  0  0
   65.4837   29.8772   52.0231 H   0  0  0  0  0  0  0  0  0  0  0  0
   67.6332   31.1947   52.0695 H   0  0  0  0  0  0  0  0  0  0  0  0
   67.9017   33.2182   50.6184 H   0  0  0  0  0  0  0  0  0  0  0  0
   66.0192   33.9526   49.1087 H   0  0  0  0  0  0  0  0  0  0  0  0
   63.6852   34.2878   47.9811 H   0  0  0  0  0  0  0  0  0  0  0  0
   63.9036   32.7987   46.9924 H   0  0  0  0  0  0  0  0  0  0  0  0
   61.3318   33.9545   48.1514 H   0  0  0  0  0  0  0  0  0  0  0  0
   61.7665   33.5960   46.4157 H   0  0  0  0  0  0  0  0  0  0  0  0
  1  2  1  0
  2  3  1  0
  3  4  1  0
  3  5  1  0
  5  6  1  0
  6  7  1  0
  7  8  1  0
  8  9  2  0
  9 10  1  0
 10 11  2  0
 11 12  1  0
 11 13  1  0
 13 14  2  0
 14 15  1  0
 15 16  2  0
 16 17  1  0
 17 18  2  0
 10 19  1  0
 19 20  1  0
 20 21  1  0
 21 22  2  0
 22 23  1  0
 23 24  2  0
 24 25  1  0
 25 26  2  0
 26 27  1  0
 27 28  1  0
 28 29  1  0
 18  8  1  0
 27 19  2  0
 29  9  1  0
 18 13  1  0
 26 21  1  0
  1 30  1  0
  1 31  1  0
  1 32  1  0
  2 33  1  0
  2 34  1  0
  4 35  1  0
  4 36  1  0
  4 37  1  0
  5 38  1  0
  5 39  1  0
  6 40  1  0
  6 41  1  0
  7 42  1  0
  7 43  1  0
 12 44  1  0
 12 45  1  0
 12 46  1  0
 14 47  1  0
 15 48  1  0
 16 49  1  0
 17 50  1  0
 20 51  1  0
 22 52  1  0
 23 53  1  0
 24 54  1  0
 25 55  1  0
 28 56  1  0
 28 57  1  0
 29 58  1  0
 29 59  1  0
M  CHG  2   7   1  11   1
M  END
>  <UniqueID>  (4) 
4

>  <SMILES>  (4) 
CCN(C)CC[NH2+]c1c2c([n+](C)c3ccccc13)-c1[nH]c3ccccc3c1CC2

>  <Energy>  (4) 
134.26520640144787

>  <Genealogy>  (4) 
CCN(C)CC[NH2+]c1c2c([n+](C)c3ccccc13)-c1[nH]c3ccccc3c1CC2 (protonated)
CCN(C)CC[NH2+]c1c2c([n+](C)c3ccccc13)-c1[nH]c3ccccc3c1CC2 (3D coordinates assigned)
CCN(C)CC[NH2+]c1c2c([n+](C)c3ccccc13)-c1[nH]c3ccccc3c1CC2 (nonaromatic ring conformer: 134.26520640144787 kcal/mol)

>  <smiles>  (4) 
CCN(C)CCNc1c2c([n+](C)c3ccccc13)-c1[nH]c3ccccc3c1CC2

>  <score_type>  (4) 
oracle

>  <origin>  (4) 
adg

>  <m_score__min__energy>  (4) 
-5.2699999999999996

>  <m_primary>  (4) 
energy

$$$$
4:0
     RDKit          3D

 54 56  0  0  0  0  0  0  0  0999 V2000
   62.8070   33.8330   46.7100 C   0  0  0  0  0  0  0  0  0  0  0  0
   63.3910   32.4920   47.1260 C   0  0  0  0  0  0  0  0  0  0  0  0
   62.5070   31.8650   48.0300 O   0  0  0  0  0  0  0  0  0  0  0  0
   63.1360   31.6510   49.2810 C   0  0  0  0  0  0  0  0  0  0  0  0
   62.1450   31.0420   50.2750 C   0  0  0  0  0  0  0  0  0  0  0  0
   61.7650   29.7430   49.8650 O   0  0  0  0  0  0  0  0  0  0  0  0
   60.4240   29.4770   50.2210 C   0  0  0  0  0  0  0  0  0  0  0  0
   59.4630   30.1570   49.2270 C   0  0  0  0  0  0  0  0  0  0  0  0
   60.0830   30.8130   48.0410 N   0  0  0  0  0  0  0  0  0  0  0  0
   59.2690   30.8720   46.8320 C   0  0  0  0  0  0  0  0  0  0  0  0
   58.9710   29.6700   46.1290 C   0  0  0  0  0  0  0  0  0  0  0  0
   59.2840   28.3970   46.6690 C   0  0  0  0  0  0  0  0  0  0  0  0
   59.0580   27.2300   45.9450 C   0  0  0  0  0  0  0  0  0  0  0  0
   58.5230   27.2970   44.6690 C   0  0  0  0  0  0  0  0  0  0  0  0
   58.1710   28.5280   44.1250 C   0  0  0  0  0  0  0  0  0  0  0  0
   58.3410   29.7330   44.8580 C   0  0  0  0  0  0  0  0  0  0  0  0
   57.9290   30.9430   44.3440 N   0  0  0  0  0  0  0  0  0  0  0  0
   57.0200   30.9740   43.1740 C   0  0  0  0  0  0  0  0  0  0  0  0
   58.3160   32.1240   44.9450 C   0  0  0  0  0  0  0  0  0  0  0  0
   58.1740   33.3580   44.2640 C   0  0  0  0  0  0  0  0  0  0  0  0
   58.4580   34.5620   44.8890 C   0  0  0  0  0  0  0  0  0  0  0  0
   58.8570   34.5780   46.2120 C   0  0  0  0  0  0  0  0  0  0  0  0
   59.0460   33.3810   46.9230 C   0  0  0  0  0  0  0  0  0  0  0  0
   59.3400   33.4310   48.2950 O   0  0  0  0  0  0  0  0  0  0  0  0
   60.0750   34.4630   48.9480 C   0  0  0  0  0  0  0  0  0  0  0  0
   58.8840   32.1240   46.2540 C   0  0  0  0  0  0  0  0  0  0  0  0
   62.5529   34.4165   47.6072 H   0  0  0  0  0  0  0  0  0  0  0  0
   63.5463   34.3849   46.1109 H   0  0  0  0  0  0  0  0  0  0  0  0
   61.8994   33.6677   46.1109 H   0  0  0  0  0  0  0  0  0  0  0  0
   63.5226   31.8560   46.2382 H   0  0  0  0  0  0  0  0  0  0  0  0
   64.3675   32.6461   47.6085 H   0  0  0  0  0  0  0  0  0  0  0  0
   63.9850   30.9643   49.1478 H   0  0  0  0  0  0  0  0  0  0  0  0
   63.4903   32.6156   49.6736 H   0  0  0  0  0  0  0  0  0  0  0  0
   62.6168   30.9846   51.2670 H   0  0  0  0  0  0  0  0  0  0  0  0
   61.2482   31.6776   50.3169 H   0  0  0  0  0  0  0  0  0  0  0  0
   60.2530   28.3905   50.2058 H   0  0  0  0  0  0  0  0  0  0  0  0
   60.2357   29.8735   51.2296 H   0  0  0  0  0  0  0  0  0  0  0  0
   58.7669   29.3894   48.8578 H   0  0  0  0  0  0  0  0  0  0  0  0
   58.9887   30.9717   49.7938 H   0  0  0  0  0  0  0  0  0  0  0  0
   60.4270   31.7640   48.2970 H   0  0  0  0  0  0  0  0  0  0  0  0
   60.9950   30.3490   47.8320 H   0  0  0  0  0  0  0  0  0  0  0  0
   59.7137   28.3304   47.6794 H   0  0  0  0  0  0  0  0  0  0  0  0
   59.3045   26.2532   46.3866 H   0  0  0  0  0  0  0  0  0  0  0  0
   58.3764   26.3761   44.0855 H   0  0  0  0  0  0  0  0  0  0  0  0
   57.7532   28.5691   43.1083 H   0  0  0  0  0  0  0  0  0  0  0  0
   55.9768   31.0096   43.5210 H   0  0  0  0  0  0  0  0  0  0  0  0
   57.2349   31.8653   42.5663 H   0  0  0  0  0  0  0  0  0  0  0  0
   57.1736   30.0701   42.5663 H   0  0  0  0  0  0  0  0  0  0  0  0
   57.8316   33.3607   43.2186 H   0  0  0  0  0  0  0  0  0  0  0  0
   58.3657   35.5057   44.3314 H   0  0  0  0  0  0  0  0  0  0  0  0
   59.0289   35.5409   46.7152 H   0  0  0  0  0  0  0  0  0  0  0  0
   59.9884   34.3415   50.0378 H   0  0  0  0  0  0  0  0  0  0  0  0
   61.1335   34.4010   48.6551 H   0  0  0  0  0  0  0  0  0  0  0  0
   59.6703   35.4430   48.6551 H   0  0  0  0  0  0  0  0  0  0  0  0
  1  2  1  0
  2  3  1  0
  3  4  1  0
  4  5  1  0
  5  6  1  0
  6  7  1  0
  7  8  1  0
  8  9  1  0
  9 10  1  0
 10 11  2  0
 11 12  1  0
 12 13  2  0
 13 14  1  0
 14 15  2  0
 15 16  1  0
 16 17  2  0
 17 18  1  0
 17 19  1  0
 19 20  2  0
 20 21  1  0
 21 22  2  0
 22 23  1  0
 23 24  1  0
 24 25  1  0
 23 26  2  0
 26 10  1  0
 16 11  1  0
 26 19  1  0
  1 27  1  0
  1 28  1  0
  1 29  1  0
  2 30  1  0
  2 31  1  0
  4 32  1  0
  4 33  1  0
  5 34  1  0
  5 35  1  0
  7 36  1  0
  7 37  1  0
  8 38  1  0
  8 39  1  0
  9 40  1  0
  9 41  1  0
 12 42  1  0
 13 43  1  0
 14 44  1  0
 15 45  1  0
 18 46  1  0
 18 47  1  0
 18 48  1  0
 20 49  1  0
 21 50  1  0
 22 51  1  0
 25 52  1  0
 25 53  1  0
 25 54  1  0
M  CHG  2   9   1  17   1
M  END
>  <UniqueID>  (5) 
5

>  <SMILES>  (5) 
CCOCCOCC[NH2+]c1c2ccccc2[n+](C)c2cccc(OC)c12

>  <Energy>  (5) 
92.76803767025679

>  <Genealogy>  (5) 
CCOCCOCC[NH2+]c1c2ccccc2[n+](C)c2cccc(OC)c12 (protonated)
CCOCCOCC[NH2+]c1c2ccccc2[n+](C)c2cccc(OC)c12 (3D coordinates assigned)
CCOCCOCC[NH2+]c1c2ccccc2[n+](C)c2cccc(OC)c12 (optimized conformer: 92.76803767025679 kcal/mol)

>  <smiles>  (5) 
CCOCCOCCNc1c2ccccc2[n+](C)c2cccc(OC)c12

>  <score_type>  (5) 
oracle

>  <origin>  (5) 
adg

>  <m_score__min__energy>  (5) 
-2.7799999999999998

>  <m_primary>  (5) 
energy

$$$$
5:0
     RDKit          3D

 45 48  0  0  0  0  0  0  0  0999 V2000
   56.3250   29.3970   42.8600 C   0  0  0  0  0  0  0  0  0  0  0  0
   57.0350   30.5720   43.4620 C   0  0  0  0  0  0  0  0  0  0  0  0
   57.5280   31.6090   42.6290 C   0  0  0  0  0  0  0  0  0  0  0  0
   58.1590   32.7370   43.1830 C   0  0  0  0  0  0  0  0  0  0  0  0
   58.2780   32.7990   44.5730 C   0  0  0  0  0  0  0  0  0  0  0  0
   57.7850   31.8120   45.3790 C   0  0  0  0  0  0  0  0  0  0  0  0
   57.1490   30.6850   44.8650 C   0  0  0  0  0  0  0  0  0  0  0  0
   57.9730   32.1430   46.6660 N   0  0  0  0  0  0  0  0  0  0  0  0
   58.5960   33.3470   46.6180 C   0  0  0  0  0  0  0  0  0  0  0  0
   58.9020   34.1490   47.8510 C   0  0  0  0  0  0  0  0  0  0  0  0
   59.8570   33.3810   48.7670 C   0  0  0  0  0  0  0  0  0  0  0  0
   60.3570   32.1430   48.0830 C   0  0  0  0  0  0  0  0  0  0  0  0
   59.6740   30.9780   48.0930 N   0  0  0  0  0  0  0  0  0  0  0  0
   60.4220   30.1480   47.3350 C   0  0  0  0  0  0  0  0  0  0  0  0
   60.0650   28.7430   47.0630 C   0  0  0  0  0  0  0  0  0  0  0  0
   59.9230   28.2300   45.7620 C   0  0  0  0  0  0  0  0  0  0  0  0
   59.5850   26.8850   45.7280 C   0  0  0  0  0  0  0  0  0  0  0  0
   59.4610   26.3370   47.3110 S   0  0  0  0  0  0  0  0  0  0  0  0
   59.8360   27.7950   48.0580 C   0  0  0  0  0  0  0  0  0  0  0  0
   61.5360   30.8200   46.8690 C   0  0  0  0  0  0  0  0  0  0  0  0
   61.4830   32.0770   47.3380 N   0  0  0  0  0  0  0  0  0  0  0  0
   62.4580   33.1360   47.0950 C   0  0  0  0  0  0  0  0  0  0  0  0
   58.8070   33.7730   45.3400 N   0  0  0  0  0  0  0  0  0  0  0  0
   59.3240   35.0670   44.8910 C   0  0  0  0  0  0  0  0  0  0  0  0
   55.9359   28.7531   43.6625 H   0  0  0  0  0  0  0  0  0  0  0  0
   55.4903   29.7523   42.2379 H   0  0  0  0  0  0  0  0  0  0  0  0
   57.0277   28.8233   42.2379 H   0  0  0  0  0  0  0  0  0  0  0  0
   57.4155   31.5299   41.5376 H   0  0  0  0  0  0  0  0  0  0  0  0
   58.5459   33.5435   42.5429 H   0  0  0  0  0  0  0  0  0  0  0  0
   56.7478   29.9069   45.5311 H   0  0  0  0  0  0  0  0  0  0  0  0
   57.6710   31.6100   47.5120 H   0  0  0  0  0  0  0  0  0  0  0  0
   59.3692   35.1005   47.5571 H   0  0  0  0  0  0  0  0  0  0  0  0
   57.9642   34.3385   48.3937 H   0  0  0  0  0  0  0  0  0  0  0  0
   60.7119   34.0250   49.0208 H   0  0  0  0  0  0  0  0  0  0  0  0
   59.3178   33.0903   49.6806 H   0  0  0  0  0  0  0  0  0  0  0  0
   60.0664   28.8377   44.8564 H   0  0  0  0  0  0  0  0  0  0  0  0
   59.4258   26.2821   44.8218 H   0  0  0  0  0  0  0  0  0  0  0  0
   59.8910   27.9702   49.1426 H   0  0  0  0  0  0  0  0  0  0  0  0
   62.3253   30.4000   46.2282 H   0  0  0  0  0  0  0  0  0  0  0  0
   62.8198   33.5290   48.0566 H   0  0  0  0  0  0  0  0  0  0  0  0
   63.3052   32.7302   46.5227 H   0  0  0  0  0  0  0  0  0  0  0  0
   61.9837   33.9468   46.5227 H   0  0  0  0  0  0  0  0  0  0  0  0
   59.5715   35.6865   45.7657 H   0  0  0  0  0  0  0  0  0  0  0  0
   60.2285   34.9102   44.2850 H   0  0  0  0  0  0  0  0  0  0  0  0
   58.5604   35.5766   44.2850 H   0  0  0  0  0  0  0  0  0  0  0  0
  1  2  1  0
  2  3  2  0
  3  4  1  0
  4  5  2  0
  5  6  1  0
  6  7  2  0
  6  8  1  0
  8  9  2  0
  9 10  1  0
 10 11  1  0
 11 12  1  0
 12 13  2  0
 13 14  1  0
 14 15  1  0
 15 16  1  0
 16 17  2  0
 17 18  1  0
 18 19  1  0
 14 20  2  0
 20 21  1  0
 21 22  1  0
  9 23  1  0
 23 24  1  0
  7  2  1  0
 21 12  1  0
 23  5  1  0
 19 15  2  0
  1 25  1  0
  1 26  1  0
  1 27  1  0
  3 28  1  0
  4 29  1  0
  7 30  1  0
  8 31  1  0
 10 32  1  0
 10 33  1  0
 11 34  1  0
 11 35  1  0
 16 36  1  0
 17 37  1  0
 19 38  1  0
 20 39  1  0
 22 40  1  0
 22 41  1  0
 22 42  1  0
 24 43  1  0
 24 44  1  0
 24 45  1  0
M  CHG  1   8   1
M  END
>  <UniqueID>  (6) 
6

>  <SMILES>  (6) 
Cc1ccc2c(c1)[nH+]c(CCc1nc(-c3ccsc3)cn1C)n2C

>  <Energy>  (6) 
135.9488376872376

>  <Genealogy>  (6) 
Cc1ccc2c(c1)[nH+]c(CCc1nc(-c3ccsc3)cn1C)n2C (protonated)
Cc1ccc2c(c1)[nH+]c(CCc1nc(-c3ccsc3)cn1C)n2C (3D coordinates assigned)
Cc1ccc2c(c1)[nH+]c(CCc1nc(-c3ccsc3)cn1C)n2C (optimized conformer: 135.9488376872376 kcal/mol)

>  <smiles>  (6) 
Cc1ccc2c(c1)nc(CCc1nc(-c3ccsc3)cn1C)n2C

>  <score_type>  (6) 
oracle

>  <origin>  (6) 
adg

>  <m_score__min__energy>  (6) 
-6.21

>  <m_primary>  (6) 
energy

$$$$
6:0
     RDKit          3D

 54 57  0  0  0  0  0  0  0  0999 V2000
   57.3870   32.3780   40.7230 C   0  0  0  0  0  0  0  0  0  0  0  0
   57.3700   31.9320   42.1500 C   0  0  0  0  0  0  0  0  0  0  0  0
   58.0160   32.6900   43.1360 C   0  0  0  0  0  0  0  0  0  0  0  0
   57.9970   32.2580   44.4730 C   0  0  0  0  0  0  0  0  0  0  0  0
   58.6750   33.0500   45.5320 C   0  0  0  0  0  0  0  0  0  0  0  0
   58.1400   34.2200   46.0730 C   0  0  0  0  0  0  0  0  0  0  0  0
   59.2130   34.7920   47.2320 S   0  0  0  0  0  0  0  0  0  0  0  0
   60.3220   33.5440   47.0120 C   0  0  0  0  0  0  0  0  0  0  0  0
   61.5930   33.3900   47.7600 C   0  0  0  0  0  0  0  0  0  0  0  0
   62.5350   32.4110   47.3910 C   0  0  0  0  0  0  0  0  0  0  0  0
   63.7260   32.2670   48.1060 C   0  0  0  0  0  0  0  0  0  0  0  0
   64.0020   33.0980   49.2010 C   0  0  0  0  0  0  0  0  0  0  0  0
   65.2500   32.8970   50.0180 C   0  0  0  0  0  0  0  0  0  0  0  0
   65.2580   31.5680   50.6480 N   0  0  0  0  0  0  0  0  0  0  0  0
   64.7200   31.5880   52.0210 C   0  0  0  0  0  0  0  0  0  0  0  0
   63.5520   30.6030   52.1390 C   0  0  0  0  0  0  0  0  0  0  0  0
   62.6630   30.7060   50.9650 N   0  0  0  0  0  0  0  0  0  0  0  0
   61.6030   31.6920   51.1820 C   0  0  0  0  0  0  0  0  0  0  0  0
   60.4550   31.3020   50.2690 C   0  0  0  0  0  0  0  0  0  0  0  0
   60.6480   29.8190   49.9960 C   0  0  0  0  0  0  0  0  0  0  0  0
   61.9660   29.4490   50.6650 C   0  0  0  0  0  0  0  0  0  0  0  0
   63.0710   34.0790   49.5700 C   0  0  0  0  0  0  0  0  0  0  0  0
   61.8810   34.2270   48.8530 C   0  0  0  0  0  0  0  0  0  0  0  0
   59.8800   32.6860   46.0610 N   0  0  0  0  0  0  0  0  0  0  0  0
   57.3240   31.0650   44.7880 C   0  0  0  0  0  0  0  0  0  0  0  0
   56.6970   30.3370   43.7770 C   0  0  0  0  0  0  0  0  0  0  0  0
   56.7330   30.7790   42.4930 N   0  0  0  0  0  0  0  0  0  0  0  0
   57.4289   33.4765   40.6826 H   0  0  0  0  0  0  0  0  0  0  0  0
   58.2698   31.9586   40.2183 H   0  0  0  0  0  0  0  0  0  0  0  0
   56.4748   32.0270   40.2183 H   0  0  0  0  0  0  0  0  0  0  0  0
   58.5363   33.6202   42.8641 H   0  0  0  0  0  0  0  0  0  0  0  0
   57.1843   34.6855   45.7903 H   0  0  0  0  0  0  0  0  0  0  0  0
   62.3313   31.7541   46.5325 H   0  0  0  0  0  0  0  0  0  0  0  0
   64.4524   31.4965   47.8081 H   0  0  0  0  0  0  0  0  0  0  0  0
   66.1283   32.9897   49.3622 H   0  0  0  0  0  0  0  0  0  0  0  0
   65.2782   33.6606   50.8093 H   0  0  0  0  0  0  0  0  0  0  0  0
   64.6450   30.9490   50.0670 H   0  0  0  0  0  0  0  0  0  0  0  0
   65.5126   31.3000   52.7273 H   0  0  0  0  0  0  0  0  0  0  0  0
   64.3632   32.6019   52.2550 H   0  0  0  0  0  0  0  0  0  0  0  0
   63.9482   29.5789   52.2033 H   0  0  0  0  0  0  0  0  0  0  0  0
   62.9742   30.8457   53.0430 H   0  0  0  0  0  0  0  0  0  0  0  0
   61.2761   31.6731   52.2321 H   0  0  0  0  0  0  0  0  0  0  0  0
   61.9569   32.7100   50.9619 H   0  0  0  0  0  0  0  0  0  0  0  0
   59.4898   31.4803   50.7655 H   0  0  0  0  0  0  0  0  0  0  0  0
   60.4488   31.8931   49.3413 H   0  0  0  0  0  0  0  0  0  0  0  0
   59.8207   29.2377   50.4292 H   0  0  0  0  0  0  0  0  0  0  0  0
   60.6629   29.6015   48.9178 H   0  0  0  0  0  0  0  0  0  0  0  0
   61.7747   28.8921   51.5941 H   0  0  0  0  0  0  0  0  0  0  0  0
   62.5741   28.8102   50.0076 H   0  0  0  0  0  0  0  0  0  0  0  0
   63.2783   34.7353   50.4281 H   0  0  0  0  0  0  0  0  0  0  0  0
   61.1620   35.0061   49.1463 H   0  0  0  0  0  0  0  0  0  0  0  0
   60.3790   31.8100   45.7960 H   0  0  0  0  0  0  0  0  0  0  0  0
   57.2919   30.7070   45.8276 H   0  0  0  0  0  0  0  0  0  0  0  0
   56.1715   29.4017   44.0202 H   0  0  0  0  0  0  0  0  0  0  0  0
  1  2  1  0
  2  3  2  0
  3  4  1  0
  4  5  1  0
  5  6  2  0
  6  7  1  0
  7  8  1  0
  8  9  1  0
  9 10  2  0
 10 11  1  0
 11 12  2  0
 12 13  1  0
 13 14  1  0
 14 15  1  0
 15 16  1  0
 16 17  1  0
 17 18  1  0
 18 19  1  0
 19 20  1  0
 20 21  1  0
 12 22  1  0
 22 23  2  0
  8 24  2  0
  4 25  2  0
 25 26  1  0
 26 27  2  0
 27  2  1  0
 24  5  1  0
 23  9  1  0
 21 17  1  0
  1 28  1  0
  1 29  1  0
  1 30  1  0
  3 31  1  0
  6 32  1  0
 10 33  1  0
 11 34  1  0
 13 35  1  0
 13 36  1  0
 14 37  1  0
 15 38  1  0
 15 39  1  0
 16 40  1  0
 16 41  1  0
 18 42  1  0
 18 43  1  0
 19 44  1  0
 19 45  1  0
 20 46  1  0
 20 47  1  0
 21 48  1  0
 21 49  1  0
 22 50  1  0
 23 51  1  0
 24 52  1  0
 25 53  1  0
 26 54  1  0
M  CHG  1  24   1
M  END
>  <UniqueID>  (7) 
7

>  <SMILES>  (7) 
Cc1cc(-c2csc(-c3ccc(CNCCN4CCCC4)cc3)[nH+]2)ccn1

>  <Energy>  (7) 
91.21983856015703

>  <Genealogy>  (7) 
Cc1cc(-c2csc(-c3ccc(CNCCN4CCCC4)cc3)[nH+]2)ccn1 (protonated)
Cc1cc(-c2csc(-c3ccc(CNCCN4CCCC4)cc3)[nH+]2)ccn1 (3D coordinates assigned)
Cc1cc(-c2csc(-c3ccc(CNCCN4CCCC4)cc3)[nH+]2)ccn1 (nonaromatic ring conformer: 91.21983856015703 kcal/mol)

>  <smiles>  (7) 
Cc1cc(-c2csc(-c3ccc(CNCCN4CCCC4)cc3)n2)ccn1

>  <score_type>  (7) 
oracle

>  <origin>  (7) 
adg

>  <m_score__min__energy>  (7) 
-7.7999999999999998

>  <m_primary>  (7) 
energy

$$$$
7:0
     RDKit          3D

 52 55  0  0  0  0  0  0  0  0999 V2000
   60.9870   30.0920   48.6750 C   0  0  0  0  0  0  0  0  0  0  0  0
   61.2180   31.4140   48.0990 N   0  0  0  0  0  0  0  0  0  0  0  0
   60.2910   32.3470   47.9510 N   0  0  0  0  0  0  0  0  0  0  0  0
   60.8710   33.3860   47.3140 C   0  0  0  0  0  0  0  0  0  0  0  0
   60.0230   34.9200   46.9260 S   0  0  0  0  0  0  0  0  0  0  0  0
   59.1140   34.2630   45.4800 C   0  0  0  0  0  0  0  0  0  0  0  0
   57.8670   33.4560   45.8820 C   0  0  0  0  0  0  0  0  0  0  0  0
   57.3730   32.5450   44.7490 C   0  0  0  0  0  0  0  0  0  0  0  0
   57.3300   31.1380   45.1930 N   0  0  0  0  0  0  0  0  0  0  0  0
   58.3450   30.8640   46.2240 C   0  0  0  0  0  0  0  0  0  0  0  0
   58.8690   29.4530   46.0040 C   0  0  2  0  0  0  0  0  0  0  0  0
   59.8720   29.2830   44.8710 C   0  0  0  0  0  0  0  0  0  0  0  0
   58.3860   29.0420   44.6350 C   0  0  1  0  0  0  0  0  0  0  0  0
   57.9230   27.6170   44.4800 C   0  0  0  0  0  0  0  0  0  0  0  0
   57.3490   26.9540   45.5760 C   0  0  0  0  0  0  0  0  0  0  0  0
   56.9520   25.6190   45.4620 C   0  0  0  0  0  0  0  0  0  0  0  0
   57.1480   24.9150   44.2600 C   0  0  0  0  0  0  0  0  0  0  0  0
   56.6870   23.4830   44.1490 C   0  0  0  0  0  0  0  0  0  0  0  0
   55.4110   23.3280   44.6660 F   0  0  0  0  0  0  0  0  0  0  0  0
   57.5570   22.6660   44.8460 F   0  0  0  0  0  0  0  0  0  0  0  0
   56.6680   23.0960   42.8190 F   0  0  0  0  0  0  0  0  0  0  0  0
   57.7300   25.5810   43.1650 C   0  0  0  0  0  0  0  0  0  0  0  0
   58.1280   26.9170   43.2790 C   0  0  0  0  0  0  0  0  0  0  0  0
   57.5510   30.1890   44.0900 C   0  0  0  0  0  0  0  0  0  0  0  0
   62.1610   33.1120   47.0060 N   0  0  0  0  0  0  0  0  0  0  0  0
   63.1500   33.9740   46.3630 C   0  0  0  0  0  0  0  0  0  0  0  0
   62.3440   31.8780   47.5170 C   0  0  0  0  0  0  0  0  0  0  0  0
   63.4320   31.2430   47.4680 O   0  0  0  0  0  0  0  0  0  0  0  0
   60.9994   30.1630   49.7726 H   0  0  0  0  0  0  0  0  0  0  0  0
   60.0091   29.7132   48.3431 H   0  0  0  0  0  0  0  0  0  0  0  0
   61.7785   29.4040   48.3431 H   0  0  0  0  0  0  0  0  0  0  0  0
   59.2960   32.2700   48.2620 H   0  0  0  0  0  0  0  0  0  0  0  0
   58.7991   35.1069   44.8486 H   0  0  0  0  0  0  0  0  0  0  0  0
   59.7911   33.5838   44.9412 H   0  0  0  0  0  0  0  0  0  0  0  0
   58.1146   32.8333   46.7543 H   0  0  0  0  0  0  0  0  0  0  0  0
   57.0637   34.1707   46.1140 H   0  0  0  0  0  0  0  0  0  0  0  0
   56.3631   32.8595   44.4469 H   0  0  0  0  0  0  0  0  0  0  0  0
   58.0678   32.6272   43.9002 H   0  0  0  0  0  0  0  0  0  0  0  0
   59.1700   31.5864   46.1371 H   0  0  0  0  0  0  0  0  0  0  0  0
   57.9048   30.9561   47.2278 H   0  0  0  0  0  0  0  0  0  0  0  0
   58.8731   29.0798   47.0387 H   0  0  0  0  0  0  0  0  0  0  0  0
   60.3644   30.1639   44.4333 H   0  0  0  0  0  0  0  0  0  0  0  0
   60.7918   28.6982   44.7227 H   0  0  0  0  0  0  0  0  0  0  0  0
   57.2112   27.4873   46.5282 H   0  0  0  0  0  0  0  0  0  0  0  0
   56.4824   25.1145   46.3193 H   0  0  0  0  0  0  0  0  0  0  0  0
   57.8727   25.0474   42.2137 H   0  0  0  0  0  0  0  0  0  0  0  0
   58.6034   27.4217   42.4250 H   0  0  0  0  0  0  0  0  0  0  0  0
   58.0870   30.6864   43.2682 H   0  0  0  0  0  0  0  0  0  0  0  0
   56.5917   29.8186   43.6994 H   0  0  0  0  0  0  0  0  0  0  0  0
   63.7423   34.4902   47.1329 H   0  0  0  0  0  0  0  0  0  0  0  0
   63.8163   33.3633   45.7360 H   0  0  0  0  0  0  0  0  0  0  0  0
   62.6360   34.7175   45.7360 H   0  0  0  0  0  0  0  0  0  0  0  0
  1  2  1  0
  2  3  1  0
  3  4  2  0
  4  5  1  0
  5  6  1  0
  6  7  1  0
  7  8  1  0
  8  9  1  0
  9 10  1  0
 10 11  1  0
 11 12  1  0
 12 13  1  0
 13 14  1  1
 14 15  2  0
 15 16  1  0
 16 17  2  0
 17 18  1  0
 18 19  1  0
 18 20  1  0
 18 21  1  0
 17 22  1  0
 22 23  2  0
 13 24  1  0
  4 25  1  0
 25 26  1  0
 25 27  1  0
 27 28  2  0
 27  2  1  0
 24  9  1  0
 13 11  1  0
 23 14  1  0
  1 29  1  0
  1 30  1  0
  1 31  1  0
  3 32  1  0
  6 33  1  0
  6 34  1  0
  7 35  1  0
  7 36  1  0
  8 37  1  0
  8 38  1  0
 10 39  1  0
 10 40  1  0
 11 41  1  1
 12 42  1  0
 12 43  1  0
 15 44  1  0
 16 45  1  0
 22 46  1  0
 23 47  1  0
 24 48  1  0
 24 49  1  0
 26 50  1  0
 26 51  1  0
 26 52  1  0
M  CHG  1   3   1
M  END
>  <UniqueID>  (8) 
8

>  <SMILES>  (8) 
Cn1[nH+]c(SCCCN2C[C@@H]3C[C@]3(c3ccc(C(F)(F)F)cc3)C2)n(C)c1=O

>  <Energy>  (8) 
358.09577411039675

>  <Genealogy>  (8) 
Cn1[nH+]c(SCCCN2CC3CC3(c3ccc(C(F)(F)F)cc3)C2)n(C)c1=O (protonated)
Cn1[nH+]c(SCCCN2C[C@@H]3C[C@]3(c3ccc(C(F)(F)F)cc3)C2)n(C)c1=O (chirality)
Cn1[nH+]c(SCCCN2C[C@@H]3C[C@]3(c3ccc(C(F)(F)F)cc3)C2)n(C)c1=O (3D coordinates assigned)
Cn1[nH+]c(SCCCN2C[C@@H]3C[C@]3(c3ccc(C(F)(F)F)cc3)C2)n(C)c1=O (nonaromatic ring conformer: 358.09577411039675 kcal/mol)

>  <smiles>  (8) 
Cn1nc(SCCCN2CC3CC3(c3ccc(C(F)(F)F)cc3)C2)n(C)c1=O

>  <score_type>  (8) 
oracle

>  <origin>  (8) 
adg

>  <m_score__min__energy>  (8) 
-7.0199999999999996

>  <m_primary>  (8) 
energy

$$$$
8:0
     RDKit          3D

 50 51  0  0  0  0  0  0  0  0999 V2000
   62.5190   33.3820   46.9730 C   0  0  0  0  0  0  0  0  0  0  0  0
   62.5210   32.2930   48.0460 C   0  0  0  0  0  0  0  0  0  0  0  0
   61.4860   31.2850   47.7730 N   0  0  0  0  0  0  0  0  0  0  0  0
   61.5210   30.2210   48.7900 C   0  0  0  0  0  0  0  0  0  0  0  0
   60.2470   29.3530   48.7690 C   0  0  0  0  0  0  0  0  0  0  0  0
   60.4130   27.9640   48.1250 C   0  0  0  0  0  0  0  0  0  0  0  0
   60.0770   27.8980   46.6280 C   0  0  0  0  0  0  0  0  0  0  0  0
   58.3170   27.8890   46.3100 S   0  0  0  0  0  0  0  0  0  0  0  0
   57.5890   29.3080   46.8390 O   0  0  0  0  0  0  0  0  0  0  0  0
   57.9330   27.5820   44.5890 C   0  0  0  0  0  0  0  0  0  0  0  0
   57.7710   28.8760   43.7690 C   0  0  2  0  0  0  0  0  0  0  0  0
   58.6770   29.8690   44.1860 O   0  0  0  0  0  0  0  0  0  0  0  0
   58.1370   31.1020   43.7540 C   0  0  2  0  0  0  0  0  0  0  0  0
   58.3590   32.1460   44.7770 N   0  0  0  0  0  0  0  0  0  0  0  0
   57.8400   33.3980   44.5850 C   0  0  0  0  0  0  0  0  0  0  0  0
   58.0440   34.4060   45.5250 C   0  0  0  0  0  0  0  0  0  0  0  0
   58.8030   34.1170   46.6530 C   0  0  0  0  0  0  0  0  0  0  0  0
   59.0040   35.0000   47.5270 O   0  0  0  0  0  0  0  0  0  0  0  0
   59.3330   32.8780   46.8090 N   0  0  0  0  0  0  0  0  0  0  0  0
   59.1300   31.9010   45.8880 C   0  0  0  0  0  0  0  0  0  0  0  0
   59.6620   30.7720   46.0710 O   0  0  0  0  0  0  0  0  0  0  0  0
   56.6420   30.9270   43.4690 C   0  0  0  0  0  0  0  0  0  0  0  0
   56.3700   29.4790   43.7980 C   0  0  2  0  0  0  0  0  0  0  0  0
   55.7910   29.3710   45.0720 O   0  0  0  0  0  0  0  0  0  0  0  0
   62.5172   34.3711   47.4544 H   0  0  0  0  0  0  0  0  0  0  0  0
   63.4173   33.2809   46.3463 H   0  0  0  0  0  0  0  0  0  0  0  0
   61.6210   33.2776   46.3463 H   0  0  0  0  0  0  0  0  0  0  0  0
   63.5058   31.8032   48.0601 H   0  0  0  0  0  0  0  0  0  0  0  0
   62.3094   32.7589   49.0197 H   0  0  0  0  0  0  0  0  0  0  0  0
   61.6490   30.8720   46.8250 H   0  0  0  0  0  0  0  0  0  0  0  0
   60.5490   31.7520   47.7970 H   0  0  0  0  0  0  0  0  0  0  0  0
   62.3918   29.5767   48.5987 H   0  0  0  0  0  0  0  0  0  0  0  0
   61.5868   30.7003   49.7779 H   0  0  0  0  0  0  0  0  0  0  0  0
   59.9154   29.2094   49.8080 H   0  0  0  0  0  0  0  0  0  0  0  0
   59.5183   29.8937   48.1472 H   0  0  0  0  0  0  0  0  0  0  0  0
   61.4596   27.6511   48.2539 H   0  0  0  0  0  0  0  0  0  0  0  0
   59.6939   27.3029   48.6308 H   0  0  0  0  0  0  0  0  0  0  0  0
   60.5193   28.7734   46.1300 H   0  0  0  0  0  0  0  0  0  0  0  0
   60.4878   26.9548   46.2385 H   0  0  0  0  0  0  0  0  0  0  0  0
   57.6610   29.9280   46.0700 H   0  0  0  0  0  0  0  0  0  0  0  0
   58.7471   26.9875   44.1487 H   0  0  0  0  0  0  0  0  0  0  0  0
   56.9714   27.0488   44.5562 H   0  0  0  0  0  0  0  0  0  0  0  0
   57.9775   28.5582   42.7363 H   0  0  0  0  0  0  0  0  0  0  0  0
   58.6421   31.4210   42.8303 H   0  0  0  0  0  0  0  0  0  0  0  0
   57.2551   33.6108   43.6780 H   0  0  0  0  0  0  0  0  0  0  0  0
   57.6141   35.4078   45.3778 H   0  0  0  0  0  0  0  0  0  0  0  0
   56.0424   31.5917   44.1083 H   0  0  0  0  0  0  0  0  0  0  0  0
   56.3781   31.1804   42.4316 H   0  0  0  0  0  0  0  0  0  0  0  0
   55.6686   28.9811   43.1123 H   0  0  0  0  0  0  0  0  0  0  0  0
   56.1450   30.1280   45.6090 H   0  0  0  0  0  0  0  0  0  0  0  0
  1  2  1  0
  2  3  1  0
  3  4  1  0
  4  5  1  0
  5  6  1  0
  6  7  1  0
  7  8  1  0
  8  9  1  6
  8 10  1  0
 10 11  1  0
 11 12  1  0
 12 13  1  0
 13 14  1  0
 14 15  1  0
 15 16  2  0
 16 17  1  0
 17 18  2  0
 17 19  1  0
 19 20  1  0
 20 21  2  0
 13 22  1  0
 22 23  1  0
 23 24  1  0
 23 11  1  0
 20 14  1  0
  1 25  1  0
  1 26  1  0
  1 27  1  0
  2 28  1  0
  2 29  1  0
  3 30  1  0
  3 31  1  0
  4 32  1  0
  4 33  1  0
  5 34  1  0
  5 35  1  0
  6 36  1  0
  6 37  1  0
  7 38  1  0
  7 39  1  0
  9 40  1  0
 10 41  1  0
 10 42  1  0
 11 43  1  6
 13 44  1  6
 15 45  1  0
 16 46  1  0
 22 47  1  0
 22 48  1  0
 23 49  1  6
 24 50  1  0
M  CHG  3   3   1   8   1  19  -1
M  END
>  <UniqueID>  (9) 
9

>  <SMILES>  (9) 
CC[NH2+]CCCC[S@+](O)C[C@@H]1OC(n2ccc(=O)[n-]c2=O)CC1O

>  <Energy>  (9) 
40.77722639216797

>  <Genealogy>  (9) 
CC[NH2+]CCCC[S+](O)CC1OC(n2ccc(=O)[n-]c2=O)CC1O (protonated)
CC[NH2+]CCCC[S@+](O)C[C@@H]1OC(n2ccc(=O)[n-]c2=O)CC1O (chirality)
CC[NH2+]CCCC[S@+](O)C[C@@H]1OC(n2ccc(=O)[n-]c2=O)CC1O (3D coordinates assigned)
CC[NH2+]CCCC[S@+](O)C[C@@H]1OC(n2ccc(=O)[n-]c2=O)CC1O (nonaromatic ring conformer: 40.77722639216797 kcal/mol)

>  <smiles>  (9) 
CCNCCCC[S+]([O-])CC1OC(n2ccc(=O)[nH]c2=O)CC1O

>  <score_type>  (9) 
oracle

>  <origin>  (9) 
adg

>  <m_score__min__energy>  (9) 
-3.7799999999999998

>  <m_primary>  (9) 
energy

$$$$
9:0
     RDKit          3D

 56 58  0  0  0  0  0  0  0  0999 V2000
   56.2640   25.8800   46.2910 C   0  0  0  0  0  0  0  0  0  0  0  0
   57.7830   25.8980   46.4170 C   0  0  0  0  0  0  0  0  0  0  0  0
   58.2850   27.1940   46.1480 O   0  0  0  0  0  0  0  0  0  0  0  0
   59.2270   27.1750   45.0900 C   0  0  0  0  0  0  0  0  0  0  0  0
   58.6230   27.8180   43.8300 C   0  0  0  0  0  0  0  0  0  0  0  0
   57.2380   28.2820   44.0500 N   0  0  0  0  0  0  0  0  0  0  0  0
   56.6880   29.0390   42.9090 C   0  0  0  0  0  0  0  0  0  0  0  0
   56.5570   30.5500   43.1730 C   0  0  0  0  0  0  0  0  0  0  0  0
   56.6520   30.8470   44.5690 O   0  0  0  0  0  0  0  0  0  0  0  0
   57.3950   31.8830   45.1680 C   0  0  0  0  0  0  0  0  0  0  0  0
   57.1680   33.2420   44.8750 C   0  0  0  0  0  0  0  0  0  0  0  0
   57.9400   34.2380   45.4720 C   0  0  0  0  0  0  0  0  0  0  0  0
   58.9610   33.9000   46.3710 C   0  0  0  0  0  0  0  0  0  0  0  0
   59.7680   34.8720   46.9820 C   0  0  0  0  0  0  0  0  0  0  0  0
   59.5950   36.1000   46.7490 O   0  0  0  0  0  0  0  0  0  0  0  0
   60.7740   34.4750   47.8610 C   0  0  0  0  0  0  0  0  0  0  0  0
   60.9650   33.1060   48.1170 C   0  0  0  0  0  0  0  0  0  0  0  0
   61.9940   32.6400   49.0190 N   0  0  0  0  0  0  0  0  0  0  0  0
   63.2810   33.3400   49.1350 C   0  0  0  0  0  0  0  0  0  0  0  0
   64.3700   32.3820   49.6300 C   0  0  0  0  0  0  0  0  0  0  0  0
   63.9470   31.6940   50.7890 O   0  0  0  0  0  0  0  0  0  0  0  0
   62.8650   30.8440   50.4630 C   0  0  0  0  0  0  0  0  0  0  0  0
   61.6380   31.6620   50.0540 C   0  0  0  0  0  0  0  0  0  0  0  0
   60.1730   32.2150   47.5240 O   0  0  0  0  0  0  0  0  0  0  0  0
   59.1960   32.5420   46.6800 C   0  0  0  0  0  0  0  0  0  0  0  0
   58.4000   31.5350   46.0970 C   0  0  0  0  0  0  0  0  0  0  0  0
   58.6720   30.0830   46.4010 C   0  0  0  0  0  0  0  0  0  0  0  0
   55.8129   25.8747   47.2942 H   0  0  0  0  0  0  0  0  0  0  0  0
   55.9308   26.7743   45.7439 H   0  0  0  0  0  0  0  0  0  0  0  0
   55.9521   24.9781   45.7439 H   0  0  0  0  0  0  0  0  0  0  0  0
   58.0655   25.6048   47.4389 H   0  0  0  0  0  0  0  0  0  0  0  0
   58.2099   25.1918   45.6896 H   0  0  0  0  0  0  0  0  0  0  0  0
   60.1231   27.7374   45.3911 H   0  0  0  0  0  0  0  0  0  0  0  0
   59.4958   26.1319   44.8672 H   0  0  0  0  0  0  0  0  0  0  0  0
   59.2431   28.6788   43.5395 H   0  0  0  0  0  0  0  0  0  0  0  0
   58.6018   27.0547   43.0382 H   0  0  0  0  0  0  0  0  0  0  0  0
   57.2010   28.8670   44.9150 H   0  0  0  0  0  0  0  0  0  0  0  0
   56.6190   27.4590   44.2330 H   0  0  0  0  0  0  0  0  0  0  0  0
   57.3519   28.8941   42.0440 H   0  0  0  0  0  0  0  0  0  0  0  0
   55.6729   28.6554   42.7287 H   0  0  0  0  0  0  0  0  0  0  0  0
   57.3615   31.0774   42.6395 H   0  0  0  0  0  0  0  0  0  0  0  0
   55.5700   30.8791   42.8159 H   0  0  0  0  0  0  0  0  0  0  0  0
   56.3731   33.5206   44.1675 H   0  0  0  0  0  0  0  0  0  0  0  0
   57.7467   35.2949   45.2361 H   0  0  0  0  0  0  0  0  0  0  0  0
   61.4124   35.2257   48.3498 H   0  0  0  0  0  0  0  0  0  0  0  0
   63.5678   33.7361   48.1497 H   0  0  0  0  0  0  0  0  0  0  0  0
   63.1750   34.1623   49.8579 H   0  0  0  0  0  0  0  0  0  0  0  0
   64.5937   31.6512   48.8388 H   0  0  0  0  0  0  0  0  0  0  0  0
   65.2678   32.9677   49.8768 H   0  0  0  0  0  0  0  0  0  0  0  0
   63.1581   30.1907   49.6279 H   0  0  0  0  0  0  0  0  0  0  0  0
   62.6096   30.2419   51.3475 H   0  0  0  0  0  0  0  0  0  0  0  0
   60.8656   30.9843   49.6614 H   0  0  0  0  0  0  0  0  0  0  0  0
   61.2585   32.1992   50.9357 H   0  0  0  0  0  0  0  0  0  0  0  0
   58.6996   29.9355   47.4907 H   0  0  0  0  0  0  0  0  0  0  0  0
   57.8746   29.4619   45.9670 H   0  0  0  0  0  0  0  0  0  0  0  0
   59.6402   29.7926   45.9670 H   0  0  0  0  0  0  0  0  0  0  0  0
  1  2  1  0
  2  3  1  0
  3  4  1  0
  4  5  1  0
  5  6  1  0
  6  7  1  0
  7  8  1  0
  8  9  1  0
  9 10  1  0
 10 11  2  0
 11 12  1  0
 12 13  2  0
 13 14  1  0
 14 15  2  0
 14 16  1  0
 16 17  2  0
 17 18  1  0
 18 19  1  0
 19 20  1  0
 20 21  1  0
 21 22  1  0
 22 23  1  0
 17 24  1  0
 24 25  1  0
 25 26  2  0
 26 27  1  0
 26 10  1  0
 25 13  1  0
 23 18  1  0
  1 28  1  0
  1 29  1  0
  1 30  1  0
  2 31  1  0
  2 32  1  0
  4 33  1  0
  4 34  1  0
  5 35  1  0
  5 36  1  0
  6 37  1  0
  6 38  1  0
  7 39  1  0
  7 40  1  0
  8 41  1  0
  8 42  1  0
 11 43  1  0
 12 44  1  0
 16 45  1  0
 19 46  1  0
 19 47  1  0
 20 48  1  0
 20 49  1  0
 22 50  1  0
 22 51  1  0
 23 52  1  0
 23 53  1  0
 27 54  1  0
 27 55  1  0
 27 56  1  0
M  CHG  1   6   1
M  END
>  <UniqueID>  (10) 
10

>  <SMILES>  (10) 
CCOCC[NH2+]CCOc1ccc2c(=O)cc(N3CCOCC3)oc2c1C

>  <Energy>  (10) 
68.04513190593256

>  <Genealogy>  (10) 
CCOCC[NH2+]CCOc1ccc2c(=O)cc(N3CCOCC3)oc2c1C (protonated)
CCOCC[NH2+]CCOc1ccc2c(=O)cc(N3CCOCC3)oc2c1C (3D coordinates assigned)
CCOCC[NH2+]CCOc1ccc2c(=O)cc(N3CCOCC3)oc2c1C (nonaromatic ring conformer: 68.04513190593256 kcal/mol)

>  <smiles>  (10) 
CCOCCNCCOc1ccc2c(=O)cc(N3CCOCC3)oc2c1C

>  <score_type>  (10) 
oracle

>  <origin>  (10) 
adg

>  <m_score__min__energy>  (10) 
-5.7300000000000004

>  <m_primary>  (10) 
energy

$$$$
10:0
     RDKit          3D

 68 70  0  0  1  0  0  0  0  0999 V2000
   60.6730   30.5080   46.7390 C   0  0  0  0  0  0  0  0  0  0  0  0
   59.4200   30.3860   47.6340 C   0  0  0  0  0  0  0  0  0  0  0  0
   58.4130   29.8600   46.8970 O   0  0  0  0  0  0  0  0  0  0  0  0
   58.6660   29.5940   45.6070 C   0  0  0  0  0  0  0  0  0  0  0  0
   57.4890   29.6520   44.6890 C   0  0  0  0  0  0  0  0  0  0  0  0
   56.7420   30.7650   44.9070 O   0  0  0  0  0  0  0  0  0  0  0  0
   57.4160   31.9660   44.8910 C   0  0  0  0  0  0  0  0  0  0  0  0
   57.3940   32.6760   46.2260 C   0  0  0  0  0  0  0  0  0  0  0  0
   57.1020   34.0010   46.0000 O   0  0  0  0  0  0  0  0  0  0  0  0
   57.6070   34.5210   44.8150 C   0  0  0  0  0  0  0  0  0  0  0  0
   59.0950   34.6660   44.7760 C   0  0  0  0  0  0  0  0  0  0  0  0
   59.6010   35.3610   45.9630 N   0  0  0  0  0  0  0  0  0  0  0  0
   60.0550   34.7520   46.9850 C   0  0  0  0  0  0  0  0  0  0  0  0
   59.2950   34.6690   48.1260 C   0  0  0  0  0  0  0  0  0  0  0  0
   59.7610   34.0180   49.2440 C   0  0  0  0  0  0  0  0  0  0  0  0
   60.9770   33.4550   49.2270 N   0  0  0  0  0  0  0  0  0  0  0  0
   61.4060   32.8330   50.3130 C   0  0  0  0  0  0  0  0  0  0  0  0
   60.6850   32.6820   51.5810 C   0  0  0  0  0  0  0  0  0  0  0  0
   59.5170   31.8530   51.3370 N   0  0  0  0  0  0  0  0  0  0  0  0
   59.7740   30.4490   51.4060 C   0  0  0  0  0  0  0  0  0  0  0  0
   58.5640   29.7460   50.7900 C   0  0  0  0  0  0  0  0  0  0  0  0
   57.3550   30.0940   51.4710 N   0  0  0  0  0  0  0  0  0  0  0  0
   57.1550   31.5130   51.6120 C   0  0  0  0  0  0  0  0  0  0  0  0
   58.3820   32.2270   52.1270 C   0  0  0  0  0  0  0  0  0  0  0  0
   62.6810   32.2590   50.2430 C   0  0  0  0  0  0  0  0  0  0  0  0
   63.2360   31.5420   51.4200 C   0  0  0  0  0  0  0  0  0  0  0  0
   63.4520   32.3380   49.1020 C   0  0  0  0  0  0  0  0  0  0  0  0
   62.9800   32.9890   47.9940 C   0  0  0  0  0  0  0  0  0  0  0  0
   63.7760   33.0990   46.7400 C   0  0  0  0  0  0  0  0  0  0  0  0
   61.7030   33.5520   48.0930 C   0  0  0  0  0  0  0  0  0  0  0  0
   61.2640   34.1840   46.9900 N   0  0  0  0  0  0  0  0  0  0  0  0
   61.5685   30.5952   47.3718 H   0  0  0  0  0  0  0  0  0  0  0  0
   60.7584   29.6139   46.1039 H   0  0  0  0  0  0  0  0  0  0  0  0
   60.5844   31.4018   46.1039 H   0  0  0  0  0  0  0  0  0  0  0  0
   59.6372   29.7278   48.4882 H   0  0  0  0  0  0  0  0  0  0  0  0
   59.1306   31.3772   48.0130 H   0  0  0  0  0  0  0  0  0  0  0  0
   59.4081   30.3238   45.2510 H   0  0  0  0  0  0  0  0  0  0  0  0
   59.0155   28.5514   45.5796 H   0  0  0  0  0  0  0  0  0  0  0  0
   57.8470   29.6599   43.6489 H   0  0  0  0  0  0  0  0  0  0  0  0
   56.8589   28.7707   44.8797 H   0  0  0  0  0  0  0  0  0  0  0  0
   58.4631   31.7762   44.6126 H   0  0  0  0  0  0  0  0  0  0  0  0
   56.9084   32.6175   44.1644 H   0  0  0  0  0  0  0  0  0  0  0  0
   56.6246   32.2297   46.8732 H   0  0  0  0  0  0  0  0  0  0  0  0
   58.3697   32.5803   46.7249 H   0  0  0  0  0  0  0  0  0  0  0  0
   57.3068   33.8539   43.9935 H   0  0  0  0  0  0  0  0  0  0  0  0
   57.1950   35.5368   44.7229 H   0  0  0  0  0  0  0  0  0  0  0  0
   59.5499   33.6657   44.7271 H   0  0  0  0  0  0  0  0  0  0  0  0
   59.3594   35.2617   43.8899 H   0  0  0  0  0  0  0  0  0  0  0  0
   58.2969   35.1310   48.1458 H   0  0  0  0  0  0  0  0  0  0  0  0
   59.1381   33.9596   50.1488 H   0  0  0  0  0  0  0  0  0  0  0  0
   61.3359   32.2002   52.3255 H   0  0  0  0  0  0  0  0  0  0  0  0
   60.3813   33.6660   51.9676 H   0  0  0  0  0  0  0  0  0  0  0  0
   60.6839   30.2026   50.8391 H   0  0  0  0  0  0  0  0  0  0  0  0
   59.9291   30.1274   52.4465 H   0  0  0  0  0  0  0  0  0  0  0  0
   58.4777   30.0417   49.7340 H   0  0  0  0  0  0  0  0  0  0  0  0
   58.7118   28.6597   50.8806 H   0  0  0  0  0  0  0  0  0  0  0  0
   57.1170   29.5290   52.3010 H   0  0  0  0  0  0  0  0  0  0  0  0
   56.8917   31.9305   50.6290 H   0  0  0  0  0  0  0  0  0  0  0  0
   56.3505   31.6634   52.3470 H   0  0  0  0  0  0  0  0  0  0  0  0
   58.2296   33.3143   52.0588 H   0  0  0  0  0  0  0  0  0  0  0  0
   58.5565   31.9472   53.1764 H   0  0  0  0  0  0  0  0  0  0  0  0
   62.8701   32.0147   52.3434 H   0  0  0  0  0  0  0  0  0  0  0  0
   62.9142   30.4904   51.3940 H   0  0  0  0  0  0  0  0  0  0  0  0
   64.3346   31.5900   51.3940 H   0  0  0  0  0  0  0  0  0  0  0  0
   64.4501   31.8761   49.0823 H   0  0  0  0  0  0  0  0  0  0  0  0
   64.8369   33.2456   46.9908 H   0  0  0  0  0  0  0  0  0  0  0  0
   63.6624   32.1766   46.1515 H   0  0  0  0  0  0  0  0  0  0  0  0
   63.4165   33.9560   46.1515 H   0  0  0  0  0  0  0  0  0  0  0  0
  1  2  1  0
  2  3  1  0
  3  4  1  0
  4  5  1  0
  5  6  1  0
  6  7  1  0
  7  8  1  0
  8  9  1  0
  9 10  1  0
 10 11  1  0
 11 12  1  0
 12 13  2  0
 13 14  1  0
 14 15  2  0
 15 16  1  0
 16 17  1  0
 17 18  1  0
 18 19  1  0
 19 20  1  0
 20 21  1  0
 21 22  1  0
 22 23  1  0
 23 24  1  0
 17 25  2  0
 25 26  1  0
 25 27  1  0
 27 28  2  0
 28 29  1  0
 28 30  1  0
 30 31  2  0
 31 13  1  0
 30 16  1  0
 24 19  1  0
  1 32  1  0
  1 33  1  0
  1 34  1  0
  2 35  1  0
  2 36  1  0
  4 37  1  0
  4 38  1  0
  5 39  1  0
  5 40  1  0
  7 41  1  0
  7 42  1  0
  8 43  1  0
  8 44  1  0
 10 45  1  0
 10 46  1  0
 11 47  1  0
 11 48  1  0
 14 49  1  0
 15 50  1  0
 18 51  1  0
 18 52  1  0
 20 53  1  0
 20 54  1  0
 21 55  1  0
 21 56  1  0
 22 57  1  0
 23 58  1  0
 23 59  1  0
 24 60  1  0
 24 61  1  0
 26 62  1  0
 26 63  1  0
 26 64  1  0
 27 65  1  0
 29 66  1  0
 29 67  1  0
 29 68  1  0
M  END
>  <smiles>  (11) 
CCOCCOCCOCCN=c1ccn2c(CN3CCNCC3)c(C)cc(C)c2n1

>  <score_type>  (11) 
oracle

>  <origin>  (11) 
adg

>  <m_score__min__energy>  (11) 
-8.3399999999999999

>  <m_primary>  (11) 
energy

$$$$
11:0
     RDKit          3D

 71 75  0  0  0  0  0  0  0  0999 V2000
   60.8450   26.6590   47.9480 C   0  0  0  0  0  0  0  0  0  0  0  0
   60.7870   26.9980   46.5660 O   0  0  0  0  0  0  0  0  0  0  0  0
   59.7540   27.7390   45.9700 C   0  0  0  0  0  0  0  0  0  0  0  0
   58.8150   27.1360   45.1120 C   0  0  0  0  0  0  0  0  0  0  0  0
   57.8090   27.8980   44.5150 C   0  0  0  0  0  0  0  0  0  0  0  0
   57.7300   29.2730   44.7540 C   0  0  0  0  0  0  0  0  0  0  0  0
   56.4470   30.2340   44.0150 S   0  0  0  0  0  0  0  0  0  0  0  0
   55.1470   29.4870   44.1110 O   0  0  0  0  0  0  0  0  0  0  0  0
   56.7350   30.4690   42.5590 O   0  0  0  0  0  0  0  0  0  0  0  0
   56.2720   31.7380   44.8660 N   0  0  0  0  0  0  0  0  0  0  0  0
   57.3210   32.6460   45.2280 C   0  0  0  0  0  0  0  0  0  0  0  0
   57.5220   33.0810   46.5510 C   0  0  0  0  0  0  0  0  0  0  0  0
   58.5520   33.9790   46.8500 C   0  0  0  0  0  0  0  0  0  0  0  0
   59.3970   34.4390   45.8360 C   0  0  0  0  0  0  0  0  0  0  0  0
   59.2180   33.9970   44.5240 C   0  0  0  0  0  0  0  0  0  0  0  0
   58.1880   33.1000   44.2230 C   0  0  0  0  0  0  0  0  0  0  0  0
   58.6600   29.8790   45.6050 C   0  0  0  0  0  0  0  0  0  0  0  0
   59.6720   29.1240   46.2270 C   0  0  0  0  0  0  0  0  0  0  0  0
   60.6280   29.7450   47.1130 N   0  0  0  0  0  0  0  0  0  0  0  0
   60.5440   29.7120   48.5760 C   0  0  0  0  0  0  0  0  0  0  0  0
   61.3170   30.8750   49.2230 C   0  0  0  0  0  0  0  0  0  0  0  0
   61.3450   32.0660   48.3420 N   0  0  0  0  0  0  0  0  0  0  0  0
   62.5760   32.1190   47.5240 C   0  0  0  0  0  0  0  0  0  0  0  0
   63.7870   32.6150   48.3410 C   0  0  0  0  0  0  0  0  0  0  0  0
   63.5120   33.8400   49.1390 N   0  0  0  0  0  0  0  0  0  0  0  0
   63.7980   33.6210   50.5770 C   0  0  0  0  0  0  0  0  0  0  0  0
   65.0560   32.8010   50.7930 C   0  0  0  0  0  0  0  0  0  0  0  0
   66.2990   33.4220   50.5750 C   0  0  0  0  0  0  0  0  0  0  0  0
   67.4890   32.7170   50.7430 C   0  0  0  0  0  0  0  0  0  0  0  0
   67.4640   31.3780   51.1280 C   0  0  0  0  0  0  0  0  0  0  0  0
   66.2410   30.7290   51.3510 C   0  0  0  0  0  0  0  0  0  0  0  0
   66.2260   29.3800   51.7370 C   0  0  0  0  0  0  0  0  0  0  0  0
   65.0150   28.7260   51.9600 C   0  0  0  0  0  0  0  0  0  0  0  0
   63.8100   29.4090   51.8000 C   0  0  0  0  0  0  0  0  0  0  0  0
   63.8060   30.7530   51.4170 C   0  0  0  0  0  0  0  0  0  0  0  0
   65.0200   31.4360   51.1850 C   0  0  0  0  0  0  0  0  0  0  0  0
   62.1660   34.3990   48.8880 C   0  0  0  0  0  0  0  0  0  0  0  0
   61.0690   33.3370   49.0650 C   0  0  0  0  0  0  0  0  0  0  0  0
   60.6902   27.5637   48.5543 H   0  0  0  0  0  0  0  0  0  0  0  0
   60.0595   25.9243   48.1786 H   0  0  0  0  0  0  0  0  0  0  0  0
   61.8301   26.2272   48.1786 H   0  0  0  0  0  0  0  0  0  0  0  0
   58.8743   26.0563   44.9104 H   0  0  0  0  0  0  0  0  0  0  0  0
   57.0752   27.4142   43.8536 H   0  0  0  0  0  0  0  0  0  0  0  0
   56.8661   32.7132   47.3538 H   0  0  0  0  0  0  0  0  0  0  0  0
   58.6972   34.3236   47.8845 H   0  0  0  0  0  0  0  0  0  0  0  0
   60.2031   35.1493   46.0719 H   0  0  0  0  0  0  0  0  0  0  0  0
   59.8869   34.3541   43.7271 H   0  0  0  0  0  0  0  0  0  0  0  0
   58.0566   32.7475   43.1893 H   0  0  0  0  0  0  0  0  0  0  0  0
   58.5996   30.9615   45.7909 H   0  0  0  0  0  0  0  0  0  0  0  0
   61.4120   30.2980   46.7000 H   0  0  0  0  0  0  0  0  0  0  0  0
   59.4869   29.7792   48.8729 H   0  0  0  0  0  0  0  0  0  0  0  0
   60.9946   28.7699   48.9216 H   0  0  0  0  0  0  0  0  0  0  0  0
   60.8298   31.1438   50.1719 H   0  0  0  0  0  0  0  0  0  0  0  0
   62.3533   30.5477   49.3935 H   0  0  0  0  0  0  0  0  0  0  0  0
   62.7933   31.1105   47.1422 H   0  0  0  0  0  0  0  0  0  0  0  0
   62.4076   32.8268   46.6990 H   0  0  0  0  0  0  0  0  0  0  0  0
   64.0922   31.8136   49.0299 H   0  0  0  0  0  0  0  0  0  0  0  0
   64.5761   32.8732   47.6194 H   0  0  0  0  0  0  0  0  0  0  0  0
   63.9239   34.5983   51.0659 H   0  0  0  0  0  0  0  0  0  0  0  0
   62.9534   33.0634   51.0080 H   0  0  0  0  0  0  0  0  0  0  0  0
   66.3321   34.4778   50.2679 H   0  0  0  0  0  0  0  0  0  0  0  0
   68.4523   33.2195   50.5710 H   0  0  0  0  0  0  0  0  0  0  0  0
   68.4076   30.8277   51.2575 H   0  0  0  0  0  0  0  0  0  0  0  0
   67.1737   28.8362   51.8642 H   0  0  0  0  0  0  0  0  0  0  0  0
   65.0102   27.6685   52.2629 H   0  0  0  0  0  0  0  0  0  0  0  0
   62.8577   28.8873   51.9761 H   0  0  0  0  0  0  0  0  0  0  0  0
   62.8498   31.2829   51.2953 H   0  0  0  0  0  0  0  0  0  0  0  0
   61.9837   35.2215   49.5953 H   0  0  0  0  0  0  0  0  0  0  0  0
   62.1316   34.7586   47.8490 H   0  0  0  0  0  0  0  0  0  0  0  0
   60.9726   33.1126   50.1375 H   0  0  0  0  0  0  0  0  0  0  0  0
   60.1450   33.7551   48.6391 H   0  0  0  0  0  0  0  0  0  0  0  0
  1  2  1  0
  2  3  1  0
  3  4  2  0
  4  5  1  0
  5  6  2  0
  6  7  1  0
  7  8  2  0
  7  9  2  0
  7 10  1  0
 10 11  1  0
 11 12  2  0
 12 13  1  0
 13 14  2  0
 14 15  1  0
 15 16  2  0
  6 17  1  0
 17 18  2  0
 18 19  1  0
 19 20  1  0
 20 21  1  0
 21 22  1  0
 22 23  1  0
 23 24  1  0
 24 25  1  0
 25 26  1  0
 26 27  1  0
 27 28  2  0
 28 29  1  0
 29 30  2  0
 30 31  1  0
 31 32  2  0
 32 33  1  0
 33 34  2  0
 34 35  1  0
 35 36  2  0
 25 37  1  0
 37 38  1  0
 18  3  1  0
 38 22  1  0
 16 11  1  0
 36 27  1  0
 36 31  1  0
  1 39  1  0
  1 40  1  0
  1 41  1  0
  4 42  1  0
  5 43  1  0
 12 44  1  0
 13 45  1  0
 14 46  1  0
 15 47  1  0
 16 48  1  0
 17 49  1  0
 19 50  1  0
 20 51  1  0
 20 52  1  0
 21 53  1  0
 21 54  1  0
 23 55  1  0
 23 56  1  0
 24 57  1  0
 24 58  1  0
 26 59  1  0
 26 60  1  0
 28 61  1  0
 29 62  1  0
 30 63  1  0
 32 64  1  0
 33 65  1  0
 34 66  1  0
 35 67  1  0
 37 68  1  0
 37 69  1  0
 38 70  1  0
 38 71  1  0
M  CHG  1  10  -1
M  END
>  <UniqueID>  (12) 
11

>  <SMILES>  (12) 
COc1ccc(S(=O)(=O)[N-]c2ccccc2)cc1NCCN1CCN(Cc2cccc3ccccc23)CC1

>  <Energy>  (12) 
98.43646038597404

>  <Genealogy>  (12) 
COc1ccc(S(=O)(=O)[N-]c2ccccc2)cc1NCCN1CCN(Cc2cccc3ccccc23)CC1 (protonated)
COc1ccc(S(=O)(=O)[N-]c2ccccc2)cc1NCCN1CCN(Cc2cccc3ccccc23)CC1 (3D coordinates assigned)
COc1ccc(S(=O)(=O)[N-]c2ccccc2)cc1NCCN1CCN(Cc2cccc3ccccc23)CC1 (nonaromatic ring conformer: 98.43646038597404 kcal/mol)

>  <smiles>  (12) 
COc1ccc(S(=O)(=O)Nc2ccccc2)cc1NCCN1CCN(Cc2cccc3ccccc23)CC1

>  <score_type>  (12) 
oracle

>  <origin>  (12) 
adg

>  <m_score__min__energy>  (12) 
-11.77

>  <m_primary>  (12) 
energy

$$$$
12:0
     RDKit          3D

 53 54  0  0  0  0  0  0  0  0999 V2000
   63.4880   32.7030   47.1580 C   0  0  0  0  0  0  0  0  0  0  0  0
   62.3840   31.6970   47.4780 C   0  0  0  0  0  0  0  0  0  0  0  0
   61.1650   32.3990   47.9440 N   0  0  0  0  0  0  0  0  0  0  0  0
   60.6610   31.8130   49.2080 C   0  0  0  0  0  0  0  0  0  0  0  0
   59.2740   31.2140   48.9940 C   0  0  0  0  0  0  0  0  0  0  0  0
   61.4100   33.8540   48.0930 C   0  0  0  0  0  0  0  0  0  0  0  0
   60.1560   34.5580   48.6130 C   0  0  0  0  0  0  0  0  0  0  0  0
   59.0430   34.1590   47.8440 O   0  0  0  0  0  0  0  0  0  0  0  0
   59.0060   34.8530   46.6090 C   0  0  0  0  0  0  0  0  0  0  0  0
   58.7310   33.8790   45.4600 C   0  0  0  0  0  0  0  0  0  0  0  0
   58.8020   32.4920   45.9240 N   0  0  0  0  0  0  0  0  0  0  0  0
   58.1960   31.3910   45.2170 C   0  0  0  0  0  0  0  0  0  0  0  0
   57.0430   31.6130   44.4480 C   0  0  0  0  0  0  0  0  0  0  0  0
   56.4410   30.5710   43.7530 C   0  0  0  0  0  0  0  0  0  0  0  0
   56.9700   29.2860   43.8080 C   0  0  0  0  0  0  0  0  0  0  0  0
   58.1300   29.0080   44.5670 C   0  0  0  0  0  0  0  0  0  0  0  0
   58.7580   30.0870   45.2630 C   0  0  0  0  0  0  0  0  0  0  0  0
   59.9170   29.8160   46.0080 C   0  0  0  0  0  0  0  0  0  0  0  0
   60.4380   28.5330   46.0540 C   0  0  0  0  0  0  0  0  0  0  0  0
   59.8020   27.5060   45.3700 C   0  0  0  0  0  0  0  0  0  0  0  0
   58.6580   27.7310   44.6540 N   0  0  0  0  0  0  0  0  0  0  0  0
   58.0550   26.5660   43.9750 C   0  0  0  0  0  0  0  0  0  0  0  0
   58.1510   26.7140   42.4590 C   0  0  0  0  0  0  0  0  0  0  0  0
   63.9136   33.0908   48.0953 H   0  0  0  0  0  0  0  0  0  0  0  0
   64.2776   32.2075   46.5741 H   0  0  0  0  0  0  0  0  0  0  0  0
   63.0678   33.5352   46.5741 H   0  0  0  0  0  0  0  0  0  0  0  0
   62.1460   31.1197   46.5724 H   0  0  0  0  0  0  0  0  0  0  0  0
   62.7345   31.0237   48.2741 H   0  0  0  0  0  0  0  0  0  0  0  0
   61.3501   31.0237   49.5429 H   0  0  0  0  0  0  0  0  0  0  0  0
   60.5972   32.6036   49.9702 H   0  0  0  0  0  0  0  0  0  0  0  0
   58.8072   31.0124   49.9694 H   0  0  0  0  0  0  0  0  0  0  0  0
   58.6514   31.9234   48.4292 H   0  0  0  0  0  0  0  0  0  0  0  0
   59.3636   30.2744   48.4292 H   0  0  0  0  0  0  0  0  0  0  0  0
   62.2345   34.0113   48.8040 H   0  0  0  0  0  0  0  0  0  0  0  0
   61.6715   34.2731   47.1102 H   0  0  0  0  0  0  0  0  0  0  0  0
   59.9917   34.2852   49.6659 H   0  0  0  0  0  0  0  0  0  0  0  0
   60.2862   35.6474   48.5340 H   0  0  0  0  0  0  0  0  0  0  0  0
   58.2085   35.6099   46.6418 H   0  0  0  0  0  0  0  0  0  0  0  0
   59.9791   35.3379   46.4418 H   0  0  0  0  0  0  0  0  0  0  0  0
   57.7264   34.0728   45.0559 H   0  0  0  0  0  0  0  0  0  0  0  0
   59.4933   34.0291   44.6813 H   0  0  0  0  0  0  0  0  0  0  0  0
   59.4620   32.2850   46.7050 H   0  0  0  0  0  0  0  0  0  0  0  0
   56.6110   32.6232   44.3949 H   0  0  0  0  0  0  0  0  0  0  0  0
   55.5386   30.7642   43.1544 H   0  0  0  0  0  0  0  0  0  0  0  0
   56.4785   28.4736   43.2526 H   0  0  0  0  0  0  0  0  0  0  0  0
   60.4146   30.6278   46.5588 H   0  0  0  0  0  0  0  0  0  0  0  0
   61.3523   28.3289   46.6305 H   0  0  0  0  0  0  0  0  0  0  0  0
   60.2260   26.4916   45.4043 H   0  0  0  0  0  0  0  0  0  0  0  0
   58.5870   25.6537   44.2829 H   0  0  0  0  0  0  0  0  0  0  0  0
   56.9936   26.5034   44.2571 H   0  0  0  0  0  0  0  0  0  0  0  0
   58.7347   27.6138   42.2147 H   0  0  0  0  0  0  0  0  0  0  0  0
   58.6473   25.8287   42.0349 H   0  0  0  0  0  0  0  0  0  0  0  0
   57.1403   26.8062   42.0349 H   0  0  0  0  0  0  0  0  0  0  0  0
  1  2  1  0
  2  3  1  0
  3  4  1  0
  4  5  1  0
  3  6  1  0
  6  7  1  0
  7  8  1  0
  8  9  1  0
  9 10  1  0
 10 11  1  0
 11 12  1  0
 12 13  2  0
 13 14  1  0
 14 15  2  0
 15 16  1  0
 16 17  2  0
 17 18  1  0
 18 19  2  0
 19 20  1  0
 20 21  2  0
 21 22  1  0
 22 23  1  0
 17 12  1  0
 21 16  1  0
  1 24  1  0
  1 25  1  0
  1 26  1  0
  2 27  1  0
  2 28  1  0
  4 29  1  0
  4 30  1  0
  5 31  1  0
  5 32  1  0
  5 33  1  0
  6 34  1  0
  6 35  1  0
  7 36  1  0
  7 37  1  0
  9 38  1  0
  9 39  1  0
 10 40  1  0
 10 41  1  0
 11 42  1  0
 13 43  1  0
 14 44  1  0
 15 45  1  0
 18 46  1  0
 19 47  1  0
 20 48  1  0
 22 49  1  0
 22 50  1  0
 23 51  1  0
 23 52  1  0
 23 53  1  0
M  CHG  1  21   1
M  END
>  <UniqueID>  (13) 
12

>  <SMILES>  (13) 
CCN(CC)CCOCCNc1cccc2c1ccc[n+]2CC

>  <Energy>  (13) 
55.433351271966494

>  <Genealogy>  (13) 
CCN(CC)CCOCCNc1cccc2c1ccc[n+]2CC (3D coordinates assigned)
CCN(CC)CCOCCNc1cccc2c1ccc[n+]2CC (optimized conformer: 55.433351271966494 kcal/mol)

>  <smiles>  (13) 
CCN(CC)CCOCCNc1cccc2c1ccc[n+]2CC

>  <score_type>  (13) 
oracle

>  <origin>  (13) 
adg

>  <m_score__min__energy>  (13) 
-5.4100000000000001

>  <m_primary>  (13) 
energy

$$$$
13:0
     RDKit          3D

 55 57  0  0  0  0  0  0  0  0999 V2000
   57.0350   28.9600   43.0890 C   0  0  0  0  0  0  0  0  0  0  0  0
   56.1510   30.1850   43.2970 C   0  0  0  0  0  0  0  0  0  0  0  0
   56.2670   30.6730   44.6340 O   0  0  0  0  0  0  0  0  0  0  0  0
   57.4190   31.2460   45.1990 C   0  0  0  0  0  0  0  0  0  0  0  0
   58.4690   30.3950   45.5500 C   0  0  0  0  0  0  0  0  0  0  0  0
   59.6420   30.8970   46.1160 C   0  0  0  0  0  0  0  0  0  0  0  0
   59.7960   32.2810   46.3480 C   0  0  0  0  0  0  0  0  0  0  0  0
   60.9760   32.8310   46.9260 C   0  0  0  0  0  0  0  0  0  0  0  0
   62.1470   31.9780   47.3780 C   0  0  0  0  0  0  0  0  0  0  0  0
   62.5820   32.3240   48.8110 C   0  0  0  0  0  0  0  0  0  0  0  0
   61.6480   31.7640   49.8150 N   0  0  0  0  0  0  0  0  0  0  0  0
   60.7550   30.7360   49.2180 C   0  0  0  0  0  0  0  0  0  0  0  0
   59.4180   30.6380   49.9620 C   0  0  0  0  0  0  0  0  0  0  0  0
   58.6640   31.9090   49.8680 N   0  0  0  0  0  0  0  0  0  0  0  0
   57.5920   31.9580   50.8840 C   0  0  0  0  0  0  0  0  0  0  0  0
   57.7470   30.8120   51.8840 C   0  0  0  0  0  0  0  0  0  0  0  0
   56.6610   29.9220   51.7380 O   0  0  0  0  0  0  0  0  0  0  0  0
   55.4580   30.6000   52.0200 C   0  0  0  0  0  0  0  0  0  0  0  0
   59.5370   33.1130   49.9050 C   0  0  0  0  0  0  0  0  0  0  0  0
   60.9090   32.8300   50.5370 C   0  0  0  0  0  0  0  0  0  0  0  0
   61.0540   34.2200   47.1280 C   0  0  0  0  0  0  0  0  0  0  0  0
   60.0020   35.0580   46.7670 C   0  0  0  0  0  0  0  0  0  0  0  0
   58.8460   34.5280   46.2000 C   0  0  0  0  0  0  0  0  0  0  0  0
   58.7300   33.1480   45.9860 C   0  0  0  0  0  0  0  0  0  0  0  0
   57.5570   32.6290   45.4160 C   0  0  0  0  0  0  0  0  0  0  0  0
   57.3303   28.5507   44.0664 H   0  0  0  0  0  0  0  0  0  0  0  0
   56.4779   28.1972   42.5253 H   0  0  0  0  0  0  0  0  0  0  0  0
   57.9345   29.2484   42.5253 H   0  0  0  0  0  0  0  0  0  0  0  0
   56.4592   30.9753   42.5967 H   0  0  0  0  0  0  0  0  0  0  0  0
   55.1043   29.8994   43.1155 H   0  0  0  0  0  0  0  0  0  0  0  0
   58.3703   29.3130   45.3779 H   0  0  0  0  0  0  0  0  0  0  0  0
   60.4553   30.2067   46.3842 H   0  0  0  0  0  0  0  0  0  0  0  0
   61.8520   30.9189   47.3408 H   0  0  0  0  0  0  0  0  0  0  0  0
   62.9947   32.1747   46.7051 H   0  0  0  0  0  0  0  0  0  0  0  0
   63.5862   31.9115   48.9886 H   0  0  0  0  0  0  0  0  0  0  0  0
   62.5828   33.4191   48.9152 H   0  0  0  0  0  0  0  0  0  0  0  0
   60.5593   31.0012   48.1685 H   0  0  0  0  0  0  0  0  0  0  0  0
   61.2592   29.7613   49.2935 H   0  0  0  0  0  0  0  0  0  0  0  0
   58.8178   29.8300   49.5183 H   0  0  0  0  0  0  0  0  0  0  0  0
   59.6216   30.4289   51.0226 H   0  0  0  0  0  0  0  0  0  0  0  0
   57.6462   32.9165   51.4210 H   0  0  0  0  0  0  0  0  0  0  0  0
   56.6196   31.8597   50.3792 H   0  0  0  0  0  0  0  0  0  0  0  0
   58.6892   30.2785   51.6899 H   0  0  0  0  0  0  0  0  0  0  0  0
   57.7625   31.2131   52.9081 H   0  0  0  0  0  0  0  0  0  0  0  0
   55.3258   30.6745   53.1095 H   0  0  0  0  0  0  0  0  0  0  0  0
   55.4956   31.6098   51.5853 H   0  0  0  0  0  0  0  0  0  0  0  0
   54.6137   30.0449   51.5853 H   0  0  0  0  0  0  0  0  0  0  0  0
   59.6902   33.4687   48.8754 H   0  0  0  0  0  0  0  0  0  0  0  0
   59.0344   33.8696   50.5255 H   0  0  0  0  0  0  0  0  0  0  0  0
   61.5068   33.7531   50.5149 H   0  0  0  0  0  0  0  0  0  0  0  0
   60.7421   32.4868   51.5687 H   0  0  0  0  0  0  0  0  0  0  0  0
   61.9601   34.6516   47.5782 H   0  0  0  0  0  0  0  0  0  0  0  0
   60.0846   36.1427   46.9304 H   0  0  0  0  0  0  0  0  0  0  0  0
   58.0190   35.1964   45.9184 H   0  0  0  0  0  0  0  0  0  0  0  0
   56.7390   33.3093   45.1367 H   0  0  0  0  0  0  0  0  0  0  0  0
  1  2  1  0
  2  3  1  0
  3  4  1  0
  4  5  2  0
  5  6  1  0
  6  7  2  0
  7  8  1  0
  8  9  1  0
  9 10  1  0
 10 11  1  0
 11 12  1  0
 12 13  1  0
 13 14  1  0
 14 15  1  0
 15 16  1  0
 16 17  1  0
 17 18  1  0
 14 19  1  0
 19 20  1  0
  8 21  2  0
 21 22  1  0
 22 23  2  0
 23 24  1  0
 24 25  2  0
 25  4  1  0
 24  7  1  0
 20 11  1  0
  1 26  1  0
  1 27  1  0
  1 28  1  0
  2 29  1  0
  2 30  1  0
  5 31  1  0
  6 32  1  0
  9 33  1  0
  9 34  1  0
 10 35  1  0
 10 36  1  0
 12 37  1  0
 12 38  1  0
 13 39  1  0
 13 40  1  0
 15 41  1  0
 15 42  1  0
 16 43  1  0
 16 44  1  0
 18 45  1  0
 18 46  1  0
 18 47  1  0
 19 48  1  0
 19 49  1  0
 20 50  1  0
 20 51  1  0
 21 52  1  0
 22 53  1  0
 23 54  1  0
 25 55  1  0
M  END
>  <UniqueID>  (14) 
13

>  <SMILES>  (14) 
CCOc1ccc2c(CCN3CCN(CCOC)CC3)cccc2c1

>  <Energy>  (14) 
70.32383592483167

>  <Genealogy>  (14) 
CCOc1ccc2c(CCN3CCN(CCOC)CC3)cccc2c1 (3D coordinates assigned)
CCOc1ccc2c(CCN3CCN(CCOC)CC3)cccc2c1 (nonaromatic ring conformer: 70.32383592483167 kcal/mol)

>  <smiles>  (14) 
CCOc1ccc2c(CCN3CCN(CCOC)CC3)cccc2c1

>  <score_type>  (14) 
oracle

>  <origin>  (14) 
adg

>  <m_score__min__energy>  (14) 
-7.8700000000000001

>  <m_primary>  (14) 
energy

$$$$
14:0
     RDKit          3D

 37 40  0  0  0  0  0  0  0  0999 V2000
   59.2870   34.7840   44.8780 C   0  0  0  0  0  0  0  0  0  0  0  0
   59.2820   34.8420   46.6980 S   0  0  0  0  0  0  0  0  0  0  0  0
   59.2150   33.0540   46.8740 C   0  0  0  0  0  0  0  0  0  0  0  0
   58.2140   32.2520   46.3710 C   0  0  0  0  0  0  0  0  0  0  0  0
   58.7260   30.9940   46.4100 C   0  0  0  0  0  0  0  0  0  0  0  0
   59.9900   31.0000   46.8640 N   0  0  0  0  0  0  0  0  0  0  0  0
   60.2620   32.2540   47.2140 N   0  0  0  0  0  0  0  0  0  0  0  0
   61.5670   32.6700   47.6530 C   0  0  0  0  0  0  0  0  0  0  0  0
   62.3910   33.4190   46.7940 C   0  0  0  0  0  0  0  0  0  0  0  0
   63.6660   33.8170   47.2060 C   0  0  0  0  0  0  0  0  0  0  0  0
   64.1360   33.4610   48.4720 C   0  0  0  0  0  0  0  0  0  0  0  0
   63.3320   32.7030   49.3270 C   0  0  0  0  0  0  0  0  0  0  0  0
   62.0550   32.3030   48.9190 C   0  0  0  0  0  0  0  0  0  0  0  0
   58.1710   30.2360   45.3150 C   0  0  0  0  0  0  0  0  0  0  0  0
   58.4510   28.9530   44.8610 C   0  0  0  0  0  0  0  0  0  0  0  0
   57.7760   28.5040   43.7090 C   0  0  0  0  0  0  0  0  0  0  0  0
   58.0560   27.1400   43.1550 C   0  0  0  0  0  0  0  0  0  0  0  0
   56.8910   29.3810   43.0380 C   0  0  0  0  0  0  0  0  0  0  0  0
   56.6720   30.6460   43.5080 N   0  0  0  0  0  0  0  0  0  0  0  0
   57.3000   31.0650   44.6360 C   0  0  0  0  0  0  0  0  0  0  0  0
   57.2530   32.4480   45.2340 C   0  0  0  0  0  0  0  0  0  0  0  0
   59.3770   33.7396   44.5447 H   0  0  0  0  0  0  0  0  0  0  0  0
   58.3487   35.2116   44.4949 H   0  0  0  0  0  0  0  0  0  0  0  0
   60.1383   35.3658   44.4949 H   0  0  0  0  0  0  0  0  0  0  0  0
   62.0299   33.6933   45.7918 H   0  0  0  0  0  0  0  0  0  0  0  0
   64.3002   34.4116   46.5320 H   0  0  0  0  0  0  0  0  0  0  0  0
   65.1386   33.7772   48.7958 H   0  0  0  0  0  0  0  0  0  0  0  0
   63.7038   32.4202   50.3229 H   0  0  0  0  0  0  0  0  0  0  0  0
   61.4297   31.6983   49.5923 H   0  0  0  0  0  0  0  0  0  0  0  0
   59.1748   28.3100   45.3832 H   0  0  0  0  0  0  0  0  0  0  0  0
   58.2016   26.4307   43.9831 H   0  0  0  0  0  0  0  0  0  0  0  0
   57.2062   26.8134   42.5376 H   0  0  0  0  0  0  0  0  0  0  0  0
   58.9658   27.1746   42.5376 H   0  0  0  0  0  0  0  0  0  0  0  0
   56.3738   29.0413   42.1286 H   0  0  0  0  0  0  0  0  0  0  0  0
   56.0340   31.2920   42.9920 H   0  0  0  0  0  0  0  0  0  0  0  0
   57.6033   33.2142   44.5267 H   0  0  0  0  0  0  0  0  0  0  0  0
   56.2520   32.8035   45.5197 H   0  0  0  0  0  0  0  0  0  0  0  0
  1  2  1  0
  2  3  1  0
  3  4  2  0
  4  5  1  0
  5  6  2  0
  6  7  1  0
  7  8  1  0
  8  9  2  0
  9 10  1  0
 10 11  2  0
 11 12  1  0
 12 13  2  0
  5 14  1  0
 14 15  2  0
 15 16  1  0
 16 17  1  0
 16 18  2  0
 18 19  1  0
 19 20  2  0
 20 21  1  0
  7  3  1  0
 13  8  1  0
 20 14  1  0
 21  4  1  0
  1 22  1  0
  1 23  1  0
  1 24  1  0
  9 25  1  0
 10 26  1  0
 11 27  1  0
 12 28  1  0
 13 29  1  0
 15 30  1  0
 17 31  1  0
 17 32  1  0
 17 33  1  0
 18 34  1  0
 19 35  1  0
 21 36  1  0
 21 37  1  0
M  CHG  1  19   1
M  END
>  <UniqueID>  (15) 
14

>  <SMILES>  (15) 
CSc1c2c(nn1-c1ccccc1)-c1cc(C)c[nH+]c1C2

>  <Energy>  (15) 
113.29892462909388

>  <Genealogy>  (15) 
CSc1c2c(nn1-c1ccccc1)-c1cc(C)c[nH+]c1C2 (protonated)
CSc1c2c(nn1-c1ccccc1)-c1cc(C)c[nH+]c1C2 (3D coordinates assigned)
CSc1c2c(nn1-c1ccccc1)-c1cc(C)c[nH+]c1C2 (nonaromatic ring conformer: 113.29892462909388 kcal/mol)

>  <smiles>  (15) 
CSc1c2c(nn1-c1ccccc1)-c1cc(C)cnc1C2

>  <score_type>  (15) 
oracle

>  <origin>  (15) 
adg

>  <m_score__min__energy>  (15) 
-5.9500000000000002

>  <m_primary>  (15) 
energy

$$$$
15:0
     RDKit          3D

 63 67  0  0  0  0  0  0  0  0999 V2000
   57.7580   33.0900   47.5480 C   0  0  0  0  0  0  0  0  0  0  0  0
   58.4830   34.0450   46.7140 N   0  0  0  0  0  0  0  0  0  0  0  0
   59.4540   34.8770   47.1380 C   0  0  0  0  0  0  0  0  0  0  0  0
   59.9610   35.5900   46.0700 C   0  0  0  0  0  0  0  0  0  0  0  0
   59.2760   35.1670   44.9490 C   0  0  0  0  0  0  0  0  0  0  0  0
   58.3790   34.2060   45.3770 C   0  0  0  0  0  0  0  0  0  0  0  0
   57.3930   33.4910   44.4870 C   0  0  0  0  0  0  0  0  0  0  0  0
   58.0610   32.5750   43.5460 N   0  0  0  0  0  0  0  0  0  0  0  0
   57.9250   31.1990   43.9600 C   0  0  0  0  0  0  0  0  0  0  0  0
   57.0560   30.3340   43.2760 C   0  0  0  0  0  0  0  0  0  0  0  0
   56.8960   29.0130   43.6960 C   0  0  0  0  0  0  0  0  0  0  0  0
   57.5860   28.5430   44.8170 C   0  0  0  0  0  0  0  0  0  0  0  0
   57.4220   27.2550   45.2200 N   0  0  0  0  0  0  0  0  0  0  0  0
   58.0670   26.7570   46.3060 C   0  0  0  0  0  0  0  0  0  0  0  0
   58.9190   27.5720   47.0510 C   0  0  0  0  0  0  0  0  0  0  0  0
   59.1110   28.9050   46.6730 C   0  0  0  0  0  0  0  0  0  0  0  0
   59.9490   29.7450   47.4800 N   0  0  0  0  0  0  0  0  0  0  0  0
   59.6430   29.9020   48.9060 C   0  0  0  0  0  0  0  0  0  0  0  0
   60.5400   30.9640   49.5540 C   0  0  0  0  0  0  0  0  0  0  0  0
   60.5990   32.2170   48.6590 C   0  0  0  0  0  0  0  0  0  0  0  0
   61.4120   33.3200   49.3030 C   0  0  0  0  0  0  0  0  0  0  0  0
   60.8400   34.3960   49.6270 O   0  0  0  0  0  0  0  0  0  0  0  0
   62.8000   33.1340   49.6370 N   0  0  0  0  0  0  0  0  0  0  0  0
   63.5530   34.0970   50.4220 C   0  0  0  0  0  0  0  0  0  0  0  0
   64.8800   33.4220   50.7390 C   0  0  0  0  0  0  0  0  0  0  0  0
   65.0050   32.2610   49.7580 C   0  0  0  0  0  0  0  0  0  0  0  0
   63.5910   31.9700   49.2710 C   0  0  0  0  0  0  0  0  0  0  0  0
   61.1430   31.9010   47.2410 C   0  0  0  0  0  0  0  0  0  0  0  0
   61.1150   30.4060   46.8850 C   0  0  0  0  0  0  0  0  0  0  0  0
   58.4490   29.4050   45.5320 C   0  0  0  0  0  0  0  0  0  0  0  0
   58.6260   30.7250   45.0840 C   0  0  0  0  0  0  0  0  0  0  0  0
   57.9341   33.3219   48.6088 H   0  0  0  0  0  0  0  0  0  0  0  0
   56.6816   33.1575   47.3317 H   0  0  0  0  0  0  0  0  0  0  0  0
   58.1123   32.0713   47.3317 H   0  0  0  0  0  0  0  0  0  0  0  0
   59.7925   34.9739   48.1801 H   0  0  0  0  0  0  0  0  0  0  0  0
   60.7569   36.3485   46.1056 H   0  0  0  0  0  0  0  0  0  0  0  0
   59.4161   35.5241   43.9181 H   0  0  0  0  0  0  0  0  0  0  0  0
   56.7020   32.9113   45.1166 H   0  0  0  0  0  0  0  0  0  0  0  0
   56.8551   34.2490   43.8987 H   0  0  0  0  0  0  0  0  0  0  0  0
   57.6280   32.6940   42.6000 H   0  0  0  0  0  0  0  0  0  0  0  0
   59.0720   32.8300   43.4530 H   0  0  0  0  0  0  0  0  0  0  0  0
   56.4970   30.7005   42.4024 H   0  0  0  0  0  0  0  0  0  0  0  0
   56.2247   28.3394   43.1431 H   0  0  0  0  0  0  0  0  0  0  0  0
   57.9171   25.7074   46.5992 H   0  0  0  0  0  0  0  0  0  0  0  0
   59.4381   27.1680   47.9326 H   0  0  0  0  0  0  0  0  0  0  0  0
   58.5914   30.2056   49.0157 H   0  0  0  0  0  0  0  0  0  0  0  0
   59.8244   28.9404   49.4083 H   0  0  0  0  0  0  0  0  0  0  0  0
   60.1299   31.2371   50.5375 H   0  0  0  0  0  0  0  0  0  0  0  0
   61.5547   30.5567   49.6746 H   0  0  0  0  0  0  0  0  0  0  0  0
   59.5628   32.5687   48.5467 H   0  0  0  0  0  0  0  0  0  0  0  0
   63.7195   35.0174   49.8431 H   0  0  0  0  0  0  0  0  0  0  0  0
   63.0148   34.3844   51.3372 H   0  0  0  0  0  0  0  0  0  0  0  0
   65.7111   34.1294   50.6021 H   0  0  0  0  0  0  0  0  0  0  0  0
   64.9166   33.0744   51.7820 H   0  0  0  0  0  0  0  0  0  0  0  0
   65.6502   32.5424   48.9127 H   0  0  0  0  0  0  0  0  0  0  0  0
   65.4575   31.3783   50.2334 H   0  0  0  0  0  0  0  0  0  0  0  0
   63.5828   31.8286   48.1802 H   0  0  0  0  0  0  0  0  0  0  0  0
   63.1892   31.0494   49.7194 H   0  0  0  0  0  0  0  0  0  0  0  0
   60.5311   32.4441   46.5058 H   0  0  0  0  0  0  0  0  0  0  0  0
   62.1972   32.2146   47.2250 H   0  0  0  0  0  0  0  0  0  0  0  0
   61.0705   30.2976   45.7913 H   0  0  0  0  0  0  0  0  0  0  0  0
   62.0257   29.9343   47.2827 H   0  0  0  0  0  0  0  0  0  0  0  0
   59.3185   31.3934   45.6166 H   0  0  0  0  0  0  0  0  0  0  0  0
  1  2  1  0
  2  3  1  0
  3  4  2  0
  4  5  1  0
  5  6  2  0
  6  7  1  0
  7  8  1  0
  8  9  1  0
  9 10  2  0
 10 11  1  0
 11 12  2  0
 12 13  1  0
 13 14  2  0
 14 15  1  0
 15 16  2  0
 16 17  1  0
 17 18  1  0
 18 19  1  0
 19 20  1  0
 20 21  1  0
 21 22  2  0
 21 23  1  0
 23 24  1  0
 24 25  1  0
 25 26  1  0
 26 27  1  0
 20 28  1  0
 28 29  1  0
 16 30  1  0
 30 31  2  0
  6  2  1  0
 31  9  1  0
 30 12  1  0
 29 17  1  0
 27 23  1  0
  1 32  1  0
  1 33  1  0
  1 34  1  0
  3 35  1  0
  4 36  1  0
  5 37  1  0
  7 38  1  0
  7 39  1  0
  8 40  1  0
  8 41  1  0
 10 42  1  0
 11 43  1  0
 14 44  1  0
 15 45  1  0
 18 46  1  0
 18 47  1  0
 19 48  1  0
 19 49  1  0
 20 50  1  0
 24 51  1  0
 24 52  1  0
 25 53  1  0
 25 54  1  0
 26 55  1  0
 26 56  1  0
 27 57  1  0
 27 58  1  0
 28 59  1  0
 28 60  1  0
 29 61  1  0
 29 62  1  0
 31 63  1  0
M  CHG  1   8   1
M  END
>  <UniqueID>  (16) 
15

>  <SMILES>  (16) 
Cn1cccc1C[NH2+]c1ccc2nccc(N3CCC(C(=O)N4CCCC4)CC3)c2c1

>  <Energy>  (16) 
99.59339268024137

>  <Genealogy>  (16) 
Cn1cccc1C[NH2+]c1ccc2nccc(N3CCC(C(=O)N4CCCC4)CC3)c2c1 (protonated)
Cn1cccc1C[NH2+]c1ccc2nccc(N3CCC(C(=O)N4CCCC4)CC3)c2c1 (3D coordinates assigned)
Cn1cccc1C[NH2+]c1ccc2nccc(N3CCC(C(=O)N4CCCC4)CC3)c2c1 (nonaromatic ring conformer: 99.59339268024137 kcal/mol)

>  <smiles>  (16) 
Cn1cccc1CNc1ccc2nccc(N3CCC(C(=O)N4CCCC4)CC3)c2c1

>  <score_type>  (16) 
oracle

>  <origin>  (16) 
adg

>  <m_score__min__energy>  (16) 
-7.5499999999999998

>  <m_primary>  (16) 
energy

$$$$
16:0
     RDKit          3D

 63 65  0  0  0  0  0  0  0  0999 V2000
   61.4050   28.5360   50.5470 C   0  0  0  0  0  0  0  0  0  0  0  0
   60.8000   29.7930   51.1670 C   0  0  0  0  0  0  0  0  0  0  0  0
   59.8920   30.4590   50.2030 N   0  0  0  0  0  0  0  0  0  0  0  0
   58.8560   29.5210   49.7350 C   0  0  0  0  0  0  0  0  0  0  0  0
   59.2590   31.6560   50.8010 C   0  0  0  0  0  0  0  0  0  0  0  0
   58.7520   32.6050   49.7080 C   0  0  0  0  0  0  0  0  0  0  0  0
   59.7420   33.5700   49.4000 O   0  0  0  0  0  0  0  0  0  0  0  0
   60.5610   33.8290   50.5250 C   0  0  0  0  0  0  0  0  0  0  0  0
   62.0230   33.7000   50.1120 C   0  0  0  0  0  0  0  0  0  0  0  0
   62.3100   32.3390   49.8260 O   0  0  0  0  0  0  0  0  0  0  0  0
   63.5640   32.2210   49.2790 N   0  0  0  0  0  0  0  0  0  0  0  0
   63.5270   32.3720   47.8200 C   0  0  0  0  0  0  0  0  0  0  0  0
   62.5160   31.3850   47.2270 C   0  0  0  0  0  0  0  0  0  0  0  0
   61.1720   31.5270   47.8180 N   0  0  0  0  0  0  0  0  0  0  0  0
   60.1110   31.3510   46.8310 C   0  0  0  0  0  0  0  0  0  0  0  0
   59.4750   32.4730   46.2190 C   0  0  0  0  0  0  0  0  0  0  0  0
   59.8150   33.8130   46.5490 C   0  0  0  0  0  0  0  0  0  0  0  0
   59.2320   34.8910   45.8890 C   0  0  0  0  0  0  0  0  0  0  0  0
   58.3090   34.6750   44.8800 C   0  0  0  0  0  0  0  0  0  0  0  0
   57.9280   33.3780   44.5530 C   0  0  0  0  0  0  0  0  0  0  0  0
   58.4620   32.2550   45.2400 C   0  0  0  0  0  0  0  0  0  0  0  0
   58.0200   30.9780   44.9610 N   0  0  0  0  0  0  0  0  0  0  0  0
   56.7640   30.7830   44.2000 C   0  0  0  0  0  0  0  0  0  0  0  0
   58.7220   29.8840   45.4230 C   0  0  0  0  0  0  0  0  0  0  0  0
   58.4660   28.5820   44.9180 C   0  0  0  0  0  0  0  0  0  0  0  0
   59.1140   27.4650   45.4380 C   0  0  0  0  0  0  0  0  0  0  0  0
   58.8460   26.2310   44.9400 F   0  0  0  0  0  0  0  0  0  0  0  0
   60.0320   27.6120   46.4650 C   0  0  0  0  0  0  0  0  0  0  0  0
   60.3480   28.8800   46.9450 C   0  0  0  0  0  0  0  0  0  0  0  0
   59.7340   30.0430   46.4100 C   0  0  0  0  0  0  0  0  0  0  0  0
   61.7330   27.8546   51.3458 H   0  0  0  0  0  0  0  0  0  0  0  0
   60.6497   28.0343   49.9242 H   0  0  0  0  0  0  0  0  0  0  0  0
   62.2683   28.8134   49.9242 H   0  0  0  0  0  0  0  0  0  0  0  0
   60.2323   29.5158   52.0675 H   0  0  0  0  0  0  0  0  0  0  0  0
   61.6117   30.4870   51.4306 H   0  0  0  0  0  0  0  0  0  0  0  0
   58.3541   29.0666   50.6020 H   0  0  0  0  0  0  0  0  0  0  0  0
   58.1175   30.0639   49.1269 H   0  0  0  0  0  0  0  0  0  0  0  0
   59.3231   28.7324   49.1269 H   0  0  0  0  0  0  0  0  0  0  0  0
   58.4114   31.3412   51.4274 H   0  0  0  0  0  0  0  0  0  0  0  0
   60.0075   32.1851   51.4091 H   0  0  0  0  0  0  0  0  0  0  0  0
   58.5164   32.0248   48.8037 H   0  0  0  0  0  0  0  0  0  0  0  0
   57.8496   33.1196   50.0698 H   0  0  0  0  0  0  0  0  0  0  0  0
   60.3701   34.8475   50.8940 H   0  0  0  0  0  0  0  0  0  0  0  0
   60.3347   33.1082   51.3245 H   0  0  0  0  0  0  0  0  0  0  0  0
   62.2073   34.3108   49.2159 H   0  0  0  0  0  0  0  0  0  0  0  0
   62.6699   34.0497   50.9300 H   0  0  0  0  0  0  0  0  0  0  0  0
   64.2530   32.8760   49.7210 H   0  0  0  0  0  0  0  0  0  0  0  0
   63.2280   33.3996   47.5657 H   0  0  0  0  0  0  0  0  0  0  0  0
   64.5250   32.1660   47.4058 H   0  0  0  0  0  0  0  0  0  0  0  0
   62.4450   31.5615   46.1436 H   0  0  0  0  0  0  0  0  0  0  0  0
   62.8725   30.3684   47.4496 H   0  0  0  0  0  0  0  0  0  0  0  0
   61.0780   30.9030   48.6470 H   0  0  0  0  0  0  0  0  0  0  0  0
   61.0890   32.4710   48.2590 H   0  0  0  0  0  0  0  0  0  0  0  0
   60.5537   34.0020   47.3419 H   0  0  0  0  0  0  0  0  0  0  0  0
   59.5057   35.9186   46.1703 H   0  0  0  0  0  0  0  0  0  0  0  0
   57.8772   35.5288   44.3372 H   0  0  0  0  0  0  0  0  0  0  0  0
   57.1981   33.2184   43.7457 H   0  0  0  0  0  0  0  0  0  0  0  0
   55.9267   30.6530   44.9015 H   0  0  0  0  0  0  0  0  0  0  0  0
   56.5786   31.6631   43.5667 H   0  0  0  0  0  0  0  0  0  0  0  0
   56.8541   29.8881   43.5667 H   0  0  0  0  0  0  0  0  0  0  0  0
   57.7417   28.4534   44.1001 H   0  0  0  0  0  0  0  0  0  0  0  0
   60.5125   26.7244   46.9024 H   0  0  0  0  0  0  0  0  0  0  0  0
   61.0868   28.9827   47.7535 H   0  0  0  0  0  0  0  0  0  0  0  0
  1  2  1  0
  2  3  1  0
  3  4  1  0
  3  5  1  0
  5  6  1  0
  6  7  1  0
  7  8  1  0
  8  9  1  0
  9 10  1  0
 10 11  1  0
 11 12  1  0
 12 13  1  0
 13 14  1  0
 14 15  1  0
 15 16  2  0
 16 17  1  0
 17 18  2  0
 18 19  1  0
 19 20  2  0
 20 21  1  0
 21 22  2  0
 22 23  1  0
 22 24  1  0
 24 25  2  0
 25 26  1  0
 26 27  1  0
 26 28  2  0
 28 29  1  0
 29 30  2  0
 30 15  1  0
 21 16  1  0
 30 24  1  0
  1 31  1  0
  1 32  1  0
  1 33  1  0
  2 34  1  0
  2 35  1  0
  4 36  1  0
  4 37  1  0
  4 38  1  0
  5 39  1  0
  5 40  1  0
  6 41  1  0
  6 42  1  0
  8 43  1  0
  8 44  1  0
  9 45  1  0
  9 46  1  0
 11 47  1  0
 12 48  1  0
 12 49  1  0
 13 50  1  0
 13 51  1  0
 14 52  1  0
 14 53  1  0
 17 54  1  0
 18 55  1  0
 19 56  1  0
 20 57  1  0
 23 58  1  0
 23 59  1  0
 23 60  1  0
 25 61  1  0
 28 62  1  0
 29 63  1  0
M  CHG  2  14   1  22   1
M  END
>  <UniqueID>  (17) 
16

>  <SMILES>  (17) 
CCN(C)CCOCCONCC[NH2+]c1c2ccccc2[n+](C)c2cc(F)ccc12

>  <Energy>  (17) 
96.84356296023148

>  <Genealogy>  (17) 
CCN(C)CCOCCONCC[NH2+]c1c2ccccc2[n+](C)c2cc(F)ccc12 (protonated)
CCN(C)CCOCCONCC[NH2+]c1c2ccccc2[n+](C)c2cc(F)ccc12 (3D coordinates assigned)
CCN(C)CCOCCONCC[NH2+]c1c2ccccc2[n+](C)c2cc(F)ccc12 (optimized conformer: 96.84356296023148 kcal/mol)

>  <smiles>  (17) 
CCN(C)CCOCCONCCNc1c2ccccc2[n+](C)c2cc(F)ccc12

>  <score_type>  (17) 
oracle

>  <origin>  (17) 
adg

>  <m_score__min__energy>  (17) 
-4.0199999999999996

>  <m_primary>  (17) 
energy

$$$$
17:0
     RDKit          3D

 42 43  0  0  0  0  0  0  0  0999 V2000
   64.0050   33.4470   47.8830 C   0  0  0  0  0  0  0  0  0  0  0  0
   63.3740   32.0800   47.6510 C   0  0  0  0  0  0  0  0  0  0  0  0
   62.0310   32.0520   48.1350 O   0  0  0  0  0  0  0  0  0  0  0  0
   60.9040   32.5590   47.4640 C   0  0  0  0  0  0  0  0  0  0  0  0
   61.0210   33.4900   46.4110 C   0  0  0  0  0  0  0  0  0  0  0  0
   59.8840   33.9710   45.7610 C   0  0  0  0  0  0  0  0  0  0  0  0
   58.6180   33.5250   46.1380 C   0  0  0  0  0  0  0  0  0  0  0  0
   57.0670   34.1810   45.2390 Br  0  0  0  0  0  0  0  0  0  0  0  0
   58.4860   32.6040   47.1790 C   0  0  0  0  0  0  0  0  0  0  0  0
   59.6180   32.1350   47.8700 C   0  0  0  0  0  0  0  0  0  0  0  0
   59.4320   31.1740   49.0270 C   0  0  0  0  0  0  0  0  0  0  0  0
   60.4400   30.0930   49.0350 N   0  0  0  0  0  0  0  0  0  0  0  0
   59.9660   28.8300   48.4350 C   0  0  0  0  0  0  0  0  0  0  0  0
   59.4950   28.9890   47.0050 C   0  0  0  0  0  0  0  0  0  0  0  0
   60.3860   28.8100   45.9330 C   0  0  0  0  0  0  0  0  0  0  0  0
   59.9510   28.9900   44.6190 C   0  0  0  0  0  0  0  0  0  0  0  0
   58.6180   29.3140   44.3590 C   0  0  0  0  0  0  0  0  0  0  0  0
   57.7010   29.4430   45.4090 C   0  0  0  0  0  0  0  0  0  0  0  0
   56.3640   29.7270   45.0930 O   0  0  0  0  0  0  0  0  0  0  0  0
   55.9060   30.1070   43.8000 C   0  0  0  0  0  0  0  0  0  0  0  0
   58.1470   29.2820   46.7350 C   0  0  0  0  0  0  0  0  0  0  0  0
   64.0907   33.6326   48.9638 H   0  0  0  0  0  0  0  0  0  0  0  0
   65.0054   33.4713   47.4263 H   0  0  0  0  0  0  0  0  0  0  0  0
   63.3745   34.2241   47.4263 H   0  0  0  0  0  0  0  0  0  0  0  0
   63.3733   31.8616   46.5729 H   0  0  0  0  0  0  0  0  0  0  0  0
   63.9602   31.3246   48.1947 H   0  0  0  0  0  0  0  0  0  0  0  0
   62.0164   33.8396   46.0998 H   0  0  0  0  0  0  0  0  0  0  0  0
   59.9868   34.7049   44.9481 H   0  0  0  0  0  0  0  0  0  0  0  0
   57.4867   32.2414   47.4617 H   0  0  0  0  0  0  0  0  0  0  0  0
   59.5113   31.7368   49.9688 H   0  0  0  0  0  0  0  0  0  0  0  0
   58.4425   30.7064   48.9162 H   0  0  0  0  0  0  0  0  0  0  0  0
   61.3340   30.4040   48.5940 H   0  0  0  0  0  0  0  0  0  0  0  0
   60.6650   29.8890   50.0380 H   0  0  0  0  0  0  0  0  0  0  0  0
   60.7915   28.1032   48.4524 H   0  0  0  0  0  0  0  0  0  0  0  0
   59.1037   28.4901   49.0273 H   0  0  0  0  0  0  0  0  0  0  0  0
   61.4305   28.5269   46.1303 H   0  0  0  0  0  0  0  0  0  0  0  0
   60.6603   28.8763   43.7860 H   0  0  0  0  0  0  0  0  0  0  0  0
   58.2860   29.4690   43.3218 H   0  0  0  0  0  0  0  0  0  0  0  0
   55.0630   30.8064   43.9005 H   0  0  0  0  0  0  0  0  0  0  0  0
   56.7240   30.5953   43.2501 H   0  0  0  0  0  0  0  0  0  0  0  0
   55.5770   29.2129   43.2501 H   0  0  0  0  0  0  0  0  0  0  0  0
   57.4345   29.3864   47.5665 H   0  0  0  0  0  0  0  0  0  0  0  0
  1  2  1  0
  2  3  1  0
  3  4  1  0
  4  5  2  0
  5  6  1  0
  6  7  2  0
  7  8  1  0
  7  9  1  0
  9 10  2  0
 10 11  1  0
 11 12  1  0
 12 13  1  0
 13 14  1  0
 14 15  2  0
 15 16  1  0
 16 17  2  0
 17 18  1  0
 18 19  1  0
 19 20  1  0
 18 21  2  0
 10  4  1  0
 21 14  1  0
  1 22  1  0
  1 23  1  0
  1 24  1  0
  2 25  1  0
  2 26  1  0
  5 27  1  0
  6 28  1  0
  9 29  1  0
 11 30  1  0
 11 31  1  0
 12 32  1  0
 12 33  1  0
 13 34  1  0
 13 35  1  0
 15 36  1  0
 16 37  1  0
 17 38  1  0
 20 39  1  0
 20 40  1  0
 20 41  1  0
 21 42  1  0
M  CHG  1  12   1
M  END
>  <UniqueID>  (18) 
17

>  <SMILES>  (18) 
CCOc1ccc(Br)cc1C[NH2+]Cc1cccc(OC)c1

>  <Energy>  (18) 
37.69506826055499

>  <Genealogy>  (18) 
CCOc1ccc(Br)cc1C[NH2+]Cc1cccc(OC)c1 (protonated)
CCOc1ccc(Br)cc1C[NH2+]Cc1cccc(OC)c1 (3D coordinates assigned)
CCOc1ccc(Br)cc1C[NH2+]Cc1cccc(OC)c1 (optimized conformer: 37.69506826055499 kcal/mol)

>  <smiles>  (18) 
CCOc1ccc(Br)cc1CNCc1cccc(OC)c1

>  <score_type>  (18) 
oracle

>  <origin>  (18) 
adg

>  <m_score__min__energy>  (18) 
-5.6799999999999997

>  <m_primary>  (18) 
energy

$$$$
18:0
     RDKit          3D

 41 43  0  0  0  0  0  0  0  0999 V2000
   63.0540   32.5590   47.2100 C   0  0  0  0  0  0  0  0  0  0  0  0
   61.6390   32.1010   47.5450 C   0  0  0  0  0  0  0  0  0  0  0  0
   61.5430   30.6780   47.4950 O   0  0  0  0  0  0  0  0  0  0  0  0
   60.5430   29.9480   46.8290 C   0  0  0  0  0  0  0  0  0  0  0  0
   60.8640   29.3610   45.6000 C   0  0  0  0  0  0  0  0  0  0  0  0
   59.9100   28.6230   44.8940 C   0  0  0  0  0  0  0  0  0  0  0  0
   58.6200   28.4480   45.4170 C   0  0  0  0  0  0  0  0  0  0  0  0
   57.5800   27.6860   44.6390 C   0  0  0  0  0  0  0  0  0  0  0  0
   57.3880   28.2880   43.3100 N   0  0  0  0  0  0  0  0  0  0  0  0
   56.4260   29.4020   43.3440 C   0  0  0  0  0  0  0  0  0  0  0  0
   57.1100   30.7210   43.5640 C   0  0  0  0  0  0  0  0  0  0  0  0
   57.4630   31.6270   42.5880 C   0  0  0  0  0  0  0  0  0  0  0  0
   57.9940   32.6600   43.1890 O   0  0  0  0  0  0  0  0  0  0  0  0
   57.9700   32.4130   44.4800 C   0  0  0  0  0  0  0  0  0  0  0  0
   58.4790   33.3440   45.4930 C   0  0  0  0  0  0  0  0  0  0  0  0
   59.3120   34.4310   45.2610 C   0  0  0  0  0  0  0  0  0  0  0  0
   59.6320   35.1370   46.4260 C   0  0  0  0  0  0  0  0  0  0  0  0
   59.0530   34.6100   47.5750 C   0  0  0  0  0  0  0  0  0  0  0  0
   58.1420   33.2640   47.1390 S   0  0  0  0  0  0  0  0  0  0  0  0
   57.4250   31.2150   44.7770 N   0  0  0  0  0  0  0  0  0  0  0  0
   58.2900   29.0440   46.6430 C   0  0  0  0  0  0  0  0  0  0  0  0
   59.2450   29.7820   47.3510 C   0  0  0  0  0  0  0  0  0  0  0  0
   63.6111   32.7393   48.1412 H   0  0  0  0  0  0  0  0  0  0  0  0
   63.5625   31.7796   46.6236 H   0  0  0  0  0  0  0  0  0  0  0  0
   63.0093   33.4886   46.6236 H   0  0  0  0  0  0  0  0  0  0  0  0
   61.3784   32.4449   48.5568 H   0  0  0  0  0  0  0  0  0  0  0  0
   60.9453   32.5279   46.8057 H   0  0  0  0  0  0  0  0  0  0  0  0
   61.8760   29.4815   45.1860 H   0  0  0  0  0  0  0  0  0  0  0  0
   60.1719   28.1770   43.9232 H   0  0  0  0  0  0  0  0  0  0  0  0
   57.9088   26.6431   44.5201 H   0  0  0  0  0  0  0  0  0  0  0  0
   56.6272   27.7226   45.1875 H   0  0  0  0  0  0  0  0  0  0  0  0
   58.3060   28.6260   42.9330 H   0  0  0  0  0  0  0  0  0  0  0  0
   57.0140   27.5580   42.6580 H   0  0  0  0  0  0  0  0  0  0  0  0
   55.8861   29.4359   42.3862 H   0  0  0  0  0  0  0  0  0  0  0  0
   55.7335   29.2313   44.1815 H   0  0  0  0  0  0  0  0  0  0  0  0
   57.3239   31.5042   41.5038 H   0  0  0  0  0  0  0  0  0  0  0  0
   59.6824   34.7086   44.2631 H   0  0  0  0  0  0  0  0  0  0  0  0
   60.2806   36.0254   46.4322 H   0  0  0  0  0  0  0  0  0  0  0  0
   59.1704   35.0054   48.5948 H   0  0  0  0  0  0  0  0  0  0  0  0
   57.2745   28.9306   47.0503 H   0  0  0  0  0  0  0  0  0  0  0  0
   58.9814   30.2341   48.3185 H   0  0  0  0  0  0  0  0  0  0  0  0
  1  2  1  0
  2  3  1  0
  3  4  1  0
  4  5  2  0
  5  6  1  0
  6  7  2  0
  7  8  1  0
  8  9  1  0
  9 10  1  0
 10 11  1  0
 11 12  2  0
 12 13  1  0
 13 14  1  0
 14 15  1  0
 15 16  2  0
 16 17  1  0
 17 18  2  0
 18 19  1  0
 14 20  2  0
  7 21  1  0
 21 22  2  0
 22  4  1  0
 20 11  1  0
 19 15  1  0
  1 23  1  0
  1 24  1  0
  1 25  1  0
  2 26  1  0
  2 27  1  0
  5 28  1  0
  6 29  1  0
  8 30  1  0
  8 31  1  0
  9 32  1  0
  9 33  1  0
 10 34  1  0
 10 35  1  0
 12 36  1  0
 16 37  1  0
 17 38  1  0
 18 39  1  0
 21 40  1  0
 22 41  1  0
M  CHG  1   9   1
M  END
>  <UniqueID>  (19) 
18

>  <SMILES>  (19) 
CCOc1ccc(C[NH2+]Cc2coc(-c3cccs3)n2)cc1

>  <Energy>  (19) 
93.67101742852638

>  <Genealogy>  (19) 
CCOc1ccc(C[NH2+]Cc2coc(-c3cccs3)n2)cc1 (protonated)
CCOc1ccc(C[NH2+]Cc2coc(-c3cccs3)n2)cc1 (3D coordinates assigned)
CCOc1ccc(C[NH2+]Cc2coc(-c3cccs3)n2)cc1 (optimized conformer: 93.67101742852638 kcal/mol)

>  <smiles>  (19) 
CCOc1ccc(CNCc2coc(-c3cccs3)n2)cc1

>  <score_type>  (19) 
oracle

>  <origin>  (19) 
adg

>  <m_score__min__energy>  (19) 
-5.6399999999999997

>  <m_primary>  (19) 
energy

$$$$
19:0
     RDKit          3D

 75 78  0  0  0  0  0  0  0  0999 V2000
   55.5380   29.5070   52.7470 C   0  0  0  0  0  0  0  0  0  0  0  0
   57.0310   29.4930   52.4250 C   0  0  0  0  0  0  0  0  0  0  0  0
   57.3470   30.4250   51.3160 N   0  0  0  0  0  0  0  0  0  0  0  0
   56.9620   31.8280   51.6250 C   0  0  0  0  0  0  0  0  0  0  0  0
   58.1280   32.7470   52.0240 C   0  0  0  0  0  0  0  0  0  0  0  0
   58.7500   30.2580   50.8600 C   0  0  0  0  0  0  0  0  0  0  0  0
   58.8650   29.5680   49.4910 C   0  0  0  0  0  0  0  0  0  0  0  0
   59.4620   30.4500   48.4830 N   0  0  0  0  0  0  0  0  0  0  0  0
   58.9610   30.5440   47.1370 C   0  0  0  0  0  0  0  0  0  0  0  0
   58.7090   29.3610   46.4190 C   0  0  0  0  0  0  0  0  0  0  0  0
   59.0490   28.1020   46.9610 C   0  0  0  0  0  0  0  0  0  0  0  0
   58.7510   26.9260   46.2790 C   0  0  0  0  0  0  0  0  0  0  0  0
   58.0960   26.9780   45.0540 C   0  0  0  0  0  0  0  0  0  0  0  0
   57.6740   25.4910   44.2260 Cl  0  0  0  0  0  0  0  0  0  0  0  0
   57.7560   28.2110   44.4960 C   0  0  0  0  0  0  0  0  0  0  0  0
   58.0840   29.4290   45.1470 C   0  0  0  0  0  0  0  0  0  0  0  0
   57.7770   30.6560   44.5900 N   0  0  0  0  0  0  0  0  0  0  0  0
   57.3500   30.7360   43.1740 C   0  0  0  0  0  0  0  0  0  0  0  0
   57.9150   31.8130   45.3350 C   0  0  0  0  0  0  0  0  0  0  0  0
   57.3600   33.0390   44.8980 C   0  0  0  0  0  0  0  0  0  0  0  0
   57.5990   34.2210   45.5870 C   0  0  0  0  0  0  0  0  0  0  0  0
   58.4160   34.2240   46.7080 C   0  0  0  0  0  0  0  0  0  0  0  0
   58.9590   33.0260   47.2010 C   0  0  0  0  0  0  0  0  0  0  0  0
   59.8610   33.0310   48.2810 O   0  0  0  0  0  0  0  0  0  0  0  0
   59.8770   33.9520   49.3730 C   0  0  0  0  0  0  0  0  0  0  0  0
   60.9740   33.6060   50.4130 C   0  0  0  0  0  0  0  0  0  0  0  0
   62.3430   33.2850   49.8810 N   0  0  0  0  0  0  0  0  0  0  0  0
   63.2730   33.4030   51.0390 C   0  0  0  0  0  0  0  0  0  0  0  0
   62.3950   31.8650   49.3930 C   0  0  0  0  0  0  0  0  0  0  0  0
   63.5360   31.6180   48.3930 C   0  0  0  0  0  0  0  0  0  0  0  0
   63.3860   32.4910   47.1370 C   0  0  0  0  0  0  0  0  0  0  0  0
   62.5970   33.7830   47.3970 C   0  0  0  0  0  0  0  0  0  0  0  0
   62.7880   34.2770   48.8410 C   0  0  0  0  0  0  0  0  0  0  0  0
   58.6150   31.7940   46.5740 C   0  0  0  0  0  0  0  0  0  0  0  0
   55.3982   29.5083   53.8381 H   0  0  0  0  0  0  0  0  0  0  0  0
   55.0787   30.4095   52.3174 H   0  0  0  0  0  0  0  0  0  0  0  0
   55.0619   28.6133   52.3174 H   0  0  0  0  0  0  0  0  0  0  0  0
   57.5943   29.7956   53.3200 H   0  0  0  0  0  0  0  0  0  0  0  0
   57.3122   28.4752   52.1167 H   0  0  0  0  0  0  0  0  0  0  0  0
   56.4808   32.2546   50.7325 H   0  0  0  0  0  0  0  0  0  0  0  0
   56.2951   31.7793   52.4985 H   0  0  0  0  0  0  0  0  0  0  0  0
   58.1947   32.7996   53.1207 H   0  0  0  0  0  0  0  0  0  0  0  0
   59.0678   32.3441   51.6184 H   0  0  0  0  0  0  0  0  0  0  0  0
   57.9558   33.7549   51.6184 H   0  0  0  0  0  0  0  0  0  0  0  0
   59.2154   31.2522   50.7903 H   0  0  0  0  0  0  0  0  0  0  0  0
   59.2572   29.6142   51.5936 H   0  0  0  0  0  0  0  0  0  0  0  0
   59.4936   28.6714   49.5962 H   0  0  0  0  0  0  0  0  0  0  0  0
   57.8511   29.3041   49.1558 H   0  0  0  0  0  0  0  0  0  0  0  0
   60.3540   30.9380   48.7180 H   0  0  0  0  0  0  0  0  0  0  0  0
   59.5563   28.0501   47.9356 H   0  0  0  0  0  0  0  0  0  0  0  0
   59.0341   25.9543   46.7098 H   0  0  0  0  0  0  0  0  0  0  0  0
   57.2239   28.2396   43.5337 H   0  0  0  0  0  0  0  0  0  0  0  0
   56.2698   30.9384   43.1277 H   0  0  0  0  0  0  0  0  0  0  0  0
   57.8969   31.5473   42.6714 H   0  0  0  0  0  0  0  0  0  0  0  0
   57.5662   29.7817   42.6714 H   0  0  0  0  0  0  0  0  0  0  0  0
   56.7286   33.0562   43.9974 H   0  0  0  0  0  0  0  0  0  0  0  0
   57.1385   35.1586   45.2423 H   0  0  0  0  0  0  0  0  0  0  0  0
   58.6408   35.1736   47.2157 H   0  0  0  0  0  0  0  0  0  0  0  0
   60.0655   34.9626   48.9817 H   0  0  0  0  0  0  0  0  0  0  0  0
   58.9016   33.8947   49.8783 H   0  0  0  0  0  0  0  0  0  0  0  0
   61.0745   34.4683   51.0885 H   0  0  0  0  0  0  0  0  0  0  0  0
   60.6296   32.6781   50.8929 H   0  0  0  0  0  0  0  0  0  0  0  0
   62.7022   33.3306   51.9765 H   0  0  0  0  0  0  0  0  0  0  0  0
   64.0148   32.5918   50.9977 H   0  0  0  0  0  0  0  0  0  0  0  0
   63.7887   34.3738   50.9977 H   0  0  0  0  0  0  0  0  0  0  0  0
   62.5370   31.2013   50.2586 H   0  0  0  0  0  0  0  0  0  0  0  0
   61.4485   31.6602   48.8713 H   0  0  0  0  0  0  0  0  0  0  0  0
   64.4942   31.8536   48.8792 H   0  0  0  0  0  0  0  0  0  0  0  0
   63.5011   30.5626   48.0848 H   0  0  0  0  0  0  0  0  0  0  0  0
   64.3892   32.7595   46.7745 H   0  0  0  0  0  0  0  0  0  0  0  0
   62.8248   31.9058   46.3937 H   0  0  0  0  0  0  0  0  0  0  0  0
   62.9469   34.5616   46.7033 H   0  0  0  0  0  0  0  0  0  0  0  0
   61.5285   33.5730   47.2417 H   0  0  0  0  0  0  0  0  0  0  0  0
   63.8559   34.4894   48.9975 H   0  0  0  0  0  0  0  0  0  0  0  0
   62.1612   35.1730   48.9609 H   0  0  0  0  0  0  0  0  0  0  0  0
  1  2  1  0
  2  3  1  0
  3  4  1  0
  4  5  1  0
  3  6  1  0
  6  7  1  0
  7  8  1  0
  8  9  1  0
  9 10  2  0
 10 11  1  0
 11 12  2  0
 12 13  1  0
 13 14  1  0
 13 15  2  0
 15 16  1  0
 16 17  2  0
 17 18  1  0
 17 19  1  0
 19 20  2  0
 20 21  1  0
 21 22  2  0
 22 23  1  0
 23 24  1  0
 24 25  1  0
 25 26  1  0
 26 27  1  0
 27 28  1  0
 27 29  1  0
 29 30  1  0
 30 31  1  0
 31 32  1  0
 32 33  1  0
 23 34  2  0
 34  9  1  0
 16 10  1  0
 34 19  1  0
 33 27  1  0
  1 35  1  0
  1 36  1  0
  1 37  1  0
  2 38  1  0
  2 39  1  0
  4 40  1  0
  4 41  1  0
  5 42  1  0
  5 43  1  0
  5 44  1  0
  6 45  1  0
  6 46  1  0
  7 47  1  0
  7 48  1  0
  8 49  1  0
 11 50  1  0
 12 51  1  0
 15 52  1  0
 18 53  1  0
 18 54  1  0
 18 55  1  0
 20 56  1  0
 21 57  1  0
 22 58  1  0
 25 59  1  0
 25 60  1  0
 26 61  1  0
 26 62  1  0
 28 63  1  0
 28 64  1  0
 28 65  1  0
 29 66  1  0
 29 67  1  0
 30 68  1  0
 30 69  1  0
 31 70  1  0
 31 71  1  0
 32 72  1  0
 32 73  1  0
 33 74  1  0
 33 75  1  0
M  CHG  2  17   1  27   1
M  END
>  <UniqueID>  (20) 
19

>  <SMILES>  (20) 
CCN(CC)CCNc1c2ccc(Cl)cc2[n+](C)c2cccc(OCC[N+]3(C)CCCCC3)c12

>  <Energy>  (20) 
122.09697435369179

>  <Genealogy>  (20) 
CCN(CC)CCNc1c2ccc(Cl)cc2[n+](C)c2cccc(OCC[N+]3(C)CCCCC3)c12 (3D coordinates assigned)
CCN(CC)CCNc1c2ccc(Cl)cc2[n+](C)c2cccc(OCC[N+]3(C)CCCCC3)c12 (nonaromatic ring conformer: 122.09697435369179 kcal/mol)

>  <smiles>  (20) 
CCN(CC)CCNc1c2ccc(Cl)cc2[n+](C)c2cccc(OCC[N+]3(C)CCCCC3)c12

>  <score_type>  (20) 
oracle

>  <origin>  (20) 
adg

>  <m_score__min__energy>  (20) 
-5.6200000000000001

>  <m_primary>  (20) 
energy

$$$$
20:0
     RDKit          3D

 51 53  0  0  0  0  0  0  0  0999 V2000
   55.8880   29.8460   42.9630 C   0  0  0  0  0  0  0  0  0  0  0  0
   57.2210   29.8060   43.7030 C   0  0  0  0  0  0  0  0  0  0  0  0
   57.1650   30.6130   44.8650 O   0  0  0  0  0  0  0  0  0  0  0  0
   58.3990   30.6110   45.5570 C   0  0  0  0  0  0  0  0  0  0  0  0
   58.2740   29.8210   46.8630 C   0  0  0  0  0  0  0  0  0  0  0  0
   59.4300   30.0070   47.6580 O   0  0  0  0  0  0  0  0  0  0  0  0
   59.1120   29.8970   49.0290 C   0  0  0  0  0  0  0  0  0  0  0  0
   58.8930   31.2940   49.6030 C   0  0  0  0  0  0  0  0  0  0  0  0
   59.7270   32.2740   48.8970 N   0  0  0  0  0  0  0  0  0  0  0  0
   61.0220   32.5950   49.1660 C   0  0  0  0  0  0  0  0  0  0  0  0
   61.4550   33.6050   48.3020 C   0  0  0  0  0  0  0  0  0  0  0  0
   60.3660   33.9130   47.5060 C   0  0  0  0  0  0  0  0  0  0  0  0
   60.2100   34.8510   46.4830 C   0  0  0  0  0  0  0  0  0  0  0  0
   58.9540   34.9410   45.8550 C   0  0  0  0  0  0  0  0  0  0  0  0
   57.8930   34.1050   46.2580 C   0  0  0  0  0  0  0  0  0  0  0  0
   58.0760   33.1680   47.2900 C   0  0  0  0  0  0  0  0  0  0  0  0
   59.3350   33.0930   47.8970 C   0  0  0  0  0  0  0  0  0  0  0  0
   62.8380   34.1910   48.2280 C   0  0  0  0  0  0  0  0  0  0  0  0
   63.8860   33.1500   48.1290 N   0  0  0  0  0  0  0  0  0  0  0  0
   63.5350   32.1850   47.0740 C   0  0  0  0  0  0  0  0  0  0  0  0
   64.2180   32.4520   49.3990 C   0  0  0  0  0  0  0  0  0  0  0  0
   63.1990   31.3670   49.8100 C   0  0  0  0  0  0  0  0  0  0  0  0
   61.8400   31.9400   50.2600 C   0  0  0  0  0  0  0  0  0  0  0  0
   55.0646   29.8707   43.6919 H   0  0  0  0  0  0  0  0  0  0  0  0
   55.8460   30.7458   42.3317 H   0  0  0  0  0  0  0  0  0  0  0  0
   55.7921   28.9503   42.3317 H   0  0  0  0  0  0  0  0  0  0  0  0
   57.4437   28.7685   43.9927 H   0  0  0  0  0  0  0  0  0  0  0  0
   58.0093   30.1907   43.0392 H   0  0  0  0  0  0  0  0  0  0  0  0
   59.1694   30.1464   44.9240 H   0  0  0  0  0  0  0  0  0  0  0  0
   58.6797   31.6484   45.7915 H   0  0  0  0  0  0  0  0  0  0  0  0
   57.3912   30.1723   47.4173 H   0  0  0  0  0  0  0  0  0  0  0  0
   58.1679   28.7517   46.6275 H   0  0  0  0  0  0  0  0  0  0  0  0
   58.1947   29.3016   49.1480 H   0  0  0  0  0  0  0  0  0  0  0  0
   59.9364   29.4015   49.5627 H   0  0  0  0  0  0  0  0  0  0  0  0
   57.8344   31.5705   49.4897 H   0  0  0  0  0  0  0  0  0  0  0  0
   59.1709   31.2900   50.6673 H   0  0  0  0  0  0  0  0  0  0  0  0
   61.0440   35.4999   46.1774 H   0  0  0  0  0  0  0  0  0  0  0  0
   58.7991   35.6683   45.0445 H   0  0  0  0  0  0  0  0  0  0  0  0
   56.9148   34.1863   45.7614 H   0  0  0  0  0  0  0  0  0  0  0  0
   57.2532   32.5125   47.6113 H   0  0  0  0  0  0  0  0  0  0  0  0
   62.8999   34.8403   47.3422 H   0  0  0  0  0  0  0  0  0  0  0  0
   63.0131   34.7570   49.1548 H   0  0  0  0  0  0  0  0  0  0  0  0
   63.1935   31.2462   47.5346 H   0  0  0  0  0  0  0  0  0  0  0  0
   62.7306   32.6009   46.4496 H   0  0  0  0  0  0  0  0  0  0  0  0
   64.4186   31.9869   46.4496 H   0  0  0  0  0  0  0  0  0  0  0  0
   65.2023   31.9747   49.2832 H   0  0  0  0  0  0  0  0  0  0  0  0
   64.2048   33.2146   50.1916 H   0  0  0  0  0  0  0  0  0  0  0  0
   63.0296   30.7040   48.9487 H   0  0  0  0  0  0  0  0  0  0  0  0
   63.6257   30.8311   50.6707 H   0  0  0  0  0  0  0  0  0  0  0  0
   61.2461   31.1158   50.6818 H   0  0  0  0  0  0  0  0  0  0  0  0
   62.0688   32.7335   50.9866 H   0  0  0  0  0  0  0  0  0  0  0  0
  1  2  1  0
  2  3  1  0
  3  4  1  0
  4  5  1  0
  5  6  1  0
  6  7  1  0
  7  8  1  0
  8  9  1  0
  9 10  1  0
 10 11  2  0
 11 12  1  0
 12 13  2  0
 13 14  1  0
 14 15  2  0
 15 16  1  0
 16 17  2  0
 11 18  1  0
 18 19  1  0
 19 20  1  0
 19 21  1  0
 21 22  1  0
 22 23  1  0
 17  9  1  0
 23 10  1  0
 17 12  1  0
  1 24  1  0
  1 25  1  0
  1 26  1  0
  2 27  1  0
  2 28  1  0
  4 29  1  0
  4 30  1  0
  5 31  1  0
  5 32  1  0
  7 33  1  0
  7 34  1  0
  8 35  1  0
  8 36  1  0
 13 37  1  0
 14 38  1  0
 15 39  1  0
 16 40  1  0
 18 41  1  0
 18 42  1  0
 20 43  1  0
 20 44  1  0
 20 45  1  0
 21 46  1  0
 21 47  1  0
 22 48  1  0
 22 49  1  0
 23 50  1  0
 23 51  1  0
M  END
>  <UniqueID>  (21) 
20

>  <SMILES>  (21) 
CCOCCOCCn1c2c(c3ccccc31)CN(C)CCC2

>  <Energy>  (21) 
95.1312495749742

>  <Genealogy>  (21) 
CCOCCOCCn1c2c(c3ccccc31)CN(C)CCC2 (3D coordinates assigned)
CCOCCOCCn1c2c(c3ccccc31)CN(C)CCC2 (nonaromatic ring conformer: 95.1312495749742 kcal/mol)

>  <smiles>  (21) 
CCOCCOCCn1c2c(c3ccccc31)CN(C)CCC2

>  <score_type>  (21) 
oracle

>  <origin>  (21) 
adg

>  <m_score__min__energy>  (21) 
-4.7999999999999998

>  <m_primary>  (21) 
energy

$$$$
21:0
     RDKit          3D

 51 53  0  0  0  0  0  0  0  0999 V2000
   55.7910   30.8000   52.0730 C   0  0  0  0  0  0  0  0  0  0  0  0
   57.1350   30.0920   51.9980 C   0  0  0  0  0  0  0  0  0  0  0  0
   57.7920   30.4670   50.8130 O   0  0  0  0  0  0  0  0  0  0  0  0
   58.5440   29.3960   50.4430 N   0  0  0  0  0  0  0  0  0  0  0  0
   59.9180   29.8620   50.2680 C   0  0  0  0  0  0  0  0  0  0  0  0
   60.1000   30.4420   48.8660 C   0  0  0  0  0  0  0  0  0  0  0  0
   58.8210   30.9050   48.3210 N   0  0  0  0  0  0  0  0  0  0  0  0
   58.6930   31.3310   46.9550 C   0  0  0  0  0  0  0  0  0  0  0  0
   59.0560   32.6460   46.6140 C   0  0  0  0  0  0  0  0  0  0  0  0
   59.6640   33.4960   47.5640 C   0  0  0  0  0  0  0  0  0  0  0  0
   59.9540   34.8220   47.2540 C   0  0  0  0  0  0  0  0  0  0  0  0
   59.6360   35.3270   45.9990 C   0  0  0  0  0  0  0  0  0  0  0  0
   59.0550   34.5010   45.0380 C   0  0  0  0  0  0  0  0  0  0  0  0
   58.7880   33.1330   45.3080 C   0  0  0  0  0  0  0  0  0  0  0  0
   58.2570   32.2930   44.3500 N   0  0  0  0  0  0  0  0  0  0  0  0
   58.2280   32.7190   42.9310 C   0  0  0  0  0  0  0  0  0  0  0  0
   57.7980   31.0360   44.7020 C   0  0  0  0  0  0  0  0  0  0  0  0
   57.0160   30.2640   43.8120 C   0  0  0  0  0  0  0  0  0  0  0  0
   56.6420   28.9640   44.1240 C   0  0  0  0  0  0  0  0  0  0  0  0
   57.0480   28.3860   45.3180 C   0  0  0  0  0  0  0  0  0  0  0  0
   57.7870   29.1270   46.2570 C   0  0  0  0  0  0  0  0  0  0  0  0
   58.2620   28.5220   47.4360 O   0  0  0  0  0  0  0  0  0  0  0  0
   59.1940   27.4440   47.5200 C   0  0  0  0  0  0  0  0  0  0  0  0
   60.2200   27.5240   46.3950 C   0  0  0  0  0  0  0  0  0  0  0  0
   58.0930   30.4930   45.9870 C   0  0  0  0  0  0  0  0  0  0  0  0
   55.5122   30.9468   53.1269 H   0  0  0  0  0  0  0  0  0  0  0  0
   55.8630   31.7772   51.5732 H   0  0  0  0  0  0  0  0  0  0  0  0
   55.0258   30.1880   51.5732 H   0  0  0  0  0  0  0  0  0  0  0  0
   57.7494   30.3770   52.8648 H   0  0  0  0  0  0  0  0  0  0  0  0
   56.9788   29.0032   52.0041 H   0  0  0  0  0  0  0  0  0  0  0  0
   58.1850   29.0870   49.5100 H   0  0  0  0  0  0  0  0  0  0  0  0
   60.1366   30.6395   51.0148 H   0  0  0  0  0  0  0  0  0  0  0  0
   60.6059   29.0137   50.3993 H   0  0  0  0  0  0  0  0  0  0  0  0
   60.7986   31.2902   48.9152 H   0  0  0  0  0  0  0  0  0  0  0  0
   60.4972   29.6543   48.2089 H   0  0  0  0  0  0  0  0  0  0  0  0
   57.9690   30.8790   48.9260 H   0  0  0  0  0  0  0  0  0  0  0  0
   59.9117   33.1053   48.5620 H   0  0  0  0  0  0  0  0  0  0  0  0
   60.4346   35.4696   48.0021 H   0  0  0  0  0  0  0  0  0  0  0  0
   59.8433   36.3813   45.7633 H   0  0  0  0  0  0  0  0  0  0  0  0
   58.7987   34.9168   44.0524 H   0  0  0  0  0  0  0  0  0  0  0  0
   58.1534   33.8152   42.8787 H   0  0  0  0  0  0  0  0  0  0  0  0
   59.1506   32.3900   42.4305 H   0  0  0  0  0  0  0  0  0  0  0  0
   57.3585   32.2680   42.4305 H   0  0  0  0  0  0  0  0  0  0  0  0
   56.6980   30.7018   42.8543 H   0  0  0  0  0  0  0  0  0  0  0  0
   56.0208   28.3895   43.4211 H   0  0  0  0  0  0  0  0  0  0  0  0
   56.7894   27.3385   45.5321 H   0  0  0  0  0  0  0  0  0  0  0  0
   59.7154   27.4931   48.4873 H   0  0  0  0  0  0  0  0  0  0  0  0
   58.6443   26.4957   47.4280 H   0  0  0  0  0  0  0  0  0  0  0  0
   61.2296   27.6027   46.8245 H   0  0  0  0  0  0  0  0  0  0  0  0
   60.1551   26.6181   45.7745 H   0  0  0  0  0  0  0  0  0  0  0  0
   60.0155   28.4089   45.7745 H   0  0  0  0  0  0  0  0  0  0  0  0
  1  2  1  0
  2  3  1  0
  3  4  1  0
  4  5  1  0
  5  6  1  0
  6  7  1  0
  7  8  1  0
  8  9  2  0
  9 10  1  0
 10 11  2  0
 11 12  1  0
 12 13  2  0
 13 14  1  0
 14 15  2  0
 15 16  1  0
 15 17  1  0
 17 18  2  0
 18 19  1  0
 19 20  2  0
 20 21  1  0
 21 22  1  0
 22 23  1  0
 23 24  1  0
 21 25  2  0
 25  8  1  0
 14  9  1  0
 25 17  1  0
  1 26  1  0
  1 27  1  0
  1 28  1  0
  2 29  1  0
  2 30  1  0
  4 31  1  0
  5 32  1  0
  5 33  1  0
  6 34  1  0
  6 35  1  0
  7 36  1  0
 10 37  1  0
 11 38  1  0
 12 39  1  0
 13 40  1  0
 16 41  1  0
 16 42  1  0
 16 43  1  0
 18 44  1  0
 19 45  1  0
 20 46  1  0
 23 47  1  0
 23 48  1  0
 24 49  1  0
 24 50  1  0
 24 51  1  0
M  CHG  1  15   1
M  END
>  <UniqueID>  (22) 
21

>  <SMILES>  (22) 
CCONCCNc1c2ccccc2[n+](C)c2cccc(OCC)c12

>  <Energy>  (22) 
71.7958299534937

>  <Genealogy>  (22) 
CCONCCNc1c2ccccc2[n+](C)c2cccc(OCC)c12 (3D coordinates assigned)
CCONCCNc1c2ccccc2[n+](C)c2cccc(OCC)c12 (optimized conformer: 71.7958299534937 kcal/mol)

>  <smiles>  (22) 
CCONCCNc1c2ccccc2[n+](C)c2cccc(OCC)c12

>  <score_type>  (22) 
oracle

>  <origin>  (22) 
adg

>  <m_score__min__energy>  (22) 
-5.4800000000000004

>  <m_primary>  (22) 
energy

$$$$
22:0
     RDKit          3D

 60 62  0  0  0  0  0  0  0  0999 V2000
   59.9020   34.9680   46.4100 C   0  0  0  0  0  0  0  0  0  0  0  0
   58.9840   34.4240   47.4940 C   0  0  0  0  0  0  0  0  0  0  0  0
   58.1440   33.4350   46.9370 O   0  0  0  0  0  0  0  0  0  0  0  0
   57.7730   33.7850   45.6160 C   0  0  0  0  0  0  0  0  0  0  0  0
   57.7770   32.5370   44.7180 C   0  0  0  0  0  0  0  0  0  0  0  0
   57.3290   31.3290   45.4290 N   0  0  0  0  0  0  0  0  0  0  0  0
   58.2370   30.1910   45.2290 C   0  0  0  0  0  0  0  0  0  0  0  0
   57.8740   29.0410   46.1800 C   0  0  0  0  0  0  0  0  0  0  0  0
   59.0280   28.6190   47.1040 C   0  0  0  0  0  0  0  0  0  0  0  0
   60.0960   29.7070   47.2710 C   0  0  0  0  0  0  0  0  0  0  0  0
   59.5040   30.9510   47.7650 N   0  0  0  0  0  0  0  0  0  0  0  0
   60.1480   31.7470   48.7730 C   0  0  0  0  0  0  0  0  0  0  0  0
   61.4200   32.2930   48.5310 C   0  0  0  0  0  0  0  0  0  0  0  0
   62.0610   33.0380   49.5560 C   0  0  0  0  0  0  0  0  0  0  0  0
   61.4720   33.1470   50.8030 N   0  0  0  0  0  0  0  0  0  0  0  0
   62.2360   33.7080   51.9390 C   0  0  0  0  0  0  0  0  0  0  0  0
   60.1560   32.7650   50.9850 C   0  0  0  0  0  0  0  0  0  0  0  0
   59.4390   33.0870   52.1680 C   0  0  0  0  0  0  0  0  0  0  0  0
   58.1150   32.6850   52.3390 C   0  0  0  0  0  0  0  0  0  0  0  0
   57.4660   31.9700   51.3400 C   0  0  0  0  0  0  0  0  0  0  0  0
   58.1350   31.6590   50.1600 C   0  0  0  0  0  0  0  0  0  0  0  0
   59.4770   32.0470   49.9670 C   0  0  0  0  0  0  0  0  0  0  0  0
   63.4320   33.6560   49.2940 C   0  0  0  0  0  0  0  0  0  0  0  0
   63.7480   33.8460   47.8120 C   0  0  0  0  0  0  0  0  0  0  0  0
   63.4890   32.5500   47.0620 C   0  0  0  0  0  0  0  0  0  0  0  0
   62.0040   32.2030   47.1280 C   0  0  0  0  0  0  0  0  0  0  0  0
   60.7591   35.4759   46.8762 H   0  0  0  0  0  0  0  0  0  0  0  0
   60.2633   34.1381   45.7849 H   0  0  0  0  0  0  0  0  0  0  0  0
   59.3475   35.6834   45.7849 H   0  0  0  0  0  0  0  0  0  0  0  0
   59.5880   33.9823   48.3003 H   0  0  0  0  0  0  0  0  0  0  0  0
   58.3720   35.2407   47.9045 H   0  0  0  0  0  0  0  0  0  0  0  0
   56.7641   34.2232   45.6254 H   0  0  0  0  0  0  0  0  0  0  0  0
   58.4945   34.5153   45.2209 H   0  0  0  0  0  0  0  0  0  0  0  0
   57.1050   32.7139   43.8653 H   0  0  0  0  0  0  0  0  0  0  0  0
   58.8125   32.3659   44.3886 H   0  0  0  0  0  0  0  0  0  0  0  0
   57.2520   31.5340   46.4530 H   0  0  0  0  0  0  0  0  0  0  0  0
   58.1553   29.8408   44.1894 H   0  0  0  0  0  0  0  0  0  0  0  0
   59.2667   30.5157   45.4394 H   0  0  0  0  0  0  0  0  0  0  0  0
   57.0272   29.3607   46.8050 H   0  0  0  0  0  0  0  0  0  0  0  0
   57.6270   28.1707   45.5543 H   0  0  0  0  0  0  0  0  0  0  0  0
   58.6136   28.3807   48.0947 H   0  0  0  0  0  0  0  0  0  0  0  0
   59.5167   27.7491   46.6409 H   0  0  0  0  0  0  0  0  0  0  0  0
   60.8543   29.3597   47.9882 H   0  0  0  0  0  0  0  0  0  0  0  0
   60.5543   29.9020   46.2902 H   0  0  0  0  0  0  0  0  0  0  0  0
   58.6630   31.3420   47.2820 H   0  0  0  0  0  0  0  0  0  0  0  0
   61.7835   33.3757   52.8850 H   0  0  0  0  0  0  0  0  0  0  0  0
   63.2779   33.3588   51.8883 H   0  0  0  0  0  0  0  0  0  0  0  0
   62.2147   34.8066   51.8883 H   0  0  0  0  0  0  0  0  0  0  0  0
   59.9364   33.6630   52.9623 H   0  0  0  0  0  0  0  0  0  0  0  0
   57.5822   32.9349   53.2684 H   0  0  0  0  0  0  0  0  0  0  0  0
   56.4233   31.6497   51.4818 H   0  0  0  0  0  0  0  0  0  0  0  0
   57.6107   31.1038   49.3683 H   0  0  0  0  0  0  0  0  0  0  0  0
   63.4691   34.6393   49.7856 H   0  0  0  0  0  0  0  0  0  0  0  0
   64.1810   32.9571   49.6948 H   0  0  0  0  0  0  0  0  0  0  0  0
   63.1079   34.6405   47.4007 H   0  0  0  0  0  0  0  0  0  0  0  0
   64.8054   34.1271   47.6985 H   0  0  0  0  0  0  0  0  0  0  0  0
   63.7897   32.6700   46.0107 H   0  0  0  0  0  0  0  0  0  0  0  0
   64.0724   31.7399   47.5240 H   0  0  0  0  0  0  0  0  0  0  0  0
   61.4547   32.8992   46.4771 H   0  0  0  0  0  0  0  0  0  0  0  0
   61.9018   31.1574   46.8020 H   0  0  0  0  0  0  0  0  0  0  0  0
  1  2  1  0
  2  3  1  0
  3  4  1  0
  4  5  1  0
  5  6  1  0
  6  7  1  0
  7  8  1  0
  8  9  1  0
  9 10  1  0
 10 11  1  0
 11 12  1  0
 12 13  2  0
 13 14  1  0
 14 15  2  0
 15 16  1  0
 15 17  1  0
 17 18  2  0
 18 19  1  0
 19 20  2  0
 20 21  1  0
 21 22  2  0
 14 23  1  0
 23 24  1  0
 24 25  1  0
 25 26  1  0
 22 12  1  0
 26 13  1  0
 22 17  1  0
  1 27  1  0
  1 28  1  0
  1 29  1  0
  2 30  1  0
  2 31  1  0
  4 32  1  0
  4 33  1  0
  5 34  1  0
  5 35  1  0
  6 36  1  0
  7 37  1  0
  7 38  1  0
  8 39  1  0
  8 40  1  0
  9 41  1  0
  9 42  1  0
 10 43  1  0
 10 44  1  0
 11 45  1  0
 16 46  1  0
 16 47  1  0
 16 48  1  0
 18 49  1  0
 19 50  1  0
 20 51  1  0
 21 52  1  0
 23 53  1  0
 23 54  1  0
 24 55  1  0
 24 56  1  0
 25 57  1  0
 25 58  1  0
 26 59  1  0
 26 60  1  0
M  CHG  1  15   1
M  END
>  <UniqueID>  (23) 
22

>  <SMILES>  (23) 
CCOCCNCCCCNc1c2c([n+](C)c3ccccc13)CCCC2

>  <Energy>  (23) 
74.45254118853103

>  <Genealogy>  (23) 
CCOCCNCCCCNc1c2c([n+](C)c3ccccc13)CCCC2 (3D coordinates assigned)
CCOCCNCCCCNc1c2c([n+](C)c3ccccc13)CCCC2 (nonaromatic ring conformer: 74.45254118853103 kcal/mol)

>  <smiles>  (23) 
CCOCCNCCCCNc1c2c([n+](C)c3ccccc13)CCCC2

>  <score_type>  (23) 
oracle

>  <origin>  (23) 
adg

>  <m_score__min__energy>  (23) 
-6.2400000000000002

>  <m_primary>  (23) 
energy

$$$$
23:0
     RDKit          3D

 65 68  0  0  0  0  0  0  0  0999 V2000
   56.7830   30.1050   44.0390 C   0  0  0  0  0  0  0  0  0  0  0  0
   57.4930   30.5050   45.3270 C   0  0  0  0  0  0  0  0  0  0  0  0
   58.0540   29.3160   45.9800 N   0  0  0  0  0  0  0  0  0  0  0  0
   58.9570   28.5840   45.0790 C   0  0  0  0  0  0  0  0  0  0  0  0
   60.3980   28.6450   45.6040 C   0  0  0  0  0  0  0  0  0  0  0  0
   60.7790   30.0560   46.0720 C   0  0  0  0  0  0  0  0  0  0  0  0
   60.5980   30.1940   47.4700 O   0  0  0  0  0  0  0  0  0  0  0  0
   60.7700   28.9510   48.1190 C   0  0  0  0  0  0  0  0  0  0  0  0
   59.4660   28.5570   48.8020 C   0  0  0  0  0  0  0  0  0  0  0  0
   58.6940   29.7180   49.0340 O   0  0  0  0  0  0  0  0  0  0  0  0
   58.4730   29.9050   50.4190 C   0  0  0  0  0  0  0  0  0  0  0  0
   59.7630   30.3090   51.1530 C   0  0  0  0  0  0  0  0  0  0  0  0
   60.0030   31.7470   51.0400 N   0  0  0  0  0  0  0  0  0  0  0  0
   60.7010   32.3440   49.9320 C   0  0  0  0  0  0  0  0  0  0  0  0
   60.0120   32.7870   48.7990 C   0  0  0  0  0  0  0  0  0  0  0  0
   60.6940   33.3120   47.7150 C   0  0  0  0  0  0  0  0  0  0  0  0
   62.0660   33.3240   47.6560 N   0  0  0  0  0  0  0  0  0  0  0  0
   62.7490   33.5750   46.3750 C   0  0  0  0  0  0  0  0  0  0  0  0
   62.7810   33.0150   48.8020 C   0  0  0  0  0  0  0  0  0  0  0  0
   64.1780   33.2270   48.8860 C   0  0  0  0  0  0  0  0  0  0  0  0
   64.8930   32.8600   50.0260 C   0  0  0  0  0  0  0  0  0  0  0  0
   64.2380   32.2850   51.1100 C   0  0  0  0  0  0  0  0  0  0  0  0
   62.8600   32.0960   51.0760 C   0  0  0  0  0  0  0  0  0  0  0  0
   62.1080   32.4740   49.9440 C   0  0  0  0  0  0  0  0  0  0  0  0
   59.7040   33.6710   46.6900 C   0  0  0  0  0  0  0  0  0  0  0  0
   59.8150   34.4320   45.5170 C   0  0  0  0  0  0  0  0  0  0  0  0
   58.6580   34.6790   44.7610 C   0  0  0  0  0  0  0  0  0  0  0  0
   57.4080   34.2120   45.2010 C   0  0  0  0  0  0  0  0  0  0  0  0
   57.3020   33.5150   46.4120 C   0  0  0  0  0  0  0  0  0  0  0  0
   58.4620   33.2640   47.1460 C   0  0  0  0  0  0  0  0  0  0  0  0
   58.5390   32.6670   48.5130 C   0  0  0  0  0  0  0  0  0  0  0  0
   55.8486   29.5786   44.2837 H   0  0  0  0  0  0  0  0  0  0  0  0
   56.5531   31.0064   43.4519 H   0  0  0  0  0  0  0  0  0  0  0  0
   57.4348   29.4414   43.4519 H   0  0  0  0  0  0  0  0  0  0  0  0
   58.3049   31.2090   45.0921 H   0  0  0  0  0  0  0  0  0  0  0  0
   56.7702   30.9826   46.0049 H   0  0  0  0  0  0  0  0  0  0  0  0
   58.6210   29.6450   46.7990 H   0  0  0  0  0  0  0  0  0  0  0  0
   58.6367   27.5334   45.0193 H   0  0  0  0  0  0  0  0  0  0  0  0
   58.9197   29.0466   44.0817 H   0  0  0  0  0  0  0  0  0  0  0  0
   60.4971   27.9507   46.4514 H   0  0  0  0  0  0  0  0  0  0  0  0
   61.0721   28.3660   44.7808 H   0  0  0  0  0  0  0  0  0  0  0  0
   61.8345   30.2437   45.8258 H   0  0  0  0  0  0  0  0  0  0  0  0
   60.1289   30.7817   45.5614 H   0  0  0  0  0  0  0  0  0  0  0  0
   61.0438   28.1845   47.3791 H   0  0  0  0  0  0  0  0  0  0  0  0
   61.5697   29.0339   48.8697 H   0  0  0  0  0  0  0  0  0  0  0  0
   58.9059   27.8659   48.1550 H   0  0  0  0  0  0  0  0  0  0  0  0
   59.6851   28.0613   49.7592 H   0  0  0  0  0  0  0  0  0  0  0  0
   57.7221   30.6971   50.5562 H   0  0  0  0  0  0  0  0  0  0  0  0
   58.1230   28.9516   50.8416 H   0  0  0  0  0  0  0  0  0  0  0  0
   59.6702   30.0424   52.2162 H   0  0  0  0  0  0  0  0  0  0  0  0
   60.6086   29.7759   50.6938 H   0  0  0  0  0  0  0  0  0  0  0  0
   59.7020   32.3680   51.8250 H   0  0  0  0  0  0  0  0  0  0  0  0
   63.7654   33.9485   46.5684 H   0  0  0  0  0  0  0  0  0  0  0  0
   62.8056   32.6389   45.8001 H   0  0  0  0  0  0  0  0  0  0  0  0
   62.1860   34.3250   45.8001 H   0  0  0  0  0  0  0  0  0  0  0  0
   64.7078   33.6882   48.0394 H   0  0  0  0  0  0  0  0  0  0  0  0
   65.9796   33.0260   50.0680 H   0  0  0  0  0  0  0  0  0  0  0  0
   64.8115   31.9786   51.9973 H   0  0  0  0  0  0  0  0  0  0  0  0
   62.3512   31.6467   51.9416 H   0  0  0  0  0  0  0  0  0  0  0  0
   60.7898   34.8277   45.1956 H   0  0  0  0  0  0  0  0  0  0  0  0
   58.7306   35.2415   43.8185 H   0  0  0  0  0  0  0  0  0  0  0  0
   56.5097   34.3941   44.5929 H   0  0  0  0  0  0  0  0  0  0  0  0
   56.3227   33.1721   46.7772 H   0  0  0  0  0  0  0  0  0  0  0  0
   57.9395   33.2381   49.2371 H   0  0  0  0  0  0  0  0  0  0  0  0
   58.1468   31.6416   48.5817 H   0  0  0  0  0  0  0  0  0  0  0  0
  1  2  1  0
  2  3  1  0
  3  4  1  0
  4  5  1  0
  5  6  1  0
  6  7  1  0
  7  8  1  0
  8  9  1  0
  9 10  1  0
 10 11  1  0
 11 12  1  0
 12 13  1  0
 13 14  1  0
 14 15  2  0
 15 16  1  0
 16 17  2  0
 17 18  1  0
 17 19  1  0
 19 20  2  0
 20 21  1  0
 21 22  2  0
 22 23  1  0
 23 24  2  0
 16 25  1  0
 25 26  2  0
 26 27  1  0
 27 28  2  0
 28 29  1  0
 29 30  2  0
 30 31  1  0
 24 14  1  0
 30 25  1  0
 31 15  1  0
 24 19  1  0
  1 32  1  0
  1 33  1  0
  1 34  1  0
  2 35  1  0
  2 36  1  0
  3 37  1  0
  4 38  1  0
  4 39  1  0
  5 40  1  0
  5 41  1  0
  6 42  1  0
  6 43  1  0
  8 44  1  0
  8 45  1  0
  9 46  1  0
  9 47  1  0
 11 48  1  0
 11 49  1  0
 12 50  1  0
 12 51  1  0
 13 52  1  0
 18 53  1  0
 18 54  1  0
 18 55  1  0
 20 56  1  0
 21 57  1  0
 22 58  1  0
 23 59  1  0
 26 60  1  0
 27 61  1  0
 28 62  1  0
 29 63  1  0
 31 64  1  0
 31 65  1  0
M  CHG  1  17   1
M  END
>  <UniqueID>  (24) 
23

>  <SMILES>  (24) 
CCNCCCOCCOCCNc1c2c([n+](C)c3ccccc13)-c1ccccc1C2

>  <Energy>  (24) 
104.89900808425898

>  <Genealogy>  (24) 
CCNCCCOCCOCCNc1c2c([n+](C)c3ccccc13)-c1ccccc1C2 (3D coordinates assigned)
CCNCCCOCCOCCNc1c2c([n+](C)c3ccccc13)-c1ccccc1C2 (nonaromatic ring conformer: 104.89900808425898 kcal/mol)

>  <smiles>  (24) 
CCNCCCOCCOCCNc1c2c([n+](C)c3ccccc13)-c1ccccc1C2

>  <score_type>  (24) 
oracle

>  <origin>  (24) 
adg

>  <m_score__min__energy>  (24) 
-6.9699999999999998

>  <m_primary>  (24) 
energy

$$$$
24:0
     RDKit          3D

 62 64  0  0  0  0  0  0  0  0999 V2000
   62.4810   31.5860   50.9580 C   0  0  0  0  0  0  0  0  0  0  0  0
   63.3280   31.5630   49.6820 C   0  0  0  0  0  0  0  0  0  0  0  0
   63.8910   32.8800   49.2820 N   0  0  0  0  0  0  0  0  0  0  0  0
   65.2880   33.0970   49.7650 C   0  0  0  0  0  0  0  0  0  0  0  0
   65.9450   31.9050   50.4830 C   0  0  0  0  0  0  0  0  0  0  0  0
   63.6560   33.1800   47.8440 C   0  0  0  0  0  0  0  0  0  0  0  0
   62.2900   33.8380   47.6040 C   0  0  0  0  0  0  0  0  0  0  0  0
   61.6240   33.9810   48.8400 O   0  0  0  0  0  0  0  0  0  0  0  0
   60.2620   34.3080   48.6350 C   0  0  0  0  0  0  0  0  0  0  0  0
   59.6920   33.5290   47.4630 C   0  0  0  0  0  0  0  0  0  0  0  0
   59.1540   34.2730   46.4040 C   0  0  0  0  0  0  0  0  0  0  0  0
   58.6000   33.6570   45.3320 N   0  0  0  0  0  0  0  0  0  0  0  0
   58.5300   32.3060   45.2290 C   0  0  0  0  0  0  0  0  0  0  0  0
   57.9040   31.7370   44.0740 N   0  0  0  0  0  0  0  0  0  0  0  0
   56.8430   30.7520   44.1590 C   0  0  0  0  0  0  0  0  0  0  0  0
   56.4680   30.4440   42.7160 C   0  0  0  0  0  0  0  0  0  0  0  0
   57.0210   31.5990   41.8830 C   0  0  0  0  0  0  0  0  0  0  0  0
   58.0940   32.2640   42.7380 C   0  0  0  0  0  0  0  0  0  0  0  0
   59.0510   31.4950   46.2570 C   0  0  0  0  0  0  0  0  0  0  0  0
   59.0110   30.0920   46.1610 C   0  0  0  0  0  0  0  0  0  0  0  0
   59.5030   29.2840   47.1990 C   0  0  0  0  0  0  0  0  0  0  0  0
   59.4600   27.8820   47.1360 O   0  0  0  0  0  0  0  0  0  0  0  0
   60.3350   27.0790   46.3500 C   0  0  0  0  0  0  0  0  0  0  0  0
   60.0530   29.8790   48.3390 C   0  0  0  0  0  0  0  0  0  0  0  0
   60.5160   29.0390   49.3650 O   0  0  0  0  0  0  0  0  0  0  0  0
   60.0150   29.0350   50.6990 C   0  0  0  0  0  0  0  0  0  0  0  0
   60.1250   31.2810   48.4310 C   0  0  0  0  0  0  0  0  0  0  0  0
   59.6330   32.1090   47.3980 C   0  0  0  0  0  0  0  0  0  0  0  0
   63.1419   31.5681   51.8372 H   0  0  0  0  0  0  0  0  0  0  0  0
   61.8708   32.5010   50.9766 H   0  0  0  0  0  0  0  0  0  0  0  0
   61.8220   30.7054   50.9766 H   0  0  0  0  0  0  0  0  0  0  0  0
   64.1650   30.8669   49.8397 H   0  0  0  0  0  0  0  0  0  0  0  0
   62.6539   31.2552   48.8690 H   0  0  0  0  0  0  0  0  0  0  0  0
   63.3050   33.5670   49.8160 H   0  0  0  0  0  0  0  0  0  0  0  0
   65.9101   33.3499   48.8938 H   0  0  0  0  0  0  0  0  0  0  0  0
   65.2214   33.8969   50.5171 H   0  0  0  0  0  0  0  0  0  0  0  0
   65.8680   32.0448   51.5714 H   0  0  0  0  0  0  0  0  0  0  0  0
   65.4318   30.9755   50.1954 H   0  0  0  0  0  0  0  0  0  0  0  0
   67.0049   31.8426   50.1954 H   0  0  0  0  0  0  0  0  0  0  0  0
   64.4442   33.8613   47.4910 H   0  0  0  0  0  0  0  0  0  0  0  0
   63.6733   32.2278   47.2935 H   0  0  0  0  0  0  0  0  0  0  0  0
   62.4331   34.8277   47.1458 H   0  0  0  0  0  0  0  0  0  0  0  0
   61.6893   33.2105   46.9292 H   0  0  0  0  0  0  0  0  0  0  0  0
   59.6914   34.0628   49.5429 H   0  0  0  0  0  0  0  0  0  0  0  0
   60.1864   35.3830   48.4145 H   0  0  0  0  0  0  0  0  0  0  0  0
   59.1819   35.3719   46.4438 H   0  0  0  0  0  0  0  0  0  0  0  0
   57.1995   29.8439   44.6672 H   0  0  0  0  0  0  0  0  0  0  0  0
   55.9835   31.1222   44.7372 H   0  0  0  0  0  0  0  0  0  0  0  0
   56.9197   29.4927   42.3982 H   0  0  0  0  0  0  0  0  0  0  0  0
   55.3793   30.3440   42.5946 H   0  0  0  0  0  0  0  0  0  0  0  0
   57.4592   31.2194   40.9482 H   0  0  0  0  0  0  0  0  0  0  0  0
   56.2286   32.3109   41.6087 H   0  0  0  0  0  0  0  0  0  0  0  0
   59.0966   32.0101   42.3633 H   0  0  0  0  0  0  0  0  0  0  0  0
   58.0126   33.3608   42.7159 H   0  0  0  0  0  0  0  0  0  0  0  0
   58.5887   29.6215   45.2608 H   0  0  0  0  0  0  0  0  0  0  0  0
   60.9820   26.4853   47.0125 H   0  0  0  0  0  0  0  0  0  0  0  0
   59.7421   26.4040   45.7152 H   0  0  0  0  0  0  0  0  0  0  0  0
   60.9567   27.7275   45.7152 H   0  0  0  0  0  0  0  0  0  0  0  0
   60.8569   29.0417   51.4069 H   0  0  0  0  0  0  0  0  0  0  0  0
   59.3935   29.9282   50.8599 H   0  0  0  0  0  0  0  0  0  0  0  0
   59.4078   28.1320   50.8599 H   0  0  0  0  0  0  0  0  0  0  0  0
   60.5729   31.7409   49.3242 H   0  0  0  0  0  0  0  0  0  0  0  0
  1  2  1  0
  2  3  1  0
  3  4  1  0
  4  5  1  0
  3  6  1  0
  6  7  1  0
  7  8  1  0
  8  9  1  0
  9 10  1  0
 10 11  2  0
 11 12  1  0
 12 13  2  0
 13 14  1  0
 14 15  1  0
 15 16  1  0
 16 17  1  0
 17 18  1  0
 13 19  1  0
 19 20  2  0
 20 21  1  0
 21 22  1  0
 22 23  1  0
 21 24  2  0
 24 25  1  0
 25 26  1  0
 24 27  1  0
 27 28  2  0
 28 10  1  0
 18 14  1  0
 28 19  1  0
  1 29  1  0
  1 30  1  0
  1 31  1  0
  2 32  1  0
  2 33  1  0
  3 34  1  0
  4 35  1  0
  4 36  1  0
  5 37  1  0
  5 38  1  0
  5 39  1  0
  6 40  1  0
  6 41  1  0
  7 42  1  0
  7 43  1  0
  9 44  1  0
  9 45  1  0
 11 46  1  0
 15 47  1  0
 15 48  1  0
 16 49  1  0
 16 50  1  0
 17 51  1  0
 17 52  1  0
 18 53  1  0
 18 54  1  0
 20 55  1  0
 23 56  1  0
 23 57  1  0
 23 58  1  0
 26 59  1  0
 26 60  1  0
 26 61  1  0
 27 62  1  0
M  CHG  1   3   1
M  END
>  <UniqueID>  (25) 
24

>  <SMILES>  (25) 
CC[NH+](CC)CCOCc1cnc(N2CCCC2)c2cc(OC)c(OC)cc12

>  <Energy>  (25) 
82.04416570891416

>  <Genealogy>  (25) 
CC[NH+](CC)CCOCc1cnc(N2CCCC2)c2cc(OC)c(OC)cc12 (protonated)
CC[NH+](CC)CCOCc1cnc(N2CCCC2)c2cc(OC)c(OC)cc12 (3D coordinates assigned)
CC[NH+](CC)CCOCc1cnc(N2CCCC2)c2cc(OC)c(OC)cc12 (nonaromatic ring conformer: 82.04416570891416 kcal/mol)

>  <smiles>  (25) 
CCN(CC)CCOCc1cnc(N2CCCC2)c2cc(OC)c(OC)cc12

>  <score_type>  (25) 
oracle

>  <origin>  (25) 
adg

>  <m_score__min__energy>  (25) 
-4.9199999999999999

>  <m_primary>  (25) 
energy

$$$$
25:0
     RDKit          3D

 58 61  0  0  0  0  0  0  0  0999 V2000
   56.9990   31.2370   42.2400 C   0  0  0  0  0  0  0  0  0  0  0  0
   56.9570   30.7990   43.7020 C   0  0  0  0  0  0  0  0  0  0  0  0
   55.6270   30.1180   44.0440 C   0  0  0  0  0  0  0  0  0  0  0  0
   55.8410   29.1150   45.0960 N   0  0  0  0  0  0  0  0  0  0  0  0
   57.0360   28.3130   44.8110 C   0  0  0  0  0  0  0  0  0  0  0  0
   57.2700   27.2990   45.9350 C   0  0  0  0  0  0  0  0  0  0  0  0
   57.9750   27.9040   47.0050 O   0  0  0  0  0  0  0  0  0  0  0  0
   59.0340   27.0830   47.4600 C   0  0  0  0  0  0  0  0  0  0  0  0
   59.9720   27.8820   48.3760 C   0  0  0  0  0  0  0  0  0  0  0  0
   59.3550   29.1280   48.8720 N   0  0  0  0  0  0  0  0  0  0  0  0
   60.2270   30.2770   48.6950 C   0  0  0  0  0  0  0  0  0  0  0  0
   59.8860   31.2760   47.7720 C   0  0  0  0  0  0  0  0  0  0  0  0
   60.6970   32.3780   47.5600 C   0  0  0  0  0  0  0  0  0  0  0  0
   61.9290   32.4900   48.1480 N   0  0  0  0  0  0  0  0  0  0  0  0
   62.8990   33.4740   47.6360 C   0  0  0  0  0  0  0  0  0  0  0  0
   62.2570   31.6130   49.1680 C   0  0  0  0  0  0  0  0  0  0  0  0
   63.4000   31.8300   49.9740 C   0  0  0  0  0  0  0  0  0  0  0  0
   63.7600   30.9280   50.9730 C   0  0  0  0  0  0  0  0  0  0  0  0
   62.9870   29.7990   51.2070 C   0  0  0  0  0  0  0  0  0  0  0  0
   61.8320   29.5720   50.4630 C   0  0  0  0  0  0  0  0  0  0  0  0
   61.4280   30.4710   49.4450 C   0  0  0  0  0  0  0  0  0  0  0  0
   60.0280   33.2720   46.5810 C   0  0  0  0  0  0  0  0  0  0  0  0
   60.3010   34.5900   46.1850 C   0  0  0  0  0  0  0  0  0  0  0  0
   59.4190   35.2240   45.2930 C   0  0  0  0  0  0  0  0  0  0  0  0
   58.2610   34.5630   44.8420 C   0  0  0  0  0  0  0  0  0  0  0  0
   57.9620   33.2700   45.2980 C   0  0  0  0  0  0  0  0  0  0  0  0
   58.8590   32.6530   46.1710 C   0  0  0  0  0  0  0  0  0  0  0  0
   58.7220   31.3950   46.8830 C   0  0  0  0  0  0  0  0  0  0  0  0
   57.7690   30.5830   46.7590 O   0  0  0  0  0  0  0  0  0  0  0  0
   57.1039   32.3307   42.1878 H   0  0  0  0  0  0  0  0  0  0  0  0
   57.8557   30.7622   41.7394 H   0  0  0  0  0  0  0  0  0  0  0  0
   56.0676   30.9336   41.7394 H   0  0  0  0  0  0  0  0  0  0  0  0
   57.7791   30.0921   43.8876 H   0  0  0  0  0  0  0  0  0  0  0  0
   57.0607   31.6931   44.3343 H   0  0  0  0  0  0  0  0  0  0  0  0
   54.9101   30.8731   44.3989 H   0  0  0  0  0  0  0  0  0  0  0  0
   55.2286   29.6244   43.1453 H   0  0  0  0  0  0  0  0  0  0  0  0
   56.0010   29.6310   45.9940 H   0  0  0  0  0  0  0  0  0  0  0  0
   56.8962   27.7769   43.8607 H   0  0  0  0  0  0  0  0  0  0  0  0
   57.9083   28.9794   44.7401 H   0  0  0  0  0  0  0  0  0  0  0  0
   56.2995   26.9328   46.3011 H   0  0  0  0  0  0  0  0  0  0  0  0
   57.8655   26.4614   45.5427 H   0  0  0  0  0  0  0  0  0  0  0  0
   58.6186   26.2319   48.0195 H   0  0  0  0  0  0  0  0  0  0  0  0
   59.6044   26.7210   46.5919 H   0  0  0  0  0  0  0  0  0  0  0  0
   60.2411   27.2545   49.2384 H   0  0  0  0  0  0  0  0  0  0  0  0
   60.8571   28.1606   47.7853 H   0  0  0  0  0  0  0  0  0  0  0  0
   59.1580   29.0150   49.8920 H   0  0  0  0  0  0  0  0  0  0  0  0
   58.4120   29.2660   48.4530 H   0  0  0  0  0  0  0  0  0  0  0  0
   63.3933   33.9755   48.4811 H   0  0  0  0  0  0  0  0  0  0  0  0
   63.6535   32.9600   47.0224 H   0  0  0  0  0  0  0  0  0  0  0  0
   62.3743   34.2211   47.0224 H   0  0  0  0  0  0  0  0  0  0  0  0
   64.0151   32.7268   49.8087 H   0  0  0  0  0  0  0  0  0  0  0  0
   64.6599   31.1112   51.5784 H   0  0  0  0  0  0  0  0  0  0  0  0
   63.2882   29.0805   51.9836 H   0  0  0  0  0  0  0  0  0  0  0  0
   61.2229   28.6795   50.6691 H   0  0  0  0  0  0  0  0  0  0  0  0
   61.1884   35.1171   46.5654 H   0  0  0  0  0  0  0  0  0  0  0  0
   59.6354   36.2447   44.9446 H   0  0  0  0  0  0  0  0  0  0  0  0
   57.5878   35.0619   44.1293 H   0  0  0  0  0  0  0  0  0  0  0  0
   57.0444   32.7561   44.9757 H   0  0  0  0  0  0  0  0  0  0  0  0
  1  2  1  0
  2  3  1  0
  3  4  1  0
  4  5  1  0
  5  6  1  0
  6  7  1  0
  7  8  1  0
  8  9  1  0
  9 10  1  0
 10 11  1  0
 11 12  2  0
 12 13  1  0
 13 14  2  0
 14 15  1  0
 14 16  1  0
 16 17  2  0
 17 18  1  0
 18 19  2  0
 19 20  1  0
 20 21  2  0
 13 22  1  0
 22 23  2  0
 23 24  1  0
 24 25  2  0
 25 26  1  0
 26 27  2  0
 27 28  1  0
 28 29  2  0
 21 11  1  0
 27 22  1  0
 28 12  1  0
 21 16  1  0
  1 30  1  0
  1 31  1  0
  1 32  1  0
  2 33  1  0
  2 34  1  0
  3 35  1  0
  3 36  1  0
  4 37  1  0
  5 38  1  0
  5 39  1  0
  6 40  1  0
  6 41  1  0
  8 42  1  0
  8 43  1  0
  9 44  1  0
  9 45  1  0
 10 46  1  0
 10 47  1  0
 15 48  1  0
 15 49  1  0
 15 50  1  0
 17 51  1  0
 18 52  1  0
 19 53  1  0
 20 54  1  0
 23 55  1  0
 24 56  1  0
 25 57  1  0
 26 58  1  0
M  CHG  2  10   1  14   1
M  END
>  <UniqueID>  (26) 
25

>  <SMILES>  (26) 
CCCNCCOCC[NH2+]c1c2c([n+](C)c3ccccc13)-c1ccccc1C2=O

>  <Energy>  (26) 
110.0747825394845

>  <Genealogy>  (26) 
CCCNCCOCC[NH2+]c1c2c([n+](C)c3ccccc13)-c1ccccc1C2=O (protonated)
CCCNCCOCC[NH2+]c1c2c([n+](C)c3ccccc13)-c1ccccc1C2=O (3D coordinates assigned)
CCCNCCOCC[NH2+]c1c2c([n+](C)c3ccccc13)-c1ccccc1C2=O (nonaromatic ring conformer: 110.0747825394845 kcal/mol)

>  <smiles>  (26) 
CCCNCCOCCNc1c2c([n+](C)c3ccccc13)-c1ccccc1C2=O

>  <score_type>  (26) 
oracle

>  <origin>  (26) 
adg

>  <m_score__min__energy>  (26) 
-5.0599999999999996

>  <m_primary>  (26) 
energy

$$$$
26:0
     RDKit          3D

 38 38  0  0  0  0  0  0  0  0999 V2000
   59.2470   34.5730   47.4110 C   0  0  0  0  0  0  0  0  0  0  0  0
   59.6400   35.1010   46.0320 C   0  0  0  0  0  0  0  0  0  0  0  0
   58.8160   34.4750   44.8930 C   0  0  0  0  0  0  0  0  0  0  0  0
   57.3280   34.2190   45.2220 C   0  0  0  0  0  0  0  0  0  0  0  0
   57.0000   32.8110   45.4970 N   0  0  0  0  0  0  0  0  0  0  0  0
   58.1800   31.9380   45.4790 C   0  0  0  0  0  0  0  0  0  0  0  0
   57.7500   30.4680   45.3550 C   0  0  2  0  0  0  0  0  0  0  0  0
   58.7670   29.6400   44.5240 C   0  0  0  0  0  0  0  0  0  0  0  0
   58.1140   28.4840   43.8830 N   0  0  0  0  0  0  0  0  0  0  0  0
   57.6870   27.4700   44.8750 C   0  0  0  0  0  0  0  0  0  0  0  0
   58.8300   27.1590   45.8390 C   0  0  0  0  0  0  0  0  0  0  0  0
   56.9990   28.9240   43.0080 C   0  0  0  0  0  0  0  0  0  0  0  0
   56.3670   30.2510   43.4710 C   0  0  0  0  0  0  0  0  0  0  0  0
   56.4110   30.3680   44.8780 O   0  0  0  0  0  0  0  0  0  0  0  0
   59.7115   35.1971   48.1886 H   0  0  0  0  0  0  0  0  0  0  0  0
   58.1528   34.6072   47.5185 H   0  0  0  0  0  0  0  0  0  0  0  0
   59.5938   33.5346   47.5185 H   0  0  0  0  0  0  0  0  0  0  0  0
   59.4882   36.1904   46.0171 H   0  0  0  0  0  0  0  0  0  0  0  0
   60.6931   34.8317   45.8636 H   0  0  0  0  0  0  0  0  0  0  0  0
   58.8616   35.1526   44.0277 H   0  0  0  0  0  0  0  0  0  0  0  0
   59.2608   33.4874   44.7013 H   0  0  0  0  0  0  0  0  0  0  0  0
   57.0646   34.8133   46.1094 H   0  0  0  0  0  0  0  0  0  0  0  0
   56.7548   34.5062   44.3281 H   0  0  0  0  0  0  0  0  0  0  0  0
   56.2940   32.4680   44.8060 H   0  0  0  0  0  0  0  0  0  0  0  0
   58.8160   32.2042   44.6219 H   0  0  0  0  0  0  0  0  0  0  0  0
   58.7393   32.0707   46.4168 H   0  0  0  0  0  0  0  0  0  0  0  0
   57.7561   30.0188   46.3591 H   0  0  0  0  0  0  0  0  0  0  0  0
   59.2028   30.2834   43.7455 H   0  0  0  0  0  0  0  0  0  0  0  0
   59.5496   29.2674   45.2012 H   0  0  0  0  0  0  0  0  0  0  0  0
   56.8281   27.8569   45.4430 H   0  0  0  0  0  0  0  0  0  0  0  0
   57.4037   26.5482   44.3458 H   0  0  0  0  0  0  0  0  0  0  0  0
   58.4728   27.2562   46.8748 H   0  0  0  0  0  0  0  0  0  0  0  0
   59.1844   26.1318   45.6683 H   0  0  0  0  0  0  0  0  0  0  0  0
   59.6560   27.8650   45.6683 H   0  0  0  0  0  0  0  0  0  0  0  0
   57.3845   29.0556   41.9862 H   0  0  0  0  0  0  0  0  0  0  0  0
   56.2176   28.1510   43.0519 H   0  0  0  0  0  0  0  0  0  0  0  0
   56.9208   31.0891   43.0227 H   0  0  0  0  0  0  0  0  0  0  0  0
   55.3150   30.2693   43.1502 H   0  0  0  0  0  0  0  0  0  0  0  0
  1  2  1  0
  2  3  1  0
  3  4  1  0
  4  5  1  0
  5  6  1  0
  6  7  1  0
  7  8  1  0
  8  9  1  0
  9 10  1  0
 10 11  1  0
  9 12  1  0
 12 13  1  0
 13 14  1  0
 14  7  1  0
  1 15  1  0
  1 16  1  0
  1 17  1  0
  2 18  1  0
  2 19  1  0
  3 20  1  0
  3 21  1  0
  4 22  1  0
  4 23  1  0
  5 24  1  0
  6 25  1  0
  6 26  1  0
  7 27  1  1
  8 28  1  0
  8 29  1  0
 10 30  1  0
 10 31  1  0
 11 32  1  0
 11 33  1  0
 11 34  1  0
 12 35  1  0
 12 36  1  0
 13 37  1  0
 13 38  1  0
M  END
>  <UniqueID>  (27) 
26

>  <SMILES>  (27) 
CCCCNC[C@@H]1CN(CC)CCO1

>  <Energy>  (27) 
39.723406090824135

>  <Genealogy>  (27) 
CCCCNC[C@@H]1CN(CC)CCO1 (chirality)
CCCCNC[C@@H]1CN(CC)CCO1 (3D coordinates assigned)
CCCCNC[C@@H]1CN(CC)CCO1 (nonaromatic ring conformer: 39.723406090824135 kcal/mol)

>  <smiles>  (27) 
CCCCNCC1CN(CC)CCO1

>  <score_type>  (27) 
oracle

>  <origin>  (27) 
adg

>  <m_score__min__energy>  (27) 
-5.1200000000000001

>  <m_primary>  (27) 
energy

$$$$
27:0
     RDKit          3D

 38 40  0  0  0  0  0  0  0  0999 V2000
   57.1269   33.3059   45.6745 H   0  0  0  0  0  0  0  0  0  0  0  0
   58.1810   33.0450   45.8500 C   0  0  0  0  0  0  0  0  0  0  0  0
   59.0670   34.0480   45.9580 C   0  0  0  0  0  0  0  0  0  0  0  0
   58.9381   34.9272   45.3097 H   0  0  0  0  0  0  0  0  0  0  0  0
   60.2110   34.0360   46.9040 C   0  0  0  0  0  0  0  0  0  0  0  0
   61.5070   33.8620   46.3890 C   0  0  0  0  0  0  0  0  0  0  0  0
   61.6501   33.7325   45.3061 H   0  0  0  0  0  0  0  0  0  0  0  0
   62.6160   33.8520   47.2400 C   0  0  0  0  0  0  0  0  0  0  0  0
   63.6245   33.7046   46.8263 H   0  0  0  0  0  0  0  0  0  0  0  0
   62.4450   34.0290   48.6150 C   0  0  0  0  0  0  0  0  0  0  0  0
   63.5220   34.0230   49.4390 F   0  0  0  0  0  0  0  0  0  0  0  0
   61.1640   34.2210   49.1390 C   0  0  0  0  0  0  0  0  0  0  0  0
   61.0302   34.3663   50.2211 H   0  0  0  0  0  0  0  0  0  0  0  0
   60.0520   34.2290   48.2920 C   0  0  0  0  0  0  0  0  0  0  0  0
   59.0470   34.3868   48.7105 H   0  0  0  0  0  0  0  0  0  0  0  0
   58.5320   31.6100   45.9520 C   0  0  0  0  0  0  0  0  0  0  0  0
   57.5780   30.6970   45.6190 N   0  0  0  0  0  0  0  0  0  0  0  0
   57.7920   29.3550   45.6870 C   0  0  0  0  0  0  0  0  0  0  0  0
   56.7710   28.4610   45.3260 C   0  0  0  0  0  0  0  0  0  0  0  0
   55.5400   28.9890   44.8960 O   0  0  0  0  0  0  0  0  0  0  0  0
   55.3270   29.7360   43.6970 C   0  0  0  0  0  0  0  0  0  0  0  0
   55.1453   30.7896   43.9556 H   0  0  0  0  0  0  0  0  0  0  0  0
   54.4577   29.3167   43.1692 H   0  0  0  0  0  0  0  0  0  0  0  0
   56.5440   29.6480   42.7830 C   0  0  0  0  0  0  0  0  0  0  0  0
   57.4568   29.5820   43.3932 H   0  0  0  0  0  0  0  0  0  0  0  0
   56.4619   28.7535   42.1482 H   0  0  0  0  0  0  0  0  0  0  0  0
   56.5914   30.5451   42.1482 H   0  0  0  0  0  0  0  0  0  0  0  0
   57.0170   27.0750   45.4000 C   0  0  0  0  0  0  0  0  0  0  0  0
   56.2272   26.3643   45.1151 H   0  0  0  0  0  0  0  0  0  0  0  0
   58.2580   26.5970   45.8330 C   0  0  0  0  0  0  0  0  0  0  0  0
   58.4377   25.5132   45.8884 H   0  0  0  0  0  0  0  0  0  0  0  0
   59.2690   27.4870   46.1950 C   0  0  0  0  0  0  0  0  0  0  0  0
   60.2422   27.1049   46.5368 H   0  0  0  0  0  0  0  0  0  0  0  0
   59.0440   28.8690   46.1230 C   0  0  0  0  0  0  0  0  0  0  0  0
   60.0380   29.7850   46.4840 C   0  0  0  0  0  0  0  0  0  0  0  0
   61.0181   29.4250   46.8301 H   0  0  0  0  0  0  0  0  0  0  0  0
   59.7860   31.1560   46.4050 C   0  0  0  0  0  0  0  0  0  0  0  0
   60.5632   31.8783   46.6952 H   0  0  0  0  0  0  0  0  0  0  0  0
  1  2  1  0
  2  3  2  0
  3  4  1  0
  3  5  1  0
  5  6  2  0
  6  7  1  0
  6  8  1  0
  8  9  1  0
  8 10  2  0
 10 11  1  0
 10 12  1  0
 12 13  1  0
 12 14  2  0
 14 15  1  0
  2 16  1  0
 16 17  2  0
 17 18  1  0
 18 19  2  0
 19 20  1  0
 20 21  1  0
 21 22  1  0
 21 23  1  0
 21 24  1  0
 24 25  1  0
 24 26  1  0
 24 27  1  0
 19 28  1  0
 28 29  1  0
 28 30  2  0
 30 31  1  0
 30 32  1  0
 32 33  1  0
 32 34  2  0
 34 35  1  0
 35 36  1  0
 35 37  2  0
 37 38  1  0
 14  5  1  0
 37 16  1  0
 34 18  1  0
M  END
>  <UniqueID>  (28) 
27

>  <SMILES>  (28) 
CCOc1cccc2ccc(/C=C/c3ccc(F)cc3)nc12

>  <Energy>  (28) 
46.57654910850193

>  <Genealogy>  (28) 
CCOc1cccc2ccc(/C=C/c3ccc(F)cc3)nc12 (cis-trans isomerization)
CCOc1cccc2ccc(/C=C/c3ccc(F)cc3)nc12 (3D coordinates assigned)
CCOc1cccc2ccc(/C=C/c3ccc(F)cc3)nc12 (optimized conformer: 46.57654910850193 kcal/mol)

>  <smiles>  (28) 
CCOc1cccc2ccc(C=Cc3ccc(F)cc3)nc12

>  <score_type>  (28) 
oracle

>  <origin>  (28) 
adg

>  <m_score__min__energy>  (28) 
-8.0500000000000007

>  <m_primary>  (28) 
energy

$$$$
28:0
     RDKit          3D

 48 50  0  0  0  0  0  0  0  0999 V2000
   56.8230   23.4210   44.3480 C   0  0  0  0  0  0  0  0  0  0  0  0
   56.4770   24.3120   45.5450 C   0  0  0  0  0  0  0  0  0  0  0  0
   56.6800   23.5440   46.8560 C   0  0  0  0  0  0  0  0  0  0  0  0
   57.3030   25.5230   45.5360 N   0  0  0  0  0  0  0  0  0  0  0  0
   56.7810   26.8120   45.9010 C   0  0  0  0  0  0  0  0  0  0  0  0
   55.5320   26.9640   46.0010 O   0  0  0  0  0  0  0  0  0  0  0  0
   57.7240   28.0120   46.0530 C   0  0  1  0  0  0  0  0  0  0  0  0
   58.3550   27.9400   47.4320 C   0  0  0  0  0  0  0  0  0  0  0  0
   59.5640   27.0240   47.1840 C   0  0  0  0  0  0  0  0  0  0  0  0
   59.7900   26.9170   45.7860 O   0  0  0  0  0  0  0  0  0  0  0  0
   58.9950   27.9260   45.2210 C   0  0  1  0  0  0  0  0  0  0  0  0
   58.6980   27.7530   43.7260 C   0  0  0  0  0  0  0  0  0  0  0  0
   57.3890   28.4870   43.3350 C   0  0  0  0  0  0  0  0  0  0  0  0
   57.0720   29.6500   44.2090 N   0  0  0  0  0  0  0  0  0  0  0  0
   57.8890   30.8400   43.8810 C   0  0  0  0  0  0  0  0  0  0  0  0
   58.1610   31.6460   45.1240 C   0  0  0  0  0  0  0  0  0  0  0  0
   59.2520   31.3390   45.9560 C   0  0  0  0  0  0  0  0  0  0  0  0
   59.4950   32.0960   47.1070 C   0  0  0  0  0  0  0  0  0  0  0  0
   58.6510   33.1620   47.4370 C   0  0  0  0  0  0  0  0  0  0  0  0
   58.8860   33.8930   48.5550 F   0  0  0  0  0  0  0  0  0  0  0  0
   57.5650   33.4750   46.6120 C   0  0  0  0  0  0  0  0  0  0  0  0
   57.3210   32.7210   45.4590 C   0  0  0  0  0  0  0  0  0  0  0  0
   57.0180   29.3470   45.6740 C   0  0  0  0  0  0  0  0  0  0  0  0
   57.1992   22.4523   44.7086 H   0  0  0  0  0  0  0  0  0  0  0  0
   55.9219   23.2603   43.7379 H   0  0  0  0  0  0  0  0  0  0  0  0
   57.5964   23.9106   43.7379 H   0  0  0  0  0  0  0  0  0  0  0  0
   55.4199   24.6062   45.4674 H   0  0  0  0  0  0  0  0  0  0  0  0
   56.5019   24.2178   47.7070 H   0  0  0  0  0  0  0  0  0  0  0  0
   55.9736   22.7020   46.9009 H   0  0  0  0  0  0  0  0  0  0  0  0
   57.7102   23.1611   46.9009 H   0  0  0  0  0  0  0  0  0  0  0  0
   58.2930   25.4620   45.2030 H   0  0  0  0  0  0  0  0  0  0  0  0
   58.6719   28.9347   47.7788 H   0  0  0  0  0  0  0  0  0  0  0  0
   57.6730   27.5720   48.2127 H   0  0  0  0  0  0  0  0  0  0  0  0
   60.4544   27.4506   47.6690 H   0  0  0  0  0  0  0  0  0  0  0  0
   59.3643   26.0269   47.6034 H   0  0  0  0  0  0  0  0  0  0  0  0
   59.5583   28.8703   45.2516 H   0  0  0  0  0  0  0  0  0  0  0  0
   59.5325   28.1687   43.1423 H   0  0  0  0  0  0  0  0  0  0  0  0
   58.5776   26.6806   43.5127 H   0  0  0  0  0  0  0  0  0  0  0  0
   57.4882   28.8468   42.3003 H   0  0  0  0  0  0  0  0  0  0  0  0
   56.5679   27.7642   43.4506 H   0  0  0  0  0  0  0  0  0  0  0  0
   58.8442   30.5149   43.4431 H   0  0  0  0  0  0  0  0  0  0  0  0
   57.3385   31.4651   43.1625 H   0  0  0  0  0  0  0  0  0  0  0  0
   59.9168   30.5006   45.7010 H   0  0  0  0  0  0  0  0  0  0  0  0
   60.3510   31.8528   47.7536 H   0  0  0  0  0  0  0  0  0  0  0  0
   56.9027   34.3144   46.8701 H   0  0  0  0  0  0  0  0  0  0  0  0
   56.4674   32.9711   44.8118 H   0  0  0  0  0  0  0  0  0  0  0  0
   57.5076   30.1678   46.2186 H   0  0  0  0  0  0  0  0  0  0  0  0
   55.9573   29.2435   45.9465 H   0  0  0  0  0  0  0  0  0  0  0  0
  1  2  1  0
  2  3  1  0
  2  4  1  0
  4  5  1  0
  5  6  2  0
  7  5  1  6
  7  8  1  0
  8  9  1  0
  9 10  1  0
 10 11  1  0
 11 12  1  0
 12 13  1  0
 13 14  1  0
 14 15  1  0
 15 16  1  0
 16 17  2  0
 17 18  1  0
 18 19  2  0
 19 20  1  0
 19 21  1  0
 21 22  2  0
 14 23  1  0
 11  7  1  0
 22 16  1  0
 23  7  1  0
  1 24  1  0
  1 25  1  0
  1 26  1  0
  2 27  1  0
  3 28  1  0
  3 29  1  0
  3 30  1  0
  4 31  1  0
  8 32  1  0
  8 33  1  0
  9 34  1  0
  9 35  1  0
 11 36  1  6
 12 37  1  0
 12 38  1  0
 13 39  1  0
 13 40  1  0
 15 41  1  0
 15 42  1  0
 17 43  1  0
 18 44  1  0
 21 45  1  0
 22 46  1  0
 23 47  1  0
 23 48  1  0
M  END
>  <UniqueID>  (29) 
28

>  <SMILES>  (29) 
CC(C)NC(=O)[C@@]12CCO[C@H]1CCN(Cc1ccc(F)cc1)C2

>  <Energy>  (29) 
66.83123010132331

>  <Genealogy>  (29) 
CC(C)NC(=O)[C@@]12CCO[C@H]1CCN(Cc1ccc(F)cc1)C2 (chirality)
CC(C)NC(=O)[C@@]12CCO[C@H]1CCN(Cc1ccc(F)cc1)C2 (3D coordinates assigned)
CC(C)NC(=O)[C@@]12CCO[C@H]1CCN(Cc1ccc(F)cc1)C2 (nonaromatic ring conformer: 66.83123010132331 kcal/mol)

>  <smiles>  (29) 
CC(C)NC(=O)C12CCOC1CCN(Cc1ccc(F)cc1)C2

>  <score_type>  (29) 
oracle

>  <origin>  (29) 
adg

>  <m_score__min__energy>  (29) 
-6.8399999999999999

>  <m_primary>  (29) 
energy

$$$$
29:0
     RDKit          3D

 66 68  0  0  0  0  0  0  0  0999 V2000
   60.7560   27.4160   49.5740 C   0  0  0  0  0  0  0  0  0  0  0  0
   60.3940   28.7140   50.2900 C   0  0  0  0  0  0  0  0  0  0  0  0
   61.2520   29.7600   49.8760 O   0  0  0  0  0  0  0  0  0  0  0  0
   62.3960   29.8160   50.7020 C   0  0  0  0  0  0  0  0  0  0  0  0
   63.0890   31.1660   50.5150 C   0  0  0  0  0  0  0  0  0  0  0  0
   62.4380   31.9370   49.5220 O   0  0  0  0  0  0  0  0  0  0  0  0
   63.1530   31.8960   48.3040 C   0  0  0  0  0  0  0  0  0  0  0  0
   62.2550   31.3370   47.1980 C   0  0  0  0  0  0  0  0  0  0  0  0
   60.9580   30.8680   47.7310 N   0  0  0  0  0  0  0  0  0  0  0  0
   59.9260   30.9060   46.7030 C   0  0  0  0  0  0  0  0  0  0  0  0
   59.5280   29.6840   46.0770 C   0  0  0  0  0  0  0  0  0  0  0  0
   60.0840   28.4290   46.4520 C   0  0  0  0  0  0  0  0  0  0  0  0
   59.7230   27.2520   45.8040 C   0  0  0  0  0  0  0  0  0  0  0  0
   58.8130   27.2840   44.7610 C   0  0  0  0  0  0  0  0  0  0  0  0
   58.2370   28.4900   44.3780 C   0  0  0  0  0  0  0  0  0  0  0  0
   58.5540   29.7050   45.0430 C   0  0  0  0  0  0  0  0  0  0  0  0
   57.9550   30.8860   44.6760 N   0  0  0  0  0  0  0  0  0  0  0  0
   56.7330   30.8640   43.8380 C   0  0  0  0  0  0  0  0  0  0  0  0
   58.4640   32.0890   45.1150 C   0  0  0  0  0  0  0  0  0  0  0  0
   58.1160   33.2880   44.4470 C   0  0  0  0  0  0  0  0  0  0  0  0
   58.5210   34.5220   44.9240 C   0  0  0  0  0  0  0  0  0  0  0  0
   59.2480   34.6030   46.0960 C   0  0  0  0  0  0  0  0  0  0  0  0
   59.6630   33.4480   46.7720 C   0  0  0  0  0  0  0  0  0  0  0  0
   60.2610   33.6420   48.0630 N   0  0  0  0  0  0  0  0  0  0  0  0
   59.7480   34.5670   49.0770 C   0  0  0  0  0  0  0  0  0  0  0  0
   59.5590   33.8850   50.4430 C   0  0  0  0  0  0  0  0  0  0  0  0
   59.7290   32.4230   50.3070 N   0  0  0  0  0  0  0  0  0  0  0  0
   58.5330   31.8120   49.7030 C   0  0  0  0  0  0  0  0  0  0  0  0
   59.9910   31.8040   51.6170 C   0  0  0  0  0  0  0  0  0  0  0  0
   59.3600   32.1440   46.2300 C   0  0  0  0  0  0  0  0  0  0  0  0
   60.9737   26.6354   50.3178 H   0  0  0  0  0  0  0  0  0  0  0  0
   59.9125   27.0972   48.9440 H   0  0  0  0  0  0  0  0  0  0  0  0
   61.6428   27.5797   48.9440 H   0  0  0  0  0  0  0  0  0  0  0  0
   59.3542   28.9820   50.0515 H   0  0  0  0  0  0  0  0  0  0  0  0
   60.5066   28.5674   51.3744 H   0  0  0  0  0  0  0  0  0  0  0  0
   62.0958   29.6997   51.7538 H   0  0  0  0  0  0  0  0  0  0  0  0
   63.0879   29.0057   50.4285 H   0  0  0  0  0  0  0  0  0  0  0  0
   63.0692   31.7156   51.4677 H   0  0  0  0  0  0  0  0  0  0  0  0
   64.1261   30.9864   50.1954 H   0  0  0  0  0  0  0  0  0  0  0  0
   63.4752   32.9127   48.0346 H   0  0  0  0  0  0  0  0  0  0  0  0
   64.0343   31.2481   48.4203 H   0  0  0  0  0  0  0  0  0  0  0  0
   62.0704   32.1272   46.4553 H   0  0  0  0  0  0  0  0  0  0  0  0
   62.7684   30.4783   46.7409 H   0  0  0  0  0  0  0  0  0  0  0  0
   61.0340   29.9360   48.1760 H   0  0  0  0  0  0  0  0  0  0  0  0
   60.6780   31.4520   48.5500 H   0  0  0  0  0  0  0  0  0  0  0  0
   60.8155   28.3885   47.2725 H   0  0  0  0  0  0  0  0  0  0  0  0
   60.1614   26.2942   46.1209 H   0  0  0  0  0  0  0  0  0  0  0  0
   58.5458   26.3553   44.2355 H   0  0  0  0  0  0  0  0  0  0  0  0
   57.5211   28.5039   43.5429 H   0  0  0  0  0  0  0  0  0  0  0  0
   55.8443   30.8480   44.4860 H   0  0  0  0  0  0  0  0  0  0  0  0
   56.7077   31.7618   43.2030 H   0  0  0  0  0  0  0  0  0  0  0  0
   56.7400   29.9658   43.2030 H   0  0  0  0  0  0  0  0  0  0  0  0
   57.5110   33.2373   43.5297 H   0  0  0  0  0  0  0  0  0  0  0  0
   58.2645   35.4375   44.3707 H   0  0  0  0  0  0  0  0  0  0  0  0
   59.5054   35.5910   46.5054 H   0  0  0  0  0  0  0  0  0  0  0  0
   60.9950   32.9670   48.3610 H   0  0  0  0  0  0  0  0  0  0  0  0
   60.4599   35.3978   49.1913 H   0  0  0  0  0  0  0  0  0  0  0  0
   58.7645   34.9262   48.7398 H   0  0  0  0  0  0  0  0  0  0  0  0
   60.3058   34.2741   51.1507 H   0  0  0  0  0  0  0  0  0  0  0  0
   58.5458   34.0972   50.8150 H   0  0  0  0  0  0  0  0  0  0  0  0
   57.8564   31.4663   50.4985 H   0  0  0  0  0  0  0  0  0  0  0  0
   58.0160   32.5564   49.0797 H   0  0  0  0  0  0  0  0  0  0  0  0
   58.8332   30.9568   49.0797 H   0  0  0  0  0  0  0  0  0  0  0  0
   59.6966   32.4996   52.4167 H   0  0  0  0  0  0  0  0  0  0  0  0
   59.4090   30.8749   51.7065 H   0  0  0  0  0  0  0  0  0  0  0  0
   61.0632   31.5751   51.7065 H   0  0  0  0  0  0  0  0  0  0  0  0
  1  2  1  0
  2  3  1  0
  3  4  1  0
  4  5  1  0
  5  6  1  0
  6  7  1  0
  7  8  1  0
  8  9  1  0
  9 10  1  0
 10 11  2  0
 11 12  1  0
 12 13  2  0
 13 14  1  0
 14 15  2  0
 15 16  1  0
 16 17  2  0
 17 18  1  0
 17 19  1  0
 19 20  2  0
 20 21  1  0
 21 22  2  0
 22 23  1  0
 23 24  1  0
 24 25  1  0
 25 26  1  0
 26 27  1  0
 27 28  1  0
 27 29  1  0
 23 30  2  0
 30 10  1  0
 16 11  1  0
 30 19  1  0
  1 31  1  0
  1 32  1  0
  1 33  1  0
  2 34  1  0
  2 35  1  0
  4 36  1  0
  4 37  1  0
  5 38  1  0
  5 39  1  0
  7 40  1  0
  7 41  1  0
  8 42  1  0
  8 43  1  0
  9 44  1  0
  9 45  1  0
 12 46  1  0
 13 47  1  0
 14 48  1  0
 15 49  1  0
 18 50  1  0
 18 51  1  0
 18 52  1  0
 20 53  1  0
 21 54  1  0
 22 55  1  0
 24 56  1  0
 25 57  1  0
 25 58  1  0
 26 59  1  0
 26 60  1  0
 28 61  1  0
 28 62  1  0
 28 63  1  0
 29 64  1  0
 29 65  1  0
 29 66  1  0
M  CHG  2   9   1  17   1
M  END
>  <UniqueID>  (30) 
29

>  <SMILES>  (30) 
CCOCCOCC[NH2+]c1c2ccccc2[n+](C)c2cccc(NCCN(C)C)c12

>  <Energy>  (30) 
105.15261341409366

>  <Genealogy>  (30) 
CCOCCOCC[NH2+]c1c2ccccc2[n+](C)c2cccc(NCCN(C)C)c12 (protonated)
CCOCCOCC[NH2+]c1c2ccccc2[n+](C)c2cccc(NCCN(C)C)c12 (3D coordinates assigned)
CCOCCOCC[NH2+]c1c2ccccc2[n+](C)c2cccc(NCCN(C)C)c12 (optimized conformer: 105.15261341409366 kcal/mol)

>  <smiles>  (30) 
CCOCCOCCNc1c2ccccc2[n+](C)c2cccc(NCCN(C)C)c12

>  <score_type>  (30) 
oracle

>  <origin>  (30) 
adg

>  <m_score__min__energy>  (30) 
-2.9700000000000002

>  <m_primary>  (30) 
energy

$$$$
