0:0
     RDKit          3D

 80 82  0  0  0  0  0  0  0  0999 V2000
   58.7520   32.6410   50.0630 C   0  0  0  0  0  0  0  0  0  0  0  0
   59.8070   33.7250   50.2180 C   0  0  0  0  0  0  0  0  0  0  0  0
   61.0870   33.1310   50.2000 O   0  0  0  0  0  0  0  0  0  0  0  0
   61.5010   32.8710   51.5230 C   0  0  0  0  0  0  0  0  0  0  0  0
   62.6080   31.8240   51.5130 C   0  0  0  0  0  0  0  0  0  0  0  0
   63.1160   31.6820   50.2020 O   0  0  0  0  0  0  0  0  0  0  0  0
   64.5140   31.8740   50.2180 C   0  0  0  0  0  0  0  0  0  0  0  0
   64.8810   33.0880   49.3630 C   0  0  0  0  0  0  0  0  0  0  0  0
   63.7150   33.5950   48.6220 N   0  0  0  0  0  0  0  0  0  0  0  0
   63.7330   33.0490   47.2570 C   0  0  0  0  0  0  0  0  0  0  0  0
   62.8780   31.7760   47.1300 C   0  0  0  0  0  0  0  0  0  0  0  0
   61.7880   31.7100   48.1340 N   0  0  0  0  0  0  0  0  0  0  0  0
   60.4990   31.4850   47.4910 C   0  0  0  0  0  0  0  0  0  0  0  0
   59.8880   32.5250   46.7480 C   0  0  0  0  0  0  0  0  0  0  0  0
   60.1840   33.8830   47.0000 C   0  0  0  0  0  0  0  0  0  0  0  0
   59.5660   34.8960   46.2690 C   0  0  0  0  0  0  0  0  0  0  0  0
   58.6430   34.5780   45.2820 C   0  0  0  0  0  0  0  0  0  0  0  0
   58.3480   33.2450   45.0020 C   0  0  0  0  0  0  0  0  0  0  0  0
   58.9840   32.1930   45.7060 C   0  0  0  0  0  0  0  0  0  0  0  0
   58.7620   30.8700   45.3890 N   0  0  0  0  0  0  0  0  0  0  0  0
   58.1500   30.5140   44.0890 C   0  0  0  0  0  0  0  0  0  0  0  0
   59.0930   29.8850   46.2980 C   0  0  0  0  0  0  0  0  0  0  0  0
   58.6000   28.5640   46.1600 C   0  0  0  0  0  0  0  0  0  0  0  0
   58.8910   27.5880   47.1030 C   0  0  0  0  0  0  0  0  0  0  0  0
   59.5980   27.9160   48.2500 C   0  0  0  0  0  0  0  0  0  0  0  0
   60.0550   29.2280   48.4600 C   0  0  0  0  0  0  0  0  0  0  0  0
   60.5480   29.6110   49.7210 O   0  0  0  0  0  0  0  0  0  0  0  0
   60.4370   28.8200   50.9070 C   0  0  0  0  0  0  0  0  0  0  0  0
   59.6190   29.5660   51.9690 C   0  0  0  0  0  0  0  0  0  0  0  0
   58.1270   29.7960   51.6050 C   0  0  0  0  0  0  0  0  0  0  0  0
   57.2660   30.4570   52.6380 N   0  0  0  0  0  0  0  0  0  0  0  0
   56.1630   31.2310   52.0180 C   0  0  0  0  0  0  0  0  0  0  0  0
   58.1160   31.4100   53.3960 C   0  0  0  0  0  0  0  0  0  0  0  0
   56.7060   29.4770   53.5960 C   0  0  0  0  0  0  0  0  0  0  0  0
   59.9150   30.1930   47.4200 C   0  0  0  0  0  0  0  0  0  0  0  0
   58.4239   32.3038   51.0573 H   0  0  0  0  0  0  0  0  0  0  0  0
   57.8908   33.0439   49.5098 H   0  0  0  0  0  0  0  0  0  0  0  0
   59.1781   31.7911   49.5098 H   0  0  0  0  0  0  0  0  0  0  0  0
   59.7224   34.4424   49.3884 H   0  0  0  0  0  0  0  0  0  0  0  0
   59.6575   34.2534   51.1711 H   0  0  0  0  0  0  0  0  0  0  0  0
   61.8780   33.7987   51.9781 H   0  0  0  0  0  0  0  0  0  0  0  0
   60.6475   32.4962   52.1070 H   0  0  0  0  0  0  0  0  0  0  0  0
   63.4176   32.1412   52.1867 H   0  0  0  0  0  0  0  0  0  0  0  0
   62.2015   30.8601   51.8531 H   0  0  0  0  0  0  0  0  0  0  0  0
   64.8476   32.0420   51.2527 H   0  0  0  0  0  0  0  0  0  0  0  0
   65.0077   30.9799   49.8095 H   0  0  0  0  0  0  0  0  0  0  0  0
   65.2629   33.8849   50.0181 H   0  0  0  0  0  0  0  0  0  0  0  0
   65.6466   32.7804   48.6355 H   0  0  0  0  0  0  0  0  0  0  0  0
   62.8570   33.2360   49.1030 H   0  0  0  0  0  0  0  0  0  0  0  0
   63.3410   33.8097   46.5658 H   0  0  0  0  0  0  0  0  0  0  0  0
   64.7722   32.7841   47.0124 H   0  0  0  0  0  0  0  0  0  0  0  0
   62.4314   31.7520   46.1250 H   0  0  0  0  0  0  0  0  0  0  0  0
   63.5400   30.9150   47.3045 H   0  0  0  0  0  0  0  0  0  0  0  0
   62.0460   30.9260   48.7670 H   0  0  0  0  0  0  0  0  0  0  0  0
   61.7420   32.5670   48.7310 H   0  0  0  0  0  0  0  0  0  0  0  0
   60.9112   34.1442   47.7829 H   0  0  0  0  0  0  0  0  0  0  0  0
   59.8099   35.9488   46.4744 H   0  0  0  0  0  0  0  0  0  0  0  0
   58.1431   35.3803   44.7194 H   0  0  0  0  0  0  0  0  0  0  0  0
   57.6098   33.0060   44.2222 H   0  0  0  0  0  0  0  0  0  0  0  0
   57.2111   29.9679   44.2630 H   0  0  0  0  0  0  0  0  0  0  0  0
   57.9404   31.4311   43.5190 H   0  0  0  0  0  0  0  0  0  0  0  0
   58.8436   29.8784   43.5190 H   0  0  0  0  0  0  0  0  0  0  0  0
   57.9762   28.3076   45.2910 H   0  0  0  0  0  0  0  0  0  0  0  0
   58.5600   26.5517   46.9401 H   0  0  0  0  0  0  0  0  0  0  0  0
   59.8032   27.1410   49.0032 H   0  0  0  0  0  0  0  0  0  0  0  0
   59.9372   27.8705   50.6646 H   0  0  0  0  0  0  0  0  0  0  0  0
   61.4446   28.6248   51.3029 H   0  0  0  0  0  0  0  0  0  0  0  0
   59.6571   28.9830   52.9010 H   0  0  0  0  0  0  0  0  0  0  0  0
   60.0710   30.5647   52.0603 H   0  0  0  0  0  0  0  0  0  0  0  0
   58.0993   30.4219   50.7008 H   0  0  0  0  0  0  0  0  0  0  0  0
   57.7046   28.7873   51.4858 H   0  0  0  0  0  0  0  0  0  0  0  0
   55.5355   31.6713   52.8069 H   0  0  0  0  0  0  0  0  0  0  0  0
   56.5837   32.0330   51.3937 H   0  0  0  0  0  0  0  0  0  0  0  0
   55.5519   30.5626   51.3937 H   0  0  0  0  0  0  0  0  0  0  0  0
   57.9735   31.2502   54.4750 H   0  0  0  0  0  0  0  0  0  0  0  0
   59.1723   31.2450   53.1373 H   0  0  0  0  0  0  0  0  0  0  0  0
   57.8318   32.4407   53.1373 H   0  0  0  0  0  0  0  0  0  0  0  0
   56.9003   29.8170   54.6240 H   0  0  0  0  0  0  0  0  0  0  0  0
   55.6210   29.3885   53.4379 H   0  0  0  0  0  0  0  0  0  0  0  0
   57.1806   28.4973   53.4379 H   0  0  0  0  0  0  0  0  0  0  0  0
  1  2  1  0
  2  3  1  0
  3  4  1  0
  4  5  1  0
  5  6  1  0
  6  7  1  0
  7  8  1  0
  8  9  1  0
  9 10  1  0
 10 11  1  0
 11 12  1  0
 12 13  1  0
 13 14  2  0
 14 15  1  0
 15 16  2  0
 16 17  1  0
 17 18  2  0
 18 19  1  0
 19 20  2  0
 20 21  1  0
 20 22  1  0
 22 23  2  0
 23 24  1  0
 24 25  2  0
 25 26  1  0
 26 27  1  0
 27 28  1  0
 28 29  1  0
 29 30  1  0
 30 31  1  0
 31 32  1  0
 31 33  1  0
 31 34  1  0
 26 35  2  0
 35 13  1  0
 19 14  1  0
 35 22  1  0
  1 36  1  0
  1 37  1  0
  1 38  1  0
  2 39  1  0
  2 40  1  0
  4 41  1  0
  4 42  1  0
  5 43  1  0
  5 44  1  0
  7 45  1  0
  7 46  1  0
  8 47  1  0
  8 48  1  0
  9 49  1  0
 10 50  1  0
 10 51  1  0
 11 52  1  0
 11 53  1  0
 12 54  1  0
 12 55  1  0
 15 56  1  0
 16 57  1  0
 17 58  1  0
 18 59  1  0
 21 60  1  0
 21 61  1  0
 21 62  1  0
 23 63  1  0
 24 64  1  0
 25 65  1  0
 28 66  1  0
 28 67  1  0
 29 68  1  0
 29 69  1  0
 30 70  1  0
 30 71  1  0
 32 72  1  0
 32 73  1  0
 32 74  1  0
 33 75  1  0
 33 76  1  0
 33 77  1  0
 34 78  1  0
 34 79  1  0
 34 80  1  0
M  CHG  3  12   1  20   1  31   1
M  END
>  <UniqueID>  (1) 
1

>  <SMILES>  (1) 
CCOCCOCCNCC[NH2+]c1c2ccccc2[n+](C)c2cccc(OCCC[N+](C)(C)C)c12

>  <Energy>  (1) 
117.94792562132206

>  <Genealogy>  (1) 
CCOCCOCCNCC[NH2+]c1c2ccccc2[n+](C)c2cccc(OCCC[N+](C)(C)C)c12 (protonated)
CCOCCOCCNCC[NH2+]c1c2ccccc2[n+](C)c2cccc(OCCC[N+](C)(C)C)c12 (3D coordinates assigned)
CCOCCOCCNCC[NH2+]c1c2ccccc2[n+](C)c2cccc(OCCC[N+](C)(C)C)c12 (optimized conformer: 117.94792562132206 kcal/mol)

>  <smiles>  (1) 
CCOCCOCCNCCNc1c2ccccc2[n+](C)c2cccc(OCCC[N+](C)(C)C)c12

>  <score_type>  (1) 
oracle

>  <origin>  (1) 
adg

>  <m_score__min__energy>  (1) 
-1.55

>  <m_primary>  (1) 
energy

$$$$
1:0
     RDKit          3D

 43 44  0  0  0  0  0  0  0  0999 V2000
   57.8000   27.8840   44.1150 C   0  0  0  0  0  0  0  0  0  0  0  0
   56.9770   28.3420   45.3250 C   0  0  0  0  0  0  0  0  0  0  0  0
   57.8660   28.9570   46.4160 C   0  0  0  0  0  0  0  0  0  0  0  0
   55.8630   29.2220   44.9160 N   0  0  0  0  0  0  0  0  0  0  0  0
   55.9650   29.7430   43.5420 C   0  0  0  0  0  0  0  0  0  0  0  0
   56.8400   30.9970   43.5210 C   0  0  0  0  0  0  0  0  0  0  0  0
   56.9130   31.5900   44.8620 N   0  0  0  0  0  0  0  0  0  0  0  0
   57.4220   32.9630   44.7850 C   0  0  0  0  0  0  0  0  0  0  0  0
   58.6130   33.1170   45.6910 C   0  0  0  0  0  0  0  0  0  0  0  0
   59.2370   31.9820   46.2260 C   0  0  0  0  0  0  0  0  0  0  0  0
   60.3380   32.1160   47.0780 C   0  0  0  0  0  0  0  0  0  0  0  0
   60.8310   33.3900   47.4110 C   0  0  0  0  0  0  0  0  0  0  0  0
   62.0090   33.5340   48.3020 C   0  0  0  0  0  0  0  0  0  0  0  0
   61.8960   34.1860   49.5410 C   0  0  0  0  0  0  0  0  0  0  0  0
   63.0170   34.3030   50.3670 C   0  0  0  0  0  0  0  0  0  0  0  0
   64.2110   33.7870   49.9730 N   0  0  0  0  0  0  0  0  0  0  0  0
   64.3530   33.1480   48.7810 C   0  0  0  0  0  0  0  0  0  0  0  0
   63.2570   33.0090   47.9250 C   0  0  0  0  0  0  0  0  0  0  0  0
   60.1960   34.5260   46.8780 C   0  0  0  0  0  0  0  0  0  0  0  0
   59.0930   34.3900   46.0300 C   0  0  0  0  0  0  0  0  0  0  0  0
   58.7119   27.3765   44.4627 H   0  0  0  0  0  0  0  0  0  0  0  0
   57.2025   27.1887   43.5071 H   0  0  0  0  0  0  0  0  0  0  0  0
   58.0760   28.7583   43.5071 H   0  0  0  0  0  0  0  0  0  0  0  0
   56.5158   27.4523   45.7786 H   0  0  0  0  0  0  0  0  0  0  0  0
   57.4724   28.6847   47.4064 H   0  0  0  0  0  0  0  0  0  0  0  0
   58.8921   28.5748   46.3115 H   0  0  0  0  0  0  0  0  0  0  0  0
   57.8702   30.0520   46.3115 H   0  0  0  0  0  0  0  0  0  0  0  0
   55.8320   30.0390   45.5710 H   0  0  0  0  0  0  0  0  0  0  0  0
   56.4130   28.9754   42.8938 H   0  0  0  0  0  0  0  0  0  0  0  0
   54.9591   29.9988   43.1775 H   0  0  0  0  0  0  0  0  0  0  0  0
   57.8530   30.7271   43.1880 H   0  0  0  0  0  0  0  0  0  0  0  0
   56.3986   31.7297   42.8294 H   0  0  0  0  0  0  0  0  0  0  0  0
   55.9380   31.6290   45.2490 H   0  0  0  0  0  0  0  0  0  0  0  0
   57.7199   33.1844   43.7495 H   0  0  0  0  0  0  0  0  0  0  0  0
   56.6328   33.6610   45.1011 H   0  0  0  0  0  0  0  0  0  0  0  0
   58.8588   30.9802   45.9745 H   0  0  0  0  0  0  0  0  0  0  0  0
   60.8217   31.2183   47.4905 H   0  0  0  0  0  0  0  0  0  0  0  0
   60.9292   34.6027   49.8597 H   0  0  0  0  0  0  0  0  0  0  0  0
   62.9329   34.8136   51.3377 H   0  0  0  0  0  0  0  0  0  0  0  0
   65.3322   32.7398   48.4900 H   0  0  0  0  0  0  0  0  0  0  0  0
   63.3706   32.4913   46.9611 H   0  0  0  0  0  0  0  0  0  0  0  0
   60.5701   35.5292   47.1303 H   0  0  0  0  0  0  0  0  0  0  0  0
   58.5991   35.2863   45.6266 H   0  0  0  0  0  0  0  0  0  0  0  0
  1  2  1  0
  2  3  1  0
  2  4  1  0
  4  5  1  0
  5  6  1  0
  6  7  1  0
  7  8  1  0
  8  9  1  0
  9 10  2  0
 10 11  1  0
 11 12  2  0
 12 13  1  0
 13 14  2  0
 14 15  1  0
 15 16  2  0
 16 17  1  0
 17 18  2  0
 12 19  1  0
 19 20  2  0
 20  9  1  0
 18 13  1  0
  1 21  1  0
  1 22  1  0
  1 23  1  0
  2 24  1  0
  3 25  1  0
  3 26  1  0
  3 27  1  0
  4 28  1  0
  5 29  1  0
  5 30  1  0
  6 31  1  0
  6 32  1  0
  7 33  1  0
  8 34  1  0
  8 35  1  0
 10 36  1  0
 11 37  1  0
 14 38  1  0
 15 39  1  0
 17 40  1  0
 18 41  1  0
 19 42  1  0
 20 43  1  0
M  END
>  <UniqueID>  (2) 
2

>  <SMILES>  (2) 
CC(C)NCCNCc1ccc(-c2ccncc2)cc1

>  <Energy>  (2) 
43.36030187549162

>  <Genealogy>  (2) 
CC(C)NCCNCc1ccc(-c2ccncc2)cc1 (3D coordinates assigned)
CC(C)NCCNCc1ccc(-c2ccncc2)cc1 (optimized conformer: 43.36030187549162 kcal/mol)

>  <smiles>  (2) 
CC(C)NCCNCc1ccc(-c2ccncc2)cc1

>  <score_type>  (2) 
oracle

>  <origin>  (2) 
adg

>  <m_score__min__energy>  (2) 
-7.29

>  <m_primary>  (2) 
energy

$$$$
2:0
     RDKit          3D

 46 47  0  0  0  0  0  0  0  0999 V2000
   60.2000   30.4290   49.6890 C   0  0  0  0  0  0  0  0  0  0  0  0
   61.1470   30.1030   48.5340 C   0  0  0  0  0  0  0  0  0  0  0  0
   60.6130   30.6110   47.2580 N   0  0  0  0  0  0  0  0  0  0  0  0
   59.9390   29.6330   46.4140 C   0  0  0  0  0  0  0  0  0  0  0  0
   60.3100   28.2630   46.3940 C   0  0  0  0  0  0  0  0  0  0  0  0
   59.6490   27.3480   45.5780 C   0  0  0  0  0  0  0  0  0  0  0  0
   58.6040   27.7590   44.7590 C   0  0  0  0  0  0  0  0  0  0  0  0
   58.2040   29.0990   44.7470 C   0  0  0  0  0  0  0  0  0  0  0  0
   57.1480   29.5020   43.9180 C   0  0  0  0  0  0  0  0  0  0  0  0
   56.7360   30.8340   43.8920 C   0  0  0  0  0  0  0  0  0  0  0  0
   57.3800   31.7920   44.6930 C   0  0  0  0  0  0  0  0  0  0  0  0
   57.0160   33.1510   44.7090 O   0  0  0  0  0  0  0  0  0  0  0  0
   57.8830   34.2640   44.9410 C   0  0  0  0  0  0  0  0  0  0  0  0
   58.4510   34.2400   46.3650 C   0  0  0  0  0  0  0  0  0  0  0  0
   59.9700   34.4240   46.4060 C   0  0  0  0  0  0  0  0  0  0  0  0
   60.6320   33.1210   46.3960 N   0  0  0  0  0  0  0  0  0  0  0  0
   61.3790   33.0300   47.5270 O   0  0  0  0  0  0  0  0  0  0  0  0
   62.7120   33.2410   47.1340 C   0  0  0  0  0  0  0  0  0  0  0  0
   63.6450   32.6970   48.2040 C   0  0  0  0  0  0  0  0  0  0  0  0
   58.4310   31.3920   45.5280 C   0  0  0  0  0  0  0  0  0  0  0  0
   58.8640   30.0480   45.5710 C   0  0  0  0  0  0  0  0  0  0  0  0
   60.7137   30.2521   50.6455 H   0  0  0  0  0  0  0  0  0  0  0  0
   59.8948   31.4839   49.6263 H   0  0  0  0  0  0  0  0  0  0  0  0
   59.3101   29.7855   49.6263 H   0  0  0  0  0  0  0  0  0  0  0  0
   62.1244   30.5695   48.7268 H   0  0  0  0  0  0  0  0  0  0  0  0
   61.2508   29.0103   48.4618 H   0  0  0  0  0  0  0  0  0  0  0  0
   61.4120   31.0100   46.7120 H   0  0  0  0  0  0  0  0  0  0  0  0
   59.9290   31.3730   47.4770 H   0  0  0  0  0  0  0  0  0  0  0  0
   61.1347   27.9176   47.0347 H   0  0  0  0  0  0  0  0  0  0  0  0
   59.9564   26.2918   45.5818 H   0  0  0  0  0  0  0  0  0  0  0  0
   58.0898   27.0278   44.1180 H   0  0  0  0  0  0  0  0  0  0  0  0
   56.6401   28.7614   43.2827 H   0  0  0  0  0  0  0  0  0  0  0  0
   55.9025   31.1363   43.2410 H   0  0  0  0  0  0  0  0  0  0  0  0
   58.7151   34.2259   44.2226 H   0  0  0  0  0  0  0  0  0  0  0  0
   57.3018   35.1893   44.8144 H   0  0  0  0  0  0  0  0  0  0  0  0
   57.9839   35.0514   46.9425 H   0  0  0  0  0  0  0  0  0  0  0  0
   58.2276   33.2511   46.7918 H   0  0  0  0  0  0  0  0  0  0  0  0
   60.2907   35.0022   45.5269 H   0  0  0  0  0  0  0  0  0  0  0  0
   60.2439   34.9610   47.3261 H   0  0  0  0  0  0  0  0  0  0  0  0
   61.3020   33.1030   45.5920 H   0  0  0  0  0  0  0  0  0  0  0  0
   62.9011   32.7213   46.1832 H   0  0  0  0  0  0  0  0  0  0  0  0
   62.8908   34.3185   47.0032 H   0  0  0  0  0  0  0  0  0  0  0  0
   63.2395   32.9335   49.1988 H   0  0  0  0  0  0  0  0  0  0  0  0
   63.7329   31.6061   48.0937 H   0  0  0  0  0  0  0  0  0  0  0  0
   64.6377   33.1579   48.0937 H   0  0  0  0  0  0  0  0  0  0  0  0
   58.9292   32.1394   46.1630 H   0  0  0  0  0  0  0  0  0  0  0  0
  1  2  1  0
  2  3  1  0
  3  4  1  0
  4  5  2  0
  5  6  1  0
  6  7  2  0
  7  8  1  0
  8  9  2  0
  9 10  1  0
 10 11  2  0
 11 12  1  0
 12 13  1  0
 13 14  1  0
 14 15  1  0
 15 16  1  0
 16 17  1  0
 17 18  1  0
 18 19  1  0
 11 20  1  0
 20 21  2  0
 21  4  1  0
 21  8  1  0
  1 22  1  0
  1 23  1  0
  1 24  1  0
  2 25  1  0
  2 26  1  0
  3 27  1  0
  3 28  1  0
  5 29  1  0
  6 30  1  0
  7 31  1  0
  9 32  1  0
 10 33  1  0
 13 34  1  0
 13 35  1  0
 14 36  1  0
 14 37  1  0
 15 38  1  0
 15 39  1  0
 16 40  1  0
 18 41  1  0
 18 42  1  0
 19 43  1  0
 19 44  1  0
 19 45  1  0
 20 46  1  0
M  CHG  1   3   1
M  END
>  <UniqueID>  (3) 
3

>  <SMILES>  (3) 
CC[NH2+]c1cccc2ccc(OCCCNOCC)cc12

>  <Energy>  (3) 
46.80078903074272

>  <Genealogy>  (3) 
CC[NH2+]c1cccc2ccc(OCCCNOCC)cc12 (protonated)
CC[NH2+]c1cccc2ccc(OCCCNOCC)cc12 (3D coordinates assigned)
CC[NH2+]c1cccc2ccc(OCCCNOCC)cc12 (optimized conformer: 46.80078903074272 kcal/mol)

>  <smiles>  (3) 
CCNc1cccc2ccc(OCCCNOCC)cc12

>  <score_type>  (3) 
oracle

>  <origin>  (3) 
adg

>  <m_score__min__energy>  (3) 
-5.3499999999999996

>  <m_primary>  (3) 
energy

$$$$
3:0
     RDKit          3D

 52 54  0  0  0  0  0  0  0  0999 V2000
   57.4130   31.6800   42.5230 C   0  0  0  0  0  0  0  0  0  0  0  0
   57.9980   30.8460   43.6650 C   0  0  0  0  0  0  0  0  0  0  0  0
   56.9980   29.7820   44.1990 C   0  0  2  0  0  0  0  0  0  0  0  0
   55.6030   30.0600   43.6190 C   0  0  0  0  0  0  0  0  0  0  0  0
   56.9260   29.8120   45.6770 N   0  0  0  0  0  0  0  0  0  0  0  0
   57.7080   28.7530   46.3400 C   0  0  0  0  0  0  0  0  0  0  0  0
   59.0980   29.2490   46.7600 C   0  0  0  0  0  0  0  0  0  0  0  0
   59.0220   30.3170   47.7580 N   0  0  0  0  0  0  0  0  0  0  0  0
   59.8920   31.4560   47.7020 C   0  0  0  0  0  0  0  0  0  0  0  0
   59.5490   32.5400   46.8750 C   0  0  0  0  0  0  0  0  0  0  0  0
   58.2440   32.6690   46.3490 C   0  0  0  0  0  0  0  0  0  0  0  0
   57.8940   33.7760   45.5790 C   0  0  0  0  0  0  0  0  0  0  0  0
   58.8290   34.7770   45.3280 C   0  0  0  0  0  0  0  0  0  0  0  0
   60.1290   34.6610   45.8210 C   0  0  0  0  0  0  0  0  0  0  0  0
   60.5210   33.5290   46.5830 C   0  0  0  0  0  0  0  0  0  0  0  0
   61.8120   33.3780   47.0450 N   0  0  0  0  0  0  0  0  0  0  0  0
   62.9060   34.1860   46.4530 C   0  0  0  0  0  0  0  0  0  0  0  0
   62.0770   32.4740   48.0550 C   0  0  0  0  0  0  0  0  0  0  0  0
   63.3080   32.5130   48.7580 C   0  0  0  0  0  0  0  0  0  0  0  0
   63.5970   31.6000   49.7710 C   0  0  0  0  0  0  0  0  0  0  0  0
   64.9250   31.6570   50.4730 C   0  0  0  0  0  0  0  0  0  0  0  0
   62.6500   30.6440   50.1250 C   0  0  0  0  0  0  0  0  0  0  0  0
   61.4030   30.6000   49.5010 C   0  0  0  0  0  0  0  0  0  0  0  0
   60.1480   29.4080   50.3450 Br  0  0  0  0  0  0  0  0  0  0  0  0
   61.1090   31.4910   48.4250 C   0  0  0  0  0  0  0  0  0  0  0  0
   56.8284   32.5134   42.9398 H   0  0  0  0  0  0  0  0  0  0  0  0
   58.2303   32.0788   41.9042 H   0  0  0  0  0  0  0  0  0  0  0  0
   56.7598   31.0473   41.9042 H   0  0  0  0  0  0  0  0  0  0  0  0
   58.8991   30.3313   43.3001 H   0  0  0  0  0  0  0  0  0  0  0  0
   58.2307   31.5311   44.4936 H   0  0  0  0  0  0  0  0  0  0  0  0
   57.3501   28.7876   43.8873 H   0  0  0  0  0  0  0  0  0  0  0  0
   54.8860   30.2029   44.4409 H   0  0  0  0  0  0  0  0  0  0  0  0
   55.6376   30.9689   43.0004 H   0  0  0  0  0  0  0  0  0  0  0  0
   55.2865   29.2073   43.0004 H   0  0  0  0  0  0  0  0  0  0  0  0
   55.9280   29.6660   45.9550 H   0  0  0  0  0  0  0  0  0  0  0  0
   57.1645   28.4166   47.2352 H   0  0  0  0  0  0  0  0  0  0  0  0
   57.8412   27.9278   45.6249 H   0  0  0  0  0  0  0  0  0  0  0  0
   59.6623   28.4058   47.1849 H   0  0  0  0  0  0  0  0  0  0  0  0
   59.5977   29.6537   45.8675 H   0  0  0  0  0  0  0  0  0  0  0  0
   58.1460   30.3940   48.3250 H   0  0  0  0  0  0  0  0  0  0  0  0
   57.4966   31.8872   46.5496 H   0  0  0  0  0  0  0  0  0  0  0  0
   56.8769   33.8595   45.1684 H   0  0  0  0  0  0  0  0  0  0  0  0
   58.5420   35.6611   44.7398 H   0  0  0  0  0  0  0  0  0  0  0  0
   60.8600   35.4572   45.6166 H   0  0  0  0  0  0  0  0  0  0  0  0
   63.5094   34.6316   47.2576 H   0  0  0  0  0  0  0  0  0  0  0  0
   63.5436   33.5403   45.8312 H   0  0  0  0  0  0  0  0  0  0  0  0
   62.4764   34.9852   45.8312 H   0  0  0  0  0  0  0  0  0  0  0  0
   64.0515   33.2809   48.4981 H   0  0  0  0  0  0  0  0  0  0  0  0
   64.7651   31.6501   51.5613 H   0  0  0  0  0  0  0  0  0  0  0  0
   65.5294   30.7840   50.1857 H   0  0  0  0  0  0  0  0  0  0  0  0
   65.4524   32.5786   50.1857 H   0  0  0  0  0  0  0  0  0  0  0  0
   62.8885   29.9109   50.9097 H   0  0  0  0  0  0  0  0  0  0  0  0
  1  2  1  0
  2  3  1  0
  3  4  1  0
  3  5  1  0
  5  6  1  0
  6  7  1  0
  7  8  1  0
  8  9  1  0
  9 10  2  0
 10 11  1  0
 11 12  2  0
 12 13  1  0
 13 14  2  0
 14 15  1  0
 15 16  2  0
 16 17  1  0
 16 18  1  0
 18 19  2  0
 19 20  1  0
 20 21  1  0
 20 22  2  0
 22 23  1  0
 23 24  1  0
 23 25  2  0
 25  9  1  0
 15 10  1  0
 25 18  1  0
  1 26  1  0
  1 27  1  0
  1 28  1  0
  2 29  1  0
  2 30  1  0
  3 31  1  1
  4 32  1  0
  4 33  1  0
  4 34  1  0
  5 35  1  0
  6 36  1  0
  6 37  1  0
  7 38  1  0
  7 39  1  0
  8 40  1  0
 11 41  1  0
 12 42  1  0
 13 43  1  0
 14 44  1  0
 17 45  1  0
 17 46  1  0
 17 47  1  0
 19 48  1  0
 21 49  1  0
 21 50  1  0
 21 51  1  0
 22 52  1  0
M  CHG  1  16   1
M  END
>  <UniqueID>  (4) 
4

>  <SMILES>  (4) 
CC[C@H](C)NCCNc1c2ccccc2[n+](C)c2cc(C)cc(Br)c12

>  <Energy>  (4) 
85.66543775417125

>  <Genealogy>  (4) 
CC[C@H](C)NCCNc1c2ccccc2[n+](C)c2cc(C)cc(Br)c12 (chirality)
CC[C@H](C)NCCNc1c2ccccc2[n+](C)c2cc(C)cc(Br)c12 (3D coordinates assigned)
CC[C@H](C)NCCNc1c2ccccc2[n+](C)c2cc(C)cc(Br)c12 (optimized conformer: 85.66543775417125 kcal/mol)

>  <smiles>  (4) 
CCC(C)NCCNc1c2ccccc2[n+](C)c2cc(C)cc(Br)c12

>  <score_type>  (4) 
oracle

>  <origin>  (4) 
adg

>  <m_score__min__energy>  (4) 
-6.5499999999999998

>  <m_primary>  (4) 
energy

$$$$
4:0
     RDKit          3D

 49 51  0  0  0  0  0  0  0  0999 V2000
   63.5740   33.1160   47.1910 C   0  0  0  0  0  0  0  0  0  0  0  0
   62.3280   33.8480   46.6990 C   0  0  0  0  0  0  0  0  0  0  0  0
   61.3020   33.7900   47.6740 O   0  0  0  0  0  0  0  0  0  0  0  0
   60.1470   34.4850   47.2420 C   0  0  0  0  0  0  0  0  0  0  0  0
   59.3520   33.6410   46.2780 C   0  0  0  0  0  0  0  0  0  0  0  0
   58.5750   34.2360   45.2750 C   0  0  0  0  0  0  0  0  0  0  0  0
   57.8770   33.4650   44.3980 N   0  0  0  0  0  0  0  0  0  0  0  0
   57.9030   32.1040   44.4610 C   0  0  0  0  0  0  0  0  0  0  0  0
   57.0160   31.1780   43.2540 Cl  0  0  0  0  0  0  0  0  0  0  0  0
   58.6650   31.4620   45.4550 C   0  0  0  0  0  0  0  0  0  0  0  0
   58.6950   30.0300   45.5650 N   0  0  0  0  0  0  0  0  0  0  0  0
   59.2760   29.2150   44.4970 C   0  0  0  0  0  0  0  0  0  0  0  0
   58.3850   27.9910   44.2430 C   0  0  0  0  0  0  0  0  0  0  0  0
   57.9910   27.2570   45.4830 N   0  0  0  0  0  0  0  0  0  0  0  0
   58.3990   25.8360   45.4370 C   0  0  0  0  0  0  0  0  0  0  0  0
   57.2380   24.9650   45.0220 C   0  0  0  0  0  0  0  0  0  0  0  0
   57.4340   23.9000   44.1260 C   0  0  0  0  0  0  0  0  0  0  0  0
   56.3570   23.0990   43.7340 C   0  0  0  0  0  0  0  0  0  0  0  0
   55.0770   23.3530   44.2320 C   0  0  0  0  0  0  0  0  0  0  0  0
   54.8700   24.4080   45.1250 C   0  0  0  0  0  0  0  0  0  0  0  0
   53.6240   24.6460   45.6110 F   0  0  0  0  0  0  0  0  0  0  0  0
   55.9450   25.2130   45.5220 C   0  0  0  0  0  0  0  0  0  0  0  0
   55.7310   26.2330   46.3930 F   0  0  0  0  0  0  0  0  0  0  0  0
   58.4580   27.8800   46.7410 C   0  0  0  0  0  0  0  0  0  0  0  0
   58.1520   29.3820   46.7610 C   0  0  0  0  0  0  0  0  0  0  0  0
   59.3980   32.2440   46.3570 C   0  0  0  0  0  0  0  0  0  0  0  0
   63.5851   33.1095   48.2909 H   0  0  0  0  0  0  0  0  0  0  0  0
   63.5624   32.0811   46.8183 H   0  0  0  0  0  0  0  0  0  0  0  0
   64.4723   33.6299   46.8183 H   0  0  0  0  0  0  0  0  0  0  0  0
   62.5806   34.9002   46.5012 H   0  0  0  0  0  0  0  0  0  0  0  0
   61.9714   33.3644   45.7776 H   0  0  0  0  0  0  0  0  0  0  0  0
   59.5213   34.7245   48.1144 H   0  0  0  0  0  0  0  0  0  0  0  0
   60.4578   35.4092   46.7328 H   0  0  0  0  0  0  0  0  0  0  0  0
   58.5292   35.3322   45.1964 H   0  0  0  0  0  0  0  0  0  0  0  0
   57.3130   33.9340   43.6530 H   0  0  0  0  0  0  0  0  0  0  0  0
   59.3473   29.8136   43.5769 H   0  0  0  0  0  0  0  0  0  0  0  0
   60.2803   28.8809   44.7967 H   0  0  0  0  0  0  0  0  0  0  0  0
   57.4694   28.3292   43.7359 H   0  0  0  0  0  0  0  0  0  0  0  0
   58.9739   27.2905   43.6327 H   0  0  0  0  0  0  0  0  0  0  0  0
   59.2174   25.7178   44.7116 H   0  0  0  0  0  0  0  0  0  0  0  0
   58.7329   25.5294   46.4393 H   0  0  0  0  0  0  0  0  0  0  0  0
   58.4401   23.6955   43.7310 H   0  0  0  0  0  0  0  0  0  0  0  0
   56.5181   22.2674   43.0322 H   0  0  0  0  0  0  0  0  0  0  0  0
   54.2312   22.7222   43.9211 H   0  0  0  0  0  0  0  0  0  0  0  0
   57.9504   27.3988   47.5900 H   0  0  0  0  0  0  0  0  0  0  0  0
   59.5472   27.7448   46.8140 H   0  0  0  0  0  0  0  0  0  0  0  0
   57.0623   29.5295   46.7899 H   0  0  0  0  0  0  0  0  0  0  0  0
   58.6179   29.8291   47.6515 H   0  0  0  0  0  0  0  0  0  0  0  0
   60.0119   31.7587   47.1301 H   0  0  0  0  0  0  0  0  0  0  0  0
  1  2  1  0
  2  3  1  0
  3  4  1  0
  4  5  1  0
  5  6  2  0
  6  7  1  0
  7  8  2  0
  8  9  1  0
  8 10  1  0
 10 11  1  0
 11 12  1  0
 12 13  1  0
 13 14  1  0
 14 15  1  0
 15 16  1  0
 16 17  2  0
 17 18  1  0
 18 19  2  0
 19 20  1  0
 20 21  1  0
 20 22  2  0
 22 23  1  0
 14 24  1  0
 24 25  1  0
 10 26  2  0
 26  5  1  0
 25 11  1  0
 22 16  1  0
  1 27  1  0
  1 28  1  0
  1 29  1  0
  2 30  1  0
  2 31  1  0
  4 32  1  0
  4 33  1  0
  6 34  1  0
  7 35  1  0
 12 36  1  0
 12 37  1  0
 13 38  1  0
 13 39  1  0
 15 40  1  0
 15 41  1  0
 17 42  1  0
 18 43  1  0
 19 44  1  0
 24 45  1  0
 24 46  1  0
 25 47  1  0
 25 48  1  0
 26 49  1  0
M  CHG  1   7   1
M  END
>  <UniqueID>  (5) 
5

>  <SMILES>  (5) 
CCOCc1c[nH+]c(Cl)c(N2CCN(Cc3cccc(F)c3F)CC2)c1

>  <Energy>  (5) 
62.94478385368686

>  <Genealogy>  (5) 
CCOCc1c[nH+]c(Cl)c(N2CCN(Cc3cccc(F)c3F)CC2)c1 (protonated)
CCOCc1c[nH+]c(Cl)c(N2CCN(Cc3cccc(F)c3F)CC2)c1 (3D coordinates assigned)
CCOCc1c[nH+]c(Cl)c(N2CCN(Cc3cccc(F)c3F)CC2)c1 (nonaromatic ring conformer: 62.94478385368686 kcal/mol)

>  <smiles>  (5) 
CCOCc1cnc(Cl)c(N2CCN(Cc3cccc(F)c3F)CC2)c1

>  <score_type>  (5) 
oracle

>  <origin>  (5) 
adg

>  <m_score__min__energy>  (5) 
-6.1299999999999999

>  <m_primary>  (5) 
energy

$$$$
5:0
     RDKit          3D

 55 57  0  0  0  0  0  0  0  0999 V2000
   58.5070   32.2940   49.6700 C   0  0  0  0  0  0  0  0  0  0  0  0
   59.3670   33.0860   50.6440 C   0  0  0  0  0  0  0  0  0  0  0  0
   60.4290   33.6890   49.9380 O   0  0  0  0  0  0  0  0  0  0  0  0
   61.5530   33.8010   50.7840 C   0  0  0  0  0  0  0  0  0  0  0  0
   62.7820   34.1170   49.9430 C   0  0  0  0  0  0  0  0  0  0  0  0
   62.4030   34.2010   48.5840 O   0  0  0  0  0  0  0  0  0  0  0  0
   63.5350   34.0730   47.7440 C   0  0  0  0  0  0  0  0  0  0  0  0
   63.4040   32.8550   46.8090 C   0  0  0  0  0  0  0  0  0  0  0  0
   63.0210   31.5810   47.5750 C   0  0  0  0  0  0  0  0  0  0  0  0
   61.6240   31.6290   48.0180 N   0  0  0  0  0  0  0  0  0  0  0  0
   60.6070   30.7280   47.5450 C   0  0  0  0  0  0  0  0  0  0  0  0
   60.6930   29.4010   47.9900 C   0  0  0  0  0  0  0  0  0  0  0  0
   59.9450   28.2800   47.6400 C   0  0  0  0  0  0  0  0  0  0  0  0
   58.9780   28.1280   46.6570 C   0  0  0  0  0  0  0  0  0  0  0  0
   58.4380   29.0810   45.8070 C   0  0  0  0  0  0  0  0  0  0  0  0
   58.6740   30.4560   45.8110 C   0  0  0  0  0  0  0  0  0  0  0  0
   57.9990   31.3190   44.9980 N   0  0  0  0  0  0  0  0  0  0  0  0
   56.9690   30.9880   43.9990 C   0  0  0  0  0  0  0  0  0  0  0  0
   57.4030   31.4530   42.6130 C   0  0  0  0  0  0  0  0  0  0  0  0
   58.4670   32.5590   45.2610 C   0  0  0  0  0  0  0  0  0  0  0  0
   58.0690   33.7570   44.6480 C   0  0  0  0  0  0  0  0  0  0  0  0
   58.6280   34.9600   45.0980 C   0  0  0  0  0  0  0  0  0  0  0  0
   59.5560   34.9580   46.1510 C   0  0  0  0  0  0  0  0  0  0  0  0
   59.9540   33.7520   46.7450 C   0  0  0  0  0  0  0  0  0  0  0  0
   59.4210   32.5440   46.2600 C   0  0  0  0  0  0  0  0  0  0  0  0
   59.6360   31.2110   46.6420 C   0  0  0  0  0  0  0  0  0  0  0  0
   57.8115   31.6535   50.2321 H   0  0  0  0  0  0  0  0  0  0  0  0
   57.9355   32.9887   49.0369 H   0  0  0  0  0  0  0  0  0  0  0  0
   59.1524   31.6673   49.0369 H   0  0  0  0  0  0  0  0  0  0  0  0
   58.7565   33.8639   51.1258 H   0  0  0  0  0  0  0  0  0  0  0  0
   59.7699   32.4123   51.4146 H   0  0  0  0  0  0  0  0  0  0  0  0
   61.3871   34.6093   51.5114 H   0  0  0  0  0  0  0  0  0  0  0  0
   61.7066   32.8541   51.3223 H   0  0  0  0  0  0  0  0  0  0  0  0
   63.2122   35.0766   50.2655 H   0  0  0  0  0  0  0  0  0  0  0  0
   63.5324   33.3228   50.0702 H   0  0  0  0  0  0  0  0  0  0  0  0
   63.6337   34.9835   47.1346 H   0  0  0  0  0  0  0  0  0  0  0  0
   64.4229   33.9303   48.3775 H   0  0  0  0  0  0  0  0  0  0  0  0
   62.6277   33.0652   46.0586 H   0  0  0  0  0  0  0  0  0  0  0  0
   64.3812   32.6849   46.3335 H   0  0  0  0  0  0  0  0  0  0  0  0
   63.1589   30.7110   46.9162 H   0  0  0  0  0  0  0  0  0  0  0  0
   63.6656   31.5010   48.4627 H   0  0  0  0  0  0  0  0  0  0  0  0
   61.3490   32.3730   48.6980 H   0  0  0  0  0  0  0  0  0  0  0  0
   61.4790   29.2156   48.7368 H   0  0  0  0  0  0  0  0  0  0  0  0
   60.1524   27.3773   48.2334 H   0  0  0  0  0  0  0  0  0  0  0  0
   58.5844   27.1081   46.5348 H   0  0  0  0  0  0  0  0  0  0  0  0
   57.7424   28.7096   45.0400 H   0  0  0  0  0  0  0  0  0  0  0  0
   56.8154   29.8989   43.9842 H   0  0  0  0  0  0  0  0  0  0  0  0
   56.0329   31.4984   44.2694 H   0  0  0  0  0  0  0  0  0  0  0  0
   58.1505   32.2539   42.7123 H   0  0  0  0  0  0  0  0  0  0  0  0
   57.8424   30.6074   42.0635 H   0  0  0  0  0  0  0  0  0  0  0  0
   56.5292   31.8331   42.0635 H   0  0  0  0  0  0  0  0  0  0  0  0
   57.3329   33.7515   43.8306 H   0  0  0  0  0  0  0  0  0  0  0  0
   58.3386   35.9097   44.6244 H   0  0  0  0  0  0  0  0  0  0  0  0
   59.9739   35.9091   46.5127 H   0  0  0  0  0  0  0  0  0  0  0  0
   60.6724   33.7505   47.5780 H   0  0  0  0  0  0  0  0  0  0  0  0
  1  2  1  0
  2  3  1  0
  3  4  1  0
  4  5  1  0
  5  6  1  0
  6  7  1  0
  7  8  1  0
  8  9  1  0
  9 10  1  0
 10 11  1  0
 11 12  2  0
 12 13  1  0
 13 14  2  0
 14 15  1  0
 15 16  2  0
 16 17  1  0
 17 18  1  0
 18 19  1  0
 17 20  2  0
 20 21  1  0
 21 22  2  0
 22 23  1  0
 23 24  2  0
 24 25  1  0
 25 26  2  0
 26 11  1  0
 26 16  1  0
 25 20  1  0
  1 27  1  0
  1 28  1  0
  1 29  1  0
  2 30  1  0
  2 31  1  0
  4 32  1  0
  4 33  1  0
  5 34  1  0
  5 35  1  0
  7 36  1  0
  7 37  1  0
  8 38  1  0
  8 39  1  0
  9 40  1  0
  9 41  1  0
 10 42  1  0
 12 43  1  0
 13 44  1  0
 14 45  1  0
 15 46  1  0
 18 47  1  0
 18 48  1  0
 19 49  1  0
 19 50  1  0
 19 51  1  0
 21 52  1  0
 22 53  1  0
 23 54  1  0
 24 55  1  0
M  CHG  1  17   1
M  END
>  <UniqueID>  (6) 
6

>  <SMILES>  (6) 
CCOCCOCCCNc1ccccc2[n+](CC)c3ccccc3c1-2

>  <Energy>  (6) 
106.35471026635338

>  <Genealogy>  (6) 
CCOCCOCCCNc1ccccc2[n+](CC)c3ccccc3c1-2 (3D coordinates assigned)
CCOCCOCCCNc1ccccc2[n+](CC)c3ccccc3c1-2 (optimized conformer: 106.35471026635338 kcal/mol)

>  <smiles>  (6) 
CCOCCOCCCNc1ccccc2[n+](CC)c3ccccc3c1-2

>  <score_type>  (6) 
oracle

>  <origin>  (6) 
adg

>  <m_score__min__energy>  (6) 
-6.0800000000000001

>  <m_primary>  (6) 
energy

$$$$
6:0
     RDKit          3D

 77 80  0  0  0  0  0  0  0  0999 V2000
   57.8150   32.1080   51.2790 C   0  0  0  0  0  0  0  0  0  0  0  0
   57.4540   30.6630   51.6010 C   0  0  0  0  0  0  0  0  0  0  0  0
   58.1450   29.8040   50.7160 O   0  0  0  0  0  0  0  0  0  0  0  0
   59.5340   29.8170   50.9950 C   0  0  0  0  0  0  0  0  0  0  0  0
   60.2780   28.9390   49.9830 C   0  0  0  0  0  0  0  0  0  0  0  0
   60.4510   29.6360   48.6300 C   0  0  0  0  0  0  0  0  0  0  0  0
   59.4820   30.7220   48.4650 N   0  0  0  0  0  0  0  0  0  0  0  0
   58.9240   31.0250   47.1750 C   0  0  0  0  0  0  0  0  0  0  0  0
   58.3740   29.9910   46.3950 C   0  0  0  0  0  0  0  0  0  0  0  0
   58.2110   28.6890   46.9190 C   0  0  0  0  0  0  0  0  0  0  0  0
   57.6260   27.6820   46.1540 C   0  0  0  0  0  0  0  0  0  0  0  0
   57.1800   27.9560   44.8680 C   0  0  0  0  0  0  0  0  0  0  0  0
   57.3500   29.2310   44.3230 C   0  0  0  0  0  0  0  0  0  0  0  0
   57.9870   30.2620   45.0570 C   0  0  0  0  0  0  0  0  0  0  0  0
   58.2330   31.5010   44.5040 N   0  0  0  0  0  0  0  0  0  0  0  0
   58.1670   31.6780   43.0350 C   0  0  0  0  0  0  0  0  0  0  0  0
   58.5640   32.5690   45.3170 C   0  0  0  0  0  0  0  0  0  0  0  0
   58.5360   33.8980   44.8290 C   0  0  0  0  0  0  0  0  0  0  0  0
   58.8960   34.9700   45.6360 C   0  0  0  0  0  0  0  0  0  0  0  0
   59.2480   34.7600   46.9610 C   0  0  0  0  0  0  0  0  0  0  0  0
   59.2340   33.4670   47.5110 C   0  0  0  0  0  0  0  0  0  0  0  0
   59.4780   33.2730   48.8830 O   0  0  0  0  0  0  0  0  0  0  0  0
   60.4980   33.9180   49.6400 C   0  0  0  0  0  0  0  0  0  0  0  0
   61.3250   32.8500   50.3900 C   0  0  0  0  0  0  0  0  0  0  0  0
   62.7220   32.6440   49.8840 N   0  0  0  0  0  0  0  0  0  0  0  0
   62.6880   32.3230   48.4300 C   0  0  0  0  0  0  0  0  0  0  0  0
   63.5540   33.8800   50.1060 C   0  0  0  0  0  0  0  0  0  0  0  0
   64.5400   33.7580   51.2830 C   0  0  0  0  0  0  0  0  0  0  0  0
   65.4980   32.6280   51.1110 N   0  0  0  0  0  0  0  0  0  0  0  0
   66.1030   32.3300   52.4360 C   0  0  0  0  0  0  0  0  0  0  0  0
   66.5970   33.0360   50.1920 C   0  0  0  0  0  0  0  0  0  0  0  0
   64.8280   31.3970   50.5690 C   0  0  0  0  0  0  0  0  0  0  0  0
   63.2870   31.4650   50.6200 C   0  0  0  0  0  0  0  0  0  0  0  0
   58.9230   32.3520   46.6790 C   0  0  0  0  0  0  0  0  0  0  0  0
   57.9550   32.6683   52.2152 H   0  0  0  0  0  0  0  0  0  0  0  0
   58.7467   32.1317   50.6947 H   0  0  0  0  0  0  0  0  0  0  0  0
   57.0039   32.5671   50.6947 H   0  0  0  0  0  0  0  0  0  0  0  0
   57.7429   30.4336   52.6373 H   0  0  0  0  0  0  0  0  0  0  0  0
   56.3697   30.5181   51.4861 H   0  0  0  0  0  0  0  0  0  0  0  0
   59.9097   30.8487   50.9283 H   0  0  0  0  0  0  0  0  0  0  0  0
   59.7033   29.4242   52.0084 H   0  0  0  0  0  0  0  0  0  0  0  0
   61.2723   28.6975   50.3869 H   0  0  0  0  0  0  0  0  0  0  0  0
   59.6804   28.0298   49.8208 H   0  0  0  0  0  0  0  0  0  0  0  0
   61.4681   30.0503   48.5674 H   0  0  0  0  0  0  0  0  0  0  0  0
   60.2834   28.8961   47.8335 H   0  0  0  0  0  0  0  0  0  0  0  0
   59.0670   31.1620   49.3180 H   0  0  0  0  0  0  0  0  0  0  0  0
   58.5496   28.4679   47.9420 H   0  0  0  0  0  0  0  0  0  0  0  0
   57.5174   26.6692   46.5692 H   0  0  0  0  0  0  0  0  0  0  0  0
   56.6916   27.1673   44.2769 H   0  0  0  0  0  0  0  0  0  0  0  0
   56.9831   29.4380   43.3069 H   0  0  0  0  0  0  0  0  0  0  0  0
   57.7913   32.6856   42.8036 H   0  0  0  0  0  0  0  0  0  0  0  0
   59.1719   31.5537   42.6052 H   0  0  0  0  0  0  0  0  0  0  0  0
   57.4888   30.9261   42.6052 H   0  0  0  0  0  0  0  0  0  0  0  0
   58.2232   34.0852   43.7911 H   0  0  0  0  0  0  0  0  0  0  0  0
   58.9019   35.9893   45.2225 H   0  0  0  0  0  0  0  0  0  0  0  0
   59.5413   35.6148   47.5881 H   0  0  0  0  0  0  0  0  0  0  0  0
   61.1553   34.4848   48.9641 H   0  0  0  0  0  0  0  0  0  0  0  0
   60.0407   34.6079   50.3645 H   0  0  0  0  0  0  0  0  0  0  0  0
   61.3877   33.1499   51.4465 H   0  0  0  0  0  0  0  0  0  0  0  0
   60.8018   31.8955   50.2310 H   0  0  0  0  0  0  0  0  0  0  0  0
   62.5730   31.2372   48.2968 H   0  0  0  0  0  0  0  0  0  0  0  0
   61.8398   32.8420   47.9597 H   0  0  0  0  0  0  0  0  0  0  0  0
   63.6261   32.6528   47.9597 H   0  0  0  0  0  0  0  0  0  0  0  0
   64.1292   34.0808   49.1902 H   0  0  0  0  0  0  0  0  0  0  0  0
   62.8588   34.6963   50.3516 H   0  0  0  0  0  0  0  0  0  0  0  0
   65.1106   34.6950   51.3637 H   0  0  0  0  0  0  0  0  0  0  0  0
   63.9525   33.5625   52.1922 H   0  0  0  0  0  0  0  0  0  0  0  0
   65.4231   32.6649   53.2332 H   0  0  0  0  0  0  0  0  0  0  0  0
   66.2699   31.2466   52.5276 H   0  0  0  0  0  0  0  0  0  0  0  0
   67.0636   32.8580   52.5276 H   0  0  0  0  0  0  0  0  0  0  0  0
   67.4674   33.3591   50.7820 H   0  0  0  0  0  0  0  0  0  0  0  0
   66.8802   32.1831   49.5577 H   0  0  0  0  0  0  0  0  0  0  0  0
   66.2550   33.8671   49.5577 H   0  0  0  0  0  0  0  0  0  0  0  0
   65.1367   31.2646   49.5215 H   0  0  0  0  0  0  0  0  0  0  0  0
   65.1370   30.5532   51.2034 H   0  0  0  0  0  0  0  0  0  0  0  0
   62.8816   30.5460   50.1715 H   0  0  0  0  0  0  0  0  0  0  0  0
   62.9996   31.5712   51.6765 H   0  0  0  0  0  0  0  0  0  0  0  0
  1  2  1  0
  2  3  1  0
  3  4  1  0
  4  5  1  0
  5  6  1  0
  6  7  1  0
  7  8  1  0
  8  9  2  0
  9 10  1  0
 10 11  2  0
 11 12  1  0
 12 13  2  0
 13 14  1  0
 14 15  2  0
 15 16  1  0
 15 17  1  0
 17 18  2  0
 18 19  1  0
 19 20  2  0
 20 21  1  0
 21 22  1  0
 22 23  1  0
 23 24  1  0
 24 25  1  0
 25 26  1  0
 25 27  1  0
 27 28  1  0
 28 29  1  0
 29 30  1  0
 29 31  1  0
 29 32  1  0
 32 33  1  0
 21 34  2  0
 34  8  1  0
 14  9  1  0
 34 17  1  0
 33 25  1  0
  1 35  1  0
  1 36  1  0
  1 37  1  0
  2 38  1  0
  2 39  1  0
  4 40  1  0
  4 41  1  0
  5 42  1  0
  5 43  1  0
  6 44  1  0
  6 45  1  0
  7 46  1  0
 10 47  1  0
 11 48  1  0
 12 49  1  0
 13 50  1  0
 16 51  1  0
 16 52  1  0
 16 53  1  0
 18 54  1  0
 19 55  1  0
 20 56  1  0
 23 57  1  0
 23 58  1  0
 24 59  1  0
 24 60  1  0
 26 61  1  0
 26 62  1  0
 26 63  1  0
 27 64  1  0
 27 65  1  0
 28 66  1  0
 28 67  1  0
 30 68  1  0
 30 69  1  0
 30 70  1  0
 31 71  1  0
 31 72  1  0
 31 73  1  0
 32 74  1  0
 32 75  1  0
 33 76  1  0
 33 77  1  0
M  CHG  3  15   1  25   1  29   1
M  END
>  <UniqueID>  (7) 
7

>  <SMILES>  (7) 
CCOCCCNc1c2ccccc2[n+](C)c2cccc(OCC[N+]3(C)CC[N+](C)(C)CC3)c12

>  <Energy>  (7) 
130.34079534024963

>  <Genealogy>  (7) 
CCOCCCNc1c2ccccc2[n+](C)c2cccc(OCC[N+]3(C)CC[N+](C)(C)CC3)c12 (3D coordinates assigned)
CCOCCCNc1c2ccccc2[n+](C)c2cccc(OCC[N+]3(C)CC[N+](C)(C)CC3)c12 (nonaromatic ring conformer: 130.34079534024963 kcal/mol)

>  <smiles>  (7) 
CCOCCCNc1c2ccccc2[n+](C)c2cccc(OCC[N+]3(C)CC[N+](C)(C)CC3)c12

>  <score_type>  (7) 
oracle

>  <origin>  (7) 
adg

>  <m_score__min__energy>  (7) 
-3.8300000000000001

>  <m_primary>  (7) 
energy

$$$$
7:0
     RDKit          3D

 40 41  0  0  0  0  0  0  0  0999 V2000
   60.0790   26.5030   46.9890 C   0  0  0  0  0  0  0  0  0  0  0  0
   59.1650   27.7250   47.0790 C   0  0  0  0  0  0  0  0  0  0  0  0
   59.4130   28.4860   48.3850 C   0  0  0  0  0  0  0  0  0  0  0  0
   57.7730   27.2890   47.0080 N   0  0  0  0  0  0  0  0  0  0  0  0
   57.0220   27.2190   45.7930 C   0  0  0  0  0  0  0  0  0  0  0  0
   55.7980   26.9160   45.8120 O   0  0  0  0  0  0  0  0  0  0  0  0
   57.7060   27.4610   44.4900 C   0  0  0  0  0  0  0  0  0  0  0  0
   57.0890   28.5630   43.8360 O   0  0  0  0  0  0  0  0  0  0  0  0
   56.6250   29.6870   44.5270 C   0  0  0  0  0  0  0  0  0  0  0  0
   55.4070   29.7890   44.8410 O   0  0  0  0  0  0  0  0  0  0  0  0
   57.5680   30.7520   44.8860 C   0  0  0  0  0  0  0  0  0  0  0  0
   58.5310   30.6910   45.8870 C   0  0  0  0  0  0  0  0  0  0  0  0
   59.2970   31.8620   46.0020 C   0  0  0  0  0  0  0  0  0  0  0  0
   58.9100   32.8510   45.0900 C   0  0  0  0  0  0  0  0  0  0  0  0
   57.6480   32.2590   44.1470 S   0  0  0  0  0  0  0  0  0  0  0  0
   59.4900   34.2240   44.9560 C   0  0  0  0  0  0  0  0  0  0  0  0
   59.2760   35.0740   46.2190 C   0  0  0  0  0  0  0  0  0  0  0  0
   59.3540   34.2990   47.5510 C   0  0  0  0  0  0  0  0  0  0  0  0
   60.5960   33.3950   47.6510 C   0  0  0  0  0  0  0  0  0  0  0  0
   60.3850   31.9890   47.0490 C   0  0  0  0  0  0  0  0  0  0  0  0
   60.3348   26.1610   48.0027 H   0  0  0  0  0  0  0  0  0  0  0  0
   59.5607   25.6964   46.4498 H   0  0  0  0  0  0  0  0  0  0  0  0
   60.9992   26.7723   46.4498 H   0  0  0  0  0  0  0  0  0  0  0  0
   59.3827   28.4020   46.2398 H   0  0  0  0  0  0  0  0  0  0  0  0
   59.1984   27.8274   49.2395 H   0  0  0  0  0  0  0  0  0  0  0  0
   60.4633   28.8102   48.4267 H   0  0  0  0  0  0  0  0  0  0  0  0
   58.7554   29.3668   48.4267 H   0  0  0  0  0  0  0  0  0  0  0  0
   58.7679   27.6863   44.6681 H   0  0  0  0  0  0  0  0  0  0  0  0
   57.6260   26.5641   43.8582 H   0  0  0  0  0  0  0  0  0  0  0  0
   58.6787   29.8092   46.5278 H   0  0  0  0  0  0  0  0  0  0  0  0
   60.5702   34.1349   44.7685 H   0  0  0  0  0  0  0  0  0  0  0  0
   58.9774   34.7258   44.1220 H   0  0  0  0  0  0  0  0  0  0  0  0
   60.0464   35.8590   46.2359 H   0  0  0  0  0  0  0  0  0  0  0  0
   58.2508   35.4674   46.1532 H   0  0  0  0  0  0  0  0  0  0  0  0
   59.3815   35.0246   48.3773 H   0  0  0  0  0  0  0  0  0  0  0  0
   58.4689   33.6480   47.6044 H   0  0  0  0  0  0  0  0  0  0  0  0
   61.4248   33.8818   47.1162 H   0  0  0  0  0  0  0  0  0  0  0  0
   60.8120   33.2595   48.7210 H   0  0  0  0  0  0  0  0  0  0  0  0
   61.3330   31.6770   46.5864 H   0  0  0  0  0  0  0  0  0  0  0  0
   60.0588   31.3572   47.8883 H   0  0  0  0  0  0  0  0  0  0  0  0
  1  2  1  0
  2  3  1  0
  2  4  1  0
  4  5  1  0
  5  6  2  0
  5  7  1  0
  7  8  1  0
  8  9  1  0
  9 10  2  0
  9 11  1  0
 11 12  2  0
 12 13  1  0
 13 14  2  0
 14 15  1  0
 14 16  1  0
 16 17  1  0
 17 18  1  0
 18 19  1  0
 19 20  1  0
 15 11  1  0
 20 13  1  0
  1 21  1  0
  1 22  1  0
  1 23  1  0
  2 24  1  0
  3 25  1  0
  3 26  1  0
  3 27  1  0
  7 28  1  0
  7 29  1  0
 12 30  1  0
 16 31  1  0
 16 32  1  0
 17 33  1  0
 17 34  1  0
 18 35  1  0
 18 36  1  0
 19 37  1  0
 19 38  1  0
 20 39  1  0
 20 40  1  0
M  CHG  1   4  -1
M  END
>  <UniqueID>  (8) 
8

>  <SMILES>  (8) 
CC(C)[N-]C(=O)COC(=O)c1cc2c(s1)CCCCC2

>  <Energy>  (8) 
58.16763298394821

>  <Genealogy>  (8) 
CC(C)[N-]C(=O)COC(=O)c1cc2c(s1)CCCCC2 (protonated)
CC(C)[N-]C(=O)COC(=O)c1cc2c(s1)CCCCC2 (3D coordinates assigned)
CC(C)[N-]C(=O)COC(=O)c1cc2c(s1)CCCCC2 (nonaromatic ring conformer: 58.16763298394821 kcal/mol)

>  <smiles>  (8) 
CC(C)NC(=O)COC(=O)c1cc2c(s1)CCCCC2

>  <score_type>  (8) 
oracle

>  <origin>  (8) 
adg

>  <m_score__min__energy>  (8) 
-7.4699999999999998

>  <m_primary>  (8) 
energy

$$$$
8:0
     RDKit          3D

 46 48  0  0  0  0  0  0  0  0999 V2000
   60.3800   29.9220   47.9060 C   0  0  0  0  0  0  0  0  0  0  0  0
   60.6930   30.0560   46.4200 C   0  0  0  0  0  0  0  0  0  0  0  0
   59.7460   30.9060   45.7730 O   0  0  0  0  0  0  0  0  0  0  0  0
   58.4940   30.5170   45.2620 C   0  0  0  0  0  0  0  0  0  0  0  0
   57.9030   29.2830   45.6050 C   0  0  0  0  0  0  0  0  0  0  0  0
   56.6850   28.9010   45.0420 C   0  0  0  0  0  0  0  0  0  0  0  0
   56.0570   29.7240   44.1090 C   0  0  0  0  0  0  0  0  0  0  0  0
   56.6330   30.9420   43.7530 C   0  0  0  0  0  0  0  0  0  0  0  0
   57.8260   31.3770   44.3570 C   0  0  0  0  0  0  0  0  0  0  0  0
   58.4070   32.7220   43.9640 C   0  0  0  0  0  0  0  0  0  0  0  0
   58.0950   33.8100   44.9180 N   0  0  0  0  0  0  0  0  0  0  0  0
   59.0060   34.9810   44.8970 C   0  0  0  0  0  0  0  0  0  0  0  0
   59.5490   35.3410   46.2830 C   0  0  0  0  0  0  0  0  0  0  0  0
   59.8010   34.1110   47.0320 N   0  0  0  0  0  0  0  0  0  0  0  0
   61.1370   33.6770   47.3680 C   0  0  0  0  0  0  0  0  0  0  0  0
   62.1880   33.8250   46.4430 C   0  0  0  0  0  0  0  0  0  0  0  0
   63.4910   33.4490   46.7840 C   0  0  0  0  0  0  0  0  0  0  0  0
   63.7590   32.9230   48.0500 C   0  0  0  0  0  0  0  0  0  0  0  0
   62.7260   32.7690   48.9750 C   0  0  0  0  0  0  0  0  0  0  0  0
   61.4210   33.1420   48.6380 C   0  0  0  0  0  0  0  0  0  0  0  0
   58.6450   33.2590   47.3210 C   0  0  0  0  0  0  0  0  0  0  0  0
   57.5570   33.4000   46.2370 C   0  0  0  0  0  0  0  0  0  0  0  0
   61.2340   30.2876   48.4950 H   0  0  0  0  0  0  0  0  0  0  0  0
   59.4866   30.5165   48.1476 H   0  0  0  0  0  0  0  0  0  0  0  0
   60.1935   28.8652   48.1476 H   0  0  0  0  0  0  0  0  0  0  0  0
   61.6998   30.4830   46.3014 H   0  0  0  0  0  0  0  0  0  0  0  0
   60.6412   29.0585   45.9593 H   0  0  0  0  0  0  0  0  0  0  0  0
   58.4061   28.6171   46.3216 H   0  0  0  0  0  0  0  0  0  0  0  0
   56.2195   27.9484   45.3351 H   0  0  0  0  0  0  0  0  0  0  0  0
   55.1058   29.4119   43.6532 H   0  0  0  0  0  0  0  0  0  0  0  0
   56.1489   31.5703   42.9908 H   0  0  0  0  0  0  0  0  0  0  0  0
   59.5004   32.6215   43.8983 H   0  0  0  0  0  0  0  0  0  0  0  0
   57.9508   32.9990   43.0022 H   0  0  0  0  0  0  0  0  0  0  0  0
   59.8552   34.7528   44.2362 H   0  0  0  0  0  0  0  0  0  0  0  0
   58.4257   35.8432   44.5366 H   0  0  0  0  0  0  0  0  0  0  0  0
   60.4868   35.9058   46.1760 H   0  0  0  0  0  0  0  0  0  0  0  0
   58.8139   35.9582   46.8203 H   0  0  0  0  0  0  0  0  0  0  0  0
   61.9827   34.2394   45.4449 H   0  0  0  0  0  0  0  0  0  0  0  0
   64.3058   33.5676   46.0546 H   0  0  0  0  0  0  0  0  0  0  0  0
   64.7849   32.6301   48.3177 H   0  0  0  0  0  0  0  0  0  0  0  0
   62.9384   32.3535   49.9711 H   0  0  0  0  0  0  0  0  0  0  0  0
   60.6106   33.0162   49.3711 H   0  0  0  0  0  0  0  0  0  0  0  0
   58.9748   32.2104   47.3628 H   0  0  0  0  0  0  0  0  0  0  0  0
   58.2164   33.5721   48.2845 H   0  0  0  0  0  0  0  0  0  0  0  0
   57.0508   32.4302   46.1218 H   0  0  0  0  0  0  0  0  0  0  0  0
   56.8670   34.1901   46.5680 H   0  0  0  0  0  0  0  0  0  0  0  0
  1  2  1  0
  2  3  1  0
  3  4  1  0
  4  5  2  0
  5  6  1  0
  6  7  2  0
  7  8  1  0
  8  9  2  0
  9 10  1  0
 10 11  1  0
 11 12  1  0
 12 13  1  0
 13 14  1  0
 14 15  1  0
 15 16  2  0
 16 17  1  0
 17 18  2  0
 18 19  1  0
 19 20  2  0
 14 21  1  0
 21 22  1  0
  9  4  1  0
 22 11  1  0
 20 15  1  0
  1 23  1  0
  1 24  1  0
  1 25  1  0
  2 26  1  0
  2 27  1  0
  5 28  1  0
  6 29  1  0
  7 30  1  0
  8 31  1  0
 10 32  1  0
 10 33  1  0
 12 34  1  0
 12 35  1  0
 13 36  1  0
 13 37  1  0
 16 38  1  0
 17 39  1  0
 18 40  1  0
 19 41  1  0
 20 42  1  0
 21 43  1  0
 21 44  1  0
 22 45  1  0
 22 46  1  0
M  END
>  <UniqueID>  (9) 
9

>  <SMILES>  (9) 
CCOc1ccccc1CN1CCN(c2ccccc2)CC1

>  <Energy>  (9) 
59.68036720714122

>  <Genealogy>  (9) 
CCOc1ccccc1CN1CCN(c2ccccc2)CC1 (3D coordinates assigned)
CCOc1ccccc1CN1CCN(c2ccccc2)CC1 (nonaromatic ring conformer: 59.68036720714122 kcal/mol)

>  <smiles>  (9) 
CCOc1ccccc1CN1CCN(c2ccccc2)CC1

>  <score_type>  (9) 
oracle

>  <origin>  (9) 
adg

>  <m_score__min__energy>  (9) 
-7.9000000000000004

>  <m_primary>  (9) 
energy

$$$$
9:0
     RDKit          3D

 25 26  0  0  0  0  0  0  0  0999 V2000
   56.6310   29.8010   43.2700 C   0  0  0  0  0  0  0  0  0  0  0  0
   56.4300   30.4750   44.5070 O   0  0  0  0  0  0  0  0  0  0  0  0
   57.3020   31.4390   45.0370 C   0  0  0  0  0  0  0  0  0  0  0  0
   57.3710   32.7490   44.5320 C   0  0  0  0  0  0  0  0  0  0  0  0
   58.2680   33.6680   45.0780 C   0  0  0  0  0  0  0  0  0  0  0  0
   58.3420   34.9150   44.5470 F   0  0  0  0  0  0  0  0  0  0  0  0
   59.1050   33.2990   46.1410 C   0  0  0  0  0  0  0  0  0  0  0  0
   59.0060   31.9990   46.6910 C   0  0  0  0  0  0  0  0  0  0  0  0
   58.1250   31.0760   46.1100 C   0  0  0  0  0  0  0  0  0  0  0  0
   58.0410   29.8200   46.6200 F   0  0  0  0  0  0  0  0  0  0  0  0
   59.7190   31.5790   47.8310 O   0  0  0  0  0  0  0  0  0  0  0  0
   59.5860   32.0880   49.1610 C   0  0  0  0  0  0  0  0  0  0  0  0
   60.2860   33.4500   49.3260 C   0  0  0  0  0  0  0  0  0  0  0  0
   59.7380   34.5610   48.4060 C   0  0  0  0  0  0  0  0  0  0  0  0
   60.3510   34.4710   46.6860 S   0  0  0  0  0  0  0  0  0  0  0  0
   56.9404   28.7634   43.4639 H   0  0  0  0  0  0  0  0  0  0  0  0
   55.6933   29.8026   42.6950 H   0  0  0  0  0  0  0  0  0  0  0  0
   57.4147   30.3160   42.6950 H   0  0  0  0  0  0  0  0  0  0  0  0
   56.7148   33.0512   43.7025 H   0  0  0  0  0  0  0  0  0  0  0  0
   58.5170   32.2071   49.3912 H   0  0  0  0  0  0  0  0  0  0  0  0
   60.0620   31.3739   49.8491 H   0  0  0  0  0  0  0  0  0  0  0  0
   60.1644   33.7757   50.3696 H   0  0  0  0  0  0  0  0  0  0  0  0
   61.3388   33.2992   49.0452 H   0  0  0  0  0  0  0  0  0  0  0  0
   58.6408   34.4844   48.3867 H   0  0  0  0  0  0  0  0  0  0  0  0
   60.0883   35.5183   48.8193 H   0  0  0  0  0  0  0  0  0  0  0  0
  1  2  1  0
  2  3  1  0
  3  4  2  0
  4  5  1  0
  5  6  1  0
  5  7  2  0
  7  8  1  0
  8  9  2  0
  9 10  1  0
  8 11  1  0
 11 12  1  0
 12 13  1  0
 13 14  1  0
 14 15  1  0
  9  3  1  0
 15  7  1  0
  1 16  1  0
  1 17  1  0
  1 18  1  0
  4 19  1  0
 12 20  1  0
 12 21  1  0
 13 22  1  0
 13 23  1  0
 14 24  1  0
 14 25  1  0
M  END
>  <UniqueID>  (10) 
10

>  <SMILES>  (10) 
COc1cc(F)c2c(c1F)OCCCS2

>  <Energy>  (10) 
33.29948554506217

>  <Genealogy>  (10) 
COc1cc(F)c2c(c1F)OCCCS2 (3D coordinates assigned)
COc1cc(F)c2c(c1F)OCCCS2 (nonaromatic ring conformer: 33.29948554506217 kcal/mol)

>  <smiles>  (10) 
COc1cc(F)c2c(c1F)OCCCS2

>  <score_type>  (10) 
oracle

>  <origin>  (10) 
adg

>  <m_score__min__energy>  (10) 
-3.3399999999999999

>  <m_primary>  (10) 
energy

$$$$
10:0
     RDKit          3D

 65 67  0  0  0  0  0  0  0  0999 V2000
   59.5260   29.3480   48.5130 C   0  0  0  0  0  0  0  0  0  0  0  0
   60.1010   29.9600   47.2380 C   0  0  0  0  0  0  0  0  0  0  0  0
   59.0840   29.9860   46.1630 N   0  0  0  0  0  0  0  0  0  0  0  0
   59.6390   29.6390   44.8350 C   0  0  0  0  0  0  0  0  0  0  0  0
   60.7700   28.6010   44.8940 C   0  0  0  0  0  0  0  0  0  0  0  0
   57.8510   29.2280   46.4940 C   0  0  0  0  0  0  0  0  0  0  0  0
   57.1520   28.7790   45.2080 C   0  0  0  0  0  0  0  0  0  0  0  0
   55.8000   29.1990   45.2140 O   0  0  0  0  0  0  0  0  0  0  0  0
   55.5280   30.0320   44.1080 C   0  0  0  0  0  0  0  0  0  0  0  0
   56.7470   30.9010   43.8250 C   0  0  0  0  0  0  0  0  0  0  0  0
   57.0630   31.6420   44.9920 O   0  0  0  0  0  0  0  0  0  0  0  0
   58.2020   32.3800   44.7860 N   0  0  0  0  0  0  0  0  0  0  0  0
   57.9680   33.8050   45.0670 C   0  0  0  0  0  0  0  0  0  0  0  0
   58.1710   34.0830   46.5550 C   0  0  0  0  0  0  0  0  0  0  0  0
   58.6620   32.8880   47.2420 N   0  0  0  0  0  0  0  0  0  0  0  0
   59.6390   32.9800   48.2930 C   0  0  0  0  0  0  0  0  0  0  0  0
   60.9770   33.2860   47.9910 C   0  0  0  0  0  0  0  0  0  0  0  0
   61.4040   33.4280   46.6540 C   0  0  0  0  0  0  0  0  0  0  0  0
   62.7320   33.7230   46.3570 C   0  0  0  0  0  0  0  0  0  0  0  0
   63.6620   33.8570   47.3820 C   0  0  0  0  0  0  0  0  0  0  0  0
   63.2640   33.7200   48.7120 C   0  0  0  0  0  0  0  0  0  0  0  0
   61.9080   33.4660   49.0500 C   0  0  0  0  0  0  0  0  0  0  0  0
   61.4870   33.3840   50.3640 N   0  0  0  0  0  0  0  0  0  0  0  0
   62.3750   33.8450   51.4540 C   0  0  0  0  0  0  0  0  0  0  0  0
   60.2280   32.8910   50.6600 C   0  0  0  0  0  0  0  0  0  0  0  0
   59.8590   32.5280   51.9800 C   0  0  0  0  0  0  0  0  0  0  0  0
   58.5670   32.0830   52.2710 C   0  0  0  0  0  0  0  0  0  0  0  0
   58.1270   31.6710   53.9220 Cl  0  0  0  0  0  0  0  0  0  0  0  0
   57.6250   31.9630   51.2540 C   0  0  0  0  0  0  0  0  0  0  0  0
   57.9750   32.2630   49.9400 C   0  0  0  0  0  0  0  0  0  0  0  0
   59.2720   32.7200   49.6250 C   0  0  0  0  0  0  0  0  0  0  0  0
   59.9810   29.8322   49.3897 H   0  0  0  0  0  0  0  0  0  0  0  0
   58.4368   29.5004   48.5340 H   0  0  0  0  0  0  0  0  0  0  0  0
   59.7459   28.2704   48.5340 H   0  0  0  0  0  0  0  0  0  0  0  0
   60.4301   30.9884   47.4481 H   0  0  0  0  0  0  0  0  0  0  0  0
   60.9511   29.3467   46.9046 H   0  0  0  0  0  0  0  0  0  0  0  0
   58.8268   29.2336   44.2137 H   0  0  0  0  0  0  0  0  0  0  0  0
   60.0678   30.5601   44.4136 H   0  0  0  0  0  0  0  0  0  0  0  0
   61.0106   28.3802   45.9444 H   0  0  0  0  0  0  0  0  0  0  0  0
   60.4473   27.6781   44.3899 H   0  0  0  0  0  0  0  0  0  0  0  0
   61.6619   29.0015   44.3899 H   0  0  0  0  0  0  0  0  0  0  0  0
   58.1164   28.3439   47.0923 H   0  0  0  0  0  0  0  0  0  0  0  0
   57.1716   29.8758   47.0673 H   0  0  0  0  0  0  0  0  0  0  0  0
   57.6659   29.2211   44.3417 H   0  0  0  0  0  0  0  0  0  0  0  0
   57.1865   27.6813   45.1453 H   0  0  0  0  0  0  0  0  0  0  0  0
   55.3049   29.4126   43.2268 H   0  0  0  0  0  0  0  0  0  0  0  0
   54.6613   30.6716   44.3308 H   0  0  0  0  0  0  0  0  0  0  0  0
   57.5999   30.2628   43.5505 H   0  0  0  0  0  0  0  0  0  0  0  0
   56.5302   31.5884   42.9940 H   0  0  0  0  0  0  0  0  0  0  0  0
   59.0210   32.0120   45.3310 H   0  0  0  0  0  0  0  0  0  0  0  0
   58.6749   34.4126   44.4829 H   0  0  0  0  0  0  0  0  0  0  0  0
   56.9358   34.0637   44.7884 H   0  0  0  0  0  0  0  0  0  0  0  0
   58.9038   34.8947   46.6740 H   0  0  0  0  0  0  0  0  0  0  0  0
   57.2057   34.3728   46.9956 H   0  0  0  0  0  0  0  0  0  0  0  0
   58.4020   31.9420   46.8710 H   0  0  0  0  0  0  0  0  0  0  0  0
   60.6790   33.3042   45.8361 H   0  0  0  0  0  0  0  0  0  0  0  0
   63.0457   33.8502   45.3104 H   0  0  0  0  0  0  0  0  0  0  0  0
   64.7142   34.0716   47.1435 H   0  0  0  0  0  0  0  0  0  0  0  0
   64.0130   33.8102   49.5125 H   0  0  0  0  0  0  0  0  0  0  0  0
   61.9170   33.6072   52.4254 H   0  0  0  0  0  0  0  0  0  0  0  0
   63.3479   33.3381   51.3735 H   0  0  0  0  0  0  0  0  0  0  0  0
   62.5203   34.9324   51.3735 H   0  0  0  0  0  0  0  0  0  0  0  0
   60.6020   32.5979   52.7881 H   0  0  0  0  0  0  0  0  0  0  0  0
   56.6028   31.6308   51.4882 H   0  0  0  0  0  0  0  0  0  0  0  0
   57.2315   32.1422   49.1383 H   0  0  0  0  0  0  0  0  0  0  0  0
  1  2  1  0
  2  3  1  0
  3  4  1  0
  4  5  1  0
  3  6  1  0
  6  7  1  0
  7  8  1  0
  8  9  1  0
  9 10  1  0
 10 11  1  0
 11 12  1  0
 12 13  1  0
 13 14  1  0
 14 15  1  0
 15 16  1  0
 16 17  2  0
 17 18  1  0
 18 19  2  0
 19 20  1  0
 20 21  2  0
 21 22  1  0
 22 23  2  0
 23 24  1  0
 23 25  1  0
 25 26  2  0
 26 27  1  0
 27 28  1  0
 27 29  2  0
 29 30  1  0
 30 31  2  0
 31 16  1  0
 22 17  1  0
 31 25  1  0
  1 32  1  0
  1 33  1  0
  1 34  1  0
  2 35  1  0
  2 36  1  0
  4 37  1  0
  4 38  1  0
  5 39  1  0
  5 40  1  0
  5 41  1  0
  6 42  1  0
  6 43  1  0
  7 44  1  0
  7 45  1  0
  9 46  1  0
  9 47  1  0
 10 48  1  0
 10 49  1  0
 12 50  1  0
 13 51  1  0
 13 52  1  0
 14 53  1  0
 14 54  1  0
 15 55  1  0
 18 56  1  0
 19 57  1  0
 20 58  1  0
 21 59  1  0
 24 60  1  0
 24 61  1  0
 24 62  1  0
 26 63  1  0
 29 64  1  0
 30 65  1  0
M  CHG  1  23   1
M  END
>  <UniqueID>  (11) 
11

>  <SMILES>  (11) 
CCN(CC)CCOCCONCCNc1c2ccccc2[n+](C)c2cc(Cl)ccc12

>  <Energy>  (11) 
94.28649894920467

>  <Genealogy>  (11) 
CCN(CC)CCOCCONCCNc1c2ccccc2[n+](C)c2cc(Cl)ccc12 (3D coordinates assigned)
CCN(CC)CCOCCONCCNc1c2ccccc2[n+](C)c2cc(Cl)ccc12 (optimized conformer: 94.28649894920467 kcal/mol)

>  <smiles>  (11) 
CCN(CC)CCOCCONCCNc1c2ccccc2[n+](C)c2cc(Cl)ccc12

>  <score_type>  (11) 
oracle

>  <origin>  (11) 
adg

>  <m_score__min__energy>  (11) 
-5.9400000000000004

>  <m_primary>  (11) 
energy

$$$$
12:0
     RDKit          3D

 44 47  0  0  0  0  0  0  0  0999 V2000
   57.4637   24.5808   48.1505 H   0  0  0  0  0  0  0  0  0  0  0  0
   57.6340   25.3790   47.4130 C   0  0  0  0  0  0  0  0  0  0  0  0
   56.5880   25.8090   46.5990 C   0  0  0  0  0  0  0  0  0  0  0  0
   55.5936   25.3492   46.6978 H   0  0  0  0  0  0  0  0  0  0  0  0
   56.7950   26.8210   45.6580 C   0  0  0  0  0  0  0  0  0  0  0  0
   55.9604   27.1524   45.0227 H   0  0  0  0  0  0  0  0  0  0  0  0
   58.0650   27.4230   45.5140 C   0  0  0  0  0  0  0  0  0  0  0  0
   58.3100   28.4560   44.5630 C   0  0  0  0  0  0  0  0  0  0  0  0
   57.1900   28.9450   43.6510 C   0  0  0  0  0  0  0  0  0  0  0  0
   56.6519   28.0647   43.2695 H   0  0  0  0  0  0  0  0  0  0  0  0
   57.6741   29.5378   42.8609 H   0  0  0  0  0  0  0  0  0  0  0  0
   56.1910   29.8540   44.3040 C   0  0  0  0  0  0  0  0  0  0  0  0
   55.1640   29.3600   44.8410 O   0  0  0  0  0  0  0  0  0  0  0  0
   56.4480   31.2680   44.3350 N   0  0  0  0  0  0  0  0  0  0  0  0
   57.3210   31.9000   45.0660 C   0  0  0  0  0  0  0  0  0  0  0  0
   58.2460   31.2390   46.3320 S   0  0  0  0  0  0  0  0  0  0  0  0
   59.0180   32.7010   46.6290 C   0  0  0  0  0  0  0  0  0  0  0  0
   59.9860   32.9930   47.5840 C   0  0  0  0  0  0  0  0  0  0  0  0
   60.3472   32.2149   48.2726 H   0  0  0  0  0  0  0  0  0  0  0  0
   60.4940   34.3030   47.6520 C   0  0  0  0  0  0  0  0  0  0  0  0
   61.4710   34.5810   48.6230 O   0  0  0  0  0  0  0  0  0  0  0  0
   62.6650   33.8300   48.8380 C   0  0  0  0  0  0  0  0  0  0  0  0
   62.4015   32.8406   49.2401 H   0  0  0  0  0  0  0  0  0  0  0  0
   63.3015   34.3752   49.5505 H   0  0  0  0  0  0  0  0  0  0  0  0
   63.4340   33.6510   47.5320 C   0  0  0  0  0  0  0  0  0  0  0  0
   64.4832   33.4068   47.7548 H   0  0  0  0  0  0  0  0  0  0  0  0
   62.9829   32.8338   46.9499 H   0  0  0  0  0  0  0  0  0  0  0  0
   63.3902   34.5834   46.9499 H   0  0  0  0  0  0  0  0  0  0  0  0
   60.0140   35.2850   46.7440 C   0  0  0  0  0  0  0  0  0  0  0  0
   60.4131   36.3091   46.7891 H   0  0  0  0  0  0  0  0  0  0  0  0
   59.0350   34.9620   45.7890 C   0  0  0  0  0  0  0  0  0  0  0  0
   58.6630   35.7243   45.0887 H   0  0  0  0  0  0  0  0  0  0  0  0
   58.5430   33.6560   45.7450 C   0  0  0  0  0  0  0  0  0  0  0  0
   57.6000   33.2120   44.8750 N   0  0  0  0  0  0  0  0  0  0  0  0
   57.1460   33.8070   44.1460 H   0  0  0  0  0  0  0  0  0  0  0  0
   59.6050   29.0200   44.4970 C   0  0  0  0  0  0  0  0  0  0  0  0
   59.8082   29.8261   43.7766 H   0  0  0  0  0  0  0  0  0  0  0  0
   60.6280   28.5710   45.3300 C   0  0  0  0  0  0  0  0  0  0  0  0
   61.6282   29.0233   45.2593 H   0  0  0  0  0  0  0  0  0  0  0  0
   60.3930   27.5550   46.2500 C   0  0  0  0  0  0  0  0  0  0  0  0
   61.2094   27.2042   46.8984 H   0  0  0  0  0  0  0  0  0  0  0  0
   59.1240   26.9770   46.3550 C   0  0  0  0  0  0  0  0  0  0  0  0
   58.8960   25.9590   47.2940 C   0  0  0  0  0  0  0  0  0  0  0  0
   59.7181   25.6168   47.9399 H   0  0  0  0  0  0  0  0  0  0  0  0
  1  2  1  0
  2  3  2  0
  3  4  1  0
  3  5  1  0
  5  6  1  0
  5  7  2  0
  7  8  1  0
  8  9  1  0
  9 10  1  0
  9 11  1  0
  9 12  1  0
 12 13  2  0
 12 14  1  0
 14 15  2  0
 15 16  1  0
 16 17  1  0
 17 18  2  0
 18 19  1  0
 18 20  1  0
 20 21  1  0
 21 22  1  0
 22 23  1  0
 22 24  1  0
 22 25  1  0
 25 26  1  0
 25 27  1  0
 25 28  1  0
 20 29  2  0
 29 30  1  0
 29 31  1  0
 31 32  1  0
 31 33  2  0
 33 34  1  0
 34 35  1  0
  8 36  2  0
 36 37  1  0
 36 38  1  0
 38 39  1  0
 38 40  2  0
 40 41  1  0
 40 42  1  0
 42 43  2  0
 43 44  1  0
 43  2  1  0
 42  7  1  0
 34 15  1  0
 33 17  1  0
M  END
>  <UniqueID>  (12) 
12

>  <SMILES>  (12) 
CCOc1ccc2[nH]/c(=N/C(=O)Cc3cccc4ccccc34)sc2c1

>  <Energy>  (12) 
91.98710210489227

>  <Genealogy>  (12) 
CCOc1ccc2[nH]/c(=N/C(=O)Cc3cccc4ccccc34)sc2c1 (cis-trans isomerization)
CCOc1ccc2[nH]/c(=N/C(=O)Cc3cccc4ccccc34)sc2c1 (3D coordinates assigned)
CCOc1ccc2[nH]/c(=N/C(=O)Cc3cccc4ccccc34)sc2c1 (optimized conformer: 91.98710210489227 kcal/mol)

>  <smiles>  (12) 
CCOc1ccc2[nH]c(=NC(=O)Cc3cccc4ccccc34)sc2c1

>  <score_type>  (12) 
oracle

>  <origin>  (12) 
adg

>  <m_score__min__energy>  (12) 
-8.9700000000000006

>  <m_primary>  (12) 
energy

$$$$
13:0
     RDKit          3D

 50 51  0  0  0  0  0  0  0  0999 V2000
   58.2070   27.6670   43.4010 C   0  0  0  0  0  0  0  0  0  0  0  0
   58.6050   28.6630   44.4420 C   0  0  0  0  0  0  0  0  0  0  0  0
   59.8610   28.8200   44.8960 N   0  0  0  0  0  0  0  0  0  0  0  0
   59.7980   29.8150   45.8060 C   0  0  0  0  0  0  0  0  0  0  0  0
   61.0140   30.3410   46.5060 C   0  0  0  0  0  0  0  0  0  0  0  0
   58.5410   30.3150   45.9360 N   0  0  0  0  0  0  0  0  0  0  0  0
   58.1330   31.4950   46.7150 C   0  0  0  0  0  0  0  0  0  0  0  0
   57.7370   32.6720   45.8080 C   0  0  0  0  0  0  0  0  0  0  0  0
   58.8830   33.2070   44.9300 C   0  0  0  0  0  0  0  0  0  0  0  0
   59.7470   34.3030   45.5840 C   0  0  0  0  0  0  0  0  0  0  0  0
   59.7770   34.2360   47.1230 C   0  0  0  0  0  0  0  0  0  0  0  0
   61.0380   33.6460   47.6280 N   0  0  0  0  0  0  0  0  0  0  0  0
   61.4140   34.2070   48.9500 C   0  0  0  0  0  0  0  0  0  0  0  0
   62.9200   34.0510   49.2610 C   0  0  0  0  0  0  0  0  0  0  0  0
   63.5290   32.9170   48.5410 N   0  0  0  0  0  0  0  0  0  0  0  0
   63.0530   31.6210   49.0520 C   0  0  0  0  0  0  0  0  0  0  0  0
   63.3690   33.0320   47.0720 C   0  0  0  0  0  0  0  0  0  0  0  0
   62.1230   33.8380   46.6520 C   0  0  0  0  0  0  0  0  0  0  0  0
   57.7910   29.5800   45.0800 C   0  0  0  0  0  0  0  0  0  0  0  0
   56.3800   29.7290   44.8720 N   0  0  0  0  0  0  0  0  0  0  0  0
   55.9020   30.8390   44.5640 O   0  0  0  0  0  0  0  0  0  0  0  0
   55.5230   28.7030   45.1980 O   0  0  0  0  0  0  0  0  0  0  0  0
   57.8413   26.7519   43.8898 H   0  0  0  0  0  0  0  0  0  0  0  0
   57.4094   28.0913   42.7735 H   0  0  0  0  0  0  0  0  0  0  0  0
   59.0774   27.4248   42.7735 H   0  0  0  0  0  0  0  0  0  0  0  0
   60.7110   28.2910   44.5980 H   0  0  0  0  0  0  0  0  0  0  0  0
   60.8669   30.2774   47.5943 H   0  0  0  0  0  0  0  0  0  0  0  0
   61.8905   29.7416   46.2188 H   0  0  0  0  0  0  0  0  0  0  0  0
   61.1773   31.3902   46.2188 H   0  0  0  0  0  0  0  0  0  0  0  0
   57.2719   31.2254   47.3441 H   0  0  0  0  0  0  0  0  0  0  0  0
   58.9893   31.8109   47.3290 H   0  0  0  0  0  0  0  0  0  0  0  0
   56.9229   32.3394   45.1473 H   0  0  0  0  0  0  0  0  0  0  0  0
   57.4376   33.4958   46.4726 H   0  0  0  0  0  0  0  0  0  0  0  0
   59.5395   32.3624   44.6738 H   0  0  0  0  0  0  0  0  0  0  0  0
   58.4078   33.6720   44.0537 H   0  0  0  0  0  0  0  0  0  0  0  0
   60.7772   34.2003   45.2123 H   0  0  0  0  0  0  0  0  0  0  0  0
   59.2963   35.2695   45.3143 H   0  0  0  0  0  0  0  0  0  0  0  0
   59.6757   35.2549   47.5249 H   0  0  0  0  0  0  0  0  0  0  0  0
   58.9461   33.5943   47.4515 H   0  0  0  0  0  0  0  0  0  0  0  0
   61.1618   35.2776   48.9620 H   0  0  0  0  0  0  0  0  0  0  0  0
   60.8580   33.6480   49.7170 H   0  0  0  0  0  0  0  0  0  0  0  0
   63.4388   34.9754   48.9673 H   0  0  0  0  0  0  0  0  0  0  0  0
   63.0211   33.8567   50.3390 H   0  0  0  0  0  0  0  0  0  0  0  0
   63.0586   31.6361   50.1519 H   0  0  0  0  0  0  0  0  0  0  0  0
   62.0293   31.4389   48.6930 H   0  0  0  0  0  0  0  0  0  0  0  0
   63.7155   30.8196   48.6930 H   0  0  0  0  0  0  0  0  0  0  0  0
   64.2604   33.5295   46.6622 H   0  0  0  0  0  0  0  0  0  0  0  0
   63.2436   32.0125   46.6786 H   0  0  0  0  0  0  0  0  0  0  0  0
   62.3815   34.9060   46.6021 H   0  0  0  0  0  0  0  0  0  0  0  0
   61.7844   33.4860   45.6664 H   0  0  0  0  0  0  0  0  0  0  0  0
  1  2  1  0
  2  3  1  0
  3  4  2  0
  4  5  1  0
  4  6  1  0
  6  7  1  0
  7  8  1  0
  8  9  1  0
  9 10  1  0
 10 11  1  0
 11 12  1  0
 12 13  1  0
 13 14  1  0
 14 15  1  0
 15 16  1  0
 15 17  1  0
 17 18  1  0
  6 19  1  0
 19 20  1  0
 20 21  2  0
 20 22  1  0
 19  2  2  0
 18 12  1  0
  1 23  1  0
  1 24  1  0
  1 25  1  0
  3 26  1  0
  5 27  1  0
  5 28  1  0
  5 29  1  0
  7 30  1  0
  7 31  1  0
  8 32  1  0
  8 33  1  0
  9 34  1  0
  9 35  1  0
 10 36  1  0
 10 37  1  0
 11 38  1  0
 11 39  1  0
 13 40  1  0
 13 41  1  0
 14 42  1  0
 14 43  1  0
 16 44  1  0
 16 45  1  0
 16 46  1  0
 17 47  1  0
 17 48  1  0
 18 49  1  0
 18 50  1  0
M  CHG  3   3   1  20   1  22  -1
M  END
>  <UniqueID>  (13) 
13

>  <SMILES>  (13) 
Cc1[nH+]c(C)n(CCCCCN2CCN(C)CC2)c1[N+](=O)[O-]

>  <Energy>  (13) 
86.89089660923055

>  <Genealogy>  (13) 
Cc1[nH+]c(C)n(CCCCCN2CCN(C)CC2)c1[N+](=O)[O-] (protonated)
Cc1[nH+]c(C)n(CCCCCN2CCN(C)CC2)c1[N+](=O)[O-] (3D coordinates assigned)
Cc1[nH+]c(C)n(CCCCCN2CCN(C)CC2)c1[N+](=O)[O-] (nonaromatic ring conformer: 86.89089660923055 kcal/mol)

>  <smiles>  (13) 
Cc1nc(C)n(CCCCCN2CCN(C)CC2)c1[N+](=O)[O-]

>  <score_type>  (13) 
oracle

>  <origin>  (13) 
adg

>  <m_score__min__energy>  (13) 
-7.29

>  <m_primary>  (13) 
energy

$$$$
14:0
     RDKit          3D

 72 74  0  0  0  0  0  0  0  0999 V2000
   61.6780   29.6580   50.5470 C   0  0  0  0  0  0  0  0  0  0  0  0
   62.7910   30.4520   51.2400 C   0  0  0  0  0  0  0  0  0  0  0  0
   62.9680   31.8100   50.6610 N   0  0  0  0  0  0  0  0  0  0  0  0
   63.4650   32.7940   51.6620 C   0  0  0  0  0  0  0  0  0  0  0  0
   63.7570   34.2000   51.1110 C   0  0  0  0  0  0  0  0  0  0  0  0
   63.7540   31.8240   49.4020 C   0  0  0  0  0  0  0  0  0  0  0  0
   62.9290   31.4780   48.2290 N   0  0  0  0  0  0  0  0  0  0  0  0
   63.1420   32.4080   47.1120 C   0  0  0  0  0  0  0  0  0  0  0  0
   63.0160   33.8560   47.5970 C   0  0  0  0  0  0  0  0  0  0  0  0
   61.5900   34.1920   48.0410 C   0  0  0  0  0  0  0  0  0  0  0  0
   61.3350   33.6330   49.3130 O   0  0  0  0  0  0  0  0  0  0  0  0
   59.9940   33.8820   49.6770 C   0  0  0  0  0  0  0  0  0  0  0  0
   59.4580   32.7260   50.5280 C   0  0  0  0  0  0  0  0  0  0  0  0
   59.0650   31.4940   49.7040 C   0  0  0  0  0  0  0  0  0  0  0  0
   59.8160   31.4260   48.4470 N   0  0  0  0  0  0  0  0  0  0  0  0
   59.1780   31.1450   47.1880 C   0  0  0  0  0  0  0  0  0  0  0  0
   59.0500   29.8210   46.7330 C   0  0  0  0  0  0  0  0  0  0  0  0
   58.3080   29.5480   45.5720 C   0  0  0  0  0  0  0  0  0  0  0  0
   57.8950   30.5740   44.7490 N   0  0  0  0  0  0  0  0  0  0  0  0
   57.3920   30.2700   43.3930 C   0  0  0  0  0  0  0  0  0  0  0  0
   57.9770   31.8840   45.1850 C   0  0  0  0  0  0  0  0  0  0  0  0
   57.3870   32.9480   44.4560 C   0  0  0  0  0  0  0  0  0  0  0  0
   57.4950   34.2670   44.8960 C   0  0  0  0  0  0  0  0  0  0  0  0
   58.1780   34.5610   46.0710 C   0  0  0  0  0  0  0  0  0  0  0  0
   58.7460   33.5370   46.8230 C   0  0  0  0  0  0  0  0  0  0  0  0
   58.6430   32.1910   46.4070 C   0  0  0  0  0  0  0  0  0  0  0  0
   58.0250   28.0850   45.2620 C   0  0  0  0  0  0  0  0  0  0  0  0
   57.7610   27.2910   46.5530 C   0  0  0  0  0  0  0  0  0  0  0  0
   58.8540   27.4760   47.6300 C   0  0  0  0  0  0  0  0  0  0  0  0
   59.7930   28.6640   47.3650 C   0  0  0  0  0  0  0  0  0  0  0  0
   61.0300   29.1958   51.3063 H   0  0  0  0  0  0  0  0  0  0  0  0
   61.0810   30.3354   49.9187 H   0  0  0  0  0  0  0  0  0  0  0  0
   62.1242   28.8731   49.9187 H   0  0  0  0  0  0  0  0  0  0  0  0
   62.5405   30.5532   52.3063 H   0  0  0  0  0  0  0  0  0  0  0  0
   63.7328   29.9022   51.0958 H   0  0  0  0  0  0  0  0  0  0  0  0
   62.0130   32.1570   50.4020 H   0  0  0  0  0  0  0  0  0  0  0  0
   62.7050   32.8893   52.4515 H   0  0  0  0  0  0  0  0  0  0  0  0
   64.4275   32.4021   52.0226 H   0  0  0  0  0  0  0  0  0  0  0  0
   63.9022   34.8989   51.9479 H   0  0  0  0  0  0  0  0  0  0  0  0
   64.6682   34.1707   50.4955 H   0  0  0  0  0  0  0  0  0  0  0  0
   62.9095   34.5359   50.4955 H   0  0  0  0  0  0  0  0  0  0  0  0
   64.1729   32.8307   49.2565 H   0  0  0  0  0  0  0  0  0  0  0  0
   64.5497   31.0697   49.4910 H   0  0  0  0  0  0  0  0  0  0  0  0
   63.1930   30.5200   47.9050 H   0  0  0  0  0  0  0  0  0  0  0  0
   64.1477   32.2508   46.6951 H   0  0  0  0  0  0  0  0  0  0  0  0
   62.3815   32.2210   46.3395 H   0  0  0  0  0  0  0  0  0  0  0  0
   63.6970   34.0057   48.4477 H   0  0  0  0  0  0  0  0  0  0  0  0
   63.2746   34.5183   46.7577 H   0  0  0  0  0  0  0  0  0  0  0  0
   61.4727   35.2845   48.0932 H   0  0  0  0  0  0  0  0  0  0  0  0
   60.8779   33.7743   47.3140 H   0  0  0  0  0  0  0  0  0  0  0  0
   59.9413   34.8156   50.2563 H   0  0  0  0  0  0  0  0  0  0  0  0
   59.3838   33.9727   48.7663 H   0  0  0  0  0  0  0  0  0  0  0  0
   60.2374   32.4311   51.2460 H   0  0  0  0  0  0  0  0  0  0  0  0
   58.5468   33.0863   51.0279 H   0  0  0  0  0  0  0  0  0  0  0  0
   59.2723   30.5888   50.2936 H   0  0  0  0  0  0  0  0  0  0  0  0
   57.9943   31.5677   49.4626 H   0  0  0  0  0  0  0  0  0  0  0  0
   60.8040   31.7680   48.4490 H   0  0  0  0  0  0  0  0  0  0  0  0
   56.4528   29.7024   43.4690 H   0  0  0  0  0  0  0  0  0  0  0  0
   57.2098   31.2093   42.8504 H   0  0  0  0  0  0  0  0  0  0  0  0
   58.1390   29.6720   42.8504 H   0  0  0  0  0  0  0  0  0  0  0  0
   56.8358   32.7295   43.5295 H   0  0  0  0  0  0  0  0  0  0  0  0
   57.0378   35.0785   44.3108 H   0  0  0  0  0  0  0  0  0  0  0  0
   58.2695   35.6046   46.4066 H   0  0  0  0  0  0  0  0  0  0  0  0
   59.2818   33.7787   47.7528 H   0  0  0  0  0  0  0  0  0  0  0  0
   57.1403   28.0193   44.6116 H   0  0  0  0  0  0  0  0  0  0  0  0
   58.9043   27.6560   44.7593 H   0  0  0  0  0  0  0  0  0  0  0  0
   56.7996   27.6212   46.9734 H   0  0  0  0  0  0  0  0  0  0  0  0
   57.7555   26.2255   46.2799 H   0  0  0  0  0  0  0  0  0  0  0  0
   58.3610   27.6337   48.6006 H   0  0  0  0  0  0  0  0  0  0  0  0
   59.4748   26.5680   47.6150 H   0  0  0  0  0  0  0  0  0  0  0  0
   60.2289   28.9961   48.3188 H   0  0  0  0  0  0  0  0  0  0  0  0
   60.5807   28.3361   46.6707 H   0  0  0  0  0  0  0  0  0  0  0  0
  1  2  1  0
  2  3  1  0
  3  4  1  0
  4  5  1  0
  3  6  1  0
  6  7  1  0
  7  8  1  0
  8  9  1  0
  9 10  1  0
 10 11  1  0
 11 12  1  0
 12 13  1  0
 13 14  1  0
 14 15  1  0
 15 16  1  0
 16 17  2  0
 17 18  1  0
 18 19  2  0
 19 20  1  0
 19 21  1  0
 21 22  2  0
 22 23  1  0
 23 24  2  0
 24 25  1  0
 25 26  2  0
 18 27  1  0
 27 28  1  0
 28 29  1  0
 29 30  1  0
 26 16  1  0
 30 17  1  0
 26 21  1  0
  1 31  1  0
  1 32  1  0
  1 33  1  0
  2 34  1  0
  2 35  1  0
  3 36  1  0
  4 37  1  0
  4 38  1  0
  5 39  1  0
  5 40  1  0
  5 41  1  0
  6 42  1  0
  6 43  1  0
  7 44  1  0
  8 45  1  0
  8 46  1  0
  9 47  1  0
  9 48  1  0
 10 49  1  0
 10 50  1  0
 12 51  1  0
 12 52  1  0
 13 53  1  0
 13 54  1  0
 14 55  1  0
 14 56  1  0
 15 57  1  0
 20 58  1  0
 20 59  1  0
 20 60  1  0
 22 61  1  0
 23 62  1  0
 24 63  1  0
 25 64  1  0
 27 65  1  0
 27 66  1  0
 28 67  1  0
 28 68  1  0
 29 69  1  0
 29 70  1  0
 30 71  1  0
 30 72  1  0
M  CHG  2   3   1  19   1
M  END
>  <UniqueID>  (14) 
14

>  <SMILES>  (14) 
CC[NH+](CC)CNCCCOCCCNc1c2c([n+](C)c3ccccc13)CCCC2

>  <Energy>  (14) 
94.55437542293187

>  <Genealogy>  (14) 
CC[NH+](CC)CNCCCOCCCNc1c2c([n+](C)c3ccccc13)CCCC2 (protonated)
CC[NH+](CC)CNCCCOCCCNc1c2c([n+](C)c3ccccc13)CCCC2 (3D coordinates assigned)
CC[NH+](CC)CNCCCOCCCNc1c2c([n+](C)c3ccccc13)CCCC2 (nonaromatic ring conformer: 94.55437542293187 kcal/mol)

>  <smiles>  (14) 
CCN(CC)CNCCCOCCCNc1c2c([n+](C)c3ccccc13)CCCC2

>  <score_type>  (14) 
oracle

>  <origin>  (14) 
adg

>  <m_score__min__energy>  (14) 
-4.71

>  <m_primary>  (14) 
energy

$$$$
15:0
     RDKit          3D

 66 69  0  0  0  0  0  0  0  0999 V2000
   67.8840   33.4870   50.4800 C   0  0  0  0  0  0  0  0  0  0  0  0
   66.7280   32.7290   51.1220 C   0  0  0  0  0  0  0  0  0  0  0  0
   66.0990   31.8870   50.1690 O   0  0  0  0  0  0  0  0  0  0  0  0
   64.8940   31.3380   50.6810 C   0  0  0  0  0  0  0  0  0  0  0  0
   63.7640   31.4580   49.6370 C   0  0  0  0  0  0  0  0  0  0  0  0
   64.1180   32.3940   48.5330 N   0  0  0  0  0  0  0  0  0  0  0  0
   63.3270   32.1380   47.2950 C   0  0  0  0  0  0  0  0  0  0  0  0
   62.1280   33.0900   47.1260 C   0  0  0  0  0  0  0  0  0  0  0  0
   61.5890   33.4430   48.4470 N   0  0  0  0  0  0  0  0  0  0  0  0
   60.2400   34.0470   48.4020 C   0  0  0  0  0  0  0  0  0  0  0  0
   59.2530   33.4810   49.4520 C   0  0  0  0  0  0  0  0  0  0  0  0
   58.7180   32.1060   49.0390 C   0  0  0  0  0  0  0  0  0  0  0  0
   59.6900   31.3710   48.2300 N   0  0  0  0  0  0  0  0  0  0  0  0
   59.2580   30.6430   47.0720 C   0  0  0  0  0  0  0  0  0  0  0  0
   59.4460   29.2540   47.0070 C   0  0  0  0  0  0  0  0  0  0  0  0
   60.0570   28.5590   48.0730 C   0  0  0  0  0  0  0  0  0  0  0  0
   60.3150   27.1930   47.9770 C   0  0  0  0  0  0  0  0  0  0  0  0
   59.9830   26.5030   46.8170 C   0  0  0  0  0  0  0  0  0  0  0  0
   59.3570   27.1650   45.7590 C   0  0  0  0  0  0  0  0  0  0  0  0
   59.0400   28.5460   45.8430 C   0  0  0  0  0  0  0  0  0  0  0  0
   58.3750   29.2060   44.8240 N   0  0  0  0  0  0  0  0  0  0  0  0
   57.7090   28.4330   43.7520 C   0  0  0  0  0  0  0  0  0  0  0  0
   58.3130   30.5880   44.8230 C   0  0  0  0  0  0  0  0  0  0  0  0
   57.8750   31.3150   43.6860 C   0  0  0  0  0  0  0  0  0  0  0  0
   57.7750   32.7050   43.7150 C   0  0  0  0  0  0  0  0  0  0  0  0
   58.1050   33.4070   44.8690 C   0  0  0  0  0  0  0  0  0  0  0  0
   58.5730   32.7260   45.9890 C   0  0  0  0  0  0  0  0  0  0  0  0
   58.7160   31.3230   45.9700 C   0  0  0  0  0  0  0  0  0  0  0  0
   62.5510   34.2210   49.2560 C   0  0  0  0  0  0  0  0  0  0  0  0
   64.0100   33.8050   48.9720 C   0  0  0  0  0  0  0  0  0  0  0  0
   68.5274   33.9089   51.2662 H   0  0  0  0  0  0  0  0  0  0  0  0
   68.4719   32.7985   49.8553 H   0  0  0  0  0  0  0  0  0  0  0  0
   67.4870   34.3007   49.8553 H   0  0  0  0  0  0  0  0  0  0  0  0
   67.1123   32.1154   51.9501 H   0  0  0  0  0  0  0  0  0  0  0  0
   65.9915   33.4539   51.4990 H   0  0  0  0  0  0  0  0  0  0  0  0
   65.0530   30.2768   50.9232 H   0  0  0  0  0  0  0  0  0  0  0  0
   64.6049   31.8922   51.5861 H   0  0  0  0  0  0  0  0  0  0  0  0
   63.5687   30.4633   49.2098 H   0  0  0  0  0  0  0  0  0  0  0  0
   62.8735   31.8557   50.1458 H   0  0  0  0  0  0  0  0  0  0  0  0
   65.1310   32.2470   48.2950 H   0  0  0  0  0  0  0  0  0  0  0  0
   63.9913   32.2566   46.4263 H   0  0  0  0  0  0  0  0  0  0  0  0
   62.9226   31.1181   47.3737 H   0  0  0  0  0  0  0  0  0  0  0  0
   62.4559   34.0035   46.6083 H   0  0  0  0  0  0  0  0  0  0  0  0
   61.3464   32.5917   46.5337 H   0  0  0  0  0  0  0  0  0  0  0  0
   60.3412   35.1290   48.5724 H   0  0  0  0  0  0  0  0  0  0  0  0
   59.8204   33.8072   47.4139 H   0  0  0  0  0  0  0  0  0  0  0  0
   59.7732   33.3867   50.4166 H   0  0  0  0  0  0  0  0  0  0  0  0
   58.4010   34.1722   49.5313 H   0  0  0  0  0  0  0  0  0  0  0  0
   58.4940   31.5233   49.9447 H   0  0  0  0  0  0  0  0  0  0  0  0
   57.8113   32.2568   48.4348 H   0  0  0  0  0  0  0  0  0  0  0  0
   60.7170   31.4750   48.3940 H   0  0  0  0  0  0  0  0  0  0  0  0
   60.3324   29.1016   48.9894 H   0  0  0  0  0  0  0  0  0  0  0  0
   60.7814   26.6608   48.8192 H   0  0  0  0  0  0  0  0  0  0  0  0
   60.2144   25.4310   46.7321 H   0  0  0  0  0  0  0  0  0  0  0  0
   59.1053   26.6070   44.8451 H   0  0  0  0  0  0  0  0  0  0  0  0
   57.0537   27.6724   44.2014 H   0  0  0  0  0  0  0  0  0  0  0  0
   57.1087   29.1123   43.1289 H   0  0  0  0  0  0  0  0  0  0  0  0
   58.4696   27.9398   43.1289 H   0  0  0  0  0  0  0  0  0  0  0  0
   57.6100   30.7727   42.7664 H   0  0  0  0  0  0  0  0  0  0  0  0
   57.4338   33.2486   42.8217 H   0  0  0  0  0  0  0  0  0  0  0  0
   57.9961   34.5012   44.8968 H   0  0  0  0  0  0  0  0  0  0  0  0
   58.8340   33.2876   46.8981 H   0  0  0  0  0  0  0  0  0  0  0  0
   62.4331   35.2888   49.0194 H   0  0  0  0  0  0  0  0  0  0  0  0
   62.3409   34.0248   50.3178 H   0  0  0  0  0  0  0  0  0  0  0  0
   64.4150   34.4534   48.1810 H   0  0  0  0  0  0  0  0  0  0  0  0
   64.5778   33.9101   49.9082 H   0  0  0  0  0  0  0  0  0  0  0  0
  1  2  1  0
  2  3  1  0
  3  4  1  0
  4  5  1  0
  5  6  1  0
  6  7  1  0
  7  8  1  0
  8  9  1  0
  9 10  1  0
 10 11  1  0
 11 12  1  0
 12 13  1  0
 13 14  1  0
 14 15  1  0
 15 16  2  0
 16 17  1  0
 17 18  2  0
 18 19  1  0
 19 20  2  0
 20 21  1  0
 21 22  1  0
 21 23  2  0
 23 24  1  0
 24 25  2  0
 25 26  1  0
 26 27  2  0
 27 28  1  0
  9 29  1  0
 29 30  1  0
 30  6  1  0
 28 14  2  0
 20 15  1  0
 28 23  1  0
  1 31  1  0
  1 32  1  0
  1 33  1  0
  2 34  1  0
  2 35  1  0
  4 36  1  0
  4 37  1  0
  5 38  1  0
  5 39  1  0
  6 40  1  0
  7 41  1  0
  7 42  1  0
  8 43  1  0
  8 44  1  0
 10 45  1  0
 10 46  1  0
 11 47  1  0
 11 48  1  0
 12 49  1  0
 12 50  1  0
 13 51  1  0
 16 52  1  0
 17 53  1  0
 18 54  1  0
 19 55  1  0
 22 56  1  0
 22 57  1  0
 22 58  1  0
 24 59  1  0
 25 60  1  0
 26 61  1  0
 27 62  1  0
 29 63  1  0
 29 64  1  0
 30 65  1  0
 30 66  1  0
M  CHG  2   6   1  21   1
M  END
>  <UniqueID>  (15) 
15

>  <SMILES>  (15) 
CCOCC[NH+]1CCN(CCCNc2c3ccccc3[n+](C)c3ccccc23)CC1

>  <Energy>  (15) 
107.15253835101102

>  <Genealogy>  (15) 
CCOCC[NH+]1CCN(CCCNc2c3ccccc3[n+](C)c3ccccc23)CC1 (protonated)
CCOCC[NH+]1CCN(CCCNc2c3ccccc3[n+](C)c3ccccc23)CC1 (3D coordinates assigned)
CCOCC[NH+]1CCN(CCCNc2c3ccccc3[n+](C)c3ccccc23)CC1 (nonaromatic ring conformer: 107.15253835101102 kcal/mol)

>  <smiles>  (15) 
CCOCCN1CCN(CCCNc2c3ccccc3[n+](C)c3ccccc23)CC1

>  <score_type>  (15) 
oracle

>  <origin>  (15) 
adg

>  <m_score__min__energy>  (15) 
-6.04

>  <m_primary>  (15) 
energy

$$$$
16:0
     RDKit          3D

 49 52  0  0  0  0  0  0  0  0999 V2000
   59.6870   34.0000   48.6070 C   0  0  0  0  0  0  0  0  0  0  0  0
   61.0780   33.6880   48.1030 C   0  0  0  0  0  0  0  0  0  0  0  0
   61.4790   34.1120   46.8170 C   0  0  0  0  0  0  0  0  0  0  0  0
   60.5620   34.8050   46.0060 O   0  0  0  0  0  0  0  0  0  0  0  0
   59.5550   34.2100   45.1890 C   0  0  0  0  0  0  0  0  0  0  0  0
   58.1620   34.5800   45.7180 C   0  0  0  0  0  0  0  0  0  0  0  0
   57.3660   33.4680   46.3870 C   0  0  0  0  0  0  0  0  0  0  0  0
   57.0200   33.9030   44.9740 C   0  0  0  0  0  0  0  0  0  0  0  0
   62.7850   33.8360   46.3780 C   0  0  0  0  0  0  0  0  0  0  0  0
   63.6590   33.1380   47.2040 C   0  0  0  0  0  0  0  0  0  0  0  0
   63.2500   32.7130   48.4240 N   0  0  0  0  0  0  0  0  0  0  0  0
   61.9980   32.9540   48.8980 C   0  0  0  0  0  0  0  0  0  0  0  0
   61.6420   32.3710   50.2440 C   0  0  0  0  0  0  0  0  0  0  0  0
   61.7440   30.5460   50.2110 S   0  0  0  0  0  0  0  0  0  0  0  0
   61.1340   30.3880   48.5270 C   0  0  0  0  0  0  0  0  0  0  0  0
   61.8960   30.5780   47.4380 N   0  0  0  0  0  0  0  0  0  0  0  0
   61.1280   30.4330   46.3710 N   0  0  0  0  0  0  0  0  0  0  0  0
   59.8880   30.1560   46.8300 C   0  0  0  0  0  0  0  0  0  0  0  0
   58.7300   29.9630   45.9330 C   0  0  0  0  0  0  0  0  0  0  0  0
   58.4380   30.8850   44.9130 C   0  0  0  0  0  0  0  0  0  0  0  0
   57.3510   30.6720   44.0590 C   0  0  0  0  0  0  0  0  0  0  0  0
   56.5570   29.5330   44.2060 C   0  0  0  0  0  0  0  0  0  0  0  0
   56.8540   28.5980   45.2010 C   0  0  0  0  0  0  0  0  0  0  0  0
   57.9400   28.8070   46.0570 C   0  0  0  0  0  0  0  0  0  0  0  0
   59.8640   30.1000   48.1840 N   0  0  0  0  0  0  0  0  0  0  0  0
   58.7440   29.8230   49.0800 C   0  0  0  0  0  0  0  0  0  0  0  0
   59.6870   34.0000   49.7070 H   0  0  0  0  0  0  0  0  0  0  0  0
   59.3776   34.9899   48.2403 H   0  0  0  0  0  0  0  0  0  0  0  0
   58.9845   33.2371   48.2403 H   0  0  0  0  0  0  0  0  0  0  0  0
   59.6612   34.5747   44.1567 H   0  0  0  0  0  0  0  0  0  0  0  0
   59.6710   33.1164   45.2125 H   0  0  0  0  0  0  0  0  0  0  0  0
   58.4277   35.6084   46.0041 H   0  0  0  0  0  0  0  0  0  0  0  0
   57.8318   32.4869   46.5617 H   0  0  0  0  0  0  0  0  0  0  0  0
   56.8070   33.3707   47.3294 H   0  0  0  0  0  0  0  0  0  0  0  0
   57.2351   33.2368   44.1255 H   0  0  0  0  0  0  0  0  0  0  0  0
   56.1065   34.2510   44.4696 H   0  0  0  0  0  0  0  0  0  0  0  0
   63.1150   34.1712   45.3836 H   0  0  0  0  0  0  0  0  0  0  0  0
   64.6851   32.9303   46.8663 H   0  0  0  0  0  0  0  0  0  0  0  0
   62.3411   32.7573   51.0003 H   0  0  0  0  0  0  0  0  0  0  0  0
   60.6102   32.6613   50.4913 H   0  0  0  0  0  0  0  0  0  0  0  0
   62.9120   30.8160   47.4140 H   0  0  0  0  0  0  0  0  0  0  0  0
   59.0673   31.7782   44.7858 H   0  0  0  0  0  0  0  0  0  0  0  0
   57.1212   31.4033   43.2700 H   0  0  0  0  0  0  0  0  0  0  0  0
   55.6977   29.3717   43.5385 H   0  0  0  0  0  0  0  0  0  0  0  0
   56.2330   27.6967   45.3111 H   0  0  0  0  0  0  0  0  0  0  0  0
   58.1772   28.0628   46.8315 H   0  0  0  0  0  0  0  0  0  0  0  0
   59.0804   29.9062   50.1240 H   0  0  0  0  0  0  0  0  0  0  0  0
   57.9385   30.5490   48.8954 H   0  0  0  0  0  0  0  0  0  0  0  0
   58.3698   28.8052   48.8954 H   0  0  0  0  0  0  0  0  0  0  0  0
  1  2  1  0
  2  3  2  0
  3  4  1  0
  4  5  1  0
  5  6  1  0
  6  7  1  0
  7  8  1  0
  3  9  1  0
  9 10  2  0
 10 11  1  0
 11 12  2  0
 12 13  1  0
 13 14  1  0
 14 15  1  0
 15 16  2  0
 16 17  1  0
 17 18  2  0
 18 19  1  0
 19 20  2  0
 20 21  1  0
 21 22  2  0
 22 23  1  0
 23 24  2  0
 18 25  1  0
 25 26  1  0
 12  2  1  0
 25 15  1  0
  8  6  1  0
 24 19  1  0
  1 27  1  0
  1 28  1  0
  1 29  1  0
  5 30  1  0
  5 31  1  0
  6 32  1  0
  7 33  1  0
  7 34  1  0
  8 35  1  0
  8 36  1  0
  9 37  1  0
 10 38  1  0
 13 39  1  0
 13 40  1  0
 16 41  1  0
 20 42  1  0
 21 43  1  0
 22 44  1  0
 23 45  1  0
 24 46  1  0
 26 47  1  0
 26 48  1  0
 26 49  1  0
M  CHG  1  16   1
M  END
>  <UniqueID>  (16) 
16

>  <SMILES>  (16) 
Cc1c(OCC2CC2)ccnc1CSc1[nH+]nc(-c2ccccc2)n1C

>  <Energy>  (16) 
352.13170493992845

>  <Genealogy>  (16) 
Cc1c(OCC2CC2)ccnc1CSc1[nH+]nc(-c2ccccc2)n1C (protonated)
Cc1c(OCC2CC2)ccnc1CSc1[nH+]nc(-c2ccccc2)n1C (3D coordinates assigned)
Cc1c(OCC2CC2)ccnc1CSc1[nH+]nc(-c2ccccc2)n1C (nonaromatic ring conformer: 352.13170493992845 kcal/mol)

>  <smiles>  (16) 
Cc1c(OCC2CC2)ccnc1CSc1nnc(-c2ccccc2)n1C

>  <score_type>  (16) 
oracle

>  <origin>  (16) 
adg

>  <m_score__min__energy>  (16) 
-7.1100000000000003

>  <m_primary>  (16) 
energy

$$$$
17:0
     RDKit          3D

 59 61  0  0  0  0  0  0  0  0999 V2000
   57.8340   33.7520   46.4740 C   0  0  0  0  0  0  0  0  0  0  0  0
   57.4080   33.4500   45.0390 C   0  0  0  0  0  0  0  0  0  0  0  0
   58.2930   32.3890   44.3620 C   0  0  0  0  0  0  0  0  0  0  0  0
   57.7620   31.9280   42.9870 C   0  0  0  0  0  0  0  0  0  0  0  0
   56.7120   30.8070   43.0850 C   0  0  0  0  0  0  0  0  0  0  0  0
   56.9720   29.8670   44.2800 C   0  0  0  0  0  0  0  0  0  0  0  0
   57.6890   28.6430   43.8830 N   0  0  0  0  0  0  0  0  0  0  0  0
   58.7080   28.2400   44.8720 C   0  0  0  0  0  0  0  0  0  0  0  0
   59.6530   29.4110   45.2180 C   0  0  0  0  0  0  0  0  0  0  0  0
   59.2950   30.1190   46.5320 C   0  0  0  0  0  0  0  0  0  0  0  0
   60.3270   29.9330   47.5510 N   0  0  0  0  0  0  0  0  0  0  0  0
   60.5870   30.9690   48.5110 C   0  0  0  0  0  0  0  0  0  0  0  0
   59.7540   31.1230   49.6320 C   0  0  0  0  0  0  0  0  0  0  0  0
   58.6350   30.2840   49.8240 C   0  0  0  0  0  0  0  0  0  0  0  0
   57.7830   30.4730   50.9080 C   0  0  0  0  0  0  0  0  0  0  0  0
   58.0220   31.5020   51.8110 C   0  0  0  0  0  0  0  0  0  0  0  0
   59.1340   32.3290   51.6550 C   0  0  0  0  0  0  0  0  0  0  0  0
   60.0470   32.1350   50.5860 C   0  0  0  0  0  0  0  0  0  0  0  0
   61.1880   32.9060   50.4540 N   0  0  0  0  0  0  0  0  0  0  0  0
   61.6470   33.7470   51.5810 C   0  0  0  0  0  0  0  0  0  0  0  0
   61.9130   32.8700   49.2770 C   0  0  0  0  0  0  0  0  0  0  0  0
   62.9240   33.8240   48.9920 C   0  0  0  0  0  0  0  0  0  0  0  0
   63.6720   33.7530   47.8170 C   0  0  0  0  0  0  0  0  0  0  0  0
   63.4230   32.7490   46.8900 C   0  0  0  0  0  0  0  0  0  0  0  0
   62.4110   31.8220   47.1200 C   0  0  0  0  0  0  0  0  0  0  0  0
   61.6410   31.8740   48.3010 C   0  0  0  0  0  0  0  0  0  0  0  0
   57.1412   33.2609   47.1732 H   0  0  0  0  0  0  0  0  0  0  0  0
   58.8532   33.3736   46.6412 H   0  0  0  0  0  0  0  0  0  0  0  0
   57.8144   34.8390   46.6412 H   0  0  0  0  0  0  0  0  0  0  0  0
   56.3701   33.0859   45.0503 H   0  0  0  0  0  0  0  0  0  0  0  0
   57.5092   34.3810   44.4620 H   0  0  0  0  0  0  0  0  0  0  0  0
   59.2986   32.8124   44.2225 H   0  0  0  0  0  0  0  0  0  0  0  0
   58.2985   31.5064   45.0185 H   0  0  0  0  0  0  0  0  0  0  0  0
   57.3048   32.7916   42.4818 H   0  0  0  0  0  0  0  0  0  0  0  0
   58.6177   31.5249   42.4255 H   0  0  0  0  0  0  0  0  0  0  0  0
   55.7177   31.2625   43.2025 H   0  0  0  0  0  0  0  0  0  0  0  0
   56.7718   30.2073   42.1648 H   0  0  0  0  0  0  0  0  0  0  0  0
   57.5750   30.4035   45.0274 H   0  0  0  0  0  0  0  0  0  0  0  0
   55.9966   29.5673   44.6907 H   0  0  0  0  0  0  0  0  0  0  0  0
   58.1440   28.8280   42.9600 H   0  0  0  0  0  0  0  0  0  0  0  0
   57.0050   27.8600   43.7480 H   0  0  0  0  0  0  0  0  0  0  0  0
   58.2028   27.9049   45.7899 H   0  0  0  0  0  0  0  0  0  0  0  0
   59.3090   27.4275   44.4377 H   0  0  0  0  0  0  0  0  0  0  0  0
   60.6773   29.0188   45.3017 H   0  0  0  0  0  0  0  0  0  0  0  0
   59.5554   30.1543   44.4130 H   0  0  0  0  0  0  0  0  0  0  0  0
   59.1789   31.1951   46.3358 H   0  0  0  0  0  0  0  0  0  0  0  0
   58.3595   29.6815   46.9108 H   0  0  0  0  0  0  0  0  0  0  0  0
   61.1020   29.2610   47.3520 H   0  0  0  0  0  0  0  0  0  0  0  0
   58.4344   29.4723   49.1092 H   0  0  0  0  0  0  0  0  0  0  0  0
   56.9192   29.8070   51.0503 H   0  0  0  0  0  0  0  0  0  0  0  0
   57.3316   31.6647   52.6518 H   0  0  0  0  0  0  0  0  0  0  0  0
   59.3062   33.1450   52.3723 H   0  0  0  0  0  0  0  0  0  0  0  0
   61.3822   33.2619   52.5321 H   0  0  0  0  0  0  0  0  0  0  0  0
   62.7384   33.8720   51.5245 H   0  0  0  0  0  0  0  0  0  0  0  0
   61.1617   34.7325   51.5245 H   0  0  0  0  0  0  0  0  0  0  0  0
   63.1212   34.6335   49.7102 H   0  0  0  0  0  0  0  0  0  0  0  0
   64.4614   34.4943   47.6238 H   0  0  0  0  0  0  0  0  0  0  0  0
   64.0267   32.6866   45.9726 H   0  0  0  0  0  0  0  0  0  0  0  0
   62.2092   31.0402   46.3729 H   0  0  0  0  0  0  0  0  0  0  0  0
  1  2  1  0
  2  3  1  0
  3  4  1  0
  4  5  1  0
  5  6  1  0
  6  7  1  0
  7  8  1  0
  8  9  1  0
  9 10  1  0
 10 11  1  0
 11 12  1  0
 12 13  2  0
 13 14  1  0
 14 15  2  0
 15 16  1  0
 16 17  2  0
 17 18  1  0
 18 19  2  0
 19 20  1  0
 19 21  1  0
 21 22  2  0
 22 23  1  0
 23 24  2  0
 24 25  1  0
 25 26  2  0
 26 12  1  0
 18 13  1  0
 26 21  1  0
  1 27  1  0
  1 28  1  0
  1 29  1  0
  2 30  1  0
  2 31  1  0
  3 32  1  0
  3 33  1  0
  4 34  1  0
  4 35  1  0
  5 36  1  0
  5 37  1  0
  6 38  1  0
  6 39  1  0
  7 40  1  0
  7 41  1  0
  8 42  1  0
  8 43  1  0
  9 44  1  0
  9 45  1  0
 10 46  1  0
 10 47  1  0
 11 48  1  0
 14 49  1  0
 15 50  1  0
 16 51  1  0
 17 52  1  0
 20 53  1  0
 20 54  1  0
 20 55  1  0
 22 56  1  0
 23 57  1  0
 24 58  1  0
 25 59  1  0
M  CHG  2   7   1  19   1
M  END
>  <UniqueID>  (17) 
17

>  <SMILES>  (17) 
CCCCCC[NH2+]CCCNc1c2ccccc2[n+](C)c2ccccc12

>  <Energy>  (17) 
80.04821653783844

>  <Genealogy>  (17) 
CCCCCC[NH2+]CCCNc1c2ccccc2[n+](C)c2ccccc12 (protonated)
CCCCCC[NH2+]CCCNc1c2ccccc2[n+](C)c2ccccc12 (3D coordinates assigned)
CCCCCC[NH2+]CCCNc1c2ccccc2[n+](C)c2ccccc12 (optimized conformer: 80.04821653783844 kcal/mol)

>  <smiles>  (17) 
CCCCCCNCCCNc1c2ccccc2[n+](C)c2ccccc12

>  <score_type>  (17) 
oracle

>  <origin>  (17) 
adg

>  <m_score__min__energy>  (17) 
-4.4199999999999999

>  <m_primary>  (17) 
energy

$$$$
18:0
     RDKit          3D

 62 64  0  0  0  0  0  0  0  0999 V2000
   63.0940   32.9230   47.2740 C   0  0  0  0  0  0  0  0  0  0  0  0
   62.5120   31.5220   47.2220 C   0  0  0  0  0  0  0  0  0  0  0  0
   61.6710   31.3330   48.3370 O   0  0  0  0  0  0  0  0  0  0  0  0
   62.2960   31.8700   49.4880 C   0  0  0  0  0  0  0  0  0  0  0  0
   62.3280   30.8130   50.5850 C   0  0  0  0  0  0  0  0  0  0  0  0
   61.6990   29.6330   50.1130 O   0  0  0  0  0  0  0  0  0  0  0  0
   61.5650   28.6730   51.1430 C   0  0  0  0  0  0  0  0  0  0  0  0
   60.1690   28.7370   51.7590 C   0  0  0  0  0  0  0  0  0  0  0  0
   59.5850   29.9920   51.4810 O   0  0  0  0  0  0  0  0  0  0  0  0
   58.3360   29.7510   50.9910 N   0  0  0  0  0  0  0  0  0  0  0  0
   57.6270   31.0280   50.8990 C   0  0  0  0  0  0  0  0  0  0  0  0
   58.2360   31.9150   49.8110 C   0  0  0  0  0  0  0  0  0  0  0  0
   59.0860   31.1330   48.9110 N   0  0  0  0  0  0  0  0  0  0  0  0
   59.0460   31.3380   47.4890 C   0  0  0  0  0  0  0  0  0  0  0  0
   59.2270   32.6310   46.9660 C   0  0  0  0  0  0  0  0  0  0  0  0
   59.6720   33.6900   47.7850 C   0  0  0  0  0  0  0  0  0  0  0  0
   59.8580   34.9680   47.2600 C   0  0  0  0  0  0  0  0  0  0  0  0
   59.6280   35.2060   45.9110 C   0  0  0  0  0  0  0  0  0  0  0  0
   59.1860   34.1750   45.0830 C   0  0  0  0  0  0  0  0  0  0  0  0
   58.9390   32.8770   45.5990 C   0  0  0  0  0  0  0  0  0  0  0  0
   58.4150   31.8710   44.8140 N   0  0  0  0  0  0  0  0  0  0  0  0
   57.7840   32.1980   43.5150 C   0  0  0  0  0  0  0  0  0  0  0  0
   58.4620   30.5600   45.2490 C   0  0  0  0  0  0  0  0  0  0  0  0
   58.2110   29.4840   44.3640 C   0  0  0  0  0  0  0  0  0  0  0  0
   58.2370   28.1680   44.8050 C   0  0  0  0  0  0  0  0  0  0  0  0
   58.5560   27.8780   46.1220 C   0  0  0  0  0  0  0  0  0  0  0  0
   58.8650   28.9050   47.0290 C   0  0  0  0  0  0  0  0  0  0  0  0
   59.2950   28.5980   48.3310 O   0  0  0  0  0  0  0  0  0  0  0  0
   60.0580   27.4510   48.6920 C   0  0  0  0  0  0  0  0  0  0  0  0
   58.7830   30.2630   46.6060 C   0  0  0  0  0  0  0  0  0  0  0  0
   63.2210   33.2286   48.3230 H   0  0  0  0  0  0  0  0  0  0  0  0
   64.0708   32.9333   46.7683 H   0  0  0  0  0  0  0  0  0  0  0  0
   62.4120   33.6224   46.7683 H   0  0  0  0  0  0  0  0  0  0  0  0
   61.9307   31.3982   46.2964 H   0  0  0  0  0  0  0  0  0  0  0  0
   63.3248   30.7810   47.2396 H   0  0  0  0  0  0  0  0  0  0  0  0
   63.3239   32.1730   49.2400 H   0  0  0  0  0  0  0  0  0  0  0  0
   61.7311   32.7465   49.8381 H   0  0  0  0  0  0  0  0  0  0  0  0
   63.3718   30.5918   50.8527 H   0  0  0  0  0  0  0  0  0  0  0  0
   61.7966   31.1855   51.4732 H   0  0  0  0  0  0  0  0  0  0  0  0
   61.7301   27.6690   50.7251 H   0  0  0  0  0  0  0  0  0  0  0  0
   62.3081   28.8863   51.9255 H   0  0  0  0  0  0  0  0  0  0  0  0
   59.5435   27.9395   51.3315 H   0  0  0  0  0  0  0  0  0  0  0  0
   60.2441   28.6026   52.8482 H   0  0  0  0  0  0  0  0  0  0  0  0
   58.4680   29.3770   50.0230 H   0  0  0  0  0  0  0  0  0  0  0  0
   56.5709   30.8368   50.6581 H   0  0  0  0  0  0  0  0  0  0  0  0
   57.7135   31.5477   51.8646 H   0  0  0  0  0  0  0  0  0  0  0  0
   57.4255   32.3777   49.2287 H   0  0  0  0  0  0  0  0  0  0  0  0
   58.8535   32.6871   50.2933 H   0  0  0  0  0  0  0  0  0  0  0  0
   59.8130   30.5050   49.3230 H   0  0  0  0  0  0  0  0  0  0  0  0
   59.8746   33.5052   48.8503 H   0  0  0  0  0  0  0  0  0  0  0  0
   60.1872   35.7885   47.9145 H   0  0  0  0  0  0  0  0  0  0  0  0
   59.7950   36.2105   45.4949 H   0  0  0  0  0  0  0  0  0  0  0  0
   59.0263   34.3713   44.0125 H   0  0  0  0  0  0  0  0  0  0  0  0
   56.8200   32.6976   43.6911 H   0  0  0  0  0  0  0  0  0  0  0  0
   58.4449   32.8671   42.9444 H   0  0  0  0  0  0  0  0  0  0  0  0
   57.6184   31.2722   42.9444 H   0  0  0  0  0  0  0  0  0  0  0  0
   57.9912   29.6947   43.3070 H   0  0  0  0  0  0  0  0  0  0  0  0
   58.0033   27.3516   44.1058 H   0  0  0  0  0  0  0  0  0  0  0  0
   58.5674   26.8316   46.4610 H   0  0  0  0  0  0  0  0  0  0  0  0
   60.1088   27.3746   49.7882 H   0  0  0  0  0  0  0  0  0  0  0  0
   59.5795   26.5488   48.2833 H   0  0  0  0  0  0  0  0  0  0  0  0
   61.0751   27.5437   48.2833 H   0  0  0  0  0  0  0  0  0  0  0  0
  1  2  1  0
  2  3  1  0
  3  4  1  0
  4  5  1  0
  5  6  1  0
  6  7  1  0
  7  8  1  0
  8  9  1  0
  9 10  1  0
 10 11  1  0
 11 12  1  0
 12 13  1  0
 13 14  1  0
 14 15  2  0
 15 16  1  0
 16 17  2  0
 17 18  1  0
 18 19  2  0
 19 20  1  0
 20 21  2  0
 21 22  1  0
 21 23  1  0
 23 24  2  0
 24 25  1  0
 25 26  2  0
 26 27  1  0
 27 28  1  0
 28 29  1  0
 27 30  2  0
 30 14  1  0
 20 15  1  0
 30 23  1  0
  1 31  1  0
  1 32  1  0
  1 33  1  0
  2 34  1  0
  2 35  1  0
  4 36  1  0
  4 37  1  0
  5 38  1  0
  5 39  1  0
  7 40  1  0
  7 41  1  0
  8 42  1  0
  8 43  1  0
 10 44  1  0
 11 45  1  0
 11 46  1  0
 12 47  1  0
 12 48  1  0
 13 49  1  0
 16 50  1  0
 17 51  1  0
 18 52  1  0
 19 53  1  0
 22 54  1  0
 22 55  1  0
 22 56  1  0
 24 57  1  0
 25 58  1  0
 26 59  1  0
 29 60  1  0
 29 61  1  0
 29 62  1  0
M  CHG  1  21   1
M  END
>  <UniqueID>  (18) 
18

>  <SMILES>  (18) 
CCOCCOCCONCCNc1c2ccccc2[n+](C)c2cccc(OC)c12

>  <Energy>  (18) 
78.903049028623

>  <Genealogy>  (18) 
CCOCCOCCONCCNc1c2ccccc2[n+](C)c2cccc(OC)c12 (3D coordinates assigned)
CCOCCOCCONCCNc1c2ccccc2[n+](C)c2cccc(OC)c12 (optimized conformer: 78.903049028623 kcal/mol)

>  <smiles>  (18) 
CCOCCOCCONCCNc1c2ccccc2[n+](C)c2cccc(OC)c12

>  <score_type>  (18) 
oracle

>  <origin>  (18) 
adg

>  <m_score__min__energy>  (18) 
-6.5

>  <m_primary>  (18) 
energy

$$$$
19:0
     RDKit          3D

 60 62  0  0  0  0  0  0  0  0999 V2000
   56.0140   29.7170   43.2170 C   0  0  0  0  0  0  0  0  0  0  0  0
   57.0040   30.8300   43.5180 C   0  0  0  0  0  0  0  0  0  0  0  0
   56.8830   31.2190   44.8810 O   0  0  0  0  0  0  0  0  0  0  0  0
   57.5050   32.3530   45.4040 C   0  0  0  0  0  0  0  0  0  0  0  0
   57.4080   32.6360   46.6290 O   0  0  0  0  0  0  0  0  0  0  0  0
   58.3490   33.2070   44.5070 C   0  0  0  0  0  0  0  0  0  0  0  0
   58.6060   34.5970   45.1160 C   0  0  0  0  0  0  0  0  0  0  0  0
   59.2820   34.5520   46.4230 N   0  0  0  0  0  0  0  0  0  0  0  0
   60.6830   34.1210   46.3310 C   0  0  0  0  0  0  0  0  0  0  0  0
   60.8900   32.7780   47.0670 C   0  0  0  0  0  0  0  0  0  0  0  0
   59.6660   32.0730   47.5410 N   0  0  0  0  0  0  0  0  0  0  0  0
   59.8090   31.2300   48.7220 C   0  0  0  0  0  0  0  0  0  0  0  0
   59.7530   31.8280   50.0120 C   0  0  0  0  0  0  0  0  0  0  0  0
   59.3390   33.1730   50.1950 C   0  0  0  0  0  0  0  0  0  0  0  0
   59.2600   33.7370   51.4650 C   0  0  0  0  0  0  0  0  0  0  0  0
   59.5730   32.9810   52.5820 C   0  0  0  0  0  0  0  0  0  0  0  0
   59.9830   31.6610   52.4370 C   0  0  0  0  0  0  0  0  0  0  0  0
   60.1110   31.0660   51.1540 C   0  0  0  0  0  0  0  0  0  0  0  0
   60.5700   29.7780   51.0080 N   0  0  0  0  0  0  0  0  0  0  0  0
   61.2750   29.1180   52.1320 C   0  0  0  0  0  0  0  0  0  0  0  0
   60.3850   29.1060   49.8170 C   0  0  0  0  0  0  0  0  0  0  0  0
   60.5280   27.7000   49.7610 C   0  0  0  0  0  0  0  0  0  0  0  0
   60.4120   27.0090   48.5690 C   0  0  0  0  0  0  0  0  0  0  0  0
   60.1150   27.6840   47.4010 C   0  0  0  0  0  0  0  0  0  0  0  0
   59.8920   29.0720   47.4020 C   0  0  0  0  0  0  0  0  0  0  0  0
   59.5060   29.7110   46.2100 O   0  0  0  0  0  0  0  0  0  0  0  0
   59.8030   29.2960   44.8750 C   0  0  0  0  0  0  0  0  0  0  0  0
   58.8570   28.1870   44.4240 C   0  0  0  0  0  0  0  0  0  0  0  0
   60.0310   29.8160   48.6250 C   0  0  0  0  0  0  0  0  0  0  0  0
   55.6386   29.2950   44.1609 H   0  0  0  0  0  0  0  0  0  0  0  0
   55.1723   30.1221   42.6361 H   0  0  0  0  0  0  0  0  0  0  0  0
   56.5145   28.9283   42.6361 H   0  0  0  0  0  0  0  0  0  0  0  0
   58.0266   30.4717   43.3287 H   0  0  0  0  0  0  0  0  0  0  0  0
   56.7914   31.6937   42.8708 H   0  0  0  0  0  0  0  0  0  0  0  0
   59.3145   32.7059   44.3437 H   0  0  0  0  0  0  0  0  0  0  0  0
   57.8089   33.3441   43.5586 H   0  0  0  0  0  0  0  0  0  0  0  0
   59.2342   35.1712   44.4192 H   0  0  0  0  0  0  0  0  0  0  0  0
   57.6238   35.0653   45.2768 H   0  0  0  0  0  0  0  0  0  0  0  0
   58.7640   33.9170   47.0720 H   0  0  0  0  0  0  0  0  0  0  0  0
   60.9544   33.9982   45.2721 H   0  0  0  0  0  0  0  0  0  0  0  0
   61.3198   34.8844   46.8017 H   0  0  0  0  0  0  0  0  0  0  0  0
   61.4185   32.1007   46.3800 H   0  0  0  0  0  0  0  0  0  0  0  0
   61.4450   33.0349   47.9814 H   0  0  0  0  0  0  0  0  0  0  0  0
   58.8810   32.7480   47.6680 H   0  0  0  0  0  0  0  0  0  0  0  0
   59.2780   31.5050   46.7550 H   0  0  0  0  0  0  0  0  0  0  0  0
   59.0757   33.7810   49.3169 H   0  0  0  0  0  0  0  0  0  0  0  0
   58.9483   34.7854   51.5816 H   0  0  0  0  0  0  0  0  0  0  0  0
   59.4971   33.4257   53.5853 H   0  0  0  0  0  0  0  0  0  0  0  0
   60.2127   31.0658   53.3331 H   0  0  0  0  0  0  0  0  0  0  0  0
   60.8752   29.4923   53.0860 H   0  0  0  0  0  0  0  0  0  0  0  0
   61.1228   28.0302   52.0722 H   0  0  0  0  0  0  0  0  0  0  0  0
   62.3504   29.3416   52.0722 H   0  0  0  0  0  0  0  0  0  0  0  0
   60.7362   27.1436   50.6868 H   0  0  0  0  0  0  0  0  0  0  0  0
   60.5566   25.9187   48.5508 H   0  0  0  0  0  0  0  0  0  0  0  0
   60.0520   27.1265   46.4549 H   0  0  0  0  0  0  0  0  0  0  0  0
   59.6965   30.1569   44.1986 H   0  0  0  0  0  0  0  0  0  0  0  0
   60.8329   28.9104   44.8487 H   0  0  0  0  0  0  0  0  0  0  0  0
   58.4307   27.6873   45.3064 H   0  0  0  0  0  0  0  0  0  0  0  0
   58.0458   28.6200   43.8202 H   0  0  0  0  0  0  0  0  0  0  0  0
   59.4124   27.4542   43.8202 H   0  0  0  0  0  0  0  0  0  0  0  0
  1  2  1  0
  2  3  1  0
  3  4  1  0
  4  5  2  0
  4  6  1  0
  6  7  1  0
  7  8  1  0
  8  9  1  0
  9 10  1  0
 10 11  1  0
 11 12  1  0
 12 13  2  0
 13 14  1  0
 14 15  2  0
 15 16  1  0
 16 17  2  0
 17 18  1  0
 18 19  2  0
 19 20  1  0
 19 21  1  0
 21 22  2  0
 22 23  1  0
 23 24  2  0
 24 25  1  0
 25 26  1  0
 26 27  1  0
 27 28  1  0
 25 29  2  0
 29 12  1  0
 18 13  1  0
 29 21  1  0
  1 30  1  0
  1 31  1  0
  1 32  1  0
  2 33  1  0
  2 34  1  0
  6 35  1  0
  6 36  1  0
  7 37  1  0
  7 38  1  0
  8 39  1  0
  9 40  1  0
  9 41  1  0
 10 42  1  0
 10 43  1  0
 11 44  1  0
 11 45  1  0
 14 46  1  0
 15 47  1  0
 16 48  1  0
 17 49  1  0
 20 50  1  0
 20 51  1  0
 20 52  1  0
 22 53  1  0
 23 54  1  0
 24 55  1  0
 27 56  1  0
 27 57  1  0
 28 58  1  0
 28 59  1  0
 28 60  1  0
M  CHG  2  11   1  19   1
M  END
>  <UniqueID>  (19) 
19

>  <SMILES>  (19) 
CCOC(=O)CCNCC[NH2+]c1c2ccccc2[n+](C)c2cccc(OCC)c12

>  <Energy>  (19) 
89.36872306446075

>  <Genealogy>  (19) 
CCOC(=O)CCNCC[NH2+]c1c2ccccc2[n+](C)c2cccc(OCC)c12 (protonated)
CCOC(=O)CCNCC[NH2+]c1c2ccccc2[n+](C)c2cccc(OCC)c12 (3D coordinates assigned)
CCOC(=O)CCNCC[NH2+]c1c2ccccc2[n+](C)c2cccc(OCC)c12 (optimized conformer: 89.36872306446075 kcal/mol)

>  <smiles>  (19) 
CCOC(=O)CCNCCNc1c2ccccc2[n+](C)c2cccc(OCC)c12

>  <score_type>  (19) 
oracle

>  <origin>  (19) 
adg

>  <m_score__min__energy>  (19) 
-4.0099999999999998

>  <m_primary>  (19) 
energy

$$$$
20:0
     RDKit          3D

 54 56  0  0  0  0  0  0  0  0999 V2000
   63.0350   33.8430   46.4270 C   0  0  0  0  0  0  0  0  0  0  0  0
   63.3830   32.6450   47.3080 C   0  0  0  0  0  0  0  0  0  0  0  0
   63.9920   33.0660   48.6620 C   0  0  0  0  0  0  0  0  0  0  0  0
   62.9920   33.7760   49.6000 C   0  0  0  0  0  0  0  0  0  0  0  0
   62.3670   32.8870   50.5970 N   0  0  0  0  0  0  0  0  0  0  0  0
   60.9400   32.6460   50.3210 C   0  0  0  0  0  0  0  0  0  0  0  0
   60.7500   31.5780   49.2350 C   0  0  0  0  0  0  0  0  0  0  0  0
   59.3620   31.5320   48.7730 N   0  0  0  0  0  0  0  0  0  0  0  0
   59.0710   31.6220   47.3680 C   0  0  0  0  0  0  0  0  0  0  0  0
   59.1170   32.8670   46.7160 C   0  0  0  0  0  0  0  0  0  0  0  0
   59.4790   34.0370   47.4180 C   0  0  0  0  0  0  0  0  0  0  0  0
   59.5820   35.2590   46.7590 C   0  0  0  0  0  0  0  0  0  0  0  0
   59.3430   35.3350   45.3920 C   0  0  0  0  0  0  0  0  0  0  0  0
   58.9750   34.1940   44.6790 C   0  0  0  0  0  0  0  0  0  0  0  0
   58.8200   32.9410   45.3290 C   0  0  0  0  0  0  0  0  0  0  0  0
   58.4120   31.8110   44.6450 N   0  0  0  0  0  0  0  0  0  0  0  0
   57.8340   31.9380   43.2870 C   0  0  0  0  0  0  0  0  0  0  0  0
   58.5120   30.5670   45.2390 C   0  0  0  0  0  0  0  0  0  0  0  0
   58.3510   29.3690   44.4970 C   0  0  0  0  0  0  0  0  0  0  0  0
   58.3800   28.1160   45.1150 C   0  0  0  0  0  0  0  0  0  0  0  0
   58.2040   26.9760   44.3150 O   0  0  0  0  0  0  0  0  0  0  0  0
   58.1060   26.9960   42.8940 C   0  0  0  0  0  0  0  0  0  0  0  0
   58.5820   28.0380   46.4980 C   0  0  0  0  0  0  0  0  0  0  0  0
   58.7910   29.1940   47.2420 C   0  0  0  0  0  0  0  0  0  0  0  0
   58.7950   30.4620   46.6260 C   0  0  0  0  0  0  0  0  0  0  0  0
   62.7846   34.7051   47.0626 H   0  0  0  0  0  0  0  0  0  0  0  0
   63.8974   34.0939   45.7919 H   0  0  0  0  0  0  0  0  0  0  0  0
   62.1724   33.5928   45.7919 H   0  0  0  0  0  0  0  0  0  0  0  0
   62.4659   32.0680   47.4976 H   0  0  0  0  0  0  0  0  0  0  0  0
   64.1349   32.0445   46.7749 H   0  0  0  0  0  0  0  0  0  0  0  0
   64.3645   32.1644   49.1703 H   0  0  0  0  0  0  0  0  0  0  0  0
   64.7937   33.7867   48.4430 H   0  0  0  0  0  0  0  0  0  0  0  0
   63.5274   34.5737   50.1358 H   0  0  0  0  0  0  0  0  0  0  0  0
   62.1804   34.1615   48.9654 H   0  0  0  0  0  0  0  0  0  0  0  0
   62.4940   33.2760   51.5580 H   0  0  0  0  0  0  0  0  0  0  0  0
   62.8730   31.9710   50.5540 H   0  0  0  0  0  0  0  0  0  0  0  0
   60.4493   32.3072   51.2454 H   0  0  0  0  0  0  0  0  0  0  0  0
   60.4941   33.5857   49.9630 H   0  0  0  0  0  0  0  0  0  0  0  0
   61.4040   31.8133   48.3824 H   0  0  0  0  0  0  0  0  0  0  0  0
   61.0067   30.5976   49.6628 H   0  0  0  0  0  0  0  0  0  0  0  0
   58.6100   31.8250   49.4360 H   0  0  0  0  0  0  0  0  0  0  0  0
   59.6820   33.9826   48.4977 H   0  0  0  0  0  0  0  0  0  0  0  0
   59.8528   36.1652   47.3207 H   0  0  0  0  0  0  0  0  0  0  0  0
   59.4444   36.2982   44.8706 H   0  0  0  0  0  0  0  0  0  0  0  0
   58.8020   34.2660   43.5951 H   0  0  0  0  0  0  0  0  0  0  0  0
   56.7623   32.1735   43.3652 H   0  0  0  0  0  0  0  0  0  0  0  0
   58.3480   32.7446   42.7437 H   0  0  0  0  0  0  0  0  0  0  0  0
   57.9625   30.9902   42.7437 H   0  0  0  0  0  0  0  0  0  0  0  0
   58.1997   29.4276   43.4090 H   0  0  0  0  0  0  0  0  0  0  0  0
   57.0671   27.2080   42.6011 H   0  0  0  0  0  0  0  0  0  0  0  0
   58.7672   27.7777   42.4918 H   0  0  0  0  0  0  0  0  0  0  0  0
   58.4080   26.0177   42.4918 H   0  0  0  0  0  0  0  0  0  0  0  0
   58.5754   27.0583   46.9982 H   0  0  0  0  0  0  0  0  0  0  0  0
   58.9556   29.1180   48.3270 H   0  0  0  0  0  0  0  0  0  0  0  0
  1  2  1  0
  2  3  1  0
  3  4  1  0
  4  5  1  0
  5  6  1  0
  6  7  1  0
  7  8  1  0
  8  9  1  0
  9 10  2  0
 10 11  1  0
 11 12  2  0
 12 13  1  0
 13 14  2  0
 14 15  1  0
 15 16  2  0
 16 17  1  0
 16 18  1  0
 18 19  2  0
 19 20  1  0
 20 21  1  0
 21 22  1  0
 20 23  2  0
 23 24  1  0
 24 25  2  0
 25  9  1  0
 15 10  1  0
 25 18  1  0
  1 26  1  0
  1 27  1  0
  1 28  1  0
  2 29  1  0
  2 30  1  0
  3 31  1  0
  3 32  1  0
  4 33  1  0
  4 34  1  0
  5 35  1  0
  5 36  1  0
  6 37  1  0
  6 38  1  0
  7 39  1  0
  7 40  1  0
  8 41  1  0
 11 42  1  0
 12 43  1  0
 13 44  1  0
 14 45  1  0
 17 46  1  0
 17 47  1  0
 17 48  1  0
 19 49  1  0
 22 50  1  0
 22 51  1  0
 22 52  1  0
 23 53  1  0
 24 54  1  0
M  CHG  2   5   1  16   1
M  END
>  <UniqueID>  (20) 
20

>  <SMILES>  (20) 
CCCC[NH2+]CCNc1c2ccccc2[n+](C)c2cc(OC)ccc12

>  <Energy>  (20) 
76.39056700982928

>  <Genealogy>  (20) 
CCCC[NH2+]CCNc1c2ccccc2[n+](C)c2cc(OC)ccc12 (protonated)
CCCC[NH2+]CCNc1c2ccccc2[n+](C)c2cc(OC)ccc12 (3D coordinates assigned)
CCCC[NH2+]CCNc1c2ccccc2[n+](C)c2cc(OC)ccc12 (optimized conformer: 76.39056700982928 kcal/mol)

>  <smiles>  (20) 
CCCCNCCNc1c2ccccc2[n+](C)c2cc(OC)ccc12

>  <score_type>  (20) 
oracle

>  <origin>  (20) 
adg

>  <m_score__min__energy>  (20) 
-4.4299999999999997

>  <m_primary>  (20) 
energy

$$$$
21:0
     RDKit          3D

 54 58  0  0  0  0  0  0  0  0999 V2000
   63.3880   34.2160   46.3460 C   0  0  0  0  0  0  0  0  0  0  0  0
   63.7770   33.5470   47.6580 C   0  0  0  0  0  0  0  0  0  0  0  0
   63.6260   32.0910   47.5370 N   0  0  0  0  0  0  0  0  0  0  0  0
   62.6790   31.5470   48.5230 C   0  0  0  0  0  0  0  0  0  0  0  0
   61.6190   32.5730   48.9550 C   0  0  0  0  0  0  0  0  0  0  0  0
   60.2760   32.0050   48.8570 N   0  0  0  0  0  0  0  0  0  0  0  0
   59.6540   31.8390   47.5800 C   0  0  0  0  0  0  0  0  0  0  0  0
   59.2670   30.5730   47.1590 C   0  0  0  0  0  0  0  0  0  0  0  0
   58.7030   30.3780   45.9200 C   0  0  0  0  0  0  0  0  0  0  0  0
   58.3830   31.4250   45.0920 N   0  0  0  0  0  0  0  0  0  0  0  0
   57.4890   31.2190   43.9420 C   0  0  0  0  0  0  0  0  0  0  0  0
   58.8470   32.6900   45.4220 C   0  0  0  0  0  0  0  0  0  0  0  0
   58.7380   33.7400   44.5450 N   0  0  0  0  0  0  0  0  0  0  0  0
   59.1340   35.0000   44.8750 C   0  0  0  0  0  0  0  0  0  0  0  0
   59.6790   35.2640   46.1280 C   0  0  0  0  0  0  0  0  0  0  0  0
   59.8460   34.2240   47.0370 C   0  0  0  0  0  0  0  0  0  0  0  0
   59.4610   32.9180   46.6940 C   0  0  0  0  0  0  0  0  0  0  0  0
   58.5170   28.9300   45.7740 C   0  0  0  0  0  0  0  0  0  0  0  0
   58.1770   28.1780   44.6430 C   0  0  0  0  0  0  0  0  0  0  0  0
   58.1290   26.7790   44.7570 C   0  0  0  0  0  0  0  0  0  0  0  0
   57.7590   25.9900   43.6560 C   0  0  0  0  0  0  0  0  0  0  0  0
   57.7100   24.5980   43.7700 C   0  0  0  0  0  0  0  0  0  0  0  0
   58.0360   23.9820   44.9810 C   0  0  0  0  0  0  0  0  0  0  0  0
   58.4140   24.7500   46.0840 C   0  0  0  0  0  0  0  0  0  0  0  0
   58.4660   26.1530   45.9870 C   0  0  0  0  0  0  0  0  0  0  0  0
   58.8720   26.9570   47.0710 C   0  0  0  0  0  0  0  0  0  0  0  0
   59.2230   26.4390   48.1680 O   0  0  0  0  0  0  0  0  0  0  0  0
   58.8940   28.3100   46.9190 N   0  0  0  0  0  0  0  0  0  0  0  0
   59.3950   29.2780   47.8960 C   0  0  0  0  0  0  0  0  0  0  0  0
   62.8453   35.1493   46.5571 H   0  0  0  0  0  0  0  0  0  0  0  0
   64.2953   34.4424   45.7667 H   0  0  0  0  0  0  0  0  0  0  0  0
   62.7424   33.5395   45.7667 H   0  0  0  0  0  0  0  0  0  0  0  0
   64.8241   33.7873   47.8942 H   0  0  0  0  0  0  0  0  0  0  0  0
   63.1223   33.9149   48.4618 H   0  0  0  0  0  0  0  0  0  0  0  0
   64.5600   31.6370   47.6660 H   0  0  0  0  0  0  0  0  0  0  0  0
   62.1688   30.6792   48.0796 H   0  0  0  0  0  0  0  0  0  0  0  0
   63.2546   31.2667   49.4175 H   0  0  0  0  0  0  0  0  0  0  0  0
   61.8092   32.8711   49.9966 H   0  0  0  0  0  0  0  0  0  0  0  0
   61.6818   33.4462   48.2890 H   0  0  0  0  0  0  0  0  0  0  0  0
   59.8580   31.5010   49.6740 H   0  0  0  0  0  0  0  0  0  0  0  0
   56.4762   30.9856   44.3021 H   0  0  0  0  0  0  0  0  0  0  0  0
   57.4595   32.1339   43.3320 H   0  0  0  0  0  0  0  0  0  0  0  0
   57.8628   30.3835   43.3320 H   0  0  0  0  0  0  0  0  0  0  0  0
   58.3840   33.6060   43.5740 H   0  0  0  0  0  0  0  0  0  0  0  0
   59.0223   35.8158   44.1456 H   0  0  0  0  0  0  0  0  0  0  0  0
   59.9758   36.2882   46.3980 H   0  0  0  0  0  0  0  0  0  0  0  0
   60.2808   34.4255   48.0271 H   0  0  0  0  0  0  0  0  0  0  0  0
   57.9524   28.6720   43.6862 H   0  0  0  0  0  0  0  0  0  0  0  0
   57.5065   26.4699   42.6990 H   0  0  0  0  0  0  0  0  0  0  0  0
   57.4143   23.9863   42.9049 H   0  0  0  0  0  0  0  0  0  0  0  0
   57.9946   22.8861   45.0658 H   0  0  0  0  0  0  0  0  0  0  0  0
   58.6722   24.2565   47.0326 H   0  0  0  0  0  0  0  0  0  0  0  0
   58.7806   29.2769   48.8085 H   0  0  0  0  0  0  0  0  0  0  0  0
   60.4185   29.0667   48.2392 H   0  0  0  0  0  0  0  0  0  0  0  0
  1  2  1  0
  2  3  1  0
  3  4  1  0
  4  5  1  0
  5  6  1  0
  6  7  1  0
  7  8  2  0
  8  9  1  0
  9 10  2  0
 10 11  1  0
 10 12  1  0
 12 13  2  0
 13 14  1  0
 14 15  2  0
 15 16  1  0
 16 17  2  0
  9 18  1  0
 18 19  2  0
 19 20  1  0
 20 21  2  0
 21 22  1  0
 22 23  2  0
 23 24  1  0
 24 25  2  0
 25 26  1  0
 26 27  2  0
 26 28  1  0
 28 29  1  0
 17  7  1  0
 28 18  1  0
 29  8  1  0
 17 12  1  0
 25 20  1  0
  1 30  1  0
  1 31  1  0
  1 32  1  0
  2 33  1  0
  2 34  1  0
  3 35  1  0
  4 36  1  0
  4 37  1  0
  5 38  1  0
  5 39  1  0
  6 40  1  0
 11 41  1  0
 11 42  1  0
 11 43  1  0
 13 44  1  0
 14 45  1  0
 15 46  1  0
 16 47  1  0
 19 48  1  0
 21 49  1  0
 22 50  1  0
 23 51  1  0
 24 52  1  0
 29 53  1  0
 29 54  1  0
M  CHG  2  10   1  13   1
M  END
>  <UniqueID>  (21) 
21

>  <SMILES>  (21) 
CCNCCNc1c2c([n+](C)c3[nH+]cccc13)-c1cc3ccccc3c(=O)n1C2

>  <Energy>  (21) 
104.80674681412111

>  <Genealogy>  (21) 
CCNCCNc1c2c([n+](C)c3[nH+]cccc13)-c1cc3ccccc3c(=O)n1C2 (protonated)
CCNCCNc1c2c([n+](C)c3[nH+]cccc13)-c1cc3ccccc3c(=O)n1C2 (3D coordinates assigned)
CCNCCNc1c2c([n+](C)c3[nH+]cccc13)-c1cc3ccccc3c(=O)n1C2 (nonaromatic ring conformer: 104.80674681412111 kcal/mol)

>  <smiles>  (21) 
CCNCCNc1c2c([n+](C)c3ncccc13)-c1cc3ccccc3c(=O)n1C2

>  <score_type>  (21) 
oracle

>  <origin>  (21) 
adg

>  <m_score__min__energy>  (21) 
-5.1900000000000004

>  <m_primary>  (21) 
energy

$$$$
22:0
     RDKit          3D

 38 39  0  0  0  0  0  0  0  0999 V2000
   64.3250   33.0640   48.9220 C   0  0  0  0  0  0  0  0  0  0  0  0
   63.5880   33.7630   47.7850 C   0  0  0  0  0  0  0  0  0  0  0  0
   62.1990   33.8960   48.0890 O   0  0  0  0  0  0  0  0  0  0  0  0
   61.1350   33.5200   47.2500 C   0  0  0  0  0  0  0  0  0  0  0  0
   60.3760   34.4630   46.5300 C   0  0  0  0  0  0  0  0  0  0  0  0
   59.3360   34.0480   45.6970 C   0  0  0  0  0  0  0  0  0  0  0  0
   59.0350   32.6890   45.5650 C   0  0  0  0  0  0  0  0  0  0  0  0
   57.7440   32.1690   44.4810 S   0  0  0  0  0  0  0  0  0  0  0  0
   57.6930   33.1050   43.3050 O   0  0  0  0  0  0  0  0  0  0  0  0
   56.4270   32.2650   45.1990 O   0  0  0  0  0  0  0  0  0  0  0  0
   57.9710   30.5320   43.9010 N   0  0  0  0  0  0  0  0  0  0  0  0
   58.0880   29.5470   44.9980 C   0  0  0  0  0  0  0  0  0  0  0  0
   56.7940   28.7460   45.2250 C   0  0  0  0  0  0  0  0  0  0  0  0
   55.6690   29.5170   44.8700 O   0  0  0  0  0  0  0  0  0  0  0  0
   55.6340   29.6890   43.4680 C   0  0  0  0  0  0  0  0  0  0  0  0
   56.9840   30.1520   42.8720 C   0  0  0  0  0  0  0  0  0  0  0  0
   59.7720   31.7460   46.2900 C   0  0  0  0  0  0  0  0  0  0  0  0
   60.8170   32.1520   47.1340 C   0  0  0  0  0  0  0  0  0  0  0  0
   61.6190   31.1250   47.8840 C   0  0  0  0  0  0  0  0  0  0  0  0
   63.9411   33.4281   49.8864 H   0  0  0  0  0  0  0  0  0  0  0  0
   64.1648   31.9781   48.8500 H   0  0  0  0  0  0  0  0  0  0  0  0
   65.4009   33.2814   48.8500 H   0  0  0  0  0  0  0  0  0  0  0  0
   64.0218   34.7626   47.6344 H   0  0  0  0  0  0  0  0  0  0  0  0
   63.6935   33.1591   46.8717 H   0  0  0  0  0  0  0  0  0  0  0  0
   60.6047   35.5348   46.6250 H   0  0  0  0  0  0  0  0  0  0  0  0
   58.7497   34.7944   45.1411 H   0  0  0  0  0  0  0  0  0  0  0  0
   58.8976   28.8437   44.7532 H   0  0  0  0  0  0  0  0  0  0  0  0
   58.2963   30.1059   45.9222 H   0  0  0  0  0  0  0  0  0  0  0  0
   56.8186   27.8356   44.6080 H   0  0  0  0  0  0  0  0  0  0  0  0
   56.7219   28.4798   46.2899 H   0  0  0  0  0  0  0  0  0  0  0  0
   55.3596   28.7293   43.0057 H   0  0  0  0  0  0  0  0  0  0  0  0
   54.8977   30.4783   43.2560 H   0  0  0  0  0  0  0  0  0  0  0  0
   57.4022   29.3301   42.2723 H   0  0  0  0  0  0  0  0  0  0  0  0
   56.7843   31.0460   42.2630 H   0  0  0  0  0  0  0  0  0  0  0  0
   59.5301   30.6769   46.1975 H   0  0  0  0  0  0  0  0  0  0  0  0
   61.4962   31.2823   48.9657 H   0  0  0  0  0  0  0  0  0  0  0  0
   61.2659   30.1179   47.6175 H   0  0  0  0  0  0  0  0  0  0  0  0
   62.6817   31.2234   47.6175 H   0  0  0  0  0  0  0  0  0  0  0  0
  1  2  1  0
  2  3  1  0
  3  4  1  0
  4  5  2  0
  5  6  1  0
  6  7  2  0
  7  8  1  0
  8  9  2  0
  8 10  2  0
  8 11  1  0
 11 12  1  0
 12 13  1  0
 13 14  1  0
 14 15  1  0
 15 16  1  0
  7 17  1  0
 17 18  2  0
 18 19  1  0
 18  4  1  0
 16 11  1  0
  1 20  1  0
  1 21  1  0
  1 22  1  0
  2 23  1  0
  2 24  1  0
  5 25  1  0
  6 26  1  0
 12 27  1  0
 12 28  1  0
 13 29  1  0
 13 30  1  0
 15 31  1  0
 15 32  1  0
 16 33  1  0
 16 34  1  0
 17 35  1  0
 19 36  1  0
 19 37  1  0
 19 38  1  0
M  END
>  <UniqueID>  (22) 
22

>  <SMILES>  (22) 
CCOc1ccc(S(=O)(=O)N2CCOCC2)cc1C

>  <Energy>  (22) 
44.96171931449597

>  <Genealogy>  (22) 
CCOc1ccc(S(=O)(=O)N2CCOCC2)cc1C (3D coordinates assigned)
CCOc1ccc(S(=O)(=O)N2CCOCC2)cc1C (nonaromatic ring conformer: 44.96171931449597 kcal/mol)

>  <smiles>  (22) 
CCOc1ccc(S(=O)(=O)N2CCOCC2)cc1C

>  <score_type>  (22) 
oracle

>  <origin>  (22) 
adg

>  <m_score__min__energy>  (22) 
-7.0499999999999998

>  <m_primary>  (22) 
energy

$$$$
23:0
     RDKit          3D

 41 44  0  0  0  0  0  0  0  0999 V2000
   57.3680   24.8640   43.2900 C   0  0  0  0  0  0  0  0  0  0  0  0
   57.7450   26.0050   43.1940 C   0  0  0  0  0  0  0  0  0  0  0  0
   58.2060   27.3980   43.0750 C   0  0  0  0  0  0  0  0  0  0  0  0
   57.1340   28.3580   43.4040 N   0  0  0  0  0  0  0  0  0  0  0  0
   57.4690   29.8110   43.3900 C   0  0  0  0  0  0  0  0  0  0  0  0
   57.9000   30.4160   44.7220 C   0  0  0  0  0  0  0  0  0  0  0  0
   58.1050   31.8100   44.7650 C   0  0  0  0  0  0  0  0  0  0  0  0
   58.4480   32.4480   45.9570 C   0  0  0  0  0  0  0  0  0  0  0  0
   58.6700   33.8340   46.0060 C   0  0  0  0  0  0  0  0  0  0  0  0
   59.0010   34.4460   47.2200 C   0  0  0  0  0  0  0  0  0  0  0  0
   59.1070   33.6810   48.3860 C   0  0  0  0  0  0  0  0  0  0  0  0
   58.8860   32.3010   48.3430 C   0  0  0  0  0  0  0  0  0  0  0  0
   58.5590   31.6810   47.1300 C   0  0  0  0  0  0  0  0  0  0  0  0
   58.3340   30.3430   47.0860 N   0  0  0  0  0  0  0  0  0  0  0  0
   58.0200   29.6800   45.9380 C   0  0  0  0  0  0  0  0  0  0  0  0
   57.7470   28.2330   46.0830 C   0  0  0  0  0  0  0  0  0  0  0  0
   58.6310   27.2250   46.4760 C   0  0  0  0  0  0  0  0  0  0  0  0
   57.8670   26.0810   46.4850 C   0  0  0  0  0  0  0  0  0  0  0  0
   58.1970   24.7640   46.7960 C   0  0  0  0  0  0  0  0  0  0  0  0
   57.1750   23.7990   46.7250 C   0  0  0  0  0  0  0  0  0  0  0  0
   55.8640   24.1710   46.3510 C   0  0  0  0  0  0  0  0  0  0  0  0
   55.5640   25.5110   46.0460 C   0  0  0  0  0  0  0  0  0  0  0  0
   56.5970   26.4440   46.1250 C   0  0  0  0  0  0  0  0  0  0  0  0
   56.5380   27.7290   45.8960 O   0  0  0  0  0  0  0  0  0  0  0  0
   57.0240   23.8229   43.3776 H   0  0  0  0  0  0  0  0  0  0  0  0
   59.0487   27.5547   43.7644 H   0  0  0  0  0  0  0  0  0  0  0  0
   58.5121   27.5699   42.0325 H   0  0  0  0  0  0  0  0  0  0  0  0
   56.7070   28.0980   44.3230 H   0  0  0  0  0  0  0  0  0  0  0  0
   56.3690   28.2080   42.7030 H   0  0  0  0  0  0  0  0  0  0  0  0
   58.2899   29.9592   42.6729 H   0  0  0  0  0  0  0  0  0  0  0  0
   56.5346   30.3257   43.1217 H   0  0  0  0  0  0  0  0  0  0  0  0
   57.9929   32.4031   43.8454 H   0  0  0  0  0  0  0  0  0  0  0  0
   58.5837   34.4379   45.0907 H   0  0  0  0  0  0  0  0  0  0  0  0
   59.1782   35.5310   47.2574 H   0  0  0  0  0  0  0  0  0  0  0  0
   59.3648   34.1660   49.3390 H   0  0  0  0  0  0  0  0  0  0  0  0
   58.9689   31.7020   49.2619 H   0  0  0  0  0  0  0  0  0  0  0  0
   59.6984   27.3239   46.7228 H   0  0  0  0  0  0  0  0  0  0  0  0
   59.2212   24.4877   47.0871 H   0  0  0  0  0  0  0  0  0  0  0  0
   57.3982   22.7483   46.9622 H   0  0  0  0  0  0  0  0  0  0  0  0
   55.0733   23.4081   46.2981 H   0  0  0  0  0  0  0  0  0  0  0  0
   54.5472   25.8130   45.7546 H   0  0  0  0  0  0  0  0  0  0  0  0
  1  2  3  0
  2  3  1  0
  3  4  1  0
  4  5  1  0
  5  6  1  0
  6  7  2  0
  7  8  1  0
  8  9  2  0
  9 10  1  0
 10 11  2  0
 11 12  1  0
 12 13  2  0
 13 14  1  0
 14 15  2  0
 15 16  1  0
 16 17  2  0
 17 18  1  0
 18 19  2  0
 19 20  1  0
 20 21  2  0
 21 22  1  0
 22 23  2  0
 23 24  1  0
 15  6  1  0
 24 16  1  0
 13  8  1  0
 23 18  1  0
  1 25  1  0
  3 26  1  0
  3 27  1  0
  4 28  1  0
  4 29  1  0
  5 30  1  0
  5 31  1  0
  7 32  1  0
  9 33  1  0
 10 34  1  0
 11 35  1  0
 12 36  1  0
 17 37  1  0
 19 38  1  0
 20 39  1  0
 21 40  1  0
 22 41  1  0
M  CHG  1   4   1
M  END
>  <UniqueID>  (23) 
23

>  <SMILES>  (23) 
C#CC[NH2+]Cc1cc2ccccc2nc1-c1cc2ccccc2o1

>  <Energy>  (23) 
94.86017361009993

>  <Genealogy>  (23) 
C#CC[NH2+]Cc1cc2ccccc2nc1-c1cc2ccccc2o1 (protonated)
C#CC[NH2+]Cc1cc2ccccc2nc1-c1cc2ccccc2o1 (3D coordinates assigned)
C#CC[NH2+]Cc1cc2ccccc2nc1-c1cc2ccccc2o1 (optimized conformer: 94.86017361009993 kcal/mol)

>  <smiles>  (23) 
C#CCNCc1cc2ccccc2nc1-c1cc2ccccc2o1

>  <score_type>  (23) 
oracle

>  <origin>  (23) 
adg

>  <m_score__min__energy>  (23) 
-5.5

>  <m_primary>  (23) 
energy

$$$$
24:0
     RDKit          3D

118119  0  0  0  0  0  0  0  0999 V2000
   55.2200   23.7610   46.5860 C   0  0  0  0  0  0  0  0  0  0  0  0
   54.8310   24.8200   45.5680 C   0  0  0  0  0  0  0  0  0  0  0  0
   55.2640   26.0750   46.0270 O   0  0  0  0  0  0  0  0  0  0  0  0
   56.5100   26.2510   45.5130 N   0  0  0  0  0  0  0  0  0  0  0  0
   57.1090   27.4120   46.1710 C   0  0  0  0  0  0  0  0  0  0  0  0
   58.2370   28.0070   45.3110 C   0  0  0  0  0  0  0  0  0  0  0  0
   57.7300   28.8600   44.1290 C   0  0  0  0  0  0  0  0  0  0  0  0
   56.2960   29.3920   44.2980 C   0  0  0  0  0  0  0  0  0  0  0  0
   56.2880   30.8110   44.6810 N   0  0  0  0  0  0  0  0  0  0  0  0
   57.6360   31.2930   45.0050 C   0  0  0  0  0  0  0  0  0  0  0  0
   57.8580   32.6660   44.3590 C   0  0  0  0  0  0  0  0  0  0  0  0
   58.1540   33.7730   45.3810 C   0  0  0  0  0  0  0  0  0  0  0  0
   59.5280   34.4570   45.2260 C   0  0  0  0  0  0  0  0  0  0  0  0
   60.3520   34.3960   46.4430 N   0  0  0  0  0  0  0  0  0  0  0  0
   59.6600   34.8940   47.6410 C   0  0  0  0  0  0  0  0  0  0  0  0
   59.3150   33.7120   48.5570 C   0  0  0  0  0  0  0  0  0  0  0  0
   59.9790   33.8370   49.9310 C   0  0  0  0  0  0  0  0  0  0  0  0
   58.9490   33.8400   50.9920 N   0  0  0  0  0  0  0  0  0  0  0  0
   58.8000   32.5240   51.6340 C   0  0  0  0  0  0  0  0  0  0  0  0
   57.7200   31.6830   50.9330 C   0  0  0  0  0  0  0  0  0  0  0  0
   58.2410   30.2890   50.5570 C   0  0  0  0  0  0  0  0  0  0  0  0
   58.8140   30.2880   49.1990 N   0  0  0  0  0  0  0  0  0  0  0  0
   59.9220   29.3290   49.0860 C   0  0  0  0  0  0  0  0  0  0  0  0
   60.2750   29.0890   47.6120 C   0  0  0  0  0  0  0  0  0  0  0  0
   60.3760   30.4010   46.8140 C   0  0  0  0  0  0  0  0  0  0  0  0
   60.8780   31.4910   47.6630 N   0  0  0  0  0  0  0  0  0  0  0  0
   62.2300   31.2170   48.1650 C   0  0  0  0  0  0  0  0  0  0  0  0
   63.2760   31.7860   47.2030 C   0  0  0  0  0  0  0  0  0  0  0  0
   62.9210   33.1570   46.8090 N   0  0  0  0  0  0  0  0  0  0  0  0
   63.6010   34.1610   47.6390 C   0  0  0  0  0  0  0  0  0  0  0  0
   63.0350   34.2110   49.0780 C   0  0  0  0  0  0  0  0  0  0  0  0
   64.0170   33.6370   50.1060 C   0  0  0  0  0  0  0  0  0  0  0  0
   65.2470   33.2050   49.4280 N   0  0  0  0  0  0  0  0  0  0  0  0
   66.2930   32.8020   50.3760 C   0  0  0  0  0  0  0  0  0  0  0  0
   66.4330   31.2710   50.4320 C   0  0  0  0  0  0  0  0  0  0  0  0
   66.9430   30.7900   51.7950 C   0  0  0  0  0  0  0  0  0  0  0  0
   65.8920   30.0750   52.5240 N   0  0  0  0  0  0  0  0  0  0  0  0
   64.4910   30.2780   52.2660 C   0  0  0  0  0  0  0  0  0  0  0  0
   63.7600   29.2940   51.5740 C   0  0  0  0  0  0  0  0  0  0  0  0
   62.4160   29.4910   51.2600 C   0  0  0  0  0  0  0  0  0  0  0  0
   61.7740   30.6700   51.6290 C   0  0  0  0  0  0  0  0  0  0  0  0
   62.4650   31.6640   52.3350 C   0  0  0  0  0  0  0  0  0  0  0  0
   61.8060   32.8430   52.7170 C   0  0  0  0  0  0  0  0  0  0  0  0
   62.4860   33.8260   53.4380 C   0  0  0  0  0  0  0  0  0  0  0  0
   63.8220   33.6410   53.7920 C   0  0  0  0  0  0  0  0  0  0  0  0
   64.4900   32.4700   53.4220 C   0  0  0  0  0  0  0  0  0  0  0  0
   63.8330   31.4710   52.6720 C   0  0  0  0  0  0  0  0  0  0  0  0
   55.0743   24.1576   47.6016 H   0  0  0  0  0  0  0  0  0  0  0  0
   54.5906   22.8697   46.4467 H   0  0  0  0  0  0  0  0  0  0  0  0
   56.2767   23.4891   46.4467 H   0  0  0  0  0  0  0  0  0  0  0  0
   55.3073   24.5959   44.6021 H   0  0  0  0  0  0  0  0  0  0  0  0
   53.7387   24.8279   45.4381 H   0  0  0  0  0  0  0  0  0  0  0  0
   56.3970   26.4740   44.5000 H   0  0  0  0  0  0  0  0  0  0  0  0
   56.3341   28.1767   46.3284 H   0  0  0  0  0  0  0  0  0  0  0  0
   57.5324   27.0913   47.1342 H   0  0  0  0  0  0  0  0  0  0  0  0
   58.8657   28.6415   45.9530 H   0  0  0  0  0  0  0  0  0  0  0  0
   58.7951   27.1617   44.8821 H   0  0  0  0  0  0  0  0  0  0  0  0
   58.4047   29.7208   44.0116 H   0  0  0  0  0  0  0  0  0  0  0  0
   57.7186   28.2009   43.2484 H   0  0  0  0  0  0  0  0  0  0  0  0
   55.7575   29.2760   43.3459 H   0  0  0  0  0  0  0  0  0  0  0  0
   55.8071   28.8165   45.0979 H   0  0  0  0  0  0  0  0  0  0  0  0
   55.9440   31.3560   43.8550 H   0  0  0  0  0  0  0  0  0  0  0  0
   57.7416   31.3801   46.0965 H   0  0  0  0  0  0  0  0  0  0  0  0
   58.3817   30.5820   44.6196 H   0  0  0  0  0  0  0  0  0  0  0  0
   58.7090   32.5931   43.6659 H   0  0  0  0  0  0  0  0  0  0  0  0
   56.9266   32.9388   43.8413 H   0  0  0  0  0  0  0  0  0  0  0  0
   57.3763   34.5446   45.2823 H   0  0  0  0  0  0  0  0  0  0  0  0
   58.1645   33.2848   46.3667 H   0  0  0  0  0  0  0  0  0  0  0  0
   60.0742   33.9612   44.4100 H   0  0  0  0  0  0  0  0  0  0  0  0
   59.3394   35.5199   45.0147 H   0  0  0  0  0  0  0  0  0  0  0  0
   60.6950   33.4210   46.6050 H   0  0  0  0  0  0  0  0  0  0  0  0
   60.3148   35.5960   48.1781 H   0  0  0  0  0  0  0  0  0  0  0  0
   58.7358   35.4113   47.3438 H   0  0  0  0  0  0  0  0  0  0  0  0
   58.2240   33.6743   48.6921 H   0  0  0  0  0  0  0  0  0  0  0  0
   59.6895   32.7935   48.0814 H   0  0  0  0  0  0  0  0  0  0  0  0
   60.6589   32.9863   50.0858 H   0  0  0  0  0  0  0  0  0  0  0  0
   60.5447   34.7794   49.9743 H   0  0  0  0  0  0  0  0  0  0  0  0
   59.2620   34.5040   51.7360 H   0  0  0  0  0  0  0  0  0  0  0  0
   59.7600   31.9894   51.5837 H   0  0  0  0  0  0  0  0  0  0  0  0
   58.4969   32.6788   52.6800 H   0  0  0  0  0  0  0  0  0  0  0  0
   56.8600   31.5715   51.6097 H   0  0  0  0  0  0  0  0  0  0  0  0
   57.4289   32.2013   50.0075 H   0  0  0  0  0  0  0  0  0  0  0  0
   59.0181   29.9895   51.2756 H   0  0  0  0  0  0  0  0  0  0  0  0
   57.3991   29.5815   50.5828 H   0  0  0  0  0  0  0  0  0  0  0  0
   59.2070   31.2410   49.0250 H   0  0  0  0  0  0  0  0  0  0  0  0
   60.8029   29.7300   49.6088 H   0  0  0  0  0  0  0  0  0  0  0  0
   59.6149   28.3747   49.5388 H   0  0  0  0  0  0  0  0  0  0  0  0
   61.2426   28.5683   47.5603 H   0  0  0  0  0  0  0  0  0  0  0  0
   59.4697   28.4860   47.1672 H   0  0  0  0  0  0  0  0  0  0  0  0
   61.0642   30.2565   45.9681 H   0  0  0  0  0  0  0  0  0  0  0  0
   59.3735   30.6705   46.4502 H   0  0  0  0  0  0  0  0  0  0  0  0
   60.9290   32.3550   47.0740 H   0  0  0  0  0  0  0  0  0  0  0  0
   62.3525   31.6846   49.1531 H   0  0  0  0  0  0  0  0  0  0  0  0
   62.3698   30.1288   48.2448 H   0  0  0  0  0  0  0  0  0  0  0  0
   64.2576   31.7946   47.6994 H   0  0  0  0  0  0  0  0  0  0  0  0
   63.3120   31.1550   46.3027 H   0  0  0  0  0  0  0  0  0  0  0  0
   61.8970   33.2830   46.9750 H   0  0  0  0  0  0  0  0  0  0  0  0
   64.6717   33.9136   47.6880 H   0  0  0  0  0  0  0  0  0  0  0  0
   63.4381   35.1463   47.1779 H   0  0  0  0  0  0  0  0  0  0  0  0
   62.8211   35.2581   49.3385 H   0  0  0  0  0  0  0  0  0  0  0  0
   62.1220   33.5979   49.1036 H   0  0  0  0  0  0  0  0  0  0  0  0
   64.2614   34.4099   50.8495 H   0  0  0  0  0  0  0  0  0  0  0  0
   63.5556   32.7741   50.6085 H   0  0  0  0  0  0  0  0  0  0  0  0
   65.0060   32.3740   48.8370 H   0  0  0  0  0  0  0  0  0  0  0  0
   67.2517   33.2387   50.0595 H   0  0  0  0  0  0  0  0  0  0  0  0
   66.0140   33.1632   51.3769 H   0  0  0  0  0  0  0  0  0  0  0  0
   65.4494   30.8173   50.2407 H   0  0  0  0  0  0  0  0  0  0  0  0
   67.1659   30.9689   49.6694 H   0  0  0  0  0  0  0  0  0  0  0  0
   67.7980   30.1151   51.6419 H   0  0  0  0  0  0  0  0  0  0  0  0
   67.2465   31.6667   52.3860 H   0  0  0  0  0  0  0  0  0  0  0  0
   66.1740   29.4580   53.3210 H   0  0  0  0  0  0  0  0  0  0  0  0
   64.2554   28.3578   51.2772 H   0  0  0  0  0  0  0  0  0  0  0  0
   61.8603   28.7114   50.7183 H   0  0  0  0  0  0  0  0  0  0  0  0
   60.7172   30.8223   51.3646 H   0  0  0  0  0  0  0  0  0  0  0  0
   60.7502   32.9928   52.4473 H   0  0  0  0  0  0  0  0  0  0  0  0
   61.9656   34.7507   53.7282 H   0  0  0  0  0  0  0  0  0  0  0  0
   64.3512   34.4178   54.3634 H   0  0  0  0  0  0  0  0  0  0  0  0
   65.5393   32.3256   53.7187 H   0  0  0  0  0  0  0  0  0  0  0  0
  1  2  1  0
  2  3  1  0
  3  4  1  0
  4  5  1  0
  5  6  1  0
  6  7  1  0
  7  8  1  0
  8  9  1  0
  9 10  1  0
 10 11  1  0
 11 12  1  0
 12 13  1  0
 13 14  1  0
 14 15  1  0
 15 16  1  0
 16 17  1  0
 17 18  1  0
 18 19  1  0
 19 20  1  0
 20 21  1  0
 21 22  1  0
 22 23  1  0
 23 24  1  0
 24 25  1  0
 25 26  1  0
 26 27  1  0
 27 28  1  0
 28 29  1  0
 29 30  1  0
 30 31  1  0
 31 32  1  0
 32 33  1  0
 33 34  1  0
 34 35  1  0
 35 36  1  0
 36 37  1  0
 37 38  1  0
 38 39  2  0
 39 40  1  0
 40 41  2  0
 41 42  1  0
 42 43  2  0
 43 44  1  0
 44 45  2  0
 45 46  1  0
 46 47  2  0
 47 38  1  0
 47 42  1  0
  1 48  1  0
  1 49  1  0
  1 50  1  0
  2 51  1  0
  2 52  1  0
  4 53  1  0
  5 54  1  0
  5 55  1  0
  6 56  1  0
  6 57  1  0
  7 58  1  0
  7 59  1  0
  8 60  1  0
  8 61  1  0
  9 62  1  0
 10 63  1  0
 10 64  1  0
 11 65  1  0
 11 66  1  0
 12 67  1  0
 12 68  1  0
 13 69  1  0
 13 70  1  0
 14 71  1  0
 15 72  1  0
 15 73  1  0
 16 74  1  0
 16 75  1  0
 17 76  1  0
 17 77  1  0
 18 78  1  0
 19 79  1  0
 19 80  1  0
 20 81  1  0
 20 82  1  0
 21 83  1  0
 21 84  1  0
 22 85  1  0
 23 86  1  0
 23 87  1  0
 24 88  1  0
 24 89  1  0
 25 90  1  0
 25 91  1  0
 26 92  1  0
 27 93  1  0
 27 94  1  0
 28 95  1  0
 28 96  1  0
 29 97  1  0
 30 98  1  0
 30 99  1  0
 31100  1  0
 31101  1  0
 32102  1  0
 32103  1  0
 33104  1  0
 34105  1  0
 34106  1  0
 35107  1  0
 35108  1  0
 36109  1  0
 36110  1  0
 37111  1  0
 39112  1  0
 40113  1  0
 41114  1  0
 43115  1  0
 44116  1  0
 45117  1  0
 46118  1  0
M  END
>  <UniqueID>  (24) 
24

>  <SMILES>  (24) 
CCONCCCCNCCCCNCCCNCCCNCCCNCCNCCCNCCCNc1cccc2ccccc12

>  <Energy>  (24) 
92.98753578816249

>  <Genealogy>  (24) 
CCONCCCCNCCCCNCCCNCCCNCCCNCCNCCCNCCCNc1cccc2ccccc12 (3D coordinates assigned)
CCONCCCCNCCCCNCCCNCCCNCCCNCCNCCCNCCCNc1cccc2ccccc12 (optimized conformer: 92.98753578816249 kcal/mol)

>  <smiles>  (24) 
CCONCCCCNCCCCNCCCNCCCNCCCNCCNCCCNCCCNc1cccc2ccccc12

>  <score_type>  (24) 
oracle

>  <origin>  (24) 
adg

>  <m_score__min__energy>  (24) 
-4.8300000000000001

>  <m_primary>  (24) 
energy

$$$$
