0:0
     RDKit          3D

 62 64  0  0  0  0  0  0  0  0999 V2000
   59.5850   33.8340   53.0930 C   0  0  0  0  0  0  0  0  0  0  0  0
   58.2020   33.6950   52.4460 C   0  0  0  0  0  0  0  0  0  0  0  0
   57.9740   32.3250   51.9030 N   0  0  0  0  0  0  0  0  0  0  0  0
   56.6630   31.7670   52.3310 C   0  0  0  0  0  0  0  0  0  0  0  0
   56.6710   30.2350   52.3980 C   0  0  0  0  0  0  0  0  0  0  0  0
   58.1440   32.2840   50.4220 C   0  0  0  0  0  0  0  0  0  0  0  0
   59.3640   31.4720   49.9210 C   0  0  0  0  0  0  0  0  0  0  0  0
   59.8790   30.6580   50.9570 O   0  0  0  0  0  0  0  0  0  0  0  0
   59.7580   29.2840   50.6420 C   0  0  0  0  0  0  0  0  0  0  0  0
   60.6160   28.9800   49.4130 C   0  0  0  0  0  0  0  0  0  0  0  0
   59.7470   28.7930   48.1620 C   0  0  0  0  0  0  0  0  0  0  0  0
   60.3980   29.3750   46.9910 N   0  0  0  0  0  0  0  0  0  0  0  0
   60.2820   30.7830   46.7130 C   0  0  0  0  0  0  0  0  0  0  0  0
   61.2820   31.6770   47.1360 C   0  0  0  0  0  0  0  0  0  0  0  0
   62.4580   31.2100   47.7640 C   0  0  0  0  0  0  0  0  0  0  0  0
   63.4620   32.0980   48.1430 C   0  0  0  0  0  0  0  0  0  0  0  0
   63.3200   33.4580   47.8980 C   0  0  0  0  0  0  0  0  0  0  0  0
   62.1580   33.9450   47.3010 C   0  0  0  0  0  0  0  0  0  0  0  0
   61.0980   33.0720   46.9420 C   0  0  0  0  0  0  0  0  0  0  0  0
   59.9140   33.5490   46.4120 N   0  0  0  0  0  0  0  0  0  0  0  0
   59.5920   34.9910   46.4970 C   0  0  0  0  0  0  0  0  0  0  0  0
   59.0190   32.6740   45.8240 C   0  0  0  0  0  0  0  0  0  0  0  0
   57.9410   33.1350   45.0290 C   0  0  0  0  0  0  0  0  0  0  0  0
   57.0200   32.2490   44.4750 C   0  0  0  0  0  0  0  0  0  0  0  0
   57.1530   30.8700   44.6690 C   0  0  0  0  0  0  0  0  0  0  0  0
   56.1970   29.9540   44.0990 N   0  0  0  0  0  0  0  0  0  0  0  0
   56.2150   29.6930   42.8780 O   0  0  0  0  0  0  0  0  0  0  0  0
   55.2350   29.3650   44.8880 O   0  0  0  0  0  0  0  0  0  0  0  0
   58.2410   30.3910   45.4090 C   0  0  0  0  0  0  0  0  0  0  0  0
   59.1760   31.2740   45.9910 C   0  0  0  0  0  0  0  0  0  0  0  0
   59.4803   33.8235   54.1880 H   0  0  0  0  0  0  0  0  0  0  0  0
   60.2233   32.9955   52.7776 H   0  0  0  0  0  0  0  0  0  0  0  0
   60.0437   34.7828   52.7776 H   0  0  0  0  0  0  0  0  0  0  0  0
   57.4329   33.9096   53.2026 H   0  0  0  0  0  0  0  0  0  0  0  0
   58.1459   34.4059   51.6085 H   0  0  0  0  0  0  0  0  0  0  0  0
   58.7130   31.6880   52.2870 H   0  0  0  0  0  0  0  0  0  0  0  0
   56.4198   32.1625   53.3282 H   0  0  0  0  0  0  0  0  0  0  0  0
   55.9127   32.0651   51.5839 H   0  0  0  0  0  0  0  0  0  0  0  0
   56.6727   29.9140   53.4501 H   0  0  0  0  0  0  0  0  0  0  0  0
   55.7749   29.8413   51.8960 H   0  0  0  0  0  0  0  0  0  0  0  0
   57.5712   29.8507   51.8960 H   0  0  0  0  0  0  0  0  0  0  0  0
   57.2369   31.8386   49.9875 H   0  0  0  0  0  0  0  0  0  0  0  0
   58.3179   33.3231   50.1056 H   0  0  0  0  0  0  0  0  0  0  0  0
   59.0533   30.8341   49.0804 H   0  0  0  0  0  0  0  0  0  0  0  0
   60.1478   32.1725   49.5972 H   0  0  0  0  0  0  0  0  0  0  0  0
   60.1037   28.6783   51.4927 H   0  0  0  0  0  0  0  0  0  0  0  0
   58.7060   29.0412   50.4314 H   0  0  0  0  0  0  0  0  0  0  0  0
   61.3113   29.8157   49.2452 H   0  0  0  0  0  0  0  0  0  0  0  0
   61.1684   28.0466   49.5961 H   0  0  0  0  0  0  0  0  0  0  0  0
   59.5877   27.7183   47.9900 H   0  0  0  0  0  0  0  0  0  0  0  0
   58.7839   29.3003   48.3206 H   0  0  0  0  0  0  0  0  0  0  0  0
   61.1420   28.8190   46.5120 H   0  0  0  0  0  0  0  0  0  0  0  0
   62.5822   30.1340   47.9557 H   0  0  0  0  0  0  0  0  0  0  0  0
   64.3696   31.7214   48.6375 H   0  0  0  0  0  0  0  0  0  0  0  0
   64.1265   34.1525   48.1758 H   0  0  0  0  0  0  0  0  0  0  0  0
   62.0612   35.0231   47.1051 H   0  0  0  0  0  0  0  0  0  0  0  0
   59.5252   35.2901   47.5534 H   0  0  0  0  0  0  0  0  0  0  0  0
   60.3823   35.5731   46.0004 H   0  0  0  0  0  0  0  0  0  0  0  0
   58.6292   35.1816   46.0004 H   0  0  0  0  0  0  0  0  0  0  0  0
   57.8290   34.2138   44.8456 H   0  0  0  0  0  0  0  0  0  0  0  0
   56.1805   32.6372   43.8796 H   0  0  0  0  0  0  0  0  0  0  0  0
   58.3695   29.3063   45.5392 H   0  0  0  0  0  0  0  0  0  0  0  0
  1  2  1  0
  2  3  1  0
  3  4  1  0
  4  5  1  0
  3  6  1  0
  6  7  1  0
  7  8  1  0
  8  9  1  0
  9 10  1  0
 10 11  1  0
 11 12  1  0
 12 13  1  0
 13 14  2  0
 14 15  1  0
 15 16  2  0
 16 17  1  0
 17 18  2  0
 18 19  1  0
 19 20  2  0
 20 21  1  0
 20 22  1  0
 22 23  2  0
 23 24  1  0
 24 25  2  0
 25 26  1  0
 26 27  2  0
 26 28  1  0
 25 29  1  0
 29 30  2  0
 30 13  1  0
 19 14  1  0
 30 22  1  0
  1 31  1  0
  1 32  1  0
  1 33  1  0
  2 34  1  0
  2 35  1  0
  3 36  1  0
  4 37  1  0
  4 38  1  0
  5 39  1  0
  5 40  1  0
  5 41  1  0
  6 42  1  0
  6 43  1  0
  7 44  1  0
  7 45  1  0
  9 46  1  0
  9 47  1  0
 10 48  1  0
 10 49  1  0
 11 50  1  0
 11 51  1  0
 12 52  1  0
 15 53  1  0
 16 54  1  0
 17 55  1  0
 18 56  1  0
 21 57  1  0
 21 58  1  0
 21 59  1  0
 23 60  1  0
 24 61  1  0
 29 62  1  0
M  CHG  4   3   1  20   1  26   1  28  -1
M  END
>  <UniqueID>  (1) 
1

>  <SMILES>  (1) 
CC[NH+](CC)CCOCCCNc1c2ccccc2[n+](C)c2ccc([N+](=O)[O-])cc12

>  <Energy>  (1) 
89.74321257631769

>  <Genealogy>  (1) 
CC[NH+](CC)CCOCCCNc1c2ccccc2[n+](C)c2ccc([N+](=O)[O-])cc12 (protonated)
CC[NH+](CC)CCOCCCNc1c2ccccc2[n+](C)c2ccc([N+](=O)[O-])cc12 (3D coordinates assigned)
CC[NH+](CC)CCOCCCNc1c2ccccc2[n+](C)c2ccc([N+](=O)[O-])cc12 (optimized conformer: 89.74321257631769 kcal/mol)

>  <smiles>  (1) 
CCN(CC)CCOCCCNc1c2ccccc2[n+](C)c2ccc([N+](=O)[O-])cc12

>  <score_type>  (1) 
oracle

>  <origin>  (1) 
adg

>  <m_score__min__energy>  (1) 
-4.7599999999999998

>  <m_primary>  (1) 
energy

$$$$
1:0
     RDKit          3D

 58 61  0  0  0  0  0  0  0  0999 V2000
   62.0110   34.2290   49.2700 C   0  0  0  0  0  0  0  0  0  0  0  0
   62.0110   32.7410   49.5940 C   0  0  0  0  0  0  0  0  0  0  0  0
   62.2180   31.9630   48.3480 N   0  0  0  0  0  0  0  0  0  0  0  0
   62.3060   32.8050   47.1350 C   0  0  0  0  0  0  0  0  0  0  0  0
   63.7610   33.1130   46.7900 C   0  0  0  0  0  0  0  0  0  0  0  0
   61.2550   30.8480   48.2030 C   0  0  0  0  0  0  0  0  0  0  0  0
   60.0510   30.9440   49.1700 C   0  0  0  0  0  0  0  0  0  0  0  0
   58.8580   31.4980   48.5230 N   0  0  0  0  0  0  0  0  0  0  0  0
   58.7220   31.6460   47.0990 C   0  0  0  0  0  0  0  0  0  0  0  0
   58.9710   32.8930   46.5010 C   0  0  0  0  0  0  0  0  0  0  0  0
   59.3760   33.9980   47.2820 C   0  0  0  0  0  0  0  0  0  0  0  0
   59.6540   35.2250   46.6860 C   0  0  0  0  0  0  0  0  0  0  0  0
   59.5510   35.3680   45.3080 C   0  0  0  0  0  0  0  0  0  0  0  0
   59.1460   34.2920   44.5170 C   0  0  0  0  0  0  0  0  0  0  0  0
   58.8170   33.0400   45.0980 C   0  0  0  0  0  0  0  0  0  0  0  0
   58.3740   31.9740   44.3340 N   0  0  0  0  0  0  0  0  0  0  0  0
   57.9340   32.1920   42.9390 C   0  0  0  0  0  0  0  0  0  0  0  0
   58.3050   30.7060   44.8850 C   0  0  0  0  0  0  0  0  0  0  0  0
   58.1290   29.5940   44.0950 N   0  0  0  0  0  0  0  0  0  0  0  0
   57.9890   28.3430   44.6190 C   0  0  0  0  0  0  0  0  0  0  0  0
   57.7850   27.2340   43.7770 C   0  0  0  0  0  0  0  0  0  0  0  0
   57.6270   25.9490   44.3180 C   0  0  0  0  0  0  0  0  0  0  0  0
   57.4380   24.7610   43.4200 C   0  0  0  0  0  0  0  0  0  0  0  0
   57.6990   25.7690   45.7060 C   0  0  0  0  0  0  0  0  0  0  0  0
   57.9110   26.8630   46.5500 C   0  0  0  0  0  0  0  0  0  0  0  0
   58.0560   28.1500   46.0120 C   0  0  0  0  0  0  0  0  0  0  0  0
   58.2960   29.2490   46.8370 C   0  0  0  0  0  0  0  0  0  0  0  0
   58.4370   30.5350   46.2860 C   0  0  0  0  0  0  0  0  0  0  0  0
   63.0481   34.5873   49.1920 H   0  0  0  0  0  0  0  0  0  0  0  0
   61.4925   34.3962   48.3144 H   0  0  0  0  0  0  0  0  0  0  0  0
   61.4925   34.7784   50.0696 H   0  0  0  0  0  0  0  0  0  0  0  0
   62.8225   32.5202   50.3031 H   0  0  0  0  0  0  0  0  0  0  0  0
   61.0458   32.4638   50.0430 H   0  0  0  0  0  0  0  0  0  0  0  0
   61.8410   32.2723   46.2923 H   0  0  0  0  0  0  0  0  0  0  0  0
   61.7819   33.7530   47.3264 H   0  0  0  0  0  0  0  0  0  0  0  0
   64.3397   33.2355   47.7174 H   0  0  0  0  0  0  0  0  0  0  0  0
   64.1818   32.2840   46.2020 H   0  0  0  0  0  0  0  0  0  0  0  0
   63.8098   34.0414   46.2020 H   0  0  0  0  0  0  0  0  0  0  0  0
   60.8740   30.8488   47.1711 H   0  0  0  0  0  0  0  0  0  0  0  0
   61.7938   29.9207   48.4475 H   0  0  0  0  0  0  0  0  0  0  0  0
   59.8153   29.9360   49.5420 H   0  0  0  0  0  0  0  0  0  0  0  0
   60.3326   31.6205   49.9904 H   0  0  0  0  0  0  0  0  0  0  0  0
   58.1430   31.9610   49.1290 H   0  0  0  0  0  0  0  0  0  0  0  0
   59.4727   33.8879   48.3722 H   0  0  0  0  0  0  0  0  0  0  0  0
   59.9554   36.0818   47.3065 H   0  0  0  0  0  0  0  0  0  0  0  0
   59.7897   36.3336   44.8383 H   0  0  0  0  0  0  0  0  0  0  0  0
   59.0808   34.4164   43.4260 H   0  0  0  0  0  0  0  0  0  0  0  0
   56.9483   32.6803   42.9375 H   0  0  0  0  0  0  0  0  0  0  0  0
   58.6619   32.8337   42.4210 H   0  0  0  0  0  0  0  0  0  0  0  0
   57.8645   31.2241   42.4210 H   0  0  0  0  0  0  0  0  0  0  0  0
   58.1450   29.6730   43.0550 H   0  0  0  0  0  0  0  0  0  0  0  0
   57.7491   27.3756   42.6867 H   0  0  0  0  0  0  0  0  0  0  0  0
   57.2944   23.8581   44.0317 H   0  0  0  0  0  0  0  0  0  0  0  0
   56.5536   24.9183   42.7851 H   0  0  0  0  0  0  0  0  0  0  0  0
   58.3276   24.6361   42.7851 H   0  0  0  0  0  0  0  0  0  0  0  0
   57.5881   24.7616   46.1335 H   0  0  0  0  0  0  0  0  0  0  0  0
   57.9642   26.7141   47.6386 H   0  0  0  0  0  0  0  0  0  0  0  0
   58.3754   29.1087   47.9251 H   0  0  0  0  0  0  0  0  0  0  0  0
  1  2  1  0
  2  3  1  0
  3  4  1  0
  4  5  1  0
  3  6  1  0
  6  7  1  0
  7  8  1  0
  8  9  1  0
  9 10  2  0
 10 11  1  0
 11 12  2  0
 12 13  1  0
 13 14  2  0
 14 15  1  0
 15 16  2  0
 16 17  1  0
 16 18  1  0
 18 19  2  0
 19 20  1  0
 20 21  2  0
 21 22  1  0
 22 23  1  0
 22 24  2  0
 24 25  1  0
 25 26  2  0
 26 27  1  0
 27 28  2  0
 28  9  1  0
 15 10  1  0
 28 18  1  0
 26 20  1  0
  1 29  1  0
  1 30  1  0
  1 31  1  0
  2 32  1  0
  2 33  1  0
  4 34  1  0
  4 35  1  0
  5 36  1  0
  5 37  1  0
  5 38  1  0
  6 39  1  0
  6 40  1  0
  7 41  1  0
  7 42  1  0
  8 43  1  0
 11 44  1  0
 12 45  1  0
 13 46  1  0
 14 47  1  0
 17 48  1  0
 17 49  1  0
 17 50  1  0
 19 51  1  0
 21 52  1  0
 23 53  1  0
 23 54  1  0
 23 55  1  0
 24 56  1  0
 25 57  1  0
 27 58  1  0
M  CHG  2  16   1  19   1
M  END
>  <UniqueID>  (2) 
2

>  <SMILES>  (2) 
CCN(CC)CCNc1c2ccccc2[n+](C)c2[nH+]c3cc(C)ccc3cc12

>  <Energy>  (2) 
91.02855624903398

>  <Genealogy>  (2) 
CCN(CC)CCNc1c2ccccc2[n+](C)c2[nH+]c3cc(C)ccc3cc12 (protonated)
CCN(CC)CCNc1c2ccccc2[n+](C)c2[nH+]c3cc(C)ccc3cc12 (3D coordinates assigned)
CCN(CC)CCNc1c2ccccc2[n+](C)c2[nH+]c3cc(C)ccc3cc12 (optimized conformer: 91.02855624903398 kcal/mol)

>  <smiles>  (2) 
CCN(CC)CCNc1c2ccccc2[n+](C)c2nc3cc(C)ccc3cc12

>  <score_type>  (2) 
oracle

>  <origin>  (2) 
adg

>  <m_score__min__energy>  (2) 
-5.6799999999999997

>  <m_primary>  (2) 
energy

$$$$
2:0
     RDKit          3D

 48 49  0  0  0  0  0  0  0  0999 V2000
   63.7840   33.0690   46.7510 C   0  0  0  0  0  0  0  0  0  0  0  0
   62.8080   32.0120   47.2830 C   0  0  0  0  0  0  0  0  0  0  0  0
   62.2240   32.3640   48.6120 N   0  0  0  0  0  0  0  0  0  0  0  0
   63.2120   32.0910   49.6920 C   0  0  0  0  0  0  0  0  0  0  0  0
   63.8390   33.3780   50.2470 C   0  0  0  0  0  0  0  0  0  0  0  0
   61.8000   33.7920   48.6650 C   0  0  0  0  0  0  0  0  0  0  0  0
   60.7700   34.1530   47.5670 C   0  0  0  0  0  0  0  0  0  0  0  0
   59.3560   34.4170   48.1150 C   0  0  0  0  0  0  0  0  0  0  0  0
   58.4970   33.2250   48.0690 N   0  0  0  0  0  0  0  0  0  0  0  0
   58.6800   32.1360   47.1420 C   0  0  0  0  0  0  0  0  0  0  0  0
   58.1360   32.2260   45.8440 C   0  0  0  0  0  0  0  0  0  0  0  0
   57.2930   33.8630   45.2710 Br  0  0  0  0  0  0  0  0  0  0  0  0
   58.1760   31.1160   44.9770 C   0  0  0  0  0  0  0  0  0  0  0  0
   57.3930   31.2700   43.2170 Br  0  0  0  0  0  0  0  0  0  0  0  0
   58.7720   29.9090   45.4060 C   0  0  0  0  0  0  0  0  0  0  0  0
   58.8020   28.7660   44.5780 C   0  0  0  0  0  0  0  0  0  0  0  0
   59.4090   27.5870   45.0130 C   0  0  0  0  0  0  0  0  0  0  0  0
   59.9950   27.5250   46.2740 C   0  0  0  0  0  0  0  0  0  0  0  0
   59.9780   28.6400   47.1100 C   0  0  0  0  0  0  0  0  0  0  0  0
   59.3650   29.8380   46.6920 C   0  0  0  0  0  0  0  0  0  0  0  0
   59.3460   30.9600   47.5390 C   0  0  0  0  0  0  0  0  0  0  0  0
   59.9940   30.8990   48.7770 O   0  0  0  0  0  0  0  0  0  0  0  0
   59.3010   30.5320   49.9640 C   0  0  0  0  0  0  0  0  0  0  0  0
   64.2613   33.5859   47.5965 H   0  0  0  0  0  0  0  0  0  0  0  0
   64.5552   32.5802   46.1375 H   0  0  0  0  0  0  0  0  0  0  0  0
   63.2354   33.7988   46.1375 H   0  0  0  0  0  0  0  0  0  0  0  0
   61.9871   31.8990   46.5596 H   0  0  0  0  0  0  0  0  0  0  0  0
   63.3764   31.0793   47.4132 H   0  0  0  0  0  0  0  0  0  0  0  0
   61.3820   31.7680   48.8040 H   0  0  0  0  0  0  0  0  0  0  0  0
   62.7030   31.5633   50.5120 H   0  0  0  0  0  0  0  0  0  0  0  0
   64.0203   31.4810   49.2624 H   0  0  0  0  0  0  0  0  0  0  0  0
   63.8245   33.3483   51.3465 H   0  0  0  0  0  0  0  0  0  0  0  0
   64.8782   33.4605   49.8961 H   0  0  0  0  0  0  0  0  0  0  0  0
   63.2634   34.2472   49.8961 H   0  0  0  0  0  0  0  0  0  0  0  0
   61.3485   33.9883   49.6487 H   0  0  0  0  0  0  0  0  0  0  0  0
   62.6944   34.4096   48.4961 H   0  0  0  0  0  0  0  0  0  0  0  0
   61.1171   35.0587   47.0481 H   0  0  0  0  0  0  0  0  0  0  0  0
   60.6992   33.2871   46.8923 H   0  0  0  0  0  0  0  0  0  0  0  0
   59.4403   34.7497   49.1601 H   0  0  0  0  0  0  0  0  0  0  0  0
   58.8918   35.1852   47.4791 H   0  0  0  0  0  0  0  0  0  0  0  0
   57.8390   33.0910   48.8700 H   0  0  0  0  0  0  0  0  0  0  0  0
   58.3421   28.8051   43.5795 H   0  0  0  0  0  0  0  0  0  0  0  0
   59.4244   26.7040   44.3573 H   0  0  0  0  0  0  0  0  0  0  0  0
   60.4728   26.5935   46.6116 H   0  0  0  0  0  0  0  0  0  0  0  0
   60.4466   28.5844   48.1036 H   0  0  0  0  0  0  0  0  0  0  0  0
   59.8871   30.8424   50.8416 H   0  0  0  0  0  0  0  0  0  0  0  0
   58.3197   31.0286   49.9841 H   0  0  0  0  0  0  0  0  0  0  0  0
   59.1604   29.4412   49.9841 H   0  0  0  0  0  0  0  0  0  0  0  0
  1  2  1  0
  2  3  1  0
  3  4  1  0
  4  5  1  0
  3  6  1  0
  6  7  1  0
  7  8  1  0
  8  9  1  0
  9 10  1  0
 10 11  2  0
 11 12  1  0
 11 13  1  0
 13 14  1  0
 13 15  2  0
 15 16  1  0
 16 17  2  0
 17 18  1  0
 18 19  2  0
 19 20  1  0
 20 21  2  0
 21 22  1  0
 22 23  1  0
 21 10  1  0
 20 15  1  0
  1 24  1  0
  1 25  1  0
  1 26  1  0
  2 27  1  0
  2 28  1  0
  3 29  1  0
  4 30  1  0
  4 31  1  0
  5 32  1  0
  5 33  1  0
  5 34  1  0
  6 35  1  0
  6 36  1  0
  7 37  1  0
  7 38  1  0
  8 39  1  0
  8 40  1  0
  9 41  1  0
 16 42  1  0
 17 43  1  0
 18 44  1  0
 19 45  1  0
 23 46  1  0
 23 47  1  0
 23 48  1  0
M  CHG  1   3   1
M  END
>  <UniqueID>  (3) 
3

>  <SMILES>  (3) 
CC[NH+](CC)CCCNc1c(Br)c(Br)c2ccccc2c1OC

>  <Energy>  (3) 
66.77271129787283

>  <Genealogy>  (3) 
CC[NH+](CC)CCCNc1c(Br)c(Br)c2ccccc2c1OC (protonated)
CC[NH+](CC)CCCNc1c(Br)c(Br)c2ccccc2c1OC (3D coordinates assigned)
CC[NH+](CC)CCCNc1c(Br)c(Br)c2ccccc2c1OC (optimized conformer: 66.77271129787283 kcal/mol)

>  <smiles>  (3) 
CCN(CC)CCCNc1c(Br)c(Br)c2ccccc2c1OC

>  <score_type>  (3) 
oracle

>  <origin>  (3) 
adg

>  <m_score__min__energy>  (3) 
-6.1100000000000003

>  <m_primary>  (3) 
energy

$$$$
3:0
     RDKit          3D

 57 59  0  0  0  0  0  0  0  0999 V2000
   62.1780   30.1490   51.1830 C   0  0  0  0  0  0  0  0  0  0  0  0
   63.2910   31.0010   50.9270 O   0  0  0  0  0  0  0  0  0  0  0  0
   64.6310   30.6530   51.1610 C   0  0  0  0  0  0  0  0  0  0  0  0
   64.9990   29.3810   51.6430 C   0  0  0  0  0  0  0  0  0  0  0  0
   66.3430   29.0730   51.8620 C   0  0  0  0  0  0  0  0  0  0  0  0
   67.3310   30.0240   51.6060 C   0  0  0  0  0  0  0  0  0  0  0  0
   66.9790   31.2880   51.1290 C   0  0  0  0  0  0  0  0  0  0  0  0
   65.6250   31.6110   50.9010 C   0  0  0  0  0  0  0  0  0  0  0  0
   65.2290   32.8670   50.4160 O   0  0  0  0  0  0  0  0  0  0  0  0
   64.6300   33.8880   51.2100 C   0  0  0  0  0  0  0  0  0  0  0  0
   63.1740   34.0850   50.7550 C   0  0  0  0  0  0  0  0  0  0  0  0
   62.7860   33.3070   49.5480 N   0  0  2  0  0  0  0  0  0  0  0  0
   63.3770   33.8490   48.2910 C   0  0  0  0  0  0  0  0  0  0  0  0
   62.8510   33.2010   46.9930 C   0  0  0  0  0  0  0  0  0  0  0  0
   61.5950   33.9100   46.4490 C   0  0  0  0  0  0  0  0  0  0  0  0
   60.3830   33.7130   47.2730 N   0  0  0  0  0  0  0  0  0  0  0  0
   59.1390   34.2080   46.6460 C   0  0  0  0  0  0  0  0  0  0  0  0
   58.5250   33.1230   45.8160 C   0  0  0  0  0  0  0  0  0  0  0  0
   58.1690   33.1940   44.4850 C   0  0  0  0  0  0  0  0  0  0  0  0
   57.7230   31.9810   44.1090 N   0  0  0  0  0  0  0  0  0  0  0  0
   57.3260   31.6030   42.7600 C   0  0  0  0  0  0  0  0  0  0  0  0
   57.8020   31.1280   45.1200 N   0  0  0  0  0  0  0  0  0  0  0  0
   58.2760   31.8100   46.1820 C   0  0  0  0  0  0  0  0  0  0  0  0
   58.5780   31.1830   47.5050 C   0  0  0  0  0  0  0  0  0  0  0  0
   60.5380   34.0810   48.6960 C   0  0  0  0  0  0  0  0  0  0  0  0
   61.3270   33.0360   49.5160 C   0  0  0  0  0  0  0  0  0  0  0  0
   62.0395   30.0430   52.2691 H   0  0  0  0  0  0  0  0  0  0  0  0
   61.2717   30.5863   50.7388 H   0  0  0  0  0  0  0  0  0  0  0  0
   62.3635   29.1599   50.7388 H   0  0  0  0  0  0  0  0  0  0  0  0
   64.2241   28.6276   51.8476 H   0  0  0  0  0  0  0  0  0  0  0  0
   66.6236   28.0778   52.2374 H   0  0  0  0  0  0  0  0  0  0  0  0
   68.3888   29.7776   51.7802 H   0  0  0  0  0  0  0  0  0  0  0  0
   67.7611   32.0354   50.9301 H   0  0  0  0  0  0  0  0  0  0  0  0
   64.6487   33.5907   52.2689 H   0  0  0  0  0  0  0  0  0  0  0  0
   65.1879   34.8284   51.0898 H   0  0  0  0  0  0  0  0  0  0  0  0
   62.5137   33.7851   51.5821 H   0  0  0  0  0  0  0  0  0  0  0  0
   63.0758   35.1464   50.4835 H   0  0  0  0  0  0  0  0  0  0  0  0
   63.2370   32.3700   49.6890 H   0  0  0  0  0  0  0  0  0  0  0  0
   63.1588   34.9263   48.2477 H   0  0  0  0  0  0  0  0  0  0  0  0
   64.4528   33.6237   48.3340 H   0  0  0  0  0  0  0  0  0  0  0  0
   63.6415   33.2476   46.2295 H   0  0  0  0  0  0  0  0  0  0  0  0
   62.5753   32.1617   47.2250 H   0  0  0  0  0  0  0  0  0  0  0  0
   61.8039   34.9886   46.3950 H   0  0  0  0  0  0  0  0  0  0  0  0
   61.3834   33.4671   45.4646 H   0  0  0  0  0  0  0  0  0  0  0  0
   58.4308   34.5134   47.4303 H   0  0  0  0  0  0  0  0  0  0  0  0
   59.3731   35.0696   46.0034 H   0  0  0  0  0  0  0  0  0  0  0  0
   58.2376   34.0852   43.8438 H   0  0  0  0  0  0  0  0  0  0  0  0
   56.5302   30.8453   42.8107 H   0  0  0  0  0  0  0  0  0  0  0  0
   56.9546   32.4895   42.2251 H   0  0  0  0  0  0  0  0  0  0  0  0
   58.1933   31.1886   42.2251 H   0  0  0  0  0  0  0  0  0  0  0  0
   58.2538   31.8561   48.3123 H   0  0  0  0  0  0  0  0  0  0  0  0
   58.0420   30.2260   47.5881 H   0  0  0  0  0  0  0  0  0  0  0  0
   59.6604   31.0055   47.5881 H   0  0  0  0  0  0  0  0  0  0  0  0
   61.0698   35.0423   48.7519 H   0  0  0  0  0  0  0  0  0  0  0  0
   59.5284   34.1394   49.1288 H   0  0  0  0  0  0  0  0  0  0  0  0
   60.9467   33.0402   50.5482 H   0  0  0  0  0  0  0  0  0  0  0  0
   61.1838   32.0595   49.0303 H   0  0  0  0  0  0  0  0  0  0  0  0
  1  2  1  0
  2  3  1  0
  3  4  2  0
  4  5  1  0
  5  6  2  0
  6  7  1  0
  7  8  2  0
  8  9  1  0
  9 10  1  0
 10 11  1  0
 11 12  1  0
 12 13  1  0
 13 14  1  0
 14 15  1  0
 15 16  1  0
 16 17  1  0
 17 18  1  0
 18 19  2  0
 19 20  1  0
 20 21  1  0
 20 22  1  0
 22 23  2  0
 23 24  1  0
 16 25  1  0
 25 26  1  0
  8  3  1  0
 26 12  1  0
 23 18  1  0
  1 27  1  0
  1 28  1  0
  1 29  1  0
  4 30  1  0
  5 31  1  0
  6 32  1  0
  7 33  1  0
 10 34  1  0
 10 35  1  0
 11 36  1  0
 11 37  1  0
 12 38  1  1
 13 39  1  0
 13 40  1  0
 14 41  1  0
 14 42  1  0
 15 43  1  0
 15 44  1  0
 17 45  1  0
 17 46  1  0
 19 47  1  0
 21 48  1  0
 21 49  1  0
 21 50  1  0
 24 51  1  0
 24 52  1  0
 24 53  1  0
 25 54  1  0
 25 55  1  0
 26 56  1  0
 26 57  1  0
M  CHG  1  12   1
M  END
>  <UniqueID>  (4) 
4

>  <SMILES>  (4) 
COc1ccccc1OCC[N@@H+]1CCCN(Cc2cn(C)nc2C)CC1

>  <Energy>  (4) 
101.93888215482998

>  <Genealogy>  (4) 
COc1ccccc1OCC[NH+]1CCCN(Cc2cn(C)nc2C)CC1 (protonated)
COc1ccccc1OCC[N@@H+]1CCCN(Cc2cn(C)nc2C)CC1 (chirality)
COc1ccccc1OCC[N@@H+]1CCCN(Cc2cn(C)nc2C)CC1 (3D coordinates assigned)
COc1ccccc1OCC[N@@H+]1CCCN(Cc2cn(C)nc2C)CC1 (nonaromatic ring conformer: 101.93888215482998 kcal/mol)

>  <smiles>  (4) 
COc1ccccc1OCCN1CCCN(Cc2cn(C)nc2C)CC1

>  <score_type>  (4) 
oracle

>  <origin>  (4) 
adg

>  <m_score__min__energy>  (4) 
-3.0899999999999999

>  <m_primary>  (4) 
energy

$$$$
4:0
     RDKit          3D

 71 74  0  0  0  0  0  0  0  0999 V2000
   63.2690   33.8170   46.8950 C   0  0  0  0  0  0  0  0  0  0  0  0
   63.0280   32.4210   47.4650 C   0  0  0  0  0  0  0  0  0  0  0  0
   63.5630   32.3250   48.8400 N   0  0  0  0  0  0  0  0  0  0  0  0
   64.8270   33.0740   49.0370 C   0  0  0  0  0  0  0  0  0  0  0  0
   65.6480   32.4040   50.1310 C   0  0  0  0  0  0  0  0  0  0  0  0
   62.5510   32.6280   49.8800 C   0  0  0  0  0  0  0  0  0  0  0  0
   62.3020   31.4640   50.8670 C   0  0  0  0  0  0  0  0  0  0  0  0
   62.0600   30.2530   50.1770 O   0  0  0  0  0  0  0  0  0  0  0  0
   60.7560   29.7740   50.4420 C   0  0  0  0  0  0  0  0  0  0  0  0
   59.9040   29.8720   49.1730 C   0  0  0  0  0  0  0  0  0  0  0  0
   60.5900   30.5550   48.0530 N   0  0  0  0  0  0  0  0  0  0  0  0
   59.7180   30.7330   46.8970 C   0  0  0  0  0  0  0  0  0  0  0  0
   59.3340   29.6080   46.1050 C   0  0  0  0  0  0  0  0  0  0  0  0
   59.7310   28.2800   46.4250 C   0  0  0  0  0  0  0  0  0  0  0  0
   59.3810   27.2030   45.6160 C   0  0  0  0  0  0  0  0  0  0  0  0
   58.6460   27.4080   44.4610 C   0  0  0  0  0  0  0  0  0  0  0  0
   58.2320   28.6900   44.1210 C   0  0  0  0  0  0  0  0  0  0  0  0
   58.5310   29.8070   44.9460 C   0  0  0  0  0  0  0  0  0  0  0  0
   58.0820   31.0640   44.6170 N   0  0  0  0  0  0  0  0  0  0  0  0
   57.0070   31.2260   43.6080 C   0  0  0  0  0  0  0  0  0  0  0  0
   58.6040   32.1740   45.2430 C   0  0  0  0  0  0  0  0  0  0  0  0
   58.4410   33.4590   44.6710 C   0  0  0  0  0  0  0  0  0  0  0  0
   58.8790   34.5980   45.3250 C   0  0  0  0  0  0  0  0  0  0  0  0
   59.4430   34.5010   46.5830 C   0  0  0  0  0  0  0  0  0  0  0  0
   59.6340   33.2490   47.1940 C   0  0  0  0  0  0  0  0  0  0  0  0
   60.0830   33.1950   48.5250 O   0  0  0  0  0  0  0  0  0  0  0  0
   59.7590   34.1100   49.5750 C   0  0  0  0  0  0  0  0  0  0  0  0
   59.0780   33.4080   50.7240 C   0  0  0  0  0  0  0  0  0  0  0  0
   59.2810   33.8490   52.0420 C   0  0  0  0  0  0  0  0  0  0  0  0
   58.6230   33.2200   53.1040 C   0  0  0  0  0  0  0  0  0  0  0  0
   57.7720   32.1400   52.8580 C   0  0  0  0  0  0  0  0  0  0  0  0
   57.5930   31.6730   51.5530 C   0  0  0  0  0  0  0  0  0  0  0  0
   58.2510   32.2960   50.4910 C   0  0  0  0  0  0  0  0  0  0  0  0
   59.3270   32.0470   46.4680 C   0  0  0  0  0  0  0  0  0  0  0  0
   63.3927   34.5337   47.7203 H   0  0  0  0  0  0  0  0  0  0  0  0
   64.1790   33.8087   46.2771 H   0  0  0  0  0  0  0  0  0  0  0  0
   62.4089   34.1143   46.2771 H   0  0  0  0  0  0  0  0  0  0  0  0
   61.9470   32.2183   47.4820 H   0  0  0  0  0  0  0  0  0  0  0  0
   63.5415   31.6836   46.8306 H   0  0  0  0  0  0  0  0  0  0  0  0
   65.4008   33.0785   48.0985 H   0  0  0  0  0  0  0  0  0  0  0  0
   64.5983   34.1089   49.3315 H   0  0  0  0  0  0  0  0  0  0  0  0
   65.2685   32.7137   51.1159 H   0  0  0  0  0  0  0  0  0  0  0  0
   65.5664   31.3114   50.0336 H   0  0  0  0  0  0  0  0  0  0  0  0
   66.7021   32.7031   50.0336 H   0  0  0  0  0  0  0  0  0  0  0  0
   62.8942   33.5016   50.4536 H   0  0  0  0  0  0  0  0  0  0  0  0
   61.6009   32.8137   49.3577 H   0  0  0  0  0  0  0  0  0  0  0  0
   63.1874   31.3412   51.5081 H   0  0  0  0  0  0  0  0  0  0  0  0
   61.4156   31.7036   51.4727 H   0  0  0  0  0  0  0  0  0  0  0  0
   60.8106   28.7242   50.7660 H   0  0  0  0  0  0  0  0  0  0  0  0
   60.2985   30.3817   51.2366 H   0  0  0  0  0  0  0  0  0  0  0  0
   59.6405   28.8537   48.8510 H   0  0  0  0  0  0  0  0  0  0  0  0
   59.0172   30.4725   49.4240 H   0  0  0  0  0  0  0  0  0  0  0  0
   60.9500   31.4840   48.3640 H   0  0  0  0  0  0  0  0  0  0  0  0
   61.4870   30.0840   47.8130 H   0  0  0  0  0  0  0  0  0  0  0  0
   60.3276   28.1004   47.3316 H   0  0  0  0  0  0  0  0  0  0  0  0
   59.6896   26.1848   45.8955 H   0  0  0  0  0  0  0  0  0  0  0  0
   58.3900   26.5568   43.8130 H   0  0  0  0  0  0  0  0  0  0  0  0
   57.6607   28.8432   43.1935 H   0  0  0  0  0  0  0  0  0  0  0  0
   56.0436   31.3712   44.1187 H   0  0  0  0  0  0  0  0  0  0  0  0
   57.2239   32.1016   42.9785 H   0  0  0  0  0  0  0  0  0  0  0  0
   56.9562   30.3254   42.9785 H   0  0  0  0  0  0  0  0  0  0  0  0
   57.9569   33.5542   43.6878 H   0  0  0  0  0  0  0  0  0  0  0  0
   58.7780   35.5815   44.8427 H   0  0  0  0  0  0  0  0  0  0  0  0
   59.7466   35.4156   47.1135 H   0  0  0  0  0  0  0  0  0  0  0  0
   60.6847   34.5790   49.9398 H   0  0  0  0  0  0  0  0  0  0  0  0
   59.0701   34.8681   49.1742 H   0  0  0  0  0  0  0  0  0  0  0  0
   59.9597   34.6918   52.2397 H   0  0  0  0  0  0  0  0  0  0  0  0
   58.7758   33.5760   54.1335 H   0  0  0  0  0  0  0  0  0  0  0  0
   57.2423   31.6567   53.6921 H   0  0  0  0  0  0  0  0  0  0  0  0
   56.9331   30.8138   51.3625 H   0  0  0  0  0  0  0  0  0  0  0  0
   58.1215   31.9148   49.4673 H   0  0  0  0  0  0  0  0  0  0  0  0
  1  2  1  0
  2  3  1  0
  3  4  1  0
  4  5  1  0
  3  6  1  0
  6  7  1  0
  7  8  1  0
  8  9  1  0
  9 10  1  0
 10 11  1  0
 11 12  1  0
 12 13  2  0
 13 14  1  0
 14 15  2  0
 15 16  1  0
 16 17  2  0
 17 18  1  0
 18 19  2  0
 19 20  1  0
 19 21  1  0
 21 22  2  0
 22 23  1  0
 23 24  2  0
 24 25  1  0
 25 26  1  0
 26 27  1  0
 27 28  1  0
 28 29  2  0
 29 30  1  0
 30 31  2  0
 31 32  1  0
 32 33  2  0
 25 34  2  0
 34 12  1  0
 18 13  1  0
 34 21  1  0
 33 28  1  0
  1 35  1  0
  1 36  1  0
  1 37  1  0
  2 38  1  0
  2 39  1  0
  4 40  1  0
  4 41  1  0
  5 42  1  0
  5 43  1  0
  5 44  1  0
  6 45  1  0
  6 46  1  0
  7 47  1  0
  7 48  1  0
  9 49  1  0
  9 50  1  0
 10 51  1  0
 10 52  1  0
 11 53  1  0
 11 54  1  0
 14 55  1  0
 15 56  1  0
 16 57  1  0
 17 58  1  0
 20 59  1  0
 20 60  1  0
 20 61  1  0
 22 62  1  0
 23 63  1  0
 24 64  1  0
 27 65  1  0
 27 66  1  0
 29 67  1  0
 30 68  1  0
 31 69  1  0
 32 70  1  0
 33 71  1  0
M  CHG  2  11   1  19   1
M  END
>  <UniqueID>  (5) 
5

>  <SMILES>  (5) 
CCN(CC)CCOCC[NH2+]c1c2ccccc2[n+](C)c2cccc(OCc3ccccc3)c12

>  <Energy>  (5) 
113.32551061099531

>  <Genealogy>  (5) 
CCN(CC)CCOCC[NH2+]c1c2ccccc2[n+](C)c2cccc(OCc3ccccc3)c12 (protonated)
CCN(CC)CCOCC[NH2+]c1c2ccccc2[n+](C)c2cccc(OCc3ccccc3)c12 (3D coordinates assigned)
CCN(CC)CCOCC[NH2+]c1c2ccccc2[n+](C)c2cccc(OCc3ccccc3)c12 (optimized conformer: 113.32551061099531 kcal/mol)

>  <smiles>  (5) 
CCN(CC)CCOCCNc1c2ccccc2[n+](C)c2cccc(OCc3ccccc3)c12

>  <score_type>  (5) 
oracle

>  <origin>  (5) 
adg

>  <m_score__min__energy>  (5) 
-5.1600000000000001

>  <m_primary>  (5) 
energy

$$$$
5:0
     RDKit          3D

 55 58  0  0  0  0  0  0  0  0999 V2000
   61.0189   27.9471   47.0331 H   0  0  0  0  0  0  0  0  0  0  0  0
   60.1750   28.3890   46.4830 C   0  0  0  0  0  0  0  0  0  0  0  0
   58.9090   28.4450   47.0730 C   0  0  0  0  0  0  0  0  0  0  0  0
   58.7561   28.0413   48.0848 H   0  0  0  0  0  0  0  0  0  0  0  0
   57.8360   29.0140   46.3780 C   0  0  0  0  0  0  0  0  0  0  0  0
   56.8390   29.0494   46.8414 H   0  0  0  0  0  0  0  0  0  0  0  0
   58.0290   29.5400   45.0900 C   0  0  0  0  0  0  0  0  0  0  0  0
   56.8750   30.1150   44.3220 C   0  0  0  0  0  0  0  0  0  0  0  0
   55.9842   29.4861   44.4667 H   0  0  0  0  0  0  0  0  0  0  0  0
   57.1187   30.1491   43.2499 H   0  0  0  0  0  0  0  0  0  0  0  0
   56.6180   31.4190   44.7980 O   0  0  0  0  0  0  0  0  0  0  0  0
   57.3860   32.3730   44.0880 C   0  0  0  0  0  0  0  0  0  0  0  0
   56.7844   32.7826   43.2632 H   0  0  0  0  0  0  0  0  0  0  0  0
   58.2866   31.8835   43.6889 H   0  0  0  0  0  0  0  0  0  0  0  0
   57.8110   33.5200   45.0270 C   0  0  1  0  0  0  0  0  0  0  0  0
   57.4850   34.4423   44.5239 H   0  0  0  0  0  0  0  0  0  0  0  0
   57.1120   33.4290   46.4280 C   0  0  0  0  0  0  0  0  0  0  0  0
   56.5648   32.4783   46.5099 H   0  0  0  0  0  0  0  0  0  0  0  0
   56.3988   34.2574   46.5509 H   0  0  0  0  0  0  0  0  0  0  0  0
   58.1510   33.4960   47.4660 N   0  0  0  0  0  0  0  0  0  0  0  0
   59.0440   32.3810   47.3530 C   0  0  0  0  0  0  0  0  0  0  0  0
   59.1180   31.4860   48.2930 N   0  0  0  0  0  0  0  0  0  0  0  0
   60.2930   31.2270   49.1260 C   0  0  0  0  0  0  0  0  0  0  0  0
   60.5783   30.1694   49.0261 H   0  0  0  0  0  0  0  0  0  0  0  0
   60.0398   31.4618   50.1704 H   0  0  0  0  0  0  0  0  0  0  0  0
   61.4560   32.0930   48.7080 C   0  0  0  0  0  0  0  0  0  0  0  0
   62.4190   31.5850   47.8200 C   0  0  0  0  0  0  0  0  0  0  0  0
   62.3223   30.5577   47.4387 H   0  0  0  0  0  0  0  0  0  0  0  0
   63.4980   32.3750   47.4180 C   0  0  0  0  0  0  0  0  0  0  0  0
   64.2432   31.9713   46.7167 H   0  0  0  0  0  0  0  0  0  0  0  0
   63.6320   33.6740   47.9040 C   0  0  0  0  0  0  0  0  0  0  0  0
   64.4813   34.2949   47.5827 H   0  0  0  0  0  0  0  0  0  0  0  0
   62.6910   34.1900   48.7980 C   0  0  0  0  0  0  0  0  0  0  0  0
   62.8050   35.2150   49.1805 H   0  0  0  0  0  0  0  0  0  0  0  0
   61.5960   33.4050   49.2130 C   0  0  0  0  0  0  0  0  0  0  0  0
   60.6360   33.8920   50.1150 O   0  0  0  0  0  0  0  0  0  0  0  0
   60.5080   33.4650   51.4670 C   0  0  0  0  0  0  0  0  0  0  0  0
   60.7579   34.2985   52.1400 H   0  0  0  0  0  0  0  0  0  0  0  0
   59.4733   33.1412   51.6529 H   0  0  0  0  0  0  0  0  0  0  0  0
   61.1939   32.6254   51.6529 H   0  0  0  0  0  0  0  0  0  0  0  0
   59.8420   32.3520   46.0670 C   0  0  0  0  0  0  0  0  0  0  0  0
   60.9176   32.4301   46.2837 H   0  0  0  0  0  0  0  0  0  0  0  0
   59.6853   31.4113   45.5187 H   0  0  0  0  0  0  0  0  0  0  0  0
   59.3670   33.5830   45.2330 C   0  0  2  0  0  0  0  0  0  0  0  0
   59.8805   33.5936   44.2603 H   0  0  0  0  0  0  0  0  0  0  0  0
   59.6580   34.8600   46.0810 C   0  0  0  0  0  0  0  0  0  0  0  0
   60.7384   34.9344   46.2737 H   0  0  0  0  0  0  0  0  0  0  0  0
   59.3228   35.7513   45.5304 H   0  0  0  0  0  0  0  0  0  0  0  0
   58.8920   34.7660   47.4380 C   0  0  0  0  0  0  0  0  0  0  0  0
   59.6086   34.7964   48.2720 H   0  0  0  0  0  0  0  0  0  0  0  0
   58.1960   35.6119   47.5384 H   0  0  0  0  0  0  0  0  0  0  0  0
   59.3000   29.4630   44.4960 C   0  0  0  0  0  0  0  0  0  0  0  0
   59.4545   29.8513   43.4785 H   0  0  0  0  0  0  0  0  0  0  0  0
   60.3690   28.8940   45.1950 C   0  0  0  0  0  0  0  0  0  0  0  0
   61.3646   28.8439   44.7299 H   0  0  0  0  0  0  0  0  0  0  0  0
  1  2  1  0
  2  3  2  0
  3  4  1  0
  3  5  1  0
  5  6  1  0
  5  7  2  0
  7  8  1  0
  8  9  1  0
  8 10  1  0
  8 11  1  0
 11 12  1  0
 12 13  1  0
 12 14  1  0
 12 15  1  0
 15 16  1  6
 15 17  1  0
 17 18  1  0
 17 19  1  0
 17 20  1  0
 20 21  1  0
 21 22  2  0
 22 23  1  0
 23 24  1  0
 23 25  1  0
 23 26  1  0
 26 27  2  0
 27 28  1  0
 27 29  1  0
 29 30  1  0
 29 31  2  0
 31 32  1  0
 31 33  1  0
 33 34  1  0
 33 35  2  0
 35 36  1  0
 36 37  1  0
 37 38  1  0
 37 39  1  0
 37 40  1  0
 21 41  1  0
 41 42  1  0
 41 43  1  0
 41 44  1  0
 44 45  1  6
 44 46  1  0
 46 47  1  0
 46 48  1  0
 46 49  1  0
 49 50  1  0
 49 51  1  0
  7 52  1  0
 52 53  1  0
 52 54  2  0
 54 55  1  0
 54  2  1  0
 44 15  1  0
 49 20  1  0
 35 26  1  0
M  END
>  <UniqueID>  (6) 
6

>  <SMILES>  (6) 
COc1ccccc1C/N=C1\C[C@@H]2CCN1C[C@@H]2COCc1ccccc1

>  <Energy>  (6) 
88.73535071979778

>  <Genealogy>  (6) 
COc1ccccc1CN=C1C[C@@H]2CCN1C[C@@H]2COCc1ccccc1 (chirality)
COc1ccccc1C/N=C1\C[C@@H]2CCN1C[C@@H]2COCc1ccccc1 (cis-trans isomerization)
COc1ccccc1C/N=C1\C[C@@H]2CCN1C[C@@H]2COCc1ccccc1 (3D coordinates assigned)
COc1ccccc1C/N=C1\C[C@@H]2CCN1C[C@@H]2COCc1ccccc1 (nonaromatic ring conformer: 88.73535071979778 kcal/mol)

>  <smiles>  (6) 
COc1ccccc1CN=C1CC2CCN1CC2COCc1ccccc1

>  <score_type>  (6) 
oracle

>  <origin>  (6) 
adg

>  <m_score__min__energy>  (6) 
-8.6099999999999994

>  <m_primary>  (6) 
energy

$$$$
6:0
     RDKit          3D

 53 54  0  0  0  0  0  0  0  0999 V2000
   57.7570   26.9310   45.1950 C   0  0  0  0  0  0  0  0  0  0  0  0
   57.2260   28.2960   45.6310 C   0  0  0  0  0  0  0  0  0  0  0  0
   58.1210   29.3930   45.1870 N   0  0  0  0  0  0  0  0  0  0  0  0
   57.7330   29.8770   43.8410 C   0  0  0  0  0  0  0  0  0  0  0  0
   56.2180   30.0550   43.7200 C   0  0  0  0  0  0  0  0  0  0  0  0
   59.5510   28.9790   45.2150 C   0  0  0  0  0  0  0  0  0  0  0  0
   60.3780   29.9540   46.0580 C   0  0  0  0  0  0  0  0  0  0  0  0
   59.7740   31.2850   46.0770 N   0  0  0  0  0  0  0  0  0  0  0  0
   60.1220   32.2860   47.0470 C   0  0  0  0  0  0  0  0  0  0  0  0
   61.3970   32.6090   47.4970 C   0  0  0  0  0  0  0  0  0  0  0  0
   62.6790   32.1980   47.1280 C   0  0  0  0  0  0  0  0  0  0  0  0
   63.7720   32.7860   47.7930 C   0  0  0  0  0  0  0  0  0  0  0  0
   63.5650   33.7780   48.7780 C   0  0  0  0  0  0  0  0  0  0  0  0
   62.2640   34.2030   49.1000 C   0  0  0  0  0  0  0  0  0  0  0  0
   61.2020   33.5960   48.4310 C   0  0  0  0  0  0  0  0  0  0  0  0
   59.8910   33.8680   48.5290 N   0  0  0  0  0  0  0  0  0  0  0  0
   59.3360   34.8150   49.3670 O   0  0  0  0  0  0  0  0  0  0  0  0
   59.2240   33.0800   47.6880 N   0  0  0  0  0  0  0  0  0  0  0  0
   57.7730   33.1160   47.4760 C   0  0  0  0  0  0  0  0  0  0  0  0
   57.4340   33.8290   46.1640 C   0  0  0  0  0  0  0  0  0  0  0  0
   58.4580   33.5350   45.1350 N   0  0  0  0  0  0  0  0  0  0  0  0
   59.2860   34.7230   44.8710 C   0  0  0  0  0  0  0  0  0  0  0  0
   57.8320   33.0810   43.8820 C   0  0  0  0  0  0  0  0  0  0  0  0
   57.9917   26.3277   46.0844 H   0  0  0  0  0  0  0  0  0  0  0  0
   56.9937   26.4157   44.5934 H   0  0  0  0  0  0  0  0  0  0  0  0
   58.6678   27.0670   44.5934 H   0  0  0  0  0  0  0  0  0  0  0  0
   56.2286   28.4485   45.1928 H   0  0  0  0  0  0  0  0  0  0  0  0
   57.1768   28.3131   46.7298 H   0  0  0  0  0  0  0  0  0  0  0  0
   58.2218   30.8448   43.6553 H   0  0  0  0  0  0  0  0  0  0  0  0
   58.0509   29.1272   43.1016 H   0  0  0  0  0  0  0  0  0  0  0  0
   55.7735   30.1072   44.7249 H   0  0  0  0  0  0  0  0  0  0  0  0
   56.0005   30.9849   43.1741 H   0  0  0  0  0  0  0  0  0  0  0  0
   55.7909   29.2009   43.1741 H   0  0  0  0  0  0  0  0  0  0  0  0
   59.6271   27.9712   45.6492 H   0  0  0  0  0  0  0  0  0  0  0  0
   59.9409   28.9806   44.1864 H   0  0  0  0  0  0  0  0  0  0  0  0
   60.4394   29.5737   47.0884 H   0  0  0  0  0  0  0  0  0  0  0  0
   61.3804   30.0342   45.6121 H   0  0  0  0  0  0  0  0  0  0  0  0
   58.8980   31.4130   45.5260 H   0  0  0  0  0  0  0  0  0  0  0  0
   62.8302   31.4408   46.3446 H   0  0  0  0  0  0  0  0  0  0  0  0
   64.7959   32.4705   47.5437 H   0  0  0  0  0  0  0  0  0  0  0  0
   64.4281   34.2209   49.2966 H   0  0  0  0  0  0  0  0  0  0  0  0
   62.0903   34.9862   49.8526 H   0  0  0  0  0  0  0  0  0  0  0  0
   59.1930   35.7720   49.0740 H   0  0  0  0  0  0  0  0  0  0  0  0
   57.3884   32.0862   47.4369 H   0  0  0  0  0  0  0  0  0  0  0  0
   57.3082   33.6664   48.3073 H   0  0  0  0  0  0  0  0  0  0  0  0
   56.4525   33.4835   45.8072 H   0  0  0  0  0  0  0  0  0  0  0  0
   57.4113   34.9139   46.3439 H   0  0  0  0  0  0  0  0  0  0  0  0
   59.5986   35.1715   45.8255 H   0  0  0  0  0  0  0  0  0  0  0  0
   60.1759   34.4291   44.2951 H   0  0  0  0  0  0  0  0  0  0  0  0
   58.7022   35.4562   44.2951 H   0  0  0  0  0  0  0  0  0  0  0  0
   56.9617   32.4498   44.1146 H   0  0  0  0  0  0  0  0  0  0  0  0
   57.5060   33.9541   43.2976 H   0  0  0  0  0  0  0  0  0  0  0  0
   58.5606   32.4999   43.2976 H   0  0  0  0  0  0  0  0  0  0  0  0
  1  2  1  0
  2  3  1  0
  3  4  1  0
  4  5  1  0
  3  6  1  0
  6  7  1  0
  7  8  1  0
  8  9  1  0
  9 10  2  0
 10 11  1  0
 11 12  2  0
 12 13  1  0
 13 14  2  0
 14 15  1  0
 15 16  2  0
 16 17  1  0
 16 18  1  0
 18 19  1  0
 19 20  1  0
 20 21  1  0
 21 22  1  0
 21 23  1  0
 18  9  1  0
 15 10  1  0
  1 24  1  0
  1 25  1  0
  1 26  1  0
  2 27  1  0
  2 28  1  0
  4 29  1  0
  4 30  1  0
  5 31  1  0
  5 32  1  0
  5 33  1  0
  6 34  1  0
  6 35  1  0
  7 36  1  0
  7 37  1  0
  8 38  1  0
 11 39  1  0
 12 40  1  0
 13 41  1  0
 14 42  1  0
 17 43  1  0
 19 44  1  0
 19 45  1  0
 20 46  1  0
 20 47  1  0
 22 48  1  0
 22 49  1  0
 22 50  1  0
 23 51  1  0
 23 52  1  0
 23 53  1  0
M  CHG  1  16   1
M  END
>  <UniqueID>  (7) 
7

>  <SMILES>  (7) 
CCN(CC)CCNc1c2ccccc2[n+](O)n1CCN(C)C

>  <Energy>  (7) 
90.57406185329013

>  <Genealogy>  (7) 
CCN(CC)CCNc1c2ccccc2[n+](O)n1CCN(C)C (protonated)
CCN(CC)CCNc1c2ccccc2[n+](O)n1CCN(C)C (3D coordinates assigned)
CCN(CC)CCNc1c2ccccc2[n+](O)n1CCN(C)C (optimized conformer: 90.57406185329013 kcal/mol)

>  <smiles>  (7) 
CCN(CC)CCNc1c2ccccc2[n+]([O-])n1CCN(C)C

>  <score_type>  (7) 
oracle

>  <origin>  (7) 
adg

>  <m_score__min__energy>  (7) 
-4.6600000000000001

>  <m_primary>  (7) 
energy

$$$$
7:0
     RDKit          3D

 36 37  0  0  1  0  0  0  0  0999 V2000
   60.5080   29.7140   48.0910 C   0  0  0  0  0  0  0  0  0  0  0  0
   59.5200   30.3630   47.3120 O   0  0  0  0  0  0  0  0  0  0  0  0
   58.5380   29.5700   46.7210 C   0  0  0  0  0  0  0  0  0  0  0  0
   58.4180   28.2310   47.0510 C   0  0  0  0  0  0  0  0  0  0  0  0
   57.4340   27.4550   46.4530 C   0  0  0  0  0  0  0  0  0  0  0  0
   57.3880   26.2180   46.8150 N   0  0  0  0  0  0  0  0  0  0  0  0
   57.7380   25.1740   45.8850 C   0  0  0  0  0  0  0  0  0  0  0  0
   56.6050   24.8950   44.9260 C   0  0  1  0  0  0  0  0  0  0  0  0
   56.7370   23.5540   44.2620 C   0  0  0  0  0  0  0  0  0  0  0  0
   55.4400   22.9150   44.2720 N   0  0  0  0  0  0  0  0  0  0  0  0
   54.4820   23.9700   44.6120 C   0  0  0  0  0  0  0  0  0  0  0  0
   55.2860   24.7260   45.6510 C   0  0  2  0  0  0  0  0  0  0  0  0
   54.7020   25.9540   45.9540 O   0  0  0  0  0  0  0  0  0  0  0  0
   56.5940   27.9910   45.5570 N   0  0  0  0  0  0  0  0  0  0  0  0
   56.7160   29.2850   45.2430 C   0  0  0  0  0  0  0  0  0  0  0  0
   55.8380   29.8270   44.3110 O   0  0  0  0  0  0  0  0  0  0  0  0
   56.2510   29.8260   42.9570 C   0  0  0  0  0  0  0  0  0  0  0  0
   57.6650   30.0670   45.8080 N   0  0  0  0  0  0  0  0  0  0  0  0
   60.2869   29.8592   49.1587 H   0  0  0  0  0  0  0  0  0  0  0  0
   60.5093   28.6386   47.8598 H   0  0  0  0  0  0  0  0  0  0  0  0
   61.4955   30.1399   47.8598 H   0  0  0  0  0  0  0  0  0  0  0  0
   59.1017   27.7820   47.7865 H   0  0  0  0  0  0  0  0  0  0  0  0
   58.6242   25.4855   45.3126 H   0  0  0  0  0  0  0  0  0  0  0  0
   57.9470   24.2561   46.4540 H   0  0  0  0  0  0  0  0  0  0  0  0
   56.6391   25.7454   44.2291 H   0  0  0  0  0  0  0  0  0  0  0  0
   57.0799   23.6842   43.2250 H   0  0  0  0  0  0  0  0  0  0  0  0
   57.4698   22.9344   44.7996 H   0  0  0  0  0  0  0  0  0  0  0  0
   55.4450   22.2890   45.1310 H   0  0  0  0  0  0  0  0  0  0  0  0
   54.2422   24.6000   43.7428 H   0  0  0  0  0  0  0  0  0  0  0  0
   53.4996   23.6127   44.9544 H   0  0  0  0  0  0  0  0  0  0  0  0
   55.3669   24.2183   46.6234 H   0  0  0  0  0  0  0  0  0  0  0  0
   55.1440   26.2900   46.7730 H   0  0  0  0  0  0  0  0  0  0  0  0
   55.8720   27.4000   45.1250 H   0  0  0  0  0  0  0  0  0  0  0  0
   57.3499   29.8233   42.9089 H   0  0  0  0  0  0  0  0  0  0  0  0
   55.8598   28.9288   42.4550 H   0  0  0  0  0  0  0  0  0  0  0  0
   55.8642   30.7251   42.4550 H   0  0  0  0  0  0  0  0  0  0  0  0
  1  2  1  0
  2  3  1  0
  3  4  2  0
  4  5  1  0
  5  6  2  0
  6  7  1  0
  7  8  1  0
  8  9  1  0
  9 10  1  0
 10 11  1  0
 11 12  1  0
 12 13  1  0
  5 14  1  0
 14 15  1  0
 15 16  1  0
 16 17  1  0
 15 18  2  0
 18  3  1  0
 12  8  1  0
  1 19  1  0
  1 20  1  0
  1 21  1  0
  4 22  1  0
  7 23  1  0
  7 24  1  0
  8 25  1  6
  9 26  1  0
  9 27  1  0
 10 28  1  0
 11 29  1  0
 11 30  1  0
 12 31  1  1
 13 32  1  0
 14 33  1  0
 17 34  1  0
 17 35  1  0
 17 36  1  0
M  END
>  <smiles>  (8) 
COc1cc(=NCC2CNCC2O)[nH]c(OC)n1

>  <score_type>  (8) 
oracle

>  <origin>  (8) 
adg

>  <m_score__min__energy>  (8) 
-6.4900000000000002

>  <m_primary>  (8) 
energy

$$$$
8:0
     RDKit          3D

 62 65  0  0  0  0  0  0  0  0999 V2000
   62.8140   33.4800   47.8640 C   0  0  0  0  0  0  0  0  0  0  0  0
   61.3440   33.5040   47.7320 N   0  0  0  0  0  0  0  0  0  0  0  0
   60.9530   34.1360   46.4540 C   0  0  0  0  0  0  0  0  0  0  0  0
   59.5940   33.6540   46.0190 C   0  0  0  0  0  0  0  0  0  0  0  0
   59.2990   32.2810   45.9720 C   0  0  0  0  0  0  0  0  0  0  0  0
   58.0310   31.8460   45.5750 C   0  0  0  0  0  0  0  0  0  0  0  0
   57.0490   32.7770   45.2250 C   0  0  0  0  0  0  0  0  0  0  0  0
   57.3320   34.1450   45.2740 C   0  0  0  0  0  0  0  0  0  0  0  0
   58.5990   34.5840   45.6710 C   0  0  0  0  0  0  0  0  0  0  0  0
   60.7360   34.2290   48.8690 C   0  0  0  0  0  0  0  0  0  0  0  0
   59.8070   33.3290   49.6420 C   0  0  0  0  0  0  0  0  0  0  0  0
   59.3420   33.7210   50.9050 C   0  0  0  0  0  0  0  0  0  0  0  0
   58.4710   32.8980   51.6250 C   0  0  0  0  0  0  0  0  0  0  0  0
   58.0500   31.6650   51.0930 C   0  0  0  0  0  0  0  0  0  0  0  0
   57.1260   30.7880   51.8610 C   0  0  0  0  0  0  0  0  0  0  0  0
   57.5730   29.5570   52.3760 C   0  0  0  0  0  0  0  0  0  0  0  0
   56.7050   28.7340   53.1000 C   0  0  0  0  0  0  0  0  0  0  0  0
   55.3790   29.1290   53.3270 C   0  0  0  0  0  0  0  0  0  0  0  0
   54.4400   28.2250   54.0830 C   0  0  0  0  0  0  0  0  0  0  0  0
   53.3990   27.6960   53.1860 N   0  0  0  0  0  0  0  0  0  0  0  0
   52.0930   28.3360   53.4190 C   0  0  0  0  0  0  0  0  0  0  0  0
   51.8890   29.5410   52.5300 C   0  0  0  0  0  0  0  0  0  0  0  0
   52.0890   29.4430   51.1430 C   0  0  0  0  0  0  0  0  0  0  0  0
   51.9250   30.5670   50.3270 C   0  0  0  0  0  0  0  0  0  0  0  0
   51.5640   31.7940   50.8890 C   0  0  0  0  0  0  0  0  0  0  0  0
   51.4090   32.8840   50.0980 F   0  0  0  0  0  0  0  0  0  0  0  0
   51.3670   31.9000   52.2700 C   0  0  0  0  0  0  0  0  0  0  0  0
   51.5300   30.7780   53.0890 C   0  0  0  0  0  0  0  0  0  0  0  0
   54.9240   30.3460   52.8010 C   0  0  0  0  0  0  0  0  0  0  0  0
   55.7910   31.1720   52.0790 C   0  0  0  0  0  0  0  0  0  0  0  0
   58.5180   31.2780   49.8250 C   0  0  0  0  0  0  0  0  0  0  0  0
   59.3880   32.1030   49.1060 C   0  0  0  0  0  0  0  0  0  0  0  0
   63.0864   33.4756   48.9297 H   0  0  0  0  0  0  0  0  0  0  0  0
   63.2109   32.5753   47.3803 H   0  0  0  0  0  0  0  0  0  0  0  0
   63.2402   34.3713   47.3803 H   0  0  0  0  0  0  0  0  0  0  0  0
   60.9248   35.2279   46.5843 H   0  0  0  0  0  0  0  0  0  0  0  0
   61.6895   33.8639   45.6836 H   0  0  0  0  0  0  0  0  0  0  0  0
   60.0687   31.5455   46.2487 H   0  0  0  0  0  0  0  0  0  0  0  0
   57.8059   30.7699   45.5381 H   0  0  0  0  0  0  0  0  0  0  0  0
   56.0526   32.4329   44.9107 H   0  0  0  0  0  0  0  0  0  0  0  0
   56.5576   34.8767   45.0001 H   0  0  0  0  0  0  0  0  0  0  0  0
   58.8179   35.6613   45.7111 H   0  0  0  0  0  0  0  0  0  0  0  0
   61.5335   34.5843   49.5381 H   0  0  0  0  0  0  0  0  0  0  0  0
   60.1583   35.0790   48.4769 H   0  0  0  0  0  0  0  0  0  0  0  0
   59.6644   34.6820   51.3322 H   0  0  0  0  0  0  0  0  0  0  0  0
   58.1120   33.2166   52.6148 H   0  0  0  0  0  0  0  0  0  0  0  0
   58.6128   29.2400   52.2077 H   0  0  0  0  0  0  0  0  0  0  0  0
   57.0643   27.7717   53.4935 H   0  0  0  0  0  0  0  0  0  0  0  0
   55.0100   27.3867   54.5100 H   0  0  0  0  0  0  0  0  0  0  0  0
   53.9580   28.8035   54.8849 H   0  0  0  0  0  0  0  0  0  0  0  0
   53.3140   26.6600   53.3080 H   0  0  0  0  0  0  0  0  0  0  0  0
   53.6790   27.8880   52.1940 H   0  0  0  0  0  0  0  0  0  0  0  0
   51.2971   27.6046   53.2148 H   0  0  0  0  0  0  0  0  0  0  0  0
   52.0614   28.6750   54.4650 H   0  0  0  0  0  0  0  0  0  0  0  0
   52.3755   28.4791   50.6972 H   0  0  0  0  0  0  0  0  0  0  0  0
   52.0805   30.4848   49.2412 H   0  0  0  0  0  0  0  0  0  0  0  0
   51.0837   32.8666   52.7121 H   0  0  0  0  0  0  0  0  0  0  0  0
   51.3764   30.8650   54.1748 H   0  0  0  0  0  0  0  0  0  0  0  0
   53.8793   30.6529   52.9570 H   0  0  0  0  0  0  0  0  0  0  0  0
   55.4260   32.1293   51.6786 H   0  0  0  0  0  0  0  0  0  0  0  0
   58.1969   30.3178   49.3949 H   0  0  0  0  0  0  0  0  0  0  0  0
   59.7457   31.7886   48.1144 H   0  0  0  0  0  0  0  0  0  0  0  0
  1  2  1  0
  2  3  1  0
  3  4  1  0
  4  5  2  0
  5  6  1  0
  6  7  2  0
  7  8  1  0
  8  9  2  0
  2 10  1  0
 10 11  1  0
 11 12  2  0
 12 13  1  0
 13 14  2  0
 14 15  1  0
 15 16  2  0
 16 17  1  0
 17 18  2  0
 18 19  1  0
 19 20  1  0
 20 21  1  0
 21 22  1  0
 22 23  2  0
 23 24  1  0
 24 25  2  0
 25 26  1  0
 25 27  1  0
 27 28  2  0
 18 29  1  0
 29 30  2  0
 14 31  1  0
 31 32  2  0
  9  4  1  0
 32 11  1  0
 30 15  1  0
 28 22  1  0
  1 33  1  0
  1 34  1  0
  1 35  1  0
  3 36  1  0
  3 37  1  0
  5 38  1  0
  6 39  1  0
  7 40  1  0
  8 41  1  0
  9 42  1  0
 10 43  1  0
 10 44  1  0
 12 45  1  0
 13 46  1  0
 16 47  1  0
 17 48  1  0
 19 49  1  0
 19 50  1  0
 20 51  1  0
 20 52  1  0
 21 53  1  0
 21 54  1  0
 23 55  1  0
 24 56  1  0
 27 57  1  0
 28 58  1  0
 29 59  1  0
 30 60  1  0
 31 61  1  0
 32 62  1  0
M  CHG  1  20   1
M  END
>  <UniqueID>  (9) 
8

>  <SMILES>  (9) 
CN(Cc1ccccc1)Cc1ccc(-c2ccc(C[NH2+]Cc3ccc(F)cc3)cc2)cc1

>  <Energy>  (9) 
71.2802880876984

>  <Genealogy>  (9) 
CN(Cc1ccccc1)Cc1ccc(-c2ccc(C[NH2+]Cc3ccc(F)cc3)cc2)cc1 (protonated)
CN(Cc1ccccc1)Cc1ccc(-c2ccc(C[NH2+]Cc3ccc(F)cc3)cc2)cc1 (3D coordinates assigned)
CN(Cc1ccccc1)Cc1ccc(-c2ccc(C[NH2+]Cc3ccc(F)cc3)cc2)cc1 (optimized conformer: 71.2802880876984 kcal/mol)

>  <smiles>  (9) 
CN(Cc1ccccc1)Cc1ccc(-c2ccc(CNCc3ccc(F)cc3)cc2)cc1

>  <score_type>  (9) 
oracle

>  <origin>  (9) 
adg

>  <m_score__min__energy>  (9) 
-7.7999999999999998

>  <m_primary>  (9) 
energy

$$$$
9:0
     RDKit          3D

 56 58  0  0  0  0  0  0  0  0999 V2000
   63.0030   34.2010   50.5020 C   0  0  0  0  0  0  0  0  0  0  0  0
   63.0210   34.0580   48.9800 C   0  0  0  0  0  0  0  0  0  0  0  0
   62.7150   32.6670   48.5740 N   0  0  0  0  0  0  0  0  0  0  0  0
   63.0400   32.4580   47.1440 C   0  0  0  0  0  0  0  0  0  0  0  0
   63.3260   33.7880   46.4490 C   0  0  0  0  0  0  0  0  0  0  0  0
   63.3960   31.6750   49.4470 C   0  0  0  0  0  0  0  0  0  0  0  0
   62.3600   30.7440   50.0690 C   0  0  0  0  0  0  0  0  0  0  0  0
   61.2330   31.5000   50.4570 O   0  0  0  0  0  0  0  0  0  0  0  0
   60.1250   30.6410   50.6240 C   0  0  0  0  0  0  0  0  0  0  0  0
   59.2130   30.7340   49.4020 C   0  0  0  0  0  0  0  0  0  0  0  0
   59.9360   31.2290   48.2280 N   0  0  0  0  0  0  0  0  0  0  0  0
   59.2550   31.5370   47.0040 C   0  0  0  0  0  0  0  0  0  0  0  0
   58.7090   30.5000   46.2130 C   0  0  0  0  0  0  0  0  0  0  0  0
   58.6080   29.1870   46.7180 C   0  0  0  0  0  0  0  0  0  0  0  0
   58.0760   28.1640   45.9380 C   0  0  0  0  0  0  0  0  0  0  0  0
   57.6390   28.4250   44.6440 C   0  0  0  0  0  0  0  0  0  0  0  0
   57.7220   29.7160   44.1200 C   0  0  0  0  0  0  0  0  0  0  0  0
   58.2540   30.7810   44.8870 C   0  0  0  0  0  0  0  0  0  0  0  0
   58.3400   32.0660   44.3820 N   0  0  0  0  0  0  0  0  0  0  0  0
   57.9290   32.3680   42.9970 C   0  0  0  0  0  0  0  0  0  0  0  0
   58.7740   33.0690   45.2080 C   0  0  0  0  0  0  0  0  0  0  0  0
   58.8390   34.7190   44.8710 S   0  0  0  0  0  0  0  0  0  0  0  0
   59.3810   35.1880   46.3900 C   0  0  0  0  0  0  0  0  0  0  0  0
   59.5040   34.0580   47.1990 C   0  0  0  0  0  0  0  0  0  0  0  0
   59.8290   34.1900   48.6600 C   0  0  0  0  0  0  0  0  0  0  0  0
   59.2020   32.8520   46.5130 C   0  0  0  0  0  0  0  0  0  0  0  0
   63.1276   33.2109   50.9648 H   0  0  0  0  0  0  0  0  0  0  0  0
   63.8253   34.8597   50.8181 H   0  0  0  0  0  0  0  0  0  0  0  0
   62.0431   34.6353   50.8181 H   0  0  0  0  0  0  0  0  0  0  0  0
   62.2686   34.7331   48.5463 H   0  0  0  0  0  0  0  0  0  0  0  0
   64.0262   34.3164   48.6156 H   0  0  0  0  0  0  0  0  0  0  0  0
   63.9280   31.8134   47.0671 H   0  0  0  0  0  0  0  0  0  0  0  0
   62.1770   31.9840   46.6535 H   0  0  0  0  0  0  0  0  0  0  0  0
   63.4938   34.5685   47.2057 H   0  0  0  0  0  0  0  0  0  0  0  0
   64.2231   33.6878   45.8204 H   0  0  0  0  0  0  0  0  0  0  0  0
   62.4670   34.0654   45.8204 H   0  0  0  0  0  0  0  0  0  0  0  0
   64.1049   31.0853   48.8472 H   0  0  0  0  0  0  0  0  0  0  0  0
   63.9387   32.2027   50.2451 H   0  0  0  0  0  0  0  0  0  0  0  0
   62.0583   29.9845   49.3328 H   0  0  0  0  0  0  0  0  0  0  0  0
   62.7917   30.2445   50.9488 H   0  0  0  0  0  0  0  0  0  0  0  0
   60.4788   29.6058   50.7383 H   0  0  0  0  0  0  0  0  0  0  0  0
   59.5636   30.9406   51.5213 H   0  0  0  0  0  0  0  0  0  0  0  0
   58.8113   29.7345   49.1791 H   0  0  0  0  0  0  0  0  0  0  0  0
   58.4015   31.4406   49.6304 H   0  0  0  0  0  0  0  0  0  0  0  0
   60.9530   31.4550   48.3150 H   0  0  0  0  0  0  0  0  0  0  0  0
   58.9534   28.9689   47.7393 H   0  0  0  0  0  0  0  0  0  0  0  0
   58.0011   27.1455   46.3468 H   0  0  0  0  0  0  0  0  0  0  0  0
   57.2261   27.6105   44.0307 H   0  0  0  0  0  0  0  0  0  0  0  0
   57.3690   29.9090   43.0962 H   0  0  0  0  0  0  0  0  0  0  0  0
   57.0426   33.0193   43.0113 H   0  0  0  0  0  0  0  0  0  0  0  0
   58.7508   32.8787   42.4737 H   0  0  0  0  0  0  0  0  0  0  0  0
   57.6872   31.4311   42.4737 H   0  0  0  0  0  0  0  0  0  0  0  0
   59.6033   36.2204   46.6976 H   0  0  0  0  0  0  0  0  0  0  0  0
   58.9740   33.8427   49.2587 H   0  0  0  0  0  0  0  0  0  0  0  0
   60.7134   33.5798   48.8955 H   0  0  0  0  0  0  0  0  0  0  0  0
   60.0375   35.2441   48.8955 H   0  0  0  0  0  0  0  0  0  0  0  0
  1  2  1  0
  2  3  1  0
  3  4  1  0
  4  5  1  0
  3  6  1  0
  6  7  1  0
  7  8  1  0
  8  9  1  0
  9 10  1  0
 10 11  1  0
 11 12  1  0
 12 13  2  0
 13 14  1  0
 14 15  2  0
 15 16  1  0
 16 17  2  0
 17 18  1  0
 18 19  2  0
 19 20  1  0
 19 21  1  0
 21 22  1  0
 22 23  1  0
 23 24  2  0
 24 25  1  0
 24 26  1  0
 26 12  1  0
 18 13  1  0
 26 21  2  0
  1 27  1  0
  1 28  1  0
  1 29  1  0
  2 30  1  0
  2 31  1  0
  4 32  1  0
  4 33  1  0
  5 34  1  0
  5 35  1  0
  5 36  1  0
  6 37  1  0
  6 38  1  0
  7 39  1  0
  7 40  1  0
  9 41  1  0
  9 42  1  0
 10 43  1  0
 10 44  1  0
 11 45  1  0
 14 46  1  0
 15 47  1  0
 16 48  1  0
 17 49  1  0
 20 50  1  0
 20 51  1  0
 20 52  1  0
 23 53  1  0
 25 54  1  0
 25 55  1  0
 25 56  1  0
M  CHG  1  19   1
M  END
>  <UniqueID>  (10) 
9

>  <SMILES>  (10) 
CCN(CC)CCOCCNc1c2ccccc2[n+](C)c2scc(C)c12

>  <Energy>  (10) 
100.67732427627433

>  <Genealogy>  (10) 
CCN(CC)CCOCCNc1c2ccccc2[n+](C)c2scc(C)c12 (3D coordinates assigned)
CCN(CC)CCOCCNc1c2ccccc2[n+](C)c2scc(C)c12 (optimized conformer: 100.67732427627433 kcal/mol)

>  <smiles>  (10) 
CCN(CC)CCOCCNc1c2ccccc2[n+](C)c2scc(C)c12

>  <score_type>  (10) 
oracle

>  <origin>  (10) 
adg

>  <m_score__min__energy>  (10) 
-5.2000000000000002

>  <m_primary>  (10) 
energy

$$$$
10:0
     RDKit          3D

 72 74  0  0  0  0  0  0  0  0999 V2000
   56.6360   21.8850   42.6490 C   0  0  0  0  0  0  0  0  0  0  0  0
   56.6260   23.2380   43.3820 C   0  0  0  0  0  0  0  0  0  0  0  0
   56.9410   23.1540   44.8310 N   0  0  0  0  0  0  0  0  0  0  0  0
   57.8730   22.0510   45.1540 C   0  0  0  0  0  0  0  0  0  0  0  0
   59.3080   22.4720   44.8590 C   0  0  0  0  0  0  0  0  0  0  0  0
   55.7420   23.1690   45.7010 C   0  0  0  0  0  0  0  0  0  0  0  0
   54.9800   24.4920   45.5600 C   0  0  0  0  0  0  0  0  0  0  0  0
   55.5750   25.4950   46.3640 O   0  0  0  0  0  0  0  0  0  0  0  0
   56.5930   26.1940   45.6700 C   0  0  0  0  0  0  0  0  0  0  0  0
   57.8950   26.2210   46.4710 C   0  0  0  0  0  0  0  0  0  0  0  0
   58.6450   27.3660   46.1190 O   0  0  0  0  0  0  0  0  0  0  0  0
   58.3640   28.4270   47.0140 C   0  0  0  0  0  0  0  0  0  0  0  0
   58.2340   29.6910   46.2800 N   0  0  0  0  0  0  0  0  0  0  0  0
   58.7140   30.9080   46.6630 C   0  0  0  0  0  0  0  0  0  0  0  0
   59.5350   31.1570   47.8980 C   0  0  0  0  0  0  0  0  0  0  0  0
   58.4460   31.8660   45.6830 C   0  0  0  0  0  0  0  0  0  0  0  0
   58.8960   33.3020   45.6640 C   0  0  0  0  0  0  0  0  0  0  0  0
   58.5360   33.9730   46.9230 N   0  0  0  0  0  0  0  0  0  0  0  0
   59.5570   34.9510   47.3400 C   0  0  0  0  0  0  0  0  0  0  0  0
   60.8330   34.2770   47.7920 C   0  0  0  0  0  0  0  0  0  0  0  0
   61.0940   34.1030   49.1610 C   0  0  0  0  0  0  0  0  0  0  0  0
   62.2860   33.5070   49.5820 C   0  0  0  0  0  0  0  0  0  0  0  0
   63.2350   33.0800   48.6420 C   0  0  0  0  0  0  0  0  0  0  0  0
   64.5000   32.4100   49.0970 C   0  0  0  0  0  0  0  0  0  0  0  0
   62.9640   33.2300   47.2750 C   0  0  0  0  0  0  0  0  0  0  0  0
   61.7740   33.8310   46.8530 C   0  0  0  0  0  0  0  0  0  0  0  0
   57.8070   31.1870   44.6640 C   0  0  0  0  0  0  0  0  0  0  0  0
   57.3630   31.6270   43.4160 C   0  0  0  0  0  0  0  0  0  0  0  0
   56.7670   30.6890   42.5580 C   0  0  0  0  0  0  0  0  0  0  0  0
   56.6340   29.3430   42.9560 C   0  0  0  0  0  0  0  0  0  0  0  0
   57.1010   28.9220   44.2140 C   0  0  0  0  0  0  0  0  0  0  0  0
   57.6880   29.8750   45.0550 C   0  0  0  0  0  0  0  0  0  0  0  0
   56.6420   21.0686   43.3862 H   0  0  0  0  0  0  0  0  0  0  0  0
   55.7384   21.8030   42.0184 H   0  0  0  0  0  0  0  0  0  0  0  0
   57.5347   21.8162   42.0184 H   0  0  0  0  0  0  0  0  0  0  0  0
   57.3706   23.8927   42.9056 H   0  0  0  0  0  0  0  0  0  0  0  0
   55.6003   23.6281   43.3062 H   0  0  0  0  0  0  0  0  0  0  0  0
   57.7805   21.7975   46.2204 H   0  0  0  0  0  0  0  0  0  0  0  0
   57.6213   21.1757   44.5371 H   0  0  0  0  0  0  0  0  0  0  0  0
   59.8458   22.6298   45.8055 H   0  0  0  0  0  0  0  0  0  0  0  0
   59.8097   21.6832   44.2793 H   0  0  0  0  0  0  0  0  0  0  0  0
   59.3040   23.4068   44.2793 H   0  0  0  0  0  0  0  0  0  0  0  0
   55.0790   22.3393   45.4148 H   0  0  0  0  0  0  0  0  0  0  0  0
   56.0653   23.0594   46.7467 H   0  0  0  0  0  0  0  0  0  0  0  0
   55.0012   24.8116   44.5077 H   0  0  0  0  0  0  0  0  0  0  0  0
   53.9414   24.3414   45.8896 H   0  0  0  0  0  0  0  0  0  0  0  0
   56.7758   25.6965   44.7061 H   0  0  0  0  0  0  0  0  0  0  0  0
   56.2589   27.2307   45.5163 H   0  0  0  0  0  0  0  0  0  0  0  0
   57.6629   26.2517   47.5458 H   0  0  0  0  0  0  0  0  0  0  0  0
   58.4808   25.3175   46.2462 H   0  0  0  0  0  0  0  0  0  0  0  0
   57.4229   28.2160   47.5430 H   0  0  0  0  0  0  0  0  0  0  0  0
   59.1898   28.5152   47.7353 H   0  0  0  0  0  0  0  0  0  0  0  0
   58.9201   30.9705   48.7908 H   0  0  0  0  0  0  0  0  0  0  0  0
   60.4034   30.4818   47.9033 H   0  0  0  0  0  0  0  0  0  0  0  0
   59.8821   32.2008   47.9033 H   0  0  0  0  0  0  0  0  0  0  0  0
   59.9878   33.3373   45.5347 H   0  0  0  0  0  0  0  0  0  0  0  0
   58.3978   33.8193   44.8308 H   0  0  0  0  0  0  0  0  0  0  0  0
   57.6090   34.4500   46.8210 H   0  0  0  0  0  0  0  0  0  0  0  0
   58.4490   33.2520   47.6770 H   0  0  0  0  0  0  0  0  0  0  0  0
   59.7853   35.6109   46.4900 H   0  0  0  0  0  0  0  0  0  0  0  0
   59.1544   35.5226   48.1892 H   0  0  0  0  0  0  0  0  0  0  0  0
   60.3566   34.4375   49.9056 H   0  0  0  0  0  0  0  0  0  0  0  0
   62.4808   33.3722   50.6562 H   0  0  0  0  0  0  0  0  0  0  0  0
   64.5312   32.3935   50.1964 H   0  0  0  0  0  0  0  0  0  0  0  0
   64.5272   31.3792   48.7139 H   0  0  0  0  0  0  0  0  0  0  0  0
   65.3680   32.9666   48.7139 H   0  0  0  0  0  0  0  0  0  0  0  0
   63.6910   32.8732   46.5305 H   0  0  0  0  0  0  0  0  0  0  0  0
   61.5750   33.9546   45.7782 H   0  0  0  0  0  0  0  0  0  0  0  0
   57.4768   32.6784   43.1134 H   0  0  0  0  0  0  0  0  0  0  0  0
   56.4019   31.0059   41.5700 H   0  0  0  0  0  0  0  0  0  0  0  0
   56.1617   28.6171   42.2778 H   0  0  0  0  0  0  0  0  0  0  0  0
   57.0076   27.8721   44.5287 H   0  0  0  0  0  0  0  0  0  0  0  0
  1  2  1  0
  2  3  1  0
  3  4  1  0
  4  5  1  0
  3  6  1  0
  6  7  1  0
  7  8  1  0
  8  9  1  0
  9 10  1  0
 10 11  1  0
 11 12  1  0
 12 13  1  0
 13 14  1  0
 14 15  1  0
 14 16  2  0
 16 17  1  0
 17 18  1  0
 18 19  1  0
 19 20  1  0
 20 21  2  0
 21 22  1  0
 22 23  2  0
 23 24  1  0
 23 25  1  0
 25 26  2  0
 16 27  1  0
 27 28  2  0
 28 29  1  0
 29 30  2  0
 30 31  1  0
 31 32  2  0
 32 13  1  0
 26 20  1  0
 32 27  1  0
  1 33  1  0
  1 34  1  0
  1 35  1  0
  2 36  1  0
  2 37  1  0
  4 38  1  0
  4 39  1  0
  5 40  1  0
  5 41  1  0
  5 42  1  0
  6 43  1  0
  6 44  1  0
  7 45  1  0
  7 46  1  0
  9 47  1  0
  9 48  1  0
 10 49  1  0
 10 50  1  0
 12 51  1  0
 12 52  1  0
 15 53  1  0
 15 54  1  0
 15 55  1  0
 17 56  1  0
 17 57  1  0
 18 58  1  0
 18 59  1  0
 19 60  1  0
 19 61  1  0
 21 62  1  0
 22 63  1  0
 24 64  1  0
 24 65  1  0
 24 66  1  0
 25 67  1  0
 26 68  1  0
 28 69  1  0
 29 70  1  0
 30 71  1  0
 31 72  1  0
M  CHG  1  18   1
M  END
>  <UniqueID>  (11) 
10

>  <SMILES>  (11) 
CCN(CC)CCOCCOCn1c(C)c(C[NH2+]Cc2ccc(C)cc2)c2ccccc21

>  <Energy>  (11) 
106.85312123380547

>  <Genealogy>  (11) 
CCN(CC)CCOCCOCn1c(C)c(C[NH2+]Cc2ccc(C)cc2)c2ccccc21 (protonated)
CCN(CC)CCOCCOCn1c(C)c(C[NH2+]Cc2ccc(C)cc2)c2ccccc21 (3D coordinates assigned)
CCN(CC)CCOCCOCn1c(C)c(C[NH2+]Cc2ccc(C)cc2)c2ccccc21 (optimized conformer: 106.85312123380547 kcal/mol)

>  <smiles>  (11) 
CCN(CC)CCOCCOCn1c(C)c(CNCc2ccc(C)cc2)c2ccccc21

>  <score_type>  (11) 
oracle

>  <origin>  (11) 
adg

>  <m_score__min__energy>  (11) 
-6.3399999999999999

>  <m_primary>  (11) 
energy

$$$$
11:0
     RDKit          3D

 57 60  0  0  0  0  0  0  0  0999 V2000
   57.7520   31.6890   43.1280 C   0  0  0  0  0  0  0  0  0  0  0  0
   58.1680   31.3940   44.5460 C   0  0  0  0  0  0  0  0  0  0  0  0
   58.8930   30.2280   44.8200 C   0  0  0  0  0  0  0  0  0  0  0  0
   59.2940   29.9220   46.1200 C   0  0  0  0  0  0  0  0  0  0  0  0
   58.9770   30.7720   47.2030 C   0  0  0  0  0  0  0  0  0  0  0  0
   59.4000   30.4540   48.5670 N   0  0  0  0  0  0  0  0  0  0  0  0
   58.5240   30.8410   49.6930 C   0  0  0  0  0  0  0  0  0  0  0  0
   58.9930   30.3280   51.0570 C   0  0  0  0  0  0  0  0  0  0  0  0
   60.4460   30.4490   51.2240 N   0  0  0  0  0  0  0  0  0  0  0  0
   60.9210   31.8520   51.1890 C   0  0  0  0  0  0  0  0  0  0  0  0
   62.4440   31.9050   51.3690 C   0  0  0  0  0  0  0  0  0  0  0  0
   63.0430   33.2190   50.8480 C   0  0  0  0  0  0  0  0  0  0  0  0
   63.1690   33.2060   49.3880 N   0  0  0  0  0  0  0  0  0  0  0  0
   64.2260   32.7370   48.6740 C   0  0  0  0  0  0  0  0  0  0  0  0
   64.0230   32.8130   47.3350 N   0  0  0  0  0  0  0  0  0  0  0  0
   62.7960   33.3450   47.2260 C   0  0  0  0  0  0  0  0  0  0  0  0
   62.1230   33.6100   46.0850 N   0  0  0  0  0  0  0  0  0  0  0  0
   60.8700   34.1450   46.1810 C   0  0  0  0  0  0  0  0  0  0  0  0
   60.3040   34.4110   47.4120 N   0  0  0  0  0  0  0  0  0  0  0  0
   58.9490   34.9690   47.4830 C   0  0  0  0  0  0  0  0  0  0  0  0
   60.9950   34.1280   48.5690 C   0  0  0  0  0  0  0  0  0  0  0  0
   60.4870   34.3580   49.7000 O   0  0  0  0  0  0  0  0  0  0  0  0
   62.2720   33.5820   48.4520 C   0  0  0  0  0  0  0  0  0  0  0  0
   61.1150   29.5760   50.2480 C   0  0  0  0  0  0  0  0  0  0  0  0
   60.7500   29.8850   48.7830 C   0  0  0  0  0  0  0  0  0  0  0  0
   58.2430   31.9480   46.9160 C   0  0  0  0  0  0  0  0  0  0  0  0
   57.8310   32.2600   45.6080 C   0  0  0  0  0  0  0  0  0  0  0  0
   57.0600   33.5320   45.3600 C   0  0  0  0  0  0  0  0  0  0  0  0
   56.8547   32.3253   43.1340 H   0  0  0  0  0  0  0  0  0  0  0  0
   58.5683   32.2112   42.6075 H   0  0  0  0  0  0  0  0  0  0  0  0
   57.5293   30.7459   42.6075 H   0  0  0  0  0  0  0  0  0  0  0  0
   59.1499   29.5436   43.9981 H   0  0  0  0  0  0  0  0  0  0  0  0
   59.8676   29.0020   46.3057 H   0  0  0  0  0  0  0  0  0  0  0  0
   58.4796   31.9393   49.7340 H   0  0  0  0  0  0  0  0  0  0  0  0
   57.5426   30.3820   49.5027 H   0  0  0  0  0  0  0  0  0  0  0  0
   58.4958   30.9121   51.8454 H   0  0  0  0  0  0  0  0  0  0  0  0
   58.7325   29.2615   51.1249 H   0  0  0  0  0  0  0  0  0  0  0  0
   60.6545   32.3010   50.2208 H   0  0  0  0  0  0  0  0  0  0  0  0
   60.4449   32.4108   52.0082 H   0  0  0  0  0  0  0  0  0  0  0  0
   62.6780   31.8087   52.4395 H   0  0  0  0  0  0  0  0  0  0  0  0
   62.8821   31.0799   50.7882 H   0  0  0  0  0  0  0  0  0  0  0  0
   62.3891   34.0527   51.1436 H   0  0  0  0  0  0  0  0  0  0  0  0
   64.0469   33.3384   51.2816 H   0  0  0  0  0  0  0  0  0  0  0  0
   65.1443   32.3398   49.1312 H   0  0  0  0  0  0  0  0  0  0  0  0
   64.6670   32.5160   46.5690 H   0  0  0  0  0  0  0  0  0  0  0  0
   60.3037   34.3671   45.2645 H   0  0  0  0  0  0  0  0  0  0  0  0
   58.6568   35.0893   48.5366 H   0  0  0  0  0  0  0  0  0  0  0  0
   58.9291   35.9485   46.9828 H   0  0  0  0  0  0  0  0  0  0  0  0
   58.2451   34.2875   46.9828 H   0  0  0  0  0  0  0  0  0  0  0  0
   62.2023   29.6930   50.3664 H   0  0  0  0  0  0  0  0  0  0  0  0
   60.7768   28.5494   50.4523 H   0  0  0  0  0  0  0  0  0  0  0  0
   61.4865   30.6040   48.3950 H   0  0  0  0  0  0  0  0  0  0  0  0
   60.7560   28.9171   48.2605 H   0  0  0  0  0  0  0  0  0  0  0  0
   57.9885   32.6349   47.7366 H   0  0  0  0  0  0  0  0  0  0  0  0
   56.7841   33.9872   46.3227 H   0  0  0  0  0  0  0  0  0  0  0  0
   57.6848   34.2339   44.7882 H   0  0  0  0  0  0  0  0  0  0  0  0
   56.1487   33.3028   44.7882 H   0  0  0  0  0  0  0  0  0  0  0  0
  1  2  1  0
  2  3  2  0
  3  4  1  0
  4  5  2  0
  5  6  1  0
  6  7  1  0
  7  8  1  0
  8  9  1  0
  9 10  1  0
 10 11  1  0
 11 12  1  0
 12 13  1  0
 13 14  1  0
 14 15  2  0
 15 16  1  0
 16 17  1  0
 17 18  2  0
 18 19  1  0
 19 20  1  0
 19 21  1  0
 21 22  2  0
 21 23  1  0
  9 24  1  0
 24 25  1  0
  5 26  1  0
 26 27  2  0
 27 28  1  0
 27  2  1  0
 25  6  1  0
 23 13  1  0
 23 16  2  0
  1 29  1  0
  1 30  1  0
  1 31  1  0
  3 32  1  0
  4 33  1  0
  7 34  1  0
  7 35  1  0
  8 36  1  0
  8 37  1  0
 10 38  1  0
 10 39  1  0
 11 40  1  0
 11 41  1  0
 12 42  1  0
 12 43  1  0
 14 44  1  0
 15 45  1  0
 18 46  1  0
 20 47  1  0
 20 48  1  0
 20 49  1  0
 24 50  1  0
 24 51  1  0
 25 52  1  0
 25 53  1  0
 26 54  1  0
 28 55  1  0
 28 56  1  0
 28 57  1  0
M  CHG  1  15   1
M  END
>  <UniqueID>  (12) 
11

>  <SMILES>  (12) 
Cc1ccc(N2CCN(CCCn3c[nH+]c4ncn(C)c(=O)c43)CC2)cc1C

>  <Energy>  (12) 
111.87175261146018

>  <Genealogy>  (12) 
Cc1ccc(N2CCN(CCCn3c[nH+]c4ncn(C)c(=O)c43)CC2)cc1C (protonated)
Cc1ccc(N2CCN(CCCn3c[nH+]c4ncn(C)c(=O)c43)CC2)cc1C (3D coordinates assigned)
Cc1ccc(N2CCN(CCCn3c[nH+]c4ncn(C)c(=O)c43)CC2)cc1C (nonaromatic ring conformer: 111.87175261146018 kcal/mol)

>  <smiles>  (12) 
Cc1ccc(N2CCN(CCCn3cnc4ncn(C)c(=O)c43)CC2)cc1C

>  <score_type>  (12) 
oracle

>  <origin>  (12) 
adg

>  <m_score__min__energy>  (12) 
-7.0700000000000003

>  <m_primary>  (12) 
energy

$$$$
12:0
     RDKit          3D

 48 49  0  0  0  0  0  0  0  0999 V2000
   58.8750   26.4350   46.6700 C   0  0  0  0  0  0  0  0  0  0  0  0
   57.5960   25.8740   46.0400 C   0  0  0  0  0  0  0  0  0  0  0  0
   57.4440   26.2380   44.6050 N   0  0  0  0  0  0  0  0  0  0  0  0
   57.3900   25.0570   43.7030 C   0  0  0  0  0  0  0  0  0  0  0  0
   56.2720   24.0580   44.0270 C   0  0  0  0  0  0  0  0  0  0  0  0
   58.5090   27.1880   44.1800 C   0  0  0  0  0  0  0  0  0  0  0  0
   58.0400   28.6510   44.1770 C   0  0  0  0  0  0  0  0  0  0  0  0
   56.6610   28.7070   44.4890 O   0  0  0  0  0  0  0  0  0  0  0  0
   56.0190   29.7200   43.7380 C   0  0  0  0  0  0  0  0  0  0  0  0
   56.8640   30.9990   43.7120 C   0  0  0  0  0  0  0  0  0  0  0  0
   56.8880   31.6090   45.0010 O   0  0  0  0  0  0  0  0  0  0  0  0
   58.0330   31.7890   45.7960 C   0  0  0  0  0  0  0  0  0  0  0  0
   58.5520   30.7700   46.6230 C   0  0  0  0  0  0  0  0  0  0  0  0
   59.6930   31.0220   47.3990 C   0  0  0  0  0  0  0  0  0  0  0  0
   60.3120   32.2740   47.3480 C   0  0  0  0  0  0  0  0  0  0  0  0
   59.7690   33.2480   46.5120 C   0  0  0  0  0  0  0  0  0  0  0  0
   58.6760   32.9920   45.7720 N   0  0  0  0  0  0  0  0  0  0  0  0
   58.2850   34.1460   44.9830 C   0  0  0  0  0  0  0  0  0  0  0  0
   59.2910   35.2520   45.3550 C   0  0  0  0  0  0  0  0  0  0  0  0
   60.2850   34.6250   46.3460 C   0  0  0  0  0  0  0  0  0  0  0  0
   58.7906   26.3980   47.7661 H   0  0  0  0  0  0  0  0  0  0  0  0
   59.7371   25.8324   46.3481 H   0  0  0  0  0  0  0  0  0  0  0  0
   59.0156   27.4774   46.3481 H   0  0  0  0  0  0  0  0  0  0  0  0
   57.6169   24.7773   46.1227 H   0  0  0  0  0  0  0  0  0  0  0  0
   56.7444   26.3116   46.5814 H   0  0  0  0  0  0  0  0  0  0  0  0
   56.5200   26.7210   44.5010 H   0  0  0  0  0  0  0  0  0  0  0  0
   57.2411   25.4172   42.6744 H   0  0  0  0  0  0  0  0  0  0  0  0
   58.3393   24.5177   43.8375 H   0  0  0  0  0  0  0  0  0  0  0  0
   56.1681   23.9652   45.1181 H   0  0  0  0  0  0  0  0  0  0  0  0
   55.3246   24.4159   43.5976 H   0  0  0  0  0  0  0  0  0  0  0  0
   56.5215   23.0765   43.5976 H   0  0  0  0  0  0  0  0  0  0  0  0
   59.3595   27.0937   44.8712 H   0  0  0  0  0  0  0  0  0  0  0  0
   58.7889   26.9294   43.1481 H   0  0  0  0  0  0  0  0  0  0  0  0
   58.6087   29.2195   44.9276 H   0  0  0  0  0  0  0  0  0  0  0  0
   58.2076   29.0868   43.1810 H   0  0  0  0  0  0  0  0  0  0  0  0
   55.8705   29.3652   42.7074 H   0  0  0  0  0  0  0  0  0  0  0  0
   55.0511   29.9472   44.2088 H   0  0  0  0  0  0  0  0  0  0  0  0
   57.8918   30.7476   43.4115 H   0  0  0  0  0  0  0  0  0  0  0  0
   56.4201   31.7037   42.9935 H   0  0  0  0  0  0  0  0  0  0  0  0
   58.0649   29.7844   46.6588 H   0  0  0  0  0  0  0  0  0  0  0  0
   60.1010   30.2334   48.0483 H   0  0  0  0  0  0  0  0  0  0  0  0
   61.2060   32.4855   47.9530 H   0  0  0  0  0  0  0  0  0  0  0  0
   58.3444   33.9165   43.9089 H   0  0  0  0  0  0  0  0  0  0  0  0
   57.2475   34.4497   45.1865 H   0  0  0  0  0  0  0  0  0  0  0  0
   59.8203   35.6018   44.4564 H   0  0  0  0  0  0  0  0  0  0  0  0
   58.7811   36.1195   45.7993 H   0  0  0  0  0  0  0  0  0  0  0  0
   61.3041   34.6177   45.9320 H   0  0  0  0  0  0  0  0  0  0  0  0
   60.3569   35.1774   47.2945 H   0  0  0  0  0  0  0  0  0  0  0  0
  1  2  1  0
  2  3  1  0
  3  4  1  0
  4  5  1  0
  3  6  1  0
  6  7  1  0
  7  8  1  0
  8  9  1  0
  9 10  1  0
 10 11  1  0
 11 12  1  0
 12 13  2  0
 13 14  1  0
 14 15  2  0
 15 16  1  0
 16 17  2  0
 17 18  1  0
 18 19  1  0
 19 20  1  0
 17 12  1  0
 20 16  1  0
  1 21  1  0
  1 22  1  0
  1 23  1  0
  2 24  1  0
  2 25  1  0
  3 26  1  0
  4 27  1  0
  4 28  1  0
  5 29  1  0
  5 30  1  0
  5 31  1  0
  6 32  1  0
  6 33  1  0
  7 34  1  0
  7 35  1  0
  9 36  1  0
  9 37  1  0
 10 38  1  0
 10 39  1  0
 13 40  1  0
 14 41  1  0
 15 42  1  0
 18 43  1  0
 18 44  1  0
 19 45  1  0
 19 46  1  0
 20 47  1  0
 20 48  1  0
M  CHG  2   3   1  17   1
M  END
>  <UniqueID>  (13) 
12

>  <SMILES>  (13) 
CC[NH+](CC)CCOCCOc1cccc2[n+]1CCC2

>  <Energy>  (13) 
56.63348440949672

>  <Genealogy>  (13) 
CC[NH+](CC)CCOCCOc1cccc2[n+]1CCC2 (protonated)
CC[NH+](CC)CCOCCOc1cccc2[n+]1CCC2 (3D coordinates assigned)
CC[NH+](CC)CCOCCOc1cccc2[n+]1CCC2 (nonaromatic ring conformer: 56.63348440949672 kcal/mol)

>  <smiles>  (13) 
CCN(CC)CCOCCOc1cccc2[n+]1CCC2

>  <score_type>  (13) 
oracle

>  <origin>  (13) 
adg

>  <m_score__min__energy>  (13) 
-2.8599999999999999

>  <m_primary>  (13) 
energy

$$$$
13:0
     RDKit          3D

 40 40  0  0  0  0  0  0  0  0999 V2000
   61.7910   33.8430   47.5330 C   0  0  0  0  0  0  0  0  0  0  0  0
   60.9010   34.1980   46.3480 C   0  0  0  0  0  0  0  0  0  0  0  0
   59.5450   33.6320   46.5350 N   0  0  0  0  0  0  0  0  0  0  0  0
   59.1310   33.7080   47.9550 C   0  0  0  0  0  0  0  0  0  0  0  0
   58.5130   32.3860   48.4020 C   0  0  0  0  0  0  0  0  0  0  0  0
   58.5640   34.3110   45.6570 C   0  0  0  0  0  0  0  0  0  0  0  0
   57.7000   33.2950   44.9020 C   0  0  0  0  0  0  0  0  0  0  0  0
   58.2340   31.9440   45.0730 N   0  0  0  0  0  0  0  0  0  0  0  0
   57.4060   30.7710   45.0160 C   0  0  0  0  0  0  0  0  0  0  0  0
   56.2580   30.8440   44.4990 O   0  0  0  0  0  0  0  0  0  0  0  0
   57.8840   29.4730   45.5590 C   0  0  0  0  0  0  0  0  0  0  0  0
   57.0270   28.3570   45.5550 C   0  0  0  0  0  0  0  0  0  0  0  0
   57.4650   27.1170   46.0250 C   0  0  0  0  0  0  0  0  0  0  0  0
   56.3850   25.7360   45.9980 Cl  0  0  0  0  0  0  0  0  0  0  0  0
   58.7660   26.9750   46.5080 C   0  0  0  0  0  0  0  0  0  0  0  0
   59.6300   28.0710   46.5250 C   0  0  0  0  0  0  0  0  0  0  0  0
   59.2030   29.3290   46.0530 C   0  0  0  0  0  0  0  0  0  0  0  0
   60.0550   30.4460   46.0760 O   0  0  0  0  0  0  0  0  0  0  0  0
   61.1470   30.6160   46.9750 C   0  0  0  0  0  0  0  0  0  0  0  0
   61.2561   34.0564   48.4702 H   0  0  0  0  0  0  0  0  0  0  0  0
   62.0469   32.7740   47.4921 H   0  0  0  0  0  0  0  0  0  0  0  0
   62.7124   34.4424   47.4921 H   0  0  0  0  0  0  0  0  0  0  0  0
   60.8288   35.2924   46.2635 H   0  0  0  0  0  0  0  0  0  0  0  0
   61.3409   33.7772   45.4318 H   0  0  0  0  0  0  0  0  0  0  0  0
   60.0113   33.9252   48.5778 H   0  0  0  0  0  0  0  0  0  0  0  0
   58.3826   34.5065   48.0656 H   0  0  0  0  0  0  0  0  0  0  0  0
   58.4932   32.3436   49.5010 H   0  0  0  0  0  0  0  0  0  0  0  0
   57.4866   32.3112   48.0136 H   0  0  0  0  0  0  0  0  0  0  0  0
   59.1138   31.5505   48.0136 H   0  0  0  0  0  0  0  0  0  0  0  0
   57.9126   34.9488   46.2726 H   0  0  0  0  0  0  0  0  0  0  0  0
   59.1148   34.9151   44.9210 H   0  0  0  0  0  0  0  0  0  0  0  0
   56.6727   33.3309   45.2937 H   0  0  0  0  0  0  0  0  0  0  0  0
   57.7056   33.5478   43.8315 H   0  0  0  0  0  0  0  0  0  0  0  0
   59.2440   31.8520   45.3240 H   0  0  0  0  0  0  0  0  0  0  0  0
   55.9994   28.4626   45.1770 H   0  0  0  0  0  0  0  0  0  0  0  0
   59.1115   25.9977   46.8760 H   0  0  0  0  0  0  0  0  0  0  0  0
   60.6535   27.9522   46.9102 H   0  0  0  0  0  0  0  0  0  0  0  0
   60.7814   30.5591   48.0109 H   0  0  0  0  0  0  0  0  0  0  0  0
   61.8895   29.8226   46.8041 H   0  0  0  0  0  0  0  0  0  0  0  0
   61.6132   31.5975   46.8041 H   0  0  0  0  0  0  0  0  0  0  0  0
  1  2  1  0
  2  3  1  0
  3  4  1  0
  4  5  1  0
  3  6  1  0
  6  7  1  0
  7  8  1  0
  8  9  1  0
  9 10  2  0
  9 11  1  0
 11 12  2  0
 12 13  1  0
 13 14  1  0
 13 15  2  0
 15 16  1  0
 16 17  2  0
 17 18  1  0
 18 19  1  0
 17 11  1  0
  1 20  1  0
  1 21  1  0
  1 22  1  0
  2 23  1  0
  2 24  1  0
  4 25  1  0
  4 26  1  0
  5 27  1  0
  5 28  1  0
  5 29  1  0
  6 30  1  0
  6 31  1  0
  7 32  1  0
  7 33  1  0
  8 34  1  0
 12 35  1  0
 15 36  1  0
 16 37  1  0
 19 38  1  0
 19 39  1  0
 19 40  1  0
M  END
>  <UniqueID>  (14) 
13

>  <SMILES>  (14) 
CCN(CC)CCNC(=O)c1cc(Cl)ccc1OC

>  <Energy>  (14) 
34.85379585865493

>  <Genealogy>  (14) 
CCN(CC)CCNC(=O)c1cc(Cl)ccc1OC (3D coordinates assigned)
CCN(CC)CCNC(=O)c1cc(Cl)ccc1OC (optimized conformer: 34.85379585865493 kcal/mol)

>  <smiles>  (14) 
CCN(CC)CCNC(=O)c1cc(Cl)ccc1OC

>  <score_type>  (14) 
oracle

>  <origin>  (14) 
adg

>  <m_score__min__energy>  (14) 
-6.0599999999999996

>  <m_primary>  (14) 
energy

$$$$
14:0
     RDKit          3D

 42 43  0  0  0  0  0  0  0  0999 V2000
   59.7290   29.5590   48.4950 C   0  0  0  0  0  0  0  0  0  0  0  0
   59.9660   29.9670   49.9520 C   0  0  0  0  0  0  0  0  0  0  0  0
   60.6620   31.2610   50.0680 N   0  0  0  0  0  0  0  0  0  0  0  0
   60.1680   32.0590   51.2050 C   0  0  0  0  0  0  0  0  0  0  0  0
   59.6920   33.4450   50.7490 C   0  0  0  0  0  0  0  0  0  0  0  0
   60.3690   33.8580   49.5110 N   0  0  0  0  0  0  0  0  0  0  0  0
   61.7910   34.2220   49.5260 C   0  0  0  0  0  0  0  0  0  0  0  0
   62.5400   33.3870   48.5370 C   0  0  0  0  0  0  0  0  0  0  0  0
   63.3120   33.8670   47.4990 C   0  0  0  0  0  0  0  0  0  0  0  0
   63.7690   32.7500   46.8330 C   0  0  0  0  0  0  0  0  0  0  0  0
   63.2440   31.6620   47.5030 C   0  0  0  0  0  0  0  0  0  0  0  0
   62.5130   32.0750   48.5120 O   0  0  0  0  0  0  0  0  0  0  0  0
   59.6500   33.8530   48.2630 C   0  0  0  0  0  0  0  0  0  0  0  0
   58.6430   32.9040   48.0270 C   0  0  0  0  0  0  0  0  0  0  0  0
   57.9550   32.8940   46.8100 C   0  0  0  0  0  0  0  0  0  0  0  0
   58.2530   33.8420   45.8200 C   0  0  0  0  0  0  0  0  0  0  0  0
   57.5430   33.8090   44.5000 C   0  0  0  0  0  0  0  0  0  0  0  0
   59.2710   34.7790   46.0490 C   0  0  0  0  0  0  0  0  0  0  0  0
   59.9620   34.7880   47.2630 C   0  0  0  0  0  0  0  0  0  0  0  0
   59.1767   28.6082   48.4657 H   0  0  0  0  0  0  0  0  0  0  0  0
   59.1434   30.3390   47.9864 H   0  0  0  0  0  0  0  0  0  0  0  0
   60.6967   29.4368   47.9864 H   0  0  0  0  0  0  0  0  0  0  0  0
   58.9934   30.0424   50.4602 H   0  0  0  0  0  0  0  0  0  0  0  0
   60.6048   29.2004   50.4149 H   0  0  0  0  0  0  0  0  0  0  0  0
   61.6790   31.0580   50.2130 H   0  0  0  0  0  0  0  0  0  0  0  0
   60.5620   31.8030   49.1790 H   0  0  0  0  0  0  0  0  0  0  0  0
   59.3274   31.5287   51.6765 H   0  0  0  0  0  0  0  0  0  0  0  0
   60.9936   32.1933   51.9194 H   0  0  0  0  0  0  0  0  0  0  0  0
   58.6071   33.4112   50.5707 H   0  0  0  0  0  0  0  0  0  0  0  0
   59.9326   34.1732   51.5376 H   0  0  0  0  0  0  0  0  0  0  0  0
   61.8984   35.2844   49.2620 H   0  0  0  0  0  0  0  0  0  0  0  0
   62.1996   34.0459   50.5320 H   0  0  0  0  0  0  0  0  0  0  0  0
   63.5191   34.9193   47.2545 H   0  0  0  0  0  0  0  0  0  0  0  0
   64.4203   32.7292   45.9468 H   0  0  0  0  0  0  0  0  0  0  0  0
   63.4129   30.6093   47.2321 H   0  0  0  0  0  0  0  0  0  0  0  0
   58.3941   32.1650   48.8029 H   0  0  0  0  0  0  0  0  0  0  0  0
   57.1761   32.1389   46.6279 H   0  0  0  0  0  0  0  0  0  0  0  0
   56.4572   33.7585   44.6688 H   0  0  0  0  0  0  0  0  0  0  0  0
   57.7837   34.7193   43.9313 H   0  0  0  0  0  0  0  0  0  0  0  0
   57.8671   32.9249   43.9313 H   0  0  0  0  0  0  0  0  0  0  0  0
   59.5267   35.5107   45.2685 H   0  0  0  0  0  0  0  0  0  0  0  0
   60.7543   35.5311   47.4364 H   0  0  0  0  0  0  0  0  0  0  0  0
  1  2  1  0
  2  3  1  0
  3  4  1  0
  4  5  1  0
  5  6  1  0
  6  7  1  0
  7  8  1  0
  8  9  2  0
  9 10  1  0
 10 11  2  0
 11 12  1  0
  6 13  1  0
 13 14  2  0
 14 15  1  0
 15 16  2  0
 16 17  1  0
 16 18  1  0
 18 19  2  0
 12  8  1  0
 19 13  1  0
  1 20  1  0
  1 21  1  0
  1 22  1  0
  2 23  1  0
  2 24  1  0
  3 25  1  0
  3 26  1  0
  4 27  1  0
  4 28  1  0
  5 29  1  0
  5 30  1  0
  7 31  1  0
  7 32  1  0
  9 33  1  0
 10 34  1  0
 11 35  1  0
 14 36  1  0
 15 37  1  0
 17 38  1  0
 17 39  1  0
 17 40  1  0
 18 41  1  0
 19 42  1  0
M  CHG  1   3   1
M  END
>  <UniqueID>  (15) 
14

>  <SMILES>  (15) 
CC[NH2+]CCN(Cc1ccco1)c1ccc(C)cc1

>  <Energy>  (15) 
63.39685642662361

>  <Genealogy>  (15) 
CC[NH2+]CCN(Cc1ccco1)c1ccc(C)cc1 (protonated)
CC[NH2+]CCN(Cc1ccco1)c1ccc(C)cc1 (3D coordinates assigned)
CC[NH2+]CCN(Cc1ccco1)c1ccc(C)cc1 (optimized conformer: 63.39685642662361 kcal/mol)

>  <smiles>  (15) 
CCNCCN(Cc1ccco1)c1ccc(C)cc1

>  <score_type>  (15) 
oracle

>  <origin>  (15) 
adg

>  <m_score__min__energy>  (15) 
-3.6899999999999999

>  <m_primary>  (15) 
energy

$$$$
15:0
     RDKit          3D

 58 61  0  0  0  0  0  0  0  0999 V2000
   65.0170   32.8710   49.9370 C   0  0  0  0  0  0  0  0  0  0  0  0
   63.5180   33.1310   50.0240 C   0  0  0  0  0  0  0  0  0  0  0  0
   62.8980   32.9510   48.6910 N   0  0  0  0  0  0  0  0  0  0  0  0
   62.9970   34.1780   47.8580 C   0  0  0  0  0  0  0  0  0  0  0  0
   63.3630   33.9220   46.3870 C   0  0  0  0  0  0  0  0  0  0  0  0
   63.3620   31.7100   48.0270 C   0  0  0  0  0  0  0  0  0  0  0  0
   62.1880   30.8640   47.4960 C   0  0  0  0  0  0  0  0  0  0  0  0
   60.8950   31.2760   48.0770 N   0  0  0  0  0  0  0  0  0  0  0  0
   59.8110   31.1840   47.1060 C   0  0  0  0  0  0  0  0  0  0  0  0
   59.2240   29.9320   46.7940 C   0  0  0  0  0  0  0  0  0  0  0  0
   58.4140   29.8160   45.6480 C   0  0  0  0  0  0  0  0  0  0  0  0
   57.8870   30.9420   45.0560 N   0  0  0  0  0  0  0  0  0  0  0  0
   56.6810   30.8340   44.2060 C   0  0  0  0  0  0  0  0  0  0  0  0
   58.4150   32.1830   45.3430 C   0  0  0  0  0  0  0  0  0  0  0  0
   58.0220   33.3330   44.6130 C   0  0  0  0  0  0  0  0  0  0  0  0
   58.5500   34.5870   44.9020 C   0  0  0  0  0  0  0  0  0  0  0  0
   59.4820   34.7310   45.9200 C   0  0  0  0  0  0  0  0  0  0  0  0
   59.9010   33.6210   46.6480 C   0  0  0  0  0  0  0  0  0  0  0  0
   59.3920   32.3280   46.3700 C   0  0  0  0  0  0  0  0  0  0  0  0
   58.1640   28.4330   45.1300 C   0  0  0  0  0  0  0  0  0  0  0  0
   58.1030   28.1750   43.7480 C   0  0  0  0  0  0  0  0  0  0  0  0
   57.9120   26.8710   43.2960 C   0  0  0  0  0  0  0  0  0  0  0  0
   57.8170   25.8280   44.2130 C   0  0  0  0  0  0  0  0  0  0  0  0
   57.9530   26.1000   45.5740 C   0  0  0  0  0  0  0  0  0  0  0  0
   58.1630   27.3800   46.0080 N   0  0  0  0  0  0  0  0  0  0  0  0
   58.3670   27.6410   47.4370 C   0  0  0  0  0  0  0  0  0  0  0  0
   59.4750   28.6840   47.6310 C   0  0  0  0  0  0  0  0  0  0  0  0
   65.4360   32.7983   50.9515 H   0  0  0  0  0  0  0  0  0  0  0  0
   65.1950   31.9286   49.3984 H   0  0  0  0  0  0  0  0  0  0  0  0
   65.5020   33.6984   49.3984 H   0  0  0  0  0  0  0  0  0  0  0  0
   63.0657   32.4242   50.7353 H   0  0  0  0  0  0  0  0  0  0  0  0
   63.3482   34.1624   50.3666 H   0  0  0  0  0  0  0  0  0  0  0  0
   62.0246   34.6915   47.8858 H   0  0  0  0  0  0  0  0  0  0  0  0
   63.8136   34.7799   48.2834 H   0  0  0  0  0  0  0  0  0  0  0  0
   64.2635   33.2922   46.3375 H   0  0  0  0  0  0  0  0  0  0  0  0
   62.5289   33.4094   45.8855 H   0  0  0  0  0  0  0  0  0  0  0  0
   63.5585   34.8813   45.8855 H   0  0  0  0  0  0  0  0  0  0  0  0
   64.0140   31.9812   47.1836 H   0  0  0  0  0  0  0  0  0  0  0  0
   63.9036   31.1088   48.7721 H   0  0  0  0  0  0  0  0  0  0  0  0
   62.1368   30.9761   46.4029 H   0  0  0  0  0  0  0  0  0  0  0  0
   62.3690   29.8178   47.7836 H   0  0  0  0  0  0  0  0  0  0  0  0
   60.7270   30.7080   48.9330 H   0  0  0  0  0  0  0  0  0  0  0  0
   60.9660   32.2540   48.4370 H   0  0  0  0  0  0  0  0  0  0  0  0
   55.7886   30.7541   44.8442 H   0  0  0  0  0  0  0  0  0  0  0  0
   56.5987   31.7284   43.5709 H   0  0  0  0  0  0  0  0  0  0  0  0
   56.7589   29.9392   43.5709 H   0  0  0  0  0  0  0  0  0  0  0  0
   57.2853   33.2317   43.8024 H   0  0  0  0  0  0  0  0  0  0  0  0
   58.2285   35.4653   44.3231 H   0  0  0  0  0  0  0  0  0  0  0  0
   59.8909   35.7254   46.1524 H   0  0  0  0  0  0  0  0  0  0  0  0
   60.6398   33.7497   47.4528 H   0  0  0  0  0  0  0  0  0  0  0  0
   58.2057   28.9997   43.0273 H   0  0  0  0  0  0  0  0  0  0  0  0
   57.8365   26.6663   42.2179 H   0  0  0  0  0  0  0  0  0  0  0  0
   57.6364   24.7994   43.8675 H   0  0  0  0  0  0  0  0  0  0  0  0
   57.8909   25.2793   46.3037 H   0  0  0  0  0  0  0  0  0  0  0  0
   57.4313   28.0189   47.8747 H   0  0  0  0  0  0  0  0  0  0  0  0
   58.6628   26.7056   47.9345 H   0  0  0  0  0  0  0  0  0  0  0  0
   59.5153   28.9686   48.6928 H   0  0  0  0  0  0  0  0  0  0  0  0
   60.4271   28.2385   47.3070 H   0  0  0  0  0  0  0  0  0  0  0  0
  1  2  1  0
  2  3  1  0
  3  4  1  0
  4  5  1  0
  3  6  1  0
  6  7  1  0
  7  8  1  0
  8  9  1  0
  9 10  2  0
 10 11  1  0
 11 12  2  0
 12 13  1  0
 12 14  1  0
 14 15  2  0
 15 16  1  0
 16 17  2  0
 17 18  1  0
 18 19  2  0
 11 20  1  0
 20 21  2  0
 21 22  1  0
 22 23  2  0
 23 24  1  0
 24 25  2  0
 25 26  1  0
 26 27  1  0
 19  9  1  0
 25 20  1  0
 27 10  1  0
 19 14  1  0
  1 28  1  0
  1 29  1  0
  1 30  1  0
  2 31  1  0
  2 32  1  0
  4 33  1  0
  4 34  1  0
  5 35  1  0
  5 36  1  0
  5 37  1  0
  6 38  1  0
  6 39  1  0
  7 40  1  0
  7 41  1  0
  8 42  1  0
  8 43  1  0
 13 44  1  0
 13 45  1  0
 13 46  1  0
 15 47  1  0
 16 48  1  0
 17 49  1  0
 18 50  1  0
 21 51  1  0
 22 52  1  0
 23 53  1  0
 24 54  1  0
 26 55  1  0
 26 56  1  0
 27 57  1  0
 27 58  1  0
M  CHG  3   8   1  12   1  25   1
M  END
>  <UniqueID>  (16) 
15

>  <SMILES>  (16) 
CCN(CC)CC[NH2+]c1c2c([n+](C)c3ccccc13)-c1cccc[n+]1CC2

>  <Energy>  (16) 
94.95084434668932

>  <Genealogy>  (16) 
CCN(CC)CC[NH2+]c1c2c([n+](C)c3ccccc13)-c1cccc[n+]1CC2 (protonated)
CCN(CC)CC[NH2+]c1c2c([n+](C)c3ccccc13)-c1cccc[n+]1CC2 (3D coordinates assigned)
CCN(CC)CC[NH2+]c1c2c([n+](C)c3ccccc13)-c1cccc[n+]1CC2 (nonaromatic ring conformer: 94.95084434668932 kcal/mol)

>  <smiles>  (16) 
CCN(CC)CCNc1c2c([n+](C)c3ccccc13)-c1cccc[n+]1CC2

>  <score_type>  (16) 
oracle

>  <origin>  (16) 
adg

>  <m_score__min__energy>  (16) 
-3.2999999999999998

>  <m_primary>  (16) 
energy

$$$$
16:0
     RDKit          3D

 36 38  0  0  0  0  0  0  0  0999 V2000
   57.8651   31.5605   42.6996 H   0  0  0  0  0  0  0  0  0  0  0  0
   57.7310   31.5300   43.7910 C   0  0  0  0  0  0  0  0  0  0  0  0
   57.4530   30.3520   44.3670 C   0  0  0  0  0  0  0  0  0  0  0  0
   58.5290   29.5520   44.7770 O   0  0  0  0  0  0  0  0  0  0  0  0
   58.3520   28.3110   45.4040 C   0  0  0  0  0  0  0  0  0  0  0  0
   59.4680   27.5640   45.7960 C   0  0  0  0  0  0  0  0  0  0  0  0
   60.4809   27.9506   45.6102 H   0  0  0  0  0  0  0  0  0  0  0  0
   59.2970   26.3260   46.4240 C   0  0  0  0  0  0  0  0  0  0  0  0
   60.1757   25.7400   46.7312 H   0  0  0  0  0  0  0  0  0  0  0  0
   58.0100   25.8320   46.6620 C   0  0  0  0  0  0  0  0  0  0  0  0
   57.8785   24.8585   47.1570 H   0  0  0  0  0  0  0  0  0  0  0  0
   56.8910   26.5730   46.2720 C   0  0  0  0  0  0  0  0  0  0  0  0
   55.8798   26.1825   46.4590 H   0  0  0  0  0  0  0  0  0  0  0  0
   57.0580   27.8130   45.6430 C   0  0  0  0  0  0  0  0  0  0  0  0
   55.9170   28.5740   45.2380 N   0  0  0  0  0  0  0  0  0  0  0  0
   56.0770   29.8370   44.5930 C   0  0  0  0  0  0  0  0  0  0  0  0
   55.0560   30.4730   44.2230 O   0  0  0  0  0  0  0  0  0  0  0  0
   57.8620   32.7520   44.5290 N   0  0  0  0  0  0  0  0  0  0  0  0
   57.0150   32.9940   45.7010 C   0  0  0  0  0  0  0  0  0  0  0  0
   56.4936   32.0616   45.9634 H   0  0  0  0  0  0  0  0  0  0  0  0
   56.2967   33.7879   45.4486 H   0  0  0  0  0  0  0  0  0  0  0  0
   57.8470   33.4630   46.9170 C   0  0  0  0  0  0  0  0  0  0  0  0
   58.0187   32.5976   47.5739 H   0  0  0  0  0  0  0  0  0  0  0  0
   57.2708   34.2595   47.4105 H   0  0  0  0  0  0  0  0  0  0  0  0
   59.1660   34.0450   46.5550 N   0  0  0  0  0  0  0  0  0  0  0  0
   59.8660   33.2670   46.4960 H   0  0  0  0  0  0  0  0  0  0  0  0
   59.6280   34.9660   47.6080 C   0  0  0  0  0  0  0  0  0  0  0  0
   59.4106   34.5327   48.5954 H   0  0  0  0  0  0  0  0  0  0  0  0
   60.7120   35.1238   47.5074 H   0  0  0  0  0  0  0  0  0  0  0  0
   59.1064   35.9292   47.5074 H   0  0  0  0  0  0  0  0  0  0  0  0
   59.1270   34.7380   45.2510 C   0  0  0  0  0  0  0  0  0  0  0  0
   60.0858   35.2494   45.0799 H   0  0  0  0  0  0  0  0  0  0  0  0
   58.3105   35.4751   45.2546 H   0  0  0  0  0  0  0  0  0  0  0  0
   58.8860   33.7190   44.1310 C   0  0  0  0  0  0  0  0  0  0  0  0
   59.8244   33.1857   43.9188 H   0  0  0  0  0  0  0  0  0  0  0  0
   58.5414   34.2525   43.2329 H   0  0  0  0  0  0  0  0  0  0  0  0
  1  2  1  0
  2  3  2  0
  3  4  1  0
  4  5  1  0
  5  6  2  0
  6  7  1  0
  6  8  1  0
  8  9  1  0
  8 10  2  0
 10 11  1  0
 10 12  1  0
 12 13  1  0
 12 14  2  0
 14 15  1  0
 15 16  1  0
 16 17  2  0
  2 18  1  0
 18 19  1  0
 19 20  1  0
 19 21  1  0
 19 22  1  0
 22 23  1  0
 22 24  1  0
 22 25  1  0
 25 26  1  0
 25 27  1  0
 27 28  1  0
 27 29  1  0
 27 30  1  0
 25 31  1  0
 31 32  1  0
 31 33  1  0
 31 34  1  0
 34 35  1  0
 34 36  1  0
 16  3  1  0
 34 18  1  0
 14  5  1  0
M  CHG  2  15  -1  25   1
M  END
>  <UniqueID>  (17) 
16

>  <SMILES>  (17) 
C[NH+]1CCN(/C=C2/Oc3ccccc3[N-]C2=O)CC1

>  <Energy>  (17) 
50.446381036779

>  <Genealogy>  (17) 
C[NH+]1CCN(C=C2Oc3ccccc3[N-]C2=O)CC1 (protonated)
C[NH+]1CCN(/C=C2/Oc3ccccc3[N-]C2=O)CC1 (cis-trans isomerization)
C[NH+]1CCN(/C=C2/Oc3ccccc3[N-]C2=O)CC1 (3D coordinates assigned)
C[NH+]1CCN(/C=C2/Oc3ccccc3[N-]C2=O)CC1 (nonaromatic ring conformer: 50.446381036779 kcal/mol)

>  <smiles>  (17) 
CN1CCN(C=C2Oc3ccccc3NC2=O)CC1

>  <score_type>  (17) 
oracle

>  <origin>  (17) 
adg

>  <m_score__min__energy>  (17) 
-7.2199999999999998

>  <m_primary>  (17) 
energy

$$$$
17:0
     RDKit          3D

 76 80  0  0  0  0  0  0  0  0999 V2000
   56.3350   31.6300   52.0330 C   0  0  0  0  0  0  0  0  0  0  0  0
   57.2550   30.4970   52.4110 C   0  0  0  0  0  0  0  0  0  0  0  0
   56.8390   29.5760   53.3870 C   0  0  0  0  0  0  0  0  0  0  0  0
   57.6700   28.5230   53.7710 C   0  0  0  0  0  0  0  0  0  0  0  0
   58.9240   28.3720   53.1870 C   0  0  0  0  0  0  0  0  0  0  0  0
   59.3590   29.2820   52.2230 C   0  0  0  0  0  0  0  0  0  0  0  0
   58.5460   30.3650   51.8380 C   0  0  0  0  0  0  0  0  0  0  0  0
   59.0800   31.3530   50.8220 C   0  0  0  0  0  0  0  0  0  0  0  0
   60.5040   31.1350   50.5170 N   0  0  0  0  0  0  0  0  0  0  0  0
   61.0410   30.5570   49.3960 C   0  0  0  0  0  0  0  0  0  0  0  0
   60.2610   29.9580   48.3060 C   0  0  0  0  0  0  0  0  0  0  0  0
   60.6170   30.2010   46.9740 C   0  0  0  0  0  0  0  0  0  0  0  0
   59.8950   29.6070   45.9340 C   0  0  0  0  0  0  0  0  0  0  0  0
   58.7810   28.7930   46.2200 C   0  0  0  0  0  0  0  0  0  0  0  0
   57.9820   28.2090   45.2230 O   0  0  0  0  0  0  0  0  0  0  0  0
   57.8220   28.6840   43.8850 C   0  0  0  0  0  0  0  0  0  0  0  0
   56.6810   29.7050   43.7830 C   0  0  0  0  0  0  0  0  0  0  0  0
   56.6500   30.5930   44.9520 N   0  0  0  0  0  0  0  0  0  0  0  0
   57.7520   31.5710   44.9110 C   0  0  0  0  0  0  0  0  0  0  0  0
   57.2600   32.9730   44.5080 C   0  0  0  0  0  0  0  0  0  0  0  0
   57.7590   34.0930   45.4470 C   0  0  0  0  0  0  0  0  0  0  0  0
   59.2350   34.4590   45.2380 C   0  0  0  0  0  0  0  0  0  0  0  0
   60.0430   34.2990   46.5000 C   0  0  0  0  0  0  0  0  0  0  0  0
   59.4350   34.4740   47.7520 C   0  0  0  0  0  0  0  0  0  0  0  0
   60.1870   34.2930   48.9170 C   0  0  0  0  0  0  0  0  0  0  0  0
   61.4990   33.9460   48.8330 N   0  0  0  0  0  0  0  0  0  0  0  0
   62.1120   33.7650   47.6330 C   0  0  0  0  0  0  0  0  0  0  0  0
   61.3970   33.9380   46.4450 C   0  0  0  0  0  0  0  0  0  0  0  0
   58.4420   28.5470   47.5570 C   0  0  0  0  0  0  0  0  0  0  0  0
   59.1730   29.1280   48.5950 C   0  0  0  0  0  0  0  0  0  0  0  0
   62.4140   30.8010   49.2940 C   0  0  0  0  0  0  0  0  0  0  0  0
   62.6960   31.5280   50.4220 C   0  0  0  0  0  0  0  0  0  0  0  0
   61.5660   31.7170   51.1200 C   0  0  0  0  0  0  0  0  0  0  0  0
   61.6400   32.8830   51.8020 N   0  0  0  0  0  0  0  0  0  0  0  0
   60.5890   33.6140   52.5060 C   0  0  0  0  0  0  0  0  0  0  0  0
   62.8700   33.3610   51.4610 C   0  0  0  0  0  0  0  0  0  0  0  0
   63.3000   34.4910   51.8270 O   0  0  0  0  0  0  0  0  0  0  0  0
   63.5530   32.5450   50.6150 N   0  0  0  0  0  0  0  0  0  0  0  0
   64.7030   32.8940   49.7860 C   0  0  0  0  0  0  0  0  0  0  0  0
   55.9473   32.1074   52.9450 H   0  0  0  0  0  0  0  0  0  0  0  0
   56.8904   32.3708   51.4391 H   0  0  0  0  0  0  0  0  0  0  0  0
   55.4960   31.2385   51.4391 H   0  0  0  0  0  0  0  0  0  0  0  0
   55.8486   29.6861   53.8529 H   0  0  0  0  0  0  0  0  0  0  0  0
   57.3328   27.8100   54.5378 H   0  0  0  0  0  0  0  0  0  0  0  0
   59.5724   27.5350   53.4854 H   0  0  0  0  0  0  0  0  0  0  0  0
   60.3477   29.1519   51.7588 H   0  0  0  0  0  0  0  0  0  0  0  0
   58.5006   31.2509   49.8925 H   0  0  0  0  0  0  0  0  0  0  0  0
   58.9810   32.3606   51.2520 H   0  0  0  0  0  0  0  0  0  0  0  0
   61.4668   30.8608   46.7449 H   0  0  0  0  0  0  0  0  0  0  0  0
   60.1976   29.7757   44.8900 H   0  0  0  0  0  0  0  0  0  0  0  0
   58.7586   29.1612   43.5608 H   0  0  0  0  0  0  0  0  0  0  0  0
   57.5761   27.8264   43.2416 H   0  0  0  0  0  0  0  0  0  0  0  0
   56.8236   30.3116   42.8765 H   0  0  0  0  0  0  0  0  0  0  0  0
   55.7286   29.1563   43.7399 H   0  0  0  0  0  0  0  0  0  0  0  0
   56.8000   29.9980   45.8010 H   0  0  0  0  0  0  0  0  0  0  0  0
   58.2135   31.6289   45.9078 H   0  0  0  0  0  0  0  0  0  0  0  0
   58.4787   31.2347   44.1568 H   0  0  0  0  0  0  0  0  0  0  0  0
   57.6160   33.1878   43.4896 H   0  0  0  0  0  0  0  0  0  0  0  0
   56.1619   32.9619   44.5717 H   0  0  0  0  0  0  0  0  0  0  0  0
   57.1497   34.9917   45.2706 H   0  0  0  0  0  0  0  0  0  0  0  0
   57.6628   33.7172   46.4763 H   0  0  0  0  0  0  0  0  0  0  0  0
   59.6564   33.8036   44.4615 H   0  0  0  0  0  0  0  0  0  0  0  0
   59.2825   35.5160   44.9371 H   0  0  0  0  0  0  0  0  0  0  0  0
   58.3727   34.7520   47.8170 H   0  0  0  0  0  0  0  0  0  0  0  0
   59.7169   34.4314   49.9018 H   0  0  0  0  0  0  0  0  0  0  0  0
   63.1742   33.4815   47.5972 H   0  0  0  0  0  0  0  0  0  0  0  0
   61.8925   33.7921   45.4738 H   0  0  0  0  0  0  0  0  0  0  0  0
   57.5916   27.8897   47.7912 H   0  0  0  0  0  0  0  0  0  0  0  0
   58.8931   28.9328   49.6407 H   0  0  0  0  0  0  0  0  0  0  0  0
   63.1041   30.4848   48.4979 H   0  0  0  0  0  0  0  0  0  0  0  0
   60.7355   33.5121   53.5914 H   0  0  0  0  0  0  0  0  0  0  0  0
   60.6329   34.6775   52.2283 H   0  0  0  0  0  0  0  0  0  0  0  0
   59.6073   33.2028   52.2283 H   0  0  0  0  0  0  0  0  0  0  0  0
   65.5553   33.1527   50.4315 H   0  0  0  0  0  0  0  0  0  0  0  0
   64.9709   32.0367   49.1510 H   0  0  0  0  0  0  0  0  0  0  0  0
   64.4492   33.7556   49.1510 H   0  0  0  0  0  0  0  0  0  0  0  0
  1  2  1  0
  2  3  2  0
  3  4  1  0
  4  5  2  0
  5  6  1  0
  6  7  2  0
  7  8  1  0
  8  9  1  0
  9 10  1  0
 10 11  1  0
 11 12  2  0
 12 13  1  0
 13 14  2  0
 14 15  1  0
 15 16  1  0
 16 17  1  0
 17 18  1  0
 18 19  1  0
 19 20  1  0
 20 21  1  0
 21 22  1  0
 22 23  1  0
 23 24  2  0
 24 25  1  0
 25 26  2  0
 26 27  1  0
 27 28  2  0
 14 29  1  0
 29 30  2  0
 10 31  2  0
 31 32  1  0
 32 33  2  0
 33 34  1  0
 34 35  1  0
 34 36  1  0
 36 37  2  0
 36 38  1  0
 38 39  1  0
  7  2  1  0
 33  9  1  0
 30 11  1  0
 38 32  1  0
 28 23  1  0
  1 40  1  0
  1 41  1  0
  1 42  1  0
  3 43  1  0
  4 44  1  0
  5 45  1  0
  6 46  1  0
  8 47  1  0
  8 48  1  0
 12 49  1  0
 13 50  1  0
 16 51  1  0
 16 52  1  0
 17 53  1  0
 17 54  1  0
 18 55  1  0
 19 56  1  0
 19 57  1  0
 20 58  1  0
 20 59  1  0
 21 60  1  0
 21 61  1  0
 22 62  1  0
 22 63  1  0
 24 64  1  0
 25 65  1  0
 27 66  1  0
 28 67  1  0
 29 68  1  0
 30 69  1  0
 31 70  1  0
 35 71  1  0
 35 72  1  0
 35 73  1  0
 39 74  1  0
 39 75  1  0
 39 76  1  0
M  END
>  <UniqueID>  (18) 
17

>  <SMILES>  (18) 
Cc1ccccc1Cn1c(-c2ccc(OCCNCCCCc3ccncc3)cc2)cc2c1n(C)c(=O)n2C

>  <Energy>  (18) 
169.4492653388881

>  <Genealogy>  (18) 
Cc1ccccc1Cn1c(-c2ccc(OCCNCCCCc3ccncc3)cc2)cc2c1n(C)c(=O)n2C (3D coordinates assigned)
Cc1ccccc1Cn1c(-c2ccc(OCCNCCCCc3ccncc3)cc2)cc2c1n(C)c(=O)n2C (optimized conformer: 169.4492653388881 kcal/mol)

>  <smiles>  (18) 
Cc1ccccc1Cn1c(-c2ccc(OCCNCCCCc3ccncc3)cc2)cc2c1n(C)c(=O)n2C

>  <score_type>  (18) 
oracle

>  <origin>  (18) 
adg

>  <m_score__min__energy>  (18) 
-8.7100000000000009

>  <m_primary>  (18) 
energy

$$$$
18:0
     RDKit          3D

 39 40  0  0  0  0  0  0  0  0999 V2000
   55.9150   30.0700   43.8410 C   0  0  0  0  0  0  0  0  0  0  0  0
   56.5970   30.8420   44.8040 O   0  0  0  0  0  0  0  0  0  0  0  0
   57.8530   31.2630   44.3030 C   0  0  0  0  0  0  0  0  0  0  0  0
   58.4790   32.3250   45.2140 C   0  0  0  0  0  0  0  0  0  0  0  0
   58.1790   33.6920   44.7320 N   0  0  0  0  0  0  0  0  0  0  0  0
   56.8920   34.1900   45.2490 C   0  0  0  0  0  0  0  0  0  0  0  0
   59.2850   34.6390   45.0010 C   0  0  0  0  0  0  0  0  0  0  0  0
   60.0690   34.3070   46.2440 C   0  0  0  0  0  0  0  0  0  0  0  0
   61.4100   33.9260   46.2820 C   0  0  0  0  0  0  0  0  0  0  0  0
   61.8550   33.6680   47.5860 C   0  0  0  0  0  0  0  0  0  0  0  0
   63.1310   33.2780   47.9780 C   0  0  0  0  0  0  0  0  0  0  0  0
   64.0250   33.0920   47.1060 O   0  0  0  0  0  0  0  0  0  0  0  0
   63.3990   33.1050   49.3150 N   0  0  0  0  0  0  0  0  0  0  0  0
   64.7420   32.6770   49.7440 C   0  0  0  0  0  0  0  0  0  0  0  0
   62.3970   33.2630   50.2530 C   0  0  0  0  0  0  0  0  0  0  0  0
   62.6520   33.0740   51.4770 O   0  0  0  0  0  0  0  0  0  0  0  0
   61.1240   33.6220   49.8710 N   0  0  0  0  0  0  0  0  0  0  0  0
   60.0580   33.8370   50.8610 C   0  0  0  0  0  0  0  0  0  0  0  0
   60.8850   33.8410   48.5480 C   0  0  0  0  0  0  0  0  0  0  0  0
   59.4450   34.3230   47.8170 S   0  0  0  0  0  0  0  0  0  0  0  0
   55.2688   29.3385   44.3482 H   0  0  0  0  0  0  0  0  0  0  0  0
   55.2990   30.7293   43.2118 H   0  0  0  0  0  0  0  0  0  0  0  0
   56.6452   29.5400   43.2118 H   0  0  0  0  0  0  0  0  0  0  0  0
   58.5268   30.3954   44.2459 H   0  0  0  0  0  0  0  0  0  0  0  0
   57.7037   31.7008   43.3050 H   0  0  0  0  0  0  0  0  0  0  0  0
   58.0763   32.2072   46.2308 H   0  0  0  0  0  0  0  0  0  0  0  0
   59.5703   32.1869   45.2090 H   0  0  0  0  0  0  0  0  0  0  0  0
   56.9111   34.1826   46.3488 H   0  0  0  0  0  0  0  0  0  0  0  0
   56.7262   35.2172   44.8921 H   0  0  0  0  0  0  0  0  0  0  0  0
   56.0780   33.5419   44.8921 H   0  0  0  0  0  0  0  0  0  0  0  0
   59.9718   34.6259   44.1419 H   0  0  0  0  0  0  0  0  0  0  0  0
   58.8331   35.6296   45.1574 H   0  0  0  0  0  0  0  0  0  0  0  0
   62.0467   33.8379   45.3894 H   0  0  0  0  0  0  0  0  0  0  0  0
   64.7885   32.6622   50.8429 H   0  0  0  0  0  0  0  0  0  0  0  0
   64.9474   31.6689   49.3547 H   0  0  0  0  0  0  0  0  0  0  0  0
   65.4928   33.3804   49.3547 H   0  0  0  0  0  0  0  0  0  0  0  0
   60.4766   33.7526   51.8747 H   0  0  0  0  0  0  0  0  0  0  0  0
   59.6276   34.8400   50.7244 H   0  0  0  0  0  0  0  0  0  0  0  0
   59.2725   33.0792   50.7244 H   0  0  0  0  0  0  0  0  0  0  0  0
  1  2  1  0
  2  3  1  0
  3  4  1  0
  4  5  1  0
  5  6  1  0
  5  7  1  0
  7  8  1  0
  8  9  2  0
  9 10  1  0
 10 11  1  0
 11 12  2  0
 11 13  1  0
 13 14  1  0
 13 15  1  0
 15 16  2  0
 15 17  1  0
 17 18  1  0
 17 19  1  0
 19 20  1  0
 20  8  1  0
 19 10  2  0
  1 21  1  0
  1 22  1  0
  1 23  1  0
  3 24  1  0
  3 25  1  0
  4 26  1  0
  4 27  1  0
  6 28  1  0
  6 29  1  0
  6 30  1  0
  7 31  1  0
  7 32  1  0
  9 33  1  0
 14 34  1  0
 14 35  1  0
 14 36  1  0
 18 37  1  0
 18 38  1  0
 18 39  1  0
M  END
>  <UniqueID>  (19) 
18

>  <SMILES>  (19) 
COCCN(C)Cc1cc2c(=O)n(C)c(=O)n(C)c2s1

>  <Energy>  (19) 
80.21107368478931

>  <Genealogy>  (19) 
COCCN(C)Cc1cc2c(=O)n(C)c(=O)n(C)c2s1 (3D coordinates assigned)
COCCN(C)Cc1cc2c(=O)n(C)c(=O)n(C)c2s1 (optimized conformer: 80.21107368478931 kcal/mol)

>  <smiles>  (19) 
COCCN(C)Cc1cc2c(=O)n(C)c(=O)n(C)c2s1

>  <score_type>  (19) 
oracle

>  <origin>  (19) 
adg

>  <m_score__min__energy>  (19) 
-6.3899999999999997

>  <m_primary>  (19) 
energy

$$$$
19:0
     RDKit          3D

 52 54  0  0  0  0  0  0  0  0999 V2000
   61.7900   33.8440   46.7340 C   0  0  0  0  0  0  0  0  0  0  0  0
   63.2800   33.5580   46.5400 C   0  0  0  0  0  0  0  0  0  0  0  0
   63.7920   32.5660   47.5050 N   0  0  0  0  0  0  0  0  0  0  0  0
   64.1210   33.1750   48.8080 C   0  0  0  0  0  0  0  0  0  0  0  0
   64.2540   32.1170   49.9180 C   0  0  0  0  0  0  0  0  0  0  0  0
   63.0120   31.2270   50.0330 C   0  0  0  0  0  0  0  0  0  0  0  0
   61.8590   31.9110   49.4410 N   0  0  0  0  0  0  0  0  0  0  0  0
   60.5790   31.4450   50.0000 C   0  0  0  0  0  0  0  0  0  0  0  0
   59.5260   31.1020   48.9230 C   0  0  0  0  0  0  0  0  0  0  0  0
   60.0280   31.2170   47.5480 N   0  0  0  0  0  0  0  0  0  0  0  0
   59.2410   31.1000   46.3420 C   0  0  0  0  0  0  0  0  0  0  0  0
   59.0120   29.8330   45.7290 C   0  0  0  0  0  0  0  0  0  0  0  0
   59.5340   28.6420   46.2830 C   0  0  0  0  0  0  0  0  0  0  0  0
   59.3020   27.4090   45.6780 C   0  0  0  0  0  0  0  0  0  0  0  0
   58.5480   27.3290   44.5130 C   0  0  0  0  0  0  0  0  0  0  0  0
   58.0300   28.4830   43.9310 C   0  0  0  0  0  0  0  0  0  0  0  0
   58.2450   29.7540   44.5140 C   0  0  0  0  0  0  0  0  0  0  0  0
   57.7250   30.9020   43.9410 N   0  0  0  0  0  0  0  0  0  0  0  0
   56.9480   30.8680   42.6910 C   0  0  0  0  0  0  0  0  0  0  0  0
   57.9190   32.0910   44.5770 C   0  0  0  0  0  0  0  0  0  0  0  0
   57.4400   33.2530   44.2030 O   0  0  0  0  0  0  0  0  0  0  0  0
   57.8110   34.1460   45.0940 C   0  0  0  0  0  0  0  0  0  0  0  0
   58.5630   33.5440   46.0910 C   0  0  0  0  0  0  0  0  0  0  0  0
   58.6390   32.2090   45.7350 C   0  0  0  0  0  0  0  0  0  0  0  0
   61.5620   33.8878   47.8092 H   0  0  0  0  0  0  0  0  0  0  0  0
   61.5375   34.8070   46.2661 H   0  0  0  0  0  0  0  0  0  0  0  0
   61.1989   33.0429   46.2661 H   0  0  0  0  0  0  0  0  0  0  0  0
   63.4363   33.1734   45.5213 H   0  0  0  0  0  0  0  0  0  0  0  0
   63.8264   34.4985   46.7036 H   0  0  0  0  0  0  0  0  0  0  0  0
   63.0450   31.8460   47.6430 H   0  0  0  0  0  0  0  0  0  0  0  0
   64.6330   32.0910   47.1040 H   0  0  0  0  0  0  0  0  0  0  0  0
   65.0740   33.7169   48.7170 H   0  0  0  0  0  0  0  0  0  0  0  0
   63.3024   33.8565   49.0825 H   0  0  0  0  0  0  0  0  0  0  0  0
   65.1241   31.4814   49.6969 H   0  0  0  0  0  0  0  0  0  0  0  0
   64.3735   32.6487   50.8735 H   0  0  0  0  0  0  0  0  0  0  0  0
   63.1892   30.2810   49.5004 H   0  0  0  0  0  0  0  0  0  0  0  0
   62.8083   31.0204   51.0940 H   0  0  0  0  0  0  0  0  0  0  0  0
   61.9560   32.9440   49.5820 H   0  0  0  0  0  0  0  0  0  0  0  0
   60.7689   30.5436   50.6011 H   0  0  0  0  0  0  0  0  0  0  0  0
   60.1695   32.2690   50.6028 H   0  0  0  0  0  0  0  0  0  0  0  0
   59.1890   30.0674   49.0841 H   0  0  0  0  0  0  0  0  0  0  0  0
   58.7092   31.8312   49.0287 H   0  0  0  0  0  0  0  0  0  0  0  0
   61.0480   31.4240   47.4540 H   0  0  0  0  0  0  0  0  0  0  0  0
   60.1320   28.6895   47.2051 H   0  0  0  0  0  0  0  0  0  0  0  0
   59.7177   26.4937   46.1245 H   0  0  0  0  0  0  0  0  0  0  0  0
   58.3597   26.3497   44.0488 H   0  0  0  0  0  0  0  0  0  0  0  0
   57.4443   28.4052   43.0032 H   0  0  0  0  0  0  0  0  0  0  0  0
   55.8748   30.8210   42.9276 H   0  0  0  0  0  0  0  0  0  0  0  0
   57.1551   31.7761   42.1057 H   0  0  0  0  0  0  0  0  0  0  0  0
   57.2336   29.9815   42.1057 H   0  0  0  0  0  0  0  0  0  0  0  0
   57.5608   35.2164   45.0541 H   0  0  0  0  0  0  0  0  0  0  0  0
   59.0049   34.0249   46.9761 H   0  0  0  0  0  0  0  0  0  0  0  0
  1  2  1  0
  2  3  1  0
  3  4  1  0
  4  5  1  0
  5  6  1  0
  6  7  1  0
  7  8  1  0
  8  9  1  0
  9 10  1  0
 10 11  1  0
 11 12  2  0
 12 13  1  0
 13 14  2  0
 14 15  1  0
 15 16  2  0
 16 17  1  0
 17 18  2  0
 18 19  1  0
 18 20  1  0
 20 21  1  0
 21 22  1  0
 22 23  2  0
 23 24  1  0
 24 11  1  0
 17 12  1  0
 24 20  2  0
  1 25  1  0
  1 26  1  0
  1 27  1  0
  2 28  1  0
  2 29  1  0
  3 30  1  0
  3 31  1  0
  4 32  1  0
  4 33  1  0
  5 34  1  0
  5 35  1  0
  6 36  1  0
  6 37  1  0
  7 38  1  0
  8 39  1  0
  8 40  1  0
  9 41  1  0
  9 42  1  0
 10 43  1  0
 13 44  1  0
 14 45  1  0
 15 46  1  0
 16 47  1  0
 19 48  1  0
 19 49  1  0
 19 50  1  0
 22 51  1  0
 23 52  1  0
M  CHG  2   3   1  18   1
M  END
>  <UniqueID>  (20) 
19

>  <SMILES>  (20) 
CC[NH2+]CCCNCCNc1c2ccccc2[n+](C)c2occc12

>  <Energy>  (20) 
92.80674452029079

>  <Genealogy>  (20) 
CC[NH2+]CCCNCCNc1c2ccccc2[n+](C)c2occc12 (protonated)
CC[NH2+]CCCNCCNc1c2ccccc2[n+](C)c2occc12 (3D coordinates assigned)
CC[NH2+]CCCNCCNc1c2ccccc2[n+](C)c2occc12 (optimized conformer: 92.80674452029079 kcal/mol)

>  <smiles>  (20) 
CCNCCCNCCNc1c2ccccc2[n+](C)c2occc12

>  <score_type>  (20) 
oracle

>  <origin>  (20) 
adg

>  <m_score__min__energy>  (20) 
-4.0499999999999998

>  <m_primary>  (20) 
energy

$$$$
20:0
     RDKit          3D

 66 68  0  0  0  0  0  0  0  0999 V2000
   63.3920   33.9450   46.2050 C   0  0  0  0  0  0  0  0  0  0  0  0
   63.7330   32.8680   47.2310 C   0  0  0  0  0  0  0  0  0  0  0  0
   62.5830   32.6240   48.1340 N   0  0  0  0  0  0  0  0  0  0  0  0
   62.2310   31.1930   48.1530 C   0  0  0  0  0  0  0  0  0  0  0  0
   62.8630   33.0980   49.5070 C   0  0  0  0  0  0  0  0  0  0  0  0
   61.6670   33.8820   50.0840 C   0  0  0  0  0  0  0  0  0  0  0  0
   60.4100   33.6340   49.3540 N   0  0  0  0  0  0  0  0  0  0  0  0
   60.1010   34.7040   48.3960 C   0  0  0  0  0  0  0  0  0  0  0  0
   59.5540   34.1110   47.1270 C   0  0  0  0  0  0  0  0  0  0  0  0
   59.3940   34.9040   45.9820 C   0  0  0  0  0  0  0  0  0  0  0  0
   58.8600   34.3530   44.8150 C   0  0  0  0  0  0  0  0  0  0  0  0
   58.4670   33.0120   44.7860 C   0  0  0  0  0  0  0  0  0  0  0  0
   58.6020   32.2060   45.9300 C   0  0  0  0  0  0  0  0  0  0  0  0
   58.1780   30.7830   45.9080 C   0  0  0  0  0  0  0  0  0  0  0  0
   57.1850   30.3460   45.0120 C   0  0  0  0  0  0  0  0  0  0  0  0
   56.7730   29.0100   45.0070 C   0  0  0  0  0  0  0  0  0  0  0  0
   57.3480   28.0910   45.8940 C   0  0  0  0  0  0  0  0  0  0  0  0
   56.8170   26.4120   45.9280 S   0  0  0  0  0  0  0  0  0  0  0  0
   57.3000   25.6820   44.7060 O   0  0  0  0  0  0  0  0  0  0  0  0
   57.3900   25.7420   47.1440 O   0  0  0  0  0  0  0  0  0  0  0  0
   55.0840   26.3490   46.0050 N   0  0  0  0  0  0  0  0  0  0  0  0
   54.6120   25.0400   45.5610 C   0  0  0  0  0  0  0  0  0  0  0  0
   55.4270   23.9070   46.2190 C   0  0  0  0  0  0  0  0  0  0  0  0
   55.7350   22.7410   45.3520 N   0  0  0  0  0  0  0  0  0  0  0  0
   57.0910   22.2010   45.5140 C   0  0  0  0  0  0  0  0  0  0  0  0
   57.8760   22.4890   44.2370 C   0  0  0  0  0  0  0  0  0  0  0  0
   56.8960   23.1370   43.2760 C   0  0  0  0  0  0  0  0  0  0  0  0
   55.5290   22.9720   43.9180 C   0  0  0  0  0  0  0  0  0  0  0  0
   58.3380   28.5180   46.7850 C   0  0  0  0  0  0  0  0  0  0  0  0
   58.7520   29.8520   46.7930 C   0  0  0  0  0  0  0  0  0  0  0  0
   59.1450   32.7680   47.1000 C   0  0  0  0  0  0  0  0  0  0  0  0
   63.0996   34.8685   46.7262 H   0  0  0  0  0  0  0  0  0  0  0  0
   64.2715   34.1425   45.5746 H   0  0  0  0  0  0  0  0  0  0  0  0
   62.5590   33.6003   45.5746 H   0  0  0  0  0  0  0  0  0  0  0  0
   63.9842   31.9349   46.7055 H   0  0  0  0  0  0  0  0  0  0  0  0
   64.5891   33.2091   47.8317 H   0  0  0  0  0  0  0  0  0  0  0  0
   62.1466   30.8500   49.1947 H   0  0  0  0  0  0  0  0  0  0  0  0
   61.2697   31.0450   47.6392 H   0  0  0  0  0  0  0  0  0  0  0  0
   63.0140   30.6160   47.6392 H   0  0  0  0  0  0  0  0  0  0  0  0
   63.0667   32.2299   50.1512 H   0  0  0  0  0  0  0  0  0  0  0  0
   63.7337   33.7693   49.4717 H   0  0  0  0  0  0  0  0  0  0  0  0
   61.5271   33.5854   51.1340 H   0  0  0  0  0  0  0  0  0  0  0  0
   61.8980   34.9531   49.9874 H   0  0  0  0  0  0  0  0  0  0  0  0
   60.4590   32.7180   48.8470 H   0  0  0  0  0  0  0  0  0  0  0  0
   59.3533   35.3814   48.8342 H   0  0  0  0  0  0  0  0  0  0  0  0
   61.0204   35.2633   48.1681 H   0  0  0  0  0  0  0  0  0  0  0  0
   59.6899   35.9632   46.0028 H   0  0  0  0  0  0  0  0  0  0  0  0
   58.7483   34.9765   43.9157 H   0  0  0  0  0  0  0  0  0  0  0  0
   58.0495   32.5846   43.8624 H   0  0  0  0  0  0  0  0  0  0  0  0
   56.7297   31.0606   44.3105 H   0  0  0  0  0  0  0  0  0  0  0  0
   55.9944   28.6793   44.3039 H   0  0  0  0  0  0  0  0  0  0  0  0
   53.5527   24.9274   45.8352 H   0  0  0  0  0  0  0  0  0  0  0  0
   54.7363   24.9737   44.4701 H   0  0  0  0  0  0  0  0  0  0  0  0
   56.3813   24.3335   46.5616 H   0  0  0  0  0  0  0  0  0  0  0  0
   54.7933   23.5164   47.0288 H   0  0  0  0  0  0  0  0  0  0  0  0
   57.5839   22.6837   46.3707 H   0  0  0  0  0  0  0  0  0  0  0  0
   57.0485   21.1172   45.6970 H   0  0  0  0  0  0  0  0  0  0  0  0
   58.7114   23.1726   44.4487 H   0  0  0  0  0  0  0  0  0  0  0  0
   58.3047   21.5688   43.8133 H   0  0  0  0  0  0  0  0  0  0  0  0
   57.1334   24.2031   43.1456 H   0  0  0  0  0  0  0  0  0  0  0  0
   56.9368   22.6753   42.2784 H   0  0  0  0  0  0  0  0  0  0  0  0
   54.9318   23.8834   43.7673 H   0  0  0  0  0  0  0  0  0  0  0  0
   54.9900   22.1269   43.4650 H   0  0  0  0  0  0  0  0  0  0  0  0
   58.7928   27.7997   47.4829 H   0  0  0  0  0  0  0  0  0  0  0  0
   59.5326   30.1771   47.4965 H   0  0  0  0  0  0  0  0  0  0  0  0
   59.2502   32.1488   48.0031 H   0  0  0  0  0  0  0  0  0  0  0  0
  1  2  1  0
  2  3  1  0
  3  4  1  0
  3  5  1  0
  5  6  1  0
  6  7  1  0
  7  8  1  0
  8  9  1  0
  9 10  2  0
 10 11  1  0
 11 12  2  0
 12 13  1  0
 13 14  1  0
 14 15  2  0
 15 16  1  0
 16 17  2  0
 17 18  1  0
 18 19  2  0
 18 20  2  0
 18 21  1  0
 21 22  1  0
 22 23  1  0
 23 24  1  0
 24 25  1  0
 25 26  1  0
 26 27  1  0
 27 28  1  0
 17 29  1  0
 29 30  2  0
 13 31  2  0
 31  9  1  0
 30 14  1  0
 28 24  1  0
  1 32  1  0
  1 33  1  0
  1 34  1  0
  2 35  1  0
  2 36  1  0
  4 37  1  0
  4 38  1  0
  4 39  1  0
  5 40  1  0
  5 41  1  0
  6 42  1  0
  6 43  1  0
  7 44  1  0
  8 45  1  0
  8 46  1  0
 10 47  1  0
 11 48  1  0
 12 49  1  0
 15 50  1  0
 16 51  1  0
 22 52  1  0
 22 53  1  0
 23 54  1  0
 23 55  1  0
 25 56  1  0
 25 57  1  0
 26 58  1  0
 26 59  1  0
 27 60  1  0
 27 61  1  0
 28 62  1  0
 28 63  1  0
 29 64  1  0
 30 65  1  0
 31 66  1  0
M  CHG  1  21  -1
M  END
>  <UniqueID>  (21) 
20

>  <SMILES>  (21) 
CCN(C)CCNCc1cccc(-c2ccc(S(=O)(=O)[N-]CCN3CCCC3)cc2)c1

>  <Energy>  (21) 
73.86349289154944

>  <Genealogy>  (21) 
CCN(C)CCNCc1cccc(-c2ccc(S(=O)(=O)[N-]CCN3CCCC3)cc2)c1 (protonated)
CCN(C)CCNCc1cccc(-c2ccc(S(=O)(=O)[N-]CCN3CCCC3)cc2)c1 (3D coordinates assigned)
CCN(C)CCNCc1cccc(-c2ccc(S(=O)(=O)[N-]CCN3CCCC3)cc2)c1 (nonaromatic ring conformer: 73.86349289154944 kcal/mol)

>  <smiles>  (21) 
CCN(C)CCNCc1cccc(-c2ccc(S(=O)(=O)NCCN3CCCC3)cc2)c1

>  <score_type>  (21) 
oracle

>  <origin>  (21) 
adg

>  <m_score__min__energy>  (21) 
-10.369999999999999

>  <m_primary>  (21) 
energy

$$$$
21:0
     RDKit          3D

 46 48  0  0  0  0  0  0  0  0999 V2000
   65.3860   32.7360   49.7860 C   0  0  0  0  0  0  0  0  0  0  0  0
   64.0980   32.0230   49.3460 C   0  0  0  0  0  0  0  0  0  0  0  0
   63.7520   32.2210   47.9140 N   0  0  0  0  0  0  0  0  0  0  0  0
   63.4640   33.6490   47.6220 C   0  0  0  0  0  0  0  0  0  0  0  0
   63.3910   33.9380   46.1190 C   0  0  0  0  0  0  0  0  0  0  0  0
   62.6500   31.3100   47.4810 C   0  0  0  0  0  0  0  0  0  0  0  0
   61.2830   31.6910   48.0850 C   0  0  0  0  0  0  0  0  0  0  0  0
   60.2240   31.6840   47.0670 N   0  0  0  0  0  0  0  0  0  0  0  0
   59.4670   30.6350   46.6360 C   0  0  0  0  0  0  0  0  0  0  0  0
   59.6800   29.2310   47.0250 C   0  0  0  0  0  0  0  0  0  0  0  0
   59.2890   28.6620   48.2180 C   0  0  0  0  0  0  0  0  0  0  0  0
   59.6560   27.3330   48.1340 C   0  0  0  0  0  0  0  0  0  0  0  0
   60.2090   27.0940   46.9660 O   0  0  0  0  0  0  0  0  0  0  0  0
   60.2280   28.2070   46.2700 C   0  0  0  0  0  0  0  0  0  0  0  0
   60.7490   28.2920   44.8710 C   0  0  0  0  0  0  0  0  0  0  0  0
   58.4550   31.0020   45.8090 N   0  0  0  0  0  0  0  0  0  0  0  0
   58.6100   32.3340   45.7120 C   0  0  0  0  0  0  0  0  0  0  0  0
   57.8290   33.2270   44.9810 C   0  0  0  0  0  0  0  0  0  0  0  0
   58.1690   34.5900   45.0360 C   0  0  0  0  0  0  0  0  0  0  0  0
   59.2680   35.0240   45.8100 C   0  0  0  0  0  0  0  0  0  0  0  0
   60.0360   34.0960   46.5390 C   0  0  0  0  0  0  0  0  0  0  0  0
   59.6700   32.7500   46.4630 C   0  0  0  0  0  0  0  0  0  0  0  0
   65.4335   32.7623   50.8847 H   0  0  0  0  0  0  0  0  0  0  0  0
   66.2583   32.1923   49.3942 H   0  0  0  0  0  0  0  0  0  0  0  0
   65.3883   33.7638   49.3942 H   0  0  0  0  0  0  0  0  0  0  0  0
   64.2218   30.9448   49.5253 H   0  0  0  0  0  0  0  0  0  0  0  0
   63.2774   32.4606   49.9334 H   0  0  0  0  0  0  0  0  0  0  0  0
   64.6280   31.9800   47.3980 H   0  0  0  0  0  0  0  0  0  0  0  0
   62.4997   33.9150   48.0795 H   0  0  0  0  0  0  0  0  0  0  0  0
   64.2880   34.2477   48.0376 H   0  0  0  0  0  0  0  0  0  0  0  0
   63.1244   34.9935   45.9611 H   0  0  0  0  0  0  0  0  0  0  0  0
   64.3689   33.7340   45.6585 H   0  0  0  0  0  0  0  0  0  0  0  0
   62.6273   33.2940   45.6585 H   0  0  0  0  0  0  0  0  0  0  0  0
   62.5724   31.3497   46.3845 H   0  0  0  0  0  0  0  0  0  0  0  0
   62.8981   30.2995   47.8379 H   0  0  0  0  0  0  0  0  0  0  0  0
   61.0262   30.9676   48.8729 H   0  0  0  0  0  0  0  0  0  0  0  0
   61.3591   32.7081   48.4970 H   0  0  0  0  0  0  0  0  0  0  0  0
   58.7892   29.1618   49.0608 H   0  0  0  0  0  0  0  0  0  0  0  0
   59.5074   26.5855   48.9272 H   0  0  0  0  0  0  0  0  0  0  0  0
   61.8344   28.4691   44.8941 H   0  0  0  0  0  0  0  0  0  0  0  0
   60.5425   27.3483   44.3449 H   0  0  0  0  0  0  0  0  0  0  0  0
   60.2533   29.1212   44.3449 H   0  0  0  0  0  0  0  0  0  0  0  0
   56.9756   32.8774   44.3814 H   0  0  0  0  0  0  0  0  0  0  0  0
   57.5747   35.3240   44.4720 H   0  0  0  0  0  0  0  0  0  0  0  0
   59.5253   36.0930   45.8434 H   0  0  0  0  0  0  0  0  0  0  0  0
   60.8938   34.4194   47.1469 H   0  0  0  0  0  0  0  0  0  0  0  0
  1  2  1  0
  2  3  1  0
  3  4  1  0
  4  5  1  0
  3  6  1  0
  6  7  1  0
  7  8  1  0
  8  9  1  0
  9 10  1  0
 10 11  1  0
 11 12  2  0
 12 13  1  0
 13 14  1  0
 14 15  1  0
  9 16  2  0
 16 17  1  0
 17 18  2  0
 18 19  1  0
 19 20  2  0
 20 21  1  0
 21 22  2  0
 22  8  1  0
 14 10  2  0
 22 17  1  0
  1 23  1  0
  1 24  1  0
  1 25  1  0
  2 26  1  0
  2 27  1  0
  3 28  1  0
  4 29  1  0
  4 30  1  0
  5 31  1  0
  5 32  1  0
  5 33  1  0
  6 34  1  0
  6 35  1  0
  7 36  1  0
  7 37  1  0
 11 38  1  0
 12 39  1  0
 15 40  1  0
 15 41  1  0
 15 42  1  0
 18 43  1  0
 19 44  1  0
 20 45  1  0
 21 46  1  0
M  CHG  1   3   1
M  END
>  <UniqueID>  (22) 
21

>  <SMILES>  (22) 
CC[NH+](CC)CCn1c(-c2ccoc2C)nc2ccccc21

>  <Energy>  (22) 
116.2059447115004

>  <Genealogy>  (22) 
CC[NH+](CC)CCn1c(-c2ccoc2C)nc2ccccc21 (protonated)
CC[NH+](CC)CCn1c(-c2ccoc2C)nc2ccccc21 (3D coordinates assigned)
CC[NH+](CC)CCn1c(-c2ccoc2C)nc2ccccc21 (optimized conformer: 116.2059447115004 kcal/mol)

>  <smiles>  (22) 
CCN(CC)CCn1c(-c2ccoc2C)nc2ccccc21

>  <score_type>  (22) 
oracle

>  <origin>  (22) 
adg

>  <m_score__min__energy>  (22) 
-5.21

>  <m_primary>  (22) 
energy

$$$$
22:0
     RDKit          3D

 58 60  0  0  0  0  0  0  0  0999 V2000
   64.0389   33.5609   48.8210 H   0  0  0  0  0  0  0  0  0  0  0  0
   63.2520   32.8850   48.4550 C   0  0  0  0  0  0  0  0  0  0  0  0
   62.8890   31.7640   49.2050 C   0  0  0  0  0  0  0  0  0  0  0  0
   63.3896   31.5594   50.1629 H   0  0  0  0  0  0  0  0  0  0  0  0
   61.8920   30.9020   48.7420 C   0  0  0  0  0  0  0  0  0  0  0  0
   61.6117   30.0207   49.3377 H   0  0  0  0  0  0  0  0  0  0  0  0
   61.2430   31.1540   47.5170 C   0  0  0  0  0  0  0  0  0  0  0  0
   60.1830   30.2410   47.0210 C   0  0  0  0  0  0  0  0  0  0  0  0
   59.0580   30.7600   46.3600 C   0  0  0  0  0  0  0  0  0  0  0  0
   58.9619   31.8465   46.2176 H   0  0  0  0  0  0  0  0  0  0  0  0
   58.0520   29.9010   45.8780 C   0  0  0  0  0  0  0  0  0  0  0  0
   56.9910   30.3390   45.2470 N   0  0  0  0  0  0  0  0  0  0  0  0
   56.7900   30.8420   43.8790 C   0  0  2  0  0  0  0  0  0  0  0  0
   55.9979   31.6023   43.9461 H   0  0  0  0  0  0  0  0  0  0  0  0
   56.2690   29.7520   42.9320 C   0  0  0  0  0  0  0  0  0  0  0  0
   55.8686   28.9144   43.5220 H   0  0  0  0  0  0  0  0  0  0  0  0
   55.4722   30.1676   42.2977 H   0  0  0  0  0  0  0  0  0  0  0  0
   57.0928   29.3929   42.2977 H   0  0  0  0  0  0  0  0  0  0  0  0
   58.0250   31.5850   43.3170 C   0  0  0  0  0  0  0  0  0  0  0  0
   57.9822   31.5471   42.2185 H   0  0  0  0  0  0  0  0  0  0  0  0
   58.9143   31.0796   43.7216 H   0  0  0  0  0  0  0  0  0  0  0  0
   58.1130   33.0650   43.7500 C   0  0  0  0  0  0  0  0  0  0  0  0
   57.8705   33.6961   42.8823 H   0  0  0  0  0  0  0  0  0  0  0  0
   59.1362   33.2331   44.1171 H   0  0  0  0  0  0  0  0  0  0  0  0
   57.1570   33.4290   44.8980 C   0  0  0  0  0  0  0  0  0  0  0  0
   56.6725   32.5130   45.2670 H   0  0  0  0  0  0  0  0  0  0  0  0
   56.4050   34.1358   44.5175 H   0  0  0  0  0  0  0  0  0  0  0  0
   57.8900   34.0740   46.0150 N   0  0  0  0  0  0  0  0  0  0  0  0
   57.6640   33.4300   47.3280 C   0  0  0  0  0  0  0  0  0  0  0  0
   57.4314   32.3664   47.1711 H   0  0  0  0  0  0  0  0  0  0  0  0
   56.8267   33.9396   47.8273 H   0  0  0  0  0  0  0  0  0  0  0  0
   58.8990   33.5440   48.2160 C   0  0  0  0  0  0  0  0  0  0  0  0
   58.5947   33.5159   49.2727 H   0  0  0  0  0  0  0  0  0  0  0  0
   59.5790   32.7048   48.0078 H   0  0  0  0  0  0  0  0  0  0  0  0
   59.4139   34.4935   48.0078 H   0  0  0  0  0  0  0  0  0  0  0  0
   59.3290   34.2720   45.7220 C   0  0  0  0  0  0  0  0  0  0  0  0
   59.9096   33.5795   46.3492 H   0  0  0  0  0  0  0  0  0  0  0  0
   59.4675   34.0816   44.6475 H   0  0  0  0  0  0  0  0  0  0  0  0
   59.8230   35.7010   45.9920 C   0  0  0  0  0  0  0  0  0  0  0  0
   59.8814   35.8698   47.0774 H   0  0  0  0  0  0  0  0  0  0  0  0
   60.8196   35.8349   45.5460 H   0  0  0  0  0  0  0  0  0  0  0  0
   59.1219   36.4218   45.5460 H   0  0  0  0  0  0  0  0  0  0  0  0
   58.1960   28.5100   46.0860 C   0  0  0  0  0  0  0  0  0  0  0  0
   57.2260   27.5860   45.6390 C   0  0  0  0  0  0  0  0  0  0  0  0
   56.3319   27.9468   45.1094 H   0  0  0  0  0  0  0  0  0  0  0  0
   57.3930   26.2180   45.8640 C   0  0  0  0  0  0  0  0  0  0  0  0
   56.6293   25.5077   45.5145 H   0  0  0  0  0  0  0  0  0  0  0  0
   58.5260   25.7490   46.5310 C   0  0  0  0  0  0  0  0  0  0  0  0
   58.6527   24.6706   46.7068 H   0  0  0  0  0  0  0  0  0  0  0  0
   59.4980   26.6460   46.9750 C   0  0  0  0  0  0  0  0  0  0  0  0
   60.3917   26.2701   47.4946 H   0  0  0  0  0  0  0  0  0  0  0  0
   59.3430   28.0260   46.7630 C   0  0  0  0  0  0  0  0  0  0  0  0
   60.2950   28.8950   47.2070 N   0  0  0  0  0  0  0  0  0  0  0  0
   61.1450   28.5160   47.6860 H   0  0  0  0  0  0  0  0  0  0  0  0
   61.6160   32.2880   46.7720 C   0  0  0  0  0  0  0  0  0  0  0  0
   61.1180   32.5002   45.8144 H   0  0  0  0  0  0  0  0  0  0  0  0
   62.6150   33.1470   47.2400 C   0  0  0  0  0  0  0  0  0  0  0  0
   62.8998   34.0308   46.6502 H   0  0  0  0  0  0  0  0  0  0  0  0
  1  2  1  0
  2  3  2  0
  3  4  1  0
  3  5  1  0
  5  6  1  0
  5  7  2  0
  7  8  1  0
  8  9  2  0
  9 10  1  0
  9 11  1  0
 11 12  2  0
 12 13  1  0
 13 14  1  1
 13 15  1  0
 15 16  1  0
 15 17  1  0
 15 18  1  0
 13 19  1  0
 19 20  1  0
 19 21  1  0
 19 22  1  0
 22 23  1  0
 22 24  1  0
 22 25  1  0
 25 26  1  0
 25 27  1  0
 25 28  1  0
 28 29  1  0
 29 30  1  0
 29 31  1  0
 29 32  1  0
 32 33  1  0
 32 34  1  0
 32 35  1  0
 28 36  1  0
 36 37  1  0
 36 38  1  0
 36 39  1  0
 39 40  1  0
 39 41  1  0
 39 42  1  0
 11 43  1  0
 43 44  2  0
 44 45  1  0
 44 46  1  0
 46 47  1  0
 46 48  2  0
 48 49  1  0
 48 50  1  0
 50 51  1  0
 50 52  2  0
 52 53  1  0
 53 54  1  0
  7 55  1  0
 55 56  1  0
 55 57  2  0
 57 58  1  0
 57  2  1  0
 53  8  1  0
 52 43  1  0
M  END
>  <UniqueID>  (23) 
22

>  <SMILES>  (23) 
CCN(CC)CCC[C@@H](C)/N=c1\cc(-c2ccccc2)[nH]c2ccccc12

>  <Energy>  (23) 
72.02162278969162

>  <Genealogy>  (23) 
CCN(CC)CCC[C@@H](C)N=c1cc(-c2ccccc2)[nH]c2ccccc12 (chirality)
CCN(CC)CCC[C@@H](C)/N=c1\cc(-c2ccccc2)[nH]c2ccccc12 (cis-trans isomerization)
CCN(CC)CCC[C@@H](C)/N=c1\cc(-c2ccccc2)[nH]c2ccccc12 (3D coordinates assigned)
CCN(CC)CCC[C@@H](C)/N=c1\cc(-c2ccccc2)[nH]c2ccccc12 (optimized conformer: 72.02162278969162 kcal/mol)

>  <smiles>  (23) 
CCN(CC)CCCC(C)N=c1cc(-c2ccccc2)[nH]c2ccccc12

>  <score_type>  (23) 
oracle

>  <origin>  (23) 
adg

>  <m_score__min__energy>  (23) 
-8.3699999999999992

>  <m_primary>  (23) 
energy

$$$$
23:0
     RDKit          3D

 46 48  0  0  0  0  0  0  0  0999 V2000
   56.2770   29.4310   42.6220 C   0  0  0  0  0  0  0  0  0  0  0  0
   56.1830   30.4020   43.7950 C   0  0  0  0  0  0  0  0  0  0  0  0
   57.3600   31.3840   43.7970 C   0  0  0  0  0  0  0  0  0  0  0  0
   58.1460   31.2410   45.0380 N   0  0  0  0  0  0  0  0  0  0  0  0
   58.1790   32.2520   45.9880 C   0  0  0  0  0  0  0  0  0  0  0  0
   57.2920   33.8100   45.7550 S   0  0  0  0  0  0  0  0  0  0  0  0
   58.6440   34.6770   44.8730 C   0  0  0  0  0  0  0  0  0  0  0  0
   60.0190   34.1540   45.2780 C   0  0  0  0  0  0  0  0  0  0  0  0
   60.1570   34.2140   46.6950 O   0  0  0  0  0  0  0  0  0  0  0  0
   61.3260   33.9020   47.4030 C   0  0  0  0  0  0  0  0  0  0  0  0
   62.5770   33.7690   46.7660 C   0  0  0  0  0  0  0  0  0  0  0  0
   63.7100   33.4260   47.5050 C   0  0  0  0  0  0  0  0  0  0  0  0
   63.6130   33.2170   48.8810 C   0  0  0  0  0  0  0  0  0  0  0  0
   62.3810   33.3580   49.5250 C   0  0  0  0  0  0  0  0  0  0  0  0
   61.2310   33.7090   48.7910 C   0  0  0  0  0  0  0  0  0  0  0  0
   59.9800   33.8840   49.4040 O   0  0  0  0  0  0  0  0  0  0  0  0
   59.6780   33.5030   50.7410 C   0  0  0  0  0  0  0  0  0  0  0  0
   58.8530   32.0760   47.1650 N   0  0  0  0  0  0  0  0  0  0  0  0
   59.5030   30.9120   47.4070 C   0  0  0  0  0  0  0  0  0  0  0  0
   60.2240   30.6100   48.5660 C   0  0  0  0  0  0  0  0  0  0  0  0
   60.7630   29.3250   48.5350 C   0  0  0  0  0  0  0  0  0  0  0  0
   60.3370   28.5800   47.0750 S   0  0  0  0  0  0  0  0  0  0  0  0
   59.4750   29.8970   46.4860 C   0  0  0  0  0  0  0  0  0  0  0  0
   58.7900   30.0490   45.2910 C   0  0  0  0  0  0  0  0  0  0  0  0
   58.7610   29.0980   44.4620 O   0  0  0  0  0  0  0  0  0  0  0  0
   56.3764   28.4040   43.0032 H   0  0  0  0  0  0  0  0  0  0  0  0
   55.3672   29.5079   42.0085 H   0  0  0  0  0  0  0  0  0  0  0  0
   57.1551   29.6810   42.0085 H   0  0  0  0  0  0  0  0  0  0  0  0
   55.2432   30.9684   43.7176 H   0  0  0  0  0  0  0  0  0  0  0  0
   56.2108   29.8229   44.7298 H   0  0  0  0  0  0  0  0  0  0  0  0
   58.0070   31.1763   42.9320 H   0  0  0  0  0  0  0  0  0  0  0  0
   56.9690   32.4105   43.7381 H   0  0  0  0  0  0  0  0  0  0  0  0
   58.5131   34.5305   43.7907 H   0  0  0  0  0  0  0  0  0  0  0  0
   58.5943   35.7431   45.1394 H   0  0  0  0  0  0  0  0  0  0  0  0
   60.1267   33.1115   44.9439 H   0  0  0  0  0  0  0  0  0  0  0  0
   60.7973   34.7742   44.8094 H   0  0  0  0  0  0  0  0  0  0  0  0
   62.6601   33.9363   45.6820 H   0  0  0  0  0  0  0  0  0  0  0  0
   64.6821   33.3201   47.0013 H   0  0  0  0  0  0  0  0  0  0  0  0
   64.5071   32.9410   49.4593 H   0  0  0  0  0  0  0  0  0  0  0  0
   62.3088   33.1941   50.6103 H   0  0  0  0  0  0  0  0  0  0  0  0
   60.2056   34.1686   51.4400 H   0  0  0  0  0  0  0  0  0  0  0  0
   58.5936   33.5808   50.9084 H   0  0  0  0  0  0  0  0  0  0  0  0
   60.0013   32.4650   50.9084 H   0  0  0  0  0  0  0  0  0  0  0  0
   58.8660   32.8370   47.8800 H   0  0  0  0  0  0  0  0  0  0  0  0
   60.3515   31.3074   49.4071 H   0  0  0  0  0  0  0  0  0  0  0  0
   61.3684   28.8678   49.3316 H   0  0  0  0  0  0  0  0  0  0  0  0
  1  2  1  0
  2  3  1  0
  3  4  1  0
  4  5  1  0
  5  6  1  0
  6  7  1  0
  7  8  1  0
  8  9  1  0
  9 10  1  0
 10 11  2  0
 11 12  1  0
 12 13  2  0
 13 14  1  0
 14 15  2  0
 15 16  1  0
 16 17  1  0
  5 18  2  0
 18 19  1  0
 19 20  1  0
 20 21  2  0
 21 22  1  0
 22 23  1  0
 23 24  1  0
 24 25  2  0
 24  4  1  0
 15 10  1  0
 23 19  2  0
  1 26  1  0
  1 27  1  0
  1 28  1  0
  2 29  1  0
  2 30  1  0
  3 31  1  0
  3 32  1  0
  7 33  1  0
  7 34  1  0
  8 35  1  0
  8 36  1  0
 11 37  1  0
 12 38  1  0
 13 39  1  0
 14 40  1  0
 17 41  1  0
 17 42  1  0
 17 43  1  0
 18 44  1  0
 20 45  1  0
 21 46  1  0
M  CHG  1  18   1
M  END
>  <UniqueID>  (24) 
23

>  <SMILES>  (24) 
CCCn1c(SCCOc2ccccc2OC)[nH+]c2ccsc2c1=O

>  <Energy>  (24) 
69.37369644754668

>  <Genealogy>  (24) 
CCCn1c(SCCOc2ccccc2OC)[nH+]c2ccsc2c1=O (protonated)
CCCn1c(SCCOc2ccccc2OC)[nH+]c2ccsc2c1=O (3D coordinates assigned)
CCCn1c(SCCOc2ccccc2OC)[nH+]c2ccsc2c1=O (optimized conformer: 69.37369644754668 kcal/mol)

>  <smiles>  (24) 
CCCn1c(SCCOc2ccccc2OC)nc2ccsc2c1=O

>  <score_type>  (24) 
oracle

>  <origin>  (24) 
adg

>  <m_score__min__energy>  (24) 
-5.9000000000000004

>  <m_primary>  (24) 
energy

$$$$
24:0
     RDKit          3D

 40 43  0  0  0  0  0  0  0  0999 V2000
   58.4356   32.5036   42.8000 H   0  0  0  0  0  0  0  0  0  0  0  0
   58.0780   32.4350   43.8380 C   0  0  0  0  0  0  0  0  0  0  0  0
   58.1590   33.5410   44.5930 C   0  0  0  0  0  0  0  0  0  0  0  0
   57.9646   34.5060   44.1021 H   0  0  0  0  0  0  0  0  0  0  0  0
   58.4890   33.5630   46.0320 C   0  0  0  0  0  0  0  0  0  0  0  0
   59.7530   33.5670   46.5780 C   0  0  0  0  0  0  0  0  0  0  0  0
   61.0230   33.6210   46.0160 C   0  0  0  0  0  0  0  0  0  0  0  0
   61.1615   33.6721   44.9259 H   0  0  0  0  0  0  0  0  0  0  0  0
   62.1250   33.6080   46.8900 C   0  0  0  0  0  0  0  0  0  0  0  0
   63.1439   33.6479   46.4774 H   0  0  0  0  0  0  0  0  0  0  0  0
   61.9420   33.5440   48.3010 C   0  0  0  0  0  0  0  0  0  0  0  0
   63.1210   33.5300   49.2060 C   0  0  0  0  0  0  0  0  0  0  0  0
   63.2080   34.2840   50.7130 S   0  0  0  0  0  0  0  0  0  0  0  0
   64.7810   33.8250   51.0820 C   0  0  0  0  0  0  0  0  0  0  0  0
   65.3306   34.0798   52.0001 H   0  0  0  0  0  0  0  0  0  0  0  0
   65.2650   33.0680   50.0250 C   0  0  0  0  0  0  0  0  0  0  0  0
   66.2774   32.6382   50.0085 H   0  0  0  0  0  0  0  0  0  0  0  0
   64.3460   32.9010   48.9800 C   0  0  0  0  0  0  0  0  0  0  0  0
   64.5693   32.3282   48.0678 H   0  0  0  0  0  0  0  0  0  0  0  0
   60.6250   33.4860   48.8240 C   0  0  0  0  0  0  0  0  0  0  0  0
   60.4502   33.4299   49.9086 H   0  0  0  0  0  0  0  0  0  0  0  0
   59.5600   33.5020   47.9290 C   0  0  0  0  0  0  0  0  0  0  0  0
   58.2460   33.4390   48.2140 N   0  0  0  0  0  0  0  0  0  0  0  0
   57.6020   33.4710   47.0530 N   0  0  0  0  0  0  0  0  0  0  0  0
   56.5650   33.3930   46.9680 H   0  0  0  0  0  0  0  0  0  0  0  0
   57.5460   31.1300   44.2900 C   0  0  0  0  0  0  0  0  0  0  0  0
   58.3330   30.2340   45.0330 C   0  0  0  0  0  0  0  0  0  0  0  0
   59.3768   30.4887   45.2689 H   0  0  0  0  0  0  0  0  0  0  0  0
   57.7970   29.0210   45.4740 C   0  0  0  0  0  0  0  0  0  0  0  0
   58.4261   28.3178   46.0394 H   0  0  0  0  0  0  0  0  0  0  0  0
   56.4560   28.6950   45.1980 C   0  0  0  0  0  0  0  0  0  0  0  0
   55.8730   27.4890   45.6180 O   0  0  0  0  0  0  0  0  0  0  0  0
   56.6080   26.3360   46.0140 C   0  0  0  0  0  0  0  0  0  0  0  0
   56.6422   26.2823   47.1122 H   0  0  0  0  0  0  0  0  0  0  0  0
   56.1175   25.4346   45.6179 H   0  0  0  0  0  0  0  0  0  0  0  0
   57.6322   26.4002   45.6179 H   0  0  0  0  0  0  0  0  0  0  0  0
   55.6670   29.6040   44.4850 C   0  0  0  0  0  0  0  0  0  0  0  0
   54.6156   29.3618   44.2710 H   0  0  0  0  0  0  0  0  0  0  0  0
   56.2020   30.8170   44.0420 C   0  0  0  0  0  0  0  0  0  0  0  0
   55.5657   31.5293   43.4963 H   0  0  0  0  0  0  0  0  0  0  0  0
  1  2  1  0
  2  3  2  0
  3  4  1  0
  3  5  1  0
  5  6  2  0
  6  7  1  0
  7  8  1  0
  7  9  2  0
  9 10  1  0
  9 11  1  0
 11 12  1  0
 12 13  1  0
 13 14  1  0
 14 15  1  0
 14 16  2  0
 16 17  1  0
 16 18  1  0
 18 19  1  0
 11 20  2  0
 20 21  1  0
 20 22  1  0
 22 23  2  0
 23 24  1  0
 24 25  1  0
  2 26  1  0
 26 27  2  0
 27 28  1  0
 27 29  1  0
 29 30  1  0
 29 31  2  0
 31 32  1  0
 32 33  1  0
 33 34  1  0
 33 35  1  0
 33 36  1  0
 31 37  1  0
 37 38  1  0
 37 39  2  0
 39 40  1  0
 24  5  1  0
 39 26  1  0
 22  6  1  0
 18 12  2  0
M  END
>  <UniqueID>  (25) 
24

>  <SMILES>  (25) 
COc1ccc(/C=C\c2[nH]nc3cc(-c4cccs4)ccc23)cc1

>  <Energy>  (25) 
118.2826494611358

>  <Genealogy>  (25) 
COc1ccc(/C=C\c2[nH]nc3cc(-c4cccs4)ccc23)cc1 (cis-trans isomerization)
COc1ccc(/C=C\c2[nH]nc3cc(-c4cccs4)ccc23)cc1 (3D coordinates assigned)
COc1ccc(/C=C\c2[nH]nc3cc(-c4cccs4)ccc23)cc1 (optimized conformer: 118.2826494611358 kcal/mol)

>  <smiles>  (25) 
COc1ccc(C=Cc2[nH]nc3cc(-c4cccs4)ccc23)cc1

>  <score_type>  (25) 
oracle

>  <origin>  (25) 
adg

>  <m_score__min__energy>  (25) 
-8.4600000000000009

>  <m_primary>  (25) 
energy

$$$$
25:0
     RDKit          3D

 52 54  0  0  0  0  0  0  0  0999 V2000
   63.3490   33.8370   46.3600 C   0  0  0  0  0  0  0  0  0  0  0  0
   63.5180   32.6480   47.3000 C   0  0  0  0  0  0  0  0  0  0  0  0
   63.5470   33.1050   48.7680 C   0  0  0  0  0  0  0  0  0  0  0  0
   63.5990   31.9300   49.7600 C   0  0  0  0  0  0  0  0  0  0  0  0
   62.2250   31.4760   50.2970 C   0  0  0  0  0  0  0  0  0  0  0  0
   61.9280   30.0530   50.0300 N   0  0  0  0  0  0  0  0  0  0  0  0
   60.5430   29.6900   50.3600 C   0  0  0  0  0  0  0  0  0  0  0  0
   59.6390   29.7980   49.1240 C   0  0  0  0  0  0  0  0  0  0  0  0
   60.3950   30.2610   47.9570 N   0  0  0  0  0  0  0  0  0  0  0  0
   59.7420   30.8150   46.7980 C   0  0  0  0  0  0  0  0  0  0  0  0
   59.6120   32.2060   46.6480 C   0  0  0  0  0  0  0  0  0  0  0  0
   60.2380   33.0950   47.5480 C   0  0  0  0  0  0  0  0  0  0  0  0
   60.0290   34.4670   47.4550 C   0  0  0  0  0  0  0  0  0  0  0  0
   59.1970   34.9790   46.4660 C   0  0  0  0  0  0  0  0  0  0  0  0
   58.6100   34.1250   45.5330 C   0  0  0  0  0  0  0  0  0  0  0  0
   58.8470   32.7270   45.5690 C   0  0  0  0  0  0  0  0  0  0  0  0
   58.3500   31.8780   44.5970 N   0  0  0  0  0  0  0  0  0  0  0  0
   57.8070   32.4360   43.3370 C   0  0  0  0  0  0  0  0  0  0  0  0
   58.3910   30.5090   44.7840 C   0  0  0  0  0  0  0  0  0  0  0  0
   57.6870   29.6170   43.9350 C   0  0  0  0  0  0  0  0  0  0  0  0
   57.7630   28.2370   44.1160 C   0  0  0  0  0  0  0  0  0  0  0  0
   58.5280   27.7080   45.1480 C   0  0  0  0  0  0  0  0  0  0  0  0
   59.2010   28.5570   46.0220 C   0  0  0  0  0  0  0  0  0  0  0  0
   59.1280   29.9580   45.8680 C   0  0  0  0  0  0  0  0  0  0  0  0
   63.2184   34.7557   46.9507 H   0  0  0  0  0  0  0  0  0  0  0  0
   64.2426   33.9328   45.7257 H   0  0  0  0  0  0  0  0  0  0  0  0
   62.4641   33.6800   45.7257 H   0  0  0  0  0  0  0  0  0  0  0  0
   62.6772   31.9535   47.1561 H   0  0  0  0  0  0  0  0  0  0  0  0
   64.4721   32.1517   47.0688 H   0  0  0  0  0  0  0  0  0  0  0  0
   64.4360   33.7342   48.9222 H   0  0  0  0  0  0  0  0  0  0  0  0
   62.6158   33.6581   48.9600 H   0  0  0  0  0  0  0  0  0  0  0  0
   64.0681   31.0741   49.2526 H   0  0  0  0  0  0  0  0  0  0  0  0
   64.1704   32.2844   50.6306 H   0  0  0  0  0  0  0  0  0  0  0  0
   62.2059   31.6374   51.3849 H   0  0  0  0  0  0  0  0  0  0  0  0
   61.4611   32.0695   49.7734 H   0  0  0  0  0  0  0  0  0  0  0  0
   62.5770   29.4350   50.5720 H   0  0  0  0  0  0  0  0  0  0  0  0
   60.5210   28.6554   50.7330 H   0  0  0  0  0  0  0  0  0  0  0  0
   60.1716   30.3836   51.1287 H   0  0  0  0  0  0  0  0  0  0  0  0
   59.2100   28.8091   48.9050 H   0  0  0  0  0  0  0  0  0  0  0  0
   58.8424   30.5263   49.3360 H   0  0  0  0  0  0  0  0  0  0  0  0
   61.4220   30.0720   47.9120 H   0  0  0  0  0  0  0  0  0  0  0  0
   60.8991   32.6980   48.3324 H   0  0  0  0  0  0  0  0  0  0  0  0
   60.5225   35.1474   48.1646 H   0  0  0  0  0  0  0  0  0  0  0  0
   59.0012   36.0604   46.4193 H   0  0  0  0  0  0  0  0  0  0  0  0
   57.9523   34.5424   44.7563 H   0  0  0  0  0  0  0  0  0  0  0  0
   57.0573   33.2064   43.5703 H   0  0  0  0  0  0  0  0  0  0  0  0
   58.6239   32.8844   42.7525 H   0  0  0  0  0  0  0  0  0  0  0  0
   57.3365   31.6316   42.7525 H   0  0  0  0  0  0  0  0  0  0  0  0
   57.0700   30.0216   43.1191 H   0  0  0  0  0  0  0  0  0  0  0  0
   57.2154   27.5645   43.4394 H   0  0  0  0  0  0  0  0  0  0  0  0
   58.6019   26.6178   45.2745 H   0  0  0  0  0  0  0  0  0  0  0  0
   59.7969   28.1308   46.8426 H   0  0  0  0  0  0  0  0  0  0  0  0
  1  2  1  0
  2  3  1  0
  3  4  1  0
  4  5  1  0
  5  6  1  0
  6  7  1  0
  7  8  1  0
  8  9  1  0
  9 10  1  0
 10 11  2  0
 11 12  1  0
 12 13  2  0
 13 14  1  0
 14 15  2  0
 15 16  1  0
 16 17  2  0
 17 18  1  0
 17 19  1  0
 19 20  2  0
 20 21  1  0
 21 22  2  0
 22 23  1  0
 23 24  2  0
 24 10  1  0
 16 11  1  0
 24 19  1  0
  1 25  1  0
  1 26  1  0
  1 27  1  0
  2 28  1  0
  2 29  1  0
  3 30  1  0
  3 31  1  0
  4 32  1  0
  4 33  1  0
  5 34  1  0
  5 35  1  0
  6 36  1  0
  7 37  1  0
  7 38  1  0
  8 39  1  0
  8 40  1  0
  9 41  1  0
 12 42  1  0
 13 43  1  0
 14 44  1  0
 15 45  1  0
 18 46  1  0
 18 47  1  0
 18 48  1  0
 20 49  1  0
 21 50  1  0
 22 51  1  0
 23 52  1  0
M  CHG  1  17   1
M  END
>  <UniqueID>  (26) 
25

>  <SMILES>  (26) 
CCCCCNCCNc1c2ccccc2[n+](C)c2ccccc12

>  <Energy>  (26) 
69.47450983584521

>  <Genealogy>  (26) 
CCCCCNCCNc1c2ccccc2[n+](C)c2ccccc12 (3D coordinates assigned)
CCCCCNCCNc1c2ccccc2[n+](C)c2ccccc12 (optimized conformer: 69.47450983584521 kcal/mol)

>  <smiles>  (26) 
CCCCCNCCNc1c2ccccc2[n+](C)c2ccccc12

>  <score_type>  (26) 
oracle

>  <origin>  (26) 
adg

>  <m_score__min__energy>  (26) 
-6.1299999999999999

>  <m_primary>  (26) 
energy

$$$$
26:0
     RDKit          3D

 55 58  0  0  0  0  0  0  0  0999 V2000
   55.2958   31.7456   50.9700 H   0  0  0  0  0  0  0  0  0  0  0  0
   55.4080   30.9070   51.6730 C   0  0  0  0  0  0  0  0  0  0  0  0
   54.3130   30.2010   52.0650 N   0  0  0  0  0  0  0  0  0  0  0  0
   54.4050   29.1570   52.9300 C   0  0  0  0  0  0  0  0  0  0  0  0
   52.9610   28.2820   53.3940 Cl  0  0  0  0  0  0  0  0  0  0  0  0
   55.6480   28.7860   53.4450 C   0  0  0  0  0  0  0  0  0  0  0  0
   55.7289   27.9435   54.1476 H   0  0  0  0  0  0  0  0  0  0  0  0
   56.7870   29.4940   53.0600 C   0  0  0  0  0  0  0  0  0  0  0  0
   57.7709   29.2089   53.4609 H   0  0  0  0  0  0  0  0  0  0  0  0
   56.6820   30.5700   52.1620 C   0  0  0  0  0  0  0  0  0  0  0  0
   57.8870   31.3280   51.7370 C   0  0  0  0  0  0  0  0  0  0  0  0
   58.0060   32.6950   52.0250 C   0  0  0  0  0  0  0  0  0  0  0  0
   57.2044   33.2073   52.5772 H   0  0  0  0  0  0  0  0  0  0  0  0
   59.1310   33.4110   51.6180 C   0  0  0  0  0  0  0  0  0  0  0  0
   59.2068   34.4833   51.8511 H   0  0  0  0  0  0  0  0  0  0  0  0
   60.1710   32.7770   50.9120 C   0  0  0  0  0  0  0  0  0  0  0  0
   61.2930   33.4960   50.4700 O   0  0  0  0  0  0  0  0  0  0  0  0
   62.4060   33.8590   51.2870 C   0  0  0  0  0  0  0  0  0  0  0  0
   62.1857   33.6086   52.3352 H   0  0  0  0  0  0  0  0  0  0  0  0
   62.5867   34.9399   51.1922 H   0  0  0  0  0  0  0  0  0  0  0  0
   63.6550   33.0990   50.8360 C   0  0  0  0  0  0  0  0  0  0  0  0
   63.5377   32.0400   51.1095 H   0  0  0  0  0  0  0  0  0  0  0  0
   64.5181   33.5618   51.3369 H   0  0  0  0  0  0  0  0  0  0  0  0
   63.9040   33.1880   49.3200 C   0  0  0  0  0  0  0  0  0  0  0  0
   64.9561   32.9391   49.1175 H   0  0  0  0  0  0  0  0  0  0  0  0
   63.6687   34.2126   48.9961 H   0  0  0  0  0  0  0  0  0  0  0  0
   63.0420   32.2620   48.5650 N   0  0  0  0  0  0  0  0  0  0  0  0
   63.1200   31.2960   48.9630 H   0  0  0  0  0  0  0  0  0  0  0  0
   62.0470   32.5710   48.6510 H   0  0  0  0  0  0  0  0  0  0  0  0
   63.3760   32.2420   47.1280 C   0  0  0  0  0  0  0  0  0  0  0  0
   62.6295   31.6296   46.6010 H   0  0  0  0  0  0  0  0  0  0  0  0
   64.3881   31.8232   47.0263 H   0  0  0  0  0  0  0  0  0  0  0  0
   63.3880   33.6430   46.5080 C   0  0  0  0  0  0  0  0  0  0  0  0
   63.3945   34.3980   47.3080 H   0  0  0  0  0  0  0  0  0  0  0  0
   64.2872   33.7608   45.8854 H   0  0  0  0  0  0  0  0  0  0  0  0
   62.4910   33.7762   45.8854 H   0  0  0  0  0  0  0  0  0  0  0  0
   60.0720   31.3940   50.6280 C   0  0  0  0  0  0  0  0  0  0  0  0
   61.1440   30.6650   49.8980 C   0  0  0  0  0  0  0  0  0  0  0  0
   62.1130   30.1780   50.5470 O   0  0  0  0  0  0  0  0  0  0  0  0
   61.0980   30.5450   48.4670 N   0  0  0  0  0  0  0  0  0  0  0  0
   60.3230   31.2100   47.6630 C   0  0  0  0  0  0  0  0  0  0  0  0
   60.3560   32.5590   47.5160 N   0  0  0  0  0  0  0  0  0  0  0  0
   59.4360   32.9640   46.6030 C   0  0  0  0  0  0  0  0  0  0  0  0
   59.2240   34.2920   46.2320 C   0  0  0  0  0  0  0  0  0  0  0  0
   59.8222   35.1007   46.6772 H   0  0  0  0  0  0  0  0  0  0  0  0
   58.2310   34.5770   45.2780 C   0  0  0  0  0  0  0  0  0  0  0  0
   58.0486   35.6183   44.9738 H   0  0  0  0  0  0  0  0  0  0  0  0
   57.4680   33.5380   44.7090 C   0  0  0  0  0  0  0  0  0  0  0  0
   56.6935   33.7723   43.9639 H   0  0  0  0  0  0  0  0  0  0  0  0
   57.6920   32.2040   45.0890 C   0  0  0  0  0  0  0  0  0  0  0  0
   57.1022   31.3849   44.6518 H   0  0  0  0  0  0  0  0  0  0  0  0
   58.6810   31.9480   46.0340 C   0  0  0  0  0  0  0  0  0  0  0  0
   59.1630   30.4740   46.6760 S   0  0  0  0  0  0  0  0  0  0  0  0
   58.9240   30.6890   51.0370 C   0  0  0  0  0  0  0  0  0  0  0  0
   58.8374   29.6174   50.8040 H   0  0  0  0  0  0  0  0  0  0  0  0
  1  2  1  0
  2  3  2  0
  3  4  1  0
  4  5  1  0
  4  6  2  0
  6  7  1  0
  6  8  1  0
  8  9  1  0
  8 10  2  0
 10 11  1  0
 11 12  2  0
 12 13  1  0
 12 14  1  0
 14 15  1  0
 14 16  2  0
 16 17  1  0
 17 18  1  0
 18 19  1  0
 18 20  1  0
 18 21  1  0
 21 22  1  0
 21 23  1  0
 21 24  1  0
 24 25  1  0
 24 26  1  0
 24 27  1  0
 27 28  1  0
 27 29  1  0
 27 30  1  0
 30 31  1  0
 30 32  1  0
 30 33  1  0
 33 34  1  0
 33 35  1  0
 33 36  1  0
 16 37  1  0
 37 38  1  0
 38 39  2  0
 38 40  1  0
 40 41  2  0
 41 42  1  0
 42 43  1  0
 43 44  2  0
 44 45  1  0
 44 46  1  0
 46 47  1  0
 46 48  2  0
 48 49  1  0
 48 50  1  0
 50 51  1  0
 50 52  2  0
 52 53  1  0
 37 54  2  0
 54 55  1  0
 10  2  1  0
 54 11  1  0
 53 41  1  0
 52 43  1  0
M  CHG  2  27   1  42  -1
M  END
>  <UniqueID>  (27) 
26

>  <SMILES>  (27) 
CC[NH2+]CCCOc1ccc(-c2ccc(Cl)nc2)cc1C(=O)/N=c1\[n-]c2ccccc2s1

>  <Energy>  (27) 
98.00177777356807

>  <Genealogy>  (27) 
CC[NH2+]CCCOc1ccc(-c2ccc(Cl)nc2)cc1C(=O)N=c1[n-]c2ccccc2s1 (protonated)
CC[NH2+]CCCOc1ccc(-c2ccc(Cl)nc2)cc1C(=O)/N=c1\[n-]c2ccccc2s1 (cis-trans isomerization)
CC[NH2+]CCCOc1ccc(-c2ccc(Cl)nc2)cc1C(=O)/N=c1\[n-]c2ccccc2s1 (3D coordinates assigned)
CC[NH2+]CCCOc1ccc(-c2ccc(Cl)nc2)cc1C(=O)/N=c1\[n-]c2ccccc2s1 (optimized conformer: 98.00177777356807 kcal/mol)

>  <smiles>  (27) 
CCNCCCOc1ccc(-c2ccc(Cl)nc2)cc1C(=O)N=c1[nH]c2ccccc2s1

>  <score_type>  (27) 
oracle

>  <origin>  (27) 
adg

>  <m_score__min__energy>  (27) 
-7.54

>  <m_primary>  (27) 
energy

$$$$
27:0
     RDKit          3D

 37 39  0  0  0  0  0  0  0  0999 V2000
   55.0111   29.6347   43.7010 H   0  0  0  0  0  0  0  0  0  0  0  0
   55.9650   30.1470   43.8950 C   0  0  0  0  0  0  0  0  0  0  0  0
   56.5510   30.1530   45.1210 N   0  0  0  0  0  0  0  0  0  0  0  0
   57.7150   30.8380   45.1190 C   0  0  0  0  0  0  0  0  0  0  0  0
   58.4300   30.9830   46.1950 N   0  0  0  0  0  0  0  0  0  0  0  0
   58.9470   29.9450   47.0440 C   0  0  0  0  0  0  0  0  0  0  0  0
   58.2660   29.4730   47.9940 O   0  0  0  0  0  0  0  0  0  0  0  0
   60.3130   29.4000   46.7780 C   0  0  0  0  0  0  0  0  0  0  0  0
   60.6359   28.7996   47.6413 H   0  0  0  0  0  0  0  0  0  0  0  0
   61.0026   30.2417   46.6168 H   0  0  0  0  0  0  0  0  0  0  0  0
   60.3140   28.3490   45.2840 S   0  0  0  0  0  0  0  0  0  0  0  0
   59.1350   27.1570   45.9300 C   0  0  0  0  0  0  0  0  0  0  0  0
   58.9780   26.9180   47.2450 N   0  0  0  0  0  0  0  0  0  0  0  0
   57.9930   26.0390   47.3610 N   0  0  0  0  0  0  0  0  0  0  0  0
   57.5720   25.7450   46.1140 C   0  0  0  0  0  0  0  0  0  0  0  0
   56.4380   24.8360   45.8460 C   0  0  0  0  0  0  0  0  0  0  0  0
   56.6540   23.4590   45.6700 C   0  0  0  0  0  0  0  0  0  0  0  0
   57.6762   23.0555   45.7173 H   0  0  0  0  0  0  0  0  0  0  0  0
   55.5770   22.5980   45.4350 C   0  0  0  0  0  0  0  0  0  0  0  0
   55.7553   21.5226   45.2879 H   0  0  0  0  0  0  0  0  0  0  0  0
   54.2760   23.1020   45.3870 C   0  0  0  0  0  0  0  0  0  0  0  0
   53.4305   22.4238   45.1994 H   0  0  0  0  0  0  0  0  0  0  0  0
   54.0470   24.4670   45.5770 C   0  0  0  0  0  0  0  0  0  0  0  0
   53.0205   24.8610   45.5433 H   0  0  0  0  0  0  0  0  0  0  0  0
   55.1200   25.3340   45.8100 C   0  0  0  0  0  0  0  0  0  0  0  0
   54.8700   26.6900   45.9890 O   0  0  0  0  0  0  0  0  0  0  0  0
   58.2740   26.4330   45.1840 N   0  0  0  0  0  0  0  0  0  0  0  0
   58.1200   26.4440   43.7260 C   0  0  0  0  0  0  0  0  0  0  0  0
   57.2804   25.7902   43.4473 H   0  0  0  0  0  0  0  0  0  0  0  0
   59.0541   26.0836   43.2705 H   0  0  0  0  0  0  0  0  0  0  0  0
   57.8430   27.8570   43.2200 C   0  0  0  0  0  0  0  0  0  0  0  0
   57.7103   28.5339   44.0769 H   0  0  0  0  0  0  0  0  0  0  0  0
   58.6909   28.2005   42.6092 H   0  0  0  0  0  0  0  0  0  0  0  0
   56.9282   27.8550   42.6092 H   0  0  0  0  0  0  0  0  0  0  0  0
   58.0540   31.4700   43.5900 S   0  0  0  0  0  0  0  0  0  0  0  0
   56.6560   30.8340   42.9030 C   0  0  0  0  0  0  0  0  0  0  0  0
   56.3437   30.9425   41.8539 H   0  0  0  0  0  0  0  0  0  0  0  0
  1  2  1  0
  2  3  1  0
  3  4  1  0
  4  5  2  0
  5  6  1  0
  6  7  2  0
  6  8  1  0
  8  9  1  0
  8 10  1  0
  8 11  1  0
 11 12  1  0
 12 13  2  0
 13 14  1  0
 14 15  2  0
 15 16  1  0
 16 17  2  0
 17 18  1  0
 17 19  1  0
 19 20  1  0
 19 21  2  0
 21 22  1  0
 21 23  1  0
 23 24  1  0
 23 25  2  0
 25 26  1  0
 15 27  1  0
 27 28  1  0
 28 29  1  0
 28 30  1  0
 28 31  1  0
 31 32  1  0
 31 33  1  0
 31 34  1  0
  4 35  1  0
 35 36  1  0
 36 37  1  0
 36  2  2  0
 27 12  1  0
 25 16  1  0
M  CHG  2   3  -1  26  -1
M  END
>  <UniqueID>  (28) 
27

>  <SMILES>  (28) 
CCn1c(SCC(=O)/N=c2/[n-]ccs2)nnc1-c1ccccc1[O-]

>  <Energy>  (28) 
104.98793050132805

>  <Genealogy>  (28) 
CCn1c(SCC(=O)N=c2[n-]ccs2)nnc1-c1ccccc1[O-] (protonated)
CCn1c(SCC(=O)/N=c2/[n-]ccs2)nnc1-c1ccccc1[O-] (cis-trans isomerization)
CCn1c(SCC(=O)/N=c2/[n-]ccs2)nnc1-c1ccccc1[O-] (3D coordinates assigned)
CCn1c(SCC(=O)/N=c2/[n-]ccs2)nnc1-c1ccccc1[O-] (optimized conformer: 104.98793050132805 kcal/mol)

>  <smiles>  (28) 
CCn1c(SCC(=O)N=c2[nH]ccs2)nnc1-c1ccccc1O

>  <score_type>  (28) 
oracle

>  <origin>  (28) 
adg

>  <m_score__min__energy>  (28) 
-12.84

>  <m_primary>  (28) 
energy

$$$$
28:0
     RDKit          3D

 73 75  0  0  0  0  0  0  0  0999 V2000
   58.9294   35.4072   49.5310 H   0  0  0  0  0  0  0  0  0  0  0  0
   59.6420   34.6520   49.1680 C   0  0  0  0  0  0  0  0  0  0  0  0
   59.8750   34.5440   47.8950 N   0  0  0  0  0  0  0  0  0  0  0  0
   59.3540   33.5080   47.0470 C   0  0  0  0  0  0  0  0  0  0  0  0
   59.0240   33.8280   45.7360 C   0  0  0  0  0  0  0  0  0  0  0  0
   59.1378   34.8632   45.3818 H   0  0  0  0  0  0  0  0  0  0  0  0
   58.5510   32.8500   44.8680 C   0  0  0  0  0  0  0  0  0  0  0  0
   58.3193   33.1201   43.8271 H   0  0  0  0  0  0  0  0  0  0  0  0
   58.3610   31.5110   45.2970 C   0  0  0  0  0  0  0  0  0  0  0  0
   58.7040   31.1710   46.6330 C   0  0  0  0  0  0  0  0  0  0  0  0
   59.1680   32.1940   47.4990 C   0  0  0  0  0  0  0  0  0  0  0  0
   59.3869   31.9508   48.5492 H   0  0  0  0  0  0  0  0  0  0  0  0
   58.5860   29.8210   47.0690 C   0  0  0  0  0  0  0  0  0  0  0  0
   58.8210   29.4780   48.4680 N   0  0  0  0  0  0  0  0  0  0  0  0
   59.1050   30.3410   48.9830 H   0  0  0  0  0  0  0  0  0  0  0  0
   57.9500   29.2100   48.9720 H   0  0  0  0  0  0  0  0  0  0  0  0
   59.8730   28.4490   48.6300 C   0  0  0  0  0  0  0  0  0  0  0  0
   60.1620   28.0800   47.6349 H   0  0  0  0  0  0  0  0  0  0  0  0
   59.4600   27.6437   49.2552 H   0  0  0  0  0  0  0  0  0  0  0  0
   61.1310   28.9970   49.3400 C   0  0  0  0  0  0  0  0  0  0  0  0
   62.0156   28.5174   48.8957 H   0  0  0  0  0  0  0  0  0  0  0  0
   61.0180   28.7681   50.4100 H   0  0  0  0  0  0  0  0  0  0  0  0
   61.2930   30.4690   49.2300 N   0  0  0  0  0  0  0  0  0  0  0  0
   61.9980   31.0940   50.3750 C   0  0  0  0  0  0  0  0  0  0  0  0
   61.2576   31.5952   51.0157 H   0  0  0  0  0  0  0  0  0  0  0  0
   62.7287   31.8100   49.9708 H   0  0  0  0  0  0  0  0  0  0  0  0
   62.7620   30.0680   51.2150 C   0  0  0  0  0  0  0  0  0  0  0  0
   62.6051   30.2788   52.2832 H   0  0  0  0  0  0  0  0  0  0  0  0
   62.3947   29.0575   50.9828 H   0  0  0  0  0  0  0  0  0  0  0  0
   63.8354   30.1303   50.9828 H   0  0  0  0  0  0  0  0  0  0  0  0
   61.8970   30.8720   47.9400 C   0  0  0  0  0  0  0  0  0  0  0  0
   62.5664   30.0734   47.5878 H   0  0  0  0  0  0  0  0  0  0  0  0
   61.0944   31.0422   47.2073 H   0  0  0  0  0  0  0  0  0  0  0  0
   62.6970   32.1620   48.1080 C   0  0  0  0  0  0  0  0  0  0  0  0
   62.8289   32.3748   49.1791 H   0  0  0  0  0  0  0  0  0  0  0  0
   63.6824   32.0468   47.6329 H   0  0  0  0  0  0  0  0  0  0  0  0
   62.1559   32.9936   47.6329 H   0  0  0  0  0  0  0  0  0  0  0  0
   58.2710   28.8230   46.1020 C   0  0  0  0  0  0  0  0  0  0  0  0
   58.2690   27.4400   46.4160 C   0  0  0  0  0  0  0  0  0  0  0  0
   58.4623   27.1213   47.4509 H   0  0  0  0  0  0  0  0  0  0  0  0
   58.0270   26.4780   45.4390 C   0  0  0  0  0  0  0  0  0  0  0  0
   58.0240   25.4117   45.7092 H   0  0  0  0  0  0  0  0  0  0  0  0
   57.7900   26.8580   44.1280 C   0  0  0  0  0  0  0  0  0  0  0  0
   57.6273   26.0936   43.3539 H   0  0  0  0  0  0  0  0  0  0  0  0
   57.7580   28.2060   43.7920 C   0  0  0  0  0  0  0  0  0  0  0  0
   57.5755   28.4968   42.7469 H   0  0  0  0  0  0  0  0  0  0  0  0
   57.9560   29.2150   44.7700 C   0  0  0  0  0  0  0  0  0  0  0  0
   57.8630   30.5520   44.4400 N   0  0  0  0  0  0  0  0  0  0  0  0
   57.2130   30.9580   43.1720 C   0  0  0  0  0  0  0  0  0  0  0  0
   56.2994   31.5287   43.3946 H   0  0  0  0  0  0  0  0  0  0  0  0
   57.9043   31.5851   42.5900 H   0  0  0  0  0  0  0  0  0  0  0  0
   56.9527   30.0616   42.5900 H   0  0  0  0  0  0  0  0  0  0  0  0
   60.3380   33.7540   50.1460 C   0  0  0  0  0  0  0  0  0  0  0  0
   60.3623   32.7357   49.7307 H   0  0  0  0  0  0  0  0  0  0  0  0
   61.3489   34.1586   50.3018 H   0  0  0  0  0  0  0  0  0  0  0  0
   59.6450   33.7070   51.5190 C   0  0  0  0  0  0  0  0  0  0  0  0
   60.3866   33.3820   52.2635 H   0  0  0  0  0  0  0  0  0  0  0  0
   59.2560   34.7200   51.6993 H   0  0  0  0  0  0  0  0  0  0  0  0
   58.4310   32.7600   51.6100 C   0  0  0  0  0  0  0  0  0  0  0  0
   58.5290   32.1592   52.5262 H   0  0  0  0  0  0  0  0  0  0  0  0
   57.5323   33.3943   51.6132 H   0  0  0  0  0  0  0  0  0  0  0  0
   58.2940   31.8000   50.4140 C   0  0  0  0  0  0  0  0  0  0  0  0
   57.5467   32.2053   49.7160 H   0  0  0  0  0  0  0  0  0  0  0  0
   59.2788   31.7120   49.9318 H   0  0  0  0  0  0  0  0  0  0  0  0
   57.8680   30.4480   50.8400 N   0  0  0  0  0  0  0  0  0  0  0  0
   58.9320   29.7650   51.6000 C   0  0  0  0  0  0  0  0  0  0  0  0
   58.7468   29.8839   52.6778 H   0  0  0  0  0  0  0  0  0  0  0  0
   58.9361   28.6951   51.3445 H   0  0  0  0  0  0  0  0  0  0  0  0
   59.9065   30.2067   51.3445 H   0  0  0  0  0  0  0  0  0  0  0  0
   56.6560   30.5340   51.6720 C   0  0  0  0  0  0  0  0  0  0  0  0
   56.9387   30.5139   52.7349 H   0  0  0  0  0  0  0  0  0  0  0  0
   56.1256   31.4720   51.4513 H   0  0  0  0  0  0  0  0  0  0  0  0
   55.9984   29.6803   51.4513 H   0  0  0  0  0  0  0  0  0  0  0  0
  1  2  1  0
  2  3  2  0
  3  4  1  0
  4  5  2  0
  5  6  1  0
  5  7  1  0
  7  8  1  0
  7  9  2  0
  9 10  1  0
 10 11  2  0
 11 12  1  0
 10 13  1  0
 13 14  1  0
 14 15  1  0
 14 16  1  0
 14 17  1  0
 17 18  1  0
 17 19  1  0
 17 20  1  0
 20 21  1  0
 20 22  1  0
 20 23  1  0
 23 24  1  0
 24 25  1  0
 24 26  1  0
 24 27  1  0
 27 28  1  0
 27 29  1  0
 27 30  1  0
 23 31  1  0
 31 32  1  0
 31 33  1  0
 31 34  1  0
 34 35  1  0
 34 36  1  0
 34 37  1  0
 13 38  2  0
 38 39  1  0
 39 40  1  0
 39 41  2  0
 41 42  1  0
 41 43  1  0
 43 44  1  0
 43 45  2  0
 45 46  1  0
 45 47  1  0
 47 48  2  0
 48 49  1  0
 49 50  1  0
 49 51  1  0
 49 52  1  0
  2 53  1  0
 53 54  1  0
 53 55  1  0
 53 56  1  0
 56 57  1  0
 56 58  1  0
 56 59  1  0
 59 60  1  0
 59 61  1  0
 59 62  1  0
 62 63  1  0
 62 64  1  0
 62 65  1  0
 65 66  1  0
 66 67  1  0
 66 68  1  0
 66 69  1  0
 65 70  1  0
 70 71  1  0
 70 72  1  0
 70 73  1  0
 11  4  1  0
 47 38  1  0
 48  9  1  0
M  CHG  2  14   1  48   1
M  END
>  <UniqueID>  (29) 
28

>  <SMILES>  (29) 
CCN(CC)CC[NH2+]c1c2ccccc2[n+](C)c2ccc(/N=C/CCCCN(C)C)cc12

>  <Energy>  (29) 
100.18087781409957

>  <Genealogy>  (29) 
CCN(CC)CC[NH2+]c1c2ccccc2[n+](C)c2ccc(N=CCCCCN(C)C)cc12 (protonated)
CCN(CC)CC[NH2+]c1c2ccccc2[n+](C)c2ccc(/N=C/CCCCN(C)C)cc12 (cis-trans isomerization)
CCN(CC)CC[NH2+]c1c2ccccc2[n+](C)c2ccc(/N=C/CCCCN(C)C)cc12 (3D coordinates assigned)
CCN(CC)CC[NH2+]c1c2ccccc2[n+](C)c2ccc(/N=C/CCCCN(C)C)cc12 (optimized conformer: 100.18087781409957 kcal/mol)

>  <smiles>  (29) 
CCN(CC)CCNc1c2ccccc2[n+](C)c2ccc(N=CCCCCN(C)C)cc12

>  <score_type>  (29) 
oracle

>  <origin>  (29) 
adg

>  <m_score__min__energy>  (29) 
-5.71

>  <m_primary>  (29) 
energy

$$$$
29:0
     RDKit          3D

 62 64  0  0  0  0  0  0  0  0999 V2000
   63.3870   33.9050   46.3810 C   0  0  0  0  0  0  0  0  0  0  0  0
   63.4180   34.0010   47.9120 C   0  0  0  0  0  0  0  0  0  0  0  0
   64.0070   32.7910   48.5500 N   0  0  0  0  0  0  0  0  0  0  0  0
   64.8840   33.1660   49.6940 C   0  0  0  0  0  0  0  0  0  0  0  0
   65.8430   32.0570   50.1510 C   0  0  0  0  0  0  0  0  0  0  0  0
   62.9470   31.8130   48.9100 C   0  0  0  0  0  0  0  0  0  0  0  0
   62.2340   31.2150   47.6870 C   0  0  0  0  0  0  0  0  0  0  0  0
   60.7860   31.1890   47.9020 N   0  0  0  0  0  0  0  0  0  0  0  0
   59.8670   31.0780   46.7990 C   0  0  0  0  0  0  0  0  0  0  0  0
   59.3320   32.2360   46.2050 C   0  0  0  0  0  0  0  0  0  0  0  0
   59.7330   33.5210   46.6300 C   0  0  0  0  0  0  0  0  0  0  0  0
   59.1500   34.6640   46.0890 C   0  0  0  0  0  0  0  0  0  0  0  0
   58.1610   34.5480   45.1190 C   0  0  0  0  0  0  0  0  0  0  0  0
   57.7800   33.2900   44.6540 C   0  0  0  0  0  0  0  0  0  0  0  0
   58.3900   32.1080   45.1500 C   0  0  0  0  0  0  0  0  0  0  0  0
   58.0830   30.8610   44.6400 N   0  0  0  0  0  0  0  0  0  0  0  0
   57.3460   30.7490   43.3610 C   0  0  0  0  0  0  0  0  0  0  0  0
   58.5060   29.7190   45.2970 C   0  0  0  0  0  0  0  0  0  0  0  0
   57.9990   28.4370   44.9620 C   0  0  0  0  0  0  0  0  0  0  0  0
   58.4700   27.2470   45.5670 C   0  0  0  0  0  0  0  0  0  0  0  0
   57.9090   25.9370   45.1690 N   0  0  0  0  0  0  0  0  0  0  0  0
   57.7660   25.7810   43.6960 C   0  0  0  0  0  0  0  0  0  0  0  0
   56.5590   25.7720   45.7630 C   0  0  0  0  0  0  0  0  0  0  0  0
   58.7980   24.8520   45.6480 C   0  0  0  0  0  0  0  0  0  0  0  0
   59.4640   27.3840   46.5630 C   0  0  0  0  0  0  0  0  0  0  0  0
   59.9330   28.6360   46.9470 C   0  0  0  0  0  0  0  0  0  0  0  0
   59.4490   29.8110   46.3480 C   0  0  0  0  0  0  0  0  0  0  0  0
   63.0616   32.8973   46.0833 H   0  0  0  0  0  0  0  0  0  0  0  0
   62.6839   34.6504   45.9810 H   0  0  0  0  0  0  0  0  0  0  0  0
   64.3933   34.0985   45.9810 H   0  0  0  0  0  0  0  0  0  0  0  0
   64.0180   34.8775   48.1979 H   0  0  0  0  0  0  0  0  0  0  0  0
   62.3787   34.0893   48.2613 H   0  0  0  0  0  0  0  0  0  0  0  0
   64.6350   32.3320   47.8480 H   0  0  0  0  0  0  0  0  0  0  0  0
   65.4844   34.0380   49.3953 H   0  0  0  0  0  0  0  0  0  0  0  0
   64.2177   33.3737   50.5443 H   0  0  0  0  0  0  0  0  0  0  0  0
   65.8701   32.0257   51.2502 H   0  0  0  0  0  0  0  0  0  0  0  0
   65.4935   31.0880   49.7651 H   0  0  0  0  0  0  0  0  0  0  0  0
   66.8523   32.2630   49.7651 H   0  0  0  0  0  0  0  0  0  0  0  0
   63.4070   30.9935   49.4817 H   0  0  0  0  0  0  0  0  0  0  0  0
   62.1901   32.3530   49.4978 H   0  0  0  0  0  0  0  0  0  0  0  0
   62.4579   31.8279   46.8014 H   0  0  0  0  0  0  0  0  0  0  0  0
   62.5904   30.1856   47.5344 H   0  0  0  0  0  0  0  0  0  0  0  0
   60.4240   31.5280   48.8210 H   0  0  0  0  0  0  0  0  0  0  0  0
   60.5149   33.6206   47.3973 H   0  0  0  0  0  0  0  0  0  0  0  0
   59.4722   35.6592   46.4293 H   0  0  0  0  0  0  0  0  0  0  0  0
   57.6778   35.4509   44.7173 H   0  0  0  0  0  0  0  0  0  0  0  0
   56.9930   33.2120   43.8894 H   0  0  0  0  0  0  0  0  0  0  0  0
   56.2776   30.5866   43.5665 H   0  0  0  0  0  0  0  0  0  0  0  0
   57.4714   31.6765   42.7831 H   0  0  0  0  0  0  0  0  0  0  0  0
   57.7413   29.9006   42.7831 H   0  0  0  0  0  0  0  0  0  0  0  0
   57.2078   28.3648   44.2012 H   0  0  0  0  0  0  0  0  0  0  0  0
   57.0371   24.9858   43.4805 H   0  0  0  0  0  0  0  0  0  0  0  0
   57.4155   26.7278   43.2593 H   0  0  0  0  0  0  0  0  0  0  0  0
   58.7397   25.5140   43.2593 H   0  0  0  0  0  0  0  0  0  0  0  0
   56.6375   25.7816   46.8602 H   0  0  0  0  0  0  0  0  0  0  0  0
   55.9105   26.5976   45.4346 H   0  0  0  0  0  0  0  0  0  0  0  0
   56.1284   24.8145   45.4346 H   0  0  0  0  0  0  0  0  0  0  0  0
   58.8055   24.8428   46.7479 H   0  0  0  0  0  0  0  0  0  0  0  0
   58.4294   23.8847   45.2758 H   0  0  0  0  0  0  0  0  0  0  0  0
   59.8189   25.0232   45.2758 H   0  0  0  0  0  0  0  0  0  0  0  0
   59.8743   26.4835   47.0434 H   0  0  0  0  0  0  0  0  0  0  0  0
   60.6975   28.7074   47.7347 H   0  0  0  0  0  0  0  0  0  0  0  0
  1  2  1  0
  2  3  1  0
  3  4  1  0
  4  5  1  0
  3  6  1  0
  6  7  1  0
  7  8  1  0
  8  9  1  0
  9 10  2  0
 10 11  1  0
 11 12  2  0
 12 13  1  0
 13 14  2  0
 14 15  1  0
 15 16  2  0
 16 17  1  0
 16 18  1  0
 18 19  2  0
 19 20  1  0
 20 21  1  0
 21 22  1  0
 21 23  1  0
 21 24  1  0
 20 25  2  0
 25 26  1  0
 26 27  2  0
 27  9  1  0
 15 10  1  0
 27 18  1  0
  1 28  1  0
  1 29  1  0
  1 30  1  0
  2 31  1  0
  2 32  1  0
  3 33  1  0
  4 34  1  0
  4 35  1  0
  5 36  1  0
  5 37  1  0
  5 38  1  0
  6 39  1  0
  6 40  1  0
  7 41  1  0
  7 42  1  0
  8 43  1  0
 11 44  1  0
 12 45  1  0
 13 46  1  0
 14 47  1  0
 17 48  1  0
 17 49  1  0
 17 50  1  0
 19 51  1  0
 22 52  1  0
 22 53  1  0
 22 54  1  0
 23 55  1  0
 23 56  1  0
 23 57  1  0
 24 58  1  0
 24 59  1  0
 24 60  1  0
 25 61  1  0
 26 62  1  0
M  CHG  3   3   1  16   1  21   1
M  END
>  <UniqueID>  (30) 
29

>  <SMILES>  (30) 
CC[NH+](CC)CCNc1c2ccccc2[n+](C)c2cc([N+](C)(C)C)ccc12

>  <Energy>  (30) 
103.79838490291004

>  <Genealogy>  (30) 
CC[NH+](CC)CCNc1c2ccccc2[n+](C)c2cc([N+](C)(C)C)ccc12 (protonated)
CC[NH+](CC)CCNc1c2ccccc2[n+](C)c2cc([N+](C)(C)C)ccc12 (3D coordinates assigned)
CC[NH+](CC)CCNc1c2ccccc2[n+](C)c2cc([N+](C)(C)C)ccc12 (optimized conformer: 103.79838490291004 kcal/mol)

>  <smiles>  (30) 
CCN(CC)CCNc1c2ccccc2[n+](C)c2cc([N+](C)(C)C)ccc12

>  <score_type>  (30) 
oracle

>  <origin>  (30) 
adg

>  <m_score__min__energy>  (30) 
-3.2999999999999998

>  <m_primary>  (30) 
energy

$$$$
30:0
     RDKit          3D

 72 75  0  0  0  0  0  0  0  0999 V2000
   63.3710   33.8130   46.3790 C   0  0  0  0  0  0  0  0  0  0  0  0
   63.7920   33.4600   47.8070 C   0  0  0  0  0  0  0  0  0  0  0  0
   63.7110   32.0150   48.0750 N   0  0  0  0  0  0  0  0  0  0  0  0
   62.7440   31.6670   49.1340 C   0  0  0  0  0  0  0  0  0  0  0  0
   61.3290   31.4600   48.5760 C   0  0  0  0  0  0  0  0  0  0  0  0
   61.3880   31.0840   47.1630 N   0  0  0  0  0  0  0  0  0  0  0  0
   60.1980   31.0320   46.3560 C   0  0  0  0  0  0  0  0  0  0  0  0
   59.5500   32.2200   45.9720 C   0  0  0  0  0  0  0  0  0  0  0  0
   60.0610   33.4800   46.3560 C   0  0  0  0  0  0  0  0  0  0  0  0
   59.3800   34.6510   46.0370 C   0  0  0  0  0  0  0  0  0  0  0  0
   58.1760   34.5920   45.3470 C   0  0  0  0  0  0  0  0  0  0  0  0
   57.6610   33.3610   44.9430 C   0  0  0  0  0  0  0  0  0  0  0  0
   58.3520   32.1510   45.2110 C   0  0  0  0  0  0  0  0  0  0  0  0
   57.8770   30.9290   44.7720 N   0  0  0  0  0  0  0  0  0  0  0  0
   56.8030   30.8760   43.7520 C   0  0  0  0  0  0  0  0  0  0  0  0
   58.4310   29.7560   45.2520 C   0  0  0  0  0  0  0  0  0  0  0  0
   57.8210   28.4960   45.0250 C   0  0  0  0  0  0  0  0  0  0  0  0
   58.4430   27.2990   45.4250 C   0  0  0  0  0  0  0  0  0  0  0  0
   57.8780   26.0320   45.1950 O   0  0  0  0  0  0  0  0  0  0  0  0
   57.7190   25.0030   46.1730 C   0  0  0  0  0  0  0  0  0  0  0  0
   57.8360   23.6090   45.5070 C   0  0  0  0  0  0  0  0  0  0  0  0
   56.7760   22.6190   45.8940 N   0  0  0  0  0  0  0  0  0  0  0  0
   56.6080   22.6370   47.3750 C   0  0  0  0  0  0  0  0  0  0  0  0
   57.1730   21.2410   45.4560 C   0  0  0  0  0  0  0  0  0  0  0  0
   56.5160   20.7440   44.1440 C   0  0  0  0  0  0  0  0  0  0  0  0
   56.8530   21.5520   42.8640 C   0  0  0  0  0  0  0  0  0  0  0  0
   56.7100   23.0760   42.9910 C   0  0  0  0  0  0  0  0  0  0  0  0
   55.4990   23.5310   43.8310 C   0  0  0  0  0  0  0  0  0  0  0  0
   55.4690   23.0680   45.3090 C   0  0  0  0  0  0  0  0  0  0  0  0
   59.6690   27.3570   46.0790 C   0  0  0  0  0  0  0  0  0  0  0  0
   60.2600   28.5830   46.3700 C   0  0  0  0  0  0  0  0  0  0  0  0
   59.6360   29.7920   46.0010 C   0  0  0  0  0  0  0  0  0  0  0  0
   62.5284   34.5195   46.4092 H   0  0  0  0  0  0  0  0  0  0  0  0
   64.2180   34.2749   45.8506 H   0  0  0  0  0  0  0  0  0  0  0  0
   63.0639   32.8984   45.8506 H   0  0  0  0  0  0  0  0  0  0  0  0
   64.8299   33.7902   47.9611 H   0  0  0  0  0  0  0  0  0  0  0  0
   63.1009   33.9680   48.4956 H   0  0  0  0  0  0  0  0  0  0  0  0
   63.5220   31.4990   47.1830 H   0  0  0  0  0  0  0  0  0  0  0  0
   63.0722   30.7380   49.6231 H   0  0  0  0  0  0  0  0  0  0  0  0
   62.7082   32.5022   49.8489 H   0  0  0  0  0  0  0  0  0  0  0  0
   60.8290   30.6610   49.1431 H   0  0  0  0  0  0  0  0  0  0  0  0
   60.7664   32.4004   48.6719 H   0  0  0  0  0  0  0  0  0  0  0  0
   62.3160   31.1210   46.6850 H   0  0  0  0  0  0  0  0  0  0  0  0
   61.0077   33.5360   46.9133 H   0  0  0  0  0  0  0  0  0  0  0  0
   59.7962   35.6256   46.3320 H   0  0  0  0  0  0  0  0  0  0  0  0
   57.6279   35.5180   45.1189 H   0  0  0  0  0  0  0  0  0  0  0  0
   56.7013   33.3272   44.4066 H   0  0  0  0  0  0  0  0  0  0  0  0
   55.8244   30.8277   44.2521 H   0  0  0  0  0  0  0  0  0  0  0  0
   56.8495   31.7775   43.1234 H   0  0  0  0  0  0  0  0  0  0  0  0
   56.9380   29.9834   43.1234 H   0  0  0  0  0  0  0  0  0  0  0  0
   56.8416   28.4536   44.5260 H   0  0  0  0  0  0  0  0  0  0  0  0
   58.5012   25.1063   46.9395 H   0  0  0  0  0  0  0  0  0  0  0  0
   56.7253   25.0976   46.6352 H   0  0  0  0  0  0  0  0  0  0  0  0
   57.7881   23.7487   44.4170 H   0  0  0  0  0  0  0  0  0  0  0  0
   58.7887   23.1850   45.8571 H   0  0  0  0  0  0  0  0  0  0  0  0
   57.5912   22.5317   47.8569 H   0  0  0  0  0  0  0  0  0  0  0  0
   56.1501   23.5893   47.6805 H   0  0  0  0  0  0  0  0  0  0  0  0
   55.9587   21.8033   47.6805 H   0  0  0  0  0  0  0  0  0  0  0  0
   58.2637   21.2315   45.3138 H   0  0  0  0  0  0  0  0  0  0  0  0
   56.8234   20.5601   46.2461 H   0  0  0  0  0  0  0  0  0  0  0  0
   56.8373   19.7048   43.9799 H   0  0  0  0  0  0  0  0  0  0  0  0
   55.4326   20.8634   44.2923 H   0  0  0  0  0  0  0  0  0  0  0  0
   57.8943   21.3306   42.5871 H   0  0  0  0  0  0  0  0  0  0  0  0
   56.1187   21.2405   42.1065 H   0  0  0  0  0  0  0  0  0  0  0  0
   57.6231   23.4699   43.4611 H   0  0  0  0  0  0  0  0  0  0  0  0
   56.5520   23.4639   41.9739 H   0  0  0  0  0  0  0  0  0  0  0  0
   55.4826   24.6309   43.8251 H   0  0  0  0  0  0  0  0  0  0  0  0
   54.6244   23.0581   43.3603 H   0  0  0  0  0  0  0  0  0  0  0  0
   55.1020   23.9089   45.9158 H   0  0  0  0  0  0  0  0  0  0  0  0
   54.8214   22.1790   45.3237 H   0  0  0  0  0  0  0  0  0  0  0  0
   60.1764   26.4251   46.3690 H   0  0  0  0  0  0  0  0  0  0  0  0
   61.2265   28.6089   46.8947 H   0  0  0  0  0  0  0  0  0  0  0  0
  1  2  1  0
  2  3  1  0
  3  4  1  0
  4  5  1  0
  5  6  1  0
  6  7  1  0
  7  8  2  0
  8  9  1  0
  9 10  2  0
 10 11  1  0
 11 12  2  0
 12 13  1  0
 13 14  2  0
 14 15  1  0
 14 16  1  0
 16 17  2  0
 17 18  1  0
 18 19  1  0
 19 20  1  0
 20 21  1  0
 21 22  1  0
 22 23  1  0
 22 24  1  0
 24 25  1  0
 25 26  1  0
 26 27  1  0
 27 28  1  0
 28 29  1  0
 18 30  2  0
 30 31  1  0
 31 32  2  0
 32  7  1  0
 13  8  1  0
 32 16  1  0
 29 22  1  0
  1 33  1  0
  1 34  1  0
  1 35  1  0
  2 36  1  0
  2 37  1  0
  3 38  1  0
  4 39  1  0
  4 40  1  0
  5 41  1  0
  5 42  1  0
  6 43  1  0
  9 44  1  0
 10 45  1  0
 11 46  1  0
 12 47  1  0
 15 48  1  0
 15 49  1  0
 15 50  1  0
 17 51  1  0
 20 52  1  0
 20 53  1  0
 21 54  1  0
 21 55  1  0
 23 56  1  0
 23 57  1  0
 23 58  1  0
 24 59  1  0
 24 60  1  0
 25 61  1  0
 25 62  1  0
 26 63  1  0
 26 64  1  0
 27 65  1  0
 27 66  1  0
 28 67  1  0
 28 68  1  0
 29 69  1  0
 29 70  1  0
 30 71  1  0
 31 72  1  0
M  CHG  2  14   1  22   1
M  END
>  <UniqueID>  (31) 
30

>  <SMILES>  (31) 
CCNCCNc1c2ccccc2[n+](C)c2cc(OCC[N+]3(C)CCCCCC3)ccc12

>  <Energy>  (31) 
122.04246807112952

>  <Genealogy>  (31) 
CCNCCNc1c2ccccc2[n+](C)c2cc(OCC[N+]3(C)CCCCCC3)ccc12 (3D coordinates assigned)
CCNCCNc1c2ccccc2[n+](C)c2cc(OCC[N+]3(C)CCCCCC3)ccc12 (nonaromatic ring conformer: 122.04246807112952 kcal/mol)

>  <smiles>  (31) 
CCNCCNc1c2ccccc2[n+](C)c2cc(OCC[N+]3(C)CCCCCC3)ccc12

>  <score_type>  (31) 
oracle

>  <origin>  (31) 
adg

>  <m_score__min__energy>  (31) 
-3.8700000000000001

>  <m_primary>  (31) 
energy

$$$$
31:0
     RDKit          3D

 80 83  0  0  0  0  0  0  0  0999 V2000
   63.7840   32.7330   48.4100 C   0  0  0  0  0  0  0  0  0  0  0  0
   62.9690   32.5200   47.1350 C   0  0  0  0  0  0  0  0  0  0  0  0
   62.5580   33.8450   46.4860 C   0  0  0  0  0  0  0  0  0  0  0  0
   61.1700   33.7590   45.9940 N   0  0  0  0  0  0  0  0  0  0  0  0
   60.3920   34.9410   46.3810 C   0  0  0  0  0  0  0  0  0  0  0  0
   59.0180   34.9060   45.7170 C   0  0  0  0  0  0  0  0  0  0  0  0
   59.0240   33.9260   44.6970 O   0  0  0  0  0  0  0  0  0  0  0  0
   57.8720   33.1080   44.7820 C   0  0  0  0  0  0  0  0  0  0  0  0
   58.0630   32.0240   45.8530 C   0  0  0  0  0  0  0  0  0  0  0  0
   59.4730   31.8670   46.2700 N   0  0  0  0  0  0  0  0  0  0  0  0
   59.6230   31.0030   47.4370 C   0  0  0  0  0  0  0  0  0  0  0  0
   59.8210   31.5450   48.7410 C   0  0  0  0  0  0  0  0  0  0  0  0
   59.8290   32.9450   48.9890 C   0  0  0  0  0  0  0  0  0  0  0  0
   59.9700   33.4490   50.2770 C   0  0  0  0  0  0  0  0  0  0  0  0
   60.0910   32.5880   51.3560 C   0  0  0  0  0  0  0  0  0  0  0  0
   60.1070   31.2140   51.1490 C   0  0  0  0  0  0  0  0  0  0  0  0
   60.0130   30.6630   49.8440 C   0  0  0  0  0  0  0  0  0  0  0  0
   60.0980   29.3020   49.6420 N   0  0  0  0  0  0  0  0  0  0  0  0
   60.6310   28.4290   50.7130 C   0  0  0  0  0  0  0  0  0  0  0  0
   59.7220   28.7560   48.4330 C   0  0  0  0  0  0  0  0  0  0  0  0
   59.5080   27.3590   48.2960 C   0  0  0  0  0  0  0  0  0  0  0  0
   59.2260   26.7810   47.0510 C   0  0  0  0  0  0  0  0  0  0  0  0
   59.0440   25.4000   46.8800 O   0  0  0  0  0  0  0  0  0  0  0  0
   57.8020   24.7190   47.0340 C   0  0  0  0  0  0  0  0  0  0  0  0
   57.0630   24.6010   45.6810 C   0  0  0  0  0  0  0  0  0  0  0  0
   56.9560   23.2280   45.0760 N   0  0  0  0  0  0  0  0  0  0  0  0
   56.5030   22.2550   46.1100 C   0  0  0  0  0  0  0  0  0  0  0  0
   55.9150   23.3030   43.9800 C   0  0  0  0  0  0  0  0  0  0  0  0
   56.3220   22.6440   42.6470 C   0  0  0  0  0  0  0  0  0  0  0  0
   57.0040   21.3040   42.8900 C   0  0  0  0  0  0  0  0  0  0  0  0
   58.2480   21.4630   43.7740 C   0  0  0  0  0  0  0  0  0  0  0  0
   58.2890   22.8040   44.5410 C   0  0  0  0  0  0  0  0  0  0  0  0
   59.1240   27.5970   45.9330 C   0  0  0  0  0  0  0  0  0  0  0  0
   59.2600   28.9770   46.0490 C   0  0  0  0  0  0  0  0  0  0  0  0
   59.5320   29.5890   47.2980 C   0  0  0  0  0  0  0  0  0  0  0  0
   63.1424   32.5653   49.2876 H   0  0  0  0  0  0  0  0  0  0  0  0
   64.6252   32.0246   48.4301 H   0  0  0  0  0  0  0  0  0  0  0  0
   64.1710   33.7625   48.4301 H   0  0  0  0  0  0  0  0  0  0  0  0
   63.5753   31.9469   46.4181 H   0  0  0  0  0  0  0  0  0  0  0  0
   62.0518   31.9766   47.4060 H   0  0  0  0  0  0  0  0  0  0  0  0
   62.6312   34.6525   47.2294 H   0  0  0  0  0  0  0  0  0  0  0  0
   63.2280   34.0544   45.6391 H   0  0  0  0  0  0  0  0  0  0  0  0
   61.1900   33.7110   44.9470 H   0  0  0  0  0  0  0  0  0  0  0  0
   60.2676   34.9527   47.4739 H   0  0  0  0  0  0  0  0  0  0  0  0
   60.9261   35.8457   46.0550 H   0  0  0  0  0  0  0  0  0  0  0  0
   58.2528   34.6540   46.4660 H   0  0  0  0  0  0  0  0  0  0  0  0
   58.7892   35.8911   45.2844 H   0  0  0  0  0  0  0  0  0  0  0  0
   57.0044   33.7302   45.0468 H   0  0  0  0  0  0  0  0  0  0  0  0
   57.7063   32.6228   43.8088 H   0  0  0  0  0  0  0  0  0  0  0  0
   57.4642   32.2936   46.7355 H   0  0  0  0  0  0  0  0  0  0  0  0
   57.7406   31.0678   45.4151 H   0  0  0  0  0  0  0  0  0  0  0  0
   60.0200   31.4710   45.4720 H   0  0  0  0  0  0  0  0  0  0  0  0
   59.9160   32.8010   46.3900 H   0  0  0  0  0  0  0  0  0  0  0  0
   59.7215   33.6428   48.1455 H   0  0  0  0  0  0  0  0  0  0  0  0
   59.9856   34.5367   50.4404 H   0  0  0  0  0  0  0  0  0  0  0  0
   60.1743   32.9919   52.3758 H   0  0  0  0  0  0  0  0  0  0  0  0
   60.1943   30.5397   52.0137 H   0  0  0  0  0  0  0  0  0  0  0  0
   60.3721   28.8530   51.6944 H   0  0  0  0  0  0  0  0  0  0  0  0
   60.1918   27.4248   50.6200 H   0  0  0  0  0  0  0  0  0  0  0  0
   61.7249   28.3608   50.6200 H   0  0  0  0  0  0  0  0  0  0  0  0
   59.5648   26.7163   49.1869 H   0  0  0  0  0  0  0  0  0  0  0  0
   57.9916   23.7102   47.4295 H   0  0  0  0  0  0  0  0  0  0  0  0
   57.1714   25.2932   47.7287 H   0  0  0  0  0  0  0  0  0  0  0  0
   56.0405   24.9790   45.8279 H   0  0  0  0  0  0  0  0  0  0  0  0
   57.6746   25.1777   44.9715 H   0  0  0  0  0  0  0  0  0  0  0  0
   56.6952   22.6679   47.1113 H   0  0  0  0  0  0  0  0  0  0  0  0
   55.4255   22.0685   45.9910 H   0  0  0  0  0  0  0  0  0  0  0  0
   57.0539   21.3104   45.9910 H   0  0  0  0  0  0  0  0  0  0  0  0
   55.0027   22.8060   44.3416 H   0  0  0  0  0  0  0  0  0  0  0  0
   55.7740   24.3722   43.7633 H   0  0  0  0  0  0  0  0  0  0  0  0
   55.4224   22.4845   42.0345 H   0  0  0  0  0  0  0  0  0  0  0  0
   57.0276   23.3086   42.1270 H   0  0  0  0  0  0  0  0  0  0  0  0
   56.2950   20.6263   43.3880 H   0  0  0  0  0  0  0  0  0  0  0  0
   57.3185   20.8937   41.9191 H   0  0  0  0  0  0  0  0  0  0  0  0
   58.2627   20.6421   44.5061 H   0  0  0  0  0  0  0  0  0  0  0  0
   59.1237   21.4427   43.1086 H   0  0  0  0  0  0  0  0  0  0  0  0
   58.9861   22.7007   45.3856 H   0  0  0  0  0  0  0  0  0  0  0  0
   58.6106   23.5756   43.8260 H   0  0  0  0  0  0  0  0  0  0  0  0
   58.9340   27.1489   44.9465 H   0  0  0  0  0  0  0  0  0  0  0  0
   59.1542   29.6059   45.1527 H   0  0  0  0  0  0  0  0  0  0  0  0
  1  2  1  0
  2  3  1  0
  3  4  1  0
  4  5  1  0
  5  6  1  0
  6  7  1  0
  7  8  1  0
  8  9  1  0
  9 10  1  0
 10 11  1  0
 11 12  2  0
 12 13  1  0
 13 14  2  0
 14 15  1  0
 15 16  2  0
 16 17  1  0
 17 18  2  0
 18 19  1  0
 18 20  1  0
 20 21  2  0
 21 22  1  0
 22 23  1  0
 23 24  1  0
 24 25  1  0
 25 26  1  0
 26 27  1  0
 26 28  1  0
 28 29  1  0
 29 30  1  0
 30 31  1  0
 31 32  1  0
 22 33  2  0
 33 34  1  0
 34 35  2  0
 35 11  1  0
 17 12  1  0
 35 20  1  0
 32 26  1  0
  1 36  1  0
  1 37  1  0
  1 38  1  0
  2 39  1  0
  2 40  1  0
  3 41  1  0
  3 42  1  0
  4 43  1  0
  5 44  1  0
  5 45  1  0
  6 46  1  0
  6 47  1  0
  8 48  1  0
  8 49  1  0
  9 50  1  0
  9 51  1  0
 10 52  1  0
 10 53  1  0
 13 54  1  0
 14 55  1  0
 15 56  1  0
 16 57  1  0
 19 58  1  0
 19 59  1  0
 19 60  1  0
 21 61  1  0
 24 62  1  0
 24 63  1  0
 25 64  1  0
 25 65  1  0
 27 66  1  0
 27 67  1  0
 27 68  1  0
 28 69  1  0
 28 70  1  0
 29 71  1  0
 29 72  1  0
 30 73  1  0
 30 74  1  0
 31 75  1  0
 31 76  1  0
 32 77  1  0
 32 78  1  0
 33 79  1  0
 34 80  1  0
M  CHG  3  10   1  18   1  26   1
M  END
>  <UniqueID>  (32) 
31

>  <SMILES>  (32) 
CCCNCCOCC[NH2+]c1c2ccccc2[n+](C)c2cc(OCC[N+]3(C)CCCCC3)ccc12

>  <Energy>  (32) 
124.02686537527738

>  <Genealogy>  (32) 
CCCNCCOCC[NH2+]c1c2ccccc2[n+](C)c2cc(OCC[N+]3(C)CCCCC3)ccc12 (protonated)
CCCNCCOCC[NH2+]c1c2ccccc2[n+](C)c2cc(OCC[N+]3(C)CCCCC3)ccc12 (3D coordinates assigned)
CCCNCCOCC[NH2+]c1c2ccccc2[n+](C)c2cc(OCC[N+]3(C)CCCCC3)ccc12 (nonaromatic ring conformer: 124.02686537527738 kcal/mol)

>  <smiles>  (32) 
CCCNCCOCCNc1c2ccccc2[n+](C)c2cc(OCC[N+]3(C)CCCCC3)ccc12

>  <score_type>  (32) 
oracle

>  <origin>  (32) 
adg

>  <m_score__min__energy>  (32) 
-4.3600000000000003

>  <m_primary>  (32) 
energy

$$$$
32:0
     RDKit          3D

 52 54  0  0  0  0  0  0  0  0999 V2000
   59.2730   34.4740   45.2230 C   0  0  0  0  0  0  0  0  0  0  0  0
   60.1460   34.9620   46.3780 C   0  0  0  0  0  0  0  0  0  0  0  0
   60.9180   33.8550   46.9860 N   0  0  0  0  0  0  0  0  0  0  0  0
   62.3580   33.8330   46.6180 C   0  0  0  0  0  0  0  0  0  0  0  0
   63.1330   32.6100   47.1310 C   0  0  0  0  0  0  0  0  0  0  0  0
   60.6920   33.7570   48.4470 C   0  0  0  0  0  0  0  0  0  0  0  0
   59.2640   33.2840   48.7880 C   0  0  0  0  0  0  0  0  0  0  0  0
   58.8210   31.9760   48.0920 C   0  0  0  0  0  0  0  0  0  0  0  0
   59.6320   31.6230   46.9070 N   0  0  0  0  0  0  0  0  0  0  0  0
   59.2110   30.3770   46.2950 C   0  0  0  0  0  0  0  0  0  0  0  0
   58.3620   30.3350   45.1390 C   0  0  0  0  0  0  0  0  0  0  0  0
   57.8960   31.5130   44.4980 C   0  0  0  0  0  0  0  0  0  0  0  0
   57.0440   31.4490   43.3980 C   0  0  0  0  0  0  0  0  0  0  0  0
   56.6280   30.2240   42.9040 C   0  0  0  0  0  0  0  0  0  0  0  0
   57.0810   29.0450   43.4840 C   0  0  0  0  0  0  0  0  0  0  0  0
   57.9700   29.0630   44.5880 C   0  0  0  0  0  0  0  0  0  0  0  0
   58.4530   27.8840   45.1270 N   0  0  0  0  0  0  0  0  0  0  0  0
   58.1630   26.5790   44.4990 C   0  0  0  0  0  0  0  0  0  0  0  0
   59.2060   27.9510   46.2650 C   0  0  0  0  0  0  0  0  0  0  0  0
   59.7080   26.9150   47.0360 C   0  0  0  0  0  0  0  0  0  0  0  0
   60.3710   27.4250   48.0450 O   0  0  0  0  0  0  0  0  0  0  0  0
   60.3250   28.7380   47.9820 C   0  0  0  0  0  0  0  0  0  0  0  0
   60.9600   29.5450   48.9780 N   0  0  0  0  0  0  0  0  0  0  0  0
   59.5860   29.1340   46.8550 C   0  0  0  0  0  0  0  0  0  0  0  0
   58.3791   33.9743   45.6247 H   0  0  0  0  0  0  0  0  0  0  0  0
   58.9674   35.3321   44.6064 H   0  0  0  0  0  0  0  0  0  0  0  0
   59.8439   33.7642   44.6064 H   0  0  0  0  0  0  0  0  0  0  0  0
   60.8475   35.7199   45.9992 H   0  0  0  0  0  0  0  0  0  0  0  0
   59.4875   35.3857   47.1505 H   0  0  0  0  0  0  0  0  0  0  0  0
   62.4315   33.8496   45.5206 H   0  0  0  0  0  0  0  0  0  0  0  0
   62.8142   34.7126   47.0956 H   0  0  0  0  0  0  0  0  0  0  0  0
   63.1326   32.6106   48.2310 H   0  0  0  0  0  0  0  0  0  0  0  0
   62.6520   31.6910   46.7647 H   0  0  0  0  0  0  0  0  0  0  0  0
   64.1693   32.6525   46.7647 H   0  0  0  0  0  0  0  0  0  0  0  0
   61.4122   33.0406   48.8691 H   0  0  0  0  0  0  0  0  0  0  0  0
   60.8255   34.7610   48.8763 H   0  0  0  0  0  0  0  0  0  0  0  0
   59.2078   33.1270   49.8753 H   0  0  0  0  0  0  0  0  0  0  0  0
   58.5863   34.0695   48.4224 H   0  0  0  0  0  0  0  0  0  0  0  0
   58.8951   31.1543   48.8196 H   0  0  0  0  0  0  0  0  0  0  0  0
   57.7917   32.1356   47.7382 H   0  0  0  0  0  0  0  0  0  0  0  0
   60.6410   31.6590   47.1490 H   0  0  0  0  0  0  0  0  0  0  0  0
   59.5580   32.3730   46.1870 H   0  0  0  0  0  0  0  0  0  0  0  0
   58.2140   32.4953   44.8775 H   0  0  0  0  0  0  0  0  0  0  0  0
   56.6995   32.3772   42.9187 H   0  0  0  0  0  0  0  0  0  0  0  0
   55.9365   30.1839   42.0495 H   0  0  0  0  0  0  0  0  0  0  0  0
   56.7433   28.0797   43.0787 H   0  0  0  0  0  0  0  0  0  0  0  0
   57.9953   25.8246   45.2818 H   0  0  0  0  0  0  0  0  0  0  0  0
   57.2621   26.6651   43.8738 H   0  0  0  0  0  0  0  0  0  0  0  0
   59.0156   26.2754   43.8738 H   0  0  0  0  0  0  0  0  0  0  0  0
   59.5725   25.8421   46.8346 H   0  0  0  0  0  0  0  0  0  0  0  0
   60.8180   29.3000   49.9830 H   0  0  0  0  0  0  0  0  0  0  0  0
   61.5430   30.3820   48.7880 H   0  0  0  0  0  0  0  0  0  0  0  0
  1  2  1  0
  2  3  1  0
  3  4  1  0
  4  5  1  0
  3  6  1  0
  6  7  1  0
  7  8  1  0
  8  9  1  0
  9 10  1  0
 10 11  2  0
 11 12  1  0
 12 13  2  0
 13 14  1  0
 14 15  2  0
 15 16  1  0
 16 17  2  0
 17 18  1  0
 17 19  1  0
 19 20  2  0
 20 21  1  0
 21 22  1  0
 22 23  1  0
 22 24  2  0
 24 10  1  0
 16 11  1  0
 24 19  1  0
  1 25  1  0
  1 26  1  0
  1 27  1  0
  2 28  1  0
  2 29  1  0
  4 30  1  0
  4 31  1  0
  5 32  1  0
  5 33  1  0
  5 34  1  0
  6 35  1  0
  6 36  1  0
  7 37  1  0
  7 38  1  0
  8 39  1  0
  8 40  1  0
  9 41  1  0
  9 42  1  0
 12 43  1  0
 13 44  1  0
 14 45  1  0
 15 46  1  0
 18 47  1  0
 18 48  1  0
 18 49  1  0
 20 50  1  0
 23 51  1  0
 23 52  1  0
M  CHG  2   9   1  17   1
M  END
>  <UniqueID>  (33) 
32

>  <SMILES>  (33) 
CCN(CC)CCC[NH2+]c1c2ccccc2[n+](C)c2coc(N)c12

>  <Energy>  (33) 
109.23107594713262

>  <Genealogy>  (33) 
CCN(CC)CCC[NH2+]c1c2ccccc2[n+](C)c2coc(N)c12 (protonated)
CCN(CC)CCC[NH2+]c1c2ccccc2[n+](C)c2coc(N)c12 (3D coordinates assigned)
CCN(CC)CCC[NH2+]c1c2ccccc2[n+](C)c2coc(N)c12 (optimized conformer: 109.23107594713262 kcal/mol)

>  <smiles>  (33) 
CCN(CC)CCCNc1c2ccccc2[n+](C)c2coc(N)c12

>  <score_type>  (33) 
oracle

>  <origin>  (33) 
adg

>  <m_score__min__energy>  (33) 
-3.3500000000000001

>  <m_primary>  (33) 
energy

$$$$
33:0
     RDKit          3D

 54 56  0  0  0  0  0  0  0  0999 V2000
   63.7140   33.1920   46.8200 C   0  0  0  0  0  0  0  0  0  0  0  0
   63.3210   32.7160   48.2230 C   0  0  0  0  0  0  0  0  0  0  0  0
   61.8530   32.7310   48.4410 N   0  0  0  0  0  0  0  0  0  0  0  0
   61.4510   33.9530   49.1840 C   0  0  0  0  0  0  0  0  0  0  0  0
   60.0160   33.8660   49.7010 C   0  0  0  0  0  0  0  0  0  0  0  0
   61.4390   31.4940   49.1580 C   0  0  0  0  0  0  0  0  0  0  0  0
   60.7340   30.4960   48.2200 C   0  0  0  0  0  0  0  0  0  0  0  0
   60.9950   30.7530   46.7870 N   0  0  0  0  0  0  0  0  0  0  0  0
   59.7670   30.8230   46.0000 C   0  0  0  0  0  0  0  0  0  0  0  0
   59.1580   32.0810   45.7340 C   0  0  0  0  0  0  0  0  0  0  0  0
   59.5300   33.2510   46.4410 C   0  0  0  0  0  0  0  0  0  0  0  0
   58.9240   34.4760   46.1720 C   0  0  0  0  0  0  0  0  0  0  0  0
   57.9260   34.5640   45.2110 C   0  0  0  0  0  0  0  0  0  0  0  0
   57.5350   33.4300   44.5060 C   0  0  0  0  0  0  0  0  0  0  0  0
   58.1510   32.1740   44.7360 C   0  0  0  0  0  0  0  0  0  0  0  0
   57.7840   31.0550   44.0220 N   0  0  0  0  0  0  0  0  0  0  0  0
   57.0210   31.1970   42.7610 C   0  0  0  0  0  0  0  0  0  0  0  0
   58.1220   29.8030   44.4890 C   0  0  0  0  0  0  0  0  0  0  0  0
   57.4680   28.6430   44.0030 C   0  0  0  0  0  0  0  0  0  0  0  0
   57.8170   27.3750   44.4560 C   0  0  0  0  0  0  0  0  0  0  0  0
   58.7950   27.2290   45.4300 C   0  0  0  0  0  0  0  0  0  0  0  0
   59.2250   25.5890   46.0240 S   0  0  0  0  0  0  0  0  0  0  0  0
   57.8080   24.7900   45.2080 C   0  0  0  0  0  0  0  0  0  0  0  0
   59.4350   28.3520   45.9530 C   0  0  0  0  0  0  0  0  0  0  0  0
   59.1300   29.6560   45.4870 C   0  0  0  0  0  0  0  0  0  0  0  0
   64.4124   34.0379   46.9020 H   0  0  0  0  0  0  0  0  0  0  0  0
   64.1984   32.3680   46.2756 H   0  0  0  0  0  0  0  0  0  0  0  0
   62.8132   33.5117   46.2756 H   0  0  0  0  0  0  0  0  0  0  0  0
   63.6872   31.6880   48.3616 H   0  0  0  0  0  0  0  0  0  0  0  0
   63.7724   33.4090   48.9483 H   0  0  0  0  0  0  0  0  0  0  0  0
   62.1288   34.0866   50.0400 H   0  0  0  0  0  0  0  0  0  0  0  0
   61.5100   34.8052   48.4910 H   0  0  0  0  0  0  0  0  0  0  0  0
   60.0219   33.8664   50.8010 H   0  0  0  0  0  0  0  0  0  0  0  0
   59.4421   34.7310   49.3371 H   0  0  0  0  0  0  0  0  0  0  0  0
   59.5508   32.9380   49.3371 H   0  0  0  0  0  0  0  0  0  0  0  0
   62.3325   31.0129   49.5825 H   0  0  0  0  0  0  0  0  0  0  0  0
   60.7292   31.7791   49.9485 H   0  0  0  0  0  0  0  0  0  0  0  0
   61.0850   29.4820   48.4621 H   0  0  0  0  0  0  0  0  0  0  0  0
   59.6515   30.6097   48.3788 H   0  0  0  0  0  0  0  0  0  0  0  0
   61.6010   29.9970   46.3980 H   0  0  0  0  0  0  0  0  0  0  0  0
   61.5870   31.6030   46.7310 H   0  0  0  0  0  0  0  0  0  0  0  0
   60.3097   33.1911   47.2146 H   0  0  0  0  0  0  0  0  0  0  0  0
   59.2369   35.3756   46.7222 H   0  0  0  0  0  0  0  0  0  0  0  0
   57.4438   35.5313   45.0067 H   0  0  0  0  0  0  0  0  0  0  0  0
   56.7336   33.5094   43.7567 H   0  0  0  0  0  0  0  0  0  0  0  0
   55.9638   31.3938   42.9923 H   0  0  0  0  0  0  0  0  0  0  0  0
   57.4305   32.0343   42.1769 H   0  0  0  0  0  0  0  0  0  0  0  0
   57.1019   30.2684   42.1769 H   0  0  0  0  0  0  0  0  0  0  0  0
   56.6696   28.7476   43.2536 H   0  0  0  0  0  0  0  0  0  0  0  0
   57.3173   26.4869   44.0418 H   0  0  0  0  0  0  0  0  0  0  0  0
   57.1175   24.4006   45.9706 H   0  0  0  0  0  0  0  0  0  0  0  0
   57.2839   25.5256   44.5801 H   0  0  0  0  0  0  0  0  0  0  0  0
   58.1662   23.9609   44.5801 H   0  0  0  0  0  0  0  0  0  0  0  0
   60.1907   28.2239   46.7420 H   0  0  0  0  0  0  0  0  0  0  0  0
  1  2  1  0
  2  3  1  0
  3  4  1  0
  4  5  1  0
  3  6  1  0
  6  7  1  0
  7  8  1  0
  8  9  1  0
  9 10  2  0
 10 11  1  0
 11 12  2  0
 12 13  1  0
 13 14  2  0
 14 15  1  0
 15 16  2  0
 16 17  1  0
 16 18  1  0
 18 19  2  0
 19 20  1  0
 20 21  2  0
 21 22  1  0
 22 23  1  0
 21 24  1  0
 24 25  2  0
 25  9  1  0
 15 10  1  0
 25 18  1  0
  1 26  1  0
  1 27  1  0
  1 28  1  0
  2 29  1  0
  2 30  1  0
  4 31  1  0
  4 32  1  0
  5 33  1  0
  5 34  1  0
  5 35  1  0
  6 36  1  0
  6 37  1  0
  7 38  1  0
  7 39  1  0
  8 40  1  0
  8 41  1  0
 11 42  1  0
 12 43  1  0
 13 44  1  0
 14 45  1  0
 17 46  1  0
 17 47  1  0
 17 48  1  0
 19 49  1  0
 20 50  1  0
 23 51  1  0
 23 52  1  0
 23 53  1  0
 24 54  1  0
M  CHG  2   8   1  16   1
M  END
>  <UniqueID>  (34) 
33

>  <SMILES>  (34) 
CCN(CC)CC[NH2+]c1c2ccccc2[n+](C)c2ccc(SC)cc12

>  <Energy>  (34) 
80.57439924591043

>  <Genealogy>  (34) 
CCN(CC)CC[NH2+]c1c2ccccc2[n+](C)c2ccc(SC)cc12 (protonated)
CCN(CC)CC[NH2+]c1c2ccccc2[n+](C)c2ccc(SC)cc12 (3D coordinates assigned)
CCN(CC)CC[NH2+]c1c2ccccc2[n+](C)c2ccc(SC)cc12 (optimized conformer: 80.57439924591043 kcal/mol)

>  <smiles>  (34) 
CCN(CC)CCNc1c2ccccc2[n+](C)c2ccc(SC)cc12

>  <score_type>  (34) 
oracle

>  <origin>  (34) 
adg

>  <m_score__min__energy>  (34) 
-4.3700000000000001

>  <m_primary>  (34) 
energy

$$$$
34:0
     RDKit          3D

 50 52  0  0  0  0  0  0  0  0999 V2000
   56.0260   24.2920   44.8450 C   0  0  0  0  0  0  0  0  0  0  0  0
   54.6630   24.6910   45.3960 C   0  0  0  0  0  0  0  0  0  0  0  0
   54.7360   26.0330   45.9880 N   0  0  0  0  0  0  0  0  0  0  0  0
   56.1150   26.3820   46.3620 C   0  0  0  0  0  0  0  0  0  0  0  0
   56.6200   27.5800   45.5520 C   0  0  0  0  0  0  0  0  0  0  0  0
   55.5490   28.4580   45.2490 O   0  0  0  0  0  0  0  0  0  0  0  0
   56.0110   29.6740   44.6920 C   0  0  0  0  0  0  0  0  0  0  0  0
   56.9960   29.4020   43.5520 C   0  0  0  0  0  0  0  0  0  0  0  0
   58.2780   30.0560   43.8080 N   0  0  0  0  0  0  0  0  0  0  0  0
   58.6380   30.4410   45.1420 C   0  0  0  0  0  0  0  0  0  0  0  0
   59.2450   29.5160   46.0060 C   0  0  0  0  0  0  0  0  0  0  0  0
   59.5610   28.2150   45.5610 C   0  0  0  0  0  0  0  0  0  0  0  0
   60.2050   27.3140   46.4030 C   0  0  0  0  0  0  0  0  0  0  0  0
   60.5590   27.6960   47.6920 C   0  0  0  0  0  0  0  0  0  0  0  0
   60.2500   28.9740   48.1550 C   0  0  0  0  0  0  0  0  0  0  0  0
   59.5580   29.9040   47.3360 C   0  0  0  0  0  0  0  0  0  0  0  0
   59.2100   31.1610   47.7930 N   0  0  0  0  0  0  0  0  0  0  0  0
   59.2770   31.4690   49.2390 C   0  0  0  0  0  0  0  0  0  0  0  0
   58.7760   32.1250   46.9010 C   0  0  0  0  0  0  0  0  0  0  0  0
   58.6570   33.4900   47.2720 C   0  0  0  0  0  0  0  0  0  0  0  0
   58.1670   34.4390   46.3740 C   0  0  0  0  0  0  0  0  0  0  0  0
   57.7950   34.0630   45.0890 C   0  0  0  0  0  0  0  0  0  0  0  0
   57.9390   32.7390   44.6810 C   0  0  0  0  0  0  0  0  0  0  0  0
   58.4480   31.7650   45.5670 C   0  0  0  0  0  0  0  0  0  0  0  0
   56.7141   24.0906   45.6793 H   0  0  0  0  0  0  0  0  0  0  0  0
   55.9217   23.3867   44.2289 H   0  0  0  0  0  0  0  0  0  0  0  0
   56.4264   25.1106   44.2289 H   0  0  0  0  0  0  0  0  0  0  0  0
   53.9258   24.6922   44.5796 H   0  0  0  0  0  0  0  0  0  0  0  0
   54.3602   23.9701   46.1697 H   0  0  0  0  0  0  0  0  0  0  0  0
   54.4220   26.7170   45.2590 H   0  0  0  0  0  0  0  0  0  0  0  0
   56.1440   26.6342   47.4323 H   0  0  0  0  0  0  0  0  0  0  0  0
   56.7633   25.5190   46.1502 H   0  0  0  0  0  0  0  0  0  0  0  0
   57.3773   28.1208   46.1385 H   0  0  0  0  0  0  0  0  0  0  0  0
   57.0597   27.2155   44.6119 H   0  0  0  0  0  0  0  0  0  0  0  0
   55.1537   30.2421   44.3018 H   0  0  0  0  0  0  0  0  0  0  0  0
   56.5241   30.2515   45.4751 H   0  0  0  0  0  0  0  0  0  0  0  0
   57.1555   28.3172   43.4641 H   0  0  0  0  0  0  0  0  0  0  0  0
   56.5751   29.8035   42.6184 H   0  0  0  0  0  0  0  0  0  0  0  0
   58.8880   30.3680   43.0180 H   0  0  0  0  0  0  0  0  0  0  0  0
   59.2955   27.9100   44.5380 H   0  0  0  0  0  0  0  0  0  0  0  0
   60.4343   26.2983   46.0485 H   0  0  0  0  0  0  0  0  0  0  0  0
   61.0847   26.9873   48.3488 H   0  0  0  0  0  0  0  0  0  0  0  0
   60.5476   29.2668   49.1727 H   0  0  0  0  0  0  0  0  0  0  0  0
   59.0782   30.5552   49.8181 H   0  0  0  0  0  0  0  0  0  0  0  0
   60.2789   31.8495   49.4868 H   0  0  0  0  0  0  0  0  0  0  0  0
   58.5237   32.2313   49.4868 H   0  0  0  0  0  0  0  0  0  0  0  0
   58.9556   33.8045   48.2829 H   0  0  0  0  0  0  0  0  0  0  0  0
   58.0747   35.4901   46.6849 H   0  0  0  0  0  0  0  0  0  0  0  0
   57.3866   34.8112   44.3937 H   0  0  0  0  0  0  0  0  0  0  0  0
   57.6534   32.4497   43.6589 H   0  0  0  0  0  0  0  0  0  0  0  0
  1  2  1  0
  2  3  1  0
  3  4  1  0
  4  5  1  0
  5  6  1  0
  6  7  1  0
  7  8  1  0
  8  9  1  0
  9 10  1  0
 10 11  2  0
 11 12  1  0
 12 13  2  0
 13 14  1  0
 14 15  2  0
 15 16  1  0
 16 17  2  0
 17 18  1  0
 17 19  1  0
 19 20  2  0
 20 21  1  0
 21 22  2  0
 22 23  1  0
 23 24  2  0
 24 10  1  0
 16 11  1  0
 24 19  1  0
  1 25  1  0
  1 26  1  0
  1 27  1  0
  2 28  1  0
  2 29  1  0
  3 30  1  0
  4 31  1  0
  4 32  1  0
  5 33  1  0
  5 34  1  0
  7 35  1  0
  7 36  1  0
  8 37  1  0
  8 38  1  0
  9 39  1  0
 12 40  1  0
 13 41  1  0
 14 42  1  0
 15 43  1  0
 18 44  1  0
 18 45  1  0
 18 46  1  0
 20 47  1  0
 21 48  1  0
 22 49  1  0
 23 50  1  0
M  CHG  1  17   1
M  END
>  <UniqueID>  (35) 
34

>  <SMILES>  (35) 
CCNCCOCCNc1c2ccccc2[n+](C)c2ccccc12

>  <Energy>  (35) 
73.564723455513

>  <Genealogy>  (35) 
CCNCCOCCNc1c2ccccc2[n+](C)c2ccccc12 (3D coordinates assigned)
CCNCCOCCNc1c2ccccc2[n+](C)c2ccccc12 (optimized conformer: 73.564723455513 kcal/mol)

>  <smiles>  (35) 
CCNCCOCCNc1c2ccccc2[n+](C)c2ccccc12

>  <score_type>  (35) 
oracle

>  <origin>  (35) 
adg

>  <m_score__min__energy>  (35) 
-6.4699999999999998

>  <m_primary>  (35) 
energy

$$$$
