0:0
     RDKit          3D

 54 57  0  0  0  0  0  0  0  0999 V2000
   57.3910   30.3980   44.1060 C   0  0  0  0  0  0  0  0  0  0  0  0
   57.1270   31.1980   45.2540 O   0  0  0  0  0  0  0  0  0  0  0  0
   57.7800   32.3950   45.6120 C   0  0  0  0  0  0  0  0  0  0  0  0
   57.8760   33.3780   44.6170 C   0  0  0  0  0  0  0  0  0  0  0  0
   58.4960   34.6010   44.8720 C   0  0  0  0  0  0  0  0  0  0  0  0
   59.0150   34.8680   46.1370 C   0  0  0  0  0  0  0  0  0  0  0  0
   58.9250   33.9080   47.1460 C   0  0  0  0  0  0  0  0  0  0  0  0
   58.3340   32.6550   46.8950 C   0  0  0  0  0  0  0  0  0  0  0  0
   58.2070   31.7020   47.9580 N   0  0  0  0  0  0  0  0  0  0  0  0
   58.9450   30.4840   48.1160 C   0  0  0  0  0  0  0  0  0  0  0  0
   59.7470   30.1390   47.2090 O   0  0  0  0  0  0  0  0  0  0  0  0
   58.8270   29.6310   49.3490 C   0  0  0  0  0  0  0  0  0  0  0  0
   58.9970   30.4570   50.5550 N   0  0  0  0  0  0  0  0  0  0  0  0
   58.0610   30.3100   51.6480 C   0  0  0  0  0  0  0  0  0  0  0  0
   57.3480   29.2750   51.7430 O   0  0  0  0  0  0  0  0  0  0  0  0
   57.9300   31.3870   52.6830 C   0  0  0  0  0  0  0  0  0  0  0  0
   57.8810   32.9930   51.8320 S   0  0  0  0  0  0  0  0  0  0  0  0
   59.5340   32.7910   51.1630 C   0  0  0  0  0  0  0  0  0  0  0  0
   60.4460   33.8460   51.2610 C   0  0  0  0  0  0  0  0  0  0  0  0
   61.7330   33.7120   50.7370 C   0  0  0  0  0  0  0  0  0  0  0  0
   62.1310   32.5070   50.1440 C   0  0  0  0  0  0  0  0  0  0  0  0
   63.7770   32.3230   49.5320 S   0  0  0  0  0  0  0  0  0  0  0  0
   64.5990   33.5060   49.9650 O   0  0  0  0  0  0  0  0  0  0  0  0
   64.3920   31.0890   50.1310 O   0  0  0  0  0  0  0  0  0  0  0  0
   63.8170   32.2060   47.7840 N   0  0  0  0  0  0  0  0  0  0  0  0
   62.6810   31.4330   47.2650 C   0  0  0  0  0  0  0  0  0  0  0  0
   61.6140   32.4160   46.8040 C   0  0  0  0  0  0  0  0  0  0  0  0
   62.2970   33.7680   46.7310 C   0  0  0  0  0  0  0  0  0  0  0  0
   63.7400   33.5310   47.1550 C   0  0  0  0  0  0  0  0  0  0  0  0
   61.2230   31.4410   50.0630 C   0  0  0  0  0  0  0  0  0  0  0  0
   59.9130   31.5770   50.5580 C   0  0  0  0  0  0  0  0  0  0  0  0
   57.7210   29.3980   44.4240 H   0  0  0  0  0  0  0  0  0  0  0  0
   56.4751   30.3075   43.5036 H   0  0  0  0  0  0  0  0  0  0  0  0
   58.1809   30.8705   43.5036 H   0  0  0  0  0  0  0  0  0  0  0  0
   57.4558   33.1816   43.6196 H   0  0  0  0  0  0  0  0  0  0  0  0
   58.5752   35.3545   44.0746 H   0  0  0  0  0  0  0  0  0  0  0  0
   59.4960   35.8361   46.3407 H   0  0  0  0  0  0  0  0  0  0  0  0
   59.3199   34.1326   48.1478 H   0  0  0  0  0  0  0  0  0  0  0  0
   57.8345   29.1572   49.3697 H   0  0  0  0  0  0  0  0  0  0  0  0
   59.6105   28.8592   49.3285 H   0  0  0  0  0  0  0  0  0  0  0  0
   57.0025   31.2413   53.2562 H   0  0  0  0  0  0  0  0  0  0  0  0
   58.7826   31.3516   53.3771 H   0  0  0  0  0  0  0  0  0  0  0  0
   60.1487   34.7842   51.7523 H   0  0  0  0  0  0  0  0  0  0  0  0
   62.4370   34.5556   50.7900 H   0  0  0  0  0  0  0  0  0  0  0  0
   64.7150   31.7380   47.5180 H   0  0  0  0  0  0  0  0  0  0  0  0
   63.0079   30.8124   46.4176 H   0  0  0  0  0  0  0  0  0  0  0  0
   62.2793   30.7723   48.0474 H   0  0  0  0  0  0  0  0  0  0  0  0
   61.2301   32.1275   45.8144 H   0  0  0  0  0  0  0  0  0  0  0  0
   60.7568   32.4336   47.4931 H   0  0  0  0  0  0  0  0  0  0  0  0
   62.2597   34.1604   45.7041 H   0  0  0  0  0  0  0  0  0  0  0  0
   61.8019   34.5057   47.3795 H   0  0  0  0  0  0  0  0  0  0  0  0
   64.3981   33.5648   46.2742 H   0  0  0  0  0  0  0  0  0  0  0  0
   64.0629   34.3090   47.8625 H   0  0  0  0  0  0  0  0  0  0  0  0
   61.5379   30.4901   49.6084 H   0  0  0  0  0  0  0  0  0  0  0  0
  1  2  1  0
  2  3  1  0
  3  4  2  0
  4  5  1  0
  5  6  2  0
  6  7  1  0
  7  8  2  0
  8  9  1  0
  9 10  1  0
 10 11  2  0
 10 12  1  0
 12 13  1  0
 13 14  1  0
 14 15  2  0
 14 16  1  0
 16 17  1  0
 17 18  1  0
 18 19  2  0
 19 20  1  0
 20 21  2  0
 21 22  1  0
 22 23  2  0
 22 24  2  0
 22 25  1  0
 25 26  1  0
 26 27  1  0
 27 28  1  0
 28 29  1  0
 21 30  1  0
 30 31  2  0
  8  3  1  0
 31 13  1  0
 31 18  1  0
 29 25  1  0
  1 32  1  0
  1 33  1  0
  1 34  1  0
  4 35  1  0
  5 36  1  0
  6 37  1  0
  7 38  1  0
 12 39  1  0
 12 40  1  0
 16 41  1  0
 16 42  1  0
 19 43  1  0
 20 44  1  0
 25 45  1  0
 26 46  1  0
 26 47  1  0
 27 48  1  0
 27 49  1  0
 28 50  1  0
 28 51  1  0
 29 52  1  0
 29 53  1  0
 30 54  1  0
M  CHG  2   9  -1  25   1
M  END
>  <UniqueID>  (1) 
1

>  <SMILES>  (1) 
COc1ccccc1[N-]C(=O)CN1C(=O)CSc2ccc(S(=O)(=O)[NH+]3CCCC3)cc21

>  <Energy>  (1) 
71.12598180368602

>  <Genealogy>  (1) 
COc1ccccc1[N-]C(=O)CN1C(=O)CSc2ccc(S(=O)(=O)[NH+]3CCCC3)cc21 (protonated)
COc1ccccc1[N-]C(=O)CN1C(=O)CSc2ccc(S(=O)(=O)[NH+]3CCCC3)cc21 (3D coordinates assigned)
COc1ccccc1[N-]C(=O)CN1C(=O)CSc2ccc(S(=O)(=O)[NH+]3CCCC3)cc21 (nonaromatic ring conformer: 71.12598180368602 kcal/mol)

>  <smiles>  (1) 
COc1ccccc1NC(=O)CN1C(=O)CSc2ccc(S(=O)(=O)N3CCCC3)cc21

>  <score_type>  (1) 
oracle

>  <origin>  (1) 
adg

>  <m_score__min__energy>  (1) 
-10.06

>  <m_primary>  (1) 
energy

$$$$
1:0
     RDKit          3D

 47 49  0  0  0  0  0  0  0  0999 V2000
   66.5320   34.2460   52.0170 C   0  0  0  0  0  0  0  0  0  0  0  0
   66.7770   33.5630   50.7340 N   0  0  0  0  0  0  0  0  0  0  0  0
   68.2240   33.5150   50.4720 C   0  0  0  0  0  0  0  0  0  0  0  0
   66.2050   32.1980   50.7430 C   0  0  0  0  0  0  0  0  0  0  0  0
   64.7300   32.1960   50.2930 C   0  0  0  0  0  0  0  0  0  0  0  0
   64.3020   33.5030   49.7160 N   0  0  1  0  0  0  0  0  0  0  0  0
   64.3150   33.4710   48.2340 C   0  0  0  0  0  0  0  0  0  0  0  0
   63.2480   32.5230   47.6520 C   0  0  0  0  0  0  0  0  0  0  0  0
   61.9160   32.5760   48.4370 C   0  0  2  0  0  0  0  0  0  0  0  0
   60.7160   32.4150   47.5210 C   0  0  0  0  0  0  0  0  0  0  0  0
   60.1290   31.1330   47.3400 C   0  0  0  0  0  0  0  0  0  0  0  0
   59.0160   30.9620   46.4980 C   0  0  0  0  0  0  0  0  0  0  0  0
   58.5120   32.0860   45.8490 C   0  0  0  0  0  0  0  0  0  0  0  0
   57.4570   32.2390   44.9760 C   0  0  0  0  0  0  0  0  0  0  0  0
   56.5680   31.2160   44.4950 C   0  0  0  0  0  0  0  0  0  0  0  0
   55.8510   30.3920   44.1070 N   0  0  0  0  0  0  0  0  0  0  0  0
   57.4230   33.5870   44.6450 C   0  0  0  0  0  0  0  0  0  0  0  0
   58.4150   34.2480   45.2830 N   0  0  0  0  0  0  0  0  0  0  0  0
   59.0700   33.3260   46.0120 C   0  0  0  0  0  0  0  0  0  0  0  0
   60.1720   33.5300   46.8390 C   0  0  0  0  0  0  0  0  0  0  0  0
   61.8090   33.8580   49.2750 C   0  0  0  0  0  0  0  0  0  0  0  0
   62.9890   33.9700   50.2630 C   0  0  0  0  0  0  0  0  0  0  0  0
   66.7759   33.5662   52.8467 H   0  0  0  0  0  0  0  0  0  0  0  0
   67.1640   35.1440   52.0809 H   0  0  0  0  0  0  0  0  0  0  0  0
   65.4733   34.5375   52.0809 H   0  0  0  0  0  0  0  0  0  0  0  0
   68.7692   33.4969   51.4272 H   0  0  0  0  0  0  0  0  0  0  0  0
   68.4625   32.6084   49.8964 H   0  0  0  0  0  0  0  0  0  0  0  0
   68.5221   34.4037   49.8964 H   0  0  0  0  0  0  0  0  0  0  0  0
   66.7873   31.5627   50.0594 H   0  0  0  0  0  0  0  0  0  0  0  0
   66.2505   31.8134   51.7726 H   0  0  0  0  0  0  0  0  0  0  0  0
   64.5957   31.4142   49.5310 H   0  0  0  0  0  0  0  0  0  0  0  0
   64.1116   32.0075   51.1830 H   0  0  0  0  0  0  0  0  0  0  0  0
   65.0170   34.2220   49.9800 H   0  0  0  0  0  0  0  0  0  0  0  0
   65.3067   33.1341   47.8976 H   0  0  0  0  0  0  0  0  0  0  0  0
   64.0887   34.4865   47.8769 H   0  0  0  0  0  0  0  0  0  0  0  0
   63.6354   31.4940   47.6839 H   0  0  0  0  0  0  0  0  0  0  0  0
   63.0411   32.8458   46.6210 H   0  0  0  0  0  0  0  0  0  0  0  0
   61.9149   31.7226   49.1310 H   0  0  0  0  0  0  0  0  0  0  0  0
   60.5510   30.2636   47.8654 H   0  0  0  0  0  0  0  0  0  0  0  0
   58.5581   29.9719   46.3565 H   0  0  0  0  0  0  0  0  0  0  0  0
   56.6948   34.0499   43.9628 H   0  0  0  0  0  0  0  0  0  0  0  0
   58.6280   35.2690   45.2190 H   0  0  0  0  0  0  0  0  0  0  0  0
   60.6087   34.5324   46.9592 H   0  0  0  0  0  0  0  0  0  0  0  0
   60.8659   33.8407   49.8409 H   0  0  0  0  0  0  0  0  0  0  0  0
   61.8346   34.7241   48.5973 H   0  0  0  0  0  0  0  0  0  0  0  0
   62.7522   33.3658   51.1512 H   0  0  0  0  0  0  0  0  0  0  0  0
   63.1069   35.0398   50.4901 H   0  0  0  0  0  0  0  0  0  0  0  0
  1  2  1  0
  2  3  1  0
  2  4  1  0
  4  5  1  0
  5  6  1  0
  6  7  1  0
  7  8  1  0
  8  9  1  0
  9 10  1  0
 10 11  2  0
 11 12  1  0
 12 13  2  0
 13 14  1  0
 14 15  1  0
 15 16  3  0
 14 17  2  0
 17 18  1  0
 18 19  1  0
 19 20  2  0
  9 21  1  0
 21 22  1  0
 22  6  1  0
 20 10  1  0
 19 13  1  0
  1 23  1  0
  1 24  1  0
  1 25  1  0
  3 26  1  0
  3 27  1  0
  3 28  1  0
  4 29  1  0
  4 30  1  0
  5 31  1  0
  5 32  1  0
  6 33  1  1
  7 34  1  0
  7 35  1  0
  8 36  1  0
  8 37  1  0
  9 38  1  1
 11 39  1  0
 12 40  1  0
 17 41  1  0
 18 42  1  0
 20 43  1  0
 21 44  1  0
 21 45  1  0
 22 46  1  0
 22 47  1  0
M  CHG  1   6   1
M  END
>  <UniqueID>  (2) 
2

>  <SMILES>  (2) 
CN(C)CC[NH+]1CCC(c2ccc3c(C#N)c[nH]c3c2)CC1

>  <Energy>  (2) 
92.35706076857153

>  <Genealogy>  (2) 
CN(C)CC[NH+]1CCC(c2ccc3c(C#N)c[nH]c3c2)CC1 (protonated)
CN(C)CC[NH+]1CCC(c2ccc3c(C#N)c[nH]c3c2)CC1 (3D coordinates assigned)
CN(C)CC[NH+]1CCC(c2ccc3c(C#N)c[nH]c3c2)CC1 (nonaromatic ring conformer: 92.35706076857153 kcal/mol)

>  <smiles>  (2) 
CN(C)CCN1CCC(c2ccc3c(C#N)c[nH]c3c2)CC1

>  <score_type>  (2) 
oracle

>  <origin>  (2) 
adg

>  <m_score__min__energy>  (2) 
-5.9800000000000004

>  <m_primary>  (2) 
energy

$$$$
2:0
     RDKit          3D

 40 44  0  0  0  0  0  0  0  0999 V2000
   65.5490   33.4670   50.4970 C   0  0  0  0  0  0  0  0  0  0  0  0
   64.6570   33.9390   51.4630 C   0  0  0  0  0  0  0  0  0  0  0  0
   63.2880   33.6810   51.3400 C   0  0  0  0  0  0  0  0  0  0  0  0
   62.7970   32.9450   50.2460 C   0  0  0  0  0  0  0  0  0  0  0  0
   61.3480   32.6670   50.1040 C   0  0  0  0  0  0  0  0  0  0  0  0
   60.5810   32.0290   51.0300 N   0  0  0  0  0  0  0  0  0  0  0  0
   59.3240   31.9480   50.5940 N   0  0  0  0  0  0  0  0  0  0  0  0
   58.2450   31.3240   51.3140 C   0  0  0  0  0  0  0  0  0  0  0  0
   58.3360   29.9730   51.6930 C   0  0  0  0  0  0  0  0  0  0  0  0
   57.2930   29.3640   52.3950 C   0  0  0  0  0  0  0  0  0  0  0  0
   56.1520   30.0970   52.7320 C   0  0  0  0  0  0  0  0  0  0  0  0
   56.0550   31.4420   52.3670 C   0  0  0  0  0  0  0  0  0  0  0  0
   57.0950   32.0550   51.6630 C   0  0  0  0  0  0  0  0  0  0  0  0
   59.2830   32.5340   49.3830 C   0  0  0  0  0  0  0  0  0  0  0  0
   58.2190   32.6610   48.5500 N   0  0  0  0  0  0  0  0  0  0  0  0
   58.4140   33.2940   47.3530 C   0  0  0  0  0  0  0  0  0  0  0  0
   57.3510   33.4590   46.4600 C   0  0  0  0  0  0  0  0  0  0  0  0
   57.5580   34.1110   45.2390 C   0  0  0  0  0  0  0  0  0  0  0  0
   58.8260   34.6000   44.9050 C   0  0  0  0  0  0  0  0  0  0  0  0
   59.9020   34.4420   45.7870 C   0  0  0  0  0  0  0  0  0  0  0  0
   59.7110   33.7920   47.0110 C   0  0  0  0  0  0  0  0  0  0  0  0
   60.7570   33.6290   47.8760 N   0  0  0  0  0  0  0  0  0  0  0  0
   60.5180   32.9890   49.0460 C   0  0  0  0  0  0  0  0  0  0  0  0
   63.7050   32.4790   49.2770 C   0  0  0  0  0  0  0  0  0  0  0  0
   65.0730   32.7390   49.4050 C   0  0  0  0  0  0  0  0  0  0  0  0
   66.6257   33.6688   50.5967 H   0  0  0  0  0  0  0  0  0  0  0  0
   65.0321   34.5147   52.3220 H   0  0  0  0  0  0  0  0  0  0  0  0
   62.5905   34.0559   52.1035 H   0  0  0  0  0  0  0  0  0  0  0  0
   60.9140   31.6540   51.9470 H   0  0  0  0  0  0  0  0  0  0  0  0
   59.2339   29.3922   51.4352 H   0  0  0  0  0  0  0  0  0  0  0  0
   57.3701   28.3052   52.6831 H   0  0  0  0  0  0  0  0  0  0  0  0
   55.3313   29.6156   53.2840 H   0  0  0  0  0  0  0  0  0  0  0  0
   55.1580   32.0198   52.6343 H   0  0  0  0  0  0  0  0  0  0  0  0
   57.0139   33.1149   51.3802 H   0  0  0  0  0  0  0  0  0  0  0  0
   56.3522   33.0765   46.7170 H   0  0  0  0  0  0  0  0  0  0  0  0
   56.7198   34.2397   44.5384 H   0  0  0  0  0  0  0  0  0  0  0  0
   58.9784   35.1118   43.9433 H   0  0  0  0  0  0  0  0  0  0  0  0
   60.8961   34.8284   45.5178 H   0  0  0  0  0  0  0  0  0  0  0  0
   63.3362   31.9065   48.4132 H   0  0  0  0  0  0  0  0  0  0  0  0
   65.7755   32.3691   48.6437 H   0  0  0  0  0  0  0  0  0  0  0  0
  1  2  2  0
  2  3  1  0
  3  4  2  0
  4  5  1  0
  5  6  2  0
  6  7  1  0
  7  8  1  0
  8  9  2  0
  9 10  1  0
 10 11  2  0
 11 12  1  0
 12 13  2  0
  7 14  1  0
 14 15  2  0
 15 16  1  0
 16 17  2  0
 17 18  1  0
 18 19  2  0
 19 20  1  0
 20 21  2  0
 21 22  1  0
 22 23  2  0
  4 24  1  0
 24 25  2  0
 25  1  1  0
 23  5  1  0
 13  8  1  0
 23 14  1  0
 21 16  1  0
  1 26  1  0
  2 27  1  0
  3 28  1  0
  6 29  1  0
  9 30  1  0
 10 31  1  0
 11 32  1  0
 12 33  1  0
 13 34  1  0
 17 35  1  0
 18 36  1  0
 19 37  1  0
 20 38  1  0
 24 39  1  0
 25 40  1  0
M  CHG  1   6   1
M  END
>  <UniqueID>  (3) 
3

>  <SMILES>  (3) 
c1ccc(-c2[nH+]n(-c3ccccc3)c3nc4ccccc4nc23)cc1

>  <Energy>  (3) 
101.41199938764669

>  <Genealogy>  (3) 
c1ccc(-c2[nH+]n(-c3ccccc3)c3nc4ccccc4nc23)cc1 (protonated)
c1ccc(-c2[nH+]n(-c3ccccc3)c3nc4ccccc4nc23)cc1 (3D coordinates assigned)
c1ccc(-c2[nH+]n(-c3ccccc3)c3nc4ccccc4nc23)cc1 (optimized conformer: 101.41199938764669 kcal/mol)

>  <smiles>  (3) 
c1ccc(-c2nn(-c3ccccc3)c3nc4ccccc4nc23)cc1

>  <score_type>  (3) 
oracle

>  <origin>  (3) 
adg

>  <m_score__min__energy>  (3) 
-6.1299999999999999

>  <m_primary>  (3) 
energy

$$$$
3:0
     RDKit          3D

 52 55  0  0  0  0  0  0  0  0999 V2000
   59.1060   22.9090   45.2150 C   0  0  0  0  0  0  0  0  0  0  0  0
   59.8820   23.8370   45.9660 O   0  0  0  0  0  0  0  0  0  0  0  0
   59.5800   25.2020   46.0890 C   0  0  0  0  0  0  0  0  0  0  0  0
   60.6240   26.0920   46.3720 C   0  0  0  0  0  0  0  0  0  0  0  0
   60.3750   27.4620   46.5020 C   0  0  0  0  0  0  0  0  0  0  0  0
   59.0740   27.9620   46.3480 C   0  0  0  0  0  0  0  0  0  0  0  0
   58.8160   29.3770   46.4780 N   0  0  0  0  0  0  0  0  0  0  0  0
   58.5990   30.1310   45.3600 C   0  0  0  0  0  0  0  0  0  0  0  0
   58.6180   29.5880   44.2180 O   0  0  0  0  0  0  0  0  0  0  0  0
   58.3330   31.5020   45.4780 C   0  0  0  0  0  0  0  0  0  0  0  0
   58.0830   32.2940   44.3380 C   0  0  0  0  0  0  0  0  0  0  0  0
   57.7920   33.6520   44.4700 C   0  0  0  0  0  0  0  0  0  0  0  0
   57.7370   34.2320   45.7350 C   0  0  0  0  0  0  0  0  0  0  0  0
   57.9860   33.4630   46.8740 C   0  0  0  0  0  0  0  0  0  0  0  0
   58.3060   32.0830   46.7690 C   0  0  0  0  0  0  0  0  0  0  0  0
   58.5730   31.3020   47.8760 N   0  0  0  0  0  0  0  0  0  0  0  0
   58.6040   31.8830   49.2420 C   0  0  0  0  0  0  0  0  0  0  0  0
   60.0000   32.2510   49.6610 C   0  0  0  0  0  0  0  0  0  0  0  0
   60.2210   33.3580   50.2330 O   0  0  0  0  0  0  0  0  0  0  0  0
   61.0690   31.3140   49.4450 N   0  0  0  0  0  0  0  0  0  0  0  0
   62.4600   31.6360   49.6120 C   0  0  0  0  0  0  0  0  0  0  0  0
   63.0480   32.6020   48.7780 C   0  0  0  0  0  0  0  0  0  0  0  0
   64.3930   32.9480   48.9370 C   0  0  0  0  0  0  0  0  0  0  0  0
   65.1610   32.3560   49.9520 C   0  0  0  0  0  0  0  0  0  0  0  0
   66.6090   32.7160   50.1040 C   0  0  0  0  0  0  0  0  0  0  0  0
   64.5750   31.3910   50.7870 C   0  0  0  0  0  0  0  0  0  0  0  0
   63.2310   31.0400   50.6260 C   0  0  0  0  0  0  0  0  0  0  0  0
   58.7960   29.9510   47.7240 C   0  0  0  0  0  0  0  0  0  0  0  0
   58.9940   29.2250   48.7410 O   0  0  0  0  0  0  0  0  0  0  0  0
   58.0250   27.0740   46.0640 C   0  0  0  0  0  0  0  0  0  0  0  0
   58.2720   25.7040   45.9350 C   0  0  0  0  0  0  0  0  0  0  0  0
   58.5553   22.2504   45.9027 H   0  0  0  0  0  0  0  0  0  0  0  0
   58.3926   23.4560   44.5811 H   0  0  0  0  0  0  0  0  0  0  0  0
   59.7706   22.3037   44.5811 H   0  0  0  0  0  0  0  0  0  0  0  0
   61.6484   25.7101   46.4930 H   0  0  0  0  0  0  0  0  0  0  0  0
   61.2033   28.1503   46.7260 H   0  0  0  0  0  0  0  0  0  0  0  0
   58.1177   31.8377   43.3377 H   0  0  0  0  0  0  0  0  0  0  0  0
   57.6061   34.2644   43.5753 H   0  0  0  0  0  0  0  0  0  0  0  0
   57.4964   35.3005   45.8375 H   0  0  0  0  0  0  0  0  0  0  0  0
   57.9335   33.9330   47.8672 H   0  0  0  0  0  0  0  0  0  0  0  0
   57.9774   32.7869   49.2587 H   0  0  0  0  0  0  0  0  0  0  0  0
   58.2249   31.1258   49.9441 H   0  0  0  0  0  0  0  0  0  0  0  0
   60.8140   30.3200   49.2470 H   0  0  0  0  0  0  0  0  0  0  0  0
   62.4467   33.0885   47.9959 H   0  0  0  0  0  0  0  0  0  0  0  0
   64.8515   33.6873   48.2639 H   0  0  0  0  0  0  0  0  0  0  0  0
   66.8610   32.7787   51.1729 H   0  0  0  0  0  0  0  0  0  0  0  0
   67.2307   31.9451   49.6253 H   0  0  0  0  0  0  0  0  0  0  0  0
   66.7973   33.6883   49.6253 H   0  0  0  0  0  0  0  0  0  0  0  0
   65.1763   30.9087   51.5718 H   0  0  0  0  0  0  0  0  0  0  0  0
   62.7752   30.2951   51.2948 H   0  0  0  0  0  0  0  0  0  0  0  0
   57.0016   27.4585   45.9421 H   0  0  0  0  0  0  0  0  0  0  0  0
   57.4431   25.0159   45.7127 H   0  0  0  0  0  0  0  0  0  0  0  0
  1  2  1  0
  2  3  1  0
  3  4  2  0
  4  5  1  0
  5  6  2  0
  6  7  1  0
  7  8  1  0
  8  9  2  0
  8 10  1  0
 10 11  2  0
 11 12  1  0
 12 13  2  0
 13 14  1  0
 14 15  2  0
 15 16  1  0
 16 17  1  0
 17 18  1  0
 18 19  2  0
 18 20  1  0
 20 21  1  0
 21 22  2  0
 22 23  1  0
 23 24  2  0
 24 25  1  0
 24 26  1  0
 26 27  2  0
 16 28  1  0
 28 29  2  0
  6 30  1  0
 30 31  2  0
 31  3  1  0
 28  7  1  0
 15 10  1  0
 27 21  1  0
  1 32  1  0
  1 33  1  0
  1 34  1  0
  4 35  1  0
  5 36  1  0
 11 37  1  0
 12 38  1  0
 13 39  1  0
 14 40  1  0
 17 41  1  0
 17 42  1  0
 20 43  1  0
 22 44  1  0
 23 45  1  0
 25 46  1  0
 25 47  1  0
 25 48  1  0
 26 49  1  0
 27 50  1  0
 30 51  1  0
 31 52  1  0
M  END
>  <UniqueID>  (4) 
4

>  <SMILES>  (4) 
COc1ccc(-n2c(=O)c3ccccc3n(CC(=O)Nc3ccc(C)cc3)c2=O)cc1

>  <Energy>  (4) 
80.384483311564

>  <Genealogy>  (4) 
COc1ccc(-n2c(=O)c3ccccc3n(CC(=O)Nc3ccc(C)cc3)c2=O)cc1 (3D coordinates assigned)
COc1ccc(-n2c(=O)c3ccccc3n(CC(=O)Nc3ccc(C)cc3)c2=O)cc1 (optimized conformer: 80.384483311564 kcal/mol)

>  <smiles>  (4) 
COc1ccc(-n2c(=O)c3ccccc3n(CC(=O)Nc3ccc(C)cc3)c2=O)cc1

>  <score_type>  (4) 
oracle

>  <origin>  (4) 
adg

>  <m_score__min__energy>  (4) 
-7.6399999999999997

>  <m_primary>  (4) 
energy

$$$$
4:0
     RDKit          3D

 41 43  0  0  0  0  0  0  0  0999 V2000
   55.1500   29.9220   44.6290 O   0  0  0  0  0  0  0  0  0  0  0  0
   56.2540   29.3180   44.6880 C   0  0  0  0  0  0  0  0  0  0  0  0
   57.4510   29.8840   43.9650 C   0  0  0  0  0  0  0  0  0  0  0  0
   57.8150   31.2080   44.5010 N   0  0  0  0  0  0  0  0  0  0  0  0
   58.0480   31.3360   45.8460 C   0  0  0  0  0  0  0  0  0  0  0  0
   58.4220   32.5660   46.3920 C   0  0  0  0  0  0  0  0  0  0  0  0
   58.5670   33.6700   45.5560 C   0  0  0  0  0  0  0  0  0  0  0  0
   58.3370   33.5360   44.1890 C   0  0  0  0  0  0  0  0  0  0  0  0
   57.9620   32.2910   43.6690 C   0  0  0  0  0  0  0  0  0  0  0  0
   57.7570   32.1830   42.4300 O   0  0  0  0  0  0  0  0  0  0  0  0
   56.2910   28.0190   45.2910 N   0  0  0  0  0  0  0  0  0  0  0  0
   57.4000   27.4490   45.9970 C   0  0  0  0  0  0  0  0  0  0  0  0
   58.2220   28.2540   46.8010 C   0  0  0  0  0  0  0  0  0  0  0  0
   59.2520   27.6860   47.5550 C   0  0  0  0  0  0  0  0  0  0  0  0
   60.2800   28.7050   48.5460 Cl  0  0  0  0  0  0  0  0  0  0  0  0
   59.4510   26.3040   47.5310 C   0  0  0  0  0  0  0  0  0  0  0  0
   58.6220   25.4910   46.7550 C   0  0  0  0  0  0  0  0  0  0  0  0
   57.5950   26.0530   45.9850 C   0  0  0  0  0  0  0  0  0  0  0  0
   56.7680   25.1930   45.1840 N   0  0  0  0  0  0  0  0  0  0  0  0
   55.3920   24.9170   45.6030 C   0  0  0  0  0  0  0  0  0  0  0  0
   54.9700   23.5300   45.1040 C   0  0  0  0  0  0  0  0  0  0  0  0
   55.2230   23.3910   43.7170 O   0  0  0  0  0  0  0  0  0  0  0  0
   56.6180   23.4530   43.4760 C   0  0  0  0  0  0  0  0  0  0  0  0
   57.1660   24.8410   43.8190 C   0  0  0  0  0  0  0  0  0  0  0  0
   58.3029   29.1992   44.0889 H   0  0  0  0  0  0  0  0  0  0  0  0
   57.1970   29.9948   42.9005 H   0  0  0  0  0  0  0  0  0  0  0  0
   57.9392   30.4601   46.5025 H   0  0  0  0  0  0  0  0  0  0  0  0
   58.6005   32.6617   47.4732 H   0  0  0  0  0  0  0  0  0  0  0  0
   58.8620   34.6440   45.9735 H   0  0  0  0  0  0  0  0  0  0  0  0
   58.4493   34.4031   43.5216 H   0  0  0  0  0  0  0  0  0  0  0  0
   58.0540   29.3405   46.8377 H   0  0  0  0  0  0  0  0  0  0  0  0
   60.2616   25.8553   48.1239 H   0  0  0  0  0  0  0  0  0  0  0  0
   58.7763   24.4019   46.7482 H   0  0  0  0  0  0  0  0  0  0  0  0
   55.3312   24.9450   46.7010 H   0  0  0  0  0  0  0  0  0  0  0  0
   54.7212   25.6778   45.1772 H   0  0  0  0  0  0  0  0  0  0  0  0
   55.5369   22.7628   45.6518 H   0  0  0  0  0  0  0  0  0  0  0  0
   53.8906   23.4086   45.2773 H   0  0  0  0  0  0  0  0  0  0  0  0
   57.1255   22.7008   44.0978 H   0  0  0  0  0  0  0  0  0  0  0  0
   56.8016   23.2542   42.4098 H   0  0  0  0  0  0  0  0  0  0  0  0
   58.2636   24.8312   43.7469 H   0  0  0  0  0  0  0  0  0  0  0  0
   56.7618   25.5822   43.1138 H   0  0  0  0  0  0  0  0  0  0  0  0
  1  2  2  0
  2  3  1  0
  3  4  1  0
  4  5  1  0
  5  6  2  0
  6  7  1  0
  7  8  2  0
  8  9  1  0
  9 10  2  0
  2 11  1  0
 11 12  1  0
 12 13  2  0
 13 14  1  0
 14 15  1  0
 14 16  2  0
 16 17  1  0
 17 18  2  0
 18 19  1  0
 19 20  1  0
 20 21  1  0
 21 22  1  0
 22 23  1  0
 23 24  1  0
  9  4  1  0
 18 12  1  0
 24 19  1  0
  3 25  1  0
  3 26  1  0
  5 27  1  0
  6 28  1  0
  7 29  1  0
  8 30  1  0
 13 31  1  0
 16 32  1  0
 17 33  1  0
 20 34  1  0
 20 35  1  0
 21 36  1  0
 21 37  1  0
 23 38  1  0
 23 39  1  0
 24 40  1  0
 24 41  1  0
M  CHG  1  11  -1
M  END
>  <UniqueID>  (5) 
5

>  <SMILES>  (5) 
O=C(Cn1ccccc1=O)[N-]c1cc(Cl)ccc1N1CCOCC1

>  <Energy>  (5) 
56.59554702949228

>  <Genealogy>  (5) 
O=C(Cn1ccccc1=O)[N-]c1cc(Cl)ccc1N1CCOCC1 (protonated)
O=C(Cn1ccccc1=O)[N-]c1cc(Cl)ccc1N1CCOCC1 (3D coordinates assigned)
O=C(Cn1ccccc1=O)[N-]c1cc(Cl)ccc1N1CCOCC1 (nonaromatic ring conformer: 56.59554702949228 kcal/mol)

>  <smiles>  (5) 
O=C(Cn1ccccc1=O)Nc1cc(Cl)ccc1N1CCOCC1

>  <score_type>  (5) 
oracle

>  <origin>  (5) 
adg

>  <m_score__min__energy>  (5) 
-9.0600000000000005

>  <m_primary>  (5) 
energy

$$$$
5:0
     RDKit          3D

 38 40  0  0  0  0  0  0  0  0999 V2000
   56.9995   33.0553   43.7186 H   0  0  0  0  0  0  0  0  0  0  0  0
   57.3820   32.5860   44.6370 C   0  0  0  0  0  0  0  0  0  0  0  0
   57.1380   31.3190   44.8210 N   0  0  0  0  0  0  0  0  0  0  0  0
   58.0310   30.3290   45.3620 C   0  0  0  0  0  0  0  0  0  0  0  0
   59.3800   30.6560   45.5920 C   0  0  0  0  0  0  0  0  0  0  0  0
   59.7364   31.6749   45.3801 H   0  0  0  0  0  0  0  0  0  0  0  0
   60.2710   29.7020   46.0860 C   0  0  0  0  0  0  0  0  0  0  0  0
   61.3181   29.9778   46.2799 H   0  0  0  0  0  0  0  0  0  0  0  0
   59.8380   28.4020   46.3340 C   0  0  0  0  0  0  0  0  0  0  0  0
   60.5432   27.6555   46.7282 H   0  0  0  0  0  0  0  0  0  0  0  0
   58.5110   28.0420   46.0840 C   0  0  0  0  0  0  0  0  0  0  0  0
   58.1080   26.7670   46.3210 N   0  0  0  0  0  0  0  0  0  0  0  0
   56.8300   26.3780   46.0850 C   0  0  0  0  0  0  0  0  0  0  0  0
   56.4080   24.9710   46.3860 C   0  0  0  0  0  0  0  0  0  0  0  0
   55.5729   24.9947   47.1016 H   0  0  0  0  0  0  0  0  0  0  0  0
   57.2726   24.4364   46.8063 H   0  0  0  0  0  0  0  0  0  0  0  0
   55.9570   24.2300   45.1200 C   0  0  0  0  0  0  0  0  0  0  0  0
   54.9829   24.6312   44.8035 H   0  0  0  0  0  0  0  0  0  0  0  0
   55.8912   23.1591   45.3627 H   0  0  0  0  0  0  0  0  0  0  0  0
   56.9510   24.3880   43.9690 C   0  0  0  0  0  0  0  0  0  0  0  0
   57.9604   24.5484   44.3757 H   0  0  0  0  0  0  0  0  0  0  0  0
   56.9449   23.4776   43.3516 H   0  0  0  0  0  0  0  0  0  0  0  0
   56.6629   25.2516   43.3516 H   0  0  0  0  0  0  0  0  0  0  0  0
   55.9250   27.2740   45.6170 N   0  0  0  0  0  0  0  0  0  0  0  0
   56.2650   28.5630   45.3620 C   0  0  0  0  0  0  0  0  0  0  0  0
   55.3800   29.3490   44.9320 O   0  0  0  0  0  0  0  0  0  0  0  0
   57.5910   28.9980   45.5870 C   0  0  0  0  0  0  0  0  0  0  0  0
   58.1400   33.4340   45.5830 C   0  0  0  0  0  0  0  0  0  0  0  0
   58.0960   33.1400   46.9540 C   0  0  0  0  0  0  0  0  0  0  0  0
   57.4856   32.2984   47.3133 H   0  0  0  0  0  0  0  0  0  0  0  0
   58.8230   33.9100   47.8660 C   0  0  0  0  0  0  0  0  0  0  0  0
   58.7723   33.6822   48.9410 H   0  0  0  0  0  0  0  0  0  0  0  0
   59.6150   34.9700   47.4130 C   0  0  0  0  0  0  0  0  0  0  0  0
   60.1795   35.5814   48.1324 H   0  0  0  0  0  0  0  0  0  0  0  0
   59.6890   35.2520   46.0480 C   0  0  0  0  0  0  0  0  0  0  0  0
   60.3188   36.0807   45.6920 H   0  0  0  0  0  0  0  0  0  0  0  0
   58.9640   34.4830   45.1320 C   0  0  0  0  0  0  0  0  0  0  0  0
   59.0377   34.6983   44.0558 H   0  0  0  0  0  0  0  0  0  0  0  0
  1  2  1  0
  2  3  2  0
  3  4  1  0
  4  5  2  0
  5  6  1  0
  5  7  1  0
  7  8  1  0
  7  9  2  0
  9 10  1  0
  9 11  1  0
 11 12  1  0
 12 13  1  0
 13 14  1  0
 14 15  1  0
 14 16  1  0
 14 17  1  0
 17 18  1  0
 17 19  1  0
 17 20  1  0
 20 21  1  0
 20 22  1  0
 20 23  1  0
 13 24  2  0
 24 25  1  0
 25 26  2  0
 25 27  1  0
  2 28  1  0
 28 29  2  0
 29 30  1  0
 29 31  1  0
 31 32  1  0
 31 33  2  0
 33 34  1  0
 33 35  1  0
 35 36  1  0
 35 37  2  0
 37 38  1  0
 27  4  1  0
 37 28  1  0
 27 11  2  0
M  CHG  1  12  -1
M  END
>  <UniqueID>  (6) 
6

>  <SMILES>  (6) 
CCCc1nc(=O)c2c(/N=C\c3ccccc3)cccc2[n-]1

>  <Energy>  (6) 
52.78162194648707

>  <Genealogy>  (6) 
CCCc1nc(=O)c2c(N=Cc3ccccc3)cccc2[n-]1 (protonated)
CCCc1nc(=O)c2c(/N=C\c3ccccc3)cccc2[n-]1 (cis-trans isomerization)
CCCc1nc(=O)c2c(/N=C\c3ccccc3)cccc2[n-]1 (3D coordinates assigned)
CCCc1nc(=O)c2c(/N=C\c3ccccc3)cccc2[n-]1 (optimized conformer: 52.78162194648707 kcal/mol)

>  <smiles>  (6) 
CCCc1nc(=O)c2c(N=Cc3ccccc3)cccc2[nH]1

>  <score_type>  (6) 
oracle

>  <origin>  (6) 
adg

>  <m_score__min__energy>  (6) 
-9.4000000000000004

>  <m_primary>  (6) 
energy

$$$$
6:0
     RDKit          3D

 62 65  0  0  0  0  0  0  0  0999 V2000
   62.1150   33.4790   52.5230 C   0  0  0  0  0  0  0  0  0  0  0  0
   61.1050   33.8380   51.5840 O   0  0  0  0  0  0  0  0  0  0  0  0
   59.9130   33.1230   51.3690 C   0  0  0  0  0  0  0  0  0  0  0  0
   58.8270   33.2560   52.2510 C   0  0  0  0  0  0  0  0  0  0  0  0
   57.6650   32.5220   52.0580 C   0  0  0  0  0  0  0  0  0  0  0  0
   57.5720   31.6290   51.0000 C   0  0  0  0  0  0  0  0  0  0  0  0
   58.6390   31.4640   50.0950 C   0  0  0  0  0  0  0  0  0  0  0  0
   58.5410   30.5240   49.0600 O   0  0  0  0  0  0  0  0  0  0  0  0
   58.9010   29.1500   49.1540 C   0  0  0  0  0  0  0  0  0  0  0  0
   59.8210   32.2500   50.2490 C   0  0  0  0  0  0  0  0  0  0  0  0
   61.0210   32.2130   49.2730 C   0  0  1  0  0  0  0  0  0  0  0  0
   60.8730   31.3480   47.9910 C   0  0  0  0  0  0  0  0  0  0  0  0
   62.1690   31.2640   47.1560 C   0  0  0  0  0  0  0  0  0  0  0  0
   63.2910   32.1900   47.6380 C   0  0  0  0  0  0  0  0  0  0  0  0
   62.7520   33.5080   48.1260 C   0  0  0  0  0  0  0  0  0  0  0  0
   63.3930   34.5250   47.8960 O   0  0  0  0  0  0  0  0  0  0  0  0
   61.5760   33.5710   48.9790 N   0  0  1  0  0  0  0  0  0  0  0  0
   60.5980   34.6020   48.5290 C   0  0  0  0  0  0  0  0  0  0  0  0
   59.7660   34.2370   47.3160 C   0  0  0  0  0  0  0  0  0  0  0  0
   60.1960   34.5460   46.0140 C   0  0  0  0  0  0  0  0  0  0  0  0
   59.4100   34.2060   44.9090 C   0  0  0  0  0  0  0  0  0  0  0  0
   58.1670   33.5890   45.0810 C   0  0  0  0  0  0  0  0  0  0  0  0
   57.4220   33.2650   43.9360 O   0  0  0  0  0  0  0  0  0  0  0  0
   57.5570   32.0620   43.1780 C   0  0  0  0  0  0  0  0  0  0  0  0
   57.6570   30.8590   44.0790 C   0  0  0  0  0  0  0  0  0  0  0  0
   58.8760   30.5380   44.6990 C   0  0  0  0  0  0  0  0  0  0  0  0
   58.9770   29.4010   45.5080 C   0  0  0  0  0  0  0  0  0  0  0  0
   57.8680   28.5700   45.6920 C   0  0  0  0  0  0  0  0  0  0  0  0
   56.6550   28.8760   45.0670 C   0  0  0  0  0  0  0  0  0  0  0  0
   55.5790   28.0690   45.2460 F   0  0  0  0  0  0  0  0  0  0  0  0
   56.5480   30.0140   44.2610 C   0  0  0  0  0  0  0  0  0  0  0  0
   57.7080   33.3300   46.3850 C   0  0  0  0  0  0  0  0  0  0  0  0
   58.4960   33.6610   47.4890 C   0  0  0  0  0  0  0  0  0  0  0  0
   61.7310   33.6155   53.5447 H   0  0  0  0  0  0  0  0  0  0  0  0
   62.3960   32.4259   52.3746 H   0  0  0  0  0  0  0  0  0  0  0  0
   62.9976   34.1185   52.3746 H   0  0  0  0  0  0  0  0  0  0  0  0
   58.8986   33.9486   53.1026 H   0  0  0  0  0  0  0  0  0  0  0  0
   56.8156   32.6485   52.7455 H   0  0  0  0  0  0  0  0  0  0  0  0
   56.6518   31.0414   50.8660 H   0  0  0  0  0  0  0  0  0  0  0  0
   58.9764   28.8623   50.2130 H   0  0  0  0  0  0  0  0  0  0  0  0
   58.1336   28.5353   48.6608 H   0  0  0  0  0  0  0  0  0  0  0  0
   59.8712   28.9906   48.6608 H   0  0  0  0  0  0  0  0  0  0  0  0
   61.7671   31.6536   49.8564 H   0  0  0  0  0  0  0  0  0  0  0  0
   60.5833   30.3295   48.2889 H   0  0  0  0  0  0  0  0  0  0  0  0
   60.1107   31.8290   47.3605 H   0  0  0  0  0  0  0  0  0  0  0  0
   62.5370   30.2281   47.1943 H   0  0  0  0  0  0  0  0  0  0  0  0
   61.9090   31.5880   46.1374 H   0  0  0  0  0  0  0  0  0  0  0  0
   63.8304   31.6984   48.4610 H   0  0  0  0  0  0  0  0  0  0  0  0
   63.9627   32.3865   46.7893 H   0  0  0  0  0  0  0  0  0  0  0  0
   61.9480   33.9400   49.8850 H   0  0  0  0  0  0  0  0  0  0  0  0
   59.9092   34.8007   49.3633 H   0  0  0  0  0  0  0  0  0  0  0  0
   61.1991   35.4727   48.2279 H   0  0  0  0  0  0  0  0  0  0  0  0
   61.1574   35.0588   45.8635 H   0  0  0  0  0  0  0  0  0  0  0  0
   59.7730   34.4260   43.8942 H   0  0  0  0  0  0  0  0  0  0  0  0
   56.6792   31.9491   42.5247 H   0  0  0  0  0  0  0  0  0  0  0  0
   58.4787   32.1278   42.5812 H   0  0  0  0  0  0  0  0  0  0  0  0
   59.7542   31.1829   44.5479 H   0  0  0  0  0  0  0  0  0  0  0  0
   59.9309   29.1605   46.0002 H   0  0  0  0  0  0  0  0  0  0  0  0
   57.9494   27.6761   46.3279 H   0  0  0  0  0  0  0  0  0  0  0  0
   55.5932   30.2487   43.7679 H   0  0  0  0  0  0  0  0  0  0  0  0
   56.7230   32.8642   46.5358 H   0  0  0  0  0  0  0  0  0  0  0  0
   58.1189   33.4690   48.5043 H   0  0  0  0  0  0  0  0  0  0  0  0
  1  2  1  0
  2  3  1  0
  3  4  2  0
  4  5  1  0
  5  6  2  0
  6  7  1  0
  7  8  1  0
  8  9  1  0
  7 10  2  0
 10 11  1  0
 11 12  1  0
 12 13  1  0
 13 14  1  0
 14 15  1  0
 15 16  2  0
 15 17  1  0
 17 18  1  0
 18 19  1  0
 19 20  2  0
 20 21  1  0
 21 22  2  0
 22 23  1  0
 23 24  1  0
 24 25  1  0
 25 26  2  0
 26 27  1  0
 27 28  2  0
 28 29  1  0
 29 30  1  0
 29 31  2  0
 22 32  1  0
 32 33  2  0
 10  3  1  0
 17 11  1  0
 33 19  1  0
 31 25  1  0
  1 34  1  0
  1 35  1  0
  1 36  1  0
  4 37  1  0
  5 38  1  0
  6 39  1  0
  9 40  1  0
  9 41  1  0
  9 42  1  0
 11 43  1  1
 12 44  1  0
 12 45  1  0
 13 46  1  0
 13 47  1  0
 14 48  1  0
 14 49  1  0
 17 50  1  1
 18 51  1  0
 18 52  1  0
 20 53  1  0
 21 54  1  0
 24 55  1  0
 24 56  1  0
 26 57  1  0
 27 58  1  0
 28 59  1  0
 31 60  1  0
 32 61  1  0
 33 62  1  0
M  CHG  1  17   1
M  END
>  <UniqueID>  (7) 
7

>  <SMILES>  (7) 
COc1cccc(OC)c1[C@H]1CCCC(=O)[N@H+]1Cc1ccc(OCc2cccc(F)c2)cc1

>  <Energy>  (7) 
84.57567544629673

>  <Genealogy>  (7) 
COc1cccc(OC)c1C1CCCC(=O)[NH+]1Cc1ccc(OCc2cccc(F)c2)cc1 (protonated)
COc1cccc(OC)c1[C@H]1CCCC(=O)[N@H+]1Cc1ccc(OCc2cccc(F)c2)cc1 (chirality)
COc1cccc(OC)c1[C@H]1CCCC(=O)[N@H+]1Cc1ccc(OCc2cccc(F)c2)cc1 (3D coordinates assigned)
COc1cccc(OC)c1[C@H]1CCCC(=O)[N@H+]1Cc1ccc(OCc2cccc(F)c2)cc1 (nonaromatic ring conformer: 84.57567544629673 kcal/mol)

>  <smiles>  (7) 
COc1cccc(OC)c1C1CCCC(=O)N1Cc1ccc(OCc2cccc(F)c2)cc1

>  <score_type>  (7) 
oracle

>  <origin>  (7) 
adg

>  <m_score__min__energy>  (7) 
-6.9400000000000004

>  <m_primary>  (7) 
energy

$$$$
7:0
     RDKit          3D

 45 47  0  0  0  0  0  0  0  0999 V2000
   56.3310   24.0070   47.4280 C   0  0  0  0  0  0  0  0  0  0  0  0
   56.2770   25.3960   47.1200 O   0  0  0  0  0  0  0  0  0  0  0  0
   57.3040   26.1060   46.4810 C   0  0  0  0  0  0  0  0  0  0  0  0
   58.6430   26.0470   46.9110 C   0  0  0  0  0  0  0  0  0  0  0  0
   59.6280   26.7770   46.2430 C   0  0  0  0  0  0  0  0  0  0  0  0
   59.2930   27.5690   45.1420 C   0  0  0  0  0  0  0  0  0  0  0  0
   57.9620   27.6370   44.6940 C   0  0  0  0  0  0  0  0  0  0  0  0
   57.6070   28.4720   43.5730 N   0  0  0  0  0  0  0  0  0  0  0  0
   56.8780   29.6320   44.0280 C   0  0  0  0  0  0  0  0  0  0  0  0
   55.2560   29.7140   43.7450 S   0  0  0  0  0  0  0  0  0  0  0  0
   57.5500   30.7330   44.6840 N   0  0  0  0  0  0  0  0  0  0  0  0
   57.7750   32.0390   44.0600 C   0  0  0  0  0  0  0  0  0  0  0  0
   58.7940   32.7100   44.9700 C   0  0  1  0  0  0  0  0  0  0  0  0
   58.7970   34.2420   45.0460 C   0  0  0  0  0  0  0  0  0  0  0  0
   59.2780   34.7390   46.4400 C   0  0  0  0  0  0  0  0  0  0  0  0
   60.1900   33.7930   47.1390 N   0  0  0  0  0  0  0  0  0  0  0  0
   61.5570   33.8520   46.5950 C   0  0  0  0  0  0  0  0  0  0  0  0
   59.6810   32.3920   47.2660 C   0  0  0  0  0  0  0  0  0  0  0  0
   58.4950   32.1210   46.3290 C   0  0  2  0  0  0  0  0  0  0  0  0
   58.1410   30.6730   46.0220 C   0  0  0  0  0  0  0  0  0  0  0  0
   56.9740   26.9010   45.3760 C   0  0  0  0  0  0  0  0  0  0  0  0
   56.3362   23.8735   48.5199 H   0  0  0  0  0  0  0  0  0  0  0  0
   55.4518   23.5023   47.0011 H   0  0  0  0  0  0  0  0  0  0  0  0
   57.2467   23.5721   47.0011 H   0  0  0  0  0  0  0  0  0  0  0  0
   58.9142   25.4239   47.7760 H   0  0  0  0  0  0  0  0  0  0  0  0
   60.6723   26.7283   46.5851 H   0  0  0  0  0  0  0  0  0  0  0  0
   60.0749   28.1426   44.6227 H   0  0  0  0  0  0  0  0  0  0  0  0
   58.4700   28.7380   43.0480 H   0  0  0  0  0  0  0  0  0  0  0  0
   57.0080   27.9400   42.9000 H   0  0  0  0  0  0  0  0  0  0  0  0
   58.1762   31.9224   43.0424 H   0  0  0  0  0  0  0  0  0  0  0  0
   56.8494   32.6242   43.9562 H   0  0  0  0  0  0  0  0  0  0  0  0
   59.7972   32.5151   44.5630 H   0  0  0  0  0  0  0  0  0  0  0  0
   59.4715   34.6376   44.2724 H   0  0  0  0  0  0  0  0  0  0  0  0
   57.7689   34.5991   44.8863 H   0  0  0  0  0  0  0  0  0  0  0  0
   59.8083   35.6930   46.3029 H   0  0  0  0  0  0  0  0  0  0  0  0
   58.3810   34.8392   47.0688 H   0  0  0  0  0  0  0  0  0  0  0  0
   62.2802   33.8832   47.4233 H   0  0  0  0  0  0  0  0  0  0  0  0
   61.7447   32.9611   45.9777 H   0  0  0  0  0  0  0  0  0  0  0  0
   61.6673   34.7557   45.9777 H   0  0  0  0  0  0  0  0  0  0  0  0
   60.4952   31.6950   47.0183 H   0  0  0  0  0  0  0  0  0  0  0  0
   59.3348   32.2499   48.3004 H   0  0  0  0  0  0  0  0  0  0  0  0
   57.6552   32.5595   46.8879 H   0  0  0  0  0  0  0  0  0  0  0  0
   59.0411   30.0407   46.0246 H   0  0  0  0  0  0  0  0  0  0  0  0
   57.4614   30.2345   46.7675 H   0  0  0  0  0  0  0  0  0  0  0  0
   55.9289   26.9511   45.0364 H   0  0  0  0  0  0  0  0  0  0  0  0
  1  2  1  0
  2  3  1  0
  3  4  2  0
  4  5  1  0
  5  6  2  0
  6  7  1  0
  7  8  1  0
  8  9  1  0
  9 10  2  0
  9 11  1  0
 11 12  1  0
 12 13  1  0
 13 14  1  0
 14 15  1  0
 15 16  1  0
 16 17  1  0
 16 18  1  0
 18 19  1  0
 19 20  1  0
  7 21  2  0
 21  3  1  0
 20 11  1  0
 19 13  1  0
  1 22  1  0
  1 23  1  0
  1 24  1  0
  4 25  1  0
  5 26  1  0
  6 27  1  0
  8 28  1  0
  8 29  1  0
 12 30  1  0
 12 31  1  0
 13 32  1  6
 14 33  1  0
 14 34  1  0
 15 35  1  0
 15 36  1  0
 17 37  1  0
 17 38  1  0
 17 39  1  0
 18 40  1  0
 18 41  1  0
 19 42  1  1
 20 43  1  0
 20 44  1  0
 21 45  1  0
M  CHG  1   8   1
M  END
>  <UniqueID>  (8) 
8

>  <SMILES>  (8) 
COc1cccc([NH2+]C(=S)N2C[C@H]3CCN(C)C[C@@H]3C2)c1

>  <Energy>  (8) 
65.19624687896581

>  <Genealogy>  (8) 
COc1cccc([NH2+]C(=S)N2CC3CCN(C)CC3C2)c1 (protonated)
COc1cccc([NH2+]C(=S)N2C[C@H]3CCN(C)C[C@@H]3C2)c1 (chirality)
COc1cccc([NH2+]C(=S)N2C[C@H]3CCN(C)C[C@@H]3C2)c1 (3D coordinates assigned)
COc1cccc([NH2+]C(=S)N2C[C@H]3CCN(C)C[C@@H]3C2)c1 (nonaromatic ring conformer: 65.19624687896581 kcal/mol)

>  <smiles>  (8) 
COc1cccc(NC(=S)N2CC3CCN(C)CC3C2)c1

>  <score_type>  (8) 
oracle

>  <origin>  (8) 
adg

>  <m_score__min__energy>  (8) 
-6.5199999999999996

>  <m_primary>  (8) 
energy

$$$$
8:0
     RDKit          3D

 44 47  0  0  0  0  0  0  0  0999 V2000
   59.6710   25.8510   46.0000 Cl  0  0  0  0  0  0  0  0  0  0  0  0
   59.0650   27.4780   45.7590 C   0  0  0  0  0  0  0  0  0  0  0  0
   59.7900   28.5800   46.2600 C   0  0  0  0  0  0  0  0  0  0  0  0
   59.3140   29.8910   46.0790 C   0  0  0  0  0  0  0  0  0  0  0  0
   58.1150   30.0870   45.3820 C   0  0  0  0  0  0  0  0  0  0  0  0
   57.4570   31.3140   45.1110 C   0  0  0  0  0  0  0  0  0  0  0  0
   57.9790   32.5940   45.4940 N   0  0  0  0  0  0  0  0  0  0  0  0
   58.3430   33.5840   44.4780 C   0  0  0  0  0  0  0  0  0  0  0  0
   59.6460   34.3100   44.8690 C   0  0  0  0  0  0  0  0  0  0  0  0
   59.9090   34.3400   46.3330 N   0  0  0  0  0  0  0  0  0  0  0  0
   60.8710   33.3000   46.7730 C   0  0  0  0  0  0  0  0  0  0  0  0
   62.3110   33.8260   46.7160 C   0  0  0  0  0  0  0  0  0  0  0  0
   63.0210   33.6800   48.0340 C   0  0  0  0  0  0  0  0  0  0  0  0
   62.4590   34.2250   49.1990 C   0  0  0  0  0  0  0  0  0  0  0  0
   63.1010   34.0390   50.4240 C   0  0  0  0  0  0  0  0  0  0  0  0
   64.2900   33.3120   50.4790 C   0  0  0  0  0  0  0  0  0  0  0  0
   64.8200   32.7760   49.3040 C   0  0  0  0  0  0  0  0  0  0  0  0
   64.1820   32.9650   48.1160 N   0  0  0  0  0  0  0  0  0  0  0  0
   58.6600   34.3210   47.1230 C   0  0  0  0  0  0  0  0  0  0  0  0
   57.8700   33.0220   46.8900 C   0  0  0  0  0  0  0  0  0  0  0  0
   56.2570   31.2050   44.4710 N   0  0  0  0  0  0  0  0  0  0  0  0
   56.0230   29.5750   44.2160 S   0  0  0  0  0  0  0  0  0  0  0  0
   57.4120   28.9890   44.9150 C   0  0  0  0  0  0  0  0  0  0  0  0
   57.8520   27.6800   45.0790 C   0  0  0  0  0  0  0  0  0  0  0  0
   60.7355   28.4123   46.7967 H   0  0  0  0  0  0  0  0  0  0  0  0
   59.8746   30.7490   46.4786 H   0  0  0  0  0  0  0  0  0  0  0  0
   58.4881   33.0754   43.5135 H   0  0  0  0  0  0  0  0  0  0  0  0
   57.5341   34.3253   44.3997 H   0  0  0  0  0  0  0  0  0  0  0  0
   60.4870   33.7991   44.3774 H   0  0  0  0  0  0  0  0  0  0  0  0
   59.5360   35.3555   44.5451 H   0  0  0  0  0  0  0  0  0  0  0  0
   60.6357   33.0061   47.8066 H   0  0  0  0  0  0  0  0  0  0  0  0
   60.7861   32.4352   46.0985 H   0  0  0  0  0  0  0  0  0  0  0  0
   62.8644   33.2617   45.9509 H   0  0  0  0  0  0  0  0  0  0  0  0
   62.2700   34.8976   46.4710 H   0  0  0  0  0  0  0  0  0  0  0  0
   61.5194   34.7946   49.1468 H   0  0  0  0  0  0  0  0  0  0  0  0
   62.6709   34.4642   51.3428 H   0  0  0  0  0  0  0  0  0  0  0  0
   64.8053   33.1624   51.4392 H   0  0  0  0  0  0  0  0  0  0  0  0
   65.7560   32.1991   49.3380 H   0  0  0  0  0  0  0  0  0  0  0  0
   64.5950   32.5400   47.2550 H   0  0  0  0  0  0  0  0  0  0  0  0
   58.9105   34.4011   48.1911 H   0  0  0  0  0  0  0  0  0  0  0  0
   58.0354   35.1686   46.8047 H   0  0  0  0  0  0  0  0  0  0  0  0
   58.2721   32.2328   47.5422 H   0  0  0  0  0  0  0  0  0  0  0  0
   56.8106   33.2056   47.1222 H   0  0  0  0  0  0  0  0  0  0  0  0
   57.2702   26.8315   44.6896 H   0  0  0  0  0  0  0  0  0  0  0  0
  1  2  1  0
  2  3  2  0
  3  4  1  0
  4  5  2  0
  5  6  1  0
  6  7  1  0
  7  8  1  0
  8  9  1  0
  9 10  1  0
 10 11  1  0
 11 12  1  0
 12 13  1  0
 13 14  2  0
 14 15  1  0
 15 16  2  0
 16 17  1  0
 17 18  2  0
 10 19  1  0
 19 20  1  0
  6 21  2  0
 21 22  1  0
 22 23  1  0
 23 24  2  0
 24  2  1  0
 23  5  1  0
 20  7  1  0
 18 13  1  0
  3 25  1  0
  4 26  1  0
  8 27  1  0
  8 28  1  0
  9 29  1  0
  9 30  1  0
 11 31  1  0
 11 32  1  0
 12 33  1  0
 12 34  1  0
 14 35  1  0
 15 36  1  0
 16 37  1  0
 17 38  1  0
 18 39  1  0
 19 40  1  0
 19 41  1  0
 20 42  1  0
 20 43  1  0
 24 44  1  0
M  CHG  1  18   1
M  END
>  <UniqueID>  (9) 
9

>  <SMILES>  (9) 
Clc1ccc2c(N3CCN(CCc4cccc[nH+]4)CC3)nsc2c1

>  <Energy>  (9) 
94.82107555306588

>  <Genealogy>  (9) 
Clc1ccc2c(N3CCN(CCc4cccc[nH+]4)CC3)nsc2c1 (protonated)
Clc1ccc2c(N3CCN(CCc4cccc[nH+]4)CC3)nsc2c1 (3D coordinates assigned)
Clc1ccc2c(N3CCN(CCc4cccc[nH+]4)CC3)nsc2c1 (nonaromatic ring conformer: 94.82107555306588 kcal/mol)

>  <smiles>  (9) 
Clc1ccc2c(N3CCN(CCc4ccccn4)CC3)nsc2c1

>  <score_type>  (9) 
oracle

>  <origin>  (9) 
adg

>  <m_score__min__energy>  (9) 
-8.0500000000000007

>  <m_primary>  (9) 
energy

$$$$
9:0
     RDKit          3D

 44 46  0  0  0  0  0  0  0  0999 V2000
   56.9710   21.1520   42.9910 C   0  0  0  0  0  0  0  0  0  0  0  0
   55.9600   22.1470   43.1140 O   0  0  0  0  0  0  0  0  0  0  0  0
   56.0560   23.2720   43.9470 C   0  0  0  0  0  0  0  0  0  0  0  0
   54.9430   23.6010   44.7580 C   0  0  0  0  0  0  0  0  0  0  0  0
   54.9780   24.7170   45.6120 C   0  0  0  0  0  0  0  0  0  0  0  0
   56.1410   25.4830   45.6370 C   0  0  0  0  0  0  0  0  0  0  0  0
   56.3780   26.5830   46.3690 N   0  0  0  0  0  0  0  0  0  0  0  0
   57.6370   26.9720   46.0550 C   0  0  0  0  0  0  0  0  0  0  0  0
   58.2790   28.1770   46.6200 C   0  0  0  0  0  0  0  0  0  0  0  0
   58.9720   28.0600   47.6660 O   0  0  0  0  0  0  0  0  0  0  0  0
   58.1240   29.5180   46.0080 C   0  0  0  0  0  0  0  0  0  0  0  0
   57.6150   29.6620   44.7100 C   0  0  0  0  0  0  0  0  0  0  0  0
   57.4740   30.9330   44.1210 C   0  0  0  0  0  0  0  0  0  0  0  0
   56.9490   31.0720   42.8270 O   0  0  0  0  0  0  0  0  0  0  0  0
   57.4460   31.9640   41.8340 C   0  0  0  0  0  0  0  0  0  0  0  0
   57.8720   32.0830   44.8520 C   0  0  0  0  0  0  0  0  0  0  0  0
   57.7710   33.3970   44.3570 O   0  0  0  0  0  0  0  0  0  0  0  0
   57.0480   34.4730   44.9440 C   0  0  0  0  0  0  0  0  0  0  0  0
   58.4040   31.9350   46.1440 C   0  0  0  0  0  0  0  0  0  0  0  0
   58.7960   33.0950   46.8350 O   0  0  0  0  0  0  0  0  0  0  0  0
   59.9800   33.8370   46.5630 C   0  0  0  0  0  0  0  0  0  0  0  0
   58.5320   30.6560   46.7120 C   0  0  0  0  0  0  0  0  0  0  0  0
   58.1960   26.1150   45.1030 C   0  0  0  0  0  0  0  0  0  0  0  0
   57.2230   25.1720   44.8580 C   0  0  0  0  0  0  0  0  0  0  0  0
   57.2210   24.0760   43.9980 C   0  0  0  0  0  0  0  0  0  0  0  0
   57.2952   20.8329   43.9925 H   0  0  0  0  0  0  0  0  0  0  0  0
   56.5694   20.2871   42.4427 H   0  0  0  0  0  0  0  0  0  0  0  0
   57.8294   21.5673   42.4427 H   0  0  0  0  0  0  0  0  0  0  0  0
   54.0392   22.9752   44.7193 H   0  0  0  0  0  0  0  0  0  0  0  0
   54.1139   24.9772   46.2409 H   0  0  0  0  0  0  0  0  0  0  0  0
   55.7220   27.0430   47.0410 H   0  0  0  0  0  0  0  0  0  0  0  0
   57.3208   28.7671   44.1421 H   0  0  0  0  0  0  0  0  0  0  0  0
   57.9259   32.8252   42.3219 H   0  0  0  0  0  0  0  0  0  0  0  0
   58.1826   31.4407   41.2066 H   0  0  0  0  0  0  0  0  0  0  0  0
   56.6134   32.3150   41.2066 H   0  0  0  0  0  0  0  0  0  0  0  0
   57.1003   34.3952   46.0400 H   0  0  0  0  0  0  0  0  0  0  0  0
   57.4879   35.4287   44.6229 H   0  0  0  0  0  0  0  0  0  0  0  0
   55.9969   34.4269   44.6229 H   0  0  0  0  0  0  0  0  0  0  0  0
   60.4529   34.1334   47.5109 H   0  0  0  0  0  0  0  0  0  0  0  0
   60.6780   33.2145   45.9839 H   0  0  0  0  0  0  0  0  0  0  0  0
   59.7241   34.7366   45.9839 H   0  0  0  0  0  0  0  0  0  0  0  0
   58.9574   30.5485   47.7207 H   0  0  0  0  0  0  0  0  0  0  0  0
   59.1956   26.1797   44.6484 H   0  0  0  0  0  0  0  0  0  0  0  0
   58.0982   23.8419   43.3769 H   0  0  0  0  0  0  0  0  0  0  0  0
  1  2  1  0
  2  3  1  0
  3  4  2  0
  4  5  1  0
  5  6  2  0
  6  7  1  0
  7  8  1  0
  8  9  1  0
  9 10  2  0
  9 11  1  0
 11 12  2  0
 12 13  1  0
 13 14  1  0
 14 15  1  0
 13 16  2  0
 16 17  1  0
 17 18  1  0
 16 19  1  0
 19 20  1  0
 20 21  1  0
 19 22  2  0
  8 23  2  0
 23 24  1  0
 24 25  2  0
 25  3  1  0
 24  6  1  0
 22 11  1  0
  1 26  1  0
  1 27  1  0
  1 28  1  0
  4 29  1  0
  5 30  1  0
  7 31  1  0
 12 32  1  0
 15 33  1  0
 15 34  1  0
 15 35  1  0
 18 36  1  0
 18 37  1  0
 18 38  1  0
 21 39  1  0
 21 40  1  0
 21 41  1  0
 22 42  1  0
 23 43  1  0
 25 44  1  0
M  END
>  <UniqueID>  (10) 
10

>  <SMILES>  (10) 
COc1ccc2[nH]c(C(=O)c3cc(OC)c(OC)c(OC)c3)cc2c1

>  <Energy>  (10) 
83.59156996695049

>  <Genealogy>  (10) 
COc1ccc2[nH]c(C(=O)c3cc(OC)c(OC)c(OC)c3)cc2c1 (3D coordinates assigned)
COc1ccc2[nH]c(C(=O)c3cc(OC)c(OC)c(OC)c3)cc2c1 (optimized conformer: 83.59156996695049 kcal/mol)

>  <smiles>  (10) 
COc1ccc2[nH]c(C(=O)c3cc(OC)c(OC)c(OC)c3)cc2c1

>  <score_type>  (10) 
oracle

>  <origin>  (10) 
adg

>  <m_score__min__energy>  (10) 
-6.7199999999999998

>  <m_primary>  (10) 
energy

$$$$
10:0
     RDKit          3D

 38 41  0  0  0  0  0  0  0  0999 V2000
   55.9160   24.4730   47.2330 N   0  0  0  0  0  0  0  0  0  0  0  0
   56.3800   25.1770   46.4410 C   0  0  0  0  0  0  0  0  0  0  0  0
   56.9580   26.0530   45.4540 C   0  0  0  0  0  0  0  0  0  0  0  0
   57.5780   25.5170   44.3210 C   0  0  0  0  0  0  0  0  0  0  0  0
   58.1400   26.3650   43.3650 C   0  0  0  0  0  0  0  0  0  0  0  0
   58.0840   27.7520   43.5350 C   0  0  0  0  0  0  0  0  0  0  0  0
   57.4610   28.3070   44.6700 C   0  0  0  0  0  0  0  0  0  0  0  0
   57.3950   29.7750   44.8710 C   0  0  0  0  0  0  0  0  0  0  0  0
   58.3610   30.5840   45.4420 C   0  0  0  0  0  0  0  0  0  0  0  0
   57.9040   31.8490   45.4300 N   0  0  0  0  0  0  0  0  0  0  0  0
   58.5830   33.0320   45.8930 C   0  0  0  0  0  0  0  0  0  0  0  0
   58.8810   34.0640   44.9850 C   0  0  0  0  0  0  0  0  0  0  0  0
   59.5500   35.2150   45.4070 C   0  0  0  0  0  0  0  0  0  0  0  0
   59.9280   35.3620   46.7430 C   0  0  0  0  0  0  0  0  0  0  0  0
   59.6300   34.3540   47.6690 C   0  0  0  0  0  0  0  0  0  0  0  0
   59.9820   34.4880   49.0180 C   0  0  0  0  0  0  0  0  0  0  0  0
   59.6570   33.4810   49.9270 C   0  0  0  0  0  0  0  0  0  0  0  0
   58.9750   32.3410   49.4800 C   0  0  0  0  0  0  0  0  0  0  0  0
   58.6070   31.2500   50.4430 C   0  0  0  0  0  0  0  0  0  0  0  0
   57.3910   31.5440   51.0330 F   0  0  0  0  0  0  0  0  0  0  0  0
   59.5770   31.1470   51.4240 F   0  0  0  0  0  0  0  0  0  0  0  0
   58.5050   30.0360   49.7860 F   0  0  0  0  0  0  0  0  0  0  0  0
   58.6410   32.2280   48.1660 N   0  0  0  0  0  0  0  0  0  0  0  0
   58.9530   33.1850   47.2480 C   0  0  0  0  0  0  0  0  0  0  0  0
   56.6900   31.7910   44.8460 C   0  0  0  0  0  0  0  0  0  0  0  0
   56.3430   30.5360   44.4960 N   0  0  0  0  0  0  0  0  0  0  0  0
   56.9010   27.4420   45.6290 C   0  0  0  0  0  0  0  0  0  0  0  0
   57.6229   24.4266   44.1829 H   0  0  0  0  0  0  0  0  0  0  0  0
   58.6284   25.9409   42.4753 H   0  0  0  0  0  0  0  0  0  0  0  0
   58.5293   28.4138   42.7776 H   0  0  0  0  0  0  0  0  0  0  0  0
   59.3324   30.2512   45.8366 H   0  0  0  0  0  0  0  0  0  0  0  0
   58.5838   33.9634   43.9307 H   0  0  0  0  0  0  0  0  0  0  0  0
   59.7804   36.0102   44.6828 H   0  0  0  0  0  0  0  0  0  0  0  0
   60.4594   36.2686   47.0682 H   0  0  0  0  0  0  0  0  0  0  0  0
   60.5147   35.3873   49.3607 H   0  0  0  0  0  0  0  0  0  0  0  0
   59.9339   33.5809   50.9869 H   0  0  0  0  0  0  0  0  0  0  0  0
   56.0527   32.6709   44.6740 H   0  0  0  0  0  0  0  0  0  0  0  0
   56.4148   27.8598   46.5229 H   0  0  0  0  0  0  0  0  0  0  0  0
  1  2  3  0
  2  3  1  0
  3  4  2  0
  4  5  1  0
  5  6  2  0
  6  7  1  0
  7  8  1  0
  8  9  2  0
  9 10  1  0
 10 11  1  0
 11 12  2  0
 12 13  1  0
 13 14  2  0
 14 15  1  0
 15 16  2  0
 16 17  1  0
 17 18  2  0
 18 19  1  0
 19 20  1  0
 19 21  1  0
 19 22  1  0
 18 23  1  0
 23 24  2  0
 10 25  1  0
 25 26  2  0
  7 27  2  0
 27  3  1  0
 26  8  1  0
 24 11  1  0
 24 15  1  0
  4 28  1  0
  5 29  1  0
  6 30  1  0
  9 31  1  0
 12 32  1  0
 13 33  1  0
 14 34  1  0
 16 35  1  0
 17 36  1  0
 25 37  1  0
 27 38  1  0
M  END
>  <UniqueID>  (11) 
11

>  <SMILES>  (11) 
N#Cc1cccc(-c2cn(-c3cccc4ccc(C(F)(F)F)nc34)cn2)c1

>  <Energy>  (11) 
80.46989461225233

>  <Genealogy>  (11) 
N#Cc1cccc(-c2cn(-c3cccc4ccc(C(F)(F)F)nc34)cn2)c1 (3D coordinates assigned)
N#Cc1cccc(-c2cn(-c3cccc4ccc(C(F)(F)F)nc34)cn2)c1 (optimized conformer: 80.46989461225233 kcal/mol)

>  <smiles>  (11) 
N#Cc1cccc(-c2cn(-c3cccc4ccc(C(F)(F)F)nc34)cn2)c1

>  <score_type>  (11) 
oracle

>  <origin>  (11) 
adg

>  <m_score__min__energy>  (11) 
-7.9800000000000004

>  <m_primary>  (11) 
energy

$$$$
11:0
     RDKit          3D

 43 46  0  0  0  0  0  0  0  0999 V2000
   64.1340   34.6330   51.5700 C   0  0  0  0  0  0  0  0  0  0  0  0
   63.9370   33.8040   50.3860 N   0  0  0  0  0  0  0  0  0  0  0  0
   64.8890   33.1410   49.6820 C   0  0  0  0  0  0  0  0  0  0  0  0
   64.3770   32.5050   48.6000 N   0  0  0  0  0  0  0  0  0  0  0  0
   63.0640   32.7910   48.6330 C   0  0  0  0  0  0  0  0  0  0  0  0
   62.0730   32.3990   47.7370 C   0  0  0  0  0  0  0  0  0  0  0  0
   60.7520   32.8440   47.9750 C   0  0  0  0  0  0  0  0  0  0  0  0
   59.6890   32.4760   47.0750 N   0  0  0  0  0  0  0  0  0  0  0  0
   59.4020   31.1520   46.8950 C   0  0  0  0  0  0  0  0  0  0  0  0
   58.3730   30.7520   46.0430 C   0  0  0  0  0  0  0  0  0  0  0  0
   57.6220   31.7090   45.3620 C   0  0  0  0  0  0  0  0  0  0  0  0
   56.5880   31.2700   44.5200 O   0  0  0  0  0  0  0  0  0  0  0  0
   56.7270   30.3060   43.4760 C   0  0  0  0  0  0  0  0  0  0  0  0
   57.0120   28.9390   44.0430 C   0  0  0  0  0  0  0  0  0  0  0  0
   57.9050   28.0690   43.3960 C   0  0  0  0  0  0  0  0  0  0  0  0
   58.1710   26.8060   43.9330 C   0  0  0  0  0  0  0  0  0  0  0  0
   57.5550   26.4060   45.1220 C   0  0  0  0  0  0  0  0  0  0  0  0
   56.6750   27.2710   45.7780 C   0  0  0  0  0  0  0  0  0  0  0  0
   56.4060   28.5350   45.2440 C   0  0  0  0  0  0  0  0  0  0  0  0
   57.9310   33.0660   45.5430 C   0  0  0  0  0  0  0  0  0  0  0  0
   58.9720   33.4350   46.4030 C   0  0  0  0  0  0  0  0  0  0  0  0
   59.2480   34.6590   46.5360 O   0  0  0  0  0  0  0  0  0  0  0  0
   60.4810   33.6750   49.0970 C   0  0  0  0  0  0  0  0  0  0  0  0
   61.5100   34.0520   49.9800 C   0  0  0  0  0  0  0  0  0  0  0  0
   62.7950   33.5830   49.7120 C   0  0  0  0  0  0  0  0  0  0  0  0
   63.9889   34.0224   52.4734 H   0  0  0  0  0  0  0  0  0  0  0  0
   65.1546   35.0432   51.5647 H   0  0  0  0  0  0  0  0  0  0  0  0
   63.4070   35.4585   51.5647 H   0  0  0  0  0  0  0  0  0  0  0  0
   65.9537   33.1219   49.9577 H   0  0  0  0  0  0  0  0  0  0  0  0
   64.8920   31.9310   47.8960 H   0  0  0  0  0  0  0  0  0  0  0  0
   62.3102   31.7632   46.8713 H   0  0  0  0  0  0  0  0  0  0  0  0
   59.9905   30.3917   47.4293 H   0  0  0  0  0  0  0  0  0  0  0  0
   58.1541   29.6824   45.9084 H   0  0  0  0  0  0  0  0  0  0  0  0
   55.7942   30.2676   42.8943 H   0  0  0  0  0  0  0  0  0  0  0  0
   57.5683   30.6027   42.8324 H   0  0  0  0  0  0  0  0  0  0  0  0
   58.3968   28.3826   42.4634 H   0  0  0  0  0  0  0  0  0  0  0  0
   58.8662   26.1260   43.4189 H   0  0  0  0  0  0  0  0  0  0  0  0
   57.7628   25.4105   45.5414 H   0  0  0  0  0  0  0  0  0  0  0  0
   56.1933   26.9571   46.7158 H   0  0  0  0  0  0  0  0  0  0  0  0
   55.7173   29.2154   45.7663 H   0  0  0  0  0  0  0  0  0  0  0  0
   57.3564   33.8380   45.0102 H   0  0  0  0  0  0  0  0  0  0  0  0
   59.4546   34.0273   49.2768 H   0  0  0  0  0  0  0  0  0  0  0  0
   61.3075   34.6936   50.8502 H   0  0  0  0  0  0  0  0  0  0  0  0
  1  2  1  0
  2  3  1  0
  3  4  2  0
  4  5  1  0
  5  6  2  0
  6  7  1  0
  7  8  1  0
  8  9  1  0
  9 10  2  0
 10 11  1  0
 11 12  1  0
 12 13  1  0
 13 14  1  0
 14 15  2  0
 15 16  1  0
 16 17  2  0
 17 18  1  0
 18 19  2  0
 11 20  2  0
 20 21  1  0
 21 22  2  0
  7 23  2  0
 23 24  1  0
 24 25  2  0
 25  2  1  0
 25  5  1  0
 21  8  1  0
 19 14  1  0
  1 26  1  0
  1 27  1  0
  1 28  1  0
  3 29  1  0
  4 30  1  0
  6 31  1  0
  9 32  1  0
 10 33  1  0
 13 34  1  0
 13 35  1  0
 15 36  1  0
 16 37  1  0
 17 38  1  0
 18 39  1  0
 19 40  1  0
 20 41  1  0
 23 42  1  0
 24 43  1  0
M  CHG  1   4   1
M  END
>  <UniqueID>  (12) 
12

>  <SMILES>  (12) 
Cn1c[nH+]c2cc(-n3ccc(OCc4ccccc4)cc3=O)ccc21

>  <Energy>  (12) 
94.06100703794365

>  <Genealogy>  (12) 
Cn1c[nH+]c2cc(-n3ccc(OCc4ccccc4)cc3=O)ccc21 (protonated)
Cn1c[nH+]c2cc(-n3ccc(OCc4ccccc4)cc3=O)ccc21 (3D coordinates assigned)
Cn1c[nH+]c2cc(-n3ccc(OCc4ccccc4)cc3=O)ccc21 (optimized conformer: 94.06100703794365 kcal/mol)

>  <smiles>  (12) 
Cn1cnc2cc(-n3ccc(OCc4ccccc4)cc3=O)ccc21

>  <score_type>  (12) 
oracle

>  <origin>  (12) 
adg

>  <m_score__min__energy>  (12) 
-6.4000000000000004

>  <m_primary>  (12) 
energy

$$$$
12:0
     RDKit          3D

 44 46  0  0  0  0  0  0  0  0999 V2000
   65.1140   32.5390   50.1230 C   0  0  0  0  0  0  0  0  0  0  0  0
   64.4500   31.9770   48.9960 O   0  0  0  0  0  0  0  0  0  0  0  0
   63.1060   31.5890   49.0270 C   0  0  0  0  0  0  0  0  0  0  0  0
   62.7310   30.6780   49.8160 O   0  0  0  0  0  0  0  0  0  0  0  0
   62.1280   32.2490   48.1340 C   0  0  0  0  0  0  0  0  0  0  0  0
   62.4080   33.5130   47.5880 C   0  0  0  0  0  0  0  0  0  0  0  0
   61.4900   34.1410   46.7450 C   0  0  0  0  0  0  0  0  0  0  0  0
   60.2690   33.5150   46.4310 C   0  0  0  0  0  0  0  0  0  0  0  0
   59.3020   34.1280   45.6210 C   0  0  0  0  0  0  0  0  0  0  0  0
   59.5240   35.2810   45.1540 O   0  0  0  0  0  0  0  0  0  0  0  0
   58.1130   33.4910   45.3550 N   0  0  0  0  0  0  0  0  0  0  0  0
   56.9910   34.3120   44.8710 C   0  0  0  0  0  0  0  0  0  0  0  0
   57.9510   32.1710   45.7370 C   0  0  0  0  0  0  0  0  0  0  0  0
   57.0530   31.3650   45.2230 N   0  0  0  0  0  0  0  0  0  0  0  0
   56.8160   30.8610   43.8640 C   0  0  0  0  0  0  0  0  0  0  0  0
   57.0230   29.3410   43.8030 C   0  0  0  0  0  0  0  0  0  0  0  0
   58.0780   28.8590   44.7650 C   0  0  0  0  0  0  0  0  0  0  0  0
   57.7140   28.1410   45.9180 C   0  0  0  0  0  0  0  0  0  0  0  0
   58.6880   27.7390   46.8360 C   0  0  0  0  0  0  0  0  0  0  0  0
   60.0330   28.0420   46.6070 C   0  0  0  0  0  0  0  0  0  0  0  0
   60.4050   28.7440   45.4570 C   0  0  0  0  0  0  0  0  0  0  0  0
   59.4330   29.1490   44.5370 C   0  0  0  0  0  0  0  0  0  0  0  0
   58.8310   31.6200   46.6200 N   0  0  0  0  0  0  0  0  0  0  0  0
   59.9830   32.2510   46.9670 C   0  0  0  0  0  0  0  0  0  0  0  0
   60.9090   31.6230   47.8160 C   0  0  0  0  0  0  0  0  0  0  0  0
   64.6584   32.1534   51.0469 H   0  0  0  0  0  0  0  0  0  0  0  0
   66.1786   32.2634   50.0964 H   0  0  0  0  0  0  0  0  0  0  0  0
   65.0181   33.6345   50.0964 H   0  0  0  0  0  0  0  0  0  0  0  0
   63.3588   34.0118   47.8270 H   0  0  0  0  0  0  0  0  0  0  0  0
   61.7218   35.1303   46.3237 H   0  0  0  0  0  0  0  0  0  0  0  0
   56.4364   34.7178   45.7299 H   0  0  0  0  0  0  0  0  0  0  0  0
   57.3795   35.1406   44.2607 H   0  0  0  0  0  0  0  0  0  0  0  0
   56.3188   33.6910   44.2607 H   0  0  0  0  0  0  0  0  0  0  0  0
   55.7835   31.0967   43.5668 H   0  0  0  0  0  0  0  0  0  0  0  0
   57.5304   31.3421   43.1797 H   0  0  0  0  0  0  0  0  0  0  0  0
   56.0715   28.8461   44.0472 H   0  0  0  0  0  0  0  0  0  0  0  0
   57.3615   29.0922   42.7864 H   0  0  0  0  0  0  0  0  0  0  0  0
   56.6572   27.8945   46.0983 H   0  0  0  0  0  0  0  0  0  0  0  0
   58.3958   27.1837   47.7395 H   0  0  0  0  0  0  0  0  0  0  0  0
   60.7987   27.7281   47.3317 H   0  0  0  0  0  0  0  0  0  0  0  0
   61.4643   28.9783   45.2754 H   0  0  0  0  0  0  0  0  0  0  0  0
   59.7309   29.6970   43.6310 H   0  0  0  0  0  0  0  0  0  0  0  0
   58.6610   30.6450   46.9590 H   0  0  0  0  0  0  0  0  0  0  0  0
   60.6790   30.6327   48.2361 H   0  0  0  0  0  0  0  0  0  0  0  0
  1  2  1  0
  2  3  1  0
  3  4  2  0
  3  5  1  0
  5  6  2  0
  6  7  1  0
  7  8  2  0
  8  9  1  0
  9 10  2  0
  9 11  1  0
 11 12  1  0
 11 13  1  0
 13 14  2  3
 14 15  1  0
 15 16  1  0
 16 17  1  0
 17 18  2  0
 18 19  1  0
 19 20  2  0
 20 21  1  0
 21 22  2  0
 13 23  1  0
 23 24  1  0
 24 25  2  0
 25  5  1  0
 24  8  1  0
 22 17  1  0
  1 26  1  0
  1 27  1  0
  1 28  1  0
  6 29  1  0
  7 30  1  0
 12 31  1  0
 12 32  1  0
 12 33  1  0
 15 34  1  0
 15 35  1  0
 16 36  1  0
 16 37  1  0
 18 38  1  0
 19 39  1  0
 20 40  1  0
 21 41  1  0
 22 42  1  0
 23 43  1  0
 25 44  1  0
M  END
>  <UniqueID>  (13) 
13

>  <SMILES>  (13) 
COC(=O)c1ccc2c(=O)n(C)c(=NCCc3ccccc3)[nH]c2c1

>  <Energy>  (13) 
67.4445229510985

>  <Genealogy>  (13) 
COC(=O)c1ccc2c(=O)n(C)c(=NCCc3ccccc3)[nH]c2c1 (3D coordinates assigned)
COC(=O)c1ccc2c(=O)n(C)c(=NCCc3ccccc3)[nH]c2c1 (optimized conformer: 67.4445229510985 kcal/mol)

>  <smiles>  (13) 
COC(=O)c1ccc2c(=O)n(C)c(=NCCc3ccccc3)[nH]c2c1

>  <score_type>  (13) 
oracle

>  <origin>  (13) 
adg

>  <m_score__min__energy>  (13) 
-7.9000000000000004

>  <m_primary>  (13) 
energy

$$$$
13:0
     RDKit          3D

 35 37  0  0  1  0  0  0  0  0999 V2000
   55.1510   29.7160   43.7430 C   0  0  0  0  0  0  0  0  0  0  0  0
   56.4810   29.6450   43.0200 C   0  0  0  0  0  0  0  0  0  0  0  0
   57.5200   29.4360   44.0820 C   0  0  0  0  0  0  0  0  0  0  0  0
   58.2640   28.2710   44.1100 C   0  0  0  0  0  0  0  0  0  0  0  0
   58.0890   27.1870   43.1290 C   0  0  0  0  0  0  0  0  0  0  0  0
   59.1930   28.1270   45.0890 N   0  0  0  0  0  0  0  0  0  0  0  0
   59.3880   29.1010   46.0160 C   0  0  0  0  0  0  0  0  0  0  0  0
   60.2830   29.1450   47.0920 C   0  0  0  0  0  0  0  0  0  0  0  0
   60.0330   30.3700   47.6830 C   0  0  0  0  0  0  0  0  0  0  0  0
   59.0590   31.0250   47.0190 N   0  0  0  0  0  0  0  0  0  0  0  0
   58.6820   30.2460   46.0190 N   0  0  0  0  0  0  0  0  0  0  0  0
   57.7570   30.4050   45.0560 C   0  0  0  0  0  0  0  0  0  0  0  0
   57.0310   31.4680   44.9740 N   0  0  0  0  0  0  0  0  0  0  0  0
   57.4840   32.6220   44.2220 C   0  0  0  0  0  0  0  0  0  0  0  0
   58.2210   33.5000   45.2180 C   0  0  0  0  0  0  0  0  0  0  0  0
   59.3570   34.2350   45.0080 C   0  0  0  0  0  0  0  0  0  0  0  0
   59.8630   34.9530   46.0080 C   0  0  0  0  0  0  0  0  0  0  0  0
   59.2010   34.9060   47.2020 C   0  0  0  0  0  0  0  0  0  0  0  0
   57.7760   33.7760   46.8910 S   0  0  0  0  0  0  0  0  0  0  0  0
   55.3233   29.7068   44.8294 H   0  0  0  0  0  0  0  0  0  0  0  0
   54.6301   30.6432   43.4622 H   0  0  0  0  0  0  0  0  0  0  0  0
   54.5343   28.8495   43.4622 H   0  0  0  0  0  0  0  0  0  0  0  0
   56.4856   28.8045   42.3104 H   0  0  0  0  0  0  0  0  0  0  0  0
   56.6745   30.5611   42.4426 H   0  0  0  0  0  0  0  0  0  0  0  0
   57.9353   26.2349   43.6581 H   0  0  0  0  0  0  0  0  0  0  0  0
   57.2138   27.4013   42.4980 H   0  0  0  0  0  0  0  0  0  0  0  0
   58.9871   27.1150   42.4980 H   0  0  0  0  0  0  0  0  0  0  0  0
   59.7780   27.2420   45.1320 H   0  0  0  0  0  0  0  0  0  0  0  0
   61.0149   28.3823   47.3964 H   0  0  0  0  0  0  0  0  0  0  0  0
   60.5556   30.7561   48.5706 H   0  0  0  0  0  0  0  0  0  0  0  0
   58.1600   32.3104   43.4121 H   0  0  0  0  0  0  0  0  0  0  0  0
   56.6439   33.1565   43.7545 H   0  0  0  0  0  0  0  0  0  0  0  0
   59.8464   34.2321   44.0229 H   0  0  0  0  0  0  0  0  0  0  0  0
   60.7732   35.5570   45.8788 H   0  0  0  0  0  0  0  0  0  0  0  0
   59.4591   35.4245   48.1372 H   0  0  0  0  0  0  0  0  0  0  0  0
  1  2  1  0
  2  3  1  0
  3  4  2  0
  4  5  1  0
  4  6  1  0
  6  7  1  0
  7  8  2  0
  8  9  1  0
  9 10  2  0
 10 11  1  0
 11 12  1  0
 12 13  2  0
 13 14  1  0
 14 15  1  0
 15 16  2  0
 16 17  1  0
 17 18  2  0
 18 19  1  0
 12  3  1  0
 19 15  1  0
 11  7  1  0
  1 20  1  0
  1 21  1  0
  1 22  1  0
  2 23  1  0
  2 24  1  0
  5 25  1  0
  5 26  1  0
  5 27  1  0
  6 28  1  0
  8 29  1  0
  9 30  1  0
 14 31  1  0
 14 32  1  0
 16 33  1  0
 17 34  1  0
 18 35  1  0
M  END
>  <smiles>  (14) 
CCc1c(C)[nH]c2ccnn2c1=NCc1cccs1

>  <score_type>  (14) 
oracle

>  <origin>  (14) 
adg

>  <m_score__min__energy>  (14) 
-6.8300000000000001

>  <m_primary>  (14) 
energy

$$$$
14:0
     RDKit          3D

 37 40  0  0  0  0  0  0  0  0999 V2000
   58.0510   24.1060   47.0920 O   0  0  0  0  0  0  0  0  0  0  0  0
   57.9920   25.3140   46.7320 C   0  0  0  0  0  0  0  0  0  0  0  0
   58.6330   26.2840   47.4980 C   0  0  0  0  0  0  0  0  0  0  0  0
   58.5990   27.6110   47.0880 C   0  0  0  0  0  0  0  0  0  0  0  0
   57.9220   27.9490   45.9110 C   0  0  0  0  0  0  0  0  0  0  0  0
   57.8810   29.3560   45.4400 C   0  0  0  0  0  0  0  0  0  0  0  0
   57.4020   29.6670   44.1550 C   0  0  0  0  0  0  0  0  0  0  0  0
   57.3670   30.9920   43.7100 C   0  0  0  0  0  0  0  0  0  0  0  0
   57.8090   32.0280   44.5430 C   0  0  0  0  0  0  0  0  0  0  0  0
   57.7770   33.3620   44.1050 C   0  0  0  0  0  0  0  0  0  0  0  0
   58.2180   34.3870   44.9460 C   0  0  0  0  0  0  0  0  0  0  0  0
   58.6940   34.0910   46.2260 C   0  0  0  0  0  0  0  0  0  0  0  0
   58.7320   32.7670   46.6740 C   0  0  0  0  0  0  0  0  0  0  0  0
   58.2920   31.7270   45.8390 C   0  0  0  0  0  0  0  0  0  0  0  0
   58.3240   30.3950   46.2770 C   0  0  0  0  0  0  0  0  0  0  0  0
   57.3020   26.9610   45.1980 N   0  0  0  0  0  0  0  0  0  0  0  0
   57.3240   25.6790   45.5910 N   0  0  0  0  0  0  0  0  0  0  0  0
   56.6460   24.6920   44.7860 C   0  0  0  0  0  0  0  0  0  0  0  0
   55.3110   24.3600   45.0550 C   0  0  0  0  0  0  0  0  0  0  0  0
   54.6720   23.3900   44.2780 C   0  0  0  0  0  0  0  0  0  0  0  0
   55.3440   22.7680   43.2740 N   0  0  0  0  0  0  0  0  0  0  0  0
   56.6420   23.0640   42.9960 C   0  0  0  0  0  0  0  0  0  0  0  0
   57.3180   24.0280   43.7490 C   0  0  0  0  0  0  0  0  0  0  0  0
   59.1620   26.0020   48.4203 H   0  0  0  0  0  0  0  0  0  0  0  0
   59.0997   28.3888   47.6832 H   0  0  0  0  0  0  0  0  0  0  0  0
   57.0517   28.8606   43.4940 H   0  0  0  0  0  0  0  0  0  0  0  0
   56.9910   31.2218   42.7021 H   0  0  0  0  0  0  0  0  0  0  0  0
   57.4041   33.6004   43.0980 H   0  0  0  0  0  0  0  0  0  0  0  0
   58.1904   35.4306   44.5993 H   0  0  0  0  0  0  0  0  0  0  0  0
   59.0400   34.9023   46.8834 H   0  0  0  0  0  0  0  0  0  0  0  0
   59.1073   32.5395   47.6826 H   0  0  0  0  0  0  0  0  0  0  0  0
   58.6990   30.1612   47.2843 H   0  0  0  0  0  0  0  0  0  0  0  0
   56.7660   27.2220   44.3380 H   0  0  0  0  0  0  0  0  0  0  0  0
   54.7700   24.8596   45.8722 H   0  0  0  0  0  0  0  0  0  0  0  0
   53.6225   23.1294   44.4796 H   0  0  0  0  0  0  0  0  0  0  0  0
   57.1606   22.5438   42.1772 H   0  0  0  0  0  0  0  0  0  0  0  0
   58.3697   24.2644   43.5300 H   0  0  0  0  0  0  0  0  0  0  0  0
  1  2  2  0
  2  3  1  0
  3  4  2  0
  4  5  1  0
  5  6  1  0
  6  7  2  0
  7  8  1  0
  8  9  2  0
  9 10  1  0
 10 11  2  0
 11 12  1  0
 12 13  2  0
 13 14  1  0
 14 15  2  0
  5 16  2  0
 16 17  1  0
 17 18  1  0
 18 19  2  0
 19 20  1  0
 20 21  2  0
 21 22  1  0
 22 23  2  0
 17  2  1  0
 23 18  1  0
 15  6  1  0
 14  9  1  0
  3 24  1  0
  4 25  1  0
  7 26  1  0
  8 27  1  0
 10 28  1  0
 11 29  1  0
 12 30  1  0
 13 31  1  0
 15 32  1  0
 16 33  1  0
 19 34  1  0
 20 35  1  0
 22 36  1  0
 23 37  1  0
M  CHG  1  16   1
M  END
>  <UniqueID>  (15) 
14

>  <SMILES>  (15) 
O=c1ccc(-c2ccc3ccccc3c2)[nH+]n1-c1ccncc1

>  <Energy>  (15) 
59.087394001530846

>  <Genealogy>  (15) 
O=c1ccc(-c2ccc3ccccc3c2)[nH+]n1-c1ccncc1 (protonated)
O=c1ccc(-c2ccc3ccccc3c2)[nH+]n1-c1ccncc1 (3D coordinates assigned)
O=c1ccc(-c2ccc3ccccc3c2)[nH+]n1-c1ccncc1 (optimized conformer: 59.087394001530846 kcal/mol)

>  <smiles>  (15) 
O=c1ccc(-c2ccc3ccccc3c2)nn1-c1ccncc1

>  <score_type>  (15) 
oracle

>  <origin>  (15) 
adg

>  <m_score__min__energy>  (15) 
-7.0800000000000001

>  <m_primary>  (15) 
energy

$$$$
15:0
     RDKit          3D

 38 40  0  0  1  0  0  0  0  0999 V2000
   55.0850   29.3600   45.0310 O   0  0  0  0  0  0  0  0  0  0  0  0
   56.0040   30.1660   44.4570 N   0  0  0  0  0  0  0  0  0  0  0  0
   57.2920   29.9280   44.5180 C   0  0  0  0  0  0  0  0  0  0  0  0
   58.1140   30.8710   43.8400 N   0  0  0  0  0  0  0  0  0  0  0  0
   57.8130   32.2870   43.7600 C   0  0  0  0  0  0  0  0  0  0  0  0
   58.2380   33.0410   44.9650 C   0  0  0  0  0  0  0  0  0  0  0  0
   57.8680   32.7200   46.2460 C   0  0  0  0  0  0  0  0  0  0  0  0
   58.3210   33.4850   47.3120 C   0  0  0  0  0  0  0  0  0  0  0  0
   59.1430   34.5760   47.1330 C   0  0  0  0  0  0  0  0  0  0  0  0
   59.5210   34.9080   45.8430 C   0  0  0  0  0  0  0  0  0  0  0  0
   59.0620   34.1390   44.8060 C   0  0  0  0  0  0  0  0  0  0  0  0
   57.8190   28.7720   45.2180 C   0  0  0  0  0  0  0  0  0  0  0  0
   57.2100   27.5490   45.2420 N   0  0  0  0  0  0  0  0  0  0  0  0
   57.9260   26.7070   45.9670 N   0  0  0  0  0  0  0  0  0  0  0  0
   59.0130   27.3360   46.4370 C   0  0  0  0  0  0  0  0  0  0  0  0
   58.9600   28.6300   45.9790 C   0  0  0  0  0  0  0  0  0  0  0  0
   60.0410   29.5500   46.3690 C   0  0  0  0  0  0  0  0  0  0  0  0
   60.5450   29.3390   47.7710 C   0  0  0  0  0  0  0  0  0  0  0  0
   60.5920   27.9320   48.2390 C   0  0  0  0  0  0  0  0  0  0  0  0
   60.1360   26.8920   47.2770 C   0  0  0  0  0  0  0  0  0  0  0  0
   54.7630   28.5470   44.4950 H   0  0  0  0  0  0  0  0  0  0  0  0
   58.9910   30.4700   43.3810 H   0  0  0  0  0  0  0  0  0  0  0  0
   58.3303   32.7060   42.8843 H   0  0  0  0  0  0  0  0  0  0  0  0
   56.7205   32.3862   43.6793 H   0  0  0  0  0  0  0  0  0  0  0  0
   57.2121   31.8561   46.4287 H   0  0  0  0  0  0  0  0  0  0  0  0
   58.0139   33.2114   48.3322 H   0  0  0  0  0  0  0  0  0  0  0  0
   59.4901   35.1680   47.9927 H   0  0  0  0  0  0  0  0  0  0  0  0
   60.1762   35.7712   45.6546 H   0  0  0  0  0  0  0  0  0  0  0  0
   59.3679   34.4121   43.7853 H   0  0  0  0  0  0  0  0  0  0  0  0
   56.3010   27.2890   44.7600 H   0  0  0  0  0  0  0  0  0  0  0  0
   60.8821   29.4106   45.6739 H   0  0  0  0  0  0  0  0  0  0  0  0
   59.6244   30.5673   46.3292 H   0  0  0  0  0  0  0  0  0  0  0  0
   61.5650   29.7469   47.8272 H   0  0  0  0  0  0  0  0  0  0  0  0
   59.8215   29.8461   48.4263 H   0  0  0  0  0  0  0  0  0  0  0  0
   61.6344   27.7044   48.5066 H   0  0  0  0  0  0  0  0  0  0  0  0
   59.8811   27.8822   49.0770 H   0  0  0  0  0  0  0  0  0  0  0  0
   60.9793   26.6266   46.6225 H   0  0  0  0  0  0  0  0  0  0  0  0
   59.7852   26.0316   47.8658 H   0  0  0  0  0  0  0  0  0  0  0  0
  1  2  1  0
  2  3  2  0
  3  4  1  0
  4  5  1  0
  5  6  1  0
  6  7  2  0
  7  8  1  0
  8  9  2  0
  9 10  1  0
 10 11  2  0
  3 12  1  0
 12 13  1  0
 13 14  1  0
 14 15  2  0
 15 16  1  0
 16 17  1  0
 17 18  1  0
 18 19  1  0
 19 20  1  0
 11  6  1  0
 16 12  2  0
 20 15  1  0
  1 21  1  0
  4 22  1  0
  5 23  1  0
  5 24  1  0
  7 25  1  0
  8 26  1  0
  9 27  1  0
 10 28  1  0
 11 29  1  0
 13 30  1  0
 17 31  1  0
 17 32  1  0
 18 33  1  0
 18 34  1  0
 19 35  1  0
 19 36  1  0
 20 37  1  0
 20 38  1  0
M  END
>  <smiles>  (16) 
ON=C(NCc1ccccc1)c1[nH]nc2c1CCCC2

>  <score_type>  (16) 
oracle

>  <origin>  (16) 
adg

>  <m_score__min__energy>  (16) 
-9.6699999999999999

>  <m_primary>  (16) 
energy

$$$$
16:0
     RDKit          3D

 61 64  0  0  0  0  0  0  0  0999 V2000
   59.2650   35.3320   44.8900 C   0  0  0  0  0  0  0  0  0  0  0  0
   58.8010   33.9220   45.1610 C   0  0  0  0  0  0  0  0  0  0  0  0
   58.1190   33.2590   44.1320 C   0  0  0  0  0  0  0  0  0  0  0  0
   57.6850   31.9440   44.3020 C   0  0  0  0  0  0  0  0  0  0  0  0
   57.0680   31.2340   43.2130 N   0  0  0  0  0  0  0  0  0  0  0  0
   57.3700   31.6140   41.8310 C   0  0  0  0  0  0  0  0  0  0  0  0
   56.3760   29.9660   43.4830 C   0  0  0  0  0  0  0  0  0  0  0  0
   57.3700   28.7970   43.4770 C   0  0  0  0  0  0  0  0  0  0  0  0
   58.0950   28.7160   44.7630 N   0  0  0  0  0  0  0  0  0  0  0  0
   57.6070   27.6190   45.6360 C   0  0  0  0  0  0  0  0  0  0  0  0
   58.6750   26.5350   45.8690 C   0  0  0  0  0  0  0  0  0  0  0  0
   59.8750   27.0560   46.4220 O   0  0  0  0  0  0  0  0  0  0  0  0
   60.2720   28.3020   45.8600 C   0  0  0  0  0  0  0  0  0  0  0  0
   59.5550   28.6770   44.5500 C   0  0  0  0  0  0  0  0  0  0  0  0
   57.9080   31.3110   45.4850 N   0  0  0  0  0  0  0  0  0  0  0  0
   58.5640   31.9140   46.5170 C   0  0  0  0  0  0  0  0  0  0  0  0
   58.7740   31.2090   47.6990 C   0  0  0  0  0  0  0  0  0  0  0  0
   59.4650   31.7910   48.7640 C   0  0  0  0  0  0  0  0  0  0  0  0
   59.6510   30.9710   50.0180 C   0  0  0  0  0  0  0  0  0  0  0  0
   59.9370   33.0820   48.6570 N   0  0  0  0  0  0  0  0  0  0  0  0
   60.6860   33.6990   49.7780 C   0  0  0  0  0  0  0  0  0  0  0  0
   62.1730   33.4690   49.6410 C   0  0  0  0  0  0  0  0  0  0  0  0
   62.7170   32.9740   48.4420 C   0  0  0  0  0  0  0  0  0  0  0  0
   64.0950   32.7810   48.3180 C   0  0  0  0  0  0  0  0  0  0  0  0
   64.9450   33.0890   49.3840 C   0  0  0  0  0  0  0  0  0  0  0  0
   64.4180   33.5980   50.5760 C   0  0  0  0  0  0  0  0  0  0  0  0
   65.4880   33.9890   51.9120 Cl  0  0  0  0  0  0  0  0  0  0  0  0
   63.0370   33.7940   50.7030 C   0  0  0  0  0  0  0  0  0  0  0  0
   59.7340   33.8050   47.4980 C   0  0  0  0  0  0  0  0  0  0  0  0
   60.1790   34.9820   47.4220 O   0  0  0  0  0  0  0  0  0  0  0  0
   59.0400   33.2390   46.3920 C   0  0  0  0  0  0  0  0  0  0  0  0
   59.4360   35.8516   45.8444 H   0  0  0  0  0  0  0  0  0  0  0  0
   60.2018   35.3054   44.3140 H   0  0  0  0  0  0  0  0  0  0  0  0
   58.4955   35.8669   44.3140 H   0  0  0  0  0  0  0  0  0  0  0  0
   57.9243   33.7795   43.1827 H   0  0  0  0  0  0  0  0  0  0  0  0
   58.0544   32.4752   41.8287 H   0  0  0  0  0  0  0  0  0  0  0  0
   57.8443   30.7673   41.3132 H   0  0  0  0  0  0  0  0  0  0  0  0
   56.4381   31.8849   41.3132 H   0  0  0  0  0  0  0  0  0  0  0  0
   55.8897   30.0221   44.4681 H   0  0  0  0  0  0  0  0  0  0  0  0
   55.6250   29.7973   42.6972 H   0  0  0  0  0  0  0  0  0  0  0  0
   56.8210   27.8580   43.3130 H   0  0  0  0  0  0  0  0  0  0  0  0
   58.1004   28.9601   42.6708 H   0  0  0  0  0  0  0  0  0  0  0  0
   57.3169   28.0438   46.6083 H   0  0  0  0  0  0  0  0  0  0  0  0
   56.7520   27.1446   45.1321 H   0  0  0  0  0  0  0  0  0  0  0  0
   58.2672   25.7823   46.5598 H   0  0  0  0  0  0  0  0  0  0  0  0
   58.9231   26.0980   44.8905 H   0  0  0  0  0  0  0  0  0  0  0  0
   60.0691   29.0910   46.5992 H   0  0  0  0  0  0  0  0  0  0  0  0
   61.3392   28.2039   45.6119 H   0  0  0  0  0  0  0  0  0  0  0  0
   59.9005   29.6668   44.2168 H   0  0  0  0  0  0  0  0  0  0  0  0
   59.7867   27.9219   43.7844 H   0  0  0  0  0  0  0  0  0  0  0  0
   57.5600   30.3310   45.5960 H   0  0  0  0  0  0  0  0  0  0  0  0
   58.3914   30.1822   47.7951 H   0  0  0  0  0  0  0  0  0  0  0  0
   59.5056   31.6119   50.9001 H   0  0  0  0  0  0  0  0  0  0  0  0
   58.9156   30.1532   50.0338 H   0  0  0  0  0  0  0  0  0  0  0  0
   60.6673   30.5505   50.0338 H   0  0  0  0  0  0  0  0  0  0  0  0
   60.4906   34.7815   49.7859 H   0  0  0  0  0  0  0  0  0  0  0  0
   60.3491   33.2343   50.7164 H   0  0  0  0  0  0  0  0  0  0  0  0
   62.0535   32.7375   47.5971 H   0  0  0  0  0  0  0  0  0  0  0  0
   64.5119   32.3860   47.3798 H   0  0  0  0  0  0  0  0  0  0  0  0
   66.0292   32.9311   49.2857 H   0  0  0  0  0  0  0  0  0  0  0  0
   62.6259   34.2039   51.6373 H   0  0  0  0  0  0  0  0  0  0  0  0
  1  2  1  0
  2  3  2  0
  3  4  1  0
  4  5  1  0
  5  6  1  0
  5  7  1  0
  7  8  1  0
  8  9  1  0
  9 10  1  0
 10 11  1  0
 11 12  1  0
 12 13  1  0
 13 14  1  0
  4 15  2  0
 15 16  1  0
 16 17  1  0
 17 18  2  0
 18 19  1  0
 18 20  1  0
 20 21  1  0
 21 22  1  0
 22 23  2  0
 23 24  1  0
 24 25  2  0
 25 26  1  0
 26 27  1  0
 26 28  2  0
 20 29  1  0
 29 30  2  0
 29 31  1  0
 31  2  1  0
 14  9  1  0
 31 16  2  0
 28 22  1  0
  1 32  1  0
  1 33  1  0
  1 34  1  0
  3 35  1  0
  6 36  1  0
  6 37  1  0
  6 38  1  0
  7 39  1  0
  7 40  1  0
  8 41  1  0
  8 42  1  0
 10 43  1  0
 10 44  1  0
 11 45  1  0
 11 46  1  0
 13 47  1  0
 13 48  1  0
 14 49  1  0
 14 50  1  0
 15 51  1  0
 17 52  1  0
 19 53  1  0
 19 54  1  0
 19 55  1  0
 21 56  1  0
 21 57  1  0
 23 58  1  0
 24 59  1  0
 25 60  1  0
 28 61  1  0
M  CHG  1  15   1
M  END
>  <UniqueID>  (17) 
15

>  <SMILES>  (17) 
Cc1cc(N(C)CCN2CCOCC2)[nH+]c2cc(C)n(Cc3cccc(Cl)c3)c(=O)c12

>  <Energy>  (17) 
90.78594932546213

>  <Genealogy>  (17) 
Cc1cc(N(C)CCN2CCOCC2)[nH+]c2cc(C)n(Cc3cccc(Cl)c3)c(=O)c12 (protonated)
Cc1cc(N(C)CCN2CCOCC2)[nH+]c2cc(C)n(Cc3cccc(Cl)c3)c(=O)c12 (3D coordinates assigned)
Cc1cc(N(C)CCN2CCOCC2)[nH+]c2cc(C)n(Cc3cccc(Cl)c3)c(=O)c12 (nonaromatic ring conformer: 90.78594932546213 kcal/mol)

>  <smiles>  (17) 
Cc1cc(N(C)CCN2CCOCC2)nc2cc(C)n(Cc3cccc(Cl)c3)c(=O)c12

>  <score_type>  (17) 
oracle

>  <origin>  (17) 
adg

>  <m_score__min__energy>  (17) 
-7.7999999999999998

>  <m_primary>  (17) 
energy

$$$$
17:0
     RDKit          3D

 28 29  0  0  0  0  0  0  0  0999 V2000
   59.3580   35.2160   45.4040 C   0  0  0  0  0  0  0  0  0  0  0  0
   58.9420   33.8480   45.8780 C   0  0  0  0  0  0  0  0  0  0  0  0
   58.0320   33.0950   45.1170 C   0  0  0  0  0  0  0  0  0  0  0  0
   57.6180   31.8270   45.5400 C   0  0  0  0  0  0  0  0  0  0  0  0
   56.7020   31.0910   44.7140 N   0  0  0  0  0  0  0  0  0  0  0  0
   56.3350   29.7120   44.8620 C   0  0  0  0  0  0  0  0  0  0  0  0
   55.1370   29.3520   44.7150 O   0  0  0  0  0  0  0  0  0  0  0  0
   57.3670   28.6940   45.1340 C   0  0  0  0  0  0  0  0  0  0  0  0
   58.6650   28.8110   44.6060 C   0  0  0  0  0  0  0  0  0  0  0  0
   59.6110   27.8240   44.8900 C   0  0  0  0  0  0  0  0  0  0  0  0
   59.2640   26.7360   45.6920 C   0  0  0  0  0  0  0  0  0  0  0  0
   57.9670   26.6510   46.2000 C   0  0  0  0  0  0  0  0  0  0  0  0
   57.0580   27.6200   45.9140 N   0  0  0  0  0  0  0  0  0  0  0  0
   58.1540   31.2860   46.7210 C   0  0  0  0  0  0  0  0  0  0  0  0
   59.0600   32.0240   47.4850 C   0  0  0  0  0  0  0  0  0  0  0  0
   59.4550   33.3040   47.0760 C   0  0  0  0  0  0  0  0  0  0  0  0
   60.3940   34.0370   47.8910 C   0  0  0  0  0  0  0  0  0  0  0  0
   61.1460   34.6250   48.5460 N   0  0  0  0  0  0  0  0  0  0  0  0
   59.5542   35.8612   46.2730 H   0  0  0  0  0  0  0  0  0  0  0  0
   60.2711   35.1316   44.7964 H   0  0  0  0  0  0  0  0  0  0  0  0
   58.5525   35.6542   44.7964 H   0  0  0  0  0  0  0  0  0  0  0  0
   57.6397   33.5079   44.1759 H   0  0  0  0  0  0  0  0  0  0  0  0
   58.9325   29.6717   43.9754 H   0  0  0  0  0  0  0  0  0  0  0  0
   60.6293   27.9041   44.4817 H   0  0  0  0  0  0  0  0  0  0  0  0
   60.0038   25.9548   45.9210 H   0  0  0  0  0  0  0  0  0  0  0  0
   57.6799   25.7983   46.8329 H   0  0  0  0  0  0  0  0  0  0  0  0
   57.8586   30.2771   47.0448 H   0  0  0  0  0  0  0  0  0  0  0  0
   59.4662   31.5975   48.4140 H   0  0  0  0  0  0  0  0  0  0  0  0
  1  2  1  0
  2  3  2  0
  3  4  1  0
  4  5  1  0
  5  6  1  0
  6  7  2  0
  6  8  1  0
  8  9  2  0
  9 10  1  0
 10 11  2  0
 11 12  1  0
 12 13  2  0
  4 14  2  0
 14 15  1  0
 15 16  2  0
 16 17  1  0
 17 18  3  0
 16  2  1  0
 13  8  1  0
  1 19  1  0
  1 20  1  0
  1 21  1  0
  3 22  1  0
  9 23  1  0
 10 24  1  0
 11 25  1  0
 12 26  1  0
 14 27  1  0
 15 28  1  0
M  CHG  1   5  -1
M  END
>  <UniqueID>  (18) 
16

>  <SMILES>  (18) 
Cc1cc([N-]C(=O)c2ccccn2)ccc1C#N

>  <Energy>  (18) 
32.734664930604694

>  <Genealogy>  (18) 
Cc1cc([N-]C(=O)c2ccccn2)ccc1C#N (protonated)
Cc1cc([N-]C(=O)c2ccccn2)ccc1C#N (3D coordinates assigned)
Cc1cc([N-]C(=O)c2ccccn2)ccc1C#N (optimized conformer: 32.734664930604694 kcal/mol)

>  <smiles>  (18) 
Cc1cc(NC(=O)c2ccccn2)ccc1C#N

>  <score_type>  (18) 
oracle

>  <origin>  (18) 
adg

>  <m_score__min__energy>  (18) 
-8.0299999999999994

>  <m_primary>  (18) 
energy

$$$$
18:0
     RDKit          3D

 42 45  0  0  0  0  0  0  0  0999 V2000
   57.6986   31.9086   45.0827 H   0  0  0  0  0  0  0  0  0  0  0  0
   58.1710   31.4720   45.9750 C   0  0  0  0  0  0  0  0  0  0  0  0
   58.7080   32.3920   47.0000 C   0  0  0  0  0  0  0  0  0  0  0  0
   58.8450   31.9670   48.3350 C   0  0  0  0  0  0  0  0  0  0  0  0
   58.5779   30.9360   48.6102 H   0  0  0  0  0  0  0  0  0  0  0  0
   59.3180   32.8460   49.3130 C   0  0  0  0  0  0  0  0  0  0  0  0
   59.4333   32.5019   50.3514 H   0  0  0  0  0  0  0  0  0  0  0  0
   59.6440   34.1590   48.9740 C   0  0  0  0  0  0  0  0  0  0  0  0
   60.0214   34.8477   49.7442 H   0  0  0  0  0  0  0  0  0  0  0  0
   59.4920   34.6000   47.6590 C   0  0  0  0  0  0  0  0  0  0  0  0
   59.7453   35.6380   47.3974 H   0  0  0  0  0  0  0  0  0  0  0  0
   59.0190   33.7290   46.6710 C   0  0  0  0  0  0  0  0  0  0  0  0
   58.8470   34.3930   44.8780 Br  0  0  0  0  0  0  0  0  0  0  0  0
   58.2270   30.1350   46.0710 C   0  0  0  0  0  0  0  0  0  0  0  0
   59.5310   29.2070   46.7280 S   0  0  0  0  0  0  0  0  0  0  0  0
   58.7400   27.7720   46.3770 C   0  0  0  0  0  0  0  0  0  0  0  0
   59.0480   26.4740   46.5460 N   0  0  0  0  0  0  0  0  0  0  0  0
   57.9320   25.8920   45.9990 C   0  0  0  0  0  0  0  0  0  0  0  0
   57.7470   24.4620   45.9270 N   0  0  0  0  0  0  0  0  0  0  0  0
   56.8140   23.8070   46.8540 C   0  0  0  0  0  0  0  0  0  0  0  0
   57.0692   22.7399   46.9328 H   0  0  0  0  0  0  0  0  0  0  0  0
   56.8933   24.2859   47.8411 H   0  0  0  0  0  0  0  0  0  0  0  0
   55.4090   23.9440   46.3560 C   0  0  0  0  0  0  0  0  0  0  0  0
   54.8720   25.0820   45.9810 O   0  0  0  0  0  0  0  0  0  0  0  0
   53.6420   24.8510   45.5830 C   0  0  0  0  0  0  0  0  0  0  0  0
   52.9428   25.6149   45.2122 H   0  0  0  0  0  0  0  0  0  0  0  0
   53.3590   23.5060   45.7000 C   0  0  0  0  0  0  0  0  0  0  0  0
   52.4134   23.0048   45.4455 H   0  0  0  0  0  0  0  0  0  0  0  0
   54.5000   22.9170   46.2000 C   0  0  0  0  0  0  0  0  0  0  0  0
   54.6541   21.8518   46.4272 H   0  0  0  0  0  0  0  0  0  0  0  0
   58.4600   23.6620   44.9200 C   0  0  0  0  0  0  0  0  0  0  0  0
   59.1927   23.0157   45.4253 H   0  0  0  0  0  0  0  0  0  0  0  0
   58.9685   24.3440   44.2227 H   0  0  0  0  0  0  0  0  0  0  0  0
   57.4850   22.7920   44.1310 C   0  0  0  0  0  0  0  0  0  0  0  0
   56.8508   22.2261   44.8293 H   0  0  0  0  0  0  0  0  0  0  0  0
   56.8528   23.4316   43.4976 H   0  0  0  0  0  0  0  0  0  0  0  0
   58.0488   22.0913   43.4976 H   0  0  0  0  0  0  0  0  0  0  0  0
   57.0270   26.8020   45.5390 N   0  0  0  0  0  0  0  0  0  0  0  0
   56.0990   26.6570   45.0820 H   0  0  0  0  0  0  0  0  0  0  0  0
   57.5820   27.9620   45.8010 N   0  0  0  0  0  0  0  0  0  0  0  0
   57.2400   29.2490   45.5970 C   0  0  0  0  0  0  0  0  0  0  0  0
   56.1620   29.5950   45.0440 O   0  0  0  0  0  0  0  0  0  0  0  0
  1  2  1  0
  2  3  1  0
  3  4  2  0
  4  5  1  0
  4  6  1  0
  6  7  1  0
  6  8  2  0
  8  9  1  0
  8 10  1  0
 10 11  1  0
 10 12  2  0
 12 13  1  0
  2 14  2  0
 14 15  1  0
 15 16  1  0
 16 17  2  0
 17 18  1  0
 18 19  1  0
 19 20  1  0
 20 21  1  0
 20 22  1  0
 20 23  1  0
 23 24  1  0
 24 25  1  0
 25 26  1  0
 25 27  2  0
 27 28  1  0
 27 29  1  0
 29 30  1  0
 19 31  1  0
 31 32  1  0
 31 33  1  0
 31 34  1  0
 34 35  1  0
 34 36  1  0
 34 37  1  0
 18 38  2  0
 38 39  1  0
 38 40  1  0
 40 41  1  0
 41 42  2  0
 12  3  1  0
 41 14  1  0
 40 16  1  0
 29 23  2  0
M  CHG  1  38   1
M  END
>  <UniqueID>  (19) 
17

>  <SMILES>  (19) 
CCN(Cc1ccco1)c1nc2s/c(=C\c3ccccc3Br)c(=O)n2[nH+]1

>  <Energy>  (19) 
160.8156273117735

>  <Genealogy>  (19) 
CCN(Cc1ccco1)c1nc2sc(=Cc3ccccc3Br)c(=O)n2[nH+]1 (protonated)
CCN(Cc1ccco1)c1nc2s/c(=C\c3ccccc3Br)c(=O)n2[nH+]1 (cis-trans isomerization)
CCN(Cc1ccco1)c1nc2s/c(=C\c3ccccc3Br)c(=O)n2[nH+]1 (3D coordinates assigned)
CCN(Cc1ccco1)c1nc2s/c(=C\c3ccccc3Br)c(=O)n2[nH+]1 (optimized conformer: 160.8156273117735 kcal/mol)

>  <smiles>  (19) 
CCN(Cc1ccco1)c1nc2sc(=Cc3ccccc3Br)c(=O)n2n1

>  <score_type>  (19) 
oracle

>  <origin>  (19) 
adg

>  <m_score__min__energy>  (19) 
-6.75

>  <m_primary>  (19) 
energy

$$$$
19:0
     RDKit          3D

 32 33  0  0  0  0  0  0  0  0999 V2000
   60.2677   32.5689   49.4094 H   0  0  0  0  0  0  0  0  0  0  0  0
   59.9370   32.0900   48.4760 C   0  0  0  0  0  0  0  0  0  0  0  0
   59.4010   32.8730   47.4500 C   0  0  0  0  0  0  0  0  0  0  0  0
   59.2850   34.6110   47.7020 Cl  0  0  0  0  0  0  0  0  0  0  0  0
   58.9760   32.2650   46.2530 C   0  0  0  0  0  0  0  0  0  0  0  0
   58.3100   33.2280   44.9270 S   0  0  0  0  0  0  0  0  0  0  0  0
   57.0760   33.9650   45.3650 O   0  0  0  0  0  0  0  0  0  0  0  0
   59.3380   34.2330   44.4870 O   0  0  0  0  0  0  0  0  0  0  0  0
   57.9100   32.1960   43.5940 N   0  0  0  0  0  0  0  0  0  0  0  0
   57.0120   31.2640   43.6690 C   0  0  0  0  0  0  0  0  0  0  0  0
   56.3270   30.9370   44.7820 N   0  0  0  0  0  0  0  0  0  0  0  0
   55.5450   29.9610   44.4120 O   0  0  0  0  0  0  0  0  0  0  0  0
   55.6790   29.6440   43.1550 N   0  0  0  0  0  0  0  0  0  0  0  0
   55.1500   28.8940   42.6610 H   0  0  0  0  0  0  0  0  0  0  0  0
   56.6130   30.4560   42.6350 C   0  0  0  0  0  0  0  0  0  0  0  0
   56.9807   30.4703   41.5984 H   0  0  0  0  0  0  0  0  0  0  0  0
   59.0990   30.8760   46.1050 C   0  0  0  0  0  0  0  0  0  0  0  0
   58.7713   30.3992   45.1694 H   0  0  0  0  0  0  0  0  0  0  0  0
   59.6360   30.0830   47.1370 C   0  0  0  0  0  0  0  0  0  0  0  0
   59.7750   28.6880   47.0190 O   0  0  0  0  0  0  0  0  0  0  0  0
   60.1260   27.9800   45.8290 C   0  0  0  0  0  0  0  0  0  0  0  0
   60.5223   26.9907   46.1016 H   0  0  0  0  0  0  0  0  0  0  0  0
   60.8857   28.5603   45.2848 H   0  0  0  0  0  0  0  0  0  0  0  0
   58.9100   27.8000   44.9270 C   0  0  0  0  0  0  0  0  0  0  0  0
   58.0106   27.6669   45.5462 H   0  0  0  0  0  0  0  0  0  0  0  0
   58.7895   28.6901   44.2920 H   0  0  0  0  0  0  0  0  0  0  0  0
   59.0525   26.9132   44.2920 H   0  0  0  0  0  0  0  0  0  0  0  0
   60.0580   30.7010   48.3290 C   0  0  0  0  0  0  0  0  0  0  0  0
   60.6390   29.8740   49.4430 C   0  0  0  0  0  0  0  0  0  0  0  0
   60.3391   30.3009   50.4114 H   0  0  0  0  0  0  0  0  0  0  0  0
   60.2665   28.8419   49.3661 H   0  0  0  0  0  0  0  0  0  0  0  0
   61.7363   29.8745   49.3661 H   0  0  0  0  0  0  0  0  0  0  0  0
  1  2  1  0
  2  3  2  0
  3  4  1  0
  3  5  1  0
  5  6  1  0
  6  7  2  0
  6  8  2  0
  6  9  1  0
  9 10  2  0
 10 11  1  0
 11 12  1  0
 12 13  1  0
 13 14  1  0
 13 15  2  0
 15 16  1  0
  5 17  2  0
 17 18  1  0
 17 19  1  0
 19 20  1  0
 20 21  1  0
 21 22  1  0
 21 23  1  0
 21 24  1  0
 24 25  1  0
 24 26  1  0
 24 27  1  0
 19 28  2  0
 28 29  1  0
 29 30  1  0
 29 31  1  0
 29 32  1  0
 28  2  1  0
 15 10  1  0
M  CHG  2  11  -1  13   1
M  END
>  <UniqueID>  (20) 
18

>  <SMILES>  (20) 
CCOc1cc(S(=O)(=O)/N=c2/c[nH+]o[n-]2)c(Cl)cc1C

>  <Energy>  (20) 
70.01404747305328

>  <Genealogy>  (20) 
CCOc1cc(S(=O)(=O)N=c2c[nH+]o[n-]2)c(Cl)cc1C (protonated)
CCOc1cc(S(=O)(=O)/N=c2/c[nH+]o[n-]2)c(Cl)cc1C (cis-trans isomerization)
CCOc1cc(S(=O)(=O)/N=c2/c[nH+]o[n-]2)c(Cl)cc1C (3D coordinates assigned)
CCOc1cc(S(=O)(=O)/N=c2/c[nH+]o[n-]2)c(Cl)cc1C (optimized conformer: 70.01404747305328 kcal/mol)

>  <smiles>  (20) 
CCOc1cc(S(=O)(=O)N=c2cno[nH]2)c(Cl)cc1C

>  <score_type>  (20) 
oracle

>  <origin>  (20) 
adg

>  <m_score__min__energy>  (20) 
-8.2699999999999996

>  <m_primary>  (20) 
energy

$$$$
20:0
     RDKit          3D

 33 35  0  0  0  0  0  0  0  0999 V2000
   59.4049   35.0184   44.6794 H   0  0  0  0  0  0  0  0  0  0  0  0
   59.5980   34.2030   45.3920 C   0  0  0  0  0  0  0  0  0  0  0  0
   60.7630   33.9580   45.9630 O   0  0  0  0  0  0  0  0  0  0  0  0
   60.6160   32.9060   46.7340 C   0  0  0  0  0  0  0  0  0  0  0  0
   61.5740   32.2780   47.5220 C   0  0  0  0  0  0  0  0  0  0  0  0
   63.3650   32.9380   47.6080 Br  0  0  0  0  0  0  0  0  0  0  0  0
   61.2020   31.1720   48.2370 N   0  0  0  0  0  0  0  0  0  0  0  0
   61.9110   30.6930   48.8350 H   0  0  0  0  0  0  0  0  0  0  0  0
   59.9260   30.6710   48.1790 C   0  0  0  0  0  0  0  0  0  0  0  0
   59.5020   29.2430   49.1050 Cl  0  0  0  0  0  0  0  0  0  0  0  0
   58.9500   31.2940   47.3800 C   0  0  0  0  0  0  0  0  0  0  0  0
   57.9270   30.8957   47.3105 H   0  0  0  0  0  0  0  0  0  0  0  0
   59.3330   32.4370   46.6800 C   0  0  0  0  0  0  0  0  0  0  0  0
   58.6490   33.2790   45.8230 C   0  0  0  0  0  0  0  0  0  0  0  0
   57.2320   33.2310   45.4060 C   0  0  0  0  0  0  0  0  0  0  0  0
   56.5100   34.2440   45.5920 O   0  0  0  0  0  0  0  0  0  0  0  0
   56.6550   32.0790   44.7720 N   0  0  0  0  0  0  0  0  0  0  0  0
   57.1470   30.8770   44.7960 C   0  0  0  0  0  0  0  0  0  0  0  0
   56.4790   29.7910   45.2500 N   0  0  0  0  0  0  0  0  0  0  0  0
   57.2390   28.6660   45.1720 C   0  0  0  0  0  0  0  0  0  0  0  0
   56.7200   27.3440   45.6380 C   0  0  0  0  0  0  0  0  0  0  0  0
   56.7108   27.3207   46.7377 H   0  0  0  0  0  0  0  0  0  0  0  0
   55.6976   27.1974   45.2596 H   0  0  0  0  0  0  0  0  0  0  0  0
   57.3696   26.5410   45.2596 H   0  0  0  0  0  0  0  0  0  0  0  0
   58.5120   28.8600   44.6270 C   0  0  0  0  0  0  0  0  0  0  0  0
   59.5970   27.8340   44.4820 C   0  0  0  0  0  0  0  0  0  0  0  0
   59.7948   27.6658   43.4131 H   0  0  0  0  0  0  0  0  0  0  0  0
   59.2673   26.8997   44.9600 H   0  0  0  0  0  0  0  0  0  0  0  0
   60.8780   28.3070   45.1600 C   0  0  0  0  0  0  0  0  0  0  0  0
   60.7534   28.2610   46.2520 H   0  0  0  0  0  0  0  0  0  0  0  0
   61.7135   27.6581   44.8586 H   0  0  0  0  0  0  0  0  0  0  0  0
   61.0913   29.3432   44.8586 H   0  0  0  0  0  0  0  0  0  0  0  0
   58.6910   30.4950   44.2630 S   0  0  0  0  0  0  0  0  0  0  0  0
  1  2  1  0
  2  3  1  0
  3  4  1  0
  4  5  2  0
  5  6  1  0
  5  7  1  0
  7  8  1  0
  7  9  2  0
  9 10  1  0
  9 11  1  0
 11 12  1  0
 11 13  2  0
 13 14  1  0
 14 15  1  0
 15 16  2  0
 15 17  1  0
 17 18  2  0
 18 19  1  0
 19 20  1  0
 20 21  1  0
 21 22  1  0
 21 23  1  0
 21 24  1  0
 20 25  2  0
 25 26  1  0
 26 27  1  0
 26 28  1  0
 26 29  1  0
 29 30  1  0
 29 31  1  0
 29 32  1  0
 25 33  1  0
 14  2  2  0
 33 18  1  0
 13  4  1  0
M  CHG  2   7   1  19  -1
M  END
>  <UniqueID>  (21) 
19

>  <SMILES>  (21) 
CCc1s/c(=N/C(=O)c2coc3c(Br)[nH+]c(Cl)cc23)[n-]c1C

>  <Energy>  (21) 
100.69526030148246

>  <Genealogy>  (21) 
CCc1sc(=NC(=O)c2coc3c(Br)[nH+]c(Cl)cc23)[n-]c1C (protonated)
CCc1s/c(=N/C(=O)c2coc3c(Br)[nH+]c(Cl)cc23)[n-]c1C (cis-trans isomerization)
CCc1s/c(=N/C(=O)c2coc3c(Br)[nH+]c(Cl)cc23)[n-]c1C (3D coordinates assigned)
CCc1s/c(=N/C(=O)c2coc3c(Br)[nH+]c(Cl)cc23)[n-]c1C (optimized conformer: 100.69526030148246 kcal/mol)

>  <smiles>  (21) 
CCc1sc(=NC(=O)c2coc3c(Br)nc(Cl)cc23)[nH]c1C

>  <score_type>  (21) 
oracle

>  <origin>  (21) 
adg

>  <m_score__min__energy>  (21) 
-7.9699999999999998

>  <m_primary>  (21) 
energy

$$$$
21:0
     RDKit          3D

 41 43  0  0  0  0  0  0  0  0999 V2000
   56.0760   25.9600   46.0170 C   0  0  0  0  0  0  0  0  0  0  0  0
   57.3780   26.6260   46.4740 C   0  0  0  0  0  0  0  0  0  0  0  0
   57.6870   28.0030   45.8180 C   0  0  1  0  0  0  0  0  0  0  0  0
   56.4750   28.7710   45.4970 N   0  0  0  0  0  0  0  0  0  0  0  0
   56.2670   29.7350   44.4530 C   0  0  0  0  0  0  0  0  0  0  0  0
   55.4220   29.5170   43.5440 O   0  0  0  0  0  0  0  0  0  0  0  0
   57.0500   30.9930   44.4450 C   0  0  0  0  0  0  0  0  0  0  0  0
   57.4270   31.5940   43.2270 C   0  0  0  0  0  0  0  0  0  0  0  0
   58.1680   32.7800   43.2170 C   0  0  0  0  0  0  0  0  0  0  0  0
   58.5410   33.3810   44.4210 C   0  0  0  0  0  0  0  0  0  0  0  0
   59.2610   34.5340   44.4280 N   0  0  0  0  0  0  0  0  0  0  0  0
   59.6290   35.1260   45.5960 C   0  0  0  0  0  0  0  0  0  0  0  0
   59.2610   34.5400   46.8110 C   0  0  0  0  0  0  0  0  0  0  0  0
   58.5410   33.3870   46.8100 N   0  0  0  0  0  0  0  0  0  0  0  0
   58.1710   32.7910   45.6460 C   0  0  0  0  0  0  0  0  0  0  0  0
   57.4310   31.6040   45.6560 C   0  0  0  0  0  0  0  0  0  0  0  0
   58.7270   28.8490   46.5590 C   0  0  0  0  0  0  0  0  0  0  0  0
   58.5240   29.1970   47.9130 C   0  0  0  0  0  0  0  0  0  0  0  0
   59.4690   29.9470   48.6130 C   0  0  0  0  0  0  0  0  0  0  0  0
   60.6400   30.3570   47.9840 C   0  0  0  0  0  0  0  0  0  0  0  0
   60.8770   30.0140   46.6550 C   0  0  0  0  0  0  0  0  0  0  0  0
   59.9420   29.2510   45.9320 C   0  0  0  0  0  0  0  0  0  0  0  0
   60.2540   28.9030   44.4990 C   0  0  0  0  0  0  0  0  0  0  0  0
   55.4890   25.6598   46.8975 H   0  0  0  0  0  0  0  0  0  0  0  0
   55.4931   26.6707   45.4127 H   0  0  0  0  0  0  0  0  0  0  0  0
   56.3111   25.0714   45.4127 H   0  0  0  0  0  0  0  0  0  0  0  0
   57.3203   26.7735   47.5625 H   0  0  0  0  0  0  0  0  0  0  0  0
   58.1897   25.9520   46.1628 H   0  0  0  0  0  0  0  0  0  0  0  0
   58.1651   27.7391   44.8631 H   0  0  0  0  0  0  0  0  0  0  0  0
   57.1356   31.1257   42.2753 H   0  0  0  0  0  0  0  0  0  0  0  0
   58.4571   33.2396   42.2603 H   0  0  0  0  0  0  0  0  0  0  0  0
   60.2118   36.0589   45.5848 H   0  0  0  0  0  0  0  0  0  0  0  0
   59.5525   35.0093   47.7622 H   0  0  0  0  0  0  0  0  0  0  0  0
   57.1451   31.1453   46.6141 H   0  0  0  0  0  0  0  0  0  0  0  0
   57.6058   28.8712   48.4236 H   0  0  0  0  0  0  0  0  0  0  0  0
   59.2879   30.2148   49.6644 H   0  0  0  0  0  0  0  0  0  0  0  0
   61.3804   30.9534   48.5373 H   0  0  0  0  0  0  0  0  0  0  0  0
   61.8054   30.3433   46.1654 H   0  0  0  0  0  0  0  0  0  0  0  0
   60.9881   28.0842   44.4720 H   0  0  0  0  0  0  0  0  0  0  0  0
   59.3321   28.5859   43.9896 H   0  0  0  0  0  0  0  0  0  0  0  0
   60.6695   29.7850   43.9896 H   0  0  0  0  0  0  0  0  0  0  0  0
  1  2  1  0
  2  3  1  0
  3  4  1  0
  4  5  1  0
  5  6  2  0
  5  7  1  0
  7  8  2  0
  8  9  1  0
  9 10  2  0
 10 11  1  0
 11 12  2  0
 12 13  1  0
 13 14  2  0
 14 15  1  0
 15 16  2  0
  3 17  1  0
 17 18  2  0
 18 19  1  0
 19 20  2  0
 20 21  1  0
 21 22  2  0
 22 23  1  0
 16  7  1  0
 22 17  1  0
 15 10  1  0
  1 24  1  0
  1 25  1  0
  1 26  1  0
  2 27  1  0
  2 28  1  0
  3 29  1  6
  8 30  1  0
  9 31  1  0
 12 32  1  0
 13 33  1  0
 16 34  1  0
 18 35  1  0
 19 36  1  0
 20 37  1  0
 21 38  1  0
 23 39  1  0
 23 40  1  0
 23 41  1  0
M  CHG  1   4  -1
M  END
>  <UniqueID>  (22) 
20

>  <SMILES>  (22) 
CC[C@@H]([N-]C(=O)c1ccc2nccnc2c1)c1ccccc1C

>  <Energy>  (22) 
55.13773168233049

>  <Genealogy>  (22) 
CCC([N-]C(=O)c1ccc2nccnc2c1)c1ccccc1C (protonated)
CC[C@@H]([N-]C(=O)c1ccc2nccnc2c1)c1ccccc1C (chirality)
CC[C@@H]([N-]C(=O)c1ccc2nccnc2c1)c1ccccc1C (3D coordinates assigned)
CC[C@@H]([N-]C(=O)c1ccc2nccnc2c1)c1ccccc1C (optimized conformer: 55.13773168233049 kcal/mol)

>  <smiles>  (22) 
CCC(NC(=O)c1ccc2nccnc2c1)c1ccccc1C

>  <score_type>  (22) 
oracle

>  <origin>  (22) 
adg

>  <m_score__min__energy>  (22) 
-9.2400000000000002

>  <m_primary>  (22) 
energy

$$$$
22:0
     RDKit          3D

 44 47  0  0  0  0  0  0  0  0999 V2000
   57.7520   28.5240   43.8970 C   0  0  0  0  0  0  0  0  0  0  0  0
   58.6140   28.9570   44.9080 C   0  0  0  0  0  0  0  0  0  0  0  0
   58.5180   30.2610   45.4010 C   0  0  0  0  0  0  0  0  0  0  0  0
   57.5610   31.1470   44.8770 C   0  0  0  0  0  0  0  0  0  0  0  0
   57.4340   32.5410   45.4330 C   0  0  0  0  0  0  0  0  0  0  0  0
   58.7270   32.9760   46.1570 C   0  0  2  0  0  0  0  0  0  0  0  0
   58.4770   33.3920   47.6400 C   0  0  0  0  0  0  0  0  0  0  0  0
   59.6630   33.3650   48.5230 N   0  0  0  0  0  0  0  0  0  0  0  0
   59.4150   33.2540   49.9690 C   0  0  0  0  0  0  0  0  0  0  0  0
   58.7930   31.9290   50.2870 C   0  0  0  0  0  0  0  0  0  0  0  0
   57.7330   31.7130   51.1330 C   0  0  0  0  0  0  0  0  0  0  0  0
   57.5150   30.3900   51.2270 N   0  0  0  0  0  0  0  0  0  0  0  0
   58.4610   29.8440   50.4350 C   0  0  0  0  0  0  0  0  0  0  0  0
   59.2700   30.7510   49.8480 N   0  0  0  0  0  0  0  0  0  0  0  0
   61.0200   33.2500   48.0270 C   0  0  0  0  0  0  0  0  0  0  0  0
   61.9820   32.5230   48.7530 C   0  0  0  0  0  0  0  0  0  0  0  0
   63.3000   32.4340   48.2970 C   0  0  0  0  0  0  0  0  0  0  0  0
   63.6760   33.0750   47.1170 C   0  0  0  0  0  0  0  0  0  0  0  0
   62.7360   33.8040   46.3880 C   0  0  0  0  0  0  0  0  0  0  0  0
   61.4050   33.8870   46.8300 C   0  0  0  0  0  0  0  0  0  0  0  0
   60.4030   34.6940   46.0540 C   0  0  0  0  0  0  0  0  0  0  0  0
   59.5010   33.8640   45.3480 O   0  0  0  0  0  0  0  0  0  0  0  0
   56.6900   30.7020   43.8700 C   0  0  0  0  0  0  0  0  0  0  0  0
   56.7890   29.3960   43.3790 C   0  0  0  0  0  0  0  0  0  0  0  0
   57.8308   27.4978   43.5087 H   0  0  0  0  0  0  0  0  0  0  0  0
   59.3697   28.2700   45.3166 H   0  0  0  0  0  0  0  0  0  0  0  0
   59.1938   30.5952   46.2020 H   0  0  0  0  0  0  0  0  0  0  0  0
   57.2334   33.2393   44.6071 H   0  0  0  0  0  0  0  0  0  0  0  0
   56.6086   32.5511   46.1601 H   0  0  0  0  0  0  0  0  0  0  0  0
   59.3839   32.1021   46.2788 H   0  0  0  0  0  0  0  0  0  0  0  0
   58.0786   34.4173   47.6407 H   0  0  0  0  0  0  0  0  0  0  0  0
   57.7826   32.6429   48.0482 H   0  0  0  0  0  0  0  0  0  0  0  0
   60.3686   33.3468   50.5094 H   0  0  0  0  0  0  0  0  0  0  0  0
   58.7286   34.0561   50.2780 H   0  0  0  0  0  0  0  0  0  0  0  0
   57.1566   32.4948   51.6493 H   0  0  0  0  0  0  0  0  0  0  0  0
   58.5635   28.7596   50.2818 H   0  0  0  0  0  0  0  0  0  0  0  0
   61.6937   32.0202   49.6879 H   0  0  0  0  0  0  0  0  0  0  0  0
   64.0417   31.8577   48.8695 H   0  0  0  0  0  0  0  0  0  0  0  0
   64.7144   33.0058   46.7607 H   0  0  0  0  0  0  0  0  0  0  0  0
   63.0384   34.3162   45.4627 H   0  0  0  0  0  0  0  0  0  0  0  0
   59.8348   35.3254   46.7529 H   0  0  0  0  0  0  0  0  0  0  0  0
   60.9484   35.3094   45.3234 H   0  0  0  0  0  0  0  0  0  0  0  0
   55.9267   31.3830   43.4655 H   0  0  0  0  0  0  0  0  0  0  0  0
   56.1089   29.0545   42.5848 H   0  0  0  0  0  0  0  0  0  0  0  0
  1  2  2  0
  2  3  1  0
  3  4  2  0
  4  5  1  0
  5  6  1  0
  6  7  1  0
  7  8  1  0
  8  9  1  0
  9 10  1  0
 10 11  2  0
 11 12  1  0
 12 13  1  0
 13 14  2  0
  8 15  1  0
 15 16  2  0
 16 17  1  0
 17 18  2  0
 18 19  1  0
 19 20  2  0
 20 21  1  0
 21 22  1  0
  4 23  1  0
 23 24  2  0
 24  1  1  0
 22  6  1  0
 14 10  1  0
 20 15  1  0
  1 25  1  0
  2 26  1  0
  3 27  1  0
  5 28  1  0
  5 29  1  0
  6 30  1  1
  7 31  1  0
  7 32  1  0
  9 33  1  0
  9 34  1  0
 11 35  1  0
 13 36  1  0
 16 37  1  0
 17 38  1  0
 18 39  1  0
 19 40  1  0
 21 41  1  0
 21 42  1  0
 23 43  1  0
 24 44  1  0
M  CHG  1  12  -1
M  END
>  <UniqueID>  (23) 
21

>  <SMILES>  (23) 
c1ccc(C[C@@H]2CN(Cc3c[n-]cn3)c3ccccc3CO2)cc1

>  <Energy>  (23) 
91.4511057371904

>  <Genealogy>  (23) 
c1ccc(CC2CN(Cc3c[n-]cn3)c3ccccc3CO2)cc1 (protonated)
c1ccc(C[C@@H]2CN(Cc3c[n-]cn3)c3ccccc3CO2)cc1 (chirality)
c1ccc(C[C@@H]2CN(Cc3c[n-]cn3)c3ccccc3CO2)cc1 (3D coordinates assigned)
c1ccc(C[C@@H]2CN(Cc3c[n-]cn3)c3ccccc3CO2)cc1 (nonaromatic ring conformer: 91.4511057371904 kcal/mol)

>  <smiles>  (23) 
c1ccc(CC2CN(Cc3c[nH]cn3)c3ccccc3CO2)cc1

>  <score_type>  (23) 
oracle

>  <origin>  (23) 
adg

>  <m_score__min__energy>  (23) 
-6.9299999999999997

>  <m_primary>  (23) 
energy

$$$$
23:0
     RDKit          3D

 34 36  0  0  0  0  0  0  0  0999 V2000
   60.7340   28.7620   44.8990 C   0  0  0  0  0  0  0  0  0  0  0  0
   60.0490   28.2940   46.1820 C   0  0  0  0  0  0  0  0  0  0  0  0
   60.0630   29.3630   47.2860 C   0  0  0  0  0  0  0  0  0  0  0  0
   58.6980   30.0350   47.4740 C   0  0  0  0  0  0  0  0  0  0  0  0
   58.4650   31.0080   46.4020 N   0  0  0  0  0  0  0  0  0  0  0  0
   58.8610   32.3060   46.3650 C   0  0  0  0  0  0  0  0  0  0  0  0
   59.5420   33.0270   47.3510 C   0  0  0  0  0  0  0  0  0  0  0  0
   59.8620   34.3720   47.0850 C   0  0  0  0  0  0  0  0  0  0  0  0
   59.5090   34.9650   45.8540 C   0  0  0  0  0  0  0  0  0  0  0  0
   58.8340   34.2210   44.8710 C   0  0  0  0  0  0  0  0  0  0  0  0
   58.5250   32.8930   45.1610 C   0  0  0  0  0  0  0  0  0  0  0  0
   57.9090   31.9170   44.4110 C   0  0  0  0  0  0  0  0  0  0  0  0
   57.3930   31.9360   43.1170 C   0  0  0  0  0  0  0  0  0  0  0  0
   56.8470   30.7430   42.6120 C   0  0  0  0  0  0  0  0  0  0  0  0
   56.8350   29.5710   43.4000 C   0  0  0  0  0  0  0  0  0  0  0  0
   57.3670   29.5780   44.7030 C   0  0  0  0  0  0  0  0  0  0  0  0
   57.8960   30.7770   45.1910 C   0  0  0  0  0  0  0  0  0  0  0  0
   61.6175   29.3656   45.1542 H   0  0  0  0  0  0  0  0  0  0  0  0
   61.0455   27.8871   44.3095 H   0  0  0  0  0  0  0  0  0  0  0  0
   60.0322   29.3703   44.3095 H   0  0  0  0  0  0  0  0  0  0  0  0
   59.0038   28.0408   45.9506 H   0  0  0  0  0  0  0  0  0  0  0  0
   60.6055   27.4223   46.5567 H   0  0  0  0  0  0  0  0  0  0  0  0
   60.3546   28.8868   48.2337 H   0  0  0  0  0  0  0  0  0  0  0  0
   60.7792   30.1421   46.9859 H   0  0  0  0  0  0  0  0  0  0  0  0
   57.9087   29.2693   47.4486 H   0  0  0  0  0  0  0  0  0  0  0  0
   58.6826   30.5554   48.4430 H   0  0  0  0  0  0  0  0  0  0  0  0
   59.8194   32.5571   48.3061 H   0  0  0  0  0  0  0  0  0  0  0  0
   60.3922   34.9662   47.8438 H   0  0  0  0  0  0  0  0  0  0  0  0
   59.7641   36.0177   45.6623 H   0  0  0  0  0  0  0  0  0  0  0  0
   58.5590   34.6713   43.9058 H   0  0  0  0  0  0  0  0  0  0  0  0
   57.4122   32.8537   42.5108 H   0  0  0  0  0  0  0  0  0  0  0  0
   56.4261   30.7222   41.5959 H   0  0  0  0  0  0  0  0  0  0  0  0
   56.4059   28.6441   42.9916 H   0  0  0  0  0  0  0  0  0  0  0  0
   57.3667   28.6670   45.3195 H   0  0  0  0  0  0  0  0  0  0  0  0
  1  2  1  0
  2  3  1  0
  3  4  1  0
  4  5  1  0
  5  6  1  0
  6  7  2  0
  7  8  1  0
  8  9  2  0
  9 10  1  0
 10 11  2  0
 11 12  1  0
 12 13  2  0
 13 14  1  0
 14 15  2  0
 15 16  1  0
 16 17  2  0
 17  5  1  0
 11  6  1  0
 17 12  1  0
  1 18  1  0
  1 19  1  0
  1 20  1  0
  2 21  1  0
  2 22  1  0
  3 23  1  0
  3 24  1  0
  4 25  1  0
  4 26  1  0
  7 27  1  0
  8 28  1  0
  9 29  1  0
 10 30  1  0
 13 31  1  0
 14 32  1  0
 15 33  1  0
 16 34  1  0
M  END
>  <UniqueID>  (24) 
22

>  <SMILES>  (24) 
CCCCn1c2ccccc2c2ccccc21

>  <Energy>  (24) 
71.14450956127168

>  <Genealogy>  (24) 
CCCCn1c2ccccc2c2ccccc21 (3D coordinates assigned)
CCCCn1c2ccccc2c2ccccc21 (optimized conformer: 71.14450956127168 kcal/mol)

>  <smiles>  (24) 
CCCCn1c2ccccc2c2ccccc21

>  <score_type>  (24) 
oracle

>  <origin>  (24) 
adg

>  <m_score__min__energy>  (24) 
-6.5300000000000002

>  <m_primary>  (24) 
energy

$$$$
24:0
     RDKit          3D

 44 46  0  0  0  0  0  0  0  0999 V2000
   62.7510   33.8340   47.4780 C   0  0  0  0  0  0  0  0  0  0  0  0
   61.2540   33.9950   47.7410 C   0  0  0  0  0  0  0  0  0  0  0  0
   60.4560   32.8810   47.0860 C   0  0  0  0  0  0  0  0  0  0  0  0
   60.4930   31.5460   47.6010 C   0  0  0  0  0  0  0  0  0  0  0  0
   61.3720   31.1750   48.7690 C   0  0  0  0  0  0  0  0  0  0  0  0
   59.7530   30.5620   47.0060 N   0  0  0  0  0  0  0  0  0  0  0  0
   58.9890   30.8600   45.9280 C   0  0  0  0  0  0  0  0  0  0  0  0
   58.1660   30.0260   45.1960 C   0  0  0  0  0  0  0  0  0  0  0  0
   57.9430   28.5750   45.3640 C   0  0  0  0  0  0  0  0  0  0  0  0
   59.0180   27.6790   45.2660 C   0  0  0  0  0  0  0  0  0  0  0  0
   58.8070   26.3060   45.4170 C   0  0  0  0  0  0  0  0  0  0  0  0
   57.5230   25.8180   45.6640 C   0  0  0  0  0  0  0  0  0  0  0  0
   56.4360   26.6940   45.7630 C   0  0  0  0  0  0  0  0  0  0  0  0
   55.1660   26.1550   46.0110 O   0  0  0  0  0  0  0  0  0  0  0  0
   54.7570   24.8490   45.6170 C   0  0  0  0  0  0  0  0  0  0  0  0
   56.6530   28.0790   45.6130 C   0  0  0  0  0  0  0  0  0  0  0  0
   57.6140   30.8810   44.2400 C   0  0  0  0  0  0  0  0  0  0  0  0
   56.6360   30.5130   43.1700 C   0  0  0  0  0  0  0  0  0  0  0  0
   58.0830   32.1390   44.4140 N   0  0  0  0  0  0  0  0  0  0  0  0
   58.9170   32.1030   45.4410 N   0  0  0  0  0  0  0  0  0  0  0  0
   59.6120   33.1460   45.9700 C   0  0  0  0  0  0  0  0  0  0  0  0
   59.5210   34.5130   45.3380 C   0  0  0  0  0  0  0  0  0  0  0  0
   63.2876   33.7763   48.4365 H   0  0  0  0  0  0  0  0  0  0  0  0
   62.9254   32.9119   46.9041 H   0  0  0  0  0  0  0  0  0  0  0  0
   63.1175   34.6979   46.9041 H   0  0  0  0  0  0  0  0  0  0  0  0
   61.0764   33.9727   48.8263 H   0  0  0  0  0  0  0  0  0  0  0  0
   60.9273   34.9542   47.3130 H   0  0  0  0  0  0  0  0  0  0  0  0
   60.8457   31.3971   49.7091 H   0  0  0  0  0  0  0  0  0  0  0  0
   61.6065   30.1012   48.7249 H   0  0  0  0  0  0  0  0  0  0  0  0
   62.3049   31.7561   48.7249 H   0  0  0  0  0  0  0  0  0  0  0  0
   59.7650   29.5870   47.3820 H   0  0  0  0  0  0  0  0  0  0  0  0
   60.0314   28.0590   45.0694 H   0  0  0  0  0  0  0  0  0  0  0  0
   59.6543   25.6086   45.3411 H   0  0  0  0  0  0  0  0  0  0  0  0
   57.3640   24.7359   45.7818 H   0  0  0  0  0  0  0  0  0  0  0  0
   54.5659   24.2389   46.5122 H   0  0  0  0  0  0  0  0  0  0  0  0
   53.8375   24.9181   45.0173 H   0  0  0  0  0  0  0  0  0  0  0  0
   55.5517   24.3812   45.0173 H   0  0  0  0  0  0  0  0  0  0  0  0
   55.8057   28.7761   45.6916 H   0  0  0  0  0  0  0  0  0  0  0  0
   55.7018   30.1615   43.6323 H   0  0  0  0  0  0  0  0  0  0  0  0
   56.4271   31.3940   42.5454 H   0  0  0  0  0  0  0  0  0  0  0  0
   57.0598   29.7128   42.5454 H   0  0  0  0  0  0  0  0  0  0  0  0
   59.4700   35.2787   46.1261 H   0  0  0  0  0  0  0  0  0  0  0  0
   60.4095   34.6881   44.7135 H   0  0  0  0  0  0  0  0  0  0  0  0
   58.6172   34.5688   44.7135 H   0  0  0  0  0  0  0  0  0  0  0  0
  1  2  1  0
  2  3  1  0
  3  4  1  0
  4  5  1  0
  4  6  2  0
  6  7  1  0
  7  8  2  0
  8  9  1  0
  9 10  2  0
 10 11  1  0
 11 12  2  0
 12 13  1  0
 13 14  1  0
 14 15  1  0
 13 16  2  0
  8 17  1  0
 17 18  1  0
 17 19  2  0
 19 20  1  0
 20 21  1  0
 21 22  1  0
 21  3  2  0
 20  7  1  0
 16  9  1  0
  1 23  1  0
  1 24  1  0
  1 25  1  0
  2 26  1  0
  2 27  1  0
  5 28  1  0
  5 29  1  0
  5 30  1  0
  6 31  1  0
 10 32  1  0
 11 33  1  0
 12 34  1  0
 15 35  1  0
 15 36  1  0
 15 37  1  0
 16 38  1  0
 18 39  1  0
 18 40  1  0
 18 41  1  0
 22 42  1  0
 22 43  1  0
 22 44  1  0
M  CHG  1   6   1
M  END
>  <UniqueID>  (25) 
23

>  <SMILES>  (25) 
CCc1c(C)[nH+]c2c(-c3cccc(OC)c3)c(C)nn2c1C

>  <Energy>  (25) 
85.16581186066321

>  <Genealogy>  (25) 
CCc1c(C)[nH+]c2c(-c3cccc(OC)c3)c(C)nn2c1C (protonated)
CCc1c(C)[nH+]c2c(-c3cccc(OC)c3)c(C)nn2c1C (3D coordinates assigned)
CCc1c(C)[nH+]c2c(-c3cccc(OC)c3)c(C)nn2c1C (optimized conformer: 85.16581186066321 kcal/mol)

>  <smiles>  (25) 
CCc1c(C)nc2c(-c3cccc(OC)c3)c(C)nn2c1C

>  <score_type>  (25) 
oracle

>  <origin>  (25) 
adg

>  <m_score__min__energy>  (25) 
-6.5099999999999998

>  <m_primary>  (25) 
energy

$$$$
25:0
     RDKit          3D

 61 66  0  0  0  0  0  0  0  0999 V2000
   57.0360   23.7700   44.6780 C   0  0  0  0  0  0  0  0  0  0  0  0
   57.1930   24.4510   45.9200 O   0  0  0  0  0  0  0  0  0  0  0  0
   57.5170   25.8110   46.0420 C   0  0  0  0  0  0  0  0  0  0  0  0
   56.6450   26.8440   45.5940 C   0  0  0  0  0  0  0  0  0  0  0  0
   57.0080   28.2040   45.7340 C   0  0  0  0  0  0  0  0  0  0  0  0
   56.2090   29.2650   45.2930 O   0  0  0  0  0  0  0  0  0  0  0  0
   56.1600   29.7490   43.9550 C   0  0  0  0  0  0  0  0  0  0  0  0
   56.9990   30.9890   43.8740 C   0  0  0  0  0  0  0  0  0  0  0  0
   57.4330   31.4940   42.6400 C   0  0  0  0  0  0  0  0  0  0  0  0
   58.1330   32.7030   42.5840 C   0  0  0  0  0  0  0  0  0  0  0  0
   58.3760   33.4280   43.7550 C   0  0  0  0  0  0  0  0  0  0  0  0
   57.9310   32.9490   44.9930 C   0  0  0  0  0  0  0  0  0  0  0  0
   58.1540   33.7350   46.1340 O   0  0  0  0  0  0  0  0  0  0  0  0
   59.4250   33.9400   46.7570 C   0  0  0  0  0  0  0  0  0  0  0  0
   59.4240   33.4340   48.1790 C   0  0  0  0  0  0  0  0  0  0  0  0
   58.4920   32.4580   48.5710 C   0  0  0  0  0  0  0  0  0  0  0  0
   58.4730   31.9860   49.8890 C   0  0  0  0  0  0  0  0  0  0  0  0
   59.3740   32.4940   50.8270 C   0  0  0  0  0  0  0  0  0  0  0  0
   60.3010   33.4710   50.4500 C   0  0  0  0  0  0  0  0  0  0  0  0
   60.3250   33.9460   49.1360 C   0  0  0  0  0  0  0  0  0  0  0  0
   61.2270   34.9050   48.7990 F   0  0  0  0  0  0  0  0  0  0  0  0
   57.2650   31.7110   45.0460 C   0  0  0  0  0  0  0  0  0  0  0  0
   58.2330   28.4820   46.3350 C   0  0  0  0  0  0  0  0  0  0  0  0
   58.8440   29.6830   46.6120 C   0  0  0  0  0  0  0  0  0  0  0  0
   60.0500   29.3250   47.2070 C   0  0  0  0  0  0  0  0  0  0  0  0
   61.0740   30.2560   47.6990 C   0  0  0  0  0  0  0  0  0  0  0  0
   61.5190   30.3510   49.0230 C   0  0  0  0  0  0  0  0  0  0  0  0
   62.4420   31.3110   48.9960 N   0  0  0  0  0  0  0  0  0  0  0  0
   63.2310   31.8710   49.8980 N   0  0  0  0  0  0  0  0  0  0  0  0
   64.0050   32.8250   49.3090 C   0  0  0  0  0  0  0  0  0  0  0  0
   64.9480   33.6030   49.9840 O   0  0  0  0  0  0  0  0  0  0  0  0
   66.2360   33.1160   50.3440 C   0  0  0  0  0  0  0  0  0  0  0  0
   63.6910   32.9690   47.6240 S   0  0  0  0  0  0  0  0  0  0  0  0
   62.5430   31.7520   47.7690 C   0  0  0  0  0  0  0  0  0  0  0  0
   61.7250   31.1440   46.8910 N   0  0  0  0  0  0  0  0  0  0  0  0
   60.1640   28.0100   47.2810 O   0  0  0  0  0  0  0  0  0  0  0  0
   59.0770   27.4940   46.7620 C   0  0  0  0  0  0  0  0  0  0  0  0
   58.7520   26.1470   46.6320 C   0  0  0  0  0  0  0  0  0  0  0  0
   56.7926   22.7141   44.8670 H   0  0  0  0  0  0  0  0  0  0  0  0
   56.2219   24.2369   44.1042 H   0  0  0  0  0  0  0  0  0  0  0  0
   57.9723   23.8334   44.1042 H   0  0  0  0  0  0  0  0  0  0  0  0
   55.6804   26.5819   45.1349 H   0  0  0  0  0  0  0  0  0  0  0  0
   56.5558   28.9862   43.2684 H   0  0  0  0  0  0  0  0  0  0  0  0
   55.1216   29.9738   43.6702 H   0  0  0  0  0  0  0  0  0  0  0  0
   57.2224   30.9381   41.7145 H   0  0  0  0  0  0  0  0  0  0  0  0
   58.4932   33.0846   41.6172 H   0  0  0  0  0  0  0  0  0  0  0  0
   58.9210   34.3821   43.7029 H   0  0  0  0  0  0  0  0  0  0  0  0
   60.1957   33.4022   46.1853 H   0  0  0  0  0  0  0  0  0  0  0  0
   59.6356   35.0196   46.7717 H   0  0  0  0  0  0  0  0  0  0  0  0
   57.7733   32.0626   47.8381 H   0  0  0  0  0  0  0  0  0  0  0  0
   57.7476   31.2142   50.1858 H   0  0  0  0  0  0  0  0  0  0  0  0
   59.3547   32.1255   51.8633 H   0  0  0  0  0  0  0  0  0  0  0  0
   61.0129   33.8664   51.1895 H   0  0  0  0  0  0  0  0  0  0  0  0
   56.9493   31.3047   46.0182 H   0  0  0  0  0  0  0  0  0  0  0  0
   58.4655   30.6957   46.4093 H   0  0  0  0  0  0  0  0  0  0  0  0
   61.1821   29.7646   49.8906 H   0  0  0  0  0  0  0  0  0  0  0  0
   63.2430   31.6030   50.9060 H   0  0  0  0  0  0  0  0  0  0  0  0
   66.3224   33.0833   51.4401 H   0  0  0  0  0  0  0  0  0  0  0  0
   66.3729   32.1041   49.9351 H   0  0  0  0  0  0  0  0  0  0  0  0
   67.0081   33.7843   49.9351 H   0  0  0  0  0  0  0  0  0  0  0  0
   59.4417   25.3643   46.9810 H   0  0  0  0  0  0  0  0  0  0  0  0
  1  2  1  0
  2  3  1  0
  3  4  2  0
  4  5  1  0
  5  6  1  0
  6  7  1  0
  7  8  1  0
  8  9  2  0
  9 10  1  0
 10 11  2  0
 11 12  1  0
 12 13  1  0
 13 14  1  0
 14 15  1  0
 15 16  2  0
 16 17  1  0
 17 18  2  0
 18 19  1  0
 19 20  2  0
 20 21  1  0
 12 22  2  0
  5 23  2  0
 23 24  1  0
 24 25  2  0
 25 26  1  0
 26 27  2  0
 27 28  1  0
 28 29  1  0
 29 30  2  0
 30 31  1  0
 31 32  1  0
 30 33  1  0
 33 34  1  0
 34 35  2  0
 25 36  1  0
 36 37  1  0
 37 38  2  0
 38  3  1  0
 22  8  1  0
 37 23  1  0
 20 15  1  0
 35 26  1  0
 34 28  1  0
  1 39  1  0
  1 40  1  0
  1 41  1  0
  4 42  1  0
  7 43  1  0
  7 44  1  0
  9 45  1  0
 10 46  1  0
 11 47  1  0
 14 48  1  0
 14 49  1  0
 16 50  1  0
 17 51  1  0
 18 52  1  0
 19 53  1  0
 22 54  1  0
 24 55  1  0
 27 56  1  0
 29 57  1  0
 32 58  1  0
 32 59  1  0
 32 60  1  0
 38 61  1  0
M  CHG  1  29   1
M  END
>  <UniqueID>  (26) 
24

>  <SMILES>  (26) 
COc1cc(OCc2cccc(OCc3ccccc3F)c2)c2cc(-c3cn4[nH+]c(OC)sc4n3)oc2c1

>  <Energy>  (26) 
179.97909583303547

>  <Genealogy>  (26) 
COc1cc(OCc2cccc(OCc3ccccc3F)c2)c2cc(-c3cn4[nH+]c(OC)sc4n3)oc2c1 (protonated)
COc1cc(OCc2cccc(OCc3ccccc3F)c2)c2cc(-c3cn4[nH+]c(OC)sc4n3)oc2c1 (3D coordinates assigned)
COc1cc(OCc2cccc(OCc3ccccc3F)c2)c2cc(-c3cn4[nH+]c(OC)sc4n3)oc2c1 (optimized conformer: 179.97909583303547 kcal/mol)

>  <smiles>  (26) 
COc1cc(OCc2cccc(OCc3ccccc3F)c2)c2cc(-c3cn4nc(OC)sc4n3)oc2c1

>  <score_type>  (26) 
oracle

>  <origin>  (26) 
adg

>  <m_score__min__energy>  (26) 
-7.9199999999999999

>  <m_primary>  (26) 
energy

$$$$
26:0
     RDKit          3D

 43 44  0  0  0  0  0  0  0  0999 V2000
   57.7710   34.2200   44.9130 C   0  0  0  0  0  0  0  0  0  0  0  0
   58.4870   33.7270   46.1660 C   0  0  0  0  0  0  0  0  0  0  0  0
   57.8210   32.4680   46.7270 C   0  0  0  0  0  0  0  0  0  0  0  0
   57.8270   31.4050   45.7230 N   0  0  0  0  0  0  0  0  0  0  0  0
   56.8540   31.2520   44.8380 N   0  0  0  0  0  0  0  0  0  0  0  0
   57.1100   30.1330   44.1330 C   0  0  0  0  0  0  0  0  0  0  0  0
   56.2450   29.6400   43.0190 C   0  0  0  0  0  0  0  0  0  0  0  0
   58.2760   29.5440   44.5990 C   0  0  0  0  0  0  0  0  0  0  0  0
   58.9050   28.2590   44.1270 C   0  0  0  0  0  0  0  0  0  0  0  0
   57.9300   27.1580   44.0670 N   0  0  0  0  0  0  0  0  0  0  0  0
   57.8570   26.3630   45.3050 C   0  0  0  0  0  0  0  0  0  0  0  0
   56.5620   25.6030   45.4290 C   0  0  0  0  0  0  0  0  0  0  0  0
   55.5170   26.0120   46.1750 N   0  0  0  0  0  0  0  0  0  0  0  0
   54.5660   25.1130   45.9610 N   0  0  0  0  0  0  0  0  0  0  0  0
   54.9930   24.1910   45.1100 N   0  0  0  0  0  0  0  0  0  0  0  0
   56.2380   24.4740   44.7680 N   0  0  0  0  0  0  0  0  0  0  0  0
   57.0150   23.7200   43.7880 C   0  0  0  0  0  0  0  0  0  0  0  0
   57.9500   22.7420   44.4870 C   0  0  0  0  0  0  0  0  0  0  0  0
   58.7180   30.3930   45.6000 C   0  0  0  0  0  0  0  0  0  0  0  0
   59.9080   30.1680   46.4890 C   0  0  0  0  0  0  0  0  0  0  0  0
   56.8970   34.8218   45.2029 H   0  0  0  0  0  0  0  0  0  0  0  0
   58.4591   34.8367   44.3161 H   0  0  0  0  0  0  0  0  0  0  0  0
   57.4404   33.3572   44.3161 H   0  0  0  0  0  0  0  0  0  0  0  0
   59.5329   33.4975   45.9143 H   0  0  0  0  0  0  0  0  0  0  0  0
   58.4353   34.5172   46.9295 H   0  0  0  0  0  0  0  0  0  0  0  0
   58.3726   32.1307   47.6169 H   0  0  0  0  0  0  0  0  0  0  0  0
   56.7805   32.7016   46.9970 H   0  0  0  0  0  0  0  0  0  0  0  0
   55.3609   29.1361   43.4367 H   0  0  0  0  0  0  0  0  0  0  0  0
   55.9239   30.4908   42.4001 H   0  0  0  0  0  0  0  0  0  0  0  0
   56.8134   28.9301   42.4001 H   0  0  0  0  0  0  0  0  0  0  0  0
   59.3248   28.4169   43.1226 H   0  0  0  0  0  0  0  0  0  0  0  0
   59.6891   27.9800   44.8463 H   0  0  0  0  0  0  0  0  0  0  0  0
   56.9850   27.5650   43.8700 H   0  0  0  0  0  0  0  0  0  0  0  0
   58.6896   25.6442   45.3119 H   0  0  0  0  0  0  0  0  0  0  0  0
   57.9169   27.0606   46.1534 H   0  0  0  0  0  0  0  0  0  0  0  0
   56.3289   23.1609   43.1348 H   0  0  0  0  0  0  0  0  0  0  0  0
   57.6161   24.4235   43.1932 H   0  0  0  0  0  0  0  0  0  0  0  0
   57.8462   22.8506   45.5767 H   0  0  0  0  0  0  0  0  0  0  0  0
   57.6904   21.7138   44.1946 H   0  0  0  0  0  0  0  0  0  0  0  0
   58.9888   22.9552   44.1946 H   0  0  0  0  0  0  0  0  0  0  0  0
   59.5954   30.2271   47.5420 H   0  0  0  0  0  0  0  0  0  0  0  0
   60.3331   29.1736   46.2880 H   0  0  0  0  0  0  0  0  0  0  0  0
   60.6668   30.9386   46.2880 H   0  0  0  0  0  0  0  0  0  0  0  0
  1  2  1  0
  2  3  1  0
  3  4  1  0
  4  5  1  0
  5  6  2  0
  6  7  1  0
  6  8  1  0
  8  9  1  0
  9 10  1  0
 10 11  1  0
 11 12  1  0
 12 13  2  0
 13 14  1  0
 14 15  2  0
 15 16  1  0
 16 17  1  0
 17 18  1  0
  8 19  2  0
 19 20  1  0
 19  4  1  0
 16 12  1  0
  1 21  1  0
  1 22  1  0
  1 23  1  0
  2 24  1  0
  2 25  1  0
  3 26  1  0
  3 27  1  0
  7 28  1  0
  7 29  1  0
  7 30  1  0
  9 31  1  0
  9 32  1  0
 10 33  1  0
 11 34  1  0
 11 35  1  0
 17 36  1  0
 17 37  1  0
 18 38  1  0
 18 39  1  0
 18 40  1  0
 20 41  1  0
 20 42  1  0
 20 43  1  0
M  END
>  <UniqueID>  (27) 
25

>  <SMILES>  (27) 
CCCn1nc(C)c(CNCc2nnnn2CC)c1C

>  <Energy>  (27) 
99.70625598808587

>  <Genealogy>  (27) 
CCCn1nc(C)c(CNCc2nnnn2CC)c1C (3D coordinates assigned)
CCCn1nc(C)c(CNCc2nnnn2CC)c1C (optimized conformer: 99.70625598808587 kcal/mol)

>  <smiles>  (27) 
CCCn1nc(C)c(CNCc2nnnn2CC)c1C

>  <score_type>  (27) 
oracle

>  <origin>  (27) 
adg

>  <m_score__min__energy>  (27) 
-7.5599999999999996

>  <m_primary>  (27) 
energy

$$$$
27:0
     RDKit          3D

 25 26  0  0  0  0  0  0  0  0999 V2000
   50.4750   31.3420   54.1410 C   0  0  0  0  0  0  0  0  0  0  0  0
   51.6820   31.2410   53.2530 C   0  0  0  0  0  0  0  0  0  0  0  0
   52.7690   30.4320   53.6250 C   0  0  0  0  0  0  0  0  0  0  0  0
   53.8950   30.3130   52.7890 C   0  0  0  0  0  0  0  0  0  0  0  0
   55.0420   29.4620   53.1960 C   0  0  0  0  0  0  0  0  0  0  0  0
   56.3480   29.7780   52.7770 C   0  0  0  0  0  0  0  0  0  0  0  0
   57.4110   28.9640   53.1620 C   0  0  0  0  0  0  0  0  0  0  0  0
   57.1760   27.8440   53.9570 C   0  0  0  0  0  0  0  0  0  0  0  0
   55.8710   27.5540   54.3590 C   0  0  0  0  0  0  0  0  0  0  0  0
   54.8410   28.3560   53.9760 N   0  0  0  0  0  0  0  0  0  0  0  0
   53.9160   31.0110   51.5690 C   0  0  0  0  0  0  0  0  0  0  0  0
   52.8340   31.8090   51.1920 C   0  0  0  0  0  0  0  0  0  0  0  0
   51.7180   31.9230   52.0240 C   0  0  0  0  0  0  0  0  0  0  0  0
   50.6470   32.7170   51.6250 O   0  0  0  0  0  0  0  0  0  0  0  0
   50.7914   31.3155   55.1942 H   0  0  0  0  0  0  0  0  0  0  0  0
   49.9497   32.2872   53.9396 H   0  0  0  0  0  0  0  0  0  0  0  0
   49.7999   30.4972   53.9396 H   0  0  0  0  0  0  0  0  0  0  0  0
   52.7396   29.8860   54.5795 H   0  0  0  0  0  0  0  0  0  0  0  0
   56.5284   30.6629   52.1490 H   0  0  0  0  0  0  0  0  0  0  0  0
   58.4344   29.2051   52.8388 H   0  0  0  0  0  0  0  0  0  0  0  0
   58.0096   27.1955   54.2644 H   0  0  0  0  0  0  0  0  0  0  0  0
   55.6747   26.6733   54.9881 H   0  0  0  0  0  0  0  0  0  0  0  0
   53.8810   28.1190   54.3130 H   0  0  0  0  0  0  0  0  0  0  0  0
   54.7906   30.9280   50.9070 H   0  0  0  0  0  0  0  0  0  0  0  0
   52.8607   32.3506   50.2349 H   0  0  0  0  0  0  0  0  0  0  0  0
  1  2  1  0
  2  3  2  0
  3  4  1  0
  4  5  1  0
  5  6  2  0
  6  7  1  0
  7  8  2  0
  8  9  1  0
  9 10  2  0
  4 11  2  0
 11 12  1  0
 12 13  2  0
 13 14  1  0
 13  2  1  0
 10  5  1  0
  1 15  1  0
  1 16  1  0
  1 17  1  0
  3 18  1  0
  6 19  1  0
  7 20  1  0
  8 21  1  0
  9 22  1  0
 10 23  1  0
 11 24  1  0
 12 25  1  0
M  CHG  2  10   1  14  -1
M  END
>  <UniqueID>  (28) 
26

>  <SMILES>  (28) 
Cc1cc(-c2cccc[nH+]2)ccc1[O-]

>  <Energy>  (28) 
30.641488183264514

>  <Genealogy>  (28) 
Cc1cc(-c2cccc[nH+]2)ccc1[O-] (protonated)
Cc1cc(-c2cccc[nH+]2)ccc1[O-] (3D coordinates assigned)
Cc1cc(-c2cccc[nH+]2)ccc1[O-] (optimized conformer: 30.641488183264514 kcal/mol)

>  <smiles>  (28) 
Cc1cc(-c2ccccn2)ccc1O

>  <score_type>  (28) 
oracle

>  <origin>  (28) 
adg

>  <m_score__min__energy>  (28) 
-8.5700000000000003

>  <m_primary>  (28) 
energy

$$$$
28:0
     RDKit          3D

 23 23  0  0  0  0  0  0  0  0999 V2000
   55.1440   27.5210   45.3640 H   0  0  0  0  0  0  0  0  0  0  0  0
   55.7090   28.3530   45.2490 O   0  0  0  0  0  0  0  0  0  0  0  0
   57.1020   28.3500   45.3520 C   0  0  0  0  0  0  0  0  0  0  0  0
   57.8610   29.4850   44.9930 C   0  0  0  0  0  0  0  0  0  0  0  0
   57.0380   31.1150   44.4100 Br  0  0  0  0  0  0  0  0  0  0  0  0
   59.2580   29.4350   45.0470 C   0  0  0  0  0  0  0  0  0  0  0  0
   59.8479   30.3221   44.7732 H   0  0  0  0  0  0  0  0  0  0  0  0
   59.9070   28.2670   45.4460 C   0  0  0  0  0  0  0  0  0  0  0  0
   61.0061   28.2309   45.4722 H   0  0  0  0  0  0  0  0  0  0  0  0
   59.1640   27.1440   45.8120 C   0  0  0  0  0  0  0  0  0  0  0  0
   59.6812   26.2220   46.1159 H   0  0  0  0  0  0  0  0  0  0  0  0
   57.7630   27.1830   45.7950 C   0  0  0  0  0  0  0  0  0  0  0  0
   57.0190   25.9700   46.1930 C   0  0  0  0  0  0  0  0  0  0  0  0
   57.5014   24.9898   46.0644 H   0  0  0  0  0  0  0  0  0  0  0  0
   55.8200   26.0130   46.6880 N   0  0  0  0  0  0  0  0  0  0  0  0
   54.6950   25.9670   45.8950 O   0  0  0  0  0  0  0  0  0  0  0  0
   54.0700   24.7290   45.6020 C   0  0  0  0  0  0  0  0  0  0  0  0
   53.0702   24.9139   45.1823 H   0  0  0  0  0  0  0  0  0  0  0  0
   53.9782   24.1385   46.5255 H   0  0  0  0  0  0  0  0  0  0  0  0
   54.9080   23.9610   44.5930 C   0  0  0  0  0  0  0  0  0  0  0  0
   55.6177   23.3106   45.1252 H   0  0  0  0  0  0  0  0  0  0  0  0
   54.2496   23.3462   43.9618 H   0  0  0  0  0  0  0  0  0  0  0  0
   55.4632   24.6704   43.9618 H   0  0  0  0  0  0  0  0  0  0  0  0
  1  2  1  0
  2  3  1  0
  3  4  2  0
  4  5  1  0
  4  6  1  0
  6  7  1  0
  6  8  2  0
  8  9  1  0
  8 10  1  0
 10 11  1  0
 10 12  2  0
 12 13  1  0
 13 14  1  0
 13 15  2  0
 15 16  1  0
 16 17  1  0
 17 18  1  0
 17 19  1  0
 17 20  1  0
 20 21  1  0
 20 22  1  0
 20 23  1  0
 12  3  1  0
M  END
>  <UniqueID>  (29) 
27

>  <SMILES>  (29) 
CCO/N=C\c1cccc(Br)c1O

>  <Energy>  (29) 
21.68270629634505

>  <Genealogy>  (29) 
CCO/N=C\c1cccc(Br)c1O (cis-trans isomerization)
CCO/N=C\c1cccc(Br)c1O (3D coordinates assigned)
CCO/N=C\c1cccc(Br)c1O (optimized conformer: 21.68270629634505 kcal/mol)

>  <smiles>  (29) 
CCON=Cc1cccc(Br)c1O

>  <score_type>  (29) 
oracle

>  <origin>  (29) 
adg

>  <m_score__min__energy>  (29) 
-6.8700000000000001

>  <m_primary>  (29) 
energy

$$$$
29:0
     RDKit          3D

 38 39  0  0  0  0  0  0  0  0999 V2000
   63.0340   34.2690   51.0740 C   0  0  0  0  0  0  0  0  0  0  0  0
   62.6830   34.7180   49.7680 O   0  0  0  0  0  0  0  0  0  0  0  0
   61.7950   34.0520   48.9110 C   0  0  0  0  0  0  0  0  0  0  0  0
   60.4050   34.2630   48.9630 C   0  0  0  0  0  0  0  0  0  0  0  0
   59.5530   33.5870   48.0880 C   0  0  0  0  0  0  0  0  0  0  0  0
   60.0700   32.6870   47.1470 C   0  0  0  0  0  0  0  0  0  0  0  0
   59.1920   32.0040   46.2280 N   0  0  0  0  0  0  0  0  0  0  0  0
   58.4350   32.7680   45.2270 C   0  0  0  0  0  0  0  0  0  0  0  0
   57.0600   32.1250   44.9480 C   0  0  0  0  0  0  0  0  0  0  0  0
   57.0440   30.6400   45.0720 N   0  0  0  0  0  0  0  0  0  0  0  0
   56.1630   30.0550   44.0870 C   0  0  0  0  0  0  0  0  0  0  0  0
   55.1380   29.1500   44.4960 N   0  0  0  0  0  0  0  0  0  0  0  0
   56.2790   30.3520   42.8660 O   0  0  0  0  0  0  0  0  0  0  0  0
   58.3850   30.0310   44.9790 C   0  0  0  0  0  0  0  0  0  0  0  0
   59.2660   30.5420   46.1240 C   0  0  0  0  0  0  0  0  0  0  0  0
   61.4560   32.4710   47.0960 C   0  0  0  0  0  0  0  0  0  0  0  0
   62.3220   33.1500   47.9740 C   0  0  0  0  0  0  0  0  0  0  0  0
   63.7130   32.9570   47.9470 O   0  0  0  0  0  0  0  0  0  0  0  0
   64.4620   32.3400   48.9890 C   0  0  0  0  0  0  0  0  0  0  0  0
   62.5389   34.9023   51.8249 H   0  0  0  0  0  0  0  0  0  0  0  0
   62.7094   33.2259   51.2027 H   0  0  0  0  0  0  0  0  0  0  0  0
   64.1246   34.3322   51.2027 H   0  0  0  0  0  0  0  0  0  0  0  0
   59.9866   34.9658   49.6985 H   0  0  0  0  0  0  0  0  0  0  0  0
   58.4682   33.7622   48.1377 H   0  0  0  0  0  0  0  0  0  0  0  0
   58.2822   33.7919   45.5990 H   0  0  0  0  0  0  0  0  0  0  0  0
   59.0103   32.7745   44.2894 H   0  0  0  0  0  0  0  0  0  0  0  0
   56.3341   32.5388   45.6634 H   0  0  0  0  0  0  0  0  0  0  0  0
   56.8082   32.3578   43.9028 H   0  0  0  0  0  0  0  0  0  0  0  0
   56.6580   30.3990   46.0180 H   0  0  0  0  0  0  0  0  0  0  0  0
   54.5460   29.3530   45.3300 H   0  0  0  0  0  0  0  0  0  0  0  0
   58.2950   28.9368   45.0474 H   0  0  0  0  0  0  0  0  0  0  0  0
   58.8432   30.3050   44.0172 H   0  0  0  0  0  0  0  0  0  0  0  0
   58.9232   30.0957   47.0692 H   0  0  0  0  0  0  0  0  0  0  0  0
   60.3085   30.2560   45.9205 H   0  0  0  0  0  0  0  0  0  0  0  0
   61.8699   31.7637   46.3622 H   0  0  0  0  0  0  0  0  0  0  0  0
   64.0691   32.6637   49.9641 H   0  0  0  0  0  0  0  0  0  0  0  0
   64.3767   31.2466   48.9039 H   0  0  0  0  0  0  0  0  0  0  0  0
   65.5188   32.6331   48.9039 H   0  0  0  0  0  0  0  0  0  0  0  0
  1  2  1  0
  2  3  1  0
  3  4  2  0
  4  5  1  0
  5  6  2  0
  6  7  1  0
  7  8  1  0
  8  9  1  0
  9 10  1  0
 10 11  1  0
 11 12  1  0
 11 13  2  0
 10 14  1  0
 14 15  1  0
  6 16  1  0
 16 17  2  0
 17 18  1  0
 18 19  1  0
 17  3  1  0
 15  7  1  0
  1 20  1  0
  1 21  1  0
  1 22  1  0
  4 23  1  0
  5 24  1  0
  8 25  1  0
  8 26  1  0
  9 27  1  0
  9 28  1  0
 10 29  1  0
 12 30  1  0
 14 31  1  0
 14 32  1  0
 15 33  1  0
 15 34  1  0
 16 35  1  0
 19 36  1  0
 19 37  1  0
 19 38  1  0
M  CHG  2  10   1  12  -1
M  END
>  <UniqueID>  (30) 
28

>  <SMILES>  (30) 
COc1ccc(N2CC[NH+](C([NH-])=O)CC2)cc1OC

>  <Energy>  (30) 
47.0481694247212

>  <Genealogy>  (30) 
COc1ccc(N2CC[NH+](C([NH-])=O)CC2)cc1OC (protonated)
COc1ccc(N2CC[NH+](C([NH-])=O)CC2)cc1OC (3D coordinates assigned)
COc1ccc(N2CC[NH+](C([NH-])=O)CC2)cc1OC (nonaromatic ring conformer: 47.0481694247212 kcal/mol)

>  <smiles>  (30) 
COc1ccc(N2CCN(C(N)=O)CC2)cc1OC

>  <score_type>  (30) 
oracle

>  <origin>  (30) 
adg

>  <m_score__min__energy>  (30) 
-6.79

>  <m_primary>  (30) 
energy

$$$$
30:0
     RDKit          3D

 23 24  0  0  0  0  0  0  0  0999 V2000
   56.4780   22.9290   44.8600 O   0  0  0  0  0  0  0  0  0  0  0  0
   56.0630   24.0640   45.2180 C   0  0  0  0  0  0  0  0  0  0  0  0
   56.9700   25.0680   45.5520 C   0  0  0  0  0  0  0  0  0  0  0  0
   56.4900   26.3200   45.9540 C   0  0  0  0  0  0  0  0  0  0  0  0
   57.4430   27.4340   46.2840 C   0  0  0  0  0  0  0  0  0  0  0  0
   57.1790   28.6160   45.3970 C   0  0  0  0  0  0  0  0  0  0  0  0
   58.2400   29.3440   44.8390 C   0  0  0  0  0  0  0  0  0  0  0  0
   57.9600   30.4160   43.9890 C   0  0  0  0  0  0  0  0  0  0  0  0
   56.6350   30.7470   43.6990 C   0  0  0  0  0  0  0  0  0  0  0  0
   55.6030   29.9910   44.2640 C   0  0  0  0  0  0  0  0  0  0  0  0
   55.8950   28.9500   45.0890 N   0  0  0  0  0  0  0  0  0  0  0  0
   55.1420   26.5350   45.9890 N   0  0  0  0  0  0  0  0  0  0  0  0
   54.2770   25.5700   45.6690 N   0  0  0  0  0  0  0  0  0  0  0  0
   54.6940   24.3360   45.2850 C   0  0  0  0  0  0  0  0  0  0  0  0
   53.8460   23.4520   44.9930 O   0  0  0  0  0  0  0  0  0  0  0  0
   58.0523   24.8785   45.5002 H   0  0  0  0  0  0  0  0  0  0  0  0
   57.3076   27.7298   47.3348 H   0  0  0  0  0  0  0  0  0  0  0  0
   58.4742   27.0860   46.1240 H   0  0  0  0  0  0  0  0  0  0  0  0
   59.2813   29.0735   45.0684 H   0  0  0  0  0  0  0  0  0  0  0  0
   58.7823   30.9989   43.5485 H   0  0  0  0  0  0  0  0  0  0  0  0
   56.4055   31.5925   43.0339 H   0  0  0  0  0  0  0  0  0  0  0  0
   54.5546   30.2385   44.0410 H   0  0  0  0  0  0  0  0  0  0  0  0
   54.7700   27.4690   46.2700 H   0  0  0  0  0  0  0  0  0  0  0  0
  1  2  2  0
  2  3  1  0
  3  4  2  0
  4  5  1  0
  5  6  1  0
  6  7  2  0
  7  8  1  0
  8  9  2  0
  9 10  1  0
 10 11  2  0
  4 12  1  0
 12 13  1  0
 13 14  1  0
 14 15  2  0
 14  2  1  0
 11  6  1  0
  3 16  1  0
  5 17  1  0
  5 18  1  0
  7 19  1  0
  8 20  1  0
  9 21  1  0
 10 22  1  0
 12 23  1  0
M  CHG  1  13  -1
M  END
>  <UniqueID>  (31) 
29

>  <SMILES>  (31) 
O=c1cc(Cc2ccccn2)[nH][n-]c1=O

>  <Energy>  (31) 
23.997616913036925

>  <Genealogy>  (31) 
O=c1cc(Cc2ccccn2)[nH][n-]c1=O (protonated)
O=c1cc(Cc2ccccn2)[nH][n-]c1=O (3D coordinates assigned)
O=c1cc(Cc2ccccn2)[nH][n-]c1=O (optimized conformer: 23.997616913036925 kcal/mol)

>  <smiles>  (31) 
O=c1cc(Cc2ccccn2)[nH][nH]c1=O

>  <score_type>  (31) 
oracle

>  <origin>  (31) 
adg

>  <m_score__min__energy>  (31) 
-9.0299999999999994

>  <m_primary>  (31) 
energy

$$$$
31:0
     RDKit          3D

 59 61  0  0  0  0  0  0  0  0999 V2000
   56.7580   30.3610   43.6070 C   0  0  0  0  0  0  0  0  0  0  0  0
   56.9450   30.7140   44.9840 O   0  0  0  0  0  0  0  0  0  0  0  0
   57.6870   31.8240   45.4270 C   0  0  0  0  0  0  0  0  0  0  0  0
   57.0670   33.0770   45.4350 C   0  0  0  0  0  0  0  0  0  0  0  0
   57.7730   34.2140   45.8420 C   0  0  0  0  0  0  0  0  0  0  0  0
   59.1080   34.1110   46.2450 C   0  0  0  0  0  0  0  0  0  0  0  0
   59.7450   32.8560   46.2680 C   0  0  0  0  0  0  0  0  0  0  0  0
   61.1170   32.7350   46.6980 N   0  0  0  0  0  0  0  0  0  0  0  0
   61.6330   31.4240   47.1140 C   0  0  0  0  0  0  0  0  0  0  0  0
   63.1680   31.4310   47.1720 C   0  0  0  0  0  0  0  0  0  0  0  0
   63.6910   32.5580   47.9750 N   0  0  0  0  0  0  0  0  0  0  0  0
   63.5720   32.2510   49.7000 S   0  0  0  0  0  0  0  0  0  0  0  0
   63.0610   30.8500   49.8900 O   0  0  0  0  0  0  0  0  0  0  0  0
   64.9360   32.3410   50.3300 O   0  0  0  0  0  0  0  0  0  0  0  0
   62.4020   33.3470   50.5300 C   0  0  0  0  0  0  0  0  0  0  0  0
   60.9400   33.1920   50.0690 C   0  0  0  0  0  0  0  0  0  0  0  0
   60.6030   31.7900   49.8210 N   0  0  0  0  0  0  0  0  0  0  0  0
   59.2890   31.3740   49.4100 C   0  0  0  0  0  0  0  0  0  0  0  0
   58.4270   32.2280   49.0650 O   0  0  0  0  0  0  0  0  0  0  0  0
   58.9120   29.9170   49.4280 C   0  0  0  0  0  0  0  0  0  0  0  0
   59.9500   29.0410   48.7100 C   0  0  0  0  0  0  0  0  0  0  0  0
   59.4840   28.6230   47.3360 C   0  0  0  0  0  0  0  0  0  0  0  0
   60.3720   28.6480   46.2490 C   0  0  0  0  0  0  0  0  0  0  0  0
   59.9520   28.2320   44.9810 C   0  0  0  0  0  0  0  0  0  0  0  0
   58.6460   27.7890   44.7920 C   0  0  0  0  0  0  0  0  0  0  0  0
   57.7530   27.7680   45.8650 C   0  0  0  0  0  0  0  0  0  0  0  0
   58.1680   28.1820   47.1340 C   0  0  0  0  0  0  0  0  0  0  0  0
   63.0930   33.8790   47.6420 C   0  0  0  0  0  0  0  0  0  0  0  0
   62.0670   33.8410   46.4960 C   0  0  0  0  0  0  0  0  0  0  0  0
   59.0240   31.7140   45.8600 C   0  0  0  0  0  0  0  0  0  0  0  0
   56.2439   29.3906   43.5438 H   0  0  0  0  0  0  0  0  0  0  0  0
   56.1496   31.1312   43.1104 H   0  0  0  0  0  0  0  0  0  0  0  0
   57.7370   30.2904   43.1104 H   0  0  0  0  0  0  0  0  0  0  0  0
   56.0174   33.1694   45.1193 H   0  0  0  0  0  0  0  0  0  0  0  0
   57.2750   35.1948   45.8450 H   0  0  0  0  0  0  0  0  0  0  0  0
   59.6618   35.0129   46.5448 H   0  0  0  0  0  0  0  0  0  0  0  0
   61.2363   31.1808   48.1107 H   0  0  0  0  0  0  0  0  0  0  0  0
   61.3130   30.6714   46.3783 H   0  0  0  0  0  0  0  0  0  0  0  0
   63.5100   30.4870   47.6213 H   0  0  0  0  0  0  0  0  0  0  0  0
   63.5446   31.5445   46.1447 H   0  0  0  0  0  0  0  0  0  0  0  0
   62.4450   33.1405   51.6096 H   0  0  0  0  0  0  0  0  0  0  0  0
   62.7021   34.3740   50.2748 H   0  0  0  0  0  0  0  0  0  0  0  0
   60.2746   33.5869   50.8509 H   0  0  0  0  0  0  0  0  0  0  0  0
   60.8129   33.7495   49.1293 H   0  0  0  0  0  0  0  0  0  0  0  0
   61.3290   31.0590   50.0100 H   0  0  0  0  0  0  0  0  0  0  0  0
   58.8304   29.5849   50.4735 H   0  0  0  0  0  0  0  0  0  0  0  0
   57.9540   29.8091   48.8982 H   0  0  0  0  0  0  0  0  0  0  0  0
   60.8862   29.6097   48.6097 H   0  0  0  0  0  0  0  0  0  0  0  0
   60.0995   28.1309   49.3095 H   0  0  0  0  0  0  0  0  0  0  0  0
   61.4049   28.9970   46.3952 H   0  0  0  0  0  0  0  0  0  0  0  0
   60.6534   28.2550   44.1339 H   0  0  0  0  0  0  0  0  0  0  0  0
   58.3173   27.4553   43.7967 H   0  0  0  0  0  0  0  0  0  0  0  0
   56.7194   27.4245   45.7113 H   0  0  0  0  0  0  0  0  0  0  0  0
   57.4607   28.1619   47.9762 H   0  0  0  0  0  0  0  0  0  0  0  0
   62.5907   34.2658   48.5409 H   0  0  0  0  0  0  0  0  0  0  0  0
   63.9191   34.5213   47.3029 H   0  0  0  0  0  0  0  0  0  0  0  0
   61.5160   34.7927   46.4704 H   0  0  0  0  0  0  0  0  0  0  0  0
   62.5980   33.6877   45.5450 H   0  0  0  0  0  0  0  0  0  0  0  0
   59.5102   30.7275   45.8800 H   0  0  0  0  0  0  0  0  0  0  0  0
  1  2  1  0
  2  3  1  0
  3  4  2  0
  4  5  1  0
  5  6  2  0
  6  7  1  0
  7  8  1  0
  8  9  1  0
  9 10  1  0
 10 11  1  0
 11 12  1  0
 12 13  2  0
 12 14  2  0
 12 15  1  0
 15 16  1  0
 16 17  1  0
 17 18  1  0
 18 19  2  0
 18 20  1  0
 20 21  1  0
 21 22  1  0
 22 23  2  0
 23 24  1  0
 24 25  2  0
 25 26  1  0
 26 27  2  0
 11 28  1  0
 28 29  1  0
  7 30  2  0
 30  3  1  0
 29  8  1  0
 27 22  1  0
  1 31  1  0
  1 32  1  0
  1 33  1  0
  4 34  1  0
  5 35  1  0
  6 36  1  0
  9 37  1  0
  9 38  1  0
 10 39  1  0
 10 40  1  0
 15 41  1  0
 15 42  1  0
 16 43  1  0
 16 44  1  0
 17 45  1  0
 20 46  1  0
 20 47  1  0
 21 48  1  0
 21 49  1  0
 23 50  1  0
 24 51  1  0
 25 52  1  0
 26 53  1  0
 27 54  1  0
 28 55  1  0
 28 56  1  0
 29 57  1  0
 29 58  1  0
 30 59  1  0
M  END
>  <UniqueID>  (32) 
30

>  <SMILES>  (32) 
COc1cccc(N2CCN(S(=O)(=O)CCNC(=O)CCc3ccccc3)CC2)c1

>  <Energy>  (32) 
59.71271739694343

>  <Genealogy>  (32) 
COc1cccc(N2CCN(S(=O)(=O)CCNC(=O)CCc3ccccc3)CC2)c1 (3D coordinates assigned)
COc1cccc(N2CCN(S(=O)(=O)CCNC(=O)CCc3ccccc3)CC2)c1 (nonaromatic ring conformer: 59.71271739694343 kcal/mol)

>  <smiles>  (32) 
COc1cccc(N2CCN(S(=O)(=O)CCNC(=O)CCc3ccccc3)CC2)c1

>  <score_type>  (32) 
oracle

>  <origin>  (32) 
adg

>  <m_score__min__energy>  (32) 
-9.1300000000000008

>  <m_primary>  (32) 
energy

$$$$
32:0
     RDKit          3D

 45 47  0  0  0  0  0  0  0  0999 V2000
   63.0290   32.3410   47.4310 C   0  0  0  0  0  0  0  0  0  0  0  0
   62.1230   31.6320   48.4270 C   0  0  0  0  0  0  0  0  0  0  0  0
   61.5240   30.5010   47.8010 O   0  0  0  0  0  0  0  0  0  0  0  0
   60.3530   29.9090   48.2800 C   0  0  0  0  0  0  0  0  0  0  0  0
   60.3440   28.7010   48.6420 O   0  0  0  0  0  0  0  0  0  0  0  0
   59.0920   30.7090   48.3280 C   0  0  0  0  0  0  0  0  0  0  0  0
   58.8840   31.3890   47.0510 N   0  0  0  0  0  0  0  0  0  0  0  0
   58.3670   30.8290   45.9310 C   0  0  0  0  0  0  0  0  0  0  0  0
   58.2400   31.7890   44.9360 C   0  0  0  0  0  0  0  0  0  0  0  0
   57.5640   31.5440   43.2930 S   0  0  0  0  0  0  0  0  0  0  0  0
   57.1730   29.7750   43.5410 C   0  0  0  0  0  0  0  0  0  0  0  0
   56.0000   29.5980   44.4520 C   0  0  0  0  0  0  0  0  0  0  0  0
   55.1460   30.5210   44.5480 O   0  0  0  0  0  0  0  0  0  0  0  0
   55.8890   28.4060   45.2420 N   0  0  0  0  0  0  0  0  0  0  0  0
   56.9570   27.5350   45.6470 C   0  0  0  0  0  0  0  0  0  0  0  0
   56.6370   26.3710   46.3580 C   0  0  0  0  0  0  0  0  0  0  0  0
   57.6470   25.5110   46.8000 C   0  0  0  0  0  0  0  0  0  0  0  0
   58.9870   25.8160   46.5490 C   0  0  0  0  0  0  0  0  0  0  0  0
   59.3180   26.9830   45.8580 C   0  0  0  0  0  0  0  0  0  0  0  0
   58.3120   27.8440   45.4100 C   0  0  0  0  0  0  0  0  0  0  0  0
   58.6990   32.9700   45.4790 C   0  0  0  0  0  0  0  0  0  0  0  0
   58.8000   34.2490   44.9350 C   0  0  0  0  0  0  0  0  0  0  0  0
   59.2880   35.2770   45.7620 C   0  0  0  0  0  0  0  0  0  0  0  0
   59.6580   35.0060   47.0970 C   0  0  0  0  0  0  0  0  0  0  0  0
   59.5550   33.7030   47.6160 C   0  0  0  0  0  0  0  0  0  0  0  0
   59.0730   32.6970   46.7720 C   0  0  0  0  0  0  0  0  0  0  0  0
   63.7819   32.9302   47.9751 H   0  0  0  0  0  0  0  0  0  0  0  0
   63.5335   31.5954   46.7990 H   0  0  0  0  0  0  0  0  0  0  0  0
   62.4265   33.0100   46.7990 H   0  0  0  0  0  0  0  0  0  0  0  0
   62.7166   31.3010   49.2919 H   0  0  0  0  0  0  0  0  0  0  0  0
   61.3372   32.3234   48.7653 H   0  0  0  0  0  0  0  0  0  0  0  0
   58.2426   30.0390   48.5268 H   0  0  0  0  0  0  0  0  0  0  0  0
   59.1699   31.4592   49.1287 H   0  0  0  0  0  0  0  0  0  0  0  0
   58.0889   29.7700   45.8255 H   0  0  0  0  0  0  0  0  0  0  0  0
   56.9415   29.3196   42.5668 H   0  0  0  0  0  0  0  0  0  0  0  0
   58.0456   29.2888   44.0016 H   0  0  0  0  0  0  0  0  0  0  0  0
   55.5844   26.1321   46.5699 H   0  0  0  0  0  0  0  0  0  0  0  0
   57.3860   24.5926   47.3463 H   0  0  0  0  0  0  0  0  0  0  0  0
   59.7804   25.1374   46.8954 H   0  0  0  0  0  0  0  0  0  0  0  0
   60.3735   27.2257   45.6655 H   0  0  0  0  0  0  0  0  0  0  0  0
   58.5783   28.7652   44.8710 H   0  0  0  0  0  0  0  0  0  0  0  0
   58.5078   34.4481   43.8934 H   0  0  0  0  0  0  0  0  0  0  0  0
   59.3819   36.2988   45.3657 H   0  0  0  0  0  0  0  0  0  0  0  0
   60.0298   35.8203   47.7363 H   0  0  0  0  0  0  0  0  0  0  0  0
   59.8446   33.4817   48.6539 H   0  0  0  0  0  0  0  0  0  0  0  0
  1  2  1  0
  2  3  1  0
  3  4  1  0
  4  5  2  0
  4  6  1  0
  6  7  1  0
  7  8  1  0
  8  9  2  0
  9 10  1  0
 10 11  1  0
 11 12  1  0
 12 13  2  0
 12 14  1  0
 14 15  1  0
 15 16  2  0
 16 17  1  0
 17 18  2  0
 18 19  1  0
 19 20  2  0
  9 21  1  0
 21 22  2  0
 22 23  1  0
 23 24  2  0
 24 25  1  0
 25 26  2  0
 26  7  1  0
 20 15  1  0
 26 21  1  0
  1 27  1  0
  1 28  1  0
  1 29  1  0
  2 30  1  0
  2 31  1  0
  6 32  1  0
  6 33  1  0
  8 34  1  0
 11 35  1  0
 11 36  1  0
 16 37  1  0
 17 38  1  0
 18 39  1  0
 19 40  1  0
 20 41  1  0
 22 42  1  0
 23 43  1  0
 24 44  1  0
 25 45  1  0
M  CHG  1  14  -1
M  END
>  <UniqueID>  (33) 
31

>  <SMILES>  (33) 
CCOC(=O)Cn1cc(SCC(=O)[N-]c2ccccc2)c2ccccc21

>  <Energy>  (33) 
70.11040275268788

>  <Genealogy>  (33) 
CCOC(=O)Cn1cc(SCC(=O)[N-]c2ccccc2)c2ccccc21 (protonated)
CCOC(=O)Cn1cc(SCC(=O)[N-]c2ccccc2)c2ccccc21 (3D coordinates assigned)
CCOC(=O)Cn1cc(SCC(=O)[N-]c2ccccc2)c2ccccc21 (optimized conformer: 70.11040275268788 kcal/mol)

>  <smiles>  (33) 
CCOC(=O)Cn1cc(SCC(=O)Nc2ccccc2)c2ccccc21

>  <score_type>  (33) 
oracle

>  <origin>  (33) 
adg

>  <m_score__min__energy>  (33) 
-9.6899999999999995

>  <m_primary>  (33) 
energy

$$$$
33:0
     RDKit          3D

 52 56  0  0  0  0  0  0  0  0999 V2000
   53.1350   23.0850   45.9590 C   0  0  0  0  0  0  0  0  0  0  0  0
   54.2750   22.3830   46.6860 C   0  0  0  0  0  0  0  0  0  0  0  0
   55.0150   23.3120   47.4760 O   0  0  0  0  0  0  0  0  0  0  0  0
   56.4120   23.3140   47.5570 C   0  0  0  0  0  0  0  0  0  0  0  0
   57.0400   22.2530   47.8230 O   0  0  0  0  0  0  0  0  0  0  0  0
   57.1620   24.6160   47.4030 C   0  0  1  0  0  0  0  0  0  0  0  0
   58.4310   24.5530   46.5210 C   0  0  1  0  0  0  0  0  0  0  0  0
   58.0570   23.9850   45.1630 C   0  0  0  0  0  0  0  0  0  0  0  0
   56.8770   24.3260   44.5800 C   0  0  0  0  0  0  0  0  0  0  0  0
   56.5340   23.7750   43.2260 C   0  0  0  0  0  0  0  0  0  0  0  0
   55.8590   25.2150   45.3080 C   0  0  0  0  0  0  0  0  0  0  0  0
   56.3820   25.7390   46.6780 C   0  0  2  0  0  0  0  0  0  0  0  0
   57.4990   26.7000   46.4200 C   0  0  0  0  0  0  0  0  0  0  0  0
   57.4360   28.0710   46.1770 C   0  0  0  0  0  0  0  0  0  0  0  0
   58.6260   28.7630   45.8570 C   0  0  0  0  0  0  0  0  0  0  0  0
   58.5970   30.2250   45.6010 C   0  0  0  0  0  0  0  0  0  0  0  0
   57.8130   30.7480   44.5550 C   0  0  0  0  0  0  0  0  0  0  0  0
   57.7800   32.1230   44.3090 C   0  0  0  0  0  0  0  0  0  0  0  0
   58.5310   33.0000   45.1020 C   0  0  0  0  0  0  0  0  0  0  0  0
   58.5050   34.3840   44.8610 C   0  0  0  0  0  0  0  0  0  0  0  0
   59.2600   35.2490   45.6590 C   0  0  0  0  0  0  0  0  0  0  0  0
   60.0450   34.7420   46.6980 C   0  0  0  0  0  0  0  0  0  0  0  0
   60.0790   33.3680   46.9480 C   0  0  0  0  0  0  0  0  0  0  0  0
   59.3250   32.4880   46.1560 C   0  0  0  0  0  0  0  0  0  0  0  0
   59.3520   31.1050   46.3970 C   0  0  0  0  0  0  0  0  0  0  0  0
   59.8440   28.0410   45.7710 C   0  0  0  0  0  0  0  0  0  0  0  0
   59.8750   26.6560   45.9960 C   0  0  0  0  0  0  0  0  0  0  0  0
   58.6870   26.0110   46.3320 C   0  0  0  0  0  0  0  0  0  0  0  0
   52.4392   23.5135   46.6954 H   0  0  0  0  0  0  0  0  0  0  0  0
   53.5423   23.8890   45.3283 H   0  0  0  0  0  0  0  0  0  0  0  0
   52.6004   22.3594   45.3283 H   0  0  0  0  0  0  0  0  0  0  0  0
   53.8599   21.6023   47.3404 H   0  0  0  0  0  0  0  0  0  0  0  0
   54.9490   21.9362   45.9403 H   0  0  0  0  0  0  0  0  0  0  0  0
   57.3662   24.8168   48.4651 H   0  0  0  0  0  0  0  0  0  0  0  0
   59.2577   23.9585   46.9371 H   0  0  0  0  0  0  0  0  0  0  0  0
   58.7431   23.2954   44.6494 H   0  0  0  0  0  0  0  0  0  0  0  0
   55.9560   22.8465   43.3436 H   0  0  0  0  0  0  0  0  0  0  0  0
   55.9349   24.5121   42.6712 H   0  0  0  0  0  0  0  0  0  0  0  0
   57.4598   23.5628   42.6712 H   0  0  0  0  0  0  0  0  0  0  0  0
   54.9437   24.6303   45.4822 H   0  0  0  0  0  0  0  0  0  0  0  0
   55.6702   26.0910   44.6700 H   0  0  0  0  0  0  0  0  0  0  0  0
   55.5171   26.1358   47.2299 H   0  0  0  0  0  0  0  0  0  0  0  0
   56.4762   28.6054   46.2333 H   0  0  0  0  0  0  0  0  0  0  0  0
   57.2208   30.0676   43.9254 H   0  0  0  0  0  0  0  0  0  0  0  0
   57.1619   32.5183   43.4894 H   0  0  0  0  0  0  0  0  0  0  0  0
   57.8898   34.7876   44.0433 H   0  0  0  0  0  0  0  0  0  0  0  0
   59.2360   36.3321   45.4683 H   0  0  0  0  0  0  0  0  0  0  0  0
   60.6383   35.4273   47.3212 H   0  0  0  0  0  0  0  0  0  0  0  0
   60.6983   32.9747   47.7677 H   0  0  0  0  0  0  0  0  0  0  0  0
   59.9691   30.7063   47.2156 H   0  0  0  0  0  0  0  0  0  0  0  0
   60.7750   28.5728   45.5251 H   0  0  0  0  0  0  0  0  0  0  0  0
   60.8159   26.0928   45.9090 H   0  0  0  0  0  0  0  0  0  0  0  0
  1  2  1  0
  2  3  1  0
  3  4  1  0
  4  5  2  0
  4  6  1  0
  6  7  1  0
  7  8  1  0
  8  9  2  0
  9 10  1  0
  9 11  1  0
 11 12  1  0
 12 13  1  0
 13 14  2  0
 14 15  1  0
 15 16  1  0
 16 17  2  0
 17 18  1  0
 18 19  2  0
 19 20  1  0
 20 21  2  0
 21 22  1  0
 22 23  2  0
 23 24  1  0
 24 25  2  0
 15 26  2  0
 26 27  1  0
 27 28  2  0
 12  6  1  0
 28 13  1  0
 28  7  1  0
 25 16  1  0
 24 19  1  0
  1 29  1  0
  1 30  1  0
  1 31  1  0
  2 32  1  0
  2 33  1  0
  6 34  1  1
  7 35  1  1
  8 36  1  0
 10 37  1  0
 10 38  1  0
 10 39  1  0
 11 40  1  0
 11 41  1  0
 12 42  1  1
 14 43  1  0
 17 44  1  0
 18 45  1  0
 20 46  1  0
 21 47  1  0
 22 48  1  0
 23 49  1  0
 25 50  1  0
 26 51  1  0
 27 52  1  0
M  END
>  <UniqueID>  (34) 
32

>  <SMILES>  (34) 
CCOC(=O)[C@@H]1C2CC(C)=C[C@H]1c1ccc(-c3ccc4ccccc4c3)cc12

>  <Energy>  (34) 
86.62270294483271

>  <Genealogy>  (34) 
CCOC(=O)[C@@H]1C2CC(C)=C[C@H]1c1ccc(-c3ccc4ccccc4c3)cc12 (chirality)
CCOC(=O)[C@@H]1C2CC(C)=C[C@H]1c1ccc(-c3ccc4ccccc4c3)cc12 (3D coordinates assigned)
CCOC(=O)[C@@H]1C2CC(C)=C[C@H]1c1ccc(-c3ccc4ccccc4c3)cc12 (nonaromatic ring conformer: 86.62270294483271 kcal/mol)

>  <smiles>  (34) 
CCOC(=O)C1C2C=C(C)CC1c1cc(-c3ccc4ccccc4c3)ccc12

>  <score_type>  (34) 
oracle

>  <origin>  (34) 
adg

>  <m_score__min__energy>  (34) 
-8.8599999999999994

>  <m_primary>  (34) 
energy

$$$$
34:0
     RDKit          3D

 30 32  0  0  0  0  0  0  0  0999 V2000
   55.4480   29.7100   43.5030 C   0  0  0  0  0  0  0  0  0  0  0  0
   55.8880   29.5960   44.8520 O   0  0  0  0  0  0  0  0  0  0  0  0
   57.0650   28.9450   45.2530 C   0  0  0  0  0  0  0  0  0  0  0  0
   57.0680   27.5950   45.6620 C   0  0  0  0  0  0  0  0  0  0  0  0
   58.2500   26.9910   46.0970 C   0  0  0  0  0  0  0  0  0  0  0  0
   59.4380   27.7220   46.1340 C   0  0  0  0  0  0  0  0  0  0  0  0
   59.4500   29.0570   45.7260 C   0  0  0  0  0  0  0  0  0  0  0  0
   58.2750   29.6710   45.2680 C   0  0  0  0  0  0  0  0  0  0  0  0
   58.3120   31.0430   44.8470 N   0  0  0  0  0  0  0  0  0  0  0  0
   58.0630   31.5140   43.5990 C   0  0  0  0  0  0  0  0  0  0  0  0
   58.1580   32.8630   43.5280 N   0  0  0  0  0  0  0  0  0  0  0  0
   58.4630   33.2450   44.7800 C   0  0  0  0  0  0  0  0  0  0  0  0
   58.6350   34.5380   45.2680 C   0  0  0  0  0  0  0  0  0  0  0  0
   58.9050   34.6850   46.6420 C   0  0  0  0  0  0  0  0  0  0  0  0
   58.9800   33.5510   47.4820 C   0  0  0  0  0  0  0  0  0  0  0  0
   58.7940   32.2580   46.9570 C   0  0  0  0  0  0  0  0  0  0  0  0
   58.5530   32.1460   45.5860 C   0  0  0  0  0  0  0  0  0  0  0  0
   54.3833   29.9859   43.4867 H   0  0  0  0  0  0  0  0  0  0  0  0
   56.0356   30.4856   42.9900 H   0  0  0  0  0  0  0  0  0  0  0  0
   55.5851   28.7467   42.9900 H   0  0  0  0  0  0  0  0  0  0  0  0
   56.1340   27.0145   45.6382 H   0  0  0  0  0  0  0  0  0  0  0  0
   58.2443   25.9368   46.4111 H   0  0  0  0  0  0  0  0  0  0  0  0
   60.3656   27.2461   46.4848 H   0  0  0  0  0  0  0  0  0  0  0  0
   60.3874   29.6314   45.7640 H   0  0  0  0  0  0  0  0  0  0  0  0
   57.8122   30.8723   42.7415 H   0  0  0  0  0  0  0  0  0  0  0  0
   58.0090   33.4690   42.6900 H   0  0  0  0  0  0  0  0  0  0  0  0
   58.5626   35.4123   44.6044 H   0  0  0  0  0  0  0  0  0  0  0  0
   59.0586   35.6890   47.0644 H   0  0  0  0  0  0  0  0  0  0  0  0
   59.1854   33.6797   48.5550 H   0  0  0  0  0  0  0  0  0  0  0  0
   58.8369   31.3687   47.6029 H   0  0  0  0  0  0  0  0  0  0  0  0
  1  2  1  0
  2  3  1  0
  3  4  2  0
  4  5  1  0
  5  6  2  0
  6  7  1  0
  7  8  2  0
  8  9  1  0
  9 10  1  0
 10 11  2  0
 11 12  1  0
 12 13  2  0
 13 14  1  0
 14 15  2  0
 15 16  1  0
 16 17  2  0
  8  3  1  0
 17  9  1  0
 17 12  1  0
  1 18  1  0
  1 19  1  0
  1 20  1  0
  4 21  1  0
  5 22  1  0
  6 23  1  0
  7 24  1  0
 10 25  1  0
 11 26  1  0
 13 27  1  0
 14 28  1  0
 15 29  1  0
 16 30  1  0
M  CHG  1  11   1
M  END
>  <UniqueID>  (35) 
33

>  <SMILES>  (35) 
COc1ccccc1-n1c[nH+]c2ccccc21

>  <Energy>  (35) 
76.88288087187897

>  <Genealogy>  (35) 
COc1ccccc1-n1c[nH+]c2ccccc21 (protonated)
COc1ccccc1-n1c[nH+]c2ccccc21 (3D coordinates assigned)
COc1ccccc1-n1c[nH+]c2ccccc21 (optimized conformer: 76.88288087187897 kcal/mol)

>  <smiles>  (35) 
COc1ccccc1-n1cnc2ccccc21

>  <score_type>  (35) 
oracle

>  <origin>  (35) 
adg

>  <m_score__min__energy>  (35) 
-4.8899999999999997

>  <m_primary>  (35) 
energy

$$$$
35:0
     RDKit          3D

 64 69  0  0  0  0  0  0  0  0999 V2000
   57.6210   33.9120   44.5000 C   0  0  0  0  0  0  0  0  0  0  0  0
   57.0750   33.1100   45.6750 C   0  0  0  0  0  0  0  0  0  0  0  0
   57.6880   31.7840   45.7170 N   0  0  0  0  0  0  0  0  0  0  0  0
   58.5110   31.3840   46.6780 N   0  0  0  0  0  0  0  0  0  0  0  0
   58.8790   30.1010   46.4350 C   0  0  0  0  0  0  0  0  0  0  0  0
   59.8250   29.3620   47.3640 C   0  0  2  0  0  0  0  0  0  0  0  0
   59.1310   28.6680   48.5590 C   0  0  0  0  0  0  0  0  0  0  0  0
   59.3170   29.3580   49.9190 C   0  0  0  0  0  0  0  0  0  0  0  0
   60.7140   29.7890   50.1410 N   0  0  2  0  0  0  0  0  0  0  0  0
   60.8530   30.3700   51.5010 C   0  0  0  0  0  0  0  0  0  0  0  0
   62.2080   31.0790   51.6960 C   0  0  0  0  0  0  0  0  0  0  0  0
   62.0520   32.5790   51.9950 C   0  0  0  0  0  0  0  0  0  0  0  0
   61.6860   33.3350   50.7980 N   0  0  0  0  0  0  0  0  0  0  0  0
   60.3620   33.7690   50.4380 C   0  0  0  0  0  0  0  0  0  0  0  0
   59.3920   33.8350   51.2390 O   0  0  0  0  0  0  0  0  0  0  0  0
   60.3150   34.0700   49.0100 C   0  0  0  0  0  0  0  0  0  0  0  0
   59.3070   34.4660   48.1310 C   0  0  0  0  0  0  0  0  0  0  0  0
   59.6400   34.5930   46.7610 C   0  0  0  0  0  0  0  0  0  0  0  0
   60.9550   34.3070   46.3020 C   0  0  0  0  0  0  0  0  0  0  0  0
   61.9390   33.8920   47.2210 C   0  0  0  0  0  0  0  0  0  0  0  0
   63.2600   33.5340   46.8930 C   0  0  0  0  0  0  0  0  0  0  0  0
   64.1390   33.0860   47.9120 C   0  0  0  0  0  0  0  0  0  0  0  0
   63.7070   32.9940   49.2560 C   0  0  0  0  0  0  0  0  0  0  0  0
   62.3930   33.3730   49.5510 C   0  0  0  0  0  0  0  0  0  0  0  0
   61.5690   33.8040   48.5500 C   0  0  0  0  0  0  0  0  0  0  0  0
   61.1010   30.7770   49.1100 C   0  0  0  0  0  0  0  0  0  0  0  0
   61.1050   30.1550   47.7100 C   0  0  0  0  0  0  0  0  0  0  0  0
   58.2370   29.6810   45.2700 C   0  0  0  0  0  0  0  0  0  0  0  0
   58.2170   28.4850   44.5490 C   0  0  0  0  0  0  0  0  0  0  0  0
   57.4260   28.4230   43.3870 C   0  0  0  0  0  0  0  0  0  0  0  0
   56.6720   29.5390   42.9730 C   0  0  0  0  0  0  0  0  0  0  0  0
   56.7020   30.7310   43.7130 C   0  0  0  0  0  0  0  0  0  0  0  0
   57.5010   30.7660   44.8590 C   0  0  0  0  0  0  0  0  0  0  0  0
   58.2024   34.7660   44.8776 H   0  0  0  0  0  0  0  0  0  0  0  0
   58.2698   33.2690   43.8871 H   0  0  0  0  0  0  0  0  0  0  0  0
   56.7849   34.2799   43.8871 H   0  0  0  0  0  0  0  0  0  0  0  0
   57.2981   33.6420   46.6116 H   0  0  0  0  0  0  0  0  0  0  0  0
   55.9876   32.9962   45.5541 H   0  0  0  0  0  0  0  0  0  0  0  0
   60.1996   28.5138   46.7722 H   0  0  0  0  0  0  0  0  0  0  0  0
   58.0528   28.6226   48.3459 H   0  0  0  0  0  0  0  0  0  0  0  0
   59.6045   27.6796   48.6528 H   0  0  0  0  0  0  0  0  0  0  0  0
   58.6630   30.2415   49.9602 H   0  0  0  0  0  0  0  0  0  0  0  0
   59.0592   28.6317   50.7039 H   0  0  0  0  0  0  0  0  0  0  0  0
   61.3330   28.9460   50.0640 H   0  0  0  0  0  0  0  0  0  0  0  0
   60.0454   31.1000   51.6585 H   0  0  0  0  0  0  0  0  0  0  0  0
   60.7955   29.5461   52.2276 H   0  0  0  0  0  0  0  0  0  0  0  0
   62.7360   30.6051   52.5366 H   0  0  0  0  0  0  0  0  0  0  0  0
   62.7727   30.9831   50.7569 H   0  0  0  0  0  0  0  0  0  0  0  0
   61.2667   32.7112   52.7539 H   0  0  0  0  0  0  0  0  0  0  0  0
   63.0189   32.9583   52.3572 H   0  0  0  0  0  0  0  0  0  0  0  0
   58.2880   34.6726   48.4901 H   0  0  0  0  0  0  0  0  0  0  0  0
   58.8722   34.9168   46.0429 H   0  0  0  0  0  0  0  0  0  0  0  0
   61.2027   34.4092   45.2351 H   0  0  0  0  0  0  0  0  0  0  0  0
   63.6089   33.6013   45.8520 H   0  0  0  0  0  0  0  0  0  0  0  0
   65.1710   32.8062   47.6537 H   0  0  0  0  0  0  0  0  0  0  0  0
   64.3839   32.6352   50.0454 H   0  0  0  0  0  0  0  0  0  0  0  0
   60.3849   31.6118   49.1282 H   0  0  0  0  0  0  0  0  0  0  0  0
   62.1187   31.1292   49.3342 H   0  0  0  0  0  0  0  0  0  0  0  0
   61.2187   30.9642   46.9736 H   0  0  0  0  0  0  0  0  0  0  0  0
   61.9374   29.4362   47.6866 H   0  0  0  0  0  0  0  0  0  0  0  0
   58.8035   27.6154   44.8805 H   0  0  0  0  0  0  0  0  0  0  0  0
   57.3960   27.4953   42.7967 H   0  0  0  0  0  0  0  0  0  0  0  0
   56.0559   29.4755   42.0639 H   0  0  0  0  0  0  0  0  0  0  0  0
   56.1162   31.6084   43.4014 H   0  0  0  0  0  0  0  0  0  0  0  0
  1  2  1  0
  2  3  1  0
  3  4  1  0
  4  5  2  0
  5  6  1  0
  6  7  1  0
  7  8  1  0
  8  9  1  0
  9 10  1  0
 10 11  1  0
 11 12  1  0
 12 13  1  0
 13 14  1  0
 14 15  2  0
 14 16  1  0
 16 17  1  0
 17 18  2  0
 18 19  1  0
 19 20  2  0
 20 21  1  0
 21 22  2  0
 22 23  1  0
 23 24  2  0
 24 25  1  0
  9 26  1  0
 26 27  1  0
  5 28  1  0
 28 29  2  0
 29 30  1  0
 30 31  2  0
 31 32  1  0
 32 33  2  0
 33  3  1  0
 27  6  1  0
 33 28  1  0
 24 13  1  0
 25 16  2  0
 25 20  1  0
  1 34  1  0
  1 35  1  0
  1 36  1  0
  2 37  1  0
  2 38  1  0
  6 39  1  6
  7 40  1  0
  7 41  1  0
  8 42  1  0
  8 43  1  0
  9 44  1  1
 10 45  1  0
 10 46  1  0
 11 47  1  0
 11 48  1  0
 12 49  1  0
 12 50  1  0
 17 51  1  0
 18 52  1  0
 19 53  1  0
 21 54  1  0
 22 55  1  0
 23 56  1  0
 26 57  1  0
 26 58  1  0
 27 59  1  0
 27 60  1  0
 29 61  1  0
 30 62  1  0
 31 63  1  0
 32 64  1  0
M  CHG  1   9   1
M  END
>  <UniqueID>  (36) 
34

>  <SMILES>  (36) 
CCn1nc(C2CC[NH+](CCCN3C(=O)c4cccc5cccc3c45)CC2)c2ccccc21

>  <Energy>  (36) 
155.67808447753382

>  <Genealogy>  (36) 
CCn1nc(C2CC[NH+](CCCN3C(=O)c4cccc5cccc3c45)CC2)c2ccccc21 (protonated)
CCn1nc(C2CC[NH+](CCCN3C(=O)c4cccc5cccc3c45)CC2)c2ccccc21 (3D coordinates assigned)
CCn1nc(C2CC[NH+](CCCN3C(=O)c4cccc5cccc3c45)CC2)c2ccccc21 (nonaromatic ring conformer: 155.67808447753382 kcal/mol)

>  <smiles>  (36) 
CCn1nc(C2CCN(CCCN3C(=O)c4cccc5cccc3c45)CC2)c2ccccc21

>  <score_type>  (36) 
oracle

>  <origin>  (36) 
adg

>  <m_score__min__energy>  (36) 
-8.0399999999999991

>  <m_primary>  (36) 
energy

$$$$
36:0
     RDKit          3D

 67 70  0  0  0  0  0  0  0  0999 V2000
   60.6610   33.8230   50.2880 C   0  0  0  0  0  0  0  0  0  0  0  0
   60.7220   34.3780   48.9800 O   0  0  0  0  0  0  0  0  0  0  0  0
   59.9960   33.9010   47.8760 C   0  0  0  0  0  0  0  0  0  0  0  0
   58.7950   34.5100   47.4680 C   0  0  0  0  0  0  0  0  0  0  0  0
   58.0840   34.0170   46.3750 C   0  0  0  0  0  0  0  0  0  0  0  0
   58.5720   32.9290   45.6400 C   0  0  0  0  0  0  0  0  0  0  0  0
   57.8000   32.3970   44.4470 C   0  0  0  0  0  0  0  0  0  0  0  0
   56.8560   31.2940   44.7590 N   0  0  0  0  0  0  0  0  0  0  0  0
   56.2940   30.6260   43.5770 C   0  0  0  0  0  0  0  0  0  0  0  0
   57.0290   29.3090   43.3890 C   0  0  0  0  0  0  0  0  0  0  0  0
   57.6800   29.0090   44.7380 C   0  0  2  0  0  0  0  0  0  0  0  0
   57.1420   27.7510   45.3730 C   0  0  0  0  0  0  0  0  0  0  0  0
   55.9070   27.6580   45.6160 O   0  0  0  0  0  0  0  0  0  0  0  0
   58.0420   26.7050   45.7730 N   0  0  0  0  0  0  0  0  0  0  0  0
   57.6130   25.4160   46.2450 C   0  0  0  0  0  0  0  0  0  0  0  0
   57.4530   25.1510   47.6270 C   0  0  0  0  0  0  0  0  0  0  0  0
   57.0090   23.8950   48.0630 C   0  0  0  0  0  0  0  0  0  0  0  0
   56.7360   22.9140   47.1110 C   0  0  0  0  0  0  0  0  0  0  0  0
   56.8940   23.1520   45.7730 C   0  0  0  0  0  0  0  0  0  0  0  0
   57.2930   24.4130   45.3080 C   0  0  0  0  0  0  0  0  0  0  0  0
   56.5070   22.0190   45.0050 N   0  0  0  0  0  0  0  0  0  0  0  0
   56.6440   21.8120   43.5890 C   0  0  0  0  0  0  0  0  0  0  0  0
   57.8200   21.0910   43.0080 C   0  0  0  0  0  0  0  0  0  0  0  0
   55.7430   22.2290   42.8150 O   0  0  0  0  0  0  0  0  0  0  0  0
   56.0070   20.9880   45.9150 C   0  0  0  0  0  0  0  0  0  0  0  0
   56.2080   21.5410   47.3450 C   0  0  0  0  0  0  0  0  0  0  0  0
   57.4190   30.2400   45.6150 C   0  0  0  0  0  0  0  0  0  0  0  0
   59.7570   32.3010   46.0580 C   0  0  0  0  0  0  0  0  0  0  0  0
   60.4780   32.7810   47.1670 C   0  0  0  0  0  0  0  0  0  0  0  0
   61.7360   32.0530   47.6140 C   0  0  0  0  0  0  0  0  0  0  0  0
   62.8830   32.9430   47.9110 N   0  0  0  0  0  0  0  0  0  0  0  0
   63.4170   33.6080   46.7110 C   0  0  0  0  0  0  0  0  0  0  0  0
   63.9510   32.2660   48.6620 C   0  0  0  0  0  0  0  0  0  0  0  0
   60.7495   34.6280   51.0324 H   0  0  0  0  0  0  0  0  0  0  0  0
   59.7004   33.3040   50.4217 H   0  0  0  0  0  0  0  0  0  0  0  0
   61.4859   33.1077   50.4217 H   0  0  0  0  0  0  0  0  0  0  0  0
   58.4134   35.3836   48.0168 H   0  0  0  0  0  0  0  0  0  0  0  0
   57.1317   34.4863   46.0873 H   0  0  0  0  0  0  0  0  0  0  0  0
   57.2243   33.2280   44.0135 H   0  0  0  0  0  0  0  0  0  0  0  0
   58.5467   31.9798   43.7554 H   0  0  0  0  0  0  0  0  0  0  0  0
   55.2213   30.4365   43.7299 H   0  0  0  0  0  0  0  0  0  0  0  0
   56.4126   31.2607   42.6864 H   0  0  0  0  0  0  0  0  0  0  0  0
   56.3233   28.5104   43.1166 H   0  0  0  0  0  0  0  0  0  0  0  0
   57.7730   29.3685   42.5810 H   0  0  0  0  0  0  0  0  0  0  0  0
   58.7570   28.8226   44.6141 H   0  0  0  0  0  0  0  0  0  0  0  0
   59.0520   26.9540   45.8770 H   0  0  0  0  0  0  0  0  0  0  0  0
   57.6787   25.9363   48.3634 H   0  0  0  0  0  0  0  0  0  0  0  0
   56.8785   23.6875   49.1354 H   0  0  0  0  0  0  0  0  0  0  0  0
   57.3553   24.6164   44.2288 H   0  0  0  0  0  0  0  0  0  0  0  0
   58.4513   20.7040   43.8214 H   0  0  0  0  0  0  0  0  0  0  0  0
   57.4670   20.2539   42.3878 H   0  0  0  0  0  0  0  0  0  0  0  0
   58.4059   21.7853   42.3878 H   0  0  0  0  0  0  0  0  0  0  0  0
   54.9402   20.7975   45.7262 H   0  0  0  0  0  0  0  0  0  0  0  0
   56.5403   20.0362   45.7745 H   0  0  0  0  0  0  0  0  0  0  0  0
   55.2544   21.5736   47.8924 H   0  0  0  0  0  0  0  0  0  0  0  0
   56.8797   20.9201   47.9559 H   0  0  0  0  0  0  0  0  0  0  0  0
   56.7057   29.9859   46.4129 H   0  0  0  0  0  0  0  0  0  0  0  0
   58.3544   30.5838   46.0807 H   0  0  0  0  0  0  0  0  0  0  0  0
   60.1266   31.4214   45.5105 H   0  0  0  0  0  0  0  0  0  0  0  0
   61.4986   31.4819   48.5237 H   0  0  0  0  0  0  0  0  0  0  0  0
   62.0439   31.4120   46.7747 H   0  0  0  0  0  0  0  0  0  0  0  0
   64.0793   34.4328   47.0129 H   0  0  0  0  0  0  0  0  0  0  0  0
   63.9857   32.8817   46.1117 H   0  0  0  0  0  0  0  0  0  0  0  0
   62.5851   34.0064   46.1117 H   0  0  0  0  0  0  0  0  0  0  0  0
   63.7700   32.3807   49.7409 H   0  0  0  0  0  0  0  0  0  0  0  0
   63.9601   31.1969   48.4034 H   0  0  0  0  0  0  0  0  0  0  0  0
   64.9218   32.7140   48.4034 H   0  0  0  0  0  0  0  0  0  0  0  0
  1  2  1  0
  2  3  1  0
  3  4  2  0
  4  5  1  0
  5  6  2  0
  6  7  1  0
  7  8  1  0
  8  9  1  0
  9 10  1  0
 10 11  1  0
 11 12  1  0
 12 13  2  0
 12 14  1  0
 14 15  1  0
 15 16  2  0
 16 17  1  0
 17 18  2  0
 18 19  1  0
 19 20  2  0
 19 21  1  0
 21 22  1  0
 22 23  1  0
 22 24  2  0
 21 25  1  0
 25 26  1  0
 11 27  1  0
  6 28  1  0
 28 29  2  0
 29 30  1  0
 30 31  1  0
 31 32  1  0
 31 33  1  0
 29  3  1  0
 27  8  1  0
 20 15  1  0
 26 18  1  0
  1 34  1  0
  1 35  1  0
  1 36  1  0
  4 37  1  0
  5 38  1  0
  7 39  1  0
  7 40  1  0
  9 41  1  0
  9 42  1  0
 10 43  1  0
 10 44  1  0
 11 45  1  6
 14 46  1  0
 16 47  1  0
 17 48  1  0
 20 49  1  0
 23 50  1  0
 23 51  1  0
 23 52  1  0
 25 53  1  0
 25 54  1  0
 26 55  1  0
 26 56  1  0
 27 57  1  0
 27 58  1  0
 28 59  1  0
 30 60  1  0
 30 61  1  0
 32 62  1  0
 32 63  1  0
 32 64  1  0
 33 65  1  0
 33 66  1  0
 33 67  1  0
M  END
>  <UniqueID>  (37) 
35

>  <SMILES>  (37) 
COc1ccc(CN2CC[C@H](C(=O)Nc3ccc4c(c3)N(C(C)=O)CC4)C2)cc1CN(C)C

>  <Energy>  (37) 
96.52850604090338

>  <Genealogy>  (37) 
COc1ccc(CN2CC[C@H](C(=O)Nc3ccc4c(c3)N(C(C)=O)CC4)C2)cc1CN(C)C (chirality)
COc1ccc(CN2CC[C@H](C(=O)Nc3ccc4c(c3)N(C(C)=O)CC4)C2)cc1CN(C)C (3D coordinates assigned)
COc1ccc(CN2CC[C@H](C(=O)Nc3ccc4c(c3)N(C(C)=O)CC4)C2)cc1CN(C)C (nonaromatic ring conformer: 96.52850604090338 kcal/mol)

>  <smiles>  (37) 
COc1ccc(CN2CCC(C(=O)Nc3ccc4c(c3)N(C(C)=O)CC4)C2)cc1CN(C)C

>  <score_type>  (37) 
oracle

>  <origin>  (37) 
adg

>  <m_score__min__energy>  (37) 
-9.3200000000000003

>  <m_primary>  (37) 
energy

$$$$
37:0
     RDKit          3D

 46 48  0  0  0  0  0  0  0  0999 V2000
   57.7630   32.3730   43.0560 C   0  0  0  0  0  0  0  0  0  0  0  0
   57.4450   33.3390   44.0510 O   0  0  0  0  0  0  0  0  0  0  0  0
   58.1850   33.5400   45.2250 C   0  0  0  0  0  0  0  0  0  0  0  0
   59.4610   34.1070   45.1180 C   0  0  0  0  0  0  0  0  0  0  0  0
   60.2390   34.3270   46.2590 C   0  0  0  0  0  0  0  0  0  0  0  0
   59.7450   33.9900   47.5300 C   0  0  0  0  0  0  0  0  0  0  0  0
   60.6000   34.1880   48.7540 C   0  0  0  0  0  0  0  0  0  0  0  0
   60.0330   33.3770   49.9360 C   0  0  0  0  0  0  0  0  0  0  0  0
   60.6190   32.0230   50.1390 N   0  0  2  0  0  0  0  0  0  0  0  0
   61.6260   31.6210   49.1300 C   0  0  0  0  0  0  0  0  0  0  0  0
   61.0370   30.9220   47.9350 C   0  0  0  0  0  0  0  0  0  0  0  0
   59.8460   30.3090   47.9650 C   0  0  0  0  0  0  0  0  0  0  0  0
   59.4230   29.4910   46.8070 C   0  0  0  0  0  0  0  0  0  0  0  0
   58.8430   30.1320   45.7020 C   0  0  0  0  0  0  0  0  0  0  0  0
   58.4540   29.3980   44.5790 C   0  0  0  0  0  0  0  0  0  0  0  0
   58.6310   28.0140   44.5520 C   0  0  0  0  0  0  0  0  0  0  0  0
   58.1410   27.0910   43.1430 Cl  0  0  0  0  0  0  0  0  0  0  0  0
   59.1930   27.3620   45.6530 C   0  0  0  0  0  0  0  0  0  0  0  0
   59.5930   28.0900   46.7810 C   0  0  0  0  0  0  0  0  0  0  0  0
   60.2460   27.2060   48.1530 Cl  0  0  0  0  0  0  0  0  0  0  0  0
   58.9370   30.4020   49.1640 C   0  0  0  0  0  0  0  0  0  0  0  0
   59.6350   30.9500   50.4170 C   0  0  0  0  0  0  0  0  0  0  0  0
   58.4700   33.4110   47.6400 C   0  0  0  0  0  0  0  0  0  0  0  0
   57.6920   33.1930   46.4990 C   0  0  0  0  0  0  0  0  0  0  0  0
   58.0717   31.4351   43.5409 H   0  0  0  0  0  0  0  0  0  0  0  0
   56.8785   32.1877   42.4289 H   0  0  0  0  0  0  0  0  0  0  0  0
   58.5847   32.7493   42.4289 H   0  0  0  0  0  0  0  0  0  0  0  0
   59.8546   34.3816   44.1282 H   0  0  0  0  0  0  0  0  0  0  0  0
   61.2428   34.7661   46.1607 H   0  0  0  0  0  0  0  0  0  0  0  0
   61.6248   33.8503   48.5400 H   0  0  0  0  0  0  0  0  0  0  0  0
   60.6043   35.2553   49.0201 H   0  0  0  0  0  0  0  0  0  0  0  0
   60.2018   33.9580   50.8546 H   0  0  0  0  0  0  0  0  0  0  0  0
   58.9722   33.2087   49.6986 H   0  0  0  0  0  0  0  0  0  0  0  0
   61.1570   32.1170   51.0340 H   0  0  0  0  0  0  0  0  0  0  0  0
   62.1487   32.5240   48.7817 H   0  0  0  0  0  0  0  0  0  0  0  0
   62.3045   30.9065   49.6190 H   0  0  0  0  0  0  0  0  0  0  0  0
   61.6092   30.9139   46.9956 H   0  0  0  0  0  0  0  0  0  0  0  0
   58.6933   31.2216   45.7201 H   0  0  0  0  0  0  0  0  0  0  0  0
   58.0075   29.9116   43.7148 H   0  0  0  0  0  0  0  0  0  0  0  0
   59.3221   26.2698   45.6337 H   0  0  0  0  0  0  0  0  0  0  0  0
   58.0969   31.0666   48.9140 H   0  0  0  0  0  0  0  0  0  0  0  0
   58.6032   29.3805   49.3986 H   0  0  0  0  0  0  0  0  0  0  0  0
   58.8662   31.3525   51.0929 H   0  0  0  0  0  0  0  0  0  0  0  0
   60.1940   30.1132   50.8612 H   0  0  0  0  0  0  0  0  0  0  0  0
   58.0815   33.1275   48.6293 H   0  0  0  0  0  0  0  0  0  0  0  0
   56.6905   32.7486   46.5960 H   0  0  0  0  0  0  0  0  0  0  0  0
  1  2  1  0
  2  3  1  0
  3  4  2  0
  4  5  1  0
  5  6  2  0
  6  7  1  0
  7  8  1  0
  8  9  1  0
  9 10  1  0
 10 11  1  0
 11 12  2  0
 12 13  1  0
 13 14  2  0
 14 15  1  0
 15 16  2  0
 16 17  1  0
 16 18  1  0
 18 19  2  0
 19 20  1  0
 12 21  1  0
 21 22  1  0
  6 23  1  0
 23 24  2  0
 24  3  1  0
 22  9  1  0
 19 13  1  0
  1 25  1  0
  1 26  1  0
  1 27  1  0
  4 28  1  0
  5 29  1  0
  7 30  1  0
  7 31  1  0
  8 32  1  0
  8 33  1  0
  9 34  1  1
 10 35  1  0
 10 36  1  0
 11 37  1  0
 14 38  1  0
 15 39  1  0
 18 40  1  0
 21 41  1  0
 21 42  1  0
 22 43  1  0
 22 44  1  0
 23 45  1  0
 24 46  1  0
M  CHG  1   9   1
M  END
>  <UniqueID>  (38) 
36

>  <SMILES>  (38) 
COc1ccc(CC[N@@H+]2CC=C(c3ccc(Cl)cc3Cl)CC2)cc1

>  <Energy>  (38) 
64.09264776687732

>  <Genealogy>  (38) 
COc1ccc(CC[NH+]2CC=C(c3ccc(Cl)cc3Cl)CC2)cc1 (protonated)
COc1ccc(CC[N@@H+]2CC=C(c3ccc(Cl)cc3Cl)CC2)cc1 (chirality)
COc1ccc(CC[N@@H+]2CC=C(c3ccc(Cl)cc3Cl)CC2)cc1 (3D coordinates assigned)
COc1ccc(CC[N@@H+]2CC=C(c3ccc(Cl)cc3Cl)CC2)cc1 (nonaromatic ring conformer: 64.09264776687732 kcal/mol)

>  <smiles>  (38) 
COc1ccc(CCN2CC=C(c3ccc(Cl)cc3Cl)CC2)cc1

>  <score_type>  (38) 
oracle

>  <origin>  (38) 
adg

>  <m_score__min__energy>  (38) 
-7.0599999999999996

>  <m_primary>  (38) 
energy

$$$$
38:0
     RDKit          3D

 71 71  0  0  0  0  0  0  0  0999 V2000
   57.7176   33.9447   48.0014 H   0  0  0  0  0  0  0  0  0  0  0  0
   58.3040   33.8670   47.0740 C   0  0  0  0  0  0  0  0  0  0  0  0
   57.9220   32.9920   46.1310 C   0  0  0  0  0  0  0  0  0  0  0  0
   57.6991   31.9540   46.4187 H   0  0  0  0  0  0  0  0  0  0  0  0
   57.7920   33.4000   44.6890 C   0  0  0  0  0  0  0  0  0  0  0  0
   58.6414   34.0448   44.4192 H   0  0  0  0  0  0  0  0  0  0  0  0
   56.8430   33.9412   44.5610 H   0  0  0  0  0  0  0  0  0  0  0  0
   57.7830   32.1720   43.7720 C   0  0  0  0  0  0  0  0  0  0  0  0
   58.7719   31.6915   43.8060 H   0  0  0  0  0  0  0  0  0  0  0  0
   57.5474   32.5023   42.7496 H   0  0  0  0  0  0  0  0  0  0  0  0
   56.7180   31.1580   44.2130 C   0  0  0  0  0  0  0  0  0  0  0  0
   55.7339   31.5103   43.8703 H   0  0  0  0  0  0  0  0  0  0  0  0
   56.7652   31.0835   45.3095 H   0  0  0  0  0  0  0  0  0  0  0  0
   56.9640   29.7440   43.6390 C   0  0  0  0  0  0  0  0  0  0  0  0
   57.5562   29.8424   42.7172 H   0  0  0  0  0  0  0  0  0  0  0  0
   55.9757   29.2954   43.4597 H   0  0  0  0  0  0  0  0  0  0  0  0
   57.7150   28.8030   44.6000 C   0  0  0  0  0  0  0  0  0  0  0  0
   57.4347   27.7677   44.3559 H   0  0  0  0  0  0  0  0  0  0  0  0
   57.4237   29.0990   45.6186 H   0  0  0  0  0  0  0  0  0  0  0  0
   59.2490   28.9140   44.5340 C   0  0  0  0  0  0  0  0  0  0  0  0
   59.5210   29.4235   43.5978 H   0  0  0  0  0  0  0  0  0  0  0  0
   59.6492   27.8906   44.5845 H   0  0  0  0  0  0  0  0  0  0  0  0
   59.8640   29.7010   45.7160 C   0  0  0  0  0  0  0  0  0  0  0  0
   60.1322   30.7066   45.3600 H   0  0  0  0  0  0  0  0  0  0  0  0
   60.7370   29.1275   46.0608 H   0  0  0  0  0  0  0  0  0  0  0  0
   58.9240   29.8500   46.9230 C   0  0  0  0  0  0  0  0  0  0  0  0
   57.8853   29.8572   46.5609 H   0  0  0  0  0  0  0  0  0  0  0  0
   59.1847   30.7895   47.4322 H   0  0  0  0  0  0  0  0  0  0  0  0
   59.0800   28.7170   47.9380 C   0  0  0  0  0  0  0  0  0  0  0  0
   59.0235   29.1273   48.9571 H   0  0  0  0  0  0  0  0  0  0  0  0
   58.2746   27.9818   47.7935 H   0  0  0  0  0  0  0  0  0  0  0  0
   60.0541   28.2268   47.7935 H   0  0  0  0  0  0  0  0  0  0  0  0
   59.5150   34.7460   46.8960 C   0  0  0  0  0  0  0  0  0  0  0  0
   59.2263   35.6285   46.3063 H   0  0  0  0  0  0  0  0  0  0  0  0
   59.8731   35.0271   47.8974 H   0  0  0  0  0  0  0  0  0  0  0  0
   60.6650   34.0270   46.1750 C   0  0  0  0  0  0  0  0  0  0  0  0
   60.3377   33.7664   45.1577 H   0  0  0  0  0  0  0  0  0  0  0  0
   61.5293   34.7071   46.1549 H   0  0  0  0  0  0  0  0  0  0  0  0
   61.0920   32.7410   46.9030 C   0  0  0  0  0  0  0  0  0  0  0  0
   60.6014   32.7159   47.8872 H   0  0  0  0  0  0  0  0  0  0  0  0
   60.7917   31.8909   46.2728 H   0  0  0  0  0  0  0  0  0  0  0  0
   62.6140   32.6450   47.1110 C   0  0  0  0  0  0  0  0  0  0  0  0
   62.8266   31.7001   47.6326 H   0  0  0  0  0  0  0  0  0  0  0  0
   63.0621   32.7060   46.1083 H   0  0  0  0  0  0  0  0  0  0  0  0
   63.2430   33.7940   47.9300 C   0  0  0  0  0  0  0  0  0  0  0  0
   64.2246   34.0263   47.4912 H   0  0  0  0  0  0  0  0  0  0  0  0
   62.5290   34.6293   47.8801 H   0  0  0  0  0  0  0  0  0  0  0  0
   63.4490   33.4990   49.4270 C   0  0  0  0  0  0  0  0  0  0  0  0
   63.3522   32.4140   49.5803 H   0  0  0  0  0  0  0  0  0  0  0  0
   64.4467   33.8817   49.6879 H   0  0  0  0  0  0  0  0  0  0  0  0
   62.4520   34.2060   50.3560 C   0  0  0  0  0  0  0  0  0  0  0  0
   62.4675   33.7162   51.3408 H   0  0  0  0  0  0  0  0  0  0  0  0
   62.7451   35.2622   50.4480 H   0  0  0  0  0  0  0  0  0  0  0  0
   61.1270   34.1440   49.8230 O   0  0  0  0  0  0  0  0  0  0  0  0
   60.0890   33.3090   50.2680 C   0  0  0  0  0  0  0  0  0  0  0  0
   59.2970   33.7550   51.3310 C   0  0  0  0  0  0  0  0  0  0  0  0
   59.5018   34.7344   51.7880 H   0  0  0  0  0  0  0  0  0  0  0  0
   58.2490   32.9710   51.8190 C   0  0  0  0  0  0  0  0  0  0  0  0
   57.6324   33.3405   52.6516 H   0  0  0  0  0  0  0  0  0  0  0  0
   57.9770   31.7140   51.2540 C   0  0  0  0  0  0  0  0  0  0  0  0
   56.8710   30.8780   51.7680 C   0  0  0  0  0  0  0  0  0  0  0  0
   57.0140   29.6270   51.8690 O   0  0  0  0  0  0  0  0  0  0  0  0
   55.6620   31.4750   52.1440 O   0  0  0  0  0  0  0  0  0  0  0  0
   54.4040   30.8310   51.9840 C   0  0  0  0  0  0  0  0  0  0  0  0
   53.9758   30.6118   52.9733 H   0  0  0  0  0  0  0  0  0  0  0  0
   53.7223   31.4910   51.4275 H   0  0  0  0  0  0  0  0  0  0  0  0
   54.5409   29.8921   51.4275 H   0  0  0  0  0  0  0  0  0  0  0  0
   58.7800   31.2580   50.1940 C   0  0  0  0  0  0  0  0  0  0  0  0
   58.5818   30.2741   49.7438 H   0  0  0  0  0  0  0  0  0  0  0  0
   59.8290   32.0450   49.7070 C   0  0  0  0  0  0  0  0  0  0  0  0
   60.4538   31.6738   48.8813 H   0  0  0  0  0  0  0  0  0  0  0  0
  1  2  1  0
  2  3  2  0
  3  4  1  0
  3  5  1  0
  5  6  1  0
  5  7  1  0
  5  8  1  0
  8  9  1  0
  8 10  1  0
  8 11  1  0
 11 12  1  0
 11 13  1  0
 11 14  1  0
 14 15  1  0
 14 16  1  0
 14 17  1  0
 17 18  1  0
 17 19  1  0
 17 20  1  0
 20 21  1  0
 20 22  1  0
 20 23  1  0
 23 24  1  0
 23 25  1  0
 23 26  1  0
 26 27  1  0
 26 28  1  0
 26 29  1  0
 29 30  1  0
 29 31  1  0
 29 32  1  0
  2 33  1  0
 33 34  1  0
 33 35  1  0
 33 36  1  0
 36 37  1  0
 36 38  1  0
 36 39  1  0
 39 40  1  0
 39 41  1  0
 39 42  1  0
 42 43  1  0
 42 44  1  0
 42 45  1  0
 45 46  1  0
 45 47  1  0
 45 48  1  0
 48 49  1  0
 48 50  1  0
 48 51  1  0
 51 52  1  0
 51 53  1  0
 51 54  1  0
 54 55  1  0
 55 56  2  0
 56 57  1  0
 56 58  1  0
 58 59  1  0
 58 60  2  0
 60 61  1  0
 61 62  2  0
 61 63  1  0
 63 64  1  0
 64 65  1  0
 64 66  1  0
 64 67  1  0
 60 68  1  0
 68 69  1  0
 68 70  2  0
 70 71  1  0
 70 55  1  0
M  END
>  <UniqueID>  (39) 
37

>  <SMILES>  (39) 
CCCCCCCCC/C=C/CCCCCCCOc1ccc(C(=O)OC)cc1

>  <Energy>  (39) 
46.51289372540341

>  <Genealogy>  (39) 
CCCCCCCCC/C=C/CCCCCCCOc1ccc(C(=O)OC)cc1 (cis-trans isomerization)
CCCCCCCCC/C=C/CCCCCCCOc1ccc(C(=O)OC)cc1 (3D coordinates assigned)
CCCCCCCCC/C=C/CCCCCCCOc1ccc(C(=O)OC)cc1 (optimized conformer: 46.51289372540341 kcal/mol)

>  <smiles>  (39) 
CCCCCCCCCC=CCCCCCCCOc1ccc(C(=O)OC)cc1

>  <score_type>  (39) 
oracle

>  <origin>  (39) 
adg

>  <m_score__min__energy>  (39) 
-7.5499999999999998

>  <m_primary>  (39) 
energy

$$$$
39:0
     RDKit          3D

 41 43  0  0  0  0  0  0  0  0999 V2000
   60.6660   28.7950   44.9960 C   0  0  0  0  0  0  0  0  0  0  0  0
   59.9050   28.1830   46.1900 C   0  0  0  0  0  0  0  0  0  0  0  0
   60.3730   26.7260   46.3820 C   0  0  0  0  0  0  0  0  0  0  0  0
   58.3940   28.2040   45.8810 C   0  0  0  0  0  0  0  0  0  0  0  0
   60.2040   29.0300   47.4560 C   0  0  0  0  0  0  0  0  0  0  0  0
   60.9950   30.2310   47.1380 N   0  0  0  0  0  0  0  0  0  0  0  0
   60.9050   31.2470   48.1990 C   0  0  0  0  0  0  0  0  0  0  0  0
   60.2030   32.4980   47.7250 C   0  0  0  0  0  0  0  0  0  0  0  0
   60.5830   33.7650   48.2110 C   0  0  0  0  0  0  0  0  0  0  0  0
   59.9470   34.9200   47.7150 C   0  0  0  0  0  0  0  0  0  0  0  0
   58.9470   34.8150   46.7340 C   0  0  0  0  0  0  0  0  0  0  0  0
   58.6190   33.5390   46.2850 C   0  0  0  0  0  0  0  0  0  0  0  0
   57.7090   33.2290   45.3450 N   0  0  0  0  0  0  0  0  0  0  0  0
   57.8200   31.8760   45.3060 C   0  0  0  0  0  0  0  0  0  0  0  0
   57.0270   31.0310   44.4090 C   0  0  0  0  0  0  0  0  0  0  0  0
   57.2700   30.8240   43.0660 C   0  0  0  0  0  0  0  0  0  0  0  0
   56.2780   29.9680   42.6390 C   0  0  0  0  0  0  0  0  0  0  0  0
   55.4940   29.7070   43.7440 C   0  0  0  0  0  0  0  0  0  0  0  0
   55.9650   30.3550   44.7850 O   0  0  0  0  0  0  0  0  0  0  0  0
   58.7410   31.3880   46.1700 N   0  0  0  0  0  0  0  0  0  0  0  0
   59.2310   32.4530   46.7740 N   0  0  0  0  0  0  0  0  0  0  0  0
   61.4725   29.4436   45.3688 H   0  0  0  0  0  0  0  0  0  0  0  0
   61.0970   27.9890   44.3839 H   0  0  0  0  0  0  0  0  0  0  0  0
   59.9712   29.3888   44.3839 H   0  0  0  0  0  0  0  0  0  0  0  0
   60.4448   26.5025   47.4567 H   0  0  0  0  0  0  0  0  0  0  0  0
   59.6489   26.0435   45.9131 H   0  0  0  0  0  0  0  0  0  0  0  0
   61.3591   26.5928   45.9131 H   0  0  0  0  0  0  0  0  0  0  0  0
   57.8271   28.2119   46.8236 H   0  0  0  0  0  0  0  0  0  0  0  0
   58.1512   29.1056   45.2995 H   0  0  0  0  0  0  0  0  0  0  0  0
   58.1262   27.3095   45.2995 H   0  0  0  0  0  0  0  0  0  0  0  0
   59.2512   29.3412   47.9091 H   0  0  0  0  0  0  0  0  0  0  0  0
   60.7893   28.4100   48.1510 H   0  0  0  0  0  0  0  0  0  0  0  0
   60.6380   30.6510   46.2490 H   0  0  0  0  0  0  0  0  0  0  0  0
   60.3462   30.8259   49.0478 H   0  0  0  0  0  0  0  0  0  0  0  0
   61.9283   31.5222   48.4943 H   0  0  0  0  0  0  0  0  0  0  0  0
   61.3715   33.8516   48.9731 H   0  0  0  0  0  0  0  0  0  0  0  0
   60.2352   35.9100   48.0982 H   0  0  0  0  0  0  0  0  0  0  0  0
   58.4422   35.7075   46.3357 H   0  0  0  0  0  0  0  0  0  0  0  0
   58.0844   31.2523   42.4633 H   0  0  0  0  0  0  0  0  0  0  0  0
   56.1392   29.5725   41.6220 H   0  0  0  0  0  0  0  0  0  0  0  0
   54.6083   29.0548   43.7520 H   0  0  0  0  0  0  0  0  0  0  0  0
  1  2  1  0
  2  3  1  0
  2  4  1  0
  2  5  1  0
  5  6  1  0
  6  7  1  0
  7  8  1  0
  8  9  2  0
  9 10  1  0
 10 11  2  0
 11 12  1  0
 12 13  2  0
 13 14  1  0
 14 15  1  0
 15 16  2  0
 16 17  1  0
 17 18  2  0
 18 19  1  0
 14 20  2  0
 20 21  1  0
 21  8  1  0
 21 12  1  0
 19 15  1  0
  1 22  1  0
  1 23  1  0
  1 24  1  0
  3 25  1  0
  3 26  1  0
  3 27  1  0
  4 28  1  0
  4 29  1  0
  4 30  1  0
  5 31  1  0
  5 32  1  0
  6 33  1  0
  7 34  1  0
  7 35  1  0
  9 36  1  0
 10 37  1  0
 11 38  1  0
 16 39  1  0
 17 40  1  0
 18 41  1  0
M  END
>  <UniqueID>  (40) 
38

>  <SMILES>  (40) 
CC(C)(C)CNCc1cccc2nc(-c3ccco3)nn12

>  <Energy>  (40) 
99.62190779579402

>  <Genealogy>  (40) 
CC(C)(C)CNCc1cccc2nc(-c3ccco3)nn12 (3D coordinates assigned)
CC(C)(C)CNCc1cccc2nc(-c3ccco3)nn12 (optimized conformer: 99.62190779579402 kcal/mol)

>  <smiles>  (40) 
CC(C)(C)CNCc1cccc2nc(-c3ccco3)nn12

>  <score_type>  (40) 
oracle

>  <origin>  (40) 
adg

>  <m_score__min__energy>  (40) 
-6.6100000000000003

>  <m_primary>  (40) 
energy

$$$$
40:0
     RDKit          3D

 32 34  0  0  1  0  0  0  0  0999 V2000
   58.1550   34.1690   45.6340 N   0  0  0  0  0  0  0  0  0  0  0  0
   58.2330   32.9430   45.9680 C   0  0  0  0  0  0  0  0  0  0  0  0
   58.8690   32.6290   47.1170 N   0  0  0  0  0  0  0  0  0  0  0  0
   58.9530   31.3350   47.4730 C   0  0  0  0  0  0  0  0  0  0  0  0
   58.4170   30.3380   46.7120 N   0  0  0  0  0  0  0  0  0  0  0  0
   57.7780   30.6060   45.5640 C   0  0  0  0  0  0  0  0  0  0  0  0
   57.6880   31.9410   45.1930 C   0  0  0  0  0  0  0  0  0  0  0  0
   57.0230   31.9700   44.0400 N   0  0  0  0  0  0  0  0  0  0  0  0
   56.6850   30.7320   43.6590 C   0  0  0  0  0  0  0  0  0  0  0  0
   57.1530   29.9050   44.6020 N   0  0  0  0  0  0  0  0  0  0  0  0
   57.0330   28.4670   44.6290 C   0  0  2  0  0  0  0  0  0  0  0  0
   57.2300   27.9830   45.9190 O   0  0  0  0  0  0  0  0  0  0  0  0
   57.4970   26.6230   45.7890 C   0  0  1  0  0  0  0  0  0  0  0  0
   56.1960   25.8320   45.8090 C   0  0  0  0  0  0  0  0  0  0  0  0
   55.1300   26.7020   45.9960 O   0  0  0  0  0  0  0  0  0  0  0  0
   58.1700   26.4180   44.4530 C   0  0  1  0  0  0  0  0  0  0  0  0
   57.5000   25.4530   43.7220 O   0  0  0  0  0  0  0  0  0  0  0  0
   58.0740   27.7820   43.8030 C   0  0  1  0  0  0  0  0  0  0  0  0
   57.6320   27.6430   42.5010 O   0  0  0  0  0  0  0  0  0  0  0  0
   57.6720   34.4480   44.7440 H   0  0  0  0  0  0  0  0  0  0  0  0
   59.2750   33.4050   47.6890 H   0  0  0  0  0  0  0  0  0  0  0  0
   59.4703   31.0722   48.4075 H   0  0  0  0  0  0  0  0  0  0  0  0
   56.1321   30.4500   42.7508 H   0  0  0  0  0  0  0  0  0  0  0  0
   56.0254   28.2587   44.2399 H   0  0  0  0  0  0  0  0  0  0  0  0
   58.1356   26.2808   46.6167 H   0  0  0  0  0  0  0  0  0  0  0  0
   56.0739   25.3022   44.8528 H   0  0  0  0  0  0  0  0  0  0  0  0
   56.2227   25.1016   46.6311 H   0  0  0  0  0  0  0  0  0  0  0  0
   55.1640   27.4930   45.4020 H   0  0  0  0  0  0  0  0  0  0  0  0
   59.2085   26.0633   44.5291 H   0  0  0  0  0  0  0  0  0  0  0  0
   56.7080   25.8460   43.2540 H   0  0  0  0  0  0  0  0  0  0  0  0
   59.0289   28.3266   43.7632 H   0  0  0  0  0  0  0  0  0  0  0  0
   56.7980   27.0870   42.4760 H   0  0  0  0  0  0  0  0  0  0  0  0
  1  2  2  3
  2  3  1  0
  3  4  1  0
  4  5  2  0
  5  6  1  0
  6  7  2  0
  7  8  1  0
  8  9  2  0
  9 10  1  0
 10 11  1  0
 11 12  1  0
 12 13  1  0
 13 14  1  0
 14 15  1  0
 13 16  1  0
 16 17  1  0
 16 18  1  0
 18 19  1  0
  7  2  1  0
 18 11  1  0
 10  6  1  0
  1 20  1  0
  3 21  1  0
  4 22  1  0
  9 23  1  0
 11 24  1  6
 13 25  1  1
 14 26  1  0
 14 27  1  0
 15 28  1  0
 16 29  1  1
 17 30  1  0
 18 31  1  6
 19 32  1  0
M  END
>  <smiles>  (41) 
N=c1[nH]cnc2c1ncn2C1OC(CO)C(O)C1O

>  <score_type>  (41) 
oracle

>  <origin>  (41) 
adg

>  <m_score__min__energy>  (41) 
-7.0199999999999996

>  <m_primary>  (41) 
energy

$$$$
41:0
     RDKit          3D

 48 51  0  0  0  0  0  0  0  0999 V2000
   55.7190   28.1750   45.2390 O   0  0  0  0  0  0  0  0  0  0  0  0
   56.1970   29.4940   45.1950 C   0  0  2  0  0  0  0  0  0  0  0  0
   55.7750   30.1340   43.8450 C   0  0  0  0  0  0  0  0  0  0  0  0
   56.9430   30.4350   42.9010 C   0  0  0  0  0  0  0  0  0  0  0  0
   57.6620   31.7650   43.2180 C   0  0  0  0  0  0  0  0  0  0  0  0
   58.2150   31.9000   44.5800 N   0  0  0  0  0  0  0  0  0  0  0  0
   58.2090   31.0200   45.6290 C   0  0  0  0  0  0  0  0  0  0  0  0
   58.6340   31.5960   46.7860 N   0  0  0  0  0  0  0  0  0  0  0  0
   58.9150   32.8620   46.4500 C   0  0  0  0  0  0  0  0  0  0  0  0
   59.3470   33.8930   47.2820 C   0  0  0  0  0  0  0  0  0  0  0  0
   59.5200   35.1650   46.7070 C   0  0  0  0  0  0  0  0  0  0  0  0
   59.2460   35.3740   45.3370 C   0  0  0  0  0  0  0  0  0  0  0  0
   58.8000   34.3120   44.5290 C   0  0  0  0  0  0  0  0  0  0  0  0
   58.6560   33.0550   45.1260 C   0  0  0  0  0  0  0  0  0  0  0  0
   57.7240   29.5900   45.5080 C   0  0  2  0  0  0  0  0  0  0  0  0
   58.5690   28.7090   44.6650 N   0  0  0  0  0  0  0  0  0  0  0  0
   60.0240   28.7410   44.8910 C   0  0  0  0  0  0  0  0  0  0  0  0
   60.3680   27.9520   46.1560 C   0  0  0  0  0  0  0  0  0  0  0  0
   60.1920   28.8080   47.3820 C   0  0  0  0  0  0  0  0  0  0  0  0
   61.0600   29.8890   47.6130 C   0  0  0  0  0  0  0  0  0  0  0  0
   60.8830   30.7100   48.7310 C   0  0  0  0  0  0  0  0  0  0  0  0
   59.8330   30.4660   49.6200 C   0  0  0  0  0  0  0  0  0  0  0  0
   58.9570   29.4020   49.3910 C   0  0  0  0  0  0  0  0  0  0  0  0
   59.1290   28.5760   48.2750 C   0  0  0  0  0  0  0  0  0  0  0  0
   58.2580   27.5570   48.0630 F   0  0  0  0  0  0  0  0  0  0  0  0
   56.3380   27.6110   44.7050 H   0  0  0  0  0  0  0  0  0  0  0  0
   55.7352   30.0830   46.0011 H   0  0  0  0  0  0  0  0  0  0  0  0
   55.0885   29.4423   43.3349 H   0  0  0  0  0  0  0  0  0  0  0  0
   55.3060   31.0995   44.0856 H   0  0  0  0  0  0  0  0  0  0  0  0
   57.6738   29.6166   42.9788 H   0  0  0  0  0  0  0  0  0  0  0  0
   56.5257   30.5254   41.8872 H   0  0  0  0  0  0  0  0  0  0  0  0
   58.4934   31.8747   42.5061 H   0  0  0  0  0  0  0  0  0  0  0  0
   56.8891   32.5435   43.1363 H   0  0  0  0  0  0  0  0  0  0  0  0
   58.6830   31.1940   47.7460 H   0  0  0  0  0  0  0  0  0  0  0  0
   59.5455   33.7184   48.3498 H   0  0  0  0  0  0  0  0  0  0  0  0
   59.8709   36.0023   47.3281 H   0  0  0  0  0  0  0  0  0  0  0  0
   59.3823   36.3738   44.8990 H   0  0  0  0  0  0  0  0  0  0  0  0
   58.5722   34.4649   43.4638 H   0  0  0  0  0  0  0  0  0  0  0  0
   57.8528   29.1678   46.5155 H   0  0  0  0  0  0  0  0  0  0  0  0
   58.2270   27.7230   44.7650 H   0  0  0  0  0  0  0  0  0  0  0  0
   60.5378   28.2911   44.0287 H   0  0  0  0  0  0  0  0  0  0  0  0
   60.3504   29.7844   45.0130 H   0  0  0  0  0  0  0  0  0  0  0  0
   59.7043   27.0777   46.2278 H   0  0  0  0  0  0  0  0  0  0  0  0
   61.4183   27.6304   46.0973 H   0  0  0  0  0  0  0  0  0  0  0  0
   61.8826   30.0902   46.9109 H   0  0  0  0  0  0  0  0  0  0  0  0
   61.5713   31.5490   48.9108 H   0  0  0  0  0  0  0  0  0  0  0  0
   59.6961   31.1116   50.5001 H   0  0  0  0  0  0  0  0  0  0  0  0
   58.1293   29.2131   50.0905 H   0  0  0  0  0  0  0  0  0  0  0  0
  1  2  1  0
  2  3  1  0
  3  4  1  0
  4  5  1  0
  5  6  1  0
  6  7  1  0
  7  8  2  0
  8  9  1  0
  9 10  2  0
 10 11  1  0
 11 12  2  0
 12 13  1  0
 13 14  2  0
  7 15  1  0
 15 16  1  0
 16 17  1  0
 17 18  1  0
 18 19  1  0
 19 20  2  0
 20 21  1  0
 21 22  2  0
 22 23  1  0
 23 24  2  0
 24 25  1  0
 15  2  1  0
 24 19  1  0
 14  6  1  0
 14  9  1  0
  1 26  1  0
  2 27  1  1
  3 28  1  0
  3 29  1  0
  4 30  1  0
  4 31  1  0
  5 32  1  0
  5 33  1  0
  8 34  1  0
 10 35  1  0
 11 36  1  0
 12 37  1  0
 13 38  1  0
 15 39  1  1
 16 40  1  0
 17 41  1  0
 17 42  1  0
 18 43  1  0
 18 44  1  0
 20 45  1  0
 21 46  1  0
 22 47  1  0
 23 48  1  0
M  CHG  1   8   1
M  END
>  <UniqueID>  (42) 
39

>  <SMILES>  (42) 
O[C@@H]1CCCn2c([nH+]c3ccccc32)[C@@H]1NCCc1ccccc1F

>  <Energy>  (42) 
106.6792073091133

>  <Genealogy>  (42) 
OC1CCCn2c([nH+]c3ccccc32)C1NCCc1ccccc1F (protonated)
O[C@@H]1CCCn2c([nH+]c3ccccc32)[C@@H]1NCCc1ccccc1F (chirality)
O[C@@H]1CCCn2c([nH+]c3ccccc32)[C@@H]1NCCc1ccccc1F (3D coordinates assigned)
O[C@@H]1CCCn2c([nH+]c3ccccc32)[C@@H]1NCCc1ccccc1F (nonaromatic ring conformer: 106.6792073091133 kcal/mol)

>  <smiles>  (42) 
OC1CCCn2c(nc3ccccc32)C1NCCc1ccccc1F

>  <score_type>  (42) 
oracle

>  <origin>  (42) 
adg

>  <m_score__min__energy>  (42) 
-4.6600000000000001

>  <m_primary>  (42) 
energy

$$$$
42:0
     RDKit          3D

 47 51  0  0  0  0  0  0  0  0999 V2000
   58.1800   32.3330   41.8110 O   0  0  0  0  0  0  0  0  0  0  0  0
   58.0720   32.3230   43.0660 C   0  0  0  0  0  0  0  0  0  0  0  0
   58.5670   33.4490   43.8060 N   0  0  0  0  0  0  0  0  0  0  0  0
   58.8580   33.4680   45.2120 C   0  0  0  0  0  0  0  0  0  0  0  0
   57.8340   33.4500   46.1700 C   0  0  0  0  0  0  0  0  0  0  0  0
   58.1400   33.5130   47.5300 C   0  0  0  0  0  0  0  0  0  0  0  0
   59.4750   33.5820   47.9500 C   0  0  0  0  0  0  0  0  0  0  0  0
   59.7870   33.6620   49.3090 C   0  0  0  0  0  0  0  0  0  0  0  0
   61.1210   33.7310   49.7160 C   0  0  0  0  0  0  0  0  0  0  0  0
   61.4470   33.8150   51.0790 C   0  0  0  0  0  0  0  0  0  0  0  0
   62.7830   33.8830   51.4770 C   0  0  0  0  0  0  0  0  0  0  0  0
   63.8010   33.8670   50.5230 C   0  0  0  0  0  0  0  0  0  0  0  0
   63.4900   33.7830   49.1630 C   0  0  0  0  0  0  0  0  0  0  0  0
   62.1470   33.7130   48.7400 C   0  0  0  0  0  0  0  0  0  0  0  0
   61.8270   33.6330   47.4090 N   0  0  0  0  0  0  0  0  0  0  0  0
   62.8380   33.6190   46.4690 O   0  0  0  0  0  0  0  0  0  0  0  0
   60.5200   33.5690   46.9970 C   0  0  0  0  0  0  0  0  0  0  0  0
   60.1940   33.4990   45.6270 C   0  0  0  0  0  0  0  0  0  0  0  0
   57.4050   31.1770   43.7310 C   0  0  0  0  0  0  0  0  0  0  0  0
   56.0910   30.8250   43.3830 C   0  0  0  0  0  0  0  0  0  0  0  0
   55.4750   29.7220   43.9780 C   0  0  0  0  0  0  0  0  0  0  0  0
   56.1590   28.9540   44.9250 C   0  0  0  0  0  0  0  0  0  0  0  0
   55.5380   27.8300   45.4580 O   0  0  0  0  0  0  0  0  0  0  0  0
   57.4670   29.3090   45.3080 C   0  0  0  0  0  0  0  0  0  0  0  0
   58.2300   28.5060   46.2950 C   0  0  0  0  0  0  0  0  0  0  0  0
   58.2900   27.1050   46.1910 C   0  0  0  0  0  0  0  0  0  0  0  0
   59.0040   26.3580   47.1330 C   0  0  0  0  0  0  0  0  0  0  0  0
   59.6580   27.0000   48.1880 C   0  0  0  0  0  0  0  0  0  0  0  0
   59.5980   28.3900   48.3050 C   0  0  0  0  0  0  0  0  0  0  0  0
   58.8870   29.1420   47.3660 C   0  0  0  0  0  0  0  0  0  0  0  0
   58.0720   30.4320   44.7180 C   0  0  0  0  0  0  0  0  0  0  0  0
   56.7842   33.3859   45.8477 H   0  0  0  0  0  0  0  0  0  0  0  0
   57.3305   33.5085   48.2748 H   0  0  0  0  0  0  0  0  0  0  0  0
   58.9820   33.6707   50.0586 H   0  0  0  0  0  0  0  0  0  0  0  0
   60.6478   33.8272   51.8348 H   0  0  0  0  0  0  0  0  0  0  0  0
   63.0341   33.9494   52.5459 H   0  0  0  0  0  0  0  0  0  0  0  0
   64.8522   33.9207   50.8424 H   0  0  0  0  0  0  0  0  0  0  0  0
   64.2987   33.7714   48.4175 H   0  0  0  0  0  0  0  0  0  0  0  0
   60.9980   33.4685   44.8769 H   0  0  0  0  0  0  0  0  0  0  0  0
   55.5440   31.4212   42.6378 H   0  0  0  0  0  0  0  0  0  0  0  0
   54.4447   29.4556   43.6997 H   0  0  0  0  0  0  0  0  0  0  0  0
   57.7730   26.5945   45.3651 H   0  0  0  0  0  0  0  0  0  0  0  0
   59.0510   25.2627   47.0434 H   0  0  0  0  0  0  0  0  0  0  0  0
   60.2204   26.4099   48.9266 H   0  0  0  0  0  0  0  0  0  0  0  0
   60.1111   28.8938   49.1374 H   0  0  0  0  0  0  0  0  0  0  0  0
   58.8403   30.2366   47.4639 H   0  0  0  0  0  0  0  0  0  0  0  0
   59.0822   30.7320   45.0335 H   0  0  0  0  0  0  0  0  0  0  0  0
  1  2  2  0
  2  3  1  0
  3  4  1  0
  4  5  2  0
  5  6  1  0
  6  7  2  0
  7  8  1  0
  8  9  2  0
  9 10  1  0
 10 11  2  0
 11 12  1  0
 12 13  2  0
 13 14  1  0
 14 15  2  0
 15 16  1  0
 15 17  1  0
 17 18  2  0
  2 19  1  0
 19 20  2  0
 20 21  1  0
 21 22  2  0
 22 23  1  0
 22 24  1  0
 24 25  1  0
 25 26  2  0
 26 27  1  0
 27 28  2  0
 28 29  1  0
 29 30  2  0
 24 31  2  0
 18  4  1  0
 31 19  1  0
 17  7  1  0
 30 25  1  0
 14  9  1  0
  5 32  1  0
  6 33  1  0
  8 34  1  0
 10 35  1  0
 11 36  1  0
 12 37  1  0
 13 38  1  0
 18 39  1  0
 20 40  1  0
 21 41  1  0
 26 42  1  0
 27 43  1  0
 28 44  1  0
 29 45  1  0
 30 46  1  0
 31 47  1  0
M  CHG  4   3  -1  15   1  16  -1  23  -1
M  END
>  <UniqueID>  (43) 
40

>  <SMILES>  (43) 
O=C([N-]c1ccc2cc3ccccc3[n+]([O-])c2c1)c1ccc([O-])c(-c2ccccc2)c1

>  <Energy>  (43) 
75.31696098942867

>  <Genealogy>  (43) 
O=C([N-]c1ccc2cc3ccccc3[n+]([O-])c2c1)c1ccc([O-])c(-c2ccccc2)c1 (protonated)
O=C([N-]c1ccc2cc3ccccc3[n+]([O-])c2c1)c1ccc([O-])c(-c2ccccc2)c1 (3D coordinates assigned)
O=C([N-]c1ccc2cc3ccccc3[n+]([O-])c2c1)c1ccc([O-])c(-c2ccccc2)c1 (optimized conformer: 75.31696098942867 kcal/mol)

>  <smiles>  (43) 
O=C(Nc1ccc2cc3ccccc3[n+]([O-])c2c1)c1ccc(O)c(-c2ccccc2)c1

>  <score_type>  (43) 
oracle

>  <origin>  (43) 
adg

>  <m_score__min__energy>  (43) 
-13.119999999999999

>  <m_primary>  (43) 
energy

$$$$
43:0
     RDKit          3D

 31 32  0  0  0  0  0  0  0  0999 V2000
   55.1460   29.3490   44.7710 N   0  0  0  0  0  0  0  0  0  0  0  0
   56.7110   30.0340   44.5140 S   0  0  0  0  0  0  0  0  0  0  0  0
   57.1000   29.8800   43.0710 O   0  0  0  0  0  0  0  0  0  0  0  0
   56.6610   31.5000   44.8460 O   0  0  0  0  0  0  0  0  0  0  0  0
   57.8950   29.2090   45.5370 C   0  0  0  0  0  0  0  0  0  0  0  0
   58.1980   29.7290   46.8050 C   0  0  0  0  0  0  0  0  0  0  0  0
   59.1380   29.0930   47.6360 C   0  0  0  0  0  0  0  0  0  0  0  0
   59.4560   29.5890   48.9450 N   0  0  0  0  0  0  0  0  0  0  0  0
   60.7570   29.9560   49.4220 C   0  0  0  0  0  0  0  0  0  0  0  0
   61.4170   29.1640   50.1480 O   0  0  0  0  0  0  0  0  0  0  0  0
   61.2550   31.2710   49.1440 N   0  0  0  0  0  0  0  0  0  0  0  0
   62.6050   31.6960   49.4000 C   0  0  0  0  0  0  0  0  0  0  0  0
   63.1890   32.7610   48.6880 C   0  0  0  0  0  0  0  0  0  0  0  0
   64.4950   33.1680   48.9740 C   0  0  0  0  0  0  0  0  0  0  0  0
   65.2260   32.5290   49.9800 C   0  0  0  0  0  0  0  0  0  0  0  0
   66.8640   33.0440   50.3380 Cl  0  0  0  0  0  0  0  0  0  0  0  0
   64.6450   31.4850   50.7060 C   0  0  0  0  0  0  0  0  0  0  0  0
   63.3390   31.0760   50.4230 C   0  0  0  0  0  0  0  0  0  0  0  0
   59.7400   27.9080   47.2040 C   0  0  0  0  0  0  0  0  0  0  0  0
   59.4440   27.3820   45.9460 C   0  0  0  0  0  0  0  0  0  0  0  0
   58.5290   28.0260   45.1060 C   0  0  0  0  0  0  0  0  0  0  0  0
   58.1960   27.3110   43.5330 Cl  0  0  0  0  0  0  0  0  0  0  0  0
   55.2150   28.7390   45.6170 H   0  0  0  0  0  0  0  0  0  0  0  0
   57.6951   30.6435   47.1526 H   0  0  0  0  0  0  0  0  0  0  0  0
   60.5690   31.9830   48.8020 H   0  0  0  0  0  0  0  0  0  0  0  0
   62.6148   33.2750   47.9031 H   0  0  0  0  0  0  0  0  0  0  0  0
   64.9491   33.9934   48.4060 H   0  0  0  0  0  0  0  0  0  0  0  0
   65.2168   30.9846   51.5014 H   0  0  0  0  0  0  0  0  0  0  0  0
   62.8831   30.2623   51.0062 H   0  0  0  0  0  0  0  0  0  0  0  0
   60.4521   27.3864   47.8603 H   0  0  0  0  0  0  0  0  0  0  0  0
   59.9332   26.4549   45.6125 H   0  0  0  0  0  0  0  0  0  0  0  0
  1  2  1  0
  2  3  2  0
  2  4  2  0
  2  5  1  0
  5  6  2  0
  6  7  1  0
  7  8  1  0
  8  9  1  0
  9 10  2  0
  9 11  1  0
 11 12  1  0
 12 13  2  0
 13 14  1  0
 14 15  2  0
 15 16  1  0
 15 17  1  0
 17 18  2  0
  7 19  2  0
 19 20  1  0
 20 21  2  0
 21 22  1  0
 21  5  1  0
 18 12  1  0
  1 23  1  0
  6 24  1  0
 11 25  1  0
 13 26  1  0
 14 27  1  0
 17 28  1  0
 18 29  1  0
 19 30  1  0
 20 31  1  0
M  CHG  2   1  -1   8  -1
M  END
>  <UniqueID>  (44) 
41

>  <SMILES>  (44) 
[NH-]S(=O)(=O)c1cc([N-]C(=O)Nc2ccc(Cl)cc2)ccc1Cl

>  <Energy>  (44) 
39.460460054867056

>  <Genealogy>  (44) 
[NH-]S(=O)(=O)c1cc([N-]C(=O)Nc2ccc(Cl)cc2)ccc1Cl (protonated)
[NH-]S(=O)(=O)c1cc([N-]C(=O)Nc2ccc(Cl)cc2)ccc1Cl (3D coordinates assigned)
[NH-]S(=O)(=O)c1cc([N-]C(=O)Nc2ccc(Cl)cc2)ccc1Cl (optimized conformer: 39.460460054867056 kcal/mol)

>  <smiles>  (44) 
NS(=O)(=O)c1cc(NC(=O)Nc2ccc(Cl)cc2)ccc1Cl

>  <score_type>  (44) 
oracle

>  <origin>  (44) 
adg

>  <m_score__min__energy>  (44) 
-11.33

>  <m_primary>  (44) 
energy

$$$$
44:0
     RDKit          3D

 26 28  0  0  0  0  0  0  0  0999 V2000
   59.6500   36.0940   46.3140 F   0  0  0  0  0  0  0  0  0  0  0  0
   59.7830   34.8670   46.9420 C   0  0  0  0  0  0  0  0  0  0  0  0
   61.1240   34.5420   47.0160 F   0  0  0  0  0  0  0  0  0  0  0  0
   59.2770   34.9840   48.2260 F   0  0  0  0  0  0  0  0  0  0  0  0
   59.0530   33.7940   46.1750 C   0  0  0  0  0  0  0  0  0  0  0  0
   58.5020   34.0700   44.9110 C   0  0  0  0  0  0  0  0  0  0  0  0
   57.7790   33.0910   44.2240 C   0  0  0  0  0  0  0  0  0  0  0  0
   57.5850   31.8310   44.7960 C   0  0  0  0  0  0  0  0  0  0  0  0
   58.1420   31.5340   46.0510 C   0  0  0  0  0  0  0  0  0  0  0  0
   58.8510   32.5240   46.7470 C   0  0  0  0  0  0  0  0  0  0  0  0
   58.0980   30.1900   46.5590 N   0  0  0  0  0  0  0  0  0  0  0  0
   58.0840   29.0800   45.6460 C   0  0  0  0  0  0  0  0  0  0  0  0
   58.7450   27.8890   45.9780 C   0  0  0  0  0  0  0  0  0  0  0  0
   58.8770   26.8710   45.0280 C   0  0  0  0  0  0  0  0  0  0  0  0
   58.3560   27.0390   43.7420 C   0  0  0  0  0  0  0  0  0  0  0  0
   57.6790   28.2170   43.4100 C   0  0  0  0  0  0  0  0  0  0  0  0
   57.5250   29.2290   44.3640 C   0  0  0  0  0  0  0  0  0  0  0  0
   56.4910   30.6510   44.0020 S   0  0  0  0  0  0  0  0  0  0  0  0
   58.6410   35.0635   44.4598 H   0  0  0  0  0  0  0  0  0  0  0  0
   57.3617   33.3129   43.2307 H   0  0  0  0  0  0  0  0  0  0  0  0
   59.2523   32.3061   47.7477 H   0  0  0  0  0  0  0  0  0  0  0  0
   58.3740   30.0190   47.5530 H   0  0  0  0  0  0  0  0  0  0  0  0
   59.1606   27.7549   46.9876 H   0  0  0  0  0  0  0  0  0  0  0  0
   59.3920   25.9360   45.2936 H   0  0  0  0  0  0  0  0  0  0  0  0
   58.4784   26.2447   42.9909 H   0  0  0  0  0  0  0  0  0  0  0  0
   57.2674   28.3480   42.3984 H   0  0  0  0  0  0  0  0  0  0  0  0
  1  2  1  0
  2  3  1  0
  2  4  1  0
  2  5  1  0
  5  6  2  0
  6  7  1  0
  7  8  2  0
  8  9  1  0
  9 10  2  0
  9 11  1  0
 11 12  1  0
 12 13  2  0
 13 14  1  0
 14 15  2  0
 15 16  1  0
 16 17  2  0
 17 18  1  0
 10  5  1  0
 17 12  1  0
 18  8  1  0
  6 19  1  0
  7 20  1  0
 10 21  1  0
 11 22  1  0
 13 23  1  0
 14 24  1  0
 15 25  1  0
 16 26  1  0
M  END
>  <UniqueID>  (45) 
42

>  <SMILES>  (45) 
FC(F)(F)c1ccc2c(c1)Nc1ccccc1S2

>  <Energy>  (45) 
43.441483202559155

>  <Genealogy>  (45) 
FC(F)(F)c1ccc2c(c1)Nc1ccccc1S2 (3D coordinates assigned)
FC(F)(F)c1ccc2c(c1)Nc1ccccc1S2 (nonaromatic ring conformer: 43.441483202559155 kcal/mol)

>  <smiles>  (45) 
FC(F)(F)c1ccc2c(c1)Nc1ccccc1S2

>  <score_type>  (45) 
oracle

>  <origin>  (45) 
adg

>  <m_score__min__energy>  (45) 
-6.2599999999999998

>  <m_primary>  (45) 
energy

$$$$
45:0
     RDKit          3D

 38 39  0  0  0  0  0  0  0  0999 V2000
   58.1430   26.7490   42.2840 C   0  0  0  0  0  0  0  0  0  0  0  0
   58.5290   27.5320   43.5450 C   0  0  0  0  0  0  0  0  0  0  0  0
   57.5290   27.3590   44.6400 N   0  0  0  0  0  0  0  0  0  0  0  0
   58.0250   26.3810   45.6480 C   0  0  0  0  0  0  0  0  0  0  0  0
   56.8860   25.6620   46.3830 C   0  0  0  0  0  0  0  0  0  0  0  0
   57.1340   28.6470   45.2940 C   0  0  2  0  0  0  0  0  0  0  0  0
   55.9970   29.3690   44.5620 C   0  0  0  0  0  0  0  0  0  0  0  0
   56.2970   30.7430   44.4880 O   0  0  0  0  0  0  0  0  0  0  0  0
   57.6990   30.8560   44.5640 C   0  0  1  0  0  0  0  0  0  0  0  0
   58.0890   32.1850   45.1660 C   0  0  0  0  0  0  0  0  0  0  0  0
   58.1690   32.3460   46.5620 C   0  0  0  0  0  0  0  0  0  0  0  0
   58.5630   33.5700   47.1100 C   0  0  0  0  0  0  0  0  0  0  0  0
   58.8910   34.6390   46.2730 C   0  0  0  0  0  0  0  0  0  0  0  0
   58.8320   34.4840   44.8860 C   0  0  0  0  0  0  0  0  0  0  0  0
   58.4380   33.2630   44.3320 C   0  0  0  0  0  0  0  0  0  0  0  0
   58.2370   29.6910   45.3860 C   0  0  0  0  0  0  0  0  0  0  0  0
   57.6737   25.7970   42.5728 H   0  0  0  0  0  0  0  0  0  0  0  0
   57.4337   27.3413   41.6874 H   0  0  0  0  0  0  0  0  0  0  0  0
   59.0448   26.5471   41.6874 H   0  0  0  0  0  0  0  0  0  0  0  0
   59.5077   27.1754   43.8985 H   0  0  0  0  0  0  0  0  0  0  0  0
   58.5647   28.5999   43.2837 H   0  0  0  0  0  0  0  0  0  0  0  0
   56.6530   26.9660   44.2140 H   0  0  0  0  0  0  0  0  0  0  0  0
   58.6431   25.6294   45.1351 H   0  0  0  0  0  0  0  0  0  0  0  0
   58.6045   26.9400   46.3975 H   0  0  0  0  0  0  0  0  0  0  0  0
   57.0339   25.7554   47.4690 H   0  0  0  0  0  0  0  0  0  0  0  0
   55.9244   26.1171   46.1034 H   0  0  0  0  0  0  0  0  0  0  0  0
   56.8832   24.5981   46.1034 H   0  0  0  0  0  0  0  0  0  0  0  0
   56.8441   28.2983   46.2962 H   0  0  0  0  0  0  0  0  0  0  0  0
   55.8937   28.9591   43.5464 H   0  0  0  0  0  0  0  0  0  0  0  0
   55.0533   29.2242   45.1082 H   0  0  0  0  0  0  0  0  0  0  0  0
   58.1370   30.8157   43.5558 H   0  0  0  0  0  0  0  0  0  0  0  0
   57.9202   31.5043   47.2251 H   0  0  0  0  0  0  0  0  0  0  0  0
   58.6148   33.6916   48.2020 H   0  0  0  0  0  0  0  0  0  0  0  0
   59.1958   35.6031   46.7061 H   0  0  0  0  0  0  0  0  0  0  0  0
   59.0963   35.3251   44.2282 H   0  0  0  0  0  0  0  0  0  0  0  0
   58.4006   33.1442   43.2391 H   0  0  0  0  0  0  0  0  0  0  0  0
   59.1756   29.3091   44.9581 H   0  0  0  0  0  0  0  0  0  0  0  0
   58.4726   29.9729   46.4228 H   0  0  0  0  0  0  0  0  0  0  0  0
  1  2  1  0
  2  3  1  0
  3  4  1  0
  4  5  1  0
  3  6  1  0
  6  7  1  0
  7  8  1  0
  8  9  1  0
  9 10  1  0
 10 11  2  0
 11 12  1  0
 12 13  2  0
 13 14  1  0
 14 15  2  0
  9 16  1  0
 16  6  1  0
 15 10  1  0
  1 17  1  0
  1 18  1  0
  1 19  1  0
  2 20  1  0
  2 21  1  0
  3 22  1  0
  4 23  1  0
  4 24  1  0
  5 25  1  0
  5 26  1  0
  5 27  1  0
  6 28  1  1
  7 29  1  0
  7 30  1  0
  9 31  1  6
 11 32  1  0
 12 33  1  0
 13 34  1  0
 14 35  1  0
 15 36  1  0
 16 37  1  0
 16 38  1  0
M  CHG  1   3   1
M  END
>  <UniqueID>  (46) 
43

>  <SMILES>  (46) 
CC[NH+](CC)[C@@H]1CO[C@@H](c2ccccc2)C1

>  <Energy>  (46) 
45.15598451562736

>  <Genealogy>  (46) 
CC[NH+](CC)C1COC(c2ccccc2)C1 (protonated)
CC[NH+](CC)[C@@H]1CO[C@@H](c2ccccc2)C1 (chirality)
CC[NH+](CC)[C@@H]1CO[C@@H](c2ccccc2)C1 (3D coordinates assigned)
CC[NH+](CC)[C@@H]1CO[C@@H](c2ccccc2)C1 (nonaromatic ring conformer: 45.15598451562736 kcal/mol)

>  <smiles>  (46) 
CCN(CC)C1COC(c2ccccc2)C1

>  <score_type>  (46) 
oracle

>  <origin>  (46) 
adg

>  <m_score__min__energy>  (46) 
-4.8799999999999999

>  <m_primary>  (46) 
energy

$$$$
46:0
     RDKit          3D

 48 51  0  0  0  0  0  0  0  0999 V2000
   57.9340   20.0830   46.4160 C   0  0  0  0  0  0  0  0  0  0  0  0
   58.0660   21.4960   46.2950 O   0  0  0  0  0  0  0  0  0  0  0  0
   56.9920   22.3780   46.1090 C   0  0  0  0  0  0  0  0  0  0  0  0
   55.6640   21.9190   45.8730 C   0  0  0  0  0  0  0  0  0  0  0  0
   54.6110   22.8380   45.7110 C   0  0  0  0  0  0  0  0  0  0  0  0
   53.3080   22.4000   45.5040 O   0  0  0  0  0  0  0  0  0  0  0  0
   54.9120   24.1950   45.7730 C   0  0  0  0  0  0  0  0  0  0  0  0
   54.0580   25.2310   45.6890 N   0  0  0  0  0  0  0  0  0  0  0  0
   54.7710   26.3430   45.8320 N   0  0  0  0  0  0  0  0  0  0  0  0
   56.0760   26.0200   46.0010 C   0  0  0  0  0  0  0  0  0  0  0  0
   57.1480   27.0170   46.1920 C   0  0  0  0  0  0  0  0  0  0  0  0
   58.1230   26.8080   47.1760 C   0  0  0  0  0  0  0  0  0  0  0  0
   59.1350   27.7490   47.3820 C   0  0  0  0  0  0  0  0  0  0  0  0
   59.1850   28.9240   46.6080 C   0  0  0  0  0  0  0  0  0  0  0  0
   60.1550   29.9160   46.8320 O   0  0  0  0  0  0  0  0  0  0  0  0
   60.8770   30.0880   48.0470 C   0  0  0  0  0  0  0  0  0  0  0  0
   58.2150   29.1270   45.6050 C   0  0  0  0  0  0  0  0  0  0  0  0
   58.2090   30.3170   44.8050 N   0  0  0  0  0  0  0  0  0  0  0  0
   57.1290   31.2540   44.7680 C   0  0  0  0  0  0  0  0  0  0  0  0
   55.9360   30.8520   44.6910 O   0  0  0  0  0  0  0  0  0  0  0  0
   57.4210   32.7180   44.7590 C   0  0  0  0  0  0  0  0  0  0  0  0
   58.4130   33.0320   45.8450 C   0  0  0  0  0  0  0  0  0  0  0  0
   59.5310   33.8380   45.5710 C   0  0  0  0  0  0  0  0  0  0  0  0
   60.4130   34.1890   46.5970 C   0  0  0  0  0  0  0  0  0  0  0  0
   60.1820   33.7490   47.9040 C   0  0  0  0  0  0  0  0  0  0  0  0
   61.2860   34.1980   49.1910 Cl  0  0  0  0  0  0  0  0  0  0  0  0
   59.0670   32.9530   48.1840 C   0  0  0  0  0  0  0  0  0  0  0  0
   58.1820   32.5990   47.1610 C   0  0  0  0  0  0  0  0  0  0  0  0
   57.1870   28.1960   45.4300 C   0  0  0  0  0  0  0  0  0  0  0  0
   56.1860   24.6420   45.9730 C   0  0  0  0  0  0  0  0  0  0  0  0
   57.2520   23.7620   46.1680 C   0  0  0  0  0  0  0  0  0  0  0  0
   57.9082   19.8070   47.4805 H   0  0  0  0  0  0  0  0  0  0  0  0
   57.0017   19.7589   45.9305 H   0  0  0  0  0  0  0  0  0  0  0  0
   58.7902   19.5918   45.9305 H   0  0  0  0  0  0  0  0  0  0  0  0
   55.4607   20.8394   45.8171 H   0  0  0  0  0  0  0  0  0  0  0  0
   58.0916   25.8965   47.7909 H   0  0  0  0  0  0  0  0  0  0  0  0
   59.8979   27.5706   48.1542 H   0  0  0  0  0  0  0  0  0  0  0  0
   60.2020   29.9272   48.9005 H   0  0  0  0  0  0  0  0  0  0  0  0
   61.7015   29.3611   48.0896 H   0  0  0  0  0  0  0  0  0  0  0  0
   61.2853   31.1085   48.0896 H   0  0  0  0  0  0  0  0  0  0  0  0
   57.8413   33.0032   43.7833 H   0  0  0  0  0  0  0  0  0  0  0  0
   56.4921   33.2808   44.9334 H   0  0  0  0  0  0  0  0  0  0  0  0
   59.7126   34.1938   44.5461 H   0  0  0  0  0  0  0  0  0  0  0  0
   61.2913   34.8131   46.3756 H   0  0  0  0  0  0  0  0  0  0  0  0
   58.8857   32.6045   49.2115 H   0  0  0  0  0  0  0  0  0  0  0  0
   57.3019   31.9793   47.3876 H   0  0  0  0  0  0  0  0  0  0  0  0
   56.3994   28.3892   44.6867 H   0  0  0  0  0  0  0  0  0  0  0  0
   58.2671   24.1384   46.3624 H   0  0  0  0  0  0  0  0  0  0  0  0
  1  2  1  0
  2  3  1  0
  3  4  1  0
  4  5  2  0
  5  6  1  0
  5  7  1  0
  7  8  2  0
  8  9  1  0
  9 10  1  0
 10 11  1  0
 11 12  2  0
 12 13  1  0
 13 14  2  0
 14 15  1  0
 15 16  1  0
 14 17  1  0
 17 18  1  0
 18 19  1  0
 19 20  2  0
 19 21  1  0
 21 22  1  0
 22 23  2  0
 23 24  1  0
 24 25  2  0
 25 26  1  0
 25 27  1  0
 27 28  2  0
 17 29  2  0
 10 30  2  0
 30 31  1  0
 31  3  2  0
 30  7  1  0
 29 11  1  0
 28 22  1  0
  1 32  1  0
  1 33  1  0
  1 34  1  0
  4 35  1  0
 12 36  1  0
 13 37  1  0
 16 38  1  0
 16 39  1  0
 16 40  1  0
 21 41  1  0
 21 42  1  0
 23 43  1  0
 24 44  1  0
 27 45  1  0
 28 46  1  0
 29 47  1  0
 31 48  1  0
M  CHG  3   6  -1   9  -1  18  -1
M  END
>  <UniqueID>  (47) 
44

>  <SMILES>  (47) 
COc1cc([O-])c2n[n-]c(-c3ccc(OC)c([N-]C(=O)Cc4ccc(Cl)cc4)c3)c2c1

>  <Energy>  (47) 
96.1463481789596

>  <Genealogy>  (47) 
COc1cc([O-])c2n[n-]c(-c3ccc(OC)c([N-]C(=O)Cc4ccc(Cl)cc4)c3)c2c1 (protonated)
COc1cc([O-])c2n[n-]c(-c3ccc(OC)c([N-]C(=O)Cc4ccc(Cl)cc4)c3)c2c1 (3D coordinates assigned)
COc1cc([O-])c2n[n-]c(-c3ccc(OC)c([N-]C(=O)Cc4ccc(Cl)cc4)c3)c2c1 (optimized conformer: 96.1463481789596 kcal/mol)

>  <smiles>  (47) 
COc1cc(O)c2n[nH]c(-c3ccc(OC)c(NC(=O)Cc4ccc(Cl)cc4)c3)c2c1

>  <score_type>  (47) 
oracle

>  <origin>  (47) 
adg

>  <m_score__min__energy>  (47) 
-15.34

>  <m_primary>  (47) 
energy

$$$$
