0:0
     RDKit          2D

 73 77  0  0  0  0  0  0  0  0999 V2000
    8.2500   -3.8971    0.0000 C   0  0  0  0  0  0  0  0  0  0  0  0
    6.7500   -3.8971    0.0000 C   0  0  0  0  0  0  0  0  0  0  0  0
    5.2500   -3.8971    0.0000 N   0  0  0  0  0  0  0  0  0  0  0  0
    4.5000   -5.1962    0.0000 C   0  0  0  0  0  0  0  0  0  0  0  0
    4.5000   -2.5981    0.0000 C   0  0  0  0  0  0  0  0  0  0  0  0
    3.7500   -1.2990    0.0000 C   0  0  0  0  0  0  0  0  0  0  0  0
    3.0000   -0.0000    0.0000 N   0  0  0  0  0  0  0  0  0  0  0  0
    1.5000    0.0000    0.0000 C   0  0  0  0  0  0  0  0  0  0  0  0
    0.7500   -1.2990    0.0000 C   0  0  0  0  0  0  0  0  0  0  0  0
    1.5000   -2.5981    0.0000 C   0  0  0  0  0  0  0  0  0  0  0  0
    0.7500   -3.8971    0.0000 C   0  0  0  0  0  0  0  0  0  0  0  0
   -0.7500   -3.8971    0.0000 C   0  0  0  0  0  0  0  0  0  0  0  0
   -1.5000   -2.5981    0.0000 C   0  0  0  0  0  0  0  0  0  0  0  0
   -0.7500   -1.2990    0.0000 C   0  0  0  0  0  0  0  0  0  0  0  0
   -1.5000    0.0000    0.0000 N   0  0  0  0  0  0  0  0  0  0  0  0
   -3.0000    0.0000    0.0000 C   0  0  0  0  0  0  0  0  0  0  0  0
   -0.7500    1.2990    0.0000 C   0  0  0  0  0  0  0  0  0  0  0  0
   -1.5000    2.5981    0.0000 C   0  0  0  0  0  0  0  0  0  0  0  0
   -0.7500    3.8971    0.0000 C   0  0  0  0  0  0  0  0  0  0  0  0
    0.7500    3.8971    0.0000 C   0  0  0  0  0  0  0  0  0  0  0  0
    1.5000    5.1962    0.0000 C   0  0  0  0  0  0  0  0  0  0  0  0
    2.2500    6.4952    0.0000 C   0  0  0  0  0  0  0  0  0  0  0  0
    3.0000    7.7942    0.0000 C   0  0  0  0  0  0  0  0  0  0  0  0
    3.7500    9.0933    0.0000 C   0  0  0  0  0  0  0  0  0  0  0  0
    4.5000   10.3923    0.0000 C   0  0  0  0  0  0  0  0  0  0  0  0
    5.2500   11.6913    0.0000 N   0  0  0  0  0  0  0  0  0  0  0  0
    4.5000   12.9904    0.0000 C   0  0  0  0  0  0  0  0  0  0  0  0
    5.2500   14.2894    0.0000 C   0  0  0  0  0  0  0  0  0  0  0  0
    6.7500   14.2894    0.0000 C   0  0  0  0  0  0  0  0  0  0  0  0
    7.5000   12.9904    0.0000 C   0  0  0  0  0  0  0  0  0  0  0  0
    6.7500   11.6913    0.0000 C   0  0  0  0  0  0  0  0  0  0  0  0
    6.3079   10.2580    0.0000 C   0  0  0  0  0  0  0  0  0  0  0  0
    4.9116    9.7100    0.0000 C   0  0  0  0  0  0  0  0  0  0  0  0
    3.6125   10.4600    0.0000 C   0  0  0  0  0  0  0  0  0  0  0  0
    3.3890   11.9432    0.0000 C   0  0  0  0  0  0  0  0  0  0  0  0
    1.5000    2.5981    0.0000 C   0  0  0  0  0  0  0  0  0  0  0  0
    0.7500    1.2990    0.0000 C   0  0  0  0  0  0  0  0  0  0  0  0
    9.7500   -3.8971    0.0000 H   0  0  0  0  0  0  0  0  0  0  0  0
    8.2500   -2.3971    0.0000 H   0  0  0  0  0  0  0  0  0  0  0  0
    8.2500   -5.3971    0.0000 H   0  0  0  0  0  0  0  0  0  0  0  0
    6.7500   -2.3971    0.0000 H   0  0  0  0  0  0  0  0  0  0  0  0
    6.7500   -5.3971    0.0000 H   0  0  0  0  0  0  0  0  0  0  0  0
    3.7500   -6.4952    0.0000 H   0  0  0  0  0  0  0  0  0  0  0  0
    5.7990   -5.9462    0.0000 H   0  0  0  0  0  0  0  0  0  0  0  0
    3.2010   -4.4462    0.0000 H   0  0  0  0  0  0  0  0  0  0  0  0
    3.4934   -3.0253    0.0000 H   0  0  0  0  0  0  0  0  0  0  0  0
    5.7990   -1.8481    0.0000 H   0  0  0  0  0  0  0  0  0  0  0  0
    5.0490   -0.5490    0.0000 H   0  0  0  0  0  0  0  0  0  0  0  0
    2.8767   -1.9571    0.0000 H   0  0  0  0  0  0  0  0  0  0  0  0
    3.7500    1.2990    0.0000 H   0  0  0  0  0  0  0  0  0  0  0  0
    2.2972   -2.5981    0.0000 H   0  0  0  0  0  0  0  0  0  0  0  0
    1.5000   -5.1962    0.0000 H   0  0  0  0  0  0  0  0  0  0  0  0
   -1.5000   -5.1962    0.0000 H   0  0  0  0  0  0  0  0  0  0  0  0
   -3.0000   -2.5981    0.0000 H   0  0  0  0  0  0  0  0  0  0  0  0
   -4.5000    0.0000    0.0000 H   0  0  0  0  0  0  0  0  0  0  0  0
   -3.0000    1.5000    0.0000 H   0  0  0  0  0  0  0  0  0  0  0  0
   -3.0000   -1.5000    0.0000 H   0  0  0  0  0  0  0  0  0  0  0  0
   -3.0000    2.5981    0.0000 H   0  0  0  0  0  0  0  0  0  0  0  0
   -1.5000    5.1962    0.0000 H   0  0  0  0  0  0  0  0  0  0  0  0
    4.2990    7.0442    0.0000 H   0  0  0  0  0  0  0  0  0  0  0  0
    1.7010    8.5442    0.0000 H   0  0  0  0  0  0  0  0  0  0  0  0
    2.3692    9.6793    0.0000 H   0  0  0  0  0  0  0  0  0  0  0  0
    4.9479    8.1905    0.0000 H   0  0  0  0  0  0  0  0  0  0  0  0
    5.7990    9.6423    0.0000 H   0  0  0  0  0  0  0  0  0  0  0  0
    3.0581   10.8057    0.0000 H   0  0  0  0  0  0  0  0  0  0  0  0
    4.5000   15.5885    0.0000 H   0  0  0  0  0  0  0  0  0  0  0  0
    7.5000   15.5885    0.0000 H   0  0  0  0  0  0  0  0  0  0  0  0
    9.0000   12.9904    0.0000 H   0  0  0  0  0  0  0  0  0  0  0  0
    7.4074    9.2377    0.0000 H   0  0  0  0  0  0  0  0  0  0  0  0
    4.9826    8.2117    0.0000 H   0  0  0  0  0  0  0  0  0  0  0  0
    2.2794    9.7724    0.0000 H   0  0  0  0  0  0  0  0  0  0  0  0
    1.9556   12.3854    0.0000 H   0  0  0  0  0  0  0  0  0  0  0  0
    3.0000    2.5981    0.0000 H   0  0  0  0  0  0  0  0  0  0  0  0
  1  2  1  0
  2  3  1  0
  3  4  1  0
  3  5  1  0
  5  6  1  0
  6  7  1  0
  7  8  1  0
  8  9  2  0
  9 10  1  0
 10 11  2  0
 11 12  1  0
 12 13  2  0
 13 14  1  0
 14 15  2  0
 15 16  1  0
 15 17  1  0
 17 18  2  0
 18 19  1  0
 19 20  2  0
 20 21  1  0
 21 22  3  0
 22 23  1  0
 23 24  1  0
 24 25  1  0
 25 26  1  0
 26 27  1  0
 27 28  2  0
 28 29  1  0
 29 30  2  0
 30 31  1  0
 31 32  1  0
 32 33  2  0
 33 34  1  0
 34 35  2  0
 20 36  1  0
 36 37  2  0
 37  8  1  0
 14  9  1  0
 37 17  1  0
 31 26  2  0
 35 27  1  0
  1 38  1  0
  1 39  1  0
  1 40  1  0
  2 41  1  0
  2 42  1  0
  4 43  1  0
  4 44  1  0
  4 45  1  0
  5 46  1  0
  5 47  1  0
  6 48  1  0
  6 49  1  0
  7 50  1  0
 10 51  1  0
 11 52  1  0
 12 53  1  0
 13 54  1  0
 16 55  1  0
 16 56  1  0
 16 57  1  0
 18 58  1  0
 19 59  1  0
 23 60  1  0
 23 61  1  0
 24 62  1  0
 24 63  1  0
 25 64  1  0
 25 65  1  0
 28 66  1  0
 29 67  1  0
 30 68  1  0
 32 69  1  0
 33 70  1  0
 34 71  1  0
 35 72  1  0
 36 73  1  0
M  CHG  2  15   1  26   1
M  END
>  <smiles>  (1) 
CCN(C)CCNc1c2ccccc2[n+](C)c2ccc(C#CCCC[n+]3c4cccc3C=CC=C4)cc12

>  <m_score__min__energy>  (1) 
nan

>  <m_primary>  (1) 
energy

$$$$
1:0
     RDKit          3D

 59 61  0  0  0  0  0  0  0  0999 V2000
   63.1470   33.8400   46.3710 C   0  0  0  0  0  0  0  0  0  0  0  0
   63.1670   32.5630   47.1430 C   0  0  0  0  0  0  0  0  0  0  0  0
   62.9630   32.6610   48.5500 N   0  0  0  0  0  0  0  0  0  0  0  0
   62.4630   33.8550   49.0960 C   0  0  0  0  0  0  0  0  0  0  0  0
   61.5290   33.7550   50.2680 C   0  0  0  0  0  0  0  0  0  0  0  0
   61.2790   32.3890   50.6130 N   0  0  0  0  0  0  0  0  0  0  0  0
   59.9140   32.0720   50.8990 C   0  0  0  0  0  0  0  0  0  0  0  0
   59.2080   31.5470   49.6590 C   0  0  0  0  0  0  0  0  0  0  0  0
   60.0720   31.5700   48.4920 N   0  0  0  0  0  0  0  0  0  0  0  0
   59.4570   31.6040   47.2330 C   0  0  0  0  0  0  0  0  0  0  0  0
   59.3140   30.3690   46.5880 C   0  0  0  0  0  0  0  0  0  0  0  0
   58.7270   30.2670   45.3480 C   0  0  0  0  0  0  0  0  0  0  0  0
   58.2630   31.3770   44.7030 N   0  0  0  0  0  0  0  0  0  0  0  0
   57.6630   31.1660   43.4290 C   0  0  0  0  0  0  0  0  0  0  0  0
   58.3890   32.5870   45.3010 C   0  0  0  0  0  0  0  0  0  0  0  0
   58.9870   32.6990   46.5670 C   0  0  0  0  0  0  0  0  0  0  0  0
   59.1100   34.0350   47.2110 C   0  0  0  0  0  0  0  0  0  0  0  0
   59.6460   34.9670   46.1570 C   0  0  0  0  0  0  0  0  0  0  0  0
   58.8850   34.9910   44.8790 C   0  0  0  0  0  0  0  0  0  0  0  0
   57.9260   33.8310   44.6840 C   0  0  0  0  0  0  0  0  0  0  0  0
   58.6180   28.9090   44.7280 C   0  0  0  0  0  0  0  0  0  0  0  0
   59.9930   28.2900   44.8640 C   0  0  0  0  0  0  0  0  0  0  0  0
   60.3430   28.1030   46.3050 C   0  0  0  0  0  0  0  0  0  0  0  0
   59.8100   29.1320   47.2350 C   0  0  0  0  0  0  0  0  0  0  0  0
   63.1337   34.6902   47.0689 H   0  0  0  0  0  0  0  0  0  0  0  0
   64.0443   33.8996   45.7375 H   0  0  0  0  0  0  0  0  0  0  0  0
   62.2483   33.8715   45.7375 H   0  0  0  0  0  0  0  0  0  0  0  0
   62.3764   31.9154   46.7361 H   0  0  0  0  0  0  0  0  0  0  0  0
   64.1882   32.1713   47.0262 H   0  0  0  0  0  0  0  0  0  0  0  0
   62.7410   31.7780   49.0390 H   0  0  0  0  0  0  0  0  0  0  0  0
   63.3270   34.4559   49.4161 H   0  0  0  0  0  0  0  0  0  0  0  0
   61.8513   34.2909   48.2923 H   0  0  0  0  0  0  0  0  0  0  0  0
   61.9797   34.2667   51.1311 H   0  0  0  0  0  0  0  0  0  0  0  0
   60.5736   34.2265   49.9943 H   0  0  0  0  0  0  0  0  0  0  0  0
   61.7160   31.7270   49.9760 H   0  0  0  0  0  0  0  0  0  0  0  0
   59.8798   31.3037   51.6854 H   0  0  0  0  0  0  0  0  0  0  0  0
   59.4032   32.9870   51.2335 H   0  0  0  0  0  0  0  0  0  0  0  0
   58.8881   30.5109   49.8440 H   0  0  0  0  0  0  0  0  0  0  0  0
   58.3454   32.1989   49.4568 H   0  0  0  0  0  0  0  0  0  0  0  0
   61.1140   31.5610   48.5540 H   0  0  0  0  0  0  0  0  0  0  0  0
   56.6332   30.8038   43.5642 H   0  0  0  0  0  0  0  0  0  0  0  0
   57.6482   32.1129   42.8693 H   0  0  0  0  0  0  0  0  0  0  0  0
   58.2441   30.4183   42.8693 H   0  0  0  0  0  0  0  0  0  0  0  0
   58.1260   34.3811   47.5601 H   0  0  0  0  0  0  0  0  0  0  0  0
   59.7762   33.9964   48.0855 H   0  0  0  0  0  0  0  0  0  0  0  0
   59.6441   35.9856   46.5722 H   0  0  0  0  0  0  0  0  0  0  0  0
   60.6496   34.5939   45.9049 H   0  0  0  0  0  0  0  0  0  0  0  0
   58.3037   35.9242   44.8450 H   0  0  0  0  0  0  0  0  0  0  0  0
   59.6310   34.9129   44.0744 H   0  0  0  0  0  0  0  0  0  0  0  0
   56.9565   34.1011   45.1279 H   0  0  0  0  0  0  0  0  0  0  0  0
   57.8502   33.6494   43.6018 H   0  0  0  0  0  0  0  0  0  0  0  0
   57.8694   28.3029   45.2593 H   0  0  0  0  0  0  0  0  0  0  0  0
   58.2981   28.9650   43.6770 H   0  0  0  0  0  0  0  0  0  0  0  0
   60.0013   27.3124   44.3597 H   0  0  0  0  0  0  0  0  0  0  0  0
   60.7324   28.9612   44.4026 H   0  0  0  0  0  0  0  0  0  0  0  0
   59.9533   27.1249   46.6235 H   0  0  0  0  0  0  0  0  0  0  0  0
   61.4384   28.1858   46.3613 H   0  0  0  0  0  0  0  0  0  0  0  0
   58.9772   28.6843   47.7972 H   0  0  0  0  0  0  0  0  0  0  0  0
   60.6546   29.4368   47.8704 H   0  0  0  0  0  0  0  0  0  0  0  0
  1  2  1  0
  2  3  1  0
  3  4  1  0
  4  5  1  0
  5  6  1  0
  6  7  1  0
  7  8  1  0
  8  9  1  0
  9 10  1  0
 10 11  2  0
 11 12  1  0
 12 13  2  0
 13 14  1  0
 13 15  1  0
 15 16  2  0
 16 17  1  0
 17 18  1  0
 18 19  1  0
 19 20  1  0
 12 21  1  0
 21 22  1  0
 22 23  1  0
 23 24  1  0
 16 10  1  0
 24 11  1  0
 20 15  1  0
  1 25  1  0
  1 26  1  0
  1 27  1  0
  2 28  1  0
  2 29  1  0
  3 30  1  0
  4 31  1  0
  4 32  1  0
  5 33  1  0
  5 34  1  0
  6 35  1  0
  7 36  1  0
  7 37  1  0
  8 38  1  0
  8 39  1  0
  9 40  1  0
 14 41  1  0
 14 42  1  0
 14 43  1  0
 17 44  1  0
 17 45  1  0
 18 46  1  0
 18 47  1  0
 19 48  1  0
 19 49  1  0
 20 50  1  0
 20 51  1  0
 21 52  1  0
 21 53  1  0
 22 54  1  0
 22 55  1  0
 23 56  1  0
 23 57  1  0
 24 58  1  0
 24 59  1  0
M  CHG  1  13   1
M  END
>  <smiles>  (2) 
CCNCCNCCNc1c2c([n+](C)c3c1CCCC3)CCCC2

>  <score_type>  (2) 
oracle

>  <origin>  (2) 
adg

>  <m_score__min__energy>  (2) 
-6.6200000000000001

>  <m_primary>  (2) 
energy

$$$$
2:0
     RDKit          3D

 48 51  0  0  0  0  0  0  0  0999 V2000
   57.3540   32.3650   41.0380 C   0  0  0  0  0  0  0  0  0  0  0  0
   57.3930   31.6470   42.3370 C   0  0  0  0  0  0  0  0  0  0  0  0
   56.6480   30.4980   42.4820 C   0  0  0  0  0  0  0  0  0  0  0  0
   56.6520   29.7940   43.6720 C   0  0  0  0  0  0  0  0  0  0  0  0
   57.3860   30.1860   44.7770 C   0  0  0  0  0  0  0  0  0  0  0  0
   57.3950   29.4190   46.0450 C   0  0  0  0  0  0  0  0  0  0  0  0
   58.6480   28.8590   46.4310 N   0  0  0  0  0  0  0  0  0  0  0  0
   59.4240   28.1300   45.5790 C   0  0  0  0  0  0  0  0  0  0  0  0
   59.1830   27.7730   44.1620 C   0  0  0  0  0  0  0  0  0  0  0  0
   60.5490   27.7410   46.2320 N   0  0  0  0  0  0  0  0  0  0  0  0
   60.4400   28.2270   47.4300 N   0  0  0  0  0  0  0  0  0  0  0  0
   59.3230   28.9110   47.6210 C   0  0  0  0  0  0  0  0  0  0  0  0
   58.8170   29.6120   48.8320 C   0  0  0  0  0  0  0  0  0  0  0  0
   59.6050   30.7980   49.0970 N   0  0  0  0  0  0  0  0  0  0  0  0
   59.7120   31.9100   48.2380 C   0  0  0  0  0  0  0  0  0  0  0  0
   58.6280   32.6280   47.8070 C   0  0  0  0  0  0  0  0  0  0  0  0
   58.7270   33.7130   46.9360 C   0  0  0  0  0  0  0  0  0  0  0  0
   59.9410   34.1190   46.4590 C   0  0  0  0  0  0  0  0  0  0  0  0
   61.0530   33.4100   46.8790 C   0  0  0  0  0  0  0  0  0  0  0  0
   62.2700   33.8360   46.3870 C   0  0  0  0  0  0  0  0  0  0  0  0
   63.4370   33.1970   46.7450 C   0  0  0  0  0  0  0  0  0  0  0  0
   63.3460   32.1360   47.5970 C   0  0  0  0  0  0  0  0  0  0  0  0
   62.1240   31.7090   48.0900 C   0  0  0  0  0  0  0  0  0  0  0  0
   60.9560   32.3270   47.7480 C   0  0  0  0  0  0  0  0  0  0  0  0
   58.1350   31.3550   44.6080 C   0  0  0  0  0  0  0  0  0  0  0  0
   58.1310   32.0590   43.4170 C   0  0  0  0  0  0  0  0  0  0  0  0
   57.2952   33.4483   41.2195 H   0  0  0  0  0  0  0  0  0  0  0  0
   58.2658   32.1380   40.4661 H   0  0  0  0  0  0  0  0  0  0  0  0
   56.4722   32.0406   40.4661 H   0  0  0  0  0  0  0  0  0  0  0  0
   56.0412   30.1352   41.6393 H   0  0  0  0  0  0  0  0  0  0  0  0
   56.0436   28.8803   43.7433 H   0  0  0  0  0  0  0  0  0  0  0  0
   57.0671   30.0947   46.8487 H   0  0  0  0  0  0  0  0  0  0  0  0
   56.7278   28.5610   45.8758 H   0  0  0  0  0  0  0  0  0  0  0  0
   58.5681   26.8622   44.1128 H   0  0  0  0  0  0  0  0  0  0  0  0
   58.6565   28.5983   43.6604 H   0  0  0  0  0  0  0  0  0  0  0  0
   60.1453   27.5933   43.6604 H   0  0  0  0  0  0  0  0  0  0  0  0
   57.7684   29.9025   48.6707 H   0  0  0  0  0  0  0  0  0  0  0  0
   58.8937   28.9335   49.6944 H   0  0  0  0  0  0  0  0  0  0  0  0
   60.1220   30.7720   50.0270 H   0  0  0  0  0  0  0  0  0  0  0  0
   57.6303   32.3345   48.1654 H   0  0  0  0  0  0  0  0  0  0  0  0
   57.8163   34.2483   46.6294 H   0  0  0  0  0  0  0  0  0  0  0  0
   60.0309   34.9725   45.7709 H   0  0  0  0  0  0  0  0  0  0  0  0
   62.3088   34.6953   45.7014 H   0  0  0  0  0  0  0  0  0  0  0  0
   64.4101   33.5316   46.3564 H   0  0  0  0  0  0  0  0  0  0  0  0
   64.2625   31.6081   47.8991 H   0  0  0  0  0  0  0  0  0  0  0  0
   62.0940   30.8491   48.7753 H   0  0  0  0  0  0  0  0  0  0  0  0
   58.7444   31.7251   45.4456 H   0  0  0  0  0  0  0  0  0  0  0  0
   58.7361   32.9739   43.3341 H   0  0  0  0  0  0  0  0  0  0  0  0
  1  2  1  0
  2  3  2  0
  3  4  1  0
  4  5  2  0
  5  6  1  0
  6  7  1  0
  7  8  1  0
  8  9  1  0
  8 10  2  0
 10 11  1  0
 11 12  2  0
 12 13  1  0
 13 14  1  0
 14 15  1  0
 15 16  2  0
 16 17  1  0
 17 18  2  0
 18 19  1  0
 19 20  2  0
 20 21  1  0
 21 22  2  0
 22 23  1  0
 23 24  2  0
  5 25  1  0
 25 26  2  0
 26  2  1  0
 12  7  1  0
 24 15  1  0
 24 19  1  0
  1 27  1  0
  1 28  1  0
  1 29  1  0
  3 30  1  0
  4 31  1  0
  6 32  1  0
  6 33  1  0
  9 34  1  0
  9 35  1  0
  9 36  1  0
 13 37  1  0
 13 38  1  0
 14 39  1  0
 16 40  1  0
 17 41  1  0
 18 42  1  0
 20 43  1  0
 21 44  1  0
 22 45  1  0
 23 46  1  0
 25 47  1  0
 26 48  1  0
M  END
>  <smiles>  (3) 
Cc1ccc(Cn2c(C)nnc2CNc2cccc3ccccc23)cc1

>  <score_type>  (3) 
oracle

>  <origin>  (3) 
adg

>  <m_score__min__energy>  (3) 
-8.2400000000000002

>  <m_primary>  (3) 
energy

$$$$
3:0
     RDKit          3D

 50 50  0  0  0  0  0  0  0  0999 V2000
   60.7470   30.4510   46.8700 C   0  0  0  0  0  0  0  0  0  0  0  0
   59.9550   30.0170   45.6590 C   0  0  0  0  0  0  0  0  0  0  0  0
   58.6860   29.4630   45.9910 N   0  0  0  0  0  0  0  0  0  0  0  0
   58.5210   29.1450   47.3770 C   0  0  0  0  0  0  0  0  0  0  0  0
   58.9310   27.7440   47.7400 C   0  0  0  0  0  0  0  0  0  0  0  0
   58.1570   28.5130   45.0860 C   0  0  0  0  0  0  0  0  0  0  0  0
   56.6260   28.4800   45.2280 C   0  0  0  0  0  0  0  0  0  0  0  0
   56.1060   29.7210   44.8820 O   0  0  0  0  0  0  0  0  0  0  0  0
   56.3710   30.0180   43.5700 C   0  0  0  0  0  0  0  0  0  0  0  0
   57.3810   31.1060   43.4040 C   0  0  0  0  0  0  0  0  0  0  0  0
   57.0350   32.2780   44.3190 C   0  0  0  0  0  0  0  0  0  0  0  0
   57.4940   31.9370   45.6320 N   0  0  0  0  0  0  0  0  0  0  0  0
   57.3710   33.0720   46.5250 C   0  0  0  0  0  0  0  0  0  0  0  0
   58.7370   33.6030   46.7210 C   0  0  0  0  0  0  0  0  0  0  0  0
   59.5530   34.3230   45.8790 C   0  0  0  0  0  0  0  0  0  0  0  0
   60.7130   34.5640   46.5540 N   0  0  0  0  0  0  0  0  0  0  0  0
   60.6490   34.0270   47.7730 N   0  0  0  0  0  0  0  0  0  0  0  0
   61.6740   34.0580   48.8070 C   0  0  0  0  0  0  0  0  0  0  0  0
   59.4350   33.4180   47.9170 C   0  0  0  0  0  0  0  0  0  0  0  0
   58.9420   32.6860   49.1270 C   0  0  0  0  0  0  0  0  0  0  0  0
   60.2102   30.1568   47.7839 H   0  0  0  0  0  0  0  0  0  0  0  0
   61.7354   29.9685   46.8539 H   0  0  0  0  0  0  0  0  0  0  0  0
   60.8722   31.5437   46.8539 H   0  0  0  0  0  0  0  0  0  0  0  0
   59.7964   30.8925   45.0122 H   0  0  0  0  0  0  0  0  0  0  0  0
   60.5341   29.2306   45.1528 H   0  0  0  0  0  0  0  0  0  0  0  0
   59.1292   29.8465   47.9669 H   0  0  0  0  0  0  0  0  0  0  0  0
   57.4459   29.2268   47.5948 H   0  0  0  0  0  0  0  0  0  0  0  0
   58.9606   27.6427   48.8349 H   0  0  0  0  0  0  0  0  0  0  0  0
   58.2041   27.0301   47.3253 H   0  0  0  0  0  0  0  0  0  0  0  0
   59.9281   27.5347   47.3253 H   0  0  0  0  0  0  0  0  0  0  0  0
   58.4254   28.7952   44.0572 H   0  0  0  0  0  0  0  0  0  0  0  0
   58.5711   27.5186   45.3089 H   0  0  0  0  0  0  0  0  0  0  0  0
   56.2117   27.7092   44.5615 H   0  0  0  0  0  0  0  0  0  0  0  0
   56.3574   28.2450   46.2685 H   0  0  0  0  0  0  0  0  0  0  0  0
   56.7501   29.1111   43.0762 H   0  0  0  0  0  0  0  0  0  0  0  0
   55.4322   30.3728   43.1197 H   0  0  0  0  0  0  0  0  0  0  0  0
   58.3780   30.7214   43.6647 H   0  0  0  0  0  0  0  0  0  0  0  0
   57.3770   31.4484   42.3586 H   0  0  0  0  0  0  0  0  0  0  0  0
   57.5381   33.1914   43.9688 H   0  0  0  0  0  0  0  0  0  0  0  0
   55.9514   32.4673   44.3200 H   0  0  0  0  0  0  0  0  0  0  0  0
   57.1460   31.0550   46.0210 H   0  0  0  0  0  0  0  0  0  0  0  0
   56.7254   33.8409   46.0754 H   0  0  0  0  0  0  0  0  0  0  0  0
   56.9181   32.7767   47.4830 H   0  0  0  0  0  0  0  0  0  0  0  0
   59.3145   34.6438   44.8542 H   0  0  0  0  0  0  0  0  0  0  0  0
   61.1960   34.0435   49.7976 H   0  0  0  0  0  0  0  0  0  0  0  0
   62.3272   33.1792   48.7022 H   0  0  0  0  0  0  0  0  0  0  0  0
   62.2729   34.9747   48.7022 H   0  0  0  0  0  0  0  0  0  0  0  0
   59.2894   33.2018   50.0344 H   0  0  0  0  0  0  0  0  0  0  0  0
   57.8423   32.6610   49.1177 H   0  0  0  0  0  0  0  0  0  0  0  0
   59.3322   31.6576   49.1177 H   0  0  0  0  0  0  0  0  0  0  0  0
  1  2  1  0
  2  3  1  0
  3  4  1  0
  4  5  1  0
  3  6  1  0
  6  7  1  0
  7  8  1  0
  8  9  1  0
  9 10  1  0
 10 11  1  0
 11 12  1  0
 12 13  1  0
 13 14  1  0
 14 15  1  0
 15 16  2  0
 16 17  1  0
 17 18  1  0
 17 19  1  0
 19 20  1  0
 19 14  2  0
  1 21  1  0
  1 22  1  0
  1 23  1  0
  2 24  1  0
  2 25  1  0
  4 26  1  0
  4 27  1  0
  5 28  1  0
  5 29  1  0
  5 30  1  0
  6 31  1  0
  6 32  1  0
  7 33  1  0
  7 34  1  0
  9 35  1  0
  9 36  1  0
 10 37  1  0
 10 38  1  0
 11 39  1  0
 11 40  1  0
 12 41  1  0
 13 42  1  0
 13 43  1  0
 15 44  1  0
 18 45  1  0
 18 46  1  0
 18 47  1  0
 20 48  1  0
 20 49  1  0
 20 50  1  0
M  END
>  <smiles>  (4) 
CCN(CC)CCOCCCNCc1cnn(C)c1C

>  <score_type>  (4) 
oracle

>  <origin>  (4) 
adg

>  <m_score__min__energy>  (4) 
-5.4800000000000004

>  <m_primary>  (4) 
energy

$$$$
4:0
     RDKit          2D

142144  0  0  0  0  0  0  0  0999 V2000
  -28.3721   43.9819    0.0000 C   0  0  0  0  0  0  0  0  0  0  0  0
  -26.9049   43.6700    0.0000 C   0  0  0  0  0  0  0  0  0  0  0  0
  -25.4376   43.3581    0.0000 N   0  0  0  0  0  0  0  0  0  0  0  0
  -24.9741   41.9315    0.0000 C   0  0  0  0  0  0  0  0  0  0  0  0
  -24.4339   44.4729    0.0000 C   0  0  0  0  0  0  0  0  0  0  0  0
  -23.4302   45.5876    0.0000 C   0  0  0  0  0  0  0  0  0  0  0  0
  -22.4265   46.7023    0.0000 O   0  0  0  0  0  0  0  0  0  0  0  0
  -20.9593   46.3904    0.0000 C   0  0  0  0  0  0  0  0  0  0  0  0
  -19.4921   46.0785    0.0000 C   0  0  0  0  0  0  0  0  0  0  0  0
  -18.0249   45.7667    0.0000 N   0  0  0  0  0  0  0  0  0  0  0  0
  -16.5577   45.4548    0.0000 C   0  0  0  0  0  0  0  0  0  0  0  0
  -17.7130   47.2339    0.0000 C   0  0  0  0  0  0  0  0  0  0  0  0
  -18.3368   44.2995    0.0000 C   0  0  0  0  0  0  0  0  0  0  0  0
  -18.6486   42.8322    0.0000 C   0  0  0  0  0  0  0  0  0  0  0  0
  -18.9605   41.3650    0.0000 O   0  0  0  0  0  0  0  0  0  0  0  0
  -17.8458   40.3613    0.0000 C   0  0  0  0  0  0  0  0  0  0  0  0
  -16.7311   39.3576    0.0000 C   0  0  0  0  0  0  0  0  0  0  0  0
  -15.6163   38.3539    0.0000 O   0  0  0  0  0  0  0  0  0  0  0  0
  -15.9282   36.8867    0.0000 C   0  0  0  0  0  0  0  0  0  0  0  0
  -16.2401   35.4195    0.0000 C   0  0  0  0  0  0  0  0  0  0  0  0
  -16.5519   33.9523    0.0000 O   0  0  0  0  0  0  0  0  0  0  0  0
  -15.4372   32.9486    0.0000 C   0  0  0  0  0  0  0  0  0  0  0  0
  -14.3225   31.9449    0.0000 C   0  0  0  0  0  0  0  0  0  0  0  0
  -13.2078   30.9412    0.0000 O   0  0  0  0  0  0  0  0  0  0  0  0
  -13.5197   29.4740    0.0000 C   0  0  0  0  0  0  0  0  0  0  0  0
  -13.8315   28.0067    0.0000 C   0  0  0  0  0  0  0  0  0  0  0  0
  -14.1434   26.5395    0.0000 O   0  0  0  0  0  0  0  0  0  0  0  0
  -13.0287   25.5358    0.0000 C   0  0  0  0  0  0  0  0  0  0  0  0
  -11.9140   24.5321    0.0000 C   0  0  0  0  0  0  0  0  0  0  0  0
  -10.7992   23.5284    0.0000 O   0  0  0  0  0  0  0  0  0  0  0  0
  -11.1111   22.0612    0.0000 C   0  0  0  0  0  0  0  0  0  0  0  0
  -11.4230   20.5940    0.0000 C   0  0  0  0  0  0  0  0  0  0  0  0
  -11.7348   19.1268    0.0000 O   0  0  0  0  0  0  0  0  0  0  0  0
  -10.6201   18.1231    0.0000 C   0  0  0  0  0  0  0  0  0  0  0  0
   -9.5054   17.1194    0.0000 C   0  0  0  0  0  0  0  0  0  0  0  0
   -8.3907   16.1157    0.0000 O   0  0  0  0  0  0  0  0  0  0  0  0
   -8.7026   14.6485    0.0000 C   0  0  0  0  0  0  0  0  0  0  0  0
   -9.0144   13.1812    0.0000 C   0  0  0  0  0  0  0  0  0  0  0  0
   -9.3263   11.7140    0.0000 O   0  0  0  0  0  0  0  0  0  0  0  0
   -8.2116   10.7103    0.0000 C   0  0  0  0  0  0  0  0  0  0  0  0
   -7.0969    9.7066    0.0000 C   0  0  0  0  0  0  0  0  0  0  0  0
   -5.9821    8.7029    0.0000 O   0  0  0  0  0  0  0  0  0  0  0  0
   -6.2940    7.2357    0.0000 C   0  0  0  0  0  0  0  0  0  0  0  0
   -6.6059    5.7685    0.0000 C   0  0  0  0  0  0  0  0  0  0  0  0
   -6.9177    4.3013    0.0000 O   0  0  0  0  0  0  0  0  0  0  0  0
   -5.8030    3.2976    0.0000 C   0  0  0  0  0  0  0  0  0  0  0  0
   -4.6883    2.2939    0.0000 C   0  0  0  0  0  0  0  0  0  0  0  0
   -3.5736    1.2902    0.0000 N   0  0  0  0  0  0  0  0  0  0  0  0
   -2.1470    1.7537    0.0000 C   0  0  0  0  0  0  0  0  0  0  0  0
   -1.8351    3.2209    0.0000 C   0  0  0  0  0  0  0  0  0  0  0  0
   -2.9499    4.2246    0.0000 C   0  0  0  0  0  0  0  0  0  0  0  0
   -2.6380    5.6918    0.0000 C   0  0  0  0  0  0  0  0  0  0  0  0
   -1.2114    6.1554    0.0000 C   0  0  0  0  0  0  0  0  0  0  0  0
   -0.0967    5.1517    0.0000 C   0  0  0  0  0  0  0  0  0  0  0  0
   -0.4086    3.6844    0.0000 C   0  0  0  0  0  0  0  0  0  0  0  0
    0.7062    2.6807    0.0000 N   0  0  0  0  0  0  0  0  0  0  0  0
    2.1328    3.1443    0.0000 C   0  0  0  0  0  0  0  0  0  0  0  0
    0.3943    1.2135    0.0000 C   0  0  0  0  0  0  0  0  0  0  0  0
    1.2760    0.0000    0.0000 C   0  0  0  0  0  0  0  0  0  0  0  0
    0.3943   -1.2135    0.0000 C   0  0  0  0  0  0  0  0  0  0  0  0
   -1.0323   -0.7500    0.0000 S   0  0  0  0  0  0  0  0  0  0  0  0
   -1.0323    0.7500    0.0000 C   0  0  0  0  0  0  0  0  0  0  0  0
  -29.8393   44.2937    0.0000 H   0  0  0  0  0  0  0  0  0  0  0  0
  -28.0602   45.4491    0.0000 H   0  0  0  0  0  0  0  0  0  0  0  0
  -28.6839   42.5146    0.0000 H   0  0  0  0  0  0  0  0  0  0  0  0
  -26.5930   45.1372    0.0000 H   0  0  0  0  0  0  0  0  0  0  0  0
  -27.2167   42.2028    0.0000 H   0  0  0  0  0  0  0  0  0  0  0  0
  -24.5106   40.5050    0.0000 H   0  0  0  0  0  0  0  0  0  0  0  0
  -26.4007   41.4680    0.0000 H   0  0  0  0  0  0  0  0  0  0  0  0
  -23.5475   42.3951    0.0000 H   0  0  0  0  0  0  0  0  0  0  0  0
  -23.3192   43.4692    0.0000 H   0  0  0  0  0  0  0  0  0  0  0  0
  -25.5487   45.4765    0.0000 H   0  0  0  0  0  0  0  0  0  0  0  0
  -22.3155   44.5839    0.0000 H   0  0  0  0  0  0  0  0  0  0  0  0
  -24.5450   46.5913    0.0000 H   0  0  0  0  0  0  0  0  0  0  0  0
  -20.6475   47.8576    0.0000 H   0  0  0  0  0  0  0  0  0  0  0  0
  -21.2712   44.9232    0.0000 H   0  0  0  0  0  0  0  0  0  0  0  0
  -19.9805   44.6603    0.0000 H   0  0  0  0  0  0  0  0  0  0  0  0
  -19.4149   46.9609    0.0000 H   0  0  0  0  0  0  0  0  0  0  0  0
  -15.0904   45.1429    0.0000 H   0  0  0  0  0  0  0  0  0  0  0  0
  -16.2693   46.2923    0.0000 H   0  0  0  0  0  0  0  0  0  0  0  0
  -16.6348   44.5724    0.0000 H   0  0  0  0  0  0  0  0  0  0  0  0
  -17.4011   48.7011    0.0000 H   0  0  0  0  0  0  0  0  0  0  0  0
  -16.8306   47.1567    0.0000 H   0  0  0  0  0  0  0  0  0  0  0  0
  -18.5505   47.5223    0.0000 H   0  0  0  0  0  0  0  0  0  0  0  0
  -17.4993   44.0111    0.0000 H   0  0  0  0  0  0  0  0  0  0  0  0
  -19.8310   44.4302    0.0000 H   0  0  0  0  0  0  0  0  0  0  0  0
  -17.1814   42.5204    0.0000 H   0  0  0  0  0  0  0  0  0  0  0  0
  -20.1158   43.1441    0.0000 H   0  0  0  0  0  0  0  0  0  0  0  0
  -18.8495   39.2466    0.0000 H   0  0  0  0  0  0  0  0  0  0  0  0
  -16.8421   41.4760    0.0000 H   0  0  0  0  0  0  0  0  0  0  0  0
  -17.7347   38.2429    0.0000 H   0  0  0  0  0  0  0  0  0  0  0  0
  -15.7274   40.4723    0.0000 H   0  0  0  0  0  0  0  0  0  0  0  0
  -14.4610   36.5748    0.0000 H   0  0  0  0  0  0  0  0  0  0  0  0
  -17.3954   37.1986    0.0000 H   0  0  0  0  0  0  0  0  0  0  0  0
  -14.7728   35.1076    0.0000 H   0  0  0  0  0  0  0  0  0  0  0  0
  -17.7073   35.7314    0.0000 H   0  0  0  0  0  0  0  0  0  0  0  0
  -16.4409   31.8339    0.0000 H   0  0  0  0  0  0  0  0  0  0  0  0
  -14.4335   34.0633    0.0000 H   0  0  0  0  0  0  0  0  0  0  0  0
  -15.3262   30.8302    0.0000 H   0  0  0  0  0  0  0  0  0  0  0  0
  -13.3188   33.0596    0.0000 H   0  0  0  0  0  0  0  0  0  0  0  0
  -12.0524   29.1621    0.0000 H   0  0  0  0  0  0  0  0  0  0  0  0
  -14.9869   29.7858    0.0000 H   0  0  0  0  0  0  0  0  0  0  0  0
  -12.3643   27.6949    0.0000 H   0  0  0  0  0  0  0  0  0  0  0  0
  -15.2987   28.3186    0.0000 H   0  0  0  0  0  0  0  0  0  0  0  0
  -14.0324   24.4211    0.0000 H   0  0  0  0  0  0  0  0  0  0  0  0
  -12.0250   26.6505    0.0000 H   0  0  0  0  0  0  0  0  0  0  0  0
  -12.9176   23.4174    0.0000 H   0  0  0  0  0  0  0  0  0  0  0  0
  -10.9103   25.6468    0.0000 H   0  0  0  0  0  0  0  0  0  0  0  0
   -9.6439   21.7493    0.0000 H   0  0  0  0  0  0  0  0  0  0  0  0
  -12.5783   22.3731    0.0000 H   0  0  0  0  0  0  0  0  0  0  0  0
   -9.9557   20.2821    0.0000 H   0  0  0  0  0  0  0  0  0  0  0  0
  -12.8902   20.9059    0.0000 H   0  0  0  0  0  0  0  0  0  0  0  0
  -11.6238   17.0083    0.0000 H   0  0  0  0  0  0  0  0  0  0  0  0
   -9.6164   19.2378    0.0000 H   0  0  0  0  0  0  0  0  0  0  0  0
  -10.5091   16.0047    0.0000 H   0  0  0  0  0  0  0  0  0  0  0  0
   -8.5017   18.2341    0.0000 H   0  0  0  0  0  0  0  0  0  0  0  0
   -7.2353   14.3366    0.0000 H   0  0  0  0  0  0  0  0  0  0  0  0
  -10.1698   14.9603    0.0000 H   0  0  0  0  0  0  0  0  0  0  0  0
   -7.5472   12.8694    0.0000 H   0  0  0  0  0  0  0  0  0  0  0  0
  -10.4816   13.4931    0.0000 H   0  0  0  0  0  0  0  0  0  0  0  0
   -9.2153    9.5956    0.0000 H   0  0  0  0  0  0  0  0  0  0  0  0
   -7.2079   11.8250    0.0000 H   0  0  0  0  0  0  0  0  0  0  0  0
   -8.1006    8.5919    0.0000 H   0  0  0  0  0  0  0  0  0  0  0  0
   -6.0932   10.8213    0.0000 H   0  0  0  0  0  0  0  0  0  0  0  0
   -4.8268    6.9238    0.0000 H   0  0  0  0  0  0  0  0  0  0  0  0
   -7.7612    7.5476    0.0000 H   0  0  0  0  0  0  0  0  0  0  0  0
   -5.1387    5.4566    0.0000 H   0  0  0  0  0  0  0  0  0  0  0  0
   -8.0731    6.0803    0.0000 H   0  0  0  0  0  0  0  0  0  0  0  0
   -6.8067    2.1828    0.0000 H   0  0  0  0  0  0  0  0  0  0  0  0
   -4.9427    4.5263    0.0000 H   0  0  0  0  0  0  0  0  0  0  0  0
   -3.8280    3.5226    0.0000 H   0  0  0  0  0  0  0  0  0  0  0  0
   -5.6920    1.1791    0.0000 H   0  0  0  0  0  0  0  0  0  0  0  0
   -3.8855   -0.1771    0.0000 H   0  0  0  0  0  0  0  0  0  0  0  0
   -4.4462    4.1201    0.0000 H   0  0  0  0  0  0  0  0  0  0  0  0
   -3.7527    6.6955    0.0000 H   0  0  0  0  0  0  0  0  0  0  0  0
   -0.8995    7.6226    0.0000 H   0  0  0  0  0  0  0  0  0  0  0  0
    1.3299    5.6152    0.0000 H   0  0  0  0  0  0  0  0  0  0  0  0
    3.5593    3.6078    0.0000 H   0  0  0  0  0  0  0  0  0  0  0  0
    2.5963    1.7177    0.0000 H   0  0  0  0  0  0  0  0  0  0  0  0
    1.6692    4.5709    0.0000 H   0  0  0  0  0  0  0  0  0  0  0  0
    2.7760    0.0000    0.0000 H   0  0  0  0  0  0  0  0  0  0  0  0
    0.8578   -2.6401    0.0000 H   0  0  0  0  0  0  0  0  0  0  0  0
  1  2  1  0
  2  3  1  0
  3  4  1  0
  3  5  1  0
  5  6  1  0
  6  7  1  0
  7  8  1  0
  8  9  1  0
  9 10  1  0
 10 11  1  0
 10 12  1  0
 10 13  1  0
 13 14  1  0
 14 15  1  0
 15 16  1  0
 16 17  1  0
 17 18  1  0
 18 19  1  0
 19 20  1  0
 20 21  1  0
 21 22  1  0
 22 23  1  0
 23 24  1  0
 24 25  1  0
 25 26  1  0
 26 27  1  0
 27 28  1  0
 28 29  1  0
 29 30  1  0
 30 31  1  0
 31 32  1  0
 32 33  1  0
 33 34  1  0
 34 35  1  0
 35 36  1  0
 36 37  1  0
 37 38  1  0
 38 39  1  0
 39 40  1  0
 40 41  1  0
 41 42  1  0
 42 43  1  0
 43 44  1  0
 44 45  1  0
 45 46  1  0
 46 47  1  0
 47 48  1  0
 48 49  1  0
 49 50  2  0
 50 51  1  0
 51 52  2  0
 52 53  1  0
 53 54  2  0
 54 55  1  0
 55 56  2  0
 56 57  1  0
 56 58  1  0
 58 59  1  0
 59 60  2  0
 60 61  1  0
 61 62  1  0
 62 49  1  0
 55 50  1  0
 62 58  2  0
  1 63  1  0
  1 64  1  0
  1 65  1  0
  2 66  1  0
  2 67  1  0
  4 68  1  0
  4 69  1  0
  4 70  1  0
  5 71  1  0
  5 72  1  0
  6 73  1  0
  6 74  1  0
  8 75  1  0
  8 76  1  0
  9 77  1  0
  9 78  1  0
 11 79  1  0
 11 80  1  0
 11 81  1  0
 12 82  1  0
 12 83  1  0
 12 84  1  0
 13 85  1  0
 13 86  1  0
 14 87  1  0
 14 88  1  0
 16 89  1  0
 16 90  1  0
 17 91  1  0
 17 92  1  0
 19 93  1  0
 19 94  1  0
 20 95  1  0
 20 96  1  0
 22 97  1  0
 22 98  1  0
 23 99  1  0
 23100  1  0
 25101  1  0
 25102  1  0
 26103  1  0
 26104  1  0
 28105  1  0
 28106  1  0
 29107  1  0
 29108  1  0
 31109  1  0
 31110  1  0
 32111  1  0
 32112  1  0
 34113  1  0
 34114  1  0
 35115  1  0
 35116  1  0
 37117  1  0
 37118  1  0
 38119  1  0
 38120  1  0
 40121  1  0
 40122  1  0
 41123  1  0
 41124  1  0
 43125  1  0
 43126  1  0
 44127  1  0
 44128  1  0
 46129  1  0
 46130  1  0
 47131  1  0
 47132  1  0
 48133  1  0
 51134  1  0
 52135  1  0
 53136  1  0
 54137  1  0
 57138  1  0
 57139  1  0
 57140  1  0
 59141  1  0
 60142  1  0
M  CHG  2  10   1  56   1
M  END
>  <smiles>  (5) 
CCN(C)CCOCC[N+](C)(C)CCOCCOCCOCCOCCOCCOCCOCCOCCOCCOCCOCCNc1c2ccccc2[n+](C)c2ccsc12

>  <m_score__min__energy>  (5) 
nan

>  <m_primary>  (5) 
energy

$$$$
5:0
     RDKit          3D

 32 34  0  0  0  0  0  0  0  0999 V2000
   56.2640   29.3220   42.2440 O   0  0  0  0  0  0  0  0  0  0  0  0
   56.8130   30.1010   43.0660 C   0  0  0  0  0  0  0  0  0  0  0  0
   57.2920   31.3230   42.6360 C   0  0  0  0  0  0  0  0  0  0  0  0
   57.8910   32.1700   43.5400 C   0  0  0  0  0  0  0  0  0  0  0  0
   58.0430   31.8820   44.8400 N   0  0  0  0  0  0  0  0  0  0  0  0
   58.6760   32.8250   45.6960 C   0  0  0  0  0  0  0  0  0  0  0  0
   59.8940   32.6010   46.2990 C   0  0  0  0  0  0  0  0  0  0  0  0
   60.4700   33.5520   47.1240 C   0  0  0  0  0  0  0  0  0  0  0  0
   61.7560   33.3490   47.7780 C   0  0  0  0  0  0  0  0  0  0  0  0
   61.7890   33.2320   49.1600 C   0  0  0  0  0  0  0  0  0  0  0  0
   62.9640   33.0390   49.8560 C   0  0  0  0  0  0  0  0  0  0  0  0
   64.1590   32.9570   49.1720 C   0  0  0  0  0  0  0  0  0  0  0  0
   65.6500   32.7110   50.0710 Cl  0  0  0  0  0  0  0  0  0  0  0  0
   64.1410   33.0720   47.7970 C   0  0  0  0  0  0  0  0  0  0  0  0
   62.9510   33.2680   47.0960 C   0  0  0  0  0  0  0  0  0  0  0  0
   59.8190   34.7510   47.3550 C   0  0  0  0  0  0  0  0  0  0  0  0
   58.6010   34.9550   46.7420 C   0  0  0  0  0  0  0  0  0  0  0  0
   58.0800   34.0030   45.9480 N   0  0  0  0  0  0  0  0  0  0  0  0
   57.5820   30.7000   45.2690 C   0  0  0  0  0  0  0  0  0  0  0  0
   56.9670   29.7980   44.4080 C   0  0  0  0  0  0  0  0  0  0  0  0
   56.4830   28.5700   44.8350 O   0  0  0  0  0  0  0  0  0  0  0  0
   57.1955   31.6165   41.5803 H   0  0  0  0  0  0  0  0  0  0  0  0
   58.2661   33.1376   43.1752 H   0  0  0  0  0  0  0  0  0  0  0  0
   60.4181   31.6502   46.1220 H   0  0  0  0  0  0  0  0  0  0  0  0
   60.8446   33.2954   49.7205 H   0  0  0  0  0  0  0  0  0  0  0  0
   62.9482   32.9508   50.9523 H   0  0  0  0  0  0  0  0  0  0  0  0
   65.0876   33.0076   47.2404 H   0  0  0  0  0  0  0  0  0  0  0  0
   62.9663   33.3578   45.9998 H   0  0  0  0  0  0  0  0  0  0  0  0
   60.2600   35.5184   48.0081 H   0  0  0  0  0  0  0  0  0  0  0  0
   58.0554   35.8966   46.9025 H   0  0  0  0  0  0  0  0  0  0  0  0
   57.6929   30.4357   46.3310 H   0  0  0  0  0  0  0  0  0  0  0  0
   56.2780   27.8660   44.1500 H   0  0  0  0  0  0  0  0  0  0  0  0
  1  2  2  0
  2  3  1  0
  3  4  2  0
  4  5  1  0
  5  6  1  0
  6  7  2  0
  7  8  1  0
  8  9  1  0
  9 10  2  0
 10 11  1  0
 11 12  2  0
 12 13  1  0
 12 14  1  0
 14 15  2  0
  8 16  2  0
 16 17  1  0
 17 18  2  0
  5 19  1  0
 19 20  2  0
 20 21  1  0
 20  2  1  0
 18  6  1  0
 15  9  1  0
  3 22  1  0
  4 23  1  0
  7 24  1  0
 10 25  1  0
 11 26  1  0
 14 27  1  0
 15 28  1  0
 16 29  1  0
 17 30  1  0
 19 31  1  0
 21 32  1  0
M  END
>  <smiles>  (6) 
O=c1ccn(-c2cc(-c3ccc(Cl)cc3)ccn2)cc1O

>  <score_type>  (6) 
oracle

>  <origin>  (6) 
adg

>  <m_score__min__energy>  (6) 
-7.6799999999999997

>  <m_primary>  (6) 
energy

$$$$
6:0
     RDKit          3D

 25 26  0  0  1  0  0  0  0  0999 V2000
   58.7000   34.5440   45.2600 C   0  0  0  0  0  0  0  0  0  0  0  0
   57.6490   33.4680   45.1980 C   0  0  0  0  0  0  0  0  0  0  0  0
   57.8600   32.4400   43.7240 S   0  0  0  0  0  0  0  0  0  0  0  0
   57.2550   30.7690   44.3400 C   0  0  0  0  0  0  0  0  0  0  0  0
   56.2230   30.2130   44.6010 N   0  0  0  0  0  0  0  0  0  0  0  0
   56.1020   29.0000   45.0270 N   0  0  0  0  0  0  0  0  0  0  0  0
   57.2090   28.3020   45.1960 C   0  0  0  0  0  0  0  0  0  0  0  0
   57.4520   27.1080   45.5920 N   0  0  0  0  0  0  0  0  0  0  0  0
   56.3720   26.1920   45.7070 C   0  0  0  0  0  0  0  0  0  0  0  0
   55.2360   26.6150   46.0420 O   0  0  0  0  0  0  0  0  0  0  0  0
   56.5590   24.7310   45.4350 C   0  0  0  0  0  0  0  0  0  0  0  0
   56.9480   24.4730   43.9950 C   0  0  0  0  0  0  0  0  0  0  0  0
   57.8790   24.1620   45.1500 C   0  0  0  0  0  0  0  0  0  0  0  0
   58.5180   29.4450   44.7140 S   0  0  0  0  0  0  0  0  0  0  0  0
   58.9261   34.7755   46.3113 H   0  0  0  0  0  0  0  0  0  0  0  0
   59.6134   34.1938   44.7570 H   0  0  0  0  0  0  0  0  0  0  0  0
   58.3284   35.4489   44.7570 H   0  0  0  0  0  0  0  0  0  0  0  0
   57.7299   32.8341   46.0933 H   0  0  0  0  0  0  0  0  0  0  0  0
   56.6596   33.9466   45.1529 H   0  0  0  0  0  0  0  0  0  0  0  0
   55.1400   28.5740   45.2390 H   0  0  0  0  0  0  0  0  0  0  0  0
   55.7877   24.4199   46.1549 H   0  0  0  0  0  0  0  0  0  0  0  0
   56.4736   23.6581   43.4285 H   0  0  0  0  0  0  0  0  0  0  0  0
   57.0050   25.0699   43.0728 H   0  0  0  0  0  0  0  0  0  0  0  0
   58.0926   23.1158   45.4143 H   0  0  0  0  0  0  0  0  0  0  0  0
   58.9116   24.4416   45.4059 H   0  0  0  0  0  0  0  0  0  0  0  0
  1  2  1  0
  2  3  1  0
  3  4  1  0
  4  5  2  0
  5  6  1  0
  6  7  1  0
  7  8  2  0
  8  9  1  0
  9 10  2  0
  9 11  1  0
 11 12  1  0
 12 13  1  0
  7 14  1  0
 14  4  1  0
 13 11  1  0
  1 15  1  0
  1 16  1  0
  1 17  1  0
  2 18  1  0
  2 19  1  0
  6 20  1  0
 11 21  1  0
 12 22  1  0
 12 23  1  0
 13 24  1  0
 13 25  1  0
M  END
>  <smiles>  (7) 
CCSc1n[nH]c(=NC(=O)C2CC2)s1

>  <score_type>  (7) 
oracle

>  <origin>  (7) 
adg

>  <m_score__min__energy>  (7) 
-6.6500000000000004

>  <m_primary>  (7) 
energy

$$$$
7:0
     RDKit          3D

 36 38  0  0  0  0  0  0  0  0999 V2000
   60.8040   33.4850   50.7980 C   0  0  0  0  0  0  0  0  0  0  0  0
   61.9890   33.9660   50.0150 C   0  0  0  0  0  0  0  0  0  0  0  0
   61.6160   34.4970   48.7020 N   0  0  0  0  0  0  0  0  0  0  0  0
   62.0920   33.4890   47.7620 C   0  0  0  0  0  0  0  0  0  0  0  0
   60.1700   34.5900   48.6840 C   0  0  0  0  0  0  0  0  0  0  0  0
   59.6070   34.2130   47.3620 C   0  0  0  0  0  0  0  0  0  0  0  0
   59.6800   35.0750   46.2640 C   0  0  0  0  0  0  0  0  0  0  0  0
   59.1490   34.6890   45.0640 C   0  0  0  0  0  0  0  0  0  0  0  0
   58.5300   33.4770   44.8580 C   0  0  0  0  0  0  0  0  0  0  0  0
   58.4590   32.6210   45.9520 C   0  0  0  0  0  0  0  0  0  0  0  0
   58.9920   33.0020   47.1700 C   0  0  0  0  0  0  0  0  0  0  0  0
   57.7750   31.4000   45.5440 C   0  0  0  0  0  0  0  0  0  0  0  0
   57.3700   30.2120   46.0240 N   0  0  0  0  0  0  0  0  0  0  0  0
   56.7860   29.5930   45.0110 N   0  0  0  0  0  0  0  0  0  0  0  0
   56.8280   30.3770   43.9260 C   0  0  0  0  0  0  0  0  0  0  0  0
   56.2530   29.9680   42.6130 C   0  0  0  0  0  0  0  0  0  0  0  0
   57.4540   31.5310   44.2450 N   0  0  0  0  0  0  0  0  0  0  0  0
   57.8780   32.7920   43.7150 C   0  0  0  0  0  0  0  0  0  0  0  0
   61.0160   33.5711   51.8739 H   0  0  0  0  0  0  0  0  0  0  0  0
   59.9256   34.0978   50.5472 H   0  0  0  0  0  0  0  0  0  0  0  0
   60.6012   32.4334   50.5472 H   0  0  0  0  0  0  0  0  0  0  0  0
   62.4909   34.7602   50.5870 H   0  0  0  0  0  0  0  0  0  0  0  0
   62.6529   33.1045   49.8507 H   0  0  0  0  0  0  0  0  0  0  0  0
   62.4972   32.6310   48.3185 H   0  0  0  0  0  0  0  0  0  0  0  0
   61.2568   33.1543   47.1292 H   0  0  0  0  0  0  0  0  0  0  0  0
   62.8811   33.9213   47.1292 H   0  0  0  0  0  0  0  0  0  0  0  0
   59.7607   33.9153   49.4503 H   0  0  0  0  0  0  0  0  0  0  0  0
   59.8931   35.6351   48.8869 H   0  0  0  0  0  0  0  0  0  0  0  0
   60.1620   36.0587   46.3645 H   0  0  0  0  0  0  0  0  0  0  0  0
   59.2207   35.3862   44.2162 H   0  0  0  0  0  0  0  0  0  0  0  0
   58.9199   32.3060   48.0188 H   0  0  0  0  0  0  0  0  0  0  0  0
   55.3671   29.3379   42.7810 H   0  0  0  0  0  0  0  0  0  0  0  0
   55.9632   30.8640   42.0445 H   0  0  0  0  0  0  0  0  0  0  0  0
   57.0044   29.4003   42.0445 H   0  0  0  0  0  0  0  0  0  0  0  0
   58.5917   32.6468   42.8907 H   0  0  0  0  0  0  0  0  0  0  0  0
   57.0410   33.3739   43.3017 H   0  0  0  0  0  0  0  0  0  0  0  0
  1  2  1  0
  2  3  1  0
  3  4  1  0
  3  5  1  0
  5  6  1  0
  6  7  2  0
  7  8  1  0
  8  9  2  0
  9 10  1  0
 10 11  2  0
 10 12  1  0
 12 13  2  0
 13 14  1  0
 14 15  2  0
 15 16  1  0
 15 17  1  0
 17 18  1  0
 11  6  1  0
 17 12  1  0
 18  9  1  0
  1 19  1  0
  1 20  1  0
  1 21  1  0
  2 22  1  0
  2 23  1  0
  4 24  1  0
  4 25  1  0
  4 26  1  0
  5 27  1  0
  5 28  1  0
  7 29  1  0
  8 30  1  0
 11 31  1  0
 16 32  1  0
 16 33  1  0
 16 34  1  0
 18 35  1  0
 18 36  1  0
M  END
>  <smiles>  (8) 
CCN(C)Cc1ccc2c(c1)-c1nnc(C)n1C2

>  <score_type>  (8) 
oracle

>  <origin>  (8) 
adg

>  <m_score__min__energy>  (8) 
-7.1399999999999997

>  <m_primary>  (8) 
energy

$$$$
8:0
     RDKit          3D

 43 45  0  0  0  0  0  0  0  0999 V2000
   56.4190   24.5670   44.8700 C   0  0  0  0  0  0  0  0  0  0  0  0
   55.5620   25.3640   45.8270 C   0  0  0  0  0  0  0  0  0  0  0  0
   55.9590   26.7590   45.8790 N   0  0  0  0  0  0  0  0  0  0  0  0
   57.2530   26.9680   46.4550 C   0  0  0  0  0  0  0  0  0  0  0  0
   57.9100   28.2410   45.9790 C   0  0  0  0  0  0  0  0  0  0  0  0
   56.9650   29.1840   45.4320 N   0  0  0  0  0  0  0  0  0  0  0  0
   57.3130   30.3580   44.7320 C   0  0  0  0  0  0  0  0  0  0  0  0
   57.0470   30.4580   43.3870 C   0  0  0  0  0  0  0  0  0  0  0  0
   56.3920   29.3470   42.6240 C   0  0  0  0  0  0  0  0  0  0  0  0
   57.3820   31.6070   42.6820 C   0  0  0  0  0  0  0  0  0  0  0  0
   57.9960   32.6920   43.3160 C   0  0  0  0  0  0  0  0  0  0  0  0
   58.2550   32.5710   44.6730 C   0  0  0  0  0  0  0  0  0  0  0  0
   58.8590   33.6420   45.2920 C   0  0  0  0  0  0  0  0  0  0  0  0
   59.1220   33.5260   46.6590 C   0  0  0  0  0  0  0  0  0  0  0  0
   59.7300   34.6210   47.2520 C   0  0  0  0  0  0  0  0  0  0  0  0
   60.0240   34.5780   48.6160 C   0  0  0  0  0  0  0  0  0  0  0  0
   59.6860   33.4310   49.3050 C   0  0  0  0  0  0  0  0  0  0  0  0
   59.0840   32.3720   48.6700 C   0  0  0  0  0  0  0  0  0  0  0  0
   58.7990   32.4130   47.3430 N   0  0  0  0  0  0  0  0  0  0  0  0
   58.2010   31.3440   46.7480 C   0  0  0  0  0  0  0  0  0  0  0  0
   57.9200   31.4170   45.3820 C   0  0  0  0  0  0  0  0  0  0  0  0
   57.1076   23.9266   45.4407 H   0  0  0  0  0  0  0  0  0  0  0  0
   55.7748   23.9395   44.2365 H   0  0  0  0  0  0  0  0  0  0  0  0
   56.9981   25.2549   44.2365 H   0  0  0  0  0  0  0  0  0  0  0  0
   54.5138   25.3050   45.4986 H   0  0  0  0  0  0  0  0  0  0  0  0
   55.6883   24.9369   46.8328 H   0  0  0  0  0  0  0  0  0  0  0  0
   55.8830   27.1240   44.8950 H   0  0  0  0  0  0  0  0  0  0  0  0
   57.1466   27.0159   47.5488 H   0  0  0  0  0  0  0  0  0  0  0  0
   57.8927   26.1297   46.1419 H   0  0  0  0  0  0  0  0  0  0  0  0
   58.4240   28.7114   46.8302 H   0  0  0  0  0  0  0  0  0  0  0  0
   58.6135   27.9723   45.1772 H   0  0  0  0  0  0  0  0  0  0  0  0
   55.9390   28.9800   45.5660 H   0  0  0  0  0  0  0  0  0  0  0  0
   55.9635   28.6203   43.3299 H   0  0  0  0  0  0  0  0  0  0  0  0
   55.5921   29.7587   41.9910 H   0  0  0  0  0  0  0  0  0  0  0  0
   57.1395   28.8465   41.9910 H   0  0  0  0  0  0  0  0  0  0  0  0
   57.1605   31.6646   41.6061 H   0  0  0  0  0  0  0  0  0  0  0  0
   58.2625   33.6037   42.7612 H   0  0  0  0  0  0  0  0  0  0  0  0
   59.1237   34.5517   44.7331 H   0  0  0  0  0  0  0  0  0  0  0  0
   59.9776   35.5118   46.6561 H   0  0  0  0  0  0  0  0  0  0  0  0
   60.5070   35.4266   49.1226 H   0  0  0  0  0  0  0  0  0  0  0  0
   59.9024   33.3636   50.3814 H   0  0  0  0  0  0  0  0  0  0  0  0
   58.8275   31.4722   49.2485 H   0  0  0  0  0  0  0  0  0  0  0  0
   57.9457   30.4454   47.3288 H   0  0  0  0  0  0  0  0  0  0  0  0
  1  2  1  0
  2  3  1  0
  3  4  1  0
  4  5  1  0
  5  6  1  0
  6  7  1  0
  7  8  2  0
  8  9  1  0
  8 10  1  0
 10 11  2  0
 11 12  1  0
 12 13  2  0
 13 14  1  0
 14 15  2  0
 15 16  1  0
 16 17  2  0
 17 18  1  0
 18 19  2  0
 19 20  1  0
 20 21  2  0
 21  7  1  0
 21 12  1  0
 19 14  1  0
  1 22  1  0
  1 23  1  0
  1 24  1  0
  2 25  1  0
  2 26  1  0
  3 27  1  0
  4 28  1  0
  4 29  1  0
  5 30  1  0
  5 31  1  0
  6 32  1  0
  9 33  1  0
  9 34  1  0
  9 35  1  0
 10 36  1  0
 11 37  1  0
 13 38  1  0
 15 39  1  0
 16 40  1  0
 17 41  1  0
 18 42  1  0
 20 43  1  0
M  CHG  1  19   1
M  END
>  <smiles>  (9) 
CCNCCNc1c(C)ccc2cc3cccc[n+]3cc12

>  <score_type>  (9) 
oracle

>  <origin>  (9) 
adg

>  <m_score__min__energy>  (9) 
-6.0599999999999996

>  <m_primary>  (9) 
energy

$$$$
9:0
     RDKit          3D

 50 51  0  0  0  0  0  0  0  0999 V2000
   58.9030   30.8260   47.3820 C   0  0  0  0  0  0  0  0  0  0  0  0
   59.2740   31.7350   46.2340 C   0  0  0  0  0  0  0  0  0  0  0  0
   58.3060   32.7730   46.1080 N   0  0  0  0  0  0  0  0  0  0  0  0
   58.5530   33.9660   46.8340 C   0  0  0  0  0  0  0  0  0  0  0  0
   59.4930   34.9360   46.1850 C   0  0  0  0  0  0  0  0  0  0  0  0
   57.7440   32.9180   44.7920 C   0  0  0  0  0  0  0  0  0  0  0  0
   57.3400   31.6460   44.1520 C   0  0  0  0  0  0  0  0  0  0  0  0
   56.2870   31.0670   44.8190 O   0  0  0  0  0  0  0  0  0  0  0  0
   56.0250   29.7930   44.3850 C   0  0  0  0  0  0  0  0  0  0  0  0
   57.0520   29.4760   43.2970 C   0  0  0  0  0  0  0  0  0  0  0  0
   57.4140   28.0660   43.4520 N   0  0  0  0  0  0  0  0  0  0  0  0
   58.3300   27.7600   44.4890 C   0  0  0  0  0  0  0  0  0  0  0  0
   58.4860   26.8340   45.4960 C   0  0  0  0  0  0  0  0  0  0  0  0
   57.7510   25.7170   45.9720 N   0  0  0  0  0  0  0  0  0  0  0  0
   57.5190   25.4520   47.3790 C   0  0  0  0  0  0  0  0  0  0  0  0
   56.4270   24.4030   47.4210 C   0  0  0  0  0  0  0  0  0  0  0  0
   55.3850   24.6270   46.5650 O   0  0  0  0  0  0  0  0  0  0  0  0
   55.6800   24.8310   45.2510 C   0  0  0  0  0  0  0  0  0  0  0  0
   57.1730   24.7480   45.0400 C   0  0  0  0  0  0  0  0  0  0  0  0
   59.6650   27.4400   45.8680 C   0  0  0  0  0  0  0  0  0  0  0  0
   60.4890   27.1710   46.7880 O   0  0  0  0  0  0  0  0  0  0  0  0
   59.5130   28.3630   44.8650 C   0  0  0  0  0  0  0  0  0  0  0  0
   60.2130   29.3420   44.4960 O   0  0  0  0  0  0  0  0  0  0  0  0
   59.1108   31.3351   48.3347 H   0  0  0  0  0  0  0  0  0  0  0  0
   57.8325   30.5799   47.3236 H   0  0  0  0  0  0  0  0  0  0  0  0
   59.4956   29.9011   47.3236 H   0  0  0  0  0  0  0  0  0  0  0  0
   60.2625   32.1786   46.4242 H   0  0  0  0  0  0  0  0  0  0  0  0
   59.3031   31.1505   45.3026 H   0  0  0  0  0  0  0  0  0  0  0  0
   57.5902   34.4764   46.9839 H   0  0  0  0  0  0  0  0  0  0  0  0
   59.0411   33.6537   47.7690 H   0  0  0  0  0  0  0  0  0  0  0  0
   60.0356   35.4959   46.9610 H   0  0  0  0  0  0  0  0  0  0  0  0
   60.2117   34.3870   45.5588 H   0  0  0  0  0  0  0  0  0  0  0  0
   58.9217   35.6371   45.5588 H   0  0  0  0  0  0  0  0  0  0  0  0
   56.8553   33.5618   44.8673 H   0  0  0  0  0  0  0  0  0  0  0  0
   58.5353   33.3478   44.1602 H   0  0  0  0  0  0  0  0  0  0  0  0
   57.0400   31.8465   43.1129 H   0  0  0  0  0  0  0  0  0  0  0  0
   58.1945   30.9539   44.1821 H   0  0  0  0  0  0  0  0  0  0  0  0
   56.1241   29.0814   45.2180 H   0  0  0  0  0  0  0  0  0  0  0  0
   54.9996   29.7123   43.9950 H   0  0  0  0  0  0  0  0  0  0  0  0
   56.6145   29.6471   42.3024 H   0  0  0  0  0  0  0  0  0  0  0  0
   57.9371   30.1224   43.3906 H   0  0  0  0  0  0  0  0  0  0  0  0
   57.0160   27.3180   42.8270 H   0  0  0  0  0  0  0  0  0  0  0  0
   58.4352   25.0718   47.8543 H   0  0  0  0  0  0  0  0  0  0  0  0
   57.2292   26.3634   47.9226 H   0  0  0  0  0  0  0  0  0  0  0  0
   56.8757   23.4313   47.1673 H   0  0  0  0  0  0  0  0  0  0  0  0
   56.0060   24.4340   48.4368 H   0  0  0  0  0  0  0  0  0  0  0  0
   55.1823   24.0620   44.6419 H   0  0  0  0  0  0  0  0  0  0  0  0
   55.3271   25.8289   44.9515 H   0  0  0  0  0  0  0  0  0  0  0  0
   57.5376   23.7345   45.2632 H   0  0  0  0  0  0  0  0  0  0  0  0
   57.4519   24.9653   43.9984 H   0  0  0  0  0  0  0  0  0  0  0  0
  1  2  1  0
  2  3  1  0
  3  4  1  0
  4  5  1  0
  3  6  1  0
  6  7  1  0
  7  8  1  0
  8  9  1  0
  9 10  1  0
 10 11  1  0
 11 12  1  0
 12 13  2  0
 13 14  1  0
 14 15  1  0
 15 16  1  0
 16 17  1  0
 17 18  1  0
 18 19  1  0
 13 20  1  0
 20 21  2  0
 20 22  1  0
 22 23  2  0
 22 12  1  0
 19 14  1  0
  1 24  1  0
  1 25  1  0
  1 26  1  0
  2 27  1  0
  2 28  1  0
  4 29  1  0
  4 30  1  0
  5 31  1  0
  5 32  1  0
  5 33  1  0
  6 34  1  0
  6 35  1  0
  7 36  1  0
  7 37  1  0
  9 38  1  0
  9 39  1  0
 10 40  1  0
 10 41  1  0
 11 42  1  0
 15 43  1  0
 15 44  1  0
 16 45  1  0
 16 46  1  0
 18 47  1  0
 18 48  1  0
 19 49  1  0
 19 50  1  0
M  END
>  <smiles>  (10) 
CCN(CC)CCOCCNc1c(N2CCOCC2)c(=O)c1=O

>  <score_type>  (10) 
oracle

>  <origin>  (10) 
adg

>  <m_score__min__energy>  (10) 
-6.3899999999999997

>  <m_primary>  (10) 
energy

$$$$
10:0
     RDKit          3D

 45 45  0  0  0  0  0  0  0  0999 V2000
   56.4190   29.7620   42.6460 C   0  0  0  0  0  0  0  0  0  0  0  0
   55.8480   29.9720   44.0620 C   0  0  0  0  0  0  0  0  0  0  0  0
   56.8310   30.5000   44.9590 N   0  0  0  0  0  0  0  0  0  0  0  0
   57.2500   31.8400   44.6500 C   0  0  0  0  0  0  0  0  0  0  0  0
   57.7130   32.5590   45.8820 C   0  0  0  0  0  0  0  0  0  0  0  0
   59.0140   32.1080   46.4130 C   0  0  0  0  0  0  0  0  0  0  0  0
   59.4660   30.8000   46.1340 N   0  0  0  0  0  0  0  0  0  0  0  0
   60.3740   30.1940   47.0540 C   0  0  0  0  0  0  0  0  0  0  0  0
   59.7390   28.8520   47.4530 C   0  0  0  0  0  0  0  0  0  0  0  0
   58.4990   28.8120   46.7150 N   0  0  0  0  0  0  0  0  0  0  0  0
   57.9180   27.6740   46.1240 C   0  0  0  0  0  0  0  0  0  0  0  0
   57.0910   26.7760   46.7430 C   0  0  0  0  0  0  0  0  0  0  0  0
   56.6270   25.6590   46.0310 C   0  0  0  0  0  0  0  0  0  0  0  0
   55.8740   24.8320   46.5830 O   0  0  0  0  0  0  0  0  0  0  0  0
   57.0160   25.4990   44.7310 N   0  0  0  0  0  0  0  0  0  0  0  0
   56.5870   24.3630   43.9360 C   0  0  0  0  0  0  0  0  0  0  0  0
   57.8250   26.3840   44.1350 C   0  0  0  0  0  0  0  0  0  0  0  0
   58.1970   26.2590   42.9460 O   0  0  0  0  0  0  0  0  0  0  0  0
   58.2690   27.4510   44.8150 N   0  0  0  0  0  0  0  0  0  0  0  0
   59.1600   28.4210   44.1590 C   0  0  0  0  0  0  0  0  0  0  0  0
   57.4491   29.3831   42.7185 H   0  0  0  0  0  0  0  0  0  0  0  0
   55.7977   29.0335   42.1044 H   0  0  0  0  0  0  0  0  0  0  0  0
   56.4177   30.7194   42.1044 H   0  0  0  0  0  0  0  0  0  0  0  0
   55.0040   30.6751   44.0049 H   0  0  0  0  0  0  0  0  0  0  0  0
   55.5230   28.9945   44.4479 H   0  0  0  0  0  0  0  0  0  0  0  0
   56.6750   30.2940   45.9570 H   0  0  0  0  0  0  0  0  0  0  0  0
   58.0768   31.7998   43.9255 H   0  0  0  0  0  0  0  0  0  0  0  0
   56.3927   32.3855   44.2287 H   0  0  0  0  0  0  0  0  0  0  0  0
   57.7943   33.6295   45.6426 H   0  0  0  0  0  0  0  0  0  0  0  0
   56.9694   32.3426   46.6631 H   0  0  0  0  0  0  0  0  0  0  0  0
   59.7753   32.7991   46.0222 H   0  0  0  0  0  0  0  0  0  0  0  0
   58.8580   32.0992   47.5018 H   0  0  0  0  0  0  0  0  0  0  0  0
   58.8980   30.2050   45.5420 H   0  0  0  0  0  0  0  0  0  0  0  0
   61.3499   30.0277   46.5745 H   0  0  0  0  0  0  0  0  0  0  0  0
   60.5470   30.8349   47.9311 H   0  0  0  0  0  0  0  0  0  0  0  0
   60.3899   28.0125   47.1674 H   0  0  0  0  0  0  0  0  0  0  0  0
   59.5854   28.7655   48.5388 H   0  0  0  0  0  0  0  0  0  0  0  0
   57.9130   29.7160   46.5710 H   0  0  0  0  0  0  0  0  0  0  0  0
   56.7923   26.9286   47.7906 H   0  0  0  0  0  0  0  0  0  0  0  0
   56.2779   23.5446   44.6028 H   0  0  0  0  0  0  0  0  0  0  0  0
   55.7387   24.6590   43.3013 H   0  0  0  0  0  0  0  0  0  0  0  0
   57.4192   24.0244   43.3013 H   0  0  0  0  0  0  0  0  0  0  0  0
   59.6948   29.0032   44.9239 H   0  0  0  0  0  0  0  0  0  0  0  0
   59.8871   27.8849   43.5314 H   0  0  0  0  0  0  0  0  0  0  0  0
   58.5642   29.1000   43.5314 H   0  0  0  0  0  0  0  0  0  0  0  0
  1  2  1  0
  2  3  1  0
  3  4  1  0
  4  5  1  0
  5  6  1  0
  6  7  1  0
  7  8  1  0
  8  9  1  0
  9 10  1  0
 10 11  1  0
 11 12  2  0
 12 13  1  0
 13 14  2  0
 13 15  1  0
 15 16  1  0
 15 17  1  0
 17 18  2  0
 17 19  1  0
 19 20  1  0
 19 11  1  0
  1 21  1  0
  1 22  1  0
  1 23  1  0
  2 24  1  0
  2 25  1  0
  3 26  1  0
  4 27  1  0
  4 28  1  0
  5 29  1  0
  5 30  1  0
  6 31  1  0
  6 32  1  0
  7 33  1  0
  8 34  1  0
  8 35  1  0
  9 36  1  0
  9 37  1  0
 10 38  1  0
 12 39  1  0
 16 40  1  0
 16 41  1  0
 16 42  1  0
 20 43  1  0
 20 44  1  0
 20 45  1  0
M  END
>  <smiles>  (11) 
CCNCCCNCCNc1cc(=O)n(C)c(=O)n1C

>  <score_type>  (11) 
oracle

>  <origin>  (11) 
adg

>  <m_score__min__energy>  (11) 
-4.5999999999999996

>  <m_primary>  (11) 
energy

$$$$
11:0
     RDKit          3D

 46 48  0  0  0  0  0  0  0  0999 V2000
   63.3770   33.8420   46.6410 C   0  0  0  0  0  0  0  0  0  0  0  0
   62.7850   33.3300   47.9280 C   0  0  0  0  0  0  0  0  0  0  0  0
   61.3760   33.1310   47.9000 N   0  0  0  0  0  0  0  0  0  0  0  0
   60.4570   34.1980   48.1320 C   0  0  0  0  0  0  0  0  0  0  0  0
   59.3990   34.1540   47.0700 C   0  0  0  0  0  0  0  0  0  0  0  0
   59.5890   34.6920   45.8150 C   0  0  0  0  0  0  0  0  0  0  0  0
   58.5530   34.6060   44.8930 C   0  0  0  0  0  0  0  0  0  0  0  0
   57.3510   33.9850   45.2460 C   0  0  0  0  0  0  0  0  0  0  0  0
   57.2500   33.4710   46.5350 C   0  0  0  0  0  0  0  0  0  0  0  0
   58.2430   33.5510   47.4250 N   0  0  0  0  0  0  0  0  0  0  0  0
   60.8070   31.8300   47.6350 C   0  0  0  0  0  0  0  0  0  0  0  0
   60.5850   31.1810   46.6440 N   0  0  0  0  0  0  0  0  0  0  0  0
   60.0490   29.9850   46.5860 C   0  0  0  0  0  0  0  0  0  0  0  0
   59.8180   29.2640   45.2780 C   0  0  0  0  0  0  0  0  0  0  0  0
   58.6430   29.6150   44.6200 N   0  0  0  0  0  0  0  0  0  0  0  0
   58.4530   30.9090   44.1380 C   0  0  0  0  0  0  0  0  0  0  0  0
   57.1550   31.0310   43.3900 C   0  0  0  0  0  0  0  0  0  0  0  0
   55.9870   30.4430   44.1250 C   0  0  0  0  0  0  0  0  0  0  0  0
   56.3180   29.1300   44.7950 C   0  0  0  0  0  0  0  0  0  0  0  0
   57.6790   28.6150   44.3700 C   0  0  0  0  0  0  0  0  0  0  0  0
   59.7140   29.4320   47.7800 C   0  0  0  0  0  0  0  0  0  0  0  0
   60.2260   30.7580   48.9860 S   0  0  0  0  0  0  0  0  0  0  0  0
   64.1913   34.5463   46.8666 H   0  0  0  0  0  0  0  0  0  0  0  0
   63.7735   32.9975   46.0583 H   0  0  0  0  0  0  0  0  0  0  0  0
   62.5985   34.3561   46.0583 H   0  0  0  0  0  0  0  0  0  0  0  0
   63.2618   32.3674   48.1647 H   0  0  0  0  0  0  0  0  0  0  0  0
   62.9729   34.1056   48.6851 H   0  0  0  0  0  0  0  0  0  0  0  0
   59.9936   34.0798   49.1226 H   0  0  0  0  0  0  0  0  0  0  0  0
   60.9839   35.1631   48.0994 H   0  0  0  0  0  0  0  0  0  0  0  0
   60.5393   35.1784   45.5495 H   0  0  0  0  0  0  0  0  0  0  0  0
   58.6786   35.0268   43.8845 H   0  0  0  0  0  0  0  0  0  0  0  0
   56.5176   33.9059   44.5324 H   0  0  0  0  0  0  0  0  0  0  0  0
   56.3131   32.9781   46.8338 H   0  0  0  0  0  0  0  0  0  0  0  0
   60.6638   29.4857   44.6106 H   0  0  0  0  0  0  0  0  0  0  0  0
   59.7291   28.1955   45.5238 H   0  0  0  0  0  0  0  0  0  0  0  0
   58.4443   31.6091   44.9864 H   0  0  0  0  0  0  0  0  0  0  0  0
   59.2747   31.1445   43.4457 H   0  0  0  0  0  0  0  0  0  0  0  0
   56.9539   32.0977   43.2120 H   0  0  0  0  0  0  0  0  0  0  0  0
   57.2661   30.4670   42.4521 H   0  0  0  0  0  0  0  0  0  0  0  0
   55.6601   31.1577   44.8946 H   0  0  0  0  0  0  0  0  0  0  0  0
   55.1952   30.2479   43.3868 H   0  0  0  0  0  0  0  0  0  0  0  0
   56.3156   29.2749   45.8854 H   0  0  0  0  0  0  0  0  0  0  0  0
   55.5610   28.3902   44.4957 H   0  0  0  0  0  0  0  0  0  0  0  0
   57.9276   27.7103   44.9442 H   0  0  0  0  0  0  0  0  0  0  0  0
   57.6667   28.3679   43.2982 H   0  0  0  0  0  0  0  0  0  0  0  0
   59.2573   28.4522   47.9836 H   0  0  0  0  0  0  0  0  0  0  0  0
  1  2  1  0
  2  3  1  0
  3  4  1  0
  4  5  1  0
  5  6  2  0
  6  7  1  0
  7  8  2  0
  8  9  1  0
  9 10  2  0
  3 11  1  0
 11 12  2  0
 12 13  1  0
 13 14  1  0
 14 15  1  0
 15 16  1  0
 16 17  1  0
 17 18  1  0
 18 19  1  0
 19 20  1  0
 13 21  2  0
 21 22  1  0
 10  5  1  0
 22 11  1  0
 20 15  1  0
  1 23  1  0
  1 24  1  0
  1 25  1  0
  2 26  1  0
  2 27  1  0
  4 28  1  0
  4 29  1  0
  6 30  1  0
  7 31  1  0
  8 32  1  0
  9 33  1  0
 14 34  1  0
 14 35  1  0
 16 36  1  0
 16 37  1  0
 17 38  1  0
 17 39  1  0
 18 40  1  0
 18 41  1  0
 19 42  1  0
 19 43  1  0
 20 44  1  0
 20 45  1  0
 21 46  1  0
M  END
>  <smiles>  (12) 
CCN(Cc1ccccn1)c1nc(CN2CCCCC2)cs1

>  <score_type>  (12) 
oracle

>  <origin>  (12) 
adg

>  <m_score__min__energy>  (12) 
-7.54

>  <m_primary>  (12) 
energy

$$$$
12:0
     RDKit          3D

 76 78  0  0  0  0  0  0  0  0999 V2000
   61.9470   30.3440   50.3730 C   0  0  0  0  0  0  0  0  0  0  0  0
   61.0670   30.8350   51.4750 C   0  0  0  0  0  0  0  0  0  0  0  0
   59.9340   31.5730   50.9540 N   0  0  0  0  0  0  0  0  0  0  0  0
   59.7560   32.7020   51.8400 C   0  0  0  0  0  0  0  0  0  0  0  0
   58.2950   33.0800   51.9790 C   0  0  0  0  0  0  0  0  0  0  0  0
   58.7860   30.7590   50.8000 C   0  0  0  0  0  0  0  0  0  0  0  0
   58.5150   30.1840   49.4540 C   0  0  0  0  0  0  0  0  0  0  0  0
   59.4570   30.5740   48.4170 N   0  0  0  0  0  0  0  0  0  0  0  0
   58.9280   30.7620   47.1150 C   0  0  0  0  0  0  0  0  0  0  0  0
   58.8350   29.5690   46.3680 C   0  0  0  0  0  0  0  0  0  0  0  0
   58.2810   29.5290   45.1170 C   0  0  0  0  0  0  0  0  0  0  0  0
   57.8080   30.6990   44.5970 N   0  0  0  0  0  0  0  0  0  0  0  0
   57.1860   30.6920   43.2690 C   0  0  0  0  0  0  0  0  0  0  0  0
   57.8900   31.8510   45.2900 C   0  0  0  0  0  0  0  0  0  0  0  0
   57.3920   32.9780   44.6740 C   0  0  0  0  0  0  0  0  0  0  0  0
   57.4770   34.1590   45.3660 C   0  0  0  0  0  0  0  0  0  0  0  0
   58.0400   34.2120   46.6280 C   0  0  0  0  0  0  0  0  0  0  0  0
   58.5510   33.0860   47.2740 C   0  0  0  0  0  0  0  0  0  0  0  0
   59.1630   33.2540   48.5170 N   0  0  0  0  0  0  0  0  0  0  0  0
   59.9470   34.4870   48.7550 C   0  0  0  0  0  0  0  0  0  0  0  0
   61.4130   34.2020   48.7530 C   0  0  0  0  0  0  0  0  0  0  0  0
   61.7460   32.9810   47.9280 C   0  0  0  0  0  0  0  0  0  0  0  0
   63.1360   32.9360   47.5750 N   0  0  0  0  0  0  0  0  0  0  0  0
   63.3910   33.8000   46.4160 C   0  0  0  0  0  0  0  0  0  0  0  0
   63.5760   31.6030   47.1800 C   0  0  0  0  0  0  0  0  0  0  0  0
   64.0220   33.3390   48.6480 C   0  0  0  0  0  0  0  0  0  0  0  0
   58.4560   31.9090   46.5720 C   0  0  0  0  0  0  0  0  0  0  0  0
   58.1540   28.3300   44.2690 C   0  0  0  0  0  0  0  0  0  0  0  0
   58.8810   27.1420   44.8410 C   0  0  0  0  0  0  0  0  0  0  0  0
   58.6080   27.1070   46.3280 C   0  0  0  0  0  0  0  0  0  0  0  0
   59.3660   28.2880   46.8960 C   0  0  0  0  0  0  0  0  0  0  0  0
   62.8314   29.8505   50.8023 H   0  0  0  0  0  0  0  0  0  0  0  0
   61.3913   29.6256   49.7525 H   0  0  0  0  0  0  0  0  0  0  0  0
   62.2665   31.1942   49.7525 H   0  0  0  0  0  0  0  0  0  0  0  0
   60.6991   29.9731   52.0510 H   0  0  0  0  0  0  0  0  0  0  0  0
   61.6554   31.5083   52.1157 H   0  0  0  0  0  0  0  0  0  0  0  0
   60.1531   32.4425   52.8324 H   0  0  0  0  0  0  0  0  0  0  0  0
   60.2936   33.5614   51.4129 H   0  0  0  0  0  0  0  0  0  0  0  0
   58.0336   33.1476   53.0453 H   0  0  0  0  0  0  0  0  0  0  0  0
   58.1204   34.0529   51.4963 H   0  0  0  0  0  0  0  0  0  0  0  0
   57.6705   32.3139   51.4963 H   0  0  0  0  0  0  0  0  0  0  0  0
   58.8845   29.9177   51.5018 H   0  0  0  0  0  0  0  0  0  0  0  0
   57.9401   31.4373   50.9854 H   0  0  0  0  0  0  0  0  0  0  0  0
   58.5378   29.0877   49.5406 H   0  0  0  0  0  0  0  0  0  0  0  0
   57.5361   30.5779   49.1433 H   0  0  0  0  0  0  0  0  0  0  0  0
   60.5010   30.6790   48.6150 H   0  0  0  0  0  0  0  0  0  0  0  0
   56.0914   30.6797   43.3769 H   0  0  0  0  0  0  0  0  0  0  0  0
   57.4899   31.5936   42.7170 H   0  0  0  0  0  0  0  0  0  0  0  0
   57.5101   29.7974   42.7170 H   0  0  0  0  0  0  0  0  0  0  0  0
   56.9452   32.9326   43.6699 H   0  0  0  0  0  0  0  0  0  0  0  0
   57.0900   35.0815   44.9086 H   0  0  0  0  0  0  0  0  0  0  0  0
   58.0869   35.1824   47.1439 H   0  0  0  0  0  0  0  0  0  0  0  0
   59.2040   32.6320   49.3310 H   0  0  0  0  0  0  0  0  0  0  0  0
   59.7216   35.2146   47.9614 H   0  0  0  0  0  0  0  0  0  0  0  0
   59.6714   34.8910   49.7403 H   0  0  0  0  0  0  0  0  0  0  0  0
   61.9439   35.0699   48.3348 H   0  0  0  0  0  0  0  0  0  0  0  0
   61.7253   34.0096   49.7900 H   0  0  0  0  0  0  0  0  0  0  0  0
   61.4974   32.0807   48.5091 H   0  0  0  0  0  0  0  0  0  0  0  0
   61.1598   33.0277   46.9984 H   0  0  0  0  0  0  0  0  0  0  0  0
   63.6865   34.8012   46.7629 H   0  0  0  0  0  0  0  0  0  0  0  0
   64.2002   33.3689   45.8083 H   0  0  0  0  0  0  0  0  0  0  0  0
   62.4774   33.8774   45.8083 H   0  0  0  0  0  0  0  0  0  0  0  0
   63.7747   31.0011   48.0790 H   0  0  0  0  0  0  0  0  0  0  0  0
   62.7897   31.1197   46.5815 H   0  0  0  0  0  0  0  0  0  0  0  0
   64.4955   31.6827   46.5815 H   0  0  0  0  0  0  0  0  0  0  0  0
   63.5470   33.1230   49.6164 H   0  0  0  0  0  0  0  0  0  0  0  0
   64.9677   32.7825   48.5712 H   0  0  0  0  0  0  0  0  0  0  0  0
   64.2240   34.4176   48.5712 H   0  0  0  0  0  0  0  0  0  0  0  0
   57.0877   28.0780   44.1712 H   0  0  0  0  0  0  0  0  0  0  0  0
   58.6052   28.5607   43.2927 H   0  0  0  0  0  0  0  0  0  0  0  0
   58.5149   26.2172   44.3712 H   0  0  0  0  0  0  0  0  0  0  0  0
   59.9612   27.2232   44.6498 H   0  0  0  0  0  0  0  0  0  0  0  0
   57.5306   27.2085   46.5253 H   0  0  0  0  0  0  0  0  0  0  0  0
   58.9244   26.1568   46.7829 H   0  0  0  0  0  0  0  0  0  0  0  0
   59.2690   28.2835   47.9917 H   0  0  0  0  0  0  0  0  0  0  0  0
   60.4218   28.1997   46.6004 H   0  0  0  0  0  0  0  0  0  0  0  0
  1  2  1  0
  2  3  1  0
  3  4  1  0
  4  5  1  0
  3  6  1  0
  6  7  1  0
  7  8  1  0
  8  9  1  0
  9 10  2  0
 10 11  1  0
 11 12  2  0
 12 13  1  0
 12 14  1  0
 14 15  2  0
 15 16  1  0
 16 17  2  0
 17 18  1  0
 18 19  1  0
 19 20  1  0
 20 21  1  0
 21 22  1  0
 22 23  1  0
 23 24  1  0
 23 25  1  0
 23 26  1  0
 18 27  2  0
 11 28  1  0
 28 29  1  0
 29 30  1  0
 30 31  1  0
 27  9  1  0
 31 10  1  0
 27 14  1  0
  1 32  1  0
  1 33  1  0
  1 34  1  0
  2 35  1  0
  2 36  1  0
  4 37  1  0
  4 38  1  0
  5 39  1  0
  5 40  1  0
  5 41  1  0
  6 42  1  0
  6 43  1  0
  7 44  1  0
  7 45  1  0
  8 46  1  0
 13 47  1  0
 13 48  1  0
 13 49  1  0
 15 50  1  0
 16 51  1  0
 17 52  1  0
 19 53  1  0
 20 54  1  0
 20 55  1  0
 21 56  1  0
 21 57  1  0
 22 58  1  0
 22 59  1  0
 24 60  1  0
 24 61  1  0
 24 62  1  0
 25 63  1  0
 25 64  1  0
 25 65  1  0
 26 66  1  0
 26 67  1  0
 26 68  1  0
 28 69  1  0
 28 70  1  0
 29 71  1  0
 29 72  1  0
 30 73  1  0
 30 74  1  0
 31 75  1  0
 31 76  1  0
M  CHG  2  12   1  23   1
M  END
>  <smiles>  (13) 
CCN(CC)CCNc1c2c([n+](C)c3cccc(NCCC[N+](C)(C)C)c13)CCCC2

>  <score_type>  (13) 
oracle

>  <origin>  (13) 
adg

>  <m_score__min__energy>  (13) 
-4.8700000000000001

>  <m_primary>  (13) 
energy

$$$$
13:0
     RDKit          3D

 43 45  0  0  0  0  0  0  0  0999 V2000
   57.4100   31.5760   42.3590 C   0  0  0  0  0  0  0  0  0  0  0  0
   56.6910   30.6880   43.3150 C   0  0  0  0  0  0  0  0  0  0  0  0
   56.5620   31.1900   44.6120 O   0  0  0  0  0  0  0  0  0  0  0  0
   57.4130   32.0650   45.2220 C   0  0  0  0  0  0  0  0  0  0  0  0
   57.0890   33.3870   45.3220 C   0  0  0  0  0  0  0  0  0  0  0  0
   58.0060   34.2130   45.9570 C   0  0  0  0  0  0  0  0  0  0  0  0
   59.1900   33.7530   46.4700 C   0  0  0  0  0  0  0  0  0  0  0  0
   59.5220   32.4330   46.3730 C   0  0  0  0  0  0  0  0  0  0  0  0
   60.6990   31.9710   46.8960 C   0  0  0  0  0  0  0  0  0  0  0  0
   61.7170   32.7100   47.4970 N   0  0  0  0  0  0  0  0  0  0  0  0
   61.5810   32.9310   48.9670 C   0  0  0  0  0  0  0  0  0  0  0  0
   62.2890   34.1940   49.3160 C   0  0  0  0  0  0  0  0  0  0  0  0
   63.6490   33.9820   49.1160 O   0  0  0  0  0  0  0  0  0  0  0  0
   63.9500   33.1060   48.0970 C   0  0  0  0  0  0  0  0  0  0  0  0
   62.9210   33.2560   46.9350 C   0  0  0  0  0  0  0  0  0  0  0  0
   60.9190   30.5920   46.7500 C   0  0  0  0  0  0  0  0  0  0  0  0
   60.0220   29.7620   46.1270 C   0  0  0  0  0  0  0  0  0  0  0  0
   60.2330   28.3000   45.9600 C   0  0  0  0  0  0  0  0  0  0  0  0
   59.2250   27.6580   45.0380 C   0  0  0  0  0  0  0  0  0  0  0  0
   58.8760   30.2800   45.6280 N   0  0  0  0  0  0  0  0  0  0  0  0
   58.6040   31.6010   45.7370 C   0  0  0  0  0  0  0  0  0  0  0  0
   58.0057   32.3118   42.9191 H   0  0  0  0  0  0  0  0  0  0  0  0
   58.0756   30.9708   41.7260 H   0  0  0  0  0  0  0  0  0  0  0  0
   56.6795   32.1011   41.7260 H   0  0  0  0  0  0  0  0  0  0  0  0
   55.6811   30.5077   42.9180 H   0  0  0  0  0  0  0  0  0  0  0  0
   57.2995   29.7756   43.4003 H   0  0  0  0  0  0  0  0  0  0  0  0
   56.1444   33.7799   44.9178 H   0  0  0  0  0  0  0  0  0  0  0  0
   57.7719   35.2835   46.0525 H   0  0  0  0  0  0  0  0  0  0  0  0
   59.8790   34.4537   46.9643 H   0  0  0  0  0  0  0  0  0  0  0  0
   60.5172   33.0146   49.2340 H   0  0  0  0  0  0  0  0  0  0  0  0
   62.0173   32.0860   49.5199 H   0  0  0  0  0  0  0  0  0  0  0  0
   61.9377   35.0119   48.6698 H   0  0  0  0  0  0  0  0  0  0  0  0
   62.0907   34.4721   50.3616 H   0  0  0  0  0  0  0  0  0  0  0  0
   64.9597   33.3227   47.7182 H   0  0  0  0  0  0  0  0  0  0  0  0
   63.9063   32.0772   48.4840 H   0  0  0  0  0  0  0  0  0  0  0  0
   62.7855   34.3126   46.6608 H   0  0  0  0  0  0  0  0  0  0  0  0
   63.2353   32.7509   46.0098 H   0  0  0  0  0  0  0  0  0  0  0  0
   61.8477   30.1600   47.1512 H   0  0  0  0  0  0  0  0  0  0  0  0
   61.2393   28.1364   45.5469 H   0  0  0  0  0  0  0  0  0  0  0  0
   60.1140   27.8361   46.9503 H   0  0  0  0  0  0  0  0  0  0  0  0
   58.4458   27.1617   45.6352 H   0  0  0  0  0  0  0  0  0  0  0  0
   58.7648   28.4297   44.4035 H   0  0  0  0  0  0  0  0  0  0  0  0
   59.7298   26.9147   44.4035 H   0  0  0  0  0  0  0  0  0  0  0  0
  1  2  1  0
  2  3  1  0
  3  4  1  0
  4  5  2  0
  5  6  1  0
  6  7  2  0
  7  8  1  0
  8  9  2  0
  9 10  1  0
 10 11  1  0
 11 12  1  0
 12 13  1  0
 13 14  1  0
 14 15  1  0
  9 16  1  0
 16 17  2  0
 17 18  1  0
 18 19  1  0
 17 20  1  0
 20 21  2  0
 21  4  1  0
 21  8  1  0
 15 10  1  0
  1 22  1  0
  1 23  1  0
  1 24  1  0
  2 25  1  0
  2 26  1  0
  5 27  1  0
  6 28  1  0
  7 29  1  0
 11 30  1  0
 11 31  1  0
 12 32  1  0
 12 33  1  0
 14 34  1  0
 14 35  1  0
 15 36  1  0
 15 37  1  0
 16 38  1  0
 18 39  1  0
 18 40  1  0
 19 41  1  0
 19 42  1  0
 19 43  1  0
M  END
>  <smiles>  (14) 
CCOc1cccc2c(N3CCOCC3)cc(CC)nc12

>  <score_type>  (14) 
oracle

>  <origin>  (14) 
adg

>  <m_score__min__energy>  (14) 
-6.9900000000000002

>  <m_primary>  (14) 
energy

$$$$
14:0
     RDKit          3D

 51 53  0  0  0  0  0  0  0  0999 V2000
   59.5690   35.0950   45.6390 C   0  0  0  0  0  0  0  0  0  0  0  0
   58.5400   34.4910   46.5920 C   0  0  0  0  0  0  0  0  0  0  0  0
   57.4740   33.8470   45.8840 N   0  0  0  0  0  0  0  0  0  0  0  0
   57.8970   33.3920   44.5900 C   0  0  0  0  0  0  0  0  0  0  0  0
   57.4610   31.9940   44.3370 C   0  0  0  0  0  0  0  0  0  0  0  0
   57.3870   31.1780   45.5520 N   0  0  0  0  0  0  0  0  0  0  0  0
   58.5390   30.3140   45.6590 C   0  0  0  0  0  0  0  0  0  0  0  0
   59.2030   30.4150   47.0170 C   0  0  0  0  0  0  0  0  0  0  0  0
   59.0690   31.7350   47.5830 N   0  0  0  0  0  0  0  0  0  0  0  0
   59.9080   32.2610   48.5750 C   0  0  0  0  0  0  0  0  0  0  0  0
   61.1870   32.7320   48.3660 C   0  0  0  0  0  0  0  0  0  0  0  0
   61.6560   32.6730   47.0630 C   0  0  0  0  0  0  0  0  0  0  0  0
   62.9210   33.1220   46.7500 C   0  0  0  0  0  0  0  0  0  0  0  0
   63.6950   33.6300   47.7710 C   0  0  0  0  0  0  0  0  0  0  0  0
   63.2110   33.6840   49.0750 C   0  0  0  0  0  0  0  0  0  0  0  0
   61.9430   33.2350   49.4090 C   0  0  0  0  0  0  0  0  0  0  0  0
   61.4720   33.2930   50.6830 N   0  0  0  0  0  0  0  0  0  0  0  0
   62.2940   33.8030   51.7360 C   0  0  0  0  0  0  0  0  0  0  0  0
   60.2120   32.8280   50.8870 C   0  0  0  0  0  0  0  0  0  0  0  0
   59.6550   32.8570   52.1470 C   0  0  0  0  0  0  0  0  0  0  0  0
   58.3640   32.3960   52.4020 C   0  0  0  0  0  0  0  0  0  0  0  0
   57.5880   31.8890   51.3830 C   0  0  0  0  0  0  0  0  0  0  0  0
   56.3290   31.4260   51.5720 F   0  0  0  0  0  0  0  0  0  0  0  0
   58.1410   31.8600   50.1220 C   0  0  0  0  0  0  0  0  0  0  0  0
   59.4330   32.3220   49.8710 C   0  0  0  0  0  0  0  0  0  0  0  0
   60.3743   35.5677   46.2205 H   0  0  0  0  0  0  0  0  0  0  0  0
   59.9916   34.3016   45.0050 H   0  0  0  0  0  0  0  0  0  0  0  0
   59.0823   35.8508   45.0050 H   0  0  0  0  0  0  0  0  0  0  0  0
   59.0401   33.7504   47.2334 H   0  0  0  0  0  0  0  0  0  0  0  0
   58.1091   35.3062   47.1919 H   0  0  0  0  0  0  0  0  0  0  0  0
   57.0690   33.0770   46.4510 H   0  0  0  0  0  0  0  0  0  0  0  0
   57.4623   34.0471   43.8207 H   0  0  0  0  0  0  0  0  0  0  0  0
   58.9960   33.4235   44.5544 H   0  0  0  0  0  0  0  0  0  0  0  0
   56.4643   32.0184   43.8723 H   0  0  0  0  0  0  0  0  0  0  0  0
   58.2145   31.5327   43.6817 H   0  0  0  0  0  0  0  0  0  0  0  0
   57.2510   31.7660   46.3890 H   0  0  0  0  0  0  0  0  0  0  0  0
   58.2187   29.2742   45.4972 H   0  0  0  0  0  0  0  0  0  0  0  0
   59.2703   30.6290   44.9001 H   0  0  0  0  0  0  0  0  0  0  0  0
   58.7356   29.6872   47.6967 H   0  0  0  0  0  0  0  0  0  0  0  0
   60.2753   30.2055   46.8893 H   0  0  0  0  0  0  0  0  0  0  0  0
   58.2890   32.3330   47.2230 H   0  0  0  0  0  0  0  0  0  0  0  0
   61.0121   32.2637   46.2707 H   0  0  0  0  0  0  0  0  0  0  0  0
   63.3006   33.0764   45.7186 H   0  0  0  0  0  0  0  0  0  0  0  0
   64.7085   33.9976   47.5525 H   0  0  0  0  0  0  0  0  0  0  0  0
   63.8554   34.0961   49.8655 H   0  0  0  0  0  0  0  0  0  0  0  0
   61.8558   33.5311   52.7076 H   0  0  0  0  0  0  0  0  0  0  0  0
   63.3028   33.3719   51.6552 H   0  0  0  0  0  0  0  0  0  0  0  0
   62.3558   34.8983   51.6552 H   0  0  0  0  0  0  0  0  0  0  0  0
   60.2497   33.2579   52.9810 H   0  0  0  0  0  0  0  0  0  0  0  0
   57.9620   32.4375   53.4251 H   0  0  0  0  0  0  0  0  0  0  0  0
   57.5459   31.4605   49.2876 H   0  0  0  0  0  0  0  0  0  0  0  0
  1  2  1  0
  2  3  1  0
  3  4  1  0
  4  5  1  0
  5  6  1  0
  6  7  1  0
  7  8  1  0
  8  9  1  0
  9 10  1  0
 10 11  2  0
 11 12  1  0
 12 13  2  0
 13 14  1  0
 14 15  2  0
 15 16  1  0
 16 17  2  0
 17 18  1  0
 17 19  1  0
 19 20  2  0
 20 21  1  0
 21 22  2  0
 22 23  1  0
 22 24  1  0
 24 25  2  0
 25 10  1  0
 16 11  1  0
 25 19  1  0
  1 26  1  0
  1 27  1  0
  1 28  1  0
  2 29  1  0
  2 30  1  0
  3 31  1  0
  4 32  1  0
  4 33  1  0
  5 34  1  0
  5 35  1  0
  6 36  1  0
  7 37  1  0
  7 38  1  0
  8 39  1  0
  8 40  1  0
  9 41  1  0
 12 42  1  0
 13 43  1  0
 14 44  1  0
 15 45  1  0
 18 46  1  0
 18 47  1  0
 18 48  1  0
 20 49  1  0
 21 50  1  0
 24 51  1  0
M  CHG  1  17   1
M  END
>  <smiles>  (15) 
CCNCCNCCNc1c2ccccc2[n+](C)c2ccc(F)cc12

>  <score_type>  (15) 
oracle

>  <origin>  (15) 
adg

>  <m_score__min__energy>  (15) 
-6.5199999999999996

>  <m_primary>  (15) 
energy

$$$$
15:0
     RDKit          3D

 57 60  0  0  0  0  0  0  0  0999 V2000
   58.0760   27.4870   47.0540 C   0  0  0  0  0  0  0  0  0  0  0  0
   58.5580   28.5150   46.1930 N   0  0  0  0  0  0  0  0  0  0  0  0
   59.9670   28.4530   45.9420 C   0  0  0  0  0  0  0  0  0  0  0  0
   60.6630   29.6110   46.5580 C   0  0  0  0  0  0  0  0  0  0  0  0
   59.8760   30.5170   47.3260 N   0  0  0  0  0  0  0  0  0  0  0  0
   60.3380   31.3610   48.3570 C   0  0  0  0  0  0  0  0  0  0  0  0
   59.6590   31.3630   49.5780 C   0  0  0  0  0  0  0  0  0  0  0  0
   58.5380   30.5460   49.7260 C   0  0  0  0  0  0  0  0  0  0  0  0
   57.8090   30.4980   50.8950 C   0  0  0  0  0  0  0  0  0  0  0  0
   58.2220   31.2940   51.9420 C   0  0  0  0  0  0  0  0  0  0  0  0
   59.3350   32.1050   51.7940 C   0  0  0  0  0  0  0  0  0  0  0  0
   60.0740   32.1590   50.6240 C   0  0  0  0  0  0  0  0  0  0  0  0
   61.1600   32.9840   50.5210 N   0  0  0  0  0  0  0  0  0  0  0  0
   61.5000   33.7470   51.6740 C   0  0  0  0  0  0  0  0  0  0  0  0
   61.8300   33.0000   49.3490 C   0  0  0  0  0  0  0  0  0  0  0  0
   62.9110   33.8290   49.2130 C   0  0  0  0  0  0  0  0  0  0  0  0
   63.5900   33.8540   47.9910 C   0  0  0  0  0  0  0  0  0  0  0  0
   63.2190   33.0830   46.9200 C   0  0  0  0  0  0  0  0  0  0  0  0
   62.1250   32.2580   47.0890 C   0  0  0  0  0  0  0  0  0  0  0  0
   61.4240   32.1980   48.2740 C   0  0  0  0  0  0  0  0  0  0  0  0
   57.7270   28.8440   45.0830 C   0  0  0  0  0  0  0  0  0  0  0  0
   57.9760   30.2990   44.6620 C   0  0  0  0  0  0  0  0  0  0  0  0
   57.4250   31.1950   45.5720 O   0  0  0  0  0  0  0  0  0  0  0  0
   57.3660   32.4550   44.9300 C   0  0  0  0  0  0  0  0  0  0  0  0
   58.1760   33.4370   45.6450 C   0  0  0  0  0  0  0  0  0  0  0  0
   59.0600   34.3940   45.2510 C   0  0  0  0  0  0  0  0  0  0  0  0
   59.6690   35.1600   46.1570 C   0  0  0  0  0  0  0  0  0  0  0  0
   59.3250   34.8950   47.5070 C   0  0  0  0  0  0  0  0  0  0  0  0
   58.1420   33.5620   47.4520 S   0  0  0  0  0  0  0  0  0  0  0  0
   58.2180   27.7899   48.1019 H   0  0  0  0  0  0  0  0  0  0  0  0
   57.0058   27.3201   46.8624 H   0  0  0  0  0  0  0  0  0  0  0  0
   58.6322   26.5575   46.8624 H   0  0  0  0  0  0  0  0  0  0  0  0
   60.3688   27.5220   46.3685 H   0  0  0  0  0  0  0  0  0  0  0  0
   60.1333   28.4788   44.8549 H   0  0  0  0  0  0  0  0  0  0  0  0
   61.4458   29.2115   47.2196 H   0  0  0  0  0  0  0  0  0  0  0  0
   61.0260   30.2059   45.7069 H   0  0  0  0  0  0  0  0  0  0  0  0
   58.8410   30.5700   47.1100 H   0  0  0  0  0  0  0  0  0  0  0  0
   58.2245   29.9175   48.8794 H   0  0  0  0  0  0  0  0  0  0  0  0
   56.9276   29.8466   50.9892 H   0  0  0  0  0  0  0  0  0  0  0  0
   57.6689   31.2851   52.8928 H   0  0  0  0  0  0  0  0  0  0  0  0
   59.6452   32.7331   52.6421 H   0  0  0  0  0  0  0  0  0  0  0  0
   61.2457   33.1764   52.5794 H   0  0  0  0  0  0  0  0  0  0  0  0
   62.5789   33.9615   51.6667 H   0  0  0  0  0  0  0  0  0  0  0  0
   60.9381   34.6926   51.6667 H   0  0  0  0  0  0  0  0  0  0  0  0
   63.2392   34.4635   50.0494 H   0  0  0  0  0  0  0  0  0  0  0  0
   64.4586   34.5205   47.8845 H   0  0  0  0  0  0  0  0  0  0  0  0
   63.7687   33.1200   45.9679 H   0  0  0  0  0  0  0  0  0  0  0  0
   61.8016   31.6265   46.2484 H   0  0  0  0  0  0  0  0  0  0  0  0
   57.9598   28.1751   44.2413 H   0  0  0  0  0  0  0  0  0  0  0  0
   56.6720   28.7239   45.3702 H   0  0  0  0  0  0  0  0  0  0  0  0
   59.0605   30.4728   44.6014 H   0  0  0  0  0  0  0  0  0  0  0  0
   57.4977   30.4619   43.6849 H   0  0  0  0  0  0  0  0  0  0  0  0
   57.7444   32.3545   43.9020 H   0  0  0  0  0  0  0  0  0  0  0  0
   56.3210   32.7983   44.9202 H   0  0  0  0  0  0  0  0  0  0  0  0
   59.2729   34.5361   44.1812 H   0  0  0  0  0  0  0  0  0  0  0  0
   60.3885   35.9433   45.8765 H   0  0  0  0  0  0  0  0  0  0  0  0
   59.7085   35.4059   48.4025 H   0  0  0  0  0  0  0  0  0  0  0  0
  1  2  1  0
  2  3  1  0
  3  4  1  0
  4  5  1  0
  5  6  1  0
  6  7  1  0
  7  8  2  0
  8  9  1  0
  9 10  2  0
 10 11  1  0
 11 12  2  0
 12 13  1  0
 13 14  1  0
 13 15  2  0
 15 16  1  0
 16 17  2  0
 17 18  1  0
 18 19  2  0
 19 20  1  0
  2 21  1  0
 21 22  1  0
 22 23  1  0
 23 24  1  0
 24 25  1  0
 25 26  2  0
 26 27  1  0
 27 28  2  0
 28 29  1  0
 20  6  2  0
 29 25  1  0
 12  7  1  0
 20 15  1  0
  1 30  1  0
  1 31  1  0
  1 32  1  0
  3 33  1  0
  3 34  1  0
  4 35  1  0
  4 36  1  0
  5 37  1  0
  8 38  1  0
  9 39  1  0
 10 40  1  0
 11 41  1  0
 14 42  1  0
 14 43  1  0
 14 44  1  0
 16 45  1  0
 17 46  1  0
 18 47  1  0
 19 48  1  0
 21 49  1  0
 21 50  1  0
 22 51  1  0
 22 52  1  0
 24 53  1  0
 24 54  1  0
 26 55  1  0
 27 56  1  0
 28 57  1  0
M  CHG  1  13   1
M  END
>  <smiles>  (16) 
CN(CCNc1c2ccccc2[n+](C)c2ccccc12)CCOCc1cccs1

>  <score_type>  (16) 
oracle

>  <origin>  (16) 
adg

>  <m_score__min__energy>  (16) 
-5.9400000000000004

>  <m_primary>  (16) 
energy

$$$$
16:0
     RDKit          3D

 67 69  0  0  0  0  0  0  0  0999 V2000
   59.1500   34.4390   46.5270 C   0  0  0  0  0  0  0  0  0  0  0  0
   58.1360   33.2610   46.4680 C   0  0  0  0  0  0  0  0  0  0  0  0
   58.5800   32.3710   45.5670 O   0  0  0  0  0  0  0  0  0  0  0  0
   58.1220   32.4840   44.2980 C   0  0  0  0  0  0  0  0  0  0  0  0
   57.0790   31.4610   43.9410 C   0  0  0  0  0  0  0  0  0  0  0  0
   56.6720   30.6340   44.8700 O   0  0  0  0  0  0  0  0  0  0  0  0
   56.2650   29.3860   44.8470 C   0  0  0  0  0  0  0  0  0  0  0  0
   57.2520   28.2780   44.9120 C   0  0  0  0  0  0  0  0  0  0  0  0
   58.4820   28.4710   44.1310 C   0  0  0  0  0  0  0  0  0  0  0  0
   59.2930   29.5320   44.7090 N   0  0  0  0  0  0  0  0  0  0  0  0
   60.4680   28.9850   45.2660 C   0  0  0  0  0  0  0  0  0  0  0  0
   61.1550   29.7860   46.3470 C   0  0  0  0  0  0  0  0  0  0  0  0
   60.2970   30.8610   46.8040 N   0  0  0  0  0  0  0  0  0  0  0  0
   60.5730   31.4380   48.0510 C   0  0  0  0  0  0  0  0  0  0  0  0
   61.6310   32.3760   48.0570 C   0  0  0  0  0  0  0  0  0  0  0  0
   62.3060   32.6280   46.8520 C   0  0  0  0  0  0  0  0  0  0  0  0
   63.3530   33.5160   46.7700 C   0  0  0  0  0  0  0  0  0  0  0  0
   63.7310   34.1660   47.9200 C   0  0  0  0  0  0  0  0  0  0  0  0
   63.0610   33.9160   49.1200 C   0  0  0  0  0  0  0  0  0  0  0  0
   62.0090   33.0270   49.2060 C   0  0  0  0  0  0  0  0  0  0  0  0
   61.3660   32.7820   50.3810 N   0  0  0  0  0  0  0  0  0  0  0  0
   61.7650   33.5060   51.5860 C   0  0  0  0  0  0  0  0  0  0  0  0
   60.3420   31.8810   50.4040 C   0  0  0  0  0  0  0  0  0  0  0  0
   59.6940   31.6420   51.5970 C   0  0  0  0  0  0  0  0  0  0  0  0
   58.6480   30.7350   51.6250 C   0  0  0  0  0  0  0  0  0  0  0  0
   58.2790   30.0940   50.4650 C   0  0  0  0  0  0  0  0  0  0  0  0
   58.9000   30.3010   49.2460 C   0  0  0  0  0  0  0  0  0  0  0  0
   58.4930   29.6340   48.1110 O   0  0  0  0  0  0  0  0  0  0  0  0
   58.6830   28.2370   48.0370 C   0  0  0  0  0  0  0  0  0  0  0  0
   60.0260   27.7880   48.5940 C   0  0  0  0  0  0  0  0  0  0  0  0
   59.9430   31.2080   49.2410 C   0  0  0  0  0  0  0  0  0  0  0  0
   59.3634   34.6869   47.5773 H   0  0  0  0  0  0  0  0  0  0  0  0
   60.0826   34.1457   46.0227 H   0  0  0  0  0  0  0  0  0  0  0  0
   58.7212   35.3175   46.0227 H   0  0  0  0  0  0  0  0  0  0  0  0
   58.0608   32.7844   47.4565 H   0  0  0  0  0  0  0  0  0  0  0  0
   57.1408   33.6301   46.1793 H   0  0  0  0  0  0  0  0  0  0  0  0
   57.6837   33.4853   44.1744 H   0  0  0  0  0  0  0  0  0  0  0  0
   58.9795   32.3172   43.6295 H   0  0  0  0  0  0  0  0  0  0  0  0
   56.1947   32.0096   43.5845 H   0  0  0  0  0  0  0  0  0  0  0  0
   57.5774   30.8141   43.2040 H   0  0  0  0  0  0  0  0  0  0  0  0
   55.5879   29.2578   45.7043 H   0  0  0  0  0  0  0  0  0  0  0  0
   55.8351   29.2806   43.8400 H   0  0  0  0  0  0  0  0  0  0  0  0
   57.5387   28.1426   45.9653 H   0  0  0  0  0  0  0  0  0  0  0  0
   56.7507   27.4047   44.4692 H   0  0  0  0  0  0  0  0  0  0  0  0
   59.0595   27.5348   44.1284 H   0  0  0  0  0  0  0  0  0  0  0  0
   58.2096   28.7521   43.1030 H   0  0  0  0  0  0  0  0  0  0  0  0
   58.7790   30.1980   45.2900 H   0  0  0  0  0  0  0  0  0  0  0  0
   60.2070   28.0060   45.6943 H   0  0  0  0  0  0  0  0  0  0  0  0
   61.1881   28.9523   44.4351 H   0  0  0  0  0  0  0  0  0  0  0  0
   61.3894   29.1247   47.1942 H   0  0  0  0  0  0  0  0  0  0  0  0
   62.0796   30.2182   45.9368 H   0  0  0  0  0  0  0  0  0  0  0  0
   59.5010   31.1630   46.1820 H   0  0  0  0  0  0  0  0  0  0  0  0
   61.9867   32.0973   45.9429 H   0  0  0  0  0  0  0  0  0  0  0  0
   63.8700   33.6995   45.8166 H   0  0  0  0  0  0  0  0  0  0  0  0
   64.5632   34.8849   47.8957 H   0  0  0  0  0  0  0  0  0  0  0  0
   63.3833   34.4464   50.0282 H   0  0  0  0  0  0  0  0  0  0  0  0
   61.4523   32.9387   52.4750 H   0  0  0  0  0  0  0  0  0  0  0  0
   62.8581   33.6287   51.5950 H   0  0  0  0  0  0  0  0  0  0  0  0
   61.2849   34.4957   51.5950 H   0  0  0  0  0  0  0  0  0  0  0  0
   60.0036   32.1646   52.5141 H   0  0  0  0  0  0  0  0  0  0  0  0
   58.1170   30.5289   52.5661 H   0  0  0  0  0  0  0  0  0  0  0  0
   57.4450   29.3781   50.5090 H   0  0  0  0  0  0  0  0  0  0  0  0
   57.8837   27.7440   48.6098 H   0  0  0  0  0  0  0  0  0  0  0  0
   58.6588   27.9581   46.9732 H   0  0  0  0  0  0  0  0  0  0  0  0
   59.9896   27.8002   49.6933 H   0  0  0  0  0  0  0  0  0  0  0  0
   60.2449   26.7678   48.2457 H   0  0  0  0  0  0  0  0  0  0  0  0
   60.8144   28.4714   48.2457 H   0  0  0  0  0  0  0  0  0  0  0  0
  1  2  1  0
  2  3  1  0
  3  4  1  0
  4  5  1  0
  5  6  1  0
  6  7  1  0
  7  8  1  0
  8  9  1  0
  9 10  1  0
 10 11  1  0
 11 12  1  0
 12 13  1  0
 13 14  1  0
 14 15  2  0
 15 16  1  0
 16 17  2  0
 17 18  1  0
 18 19  2  0
 19 20  1  0
 20 21  2  0
 21 22  1  0
 21 23  1  0
 23 24  2  0
 24 25  1  0
 25 26  2  0
 26 27  1  0
 27 28  1  0
 28 29  1  0
 29 30  1  0
 27 31  2  0
 31 14  1  0
 20 15  1  0
 31 23  1  0
  1 32  1  0
  1 33  1  0
  1 34  1  0
  2 35  1  0
  2 36  1  0
  4 37  1  0
  4 38  1  0
  5 39  1  0
  5 40  1  0
  7 41  1  0
  7 42  1  0
  8 43  1  0
  8 44  1  0
  9 45  1  0
  9 46  1  0
 10 47  1  0
 11 48  1  0
 11 49  1  0
 12 50  1  0
 12 51  1  0
 13 52  1  0
 16 53  1  0
 17 54  1  0
 18 55  1  0
 19 56  1  0
 22 57  1  0
 22 58  1  0
 22 59  1  0
 24 60  1  0
 25 61  1  0
 26 62  1  0
 29 63  1  0
 29 64  1  0
 30 65  1  0
 30 66  1  0
 30 67  1  0
M  CHG  1  21   1
M  END
>  <smiles>  (17) 
CCOCCOCCCNCCNc1c2ccccc2[n+](C)c2cccc(OCC)c12

>  <score_type>  (17) 
oracle

>  <origin>  (17) 
adg

>  <m_score__min__energy>  (17) 
-4.75

>  <m_primary>  (17) 
energy

$$$$
17:0
     RDKit          3D

 30 29  0  0  0  0  0  0  0  0999 V2000
   63.3250   33.2190   47.1210 C   0  0  0  0  0  0  0  0  0  0  0  0
   62.1840   33.8380   46.7910 C   0  0  0  0  0  0  0  0  0  0  0  0
   60.8730   33.1420   46.7520 C   0  0  0  0  0  0  0  0  0  0  0  0
   59.7500   33.9930   47.0780 N   0  0  0  0  0  0  0  0  0  0  0  0
   59.9200   34.5870   48.3580 C   0  0  0  0  0  0  0  0  0  0  0  0
   59.7160   33.6490   49.5120 C   0  0  0  0  0  0  0  0  0  0  0  0
   58.5050   33.2550   47.0580 C   0  0  0  0  0  0  0  0  0  0  0  0
   58.6990   31.7830   46.7490 C   0  0  0  0  0  0  0  0  0  0  0  0
   59.6570   34.9790   46.0010 C   0  0  0  0  0  0  0  0  0  0  0  0
   58.7710   34.5640   44.8770 C   0  0  0  0  0  0  0  0  0  0  0  0
   64.2710   33.7801   47.1349 H   0  0  0  0  0  0  0  0  0  0  0  0
   63.3161   32.1495   47.3781 H   0  0  0  0  0  0  0  0  0  0  0  0
   62.2197   34.9079   46.5380 H   0  0  0  0  0  0  0  0  0  0  0  0
   60.7225   32.7425   45.7382 H   0  0  0  0  0  0  0  0  0  0  0  0
   60.9076   32.3510   47.5156 H   0  0  0  0  0  0  0  0  0  0  0  0
   60.9427   34.9877   48.4177 H   0  0  0  0  0  0  0  0  0  0  0  0
   59.1472   35.3648   48.4469 H   0  0  0  0  0  0  0  0  0  0  0  0
   59.8356   34.1990   50.4571 H   0  0  0  0  0  0  0  0  0  0  0  0
   58.7038   33.2212   49.4623 H   0  0  0  0  0  0  0  0  0  0  0  0
   60.4591   32.8395   49.4623 H   0  0  0  0  0  0  0  0  0  0  0  0
   58.0261   33.3469   48.0440 H   0  0  0  0  0  0  0  0  0  0  0  0
   57.8802   33.6814   46.2594 H   0  0  0  0  0  0  0  0  0  0  0  0
   58.7735   31.2176   47.6896 H   0  0  0  0  0  0  0  0  0  0  0  0
   57.8417   31.4145   46.1666 H   0  0  0  0  0  0  0  0  0  0  0  0
   59.6225   31.6492   46.1666 H   0  0  0  0  0  0  0  0  0  0  0  0
   59.2654   35.9165   46.4226 H   0  0  0  0  0  0  0  0  0  0  0  0
   60.6687   35.0932   45.5845 H   0  0  0  0  0  0  0  0  0  0  0  0
   57.8446   34.1301   45.2813 H   0  0  0  0  0  0  0  0  0  0  0  0
   58.5262   35.4411   44.2600 H   0  0  0  0  0  0  0  0  0  0  0  0
   59.2882   33.8144   44.2600 H   0  0  0  0  0  0  0  0  0  0  0  0
  1  2  2  0
  2  3  1  0
  3  4  1  0
  4  5  1  0
  5  6  1  0
  4  7  1  0
  7  8  1  0
  4  9  1  0
  9 10  1  0
  1 11  1  0
  1 12  1  0
  2 13  1  0
  3 14  1  0
  3 15  1  0
  5 16  1  0
  5 17  1  0
  6 18  1  0
  6 19  1  0
  6 20  1  0
  7 21  1  0
  7 22  1  0
  8 23  1  0
  8 24  1  0
  8 25  1  0
  9 26  1  0
  9 27  1  0
 10 28  1  0
 10 29  1  0
 10 30  1  0
M  CHG  1   4   1
M  END
>  <smiles>  (18) 
C=CC[N+](CC)(CC)CC

>  <score_type>  (18) 
oracle

>  <origin>  (18) 
adg

>  <m_score__min__energy>  (18) 
-1.8899999999999999

>  <m_primary>  (18) 
energy

$$$$
