0:0
     RDKit          3D

 72 75  0  0  0  0  0  0  0  0999 V2000
   61.8540   30.3630   49.2600 C   0  0  0  0  0  0  0  0  0  0  0  0
   62.7310   31.6050   49.3610 C   0  0  0  0  0  0  0  0  0  0  0  0
   62.1350   32.7010   48.5520 N   0  0  0  0  0  0  0  0  0  0  0  0
   62.5020   32.5810   47.1210 C   0  0  0  0  0  0  0  0  0  0  0  0
   63.3330   33.7790   46.6650 C   0  0  0  0  0  0  0  0  0  0  0  0
   62.5060   34.0410   49.0650 C   0  0  0  0  0  0  0  0  0  0  0  0
   62.1890   34.1910   50.5570 C   0  0  0  0  0  0  0  0  0  0  0  0
   60.8500   33.7940   50.7810 O   0  0  0  0  0  0  0  0  0  0  0  0
   60.6240   33.4960   52.1470 C   0  0  0  0  0  0  0  0  0  0  0  0
   60.9000   32.0260   52.4790 C   0  0  0  0  0  0  0  0  0  0  0  0
   60.2650   31.1900   51.5190 O   0  0  0  0  0  0  0  0  0  0  0  0
   59.0310   30.7420   51.9400 N   0  0  0  0  0  0  0  0  0  0  0  0
   59.0410   29.3300   52.3510 C   0  0  0  0  0  0  0  0  0  0  0  0
   57.8990   31.1070   51.0590 C   0  0  0  0  0  0  0  0  0  0  0  0
   58.2160   32.3320   50.1930 C   0  0  0  0  0  0  0  0  0  0  0  0
   59.3070   32.0630   49.2580 N   0  0  0  0  0  0  0  0  0  0  0  0
   59.0340   31.9590   47.8570 C   0  0  0  0  0  0  0  0  0  0  0  0
   58.7940   30.7160   47.2840 C   0  0  0  0  0  0  0  0  0  0  0  0
   58.5920   30.5770   45.9220 C   0  0  0  0  0  0  0  0  0  0  0  0
   58.5110   31.6660   45.0910 N   0  0  0  0  0  0  0  0  0  0  0  0
   57.9750   31.5160   43.7310 C   0  0  0  0  0  0  0  0  0  0  0  0
   58.8590   32.9090   45.5960 C   0  0  0  0  0  0  0  0  0  0  0  0
   59.0240   34.0340   44.7530 C   0  0  0  0  0  0  0  0  0  0  0  0
   59.3320   35.2880   45.2830 C   0  0  0  0  0  0  0  0  0  0  0  0
   59.4830   35.4540   46.6570 C   0  0  0  0  0  0  0  0  0  0  0  0
   59.3700   34.3610   47.5130 C   0  0  0  0  0  0  0  0  0  0  0  0
   59.0900   33.0800   47.0020 C   0  0  0  0  0  0  0  0  0  0  0  0
   58.4840   29.1270   45.6220 C   0  0  0  0  0  0  0  0  0  0  0  0
   58.4790   28.4250   44.4070 C   0  0  0  0  0  0  0  0  0  0  0  0
   58.4690   27.0210   44.4410 C   0  0  0  0  0  0  0  0  0  0  0  0
   58.5070   26.3340   45.6690 C   0  0  0  0  0  0  0  0  0  0  0  0
   58.5750   27.0440   46.8770 C   0  0  0  0  0  0  0  0  0  0  0  0
   58.5680   28.4370   46.8230 C   0  0  0  0  0  0  0  0  0  0  0  0
   58.7610   29.3950   47.9010 C   0  0  0  0  0  0  0  0  0  0  0  0
   58.8950   29.1280   49.1250 O   0  0  0  0  0  0  0  0  0  0  0  0
   61.6033   30.0080   50.2705 H   0  0  0  0  0  0  0  0  0  0  0  0
   60.9291   30.6103   48.7183 H   0  0  0  0  0  0  0  0  0  0  0  0
   62.3965   29.5742   48.7183 H   0  0  0  0  0  0  0  0  0  0  0  0
   62.7992   31.9210   50.4124 H   0  0  0  0  0  0  0  0  0  0  0  0
   63.7372   31.3747   48.9808 H   0  0  0  0  0  0  0  0  0  0  0  0
   63.0877   31.6612   46.9760 H   0  0  0  0  0  0  0  0  0  0  0  0
   61.5783   32.5487   46.5245 H   0  0  0  0  0  0  0  0  0  0  0  0
   63.7089   34.3209   47.5454 H   0  0  0  0  0  0  0  0  0  0  0  0
   64.1822   33.4275   46.0606 H   0  0  0  0  0  0  0  0  0  0  0  0
   62.7063   34.4513   46.0606 H   0  0  0  0  0  0  0  0  0  0  0  0
   63.5849   34.1932   48.9138 H   0  0  0  0  0  0  0  0  0  0  0  0
   61.9182   34.7907   48.5151 H   0  0  0  0  0  0  0  0  0  0  0  0
   62.8666   33.5542   51.1447 H   0  0  0  0  0  0  0  0  0  0  0  0
   62.3245   35.2385   50.8643 H   0  0  0  0  0  0  0  0  0  0  0  0
   61.2850   34.1264   52.7599 H   0  0  0  0  0  0  0  0  0  0  0  0
   59.5636   33.6943   52.3619 H   0  0  0  0  0  0  0  0  0  0  0  0
   61.9848   31.8446   52.4612 H   0  0  0  0  0  0  0  0  0  0  0  0
   60.5036   31.7980   53.4794 H   0  0  0  0  0  0  0  0  0  0  0  0
   59.0414   29.2678   53.4492 H   0  0  0  0  0  0  0  0  0  0  0  0
   58.1464   28.8267   51.9556 H   0  0  0  0  0  0  0  0  0  0  0  0
   59.9426   28.8394   51.9556 H   0  0  0  0  0  0  0  0  0  0  0  0
   57.6729   30.2555   50.4003 H   0  0  0  0  0  0  0  0  0  0  0  0
   57.0386   31.3561   51.6974 H   0  0  0  0  0  0  0  0  0  0  0  0
   57.3169   32.6080   49.6225 H   0  0  0  0  0  0  0  0  0  0  0  0
   58.5269   33.1516   50.8575 H   0  0  0  0  0  0  0  0  0  0  0  0
   60.3020   32.0880   49.5730 H   0  0  0  0  0  0  0  0  0  0  0  0
   56.9169   31.2199   43.7845 H   0  0  0  0  0  0  0  0  0  0  0  0
   58.0614   32.4728   43.1952 H   0  0  0  0  0  0  0  0  0  0  0  0
   58.5455   30.7430   43.1952 H   0  0  0  0  0  0  0  0  0  0  0  0
   58.9079   33.9185   43.6653 H   0  0  0  0  0  0  0  0  0  0  0  0
   59.4561   36.1501   44.6112 H   0  0  0  0  0  0  0  0  0  0  0  0
   59.6924   36.4525   47.0683 H   0  0  0  0  0  0  0  0  0  0  0  0
   59.5006   34.5001   48.5963 H   0  0  0  0  0  0  0  0  0  0  0  0
   58.4828   28.9633   43.4477 H   0  0  0  0  0  0  0  0  0  0  0  0
   58.4311   26.4532   43.4996 H   0  0  0  0  0  0  0  0  0  0  0  0
   58.4832   25.2343   45.6815 H   0  0  0  0  0  0  0  0  0  0  0  0
   58.6323   26.5161   47.8403 H   0  0  0  0  0  0  0  0  0  0  0  0
  1  2  1  0
  2  3  1  0
  3  4  1  0
  4  5  1  0
  3  6  1  0
  6  7  1  0
  7  8  1  0
  8  9  1  0
  9 10  1  0
 10 11  1  0
 11 12  1  0
 12 13  1  0
 12 14  1  0
 14 15  1  0
 15 16  1  0
 16 17  1  0
 17 18  2  0
 18 19  1  0
 19 20  2  0
 20 21  1  0
 20 22  1  0
 22 23  2  0
 23 24  1  0
 24 25  2  0
 25 26  1  0
 26 27  2  0
 19 28  1  0
 28 29  2  0
 29 30  1  0
 30 31  2  0
 31 32  1  0
 32 33  2  0
 33 34  1  0
 34 35  2  0
 27 17  1  0
 33 28  1  0
 34 18  1  0
 27 22  1  0
  1 36  1  0
  1 37  1  0
  1 38  1  0
  2 39  1  0
  2 40  1  0
  4 41  1  0
  4 42  1  0
  5 43  1  0
  5 44  1  0
  5 45  1  0
  6 46  1  0
  6 47  1  0
  7 48  1  0
  7 49  1  0
  9 50  1  0
  9 51  1  0
 10 52  1  0
 10 53  1  0
 13 54  1  0
 13 55  1  0
 13 56  1  0
 14 57  1  0
 14 58  1  0
 15 59  1  0
 15 60  1  0
 16 61  1  0
 21 62  1  0
 21 63  1  0
 21 64  1  0
 23 65  1  0
 24 66  1  0
 25 67  1  0
 26 68  1  0
 29 69  1  0
 30 70  1  0
 31 71  1  0
 32 72  1  0
M  CHG  1  20   1
M  END
>  <UniqueID>  (1) 
1

>  <SMILES>  (1) 
CCN(CC)CCOCCON(C)CCNc1c2c([n+](C)c3ccccc13)-c1ccccc1C2=O

>  <Energy>  (1) 
136.82563897402233

>  <Genealogy>  (1) 
CCN(CC)CCOCCON(C)CCNc1c2c([n+](C)c3ccccc13)-c1ccccc1C2=O (3D coordinates assigned)
CCN(CC)CCOCCON(C)CCNc1c2c([n+](C)c3ccccc13)-c1ccccc1C2=O (nonaromatic ring conformer: 136.82563897402233 kcal/mol)

>  <smiles>  (1) 
CCN(CC)CCOCCON(C)CCNc1c2c([n+](C)c3ccccc13)-c1ccccc1C2=O

>  <score_type>  (1) 
oracle

>  <origin>  (1) 
adg

>  <m_score__min__energy>  (1) 
-6.1799999999999997

>  <m_primary>  (1) 
energy

$$$$
1:0
     RDKit          3D

105110  0  0  0  0  0  0  0  0999 V2000
   57.0880   30.0930   44.8340 C   0  0  0  0  0  0  0  0  0  0  0  0
   57.8880   31.2670   45.3680 C   0  0  0  0  0  0  0  0  0  0  0  0
   57.5020   32.5190   44.6700 N   0  0  0  0  0  0  0  0  0  0  0  0
   58.2420   32.7010   43.4100 C   0  0  0  0  0  0  0  0  0  0  0  0
   57.5140   31.9630   42.3050 C   0  0  0  0  0  0  0  0  0  0  0  0
   57.5390   33.7180   45.5370 C   0  0  0  0  0  0  0  0  0  0  0  0
   57.5150   33.4210   47.0500 C   0  0  0  0  0  0  0  0  0  0  0  0
   58.6270   34.0500   47.6630 O   0  0  0  0  0  0  0  0  0  0  0  0
   59.4160   34.7370   46.7130 C   0  0  0  0  0  0  0  0  0  0  0  0
   60.6460   33.9180   46.2800 C   0  0  0  0  0  0  0  0  0  0  0  0
   60.4190   32.5320   46.4630 O   0  0  0  0  0  0  0  0  0  0  0  0
   61.5250   31.9100   47.0860 C   0  0  0  0  0  0  0  0  0  0  0  0
   61.1340   31.5140   48.5090 C   0  0  0  0  0  0  0  0  0  0  0  0
   60.1850   32.4940   49.0790 N   0  0  0  0  0  0  0  0  0  0  0  0
   60.1570   32.4580   50.5260 C   0  0  0  0  0  0  0  0  0  0  0  0
   59.0320   31.9940   51.2350 C   0  0  0  0  0  0  0  0  0  0  0  0
   59.0270   32.1320   52.6440 C   0  0  0  0  0  0  0  0  0  0  0  0
   59.9050   32.9840   53.2490 N   0  0  0  0  0  0  0  0  0  0  0  0
   59.5250   33.7020   54.4660 C   0  0  0  0  0  0  0  0  0  0  0  0
   61.1000   33.2590   52.6250 C   0  0  0  0  0  0  0  0  0  0  0  0
   62.1780   33.8480   53.3350 C   0  0  0  0  0  0  0  0  0  0  0  0
   63.4370   33.9440   52.7470 C   0  0  0  0  0  0  0  0  0  0  0  0
   63.6290   33.5150   51.4400 C   0  0  0  0  0  0  0  0  0  0  0  0
   62.5540   33.0410   50.6820 C   0  0  0  0  0  0  0  0  0  0  0  0
   61.2730   32.9230   51.2620 C   0  0  0  0  0  0  0  0  0  0  0  0
   58.2930   31.1110   53.4290 C   0  0  0  0  0  0  0  0  0  0  0  0
   58.8390   30.6170   54.6170 C   0  0  0  0  0  0  0  0  0  0  0  0
   58.4040   29.3980   55.1470 C   0  0  0  0  0  0  0  0  0  0  0  0
   57.3770   28.6870   54.5240 C   0  0  0  0  0  0  0  0  0  0  0  0
   57.0330   27.4330   55.0530 O   0  0  0  0  0  0  0  0  0  0  0  0
   55.8880   26.6700   54.6690 C   0  0  0  0  0  0  0  0  0  0  0  0
   54.6100   27.0490   55.4610 C   0  0  0  0  0  0  0  0  0  0  0  0
   53.6730   28.0530   54.8450 N   0  0  2  0  0  0  0  0  0  0  0  0
   54.1360   29.4070   55.2480 C   0  0  0  0  0  0  0  0  0  0  0  0
   53.2630   30.5100   54.6120 C   0  0  0  0  0  0  0  0  0  0  0  0
   52.1540   29.9020   53.8230 N   0  0  2  0  0  0  0  0  0  0  0  0
   51.3000   30.9440   53.1930 C   0  0  0  0  0  0  0  0  0  0  0  0
   51.9640   31.6940   52.0770 C   0  0  0  0  0  0  0  0  0  0  0  0
   51.2070   32.5790   51.2680 N   0  0  0  0  0  0  0  0  0  0  0  0
   53.2050   31.6130   51.9090 O   0  0  0  0  0  0  0  0  0  0  0  0
   51.3610   29.0230   54.7300 C   0  0  0  0  0  0  0  0  0  0  0  0
   52.2540   27.8800   55.2800 C   0  0  0  0  0  0  0  0  0  0  0  0
   52.7530   29.0620   52.7510 C   0  0  0  0  0  0  0  0  0  0  0  0
   53.7070   27.9930   53.3560 C   0  0  0  0  0  0  0  0  0  0  0  0
   56.7510   29.2290   53.3830 C   0  0  0  0  0  0  0  0  0  0  0  0
   57.2380   30.4220   52.8210 C   0  0  0  0  0  0  0  0  0  0  0  0
   56.7330   30.9270   51.4990 C   0  0  0  0  0  0  0  0  0  0  0  0
   57.9210   31.1890   50.5640 C   0  0  0  0  0  0  0  0  0  0  0  0
   56.6892   29.5078   45.6758 H   0  0  0  0  0  0  0  0  0  0  0  0
   56.2553   30.4659   44.2196 H   0  0  0  0  0  0  0  0  0  0  0  0
   57.7397   29.4544   44.2196 H   0  0  0  0  0  0  0  0  0  0  0  0
   57.6932   31.3780   46.4449 H   0  0  0  0  0  0  0  0  0  0  0  0
   58.9575   31.0776   45.1939 H   0  0  0  0  0  0  0  0  0  0  0  0
   58.2973   33.7720   43.1652 H   0  0  0  0  0  0  0  0  0  0  0  0
   59.2624   32.3039   43.5153 H   0  0  0  0  0  0  0  0  0  0  0  0
   56.8067   31.2459   42.7472 H   0  0  0  0  0  0  0  0  0  0  0  0
   56.9640   32.6844   41.6828 H   0  0  0  0  0  0  0  0  0  0  0  0
   58.2428   31.4229   41.6828 H   0  0  0  0  0  0  0  0  0  0  0  0
   58.4604   34.2751   45.3119 H   0  0  0  0  0  0  0  0  0  0  0  0
   56.6239   34.2877   45.3180 H   0  0  0  0  0  0  0  0  0  0  0  0
   56.5839   33.8107   47.4873 H   0  0  0  0  0  0  0  0  0  0  0  0
   57.5656   32.3347   47.2156 H   0  0  0  0  0  0  0  0  0  0  0  0
   58.8001   34.9476   45.8263 H   0  0  0  0  0  0  0  0  0  0  0  0
   59.7751   35.6662   47.1796 H   0  0  0  0  0  0  0  0  0  0  0  0
   60.8522   34.1121   45.2171 H   0  0  0  0  0  0  0  0  0  0  0  0
   61.5045   34.2187   46.8985 H   0  0  0  0  0  0  0  0  0  0  0  0
   61.8116   31.0123   46.5186 H   0  0  0  0  0  0  0  0  0  0  0  0
   62.3767   32.6056   47.1137 H   0  0  0  0  0  0  0  0  0  0  0  0
   60.6611   30.5210   48.4910 H   0  0  0  0  0  0  0  0  0  0  0  0
   62.0396   31.4926   49.1330 H   0  0  0  0  0  0  0  0  0  0  0  0
   59.2340   32.3070   48.6960 H   0  0  0  0  0  0  0  0  0  0  0  0
   60.4160   33.4610   48.7630 H   0  0  0  0  0  0  0  0  0  0  0  0
   59.8333   33.1195   55.3467 H   0  0  0  0  0  0  0  0  0  0  0  0
   60.0219   34.6832   54.4831 H   0  0  0  0  0  0  0  0  0  0  0  0
   58.4342   33.8430   54.4831 H   0  0  0  0  0  0  0  0  0  0  0  0
   62.0188   34.2304   54.3540 H   0  0  0  0  0  0  0  0  0  0  0  0
   64.2800   34.3600   53.3183 H   0  0  0  0  0  0  0  0  0  0  0  0
   64.6355   33.5484   50.9974 H   0  0  0  0  0  0  0  0  0  0  0  0
   62.7073   32.7591   49.6299 H   0  0  0  0  0  0  0  0  0  0  0  0
   59.6176   31.1920   55.1397 H   0  0  0  0  0  0  0  0  0  0  0  0
   58.8729   28.9981   56.0581 H   0  0  0  0  0  0  0  0  0  0  0  0
   55.6988   26.8376   53.5984 H   0  0  0  0  0  0  0  0  0  0  0  0
   56.1087   25.6149   54.8885 H   0  0  0  0  0  0  0  0  0  0  0  0
   54.0382   26.1234   55.6231 H   0  0  0  0  0  0  0  0  0  0  0  0
   54.9844   27.5419   56.3703 H   0  0  0  0  0  0  0  0  0  0  0  0
   54.0811   29.4934   56.3432 H   0  0  0  0  0  0  0  0  0  0  0  0
   55.1708   29.5385   54.8990 H   0  0  0  0  0  0  0  0  0  0  0  0
   52.8391   31.1408   55.4072 H   0  0  0  0  0  0  0  0  0  0  0  0
   53.8876   31.1181   53.9411 H   0  0  0  0  0  0  0  0  0  0  0  0
   50.3997   30.4555   52.7920 H   0  0  0  0  0  0  0  0  0  0  0  0
   51.0728   31.6815   53.9769 H   0  0  0  0  0  0  0  0  0  0  0  0
   50.2790   32.2970   50.8750 H   0  0  0  0  0  0  0  0  0  0  0  0
   50.9758   29.6199   55.5698 H   0  0  0  0  0  0  0  0  0  0  0  0
   50.5237   28.5860   54.1662 H   0  0  0  0  0  0  0  0  0  0  0  0
   52.2112   27.8872   56.3791 H   0  0  0  0  0  0  0  0  0  0  0  0
   51.8808   26.9231   54.8862 H   0  0  0  0  0  0  0  0  0  0  0  0
   51.9484   28.5556   52.1976 H   0  0  0  0  0  0  0  0  0  0  0  0
   53.3319   29.7103   52.0768 H   0  0  0  0  0  0  0  0  0  0  0  0
   53.3880   26.9934   53.0257 H   0  0  0  0  0  0  0  0  0  0  0  0
   54.7327   28.1936   53.0131 H   0  0  0  0  0  0  0  0  0  0  0  0
   55.8850   28.7204   52.9343 H   0  0  0  0  0  0  0  0  0  0  0  0
   56.0703   30.1739   51.0477 H   0  0  0  0  0  0  0  0  0  0  0  0
   56.1743   31.8620   51.6528 H   0  0  0  0  0  0  0  0  0  0  0  0
   58.3335   30.2223   50.2395 H   0  0  0  0  0  0  0  0  0  0  0  0
   57.5504   31.7791   49.7128 H   0  0  0  0  0  0  0  0  0  0  0  0
  1  2  1  0
  2  3  1  0
  3  4  1  0
  4  5  1  0
  3  6  1  0
  6  7  1  0
  7  8  1  0
  8  9  1  0
  9 10  1  0
 10 11  1  0
 11 12  1  0
 12 13  1  0
 13 14  1  0
 14 15  1  0
 15 16  2  0
 16 17  1  0
 17 18  2  0
 18 19  1  0
 18 20  1  0
 20 21  2  0
 21 22  1  0
 22 23  2  0
 23 24  1  0
 24 25  2  0
 17 26  1  0
 26 27  2  0
 27 28  1  0
 28 29  2  0
 29 30  1  0
 30 31  1  0
 31 32  1  0
 33 32  1  1
 33 34  1  0
 34 35  1  0
 35 36  1  0
 36 37  1  6
 37 38  1  0
 38 39  1  0
 38 40  2  0
 36 41  1  0
 41 42  1  0
 36 43  1  0
 43 44  1  0
 29 45  1  0
 45 46  2  0
 46 47  1  0
 47 48  1  0
 25 15  1  0
 46 26  1  0
 48 16  1  0
 25 20  1  0
 42 33  1  0
 44 33  1  0
  1 49  1  0
  1 50  1  0
  1 51  1  0
  2 52  1  0
  2 53  1  0
  4 54  1  0
  4 55  1  0
  5 56  1  0
  5 57  1  0
  5 58  1  0
  6 59  1  0
  6 60  1  0
  7 61  1  0
  7 62  1  0
  9 63  1  0
  9 64  1  0
 10 65  1  0
 10 66  1  0
 12 67  1  0
 12 68  1  0
 13 69  1  0
 13 70  1  0
 14 71  1  0
 14 72  1  0
 19 73  1  0
 19 74  1  0
 19 75  1  0
 21 76  1  0
 22 77  1  0
 23 78  1  0
 24 79  1  0
 27 80  1  0
 28 81  1  0
 31 82  1  0
 31 83  1  0
 32 84  1  0
 32 85  1  0
 34 86  1  0
 34 87  1  0
 35 88  1  0
 35 89  1  0
 37 90  1  0
 37 91  1  0
 39 92  1  0
 41 93  1  0
 41 94  1  0
 42 95  1  0
 42 96  1  0
 43 97  1  0
 43 98  1  0
 44 99  1  0
 44100  1  0
 45101  1  0
 47102  1  0
 47103  1  0
 48104  1  0
 48105  1  0
M  CHG  5  14   1  18   1  33   1  36   1  39  -1
M  END
>  <UniqueID>  (2) 
2

>  <SMILES>  (2) 
CCN(CC)CCOCCOCC[NH2+]c1c2c([n+](C)c3ccccc13)-c1ccc(OCC[N+]34CC[N+](CC([NH-])=O)(CC3)CC4)cc1CC2

>  <Energy>  (2) 
189.11767489995594

>  <Genealogy>  (2) 
CCN(CC)CCOCCOCC[NH2+]c1c2c([n+](C)c3ccccc13)-c1ccc(OCC[N+]34CC[N+](CC([NH-])=O)(CC3)CC4)cc1CC2 (protonated)
CCN(CC)CCOCCOCC[NH2+]c1c2c([n+](C)c3ccccc13)-c1ccc(OCC[N+]34CC[N+](CC([NH-])=O)(CC3)CC4)cc1CC2 (3D coordinates assigned)
CCN(CC)CCOCCOCC[NH2+]c1c2c([n+](C)c3ccccc13)-c1ccc(OCC[N+]34CC[N+](CC([NH-])=O)(CC3)CC4)cc1CC2 (nonaromatic ring conformer: 189.11767489995594 kcal/mol)

>  <smiles>  (2) 
CCN(CC)CCOCCOCCNc1c2c([n+](C)c3ccccc13)-c1ccc(OCC[N+]34CC[N+](CC(N)=O)(CC3)CC4)cc1CC2

>  <score_type>  (2) 
oracle

>  <origin>  (2) 
adg

>  <m_score__min__energy>  (2) 
-7.4800000000000004

>  <m_primary>  (2) 
energy

$$$$
2:0
     RDKit          3D

 37 40  0  0  0  0  0  0  0  0999 V2000
   56.6240   30.2280   42.6180 C   0  0  0  0  0  0  0  0  0  0  0  0
   57.2750   31.0590   43.6220 N   0  0  0  0  0  0  0  0  0  0  0  0
   57.5900   30.6730   44.8770 C   0  0  0  0  0  0  0  0  0  0  0  0
   58.1340   31.7630   45.5170 C   0  0  0  0  0  0  0  0  0  0  0  0
   58.0820   32.7860   44.6050 C   0  0  0  0  0  0  0  0  0  0  0  0
   57.5640   32.3420   43.4440 N   0  0  0  0  0  0  0  0  0  0  0  0
   58.6200   34.1560   44.8680 C   0  0  0  0  0  0  0  0  0  0  0  0
   58.7080   34.4060   46.3860 C   0  0  0  0  0  0  0  0  0  0  0  0
   59.2590   33.2290   47.0830 N   0  0  0  0  0  0  0  0  0  0  0  0
   60.1470   33.4280   48.1890 C   0  0  0  0  0  0  0  0  0  0  0  0
   59.6530   33.6280   49.4470 N   0  0  0  0  0  0  0  0  0  0  0  0
   60.4920   33.8370   50.5060 C   0  0  0  0  0  0  0  0  0  0  0  0
   61.8410   33.8630   50.3190 N   0  0  0  0  0  0  0  0  0  0  0  0
   62.3450   33.6710   49.0750 C   0  0  0  0  0  0  0  0  0  0  0  0
   61.5310   33.4500   48.0030 C   0  0  0  0  0  0  0  0  0  0  0  0
   62.2970   33.3210   46.7420 C   0  0  0  0  0  0  0  0  0  0  0  0
   63.7640   33.5290   47.1770 C   0  0  0  0  0  0  0  0  0  0  0  0
   63.7760   33.7070   48.7090 C   0  0  0  0  0  0  0  0  0  0  0  0
   58.6080   31.9180   46.9240 C   0  0  0  0  0  0  0  0  0  0  0  0
   56.0194   29.4562   43.1168 H   0  0  0  0  0  0  0  0  0  0  0  0
   55.9735   30.8540   41.9896 H   0  0  0  0  0  0  0  0  0  0  0  0
   57.3876   29.7463   41.9896 H   0  0  0  0  0  0  0  0  0  0  0  0
   57.4396   29.6722   45.3081 H   0  0  0  0  0  0  0  0  0  0  0  0
   59.6232   34.2444   44.4256 H   0  0  0  0  0  0  0  0  0  0  0  0
   57.9467   34.9005   44.4182 H   0  0  0  0  0  0  0  0  0  0  0  0
   59.3605   35.2720   46.5710 H   0  0  0  0  0  0  0  0  0  0  0  0
   57.6951   34.5987   46.7693 H   0  0  0  0  0  0  0  0  0  0  0  0
   58.6210   33.6170   49.6090 H   0  0  0  0  0  0  0  0  0  0  0  0
   60.0759   33.9848   51.5135 H   0  0  0  0  0  0  0  0  0  0  0  0
   62.1575   32.3237   46.2994 H   0  0  0  0  0  0  0  0  0  0  0  0
   61.9756   34.0404   45.9744 H   0  0  0  0  0  0  0  0  0  0  0  0
   64.3662   32.6522   46.8966 H   0  0  0  0  0  0  0  0  0  0  0  0
   64.1917   34.4134   46.6822 H   0  0  0  0  0  0  0  0  0  0  0  0
   64.3263   32.8879   49.1951 H   0  0  0  0  0  0  0  0  0  0  0  0
   64.2751   34.6341   49.0273 H   0  0  0  0  0  0  0  0  0  0  0  0
   59.3286   31.1204   47.1577 H   0  0  0  0  0  0  0  0  0  0  0  0
   57.7498   31.8503   47.6087 H   0  0  0  0  0  0  0  0  0  0  0  0
  1  2  1  0
  2  3  1  0
  3  4  2  0
  4  5  1  0
  5  6  2  0
  5  7  1  0
  7  8  1  0
  8  9  1  0
  9 10  1  0
 10 11  2  0
 11 12  1  0
 12 13  2  0
 13 14  1  0
 14 15  2  0
 15 16  1  0
 16 17  1  0
 17 18  1  0
  9 19  1  0
  6  2  1  0
 15 10  1  0
 19  4  1  0
 18 14  1  0
  1 20  1  0
  1 21  1  0
  1 22  1  0
  3 23  1  0
  7 24  1  0
  7 25  1  0
  8 26  1  0
  8 27  1  0
 11 28  1  0
 12 29  1  0
 16 30  1  0
 16 31  1  0
 17 32  1  0
 17 33  1  0
 18 34  1  0
 18 35  1  0
 19 36  1  0
 19 37  1  0
M  CHG  1  11   1
M  END
>  <UniqueID>  (3) 
3

>  <SMILES>  (3) 
Cn1cc2c(n1)CCN(c1[nH+]cnc3c1CCC3)C2

>  <Energy>  (3) 
84.66467723243026

>  <Genealogy>  (3) 
Cn1cc2c(n1)CCN(c1[nH+]cnc3c1CCC3)C2 (protonated)
Cn1cc2c(n1)CCN(c1[nH+]cnc3c1CCC3)C2 (3D coordinates assigned)
Cn1cc2c(n1)CCN(c1[nH+]cnc3c1CCC3)C2 (nonaromatic ring conformer: 84.66467723243026 kcal/mol)

>  <smiles>  (3) 
Cn1cc2c(n1)CCN(c1ncnc3c1CCC3)C2

>  <score_type>  (3) 
oracle

>  <origin>  (3) 
adg

>  <m_score__min__energy>  (3) 
-5.4199999999999999

>  <m_primary>  (3) 
energy

$$$$
3:0
     RDKit          3D

 43 44  0  0  0  0  0  0  0  0999 V2000
   63.3870   33.7730   46.7270 C   0  0  0  0  0  0  0  0  0  0  0  0
   62.0460   33.1910   47.1630 C   0  0  0  0  0  0  0  0  0  0  0  0
   60.8840   33.8550   46.4120 C   0  0  0  0  0  0  0  0  0  0  0  0
   59.7740   34.3570   47.3520 C   0  0  0  0  0  0  0  0  0  0  0  0
   58.3550   33.9480   46.9050 C   0  0  0  0  0  0  0  0  0  0  0  0
   58.0980   34.2640   45.4260 C   0  0  0  0  0  0  0  0  0  0  0  0
   57.1060   33.3470   44.8710 N   0  0  0  0  0  0  0  0  0  0  0  0
   57.3970   31.9610   44.6600 C   0  0  0  0  0  0  0  0  0  0  0  0
   57.4720   31.0610   45.6090 O   0  0  0  0  0  0  0  0  0  0  0  0
   57.7640   29.9130   45.0310 C   0  0  0  0  0  0  0  0  0  0  0  0
   57.9300   28.6310   45.7660 C   0  0  0  0  0  0  0  0  0  0  0  0
   56.9530   27.6280   45.6180 C   0  0  0  0  0  0  0  0  0  0  0  0
   57.0580   26.4200   46.3100 C   0  0  0  0  0  0  0  0  0  0  0  0
   58.1360   26.1930   47.1610 C   0  0  0  0  0  0  0  0  0  0  0  0
   59.1170   27.1720   47.3230 C   0  0  0  0  0  0  0  0  0  0  0  0
   59.0370   28.3920   46.6270 C   0  0  0  0  0  0  0  0  0  0  0  0
   60.1330   29.4060   46.8230 C   0  0  0  0  0  0  0  0  0  0  0  0
   57.8820   30.0470   43.6890 N   0  0  0  0  0  0  0  0  0  0  0  0
   57.6490   31.3490   43.4550 C   0  0  0  0  0  0  0  0  0  0  0  0
   57.6800   31.9650   42.1560 C   0  0  0  0  0  0  0  0  0  0  0  0
   57.7050   32.4620   41.1100 N   0  0  0  0  0  0  0  0  0  0  0  0
   63.9812   34.0309   47.6160 H   0  0  0  0  0  0  0  0  0  0  0  0
   63.9309   33.0300   46.1253 H   0  0  0  0  0  0  0  0  0  0  0  0
   63.2158   34.6778   46.1253 H   0  0  0  0  0  0  0  0  0  0  0  0
   62.0382   32.1111   46.9539 H   0  0  0  0  0  0  0  0  0  0  0  0
   61.9179   33.3779   48.2394 H   0  0  0  0  0  0  0  0  0  0  0  0
   61.2767   34.7110   45.8436 H   0  0  0  0  0  0  0  0  0  0  0  0
   60.4398   33.0953   45.7520 H   0  0  0  0  0  0  0  0  0  0  0  0
   59.9550   33.9445   48.3555 H   0  0  0  0  0  0  0  0  0  0  0  0
   59.8124   35.4562   47.3387 H   0  0  0  0  0  0  0  0  0  0  0  0
   58.2324   32.8662   47.0623 H   0  0  0  0  0  0  0  0  0  0  0  0
   57.6340   34.5246   47.5030 H   0  0  0  0  0  0  0  0  0  0  0  0
   57.7275   35.2958   45.3355 H   0  0  0  0  0  0  0  0  0  0  0  0
   59.0396   34.1485   44.8691 H   0  0  0  0  0  0  0  0  0  0  0  0
   56.1840   33.7300   44.5610 H   0  0  0  0  0  0  0  0  0  0  0  0
   56.0966   27.7983   44.9490 H   0  0  0  0  0  0  0  0  0  0  0  0
   56.2871   25.6458   46.1825 H   0  0  0  0  0  0  0  0  0  0  0  0
   58.2146   25.2409   47.7063 H   0  0  0  0  0  0  0  0  0  0  0  0
   59.9623   26.9878   48.0024 H   0  0  0  0  0  0  0  0  0  0  0  0
   60.3008   29.5612   47.8990 H   0  0  0  0  0  0  0  0  0  0  0  0
   61.0593   29.0395   46.3566 H   0  0  0  0  0  0  0  0  0  0  0  0
   59.8395   30.3580   46.3566 H   0  0  0  0  0  0  0  0  0  0  0  0
   58.1260   29.3160   42.9830 H   0  0  0  0  0  0  0  0  0  0  0  0
  1  2  1  0
  2  3  1  0
  3  4  1  0
  4  5  1  0
  5  6  1  0
  6  7  1  0
  7  8  1  0
  8  9  1  0
  9 10  1  0
 10 11  1  0
 11 12  2  0
 12 13  1  0
 13 14  2  0
 14 15  1  0
 15 16  2  0
 16 17  1  0
 10 18  2  0
 18 19  1  0
 19 20  1  0
 20 21  3  0
 19  8  2  0
 16 11  1  0
  1 22  1  0
  1 23  1  0
  1 24  1  0
  2 25  1  0
  2 26  1  0
  3 27  1  0
  3 28  1  0
  4 29  1  0
  4 30  1  0
  5 31  1  0
  5 32  1  0
  6 33  1  0
  6 34  1  0
  7 35  1  0
 12 36  1  0
 13 37  1  0
 14 38  1  0
 15 39  1  0
 17 40  1  0
 17 41  1  0
 17 42  1  0
 18 43  1  0
M  CHG  1  18   1
M  END
>  <UniqueID>  (4) 
4

>  <SMILES>  (4) 
CCCCCCNc1oc(-c2ccccc2C)[nH+]c1C#N

>  <Energy>  (4) 
67.19633571298587

>  <Genealogy>  (4) 
CCCCCCNc1oc(-c2ccccc2C)[nH+]c1C#N (protonated)
CCCCCCNc1oc(-c2ccccc2C)[nH+]c1C#N (3D coordinates assigned)
CCCCCCNc1oc(-c2ccccc2C)[nH+]c1C#N (optimized conformer: 67.19633571298587 kcal/mol)

>  <smiles>  (4) 
CCCCCCNc1oc(-c2ccccc2C)nc1C#N

>  <score_type>  (4) 
oracle

>  <origin>  (4) 
adg

>  <m_score__min__energy>  (4) 
-5.9400000000000004

>  <m_primary>  (4) 
energy

$$$$
4:0
     RDKit          3D

 79 81  0  0  0  0  0  0  0  0999 V2000
   66.9700   32.8440   50.3430 C   0  0  0  0  0  0  0  0  0  0  0  0
   65.9310   31.7170   50.4720 C   0  0  0  0  0  0  0  0  0  0  0  0
   66.2380   30.6810   51.5090 N   0  0  0  0  0  0  0  0  0  0  0  0
   66.9390   31.3150   52.6580 C   0  0  0  0  0  0  0  0  0  0  0  0
   67.1740   29.6940   50.9140 C   0  0  0  0  0  0  0  0  0  0  0  0
   65.0240   29.9800   52.0390 C   0  0  0  0  0  0  0  0  0  0  0  0
   64.2990   30.7080   53.1990 C   0  0  0  0  0  0  0  0  0  0  0  0
   62.8170   30.3170   53.3150 C   0  0  0  0  0  0  0  0  0  0  0  0
   61.9020   31.5190   53.6180 C   0  0  0  0  0  0  0  0  0  0  0  0
   61.4130   32.2570   52.3570 C   0  0  0  0  0  0  0  0  0  0  0  0
   60.1270   31.7210   51.6590 C   0  0  0  0  0  0  0  0  0  0  0  0
   59.0610   32.7110   51.2740 N   0  0  0  0  0  0  0  0  0  0  0  0
   57.7620   31.9970   51.4220 C   0  0  0  0  0  0  0  0  0  0  0  0
   59.0650   33.8700   52.2070 C   0  0  0  0  0  0  0  0  0  0  0  0
   59.2580   33.1450   49.8490 C   0  0  0  0  0  0  0  0  0  0  0  0
   58.2970   32.5470   48.7820 C   0  0  0  0  0  0  0  0  0  0  0  0
   58.6080   32.9910   47.3410 C   0  0  0  0  0  0  0  0  0  0  0  0
   59.6260   32.1290   46.7200 N   0  0  0  0  0  0  0  0  0  0  0  0
   59.2240   30.9510   45.9880 C   0  0  0  0  0  0  0  0  0  0  0  0
   58.3160   31.1100   44.9230 C   0  0  0  0  0  0  0  0  0  0  0  0
   57.8900   30.0180   44.1720 C   0  0  0  0  0  0  0  0  0  0  0  0
   58.3570   28.7430   44.4690 C   0  0  0  0  0  0  0  0  0  0  0  0
   59.2460   28.5540   45.5250 C   0  0  0  0  0  0  0  0  0  0  0  0
   59.6840   29.6350   46.3140 C   0  0  0  0  0  0  0  0  0  0  0  0
   60.6600   29.2830   47.4310 C   0  0  0  0  0  0  0  0  0  0  0  0
   60.8580   30.3330   48.5280 C   0  0  0  0  0  0  0  0  0  0  0  0
   61.6250   31.5010   47.9830 C   0  0  0  0  0  0  0  0  0  0  0  0
   62.9680   31.7160   48.3310 C   0  0  0  0  0  0  0  0  0  0  0  0
   63.6790   32.7770   47.7620 C   0  0  0  0  0  0  0  0  0  0  0  0
   63.0600   33.6140   46.8300 C   0  0  0  0  0  0  0  0  0  0  0  0
   61.7260   33.3970   46.4720 C   0  0  0  0  0  0  0  0  0  0  0  0
   61.0050   32.3400   47.0500 C   0  0  0  0  0  0  0  0  0  0  0  0
   67.2766   33.1766   51.3457 H   0  0  0  0  0  0  0  0  0  0  0  0
   67.8485   32.4719   49.7955 H   0  0  0  0  0  0  0  0  0  0  0  0
   66.5278   33.6894   49.7955 H   0  0  0  0  0  0  0  0  0  0  0  0
   64.9628   32.1742   50.7242 H   0  0  0  0  0  0  0  0  0  0  0  0
   65.9307   31.1907   49.5061 H   0  0  0  0  0  0  0  0  0  0  0  0
   66.5177   30.9340   53.6000 H   0  0  0  0  0  0  0  0  0  0  0  0
   68.0112   31.0737   52.6117 H   0  0  0  0  0  0  0  0  0  0  0  0
   66.8063   32.4060   52.6117 H   0  0  0  0  0  0  0  0  0  0  0  0
   67.6912   29.1487   51.7172 H   0  0  0  0  0  0  0  0  0  0  0  0
   66.6105   28.9830   50.2920 H   0  0  0  0  0  0  0  0  0  0  0  0
   67.9139   30.2191   50.2920 H   0  0  0  0  0  0  0  0  0  0  0  0
   64.3095   29.8625   51.2109 H   0  0  0  0  0  0  0  0  0  0  0  0
   65.3779   29.0235   52.4511 H   0  0  0  0  0  0  0  0  0  0  0  0
   64.8040   30.4548   54.1428 H   0  0  0  0  0  0  0  0  0  0  0  0
   64.3410   31.7871   52.9899 H   0  0  0  0  0  0  0  0  0  0  0  0
   62.4981   29.8638   52.3648 H   0  0  0  0  0  0  0  0  0  0  0  0
   62.7261   29.6128   54.1551 H   0  0  0  0  0  0  0  0  0  0  0  0
   61.0231   31.1560   54.1710 H   0  0  0  0  0  0  0  0  0  0  0  0
   62.4967   32.2374   54.2012 H   0  0  0  0  0  0  0  0  0  0  0  0
   61.2216   33.3023   52.6412 H   0  0  0  0  0  0  0  0  0  0  0  0
   62.2141   32.1074   51.6182 H   0  0  0  0  0  0  0  0  0  0  0  0
   60.4448   31.2095   50.7384 H   0  0  0  0  0  0  0  0  0  0  0  0
   59.6481   31.0874   52.4200 H   0  0  0  0  0  0  0  0  0  0  0  0
   57.5326   31.8709   52.4904 H   0  0  0  0  0  0  0  0  0  0  0  0
   56.9645   32.5835   50.9425 H   0  0  0  0  0  0  0  0  0  0  0  0
   57.8297   31.0094   50.9425 H   0  0  0  0  0  0  0  0  0  0  0  0
   59.0637   33.5053   53.2448 H   0  0  0  0  0  0  0  0  0  0  0  0
   59.9652   34.4777   52.0330 H   0  0  0  0  0  0  0  0  0  0  0  0
   58.1690   34.4839   52.0330 H   0  0  0  0  0  0  0  0  0  0  0  0
   59.1463   34.2389   49.8183 H   0  0  0  0  0  0  0  0  0  0  0  0
   60.2544   32.7687   49.5743 H   0  0  0  0  0  0  0  0  0  0  0  0
   58.3673   31.4503   48.8289 H   0  0  0  0  0  0  0  0  0  0  0  0
   57.2885   32.9170   49.0186 H   0  0  0  0  0  0  0  0  0  0  0  0
   57.6852   32.9414   46.7444 H   0  0  0  0  0  0  0  0  0  0  0  0
   58.9983   34.0189   47.3728 H   0  0  0  0  0  0  0  0  0  0  0  0
   57.9372   32.1139   44.6806 H   0  0  0  0  0  0  0  0  0  0  0  0
   57.1828   30.1644   43.3423 H   0  0  0  0  0  0  0  0  0  0  0  0
   58.0244   27.8825   43.8699 H   0  0  0  0  0  0  0  0  0  0  0  0
   59.6128   27.5409   45.7466 H   0  0  0  0  0  0  0  0  0  0  0  0
   60.2978   28.3625   47.9122 H   0  0  0  0  0  0  0  0  0  0  0  0
   61.6399   29.1900   46.9398 H   0  0  0  0  0  0  0  0  0  0  0  0
   59.8762   30.6762   48.8860 H   0  0  0  0  0  0  0  0  0  0  0  0
   61.4213   29.8859   49.3603 H   0  0  0  0  0  0  0  0  0  0  0  0
   63.4618   31.0486   49.0526 H   0  0  0  0  0  0  0  0  0  0  0  0
   64.7264   32.9529   48.0483 H   0  0  0  0  0  0  0  0  0  0  0  0
   63.6225   34.4441   46.3777 H   0  0  0  0  0  0  0  0  0  0  0  0
   61.2407   34.0553   45.7364 H   0  0  0  0  0  0  0  0  0  0  0  0
  1  2  1  0
  2  3  1  0
  3  4  1  0
  3  5  1  0
  3  6  1  0
  6  7  1  0
  7  8  1  0
  8  9  1  0
  9 10  1  0
 10 11  1  0
 11 12  1  0
 12 13  1  0
 12 14  1  0
 12 15  1  0
 15 16  1  0
 16 17  1  0
 17 18  1  0
 18 19  1  0
 19 20  2  0
 20 21  1  0
 21 22  2  0
 22 23  1  0
 23 24  2  0
 24 25  1  0
 25 26  1  0
 26 27  1  0
 27 28  2  0
 28 29  1  0
 29 30  2  0
 30 31  1  0
 31 32  2  0
 32 18  1  0
 24 19  1  0
 32 27  1  0
  1 33  1  0
  1 34  1  0
  1 35  1  0
  2 36  1  0
  2 37  1  0
  4 38  1  0
  4 39  1  0
  4 40  1  0
  5 41  1  0
  5 42  1  0
  5 43  1  0
  6 44  1  0
  6 45  1  0
  7 46  1  0
  7 47  1  0
  8 48  1  0
  8 49  1  0
  9 50  1  0
  9 51  1  0
 10 52  1  0
 10 53  1  0
 11 54  1  0
 11 55  1  0
 13 56  1  0
 13 57  1  0
 13 58  1  0
 14 59  1  0
 14 60  1  0
 14 61  1  0
 15 62  1  0
 15 63  1  0
 16 64  1  0
 16 65  1  0
 17 66  1  0
 17 67  1  0
 20 68  1  0
 21 69  1  0
 22 70  1  0
 23 71  1  0
 25 72  1  0
 25 73  1  0
 26 74  1  0
 26 75  1  0
 28 76  1  0
 29 77  1  0
 30 78  1  0
 31 79  1  0
M  CHG  2   3   1  12   1
M  END
>  <UniqueID>  (5) 
5

>  <SMILES>  (5) 
CC[N+](C)(C)CCCCCC[N+](C)(C)CCCN1c2ccccc2CCc2ccccc21

>  <Energy>  (5) 
119.75563156086294

>  <Genealogy>  (5) 
CC[N+](C)(C)CCCCCC[N+](C)(C)CCCN1c2ccccc2CCc2ccccc21 (3D coordinates assigned)
CC[N+](C)(C)CCCCCC[N+](C)(C)CCCN1c2ccccc2CCc2ccccc21 (nonaromatic ring conformer: 119.75563156086294 kcal/mol)

>  <smiles>  (5) 
CC[N+](C)(C)CCCCCC[N+](C)(C)CCCN1c2ccccc2CCc2ccccc21

>  <score_type>  (5) 
oracle

>  <origin>  (5) 
adg

>  <m_score__min__energy>  (5) 
-2.9900000000000002

>  <m_primary>  (5) 
energy

$$$$
5:0
     RDKit          3D

 54 58  0  0  0  0  0  0  0  0999 V2000
   60.3700   29.3850   45.4730 C   0  0  0  0  0  0  0  0  0  0  0  0
   59.3140   28.5700   46.0750 N   0  0  0  0  0  0  0  0  0  0  0  0
   58.3390   27.8880   45.4400 C   0  0  0  0  0  0  0  0  0  0  0  0
   58.2350   27.6270   43.6650 S   0  0  0  0  0  0  0  0  0  0  0  0
   57.0960   29.0190   43.3280 C   0  0  0  0  0  0  0  0  0  0  0  0
   57.1070   30.0680   44.4470 C   0  0  0  0  0  0  0  0  0  0  0  0
   57.8140   31.3760   43.9950 C   0  0  0  0  0  0  0  0  0  0  0  0
   57.8340   32.4460   45.0160 N   0  0  0  0  0  0  0  0  0  0  0  0
   58.3610   33.7350   44.5360 C   0  0  0  0  0  0  0  0  0  0  0  0
   59.1940   34.3480   45.6480 C   0  0  1  0  0  0  0  0  0  0  0  0
   58.4770   34.6030   46.9650 C   0  0  0  0  0  0  0  0  0  0  0  0
   59.2680   33.3160   46.7500 C   0  0  2  0  0  0  0  0  0  0  0  0
   60.6140   33.1770   47.4110 C   0  0  0  0  0  0  0  0  0  0  0  0
   61.5950   32.3540   46.8380 C   0  0  0  0  0  0  0  0  0  0  0  0
   62.8400   32.2010   47.4540 C   0  0  0  0  0  0  0  0  0  0  0  0
   63.1080   32.8560   48.6600 C   0  0  0  0  0  0  0  0  0  0  0  0
   64.6700   32.6620   49.4350 Cl  0  0  0  0  0  0  0  0  0  0  0  0
   62.1250   33.6560   49.2530 C   0  0  0  0  0  0  0  0  0  0  0  0
   60.8790   33.8130   48.6360 C   0  0  0  0  0  0  0  0  0  0  0  0
   59.9320   34.5770   49.2360 F   0  0  0  0  0  0  0  0  0  0  0  0
   58.5220   32.0840   46.2640 C   0  0  0  0  0  0  0  0  0  0  0  0
   57.4110   27.4300   46.3000 N   0  0  0  0  0  0  0  0  0  0  0  0
   57.7680   27.8430   47.5060 N   0  0  0  0  0  0  0  0  0  0  0  0
   58.9130   28.5390   47.3650 C   0  0  0  0  0  0  0  0  0  0  0  0
   59.5510   29.2590   48.4830 C   0  0  0  0  0  0  0  0  0  0  0  0
   60.7600   28.8070   49.0360 C   0  0  0  0  0  0  0  0  0  0  0  0
   61.3420   29.4940   50.1060 C   0  0  0  0  0  0  0  0  0  0  0  0
   60.7180   30.6250   50.6370 C   0  0  0  0  0  0  0  0  0  0  0  0
   59.5020   31.0660   50.1060 C   0  0  0  0  0  0  0  0  0  0  0  0
   58.9160   30.3820   49.0380 C   0  0  0  0  0  0  0  0  0  0  0  0
   60.9723   29.8498   46.2675 H   0  0  0  0  0  0  0  0  0  0  0  0
   61.0145   28.7479   44.8495 H   0  0  0  0  0  0  0  0  0  0  0  0
   59.9170   30.1699   44.8495 H   0  0  0  0  0  0  0  0  0  0  0  0
   57.3981   29.5028   42.3874 H   0  0  0  0  0  0  0  0  0  0  0  0
   56.0770   28.6099   43.2620 H   0  0  0  0  0  0  0  0  0  0  0  0
   56.0695   30.3014   44.7283 H   0  0  0  0  0  0  0  0  0  0  0  0
   57.6612   29.6542   45.3024 H   0  0  0  0  0  0  0  0  0  0  0  0
   58.8540   31.1316   43.7328 H   0  0  0  0  0  0  0  0  0  0  0  0
   57.2365   31.7661   43.1439 H   0  0  0  0  0  0  0  0  0  0  0  0
   58.9876   33.5736   43.6465 H   0  0  0  0  0  0  0  0  0  0  0  0
   57.5339   34.4075   44.2647 H   0  0  0  0  0  0  0  0  0  0  0  0
   59.8653   34.9832   45.0515 H   0  0  0  0  0  0  0  0  0  0  0  0
   58.8518   35.3715   47.6571 H   0  0  0  0  0  0  0  0  0  0  0  0
   57.4448   34.8454   47.2579 H   0  0  0  0  0  0  0  0  0  0  0  0
   61.3827   31.8253   45.8970 H   0  0  0  0  0  0  0  0  0  0  0  0
   63.6089   31.5655   46.9903 H   0  0  0  0  0  0  0  0  0  0  0  0
   62.3324   34.1629   50.2070 H   0  0  0  0  0  0  0  0  0  0  0  0
   59.2319   31.2648   46.0772 H   0  0  0  0  0  0  0  0  0  0  0  0
   57.7985   31.7463   47.0207 H   0  0  0  0  0  0  0  0  0  0  0  0
   61.2500   27.9112   48.6269 H   0  0  0  0  0  0  0  0  0  0  0  0
   62.2940   29.1426   50.5306 H   0  0  0  0  0  0  0  0  0  0  0  0
   61.1830   31.1686   51.4726 H   0  0  0  0  0  0  0  0  0  0  0  0
   59.0064   31.9521   50.5294 H   0  0  0  0  0  0  0  0  0  0  0  0
   57.9535   30.7244   48.6302 H   0  0  0  0  0  0  0  0  0  0  0  0
  1  2  1  0
  2  3  1  0
  3  4  1  0
  4  5  1  0
  5  6  1  0
  6  7  1  0
  7  8  1  0
  8  9  1  0
  9 10  1  0
 10 11  1  0
 11 12  1  0
 12 13  1  1
 13 14  2  0
 14 15  1  0
 15 16  2  0
 16 17  1  0
 16 18  1  0
 18 19  2  0
 19 20  1  0
 12 21  1  0
  3 22  2  0
 22 23  1  0
 23 24  2  0
 24 25  1  0
 25 26  2  0
 26 27  1  0
 27 28  2  0
 28 29  1  0
 29 30  2  0
 24  2  1  0
 30 25  1  0
 21  8  1  0
 12 10  1  0
 19 13  1  0
  1 31  1  0
  1 32  1  0
  1 33  1  0
  5 34  1  0
  5 35  1  0
  6 36  1  0
  6 37  1  0
  7 38  1  0
  7 39  1  0
  9 40  1  0
  9 41  1  0
 10 42  1  6
 11 43  1  0
 11 44  1  0
 14 45  1  0
 15 46  1  0
 18 47  1  0
 21 48  1  0
 21 49  1  0
 26 50  1  0
 27 51  1  0
 28 52  1  0
 29 53  1  0
 30 54  1  0
M  END
>  <UniqueID>  (6) 
6

>  <SMILES>  (6) 
Cn1c(SCCCN2C[C@H]3C[C@@]3(c3ccc(Cl)cc3F)C2)nnc1-c1ccccc1

>  <Energy>  (6) 
366.27093630220867

>  <Genealogy>  (6) 
Cn1c(SCCCN2C[C@H]3C[C@@]3(c3ccc(Cl)cc3F)C2)nnc1-c1ccccc1 (chirality)
Cn1c(SCCCN2C[C@H]3C[C@@]3(c3ccc(Cl)cc3F)C2)nnc1-c1ccccc1 (3D coordinates assigned)
Cn1c(SCCCN2C[C@H]3C[C@@]3(c3ccc(Cl)cc3F)C2)nnc1-c1ccccc1 (nonaromatic ring conformer: 366.27093630220867 kcal/mol)

>  <smiles>  (6) 
Cn1c(SCCCN2CC3CC3(c3ccc(Cl)cc3F)C2)nnc1-c1ccccc1

>  <score_type>  (6) 
oracle

>  <origin>  (6) 
adg

>  <m_score__min__energy>  (6) 
-9.9199999999999999

>  <m_primary>  (6) 
energy

$$$$
6:0
     RDKit          3D

 38 39  0  0  0  0  0  0  0  0999 V2000
   54.7400   28.5680   44.5230 H   0  0  0  0  0  0  0  0  0  0  0  0
   55.0110   29.4480   44.9430 O   0  0  0  0  0  0  0  0  0  0  0  0
   56.2790   29.9440   44.7390 N   0  0  0  0  0  0  0  0  0  0  0  0
   57.3010   29.1810   44.4990 C   0  0  0  0  0  0  0  0  0  0  0  0
   57.8554   29.3270   43.5602 H   0  0  0  0  0  0  0  0  0  0  0  0
   57.7560   28.1220   45.4310 C   0  0  0  0  0  0  0  0  0  0  0  0
   56.8420   27.1660   45.9110 C   0  0  0  0  0  0  0  0  0  0  0  0
   55.7812   27.2423   45.6300 H   0  0  0  0  0  0  0  0  0  0  0  0
   57.2610   26.1200   46.7400 C   0  0  0  0  0  0  0  0  0  0  0  0
   56.3000   25.2040   47.1930 O   0  0  0  0  0  0  0  0  0  0  0  0
   55.9270   24.0160   46.4970 C   0  0  0  0  0  0  0  0  0  0  0  0
   55.3883   23.3442   47.1815 H   0  0  0  0  0  0  0  0  0  0  0  0
   56.8304   23.5121   46.1229 H   0  0  0  0  0  0  0  0  0  0  0  0
   55.0270   24.3740   45.3270 C   0  0  0  0  0  0  0  0  0  0  0  0
   54.0674   24.7557   45.7059 H   0  0  0  0  0  0  0  0  0  0  0  0
   55.5128   25.1473   44.7139 H   0  0  0  0  0  0  0  0  0  0  0  0
   54.8489   23.4782   44.7139 H   0  0  0  0  0  0  0  0  0  0  0  0
   58.6200   26.0170   47.0820 C   0  0  0  0  0  0  0  0  0  0  0  0
   58.9607   25.2003   47.7354 H   0  0  0  0  0  0  0  0  0  0  0  0
   59.5390   26.9480   46.5950 C   0  0  0  0  0  0  0  0  0  0  0  0
   60.6034   26.8501   46.8549 H   0  0  0  0  0  0  0  0  0  0  0  0
   59.1190   28.0050   45.7790 C   0  0  0  0  0  0  0  0  0  0  0  0
   60.3530   29.1890   45.2100 S   0  0  0  0  0  0  0  0  0  0  0  0
   59.9420   30.3990   46.4750 C   0  0  0  0  0  0  0  0  0  0  0  0
   60.4790   30.2540   47.7610 C   0  0  0  0  0  0  0  0  0  0  0  0
   61.1514   29.4118   47.9815 H   0  0  0  0  0  0  0  0  0  0  0  0
   60.1650   31.1730   48.7640 C   0  0  0  0  0  0  0  0  0  0  0  0
   60.5846   31.0503   49.7734 H   0  0  0  0  0  0  0  0  0  0  0  0
   59.3190   32.2470   48.4860 C   0  0  0  0  0  0  0  0  0  0  0  0
   59.0647   32.9649   49.2797 H   0  0  0  0  0  0  0  0  0  0  0  0
   58.7940   32.4130   47.2020 C   0  0  0  0  0  0  0  0  0  0  0  0
   58.1327   33.2653   46.9867 H   0  0  0  0  0  0  0  0  0  0  0  0
   59.1080   31.4930   46.1810 C   0  0  0  0  0  0  0  0  0  0  0  0
   58.6190   31.6410   44.8730 O   0  0  0  0  0  0  0  0  0  0  0  0
   58.1280   32.8610   44.3280 C   0  0  0  0  0  0  0  0  0  0  0  0
   57.8533   33.5436   45.1457 H   0  0  0  0  0  0  0  0  0  0  0  0
   58.9088   33.3264   43.7086 H   0  0  0  0  0  0  0  0  0  0  0  0
   57.2425   32.6557   43.7086 H   0  0  0  0  0  0  0  0  0  0  0  0
  1  2  1  0
  2  3  1  0
  3  4  2  0
  4  5  1  0
  4  6  1  0
  6  7  2  0
  7  8  1  0
  7  9  1  0
  9 10  1  0
 10 11  1  0
 11 12  1  0
 11 13  1  0
 11 14  1  0
 14 15  1  0
 14 16  1  0
 14 17  1  0
  9 18  2  0
 18 19  1  0
 18 20  1  0
 20 21  1  0
 20 22  2  0
 22 23  1  0
 23 24  1  0
 24 25  2  0
 25 26  1  0
 25 27  1  0
 27 28  1  0
 27 29  2  0
 29 30  1  0
 29 31  1  0
 31 32  1  0
 31 33  2  0
 33 34  1  0
 34 35  1  0
 35 36  1  0
 35 37  1  0
 35 38  1  0
 22  6  1  0
 33 24  1  0
M  END
>  <UniqueID>  (7) 
7

>  <SMILES>  (7) 
CCOc1ccc(Sc2ccccc2OC)c(/C=N\O)c1

>  <Energy>  (7) 
34.50726655296005

>  <Genealogy>  (7) 
CCOc1ccc(Sc2ccccc2OC)c(/C=N\O)c1 (cis-trans isomerization)
CCOc1ccc(Sc2ccccc2OC)c(/C=N\O)c1 (3D coordinates assigned)
CCOc1ccc(Sc2ccccc2OC)c(/C=N\O)c1 (optimized conformer: 34.50726655296005 kcal/mol)

>  <smiles>  (7) 
CCOc1ccc(Sc2ccccc2OC)c(C=NO)c1

>  <score_type>  (7) 
oracle

>  <origin>  (7) 
adg

>  <m_score__min__energy>  (7) 
-6.96

>  <m_primary>  (7) 
energy

$$$$
7:0
     RDKit          3D

 61 64  0  0  0  0  0  0  0  0999 V2000
   54.9090   22.1420   47.7600 C   0  0  0  0  0  0  0  0  0  0  0  0
   56.3120   22.3750   48.3130 C   0  0  0  0  0  0  0  0  0  0  0  0
   57.2910   22.1690   47.2860 O   0  0  0  0  0  0  0  0  0  0  0  0
   57.0490   22.2530   45.8980 C   0  0  0  0  0  0  0  0  0  0  0  0
   57.0860   21.1140   45.0660 C   0  0  0  0  0  0  0  0  0  0  0  0
   56.8470   21.2360   43.6910 C   0  0  0  0  0  0  0  0  0  0  0  0
   56.5810   22.4860   43.1300 C   0  0  0  0  0  0  0  0  0  0  0  0
   56.5550   23.6230   43.9430 C   0  0  0  0  0  0  0  0  0  0  0  0
   56.7650   23.5120   45.3270 C   0  0  0  0  0  0  0  0  0  0  0  0
   56.6710   24.7290   46.1540 C   0  0  0  0  0  0  0  0  0  0  0  0
   55.5310   25.2190   46.3890 O   0  0  0  0  0  0  0  0  0  0  0  0
   57.8310   25.3420   46.7400 N   0  0  0  0  0  0  0  0  0  0  0  0
   58.4350   26.6090   46.3310 C   0  0  1  0  0  0  0  0  0  0  0  0
   57.8350   27.0990   45.0060 C   0  0  0  0  0  0  0  0  0  0  0  0
   57.9080   28.5710   45.1510 C   0  0  0  0  0  0  0  0  0  0  0  0
   57.9030   29.5130   44.1200 C   0  0  0  0  0  0  0  0  0  0  0  0
   58.1750   30.8500   44.4410 C   0  0  0  0  0  0  0  0  0  0  0  0
   58.4570   31.2230   45.7740 C   0  0  0  0  0  0  0  0  0  0  0  0
   58.9540   32.5910   46.0270 C   0  0  0  0  0  0  0  0  0  0  0  0
   58.1700   33.6630   45.5930 C   0  0  0  0  0  0  0  0  0  0  0  0
   58.6830   34.9640   45.5880 C   0  0  0  0  0  0  0  0  0  0  0  0
   60.0020   35.1870   45.9810 C   0  0  0  0  0  0  0  0  0  0  0  0
   60.7830   34.1290   46.4500 C   0  0  0  0  0  0  0  0  0  0  0  0
   60.2580   32.8280   46.5390 C   0  0  0  0  0  0  0  0  0  0  0  0
   61.0920   31.7160   47.1760 C   0  0  0  0  0  0  0  0  0  0  0  0
   62.1080   32.2120   48.1450 N   0  0  0  0  0  0  0  0  0  0  0  0
   62.2580   31.3150   49.3080 C   0  0  0  0  0  0  0  0  0  0  0  0
   63.4120   32.3610   47.4680 C   0  0  0  0  0  0  0  0  0  0  0  0
   58.3970   30.2680   46.8010 C   0  0  0  0  0  0  0  0  0  0  0  0
   58.1340   28.9400   46.4580 C   0  0  0  0  0  0  0  0  0  0  0  0
   58.1990   27.7540   47.3390 C   0  0  0  0  0  0  0  0  0  0  0  0
   54.2011   22.0244   48.5937 H   0  0  0  0  0  0  0  0  0  0  0  0
   54.6101   23.0028   47.1438 H   0  0  0  0  0  0  0  0  0  0  0  0
   54.9044   21.2308   47.1438 H   0  0  0  0  0  0  0  0  0  0  0  0
   56.3886   23.4070   48.6858 H   0  0  0  0  0  0  0  0  0  0  0  0
   56.4969   21.6644   49.1320 H   0  0  0  0  0  0  0  0  0  0  0  0
   57.3034   20.1263   45.4987 H   0  0  0  0  0  0  0  0  0  0  0  0
   56.8691   20.3421   43.0503 H   0  0  0  0  0  0  0  0  0  0  0  0
   56.3922   22.5764   42.0501 H   0  0  0  0  0  0  0  0  0  0  0  0
   56.3689   24.6106   43.4958 H   0  0  0  0  0  0  0  0  0  0  0  0
   59.5103   26.3906   46.2529 H   0  0  0  0  0  0  0  0  0  0  0  0
   58.4297   26.7534   44.1476 H   0  0  0  0  0  0  0  0  0  0  0  0
   56.8177   26.7250   44.8185 H   0  0  0  0  0  0  0  0  0  0  0  0
   57.6911   29.2135   43.0830 H   0  0  0  0  0  0  0  0  0  0  0  0
   58.1688   31.6140   43.6496 H   0  0  0  0  0  0  0  0  0  0  0  0
   57.1399   33.4820   45.2522 H   0  0  0  0  0  0  0  0  0  0  0  0
   58.0492   35.8070   45.2756 H   0  0  0  0  0  0  0  0  0  0  0  0
   60.4284   36.1992   45.9214 H   0  0  0  0  0  0  0  0  0  0  0  0
   61.8235   34.3160   46.7541 H   0  0  0  0  0  0  0  0  0  0  0  0
   60.4125   31.0314   47.7048 H   0  0  0  0  0  0  0  0  0  0  0  0
   61.6393   31.2175   46.3624 H   0  0  0  0  0  0  0  0  0  0  0  0
   61.8200   33.1660   48.4900 H   0  0  0  0  0  0  0  0  0  0  0  0
   62.1605   31.8980   50.2357 H   0  0  0  0  0  0  0  0  0  0  0  0
   61.4768   30.5412   49.2774 H   0  0  0  0  0  0  0  0  0  0  0  0
   63.2485   30.8375   49.2774 H   0  0  0  0  0  0  0  0  0  0  0  0
   64.2081   32.4520   48.2216 H   0  0  0  0  0  0  0  0  0  0  0  0
   63.6015   31.4787   46.8391 H   0  0  0  0  0  0  0  0  0  0  0  0
   63.3976   33.2633   46.8391 H   0  0  0  0  0  0  0  0  0  0  0  0
   58.5533   30.5585   47.8504 H   0  0  0  0  0  0  0  0  0  0  0  0
   59.0314   27.8336   48.0537 H   0  0  0  0  0  0  0  0  0  0  0  0
   57.3015   27.6165   47.9600 H   0  0  0  0  0  0  0  0  0  0  0  0
  1  2  1  0
  2  3  1  0
  3  4  1  0
  4  5  2  0
  5  6  1  0
  6  7  2  0
  7  8  1  0
  8  9  2  0
  9 10  1  0
 10 11  2  0
 10 12  1  0
 12 13  1  0
 13 14  1  0
 14 15  1  0
 15 16  2  0
 16 17  1  0
 17 18  2  0
 18 19  1  0
 19 20  2  0
 20 21  1  0
 21 22  2  0
 22 23  1  0
 23 24  2  0
 24 25  1  0
 25 26  1  0
 26 27  1  0
 26 28  1  0
 18 29  1  0
 29 30  2  0
 30 31  1  0
  9  4  1  0
 31 13  1  0
 30 15  1  0
 24 19  1  0
  1 32  1  0
  1 33  1  0
  1 34  1  0
  2 35  1  0
  2 36  1  0
  5 37  1  0
  6 38  1  0
  7 39  1  0
  8 40  1  0
 13 41  1  6
 14 42  1  0
 14 43  1  0
 16 44  1  0
 17 45  1  0
 20 46  1  0
 21 47  1  0
 22 48  1  0
 23 49  1  0
 25 50  1  0
 25 51  1  0
 26 52  1  0
 27 53  1  0
 27 54  1  0
 27 55  1  0
 28 56  1  0
 28 57  1  0
 28 58  1  0
 29 59  1  0
 31 60  1  0
 31 61  1  0
M  CHG  2  12  -1  26   1
M  END
>  <UniqueID>  (8) 
8

>  <SMILES>  (8) 
CCOc1ccccc1C(=O)[N-][C@H]1Cc2ccc(-c3ccccc3C[NH+](C)C)cc2C1

>  <Energy>  (8) 
93.50611808882907

>  <Genealogy>  (8) 
CCOc1ccccc1C(=O)[N-]C1Cc2ccc(-c3ccccc3C[NH+](C)C)cc2C1 (protonated)
CCOc1ccccc1C(=O)[N-][C@H]1Cc2ccc(-c3ccccc3C[NH+](C)C)cc2C1 (chirality)
CCOc1ccccc1C(=O)[N-][C@H]1Cc2ccc(-c3ccccc3C[NH+](C)C)cc2C1 (3D coordinates assigned)
CCOc1ccccc1C(=O)[N-][C@H]1Cc2ccc(-c3ccccc3C[NH+](C)C)cc2C1 (nonaromatic ring conformer: 93.50611808882907 kcal/mol)

>  <smiles>  (8) 
CCOc1ccccc1C(=O)NC1Cc2ccc(-c3ccccc3CN(C)C)cc2C1

>  <score_type>  (8) 
oracle

>  <origin>  (8) 
adg

>  <m_score__min__energy>  (8) 
-9.7899999999999991

>  <m_primary>  (8) 
energy

$$$$
8:0
     RDKit          3D

 50 53  0  0  0  0  0  0  0  0999 V2000
   60.5740   33.2980   51.1130 C   0  0  0  0  0  0  0  0  0  0  0  0
   60.6190   33.6300   49.6940 N   0  0  0  0  0  0  0  0  0  0  0  0
   59.6590   34.2770   48.9920 C   0  0  0  0  0  0  0  0  0  0  0  0
   60.0590   34.4470   47.6680 C   0  0  0  0  0  0  0  0  0  0  0  0
   59.2820   35.1350   46.5700 C   0  0  0  0  0  0  0  0  0  0  0  0
   58.3320   34.2470   45.8520 N   0  0  0  0  0  0  0  0  0  0  0  0
   57.9280   33.0520   46.6470 C   0  0  0  0  0  0  0  0  0  0  0  0
   58.5610   31.7520   46.1200 C   0  0  0  0  0  0  0  0  0  0  0  0
   58.2220   31.4970   44.6960 N   0  0  0  0  0  0  0  0  0  0  0  0
   57.0810   30.5650   44.5690 C   0  0  0  0  0  0  0  0  0  0  0  0
   57.5180   29.1430   44.8100 C   0  0  0  0  0  0  0  0  0  0  0  0
   57.7210   28.2640   43.7330 C   0  0  0  0  0  0  0  0  0  0  0  0
   58.1520   26.9540   43.9650 C   0  0  0  0  0  0  0  0  0  0  0  0
   58.3870   26.5140   45.2710 C   0  0  0  0  0  0  0  0  0  0  0  0
   58.8060   25.2440   45.4930 F   0  0  0  0  0  0  0  0  0  0  0  0
   58.1930   27.3850   46.3470 C   0  0  0  0  0  0  0  0  0  0  0  0
   57.7640   28.6960   46.1190 C   0  0  0  0  0  0  0  0  0  0  0  0
   58.0020   32.7380   43.9110 C   0  0  0  0  0  0  0  0  0  0  0  0
   58.7980   33.9160   44.4830 C   0  0  0  0  0  0  0  0  0  0  0  0
   61.3280   33.8950   47.5890 C   0  0  0  0  0  0  0  0  0  0  0  0
   62.2280   33.8070   46.5260 C   0  0  0  0  0  0  0  0  0  0  0  0
   63.4690   33.1880   46.7630 C   0  0  0  0  0  0  0  0  0  0  0  0
   63.7830   32.6820   48.0420 C   0  0  0  0  0  0  0  0  0  0  0  0
   62.8610   32.7920   49.0980 C   0  0  0  0  0  0  0  0  0  0  0  0
   61.6340   33.4060   48.8350 C   0  0  0  0  0  0  0  0  0  0  0  0
   60.6982   34.2147   51.7082 H   0  0  0  0  0  0  0  0  0  0  0  0
   59.6049   32.8350   51.3507 H   0  0  0  0  0  0  0  0  0  0  0  0
   61.3849   32.5938   51.3507 H   0  0  0  0  0  0  0  0  0  0  0  0
   58.6999   34.6197   49.4076 H   0  0  0  0  0  0  0  0  0  0  0  0
   58.7112   35.9623   47.0169 H   0  0  0  0  0  0  0  0  0  0  0  0
   60.0177   35.4788   45.8280 H   0  0  0  0  0  0  0  0  0  0  0  0
   57.4630   34.8210   45.7290 H   0  0  0  0  0  0  0  0  0  0  0  0
   58.2427   33.1998   47.6906 H   0  0  0  0  0  0  0  0  0  0  0  0
   56.8359   32.9493   46.5645 H   0  0  0  0  0  0  0  0  0  0  0  0
   59.6543   31.8268   46.2155 H   0  0  0  0  0  0  0  0  0  0  0  0
   58.1620   30.9177   46.7156 H   0  0  0  0  0  0  0  0  0  0  0  0
   56.3115   30.8352   45.3072 H   0  0  0  0  0  0  0  0  0  0  0  0
   56.6779   30.6403   43.5483 H   0  0  0  0  0  0  0  0  0  0  0  0
   57.5403   28.6074   42.7037 H   0  0  0  0  0  0  0  0  0  0  0  0
   58.3064   26.2687   43.1185 H   0  0  0  0  0  0  0  0  0  0  0  0
   58.3781   27.0385   47.3745 H   0  0  0  0  0  0  0  0  0  0  0  0
   57.6185   29.3802   46.9679 H   0  0  0  0  0  0  0  0  0  0  0  0
   58.3188   32.5641   42.8721 H   0  0  0  0  0  0  0  0  0  0  0  0
   56.9323   32.9901   43.9586 H   0  0  0  0  0  0  0  0  0  0  0  0
   59.8642   33.6479   44.5192 H   0  0  0  0  0  0  0  0  0  0  0  0
   58.6472   34.7927   43.8360 H   0  0  0  0  0  0  0  0  0  0  0  0
   61.9750   34.2090   45.5339 H   0  0  0  0  0  0  0  0  0  0  0  0
   64.1995   33.0979   45.9455 H   0  0  0  0  0  0  0  0  0  0  0  0
   64.7557   32.1981   48.2143 H   0  0  0  0  0  0  0  0  0  0  0  0
   63.0986   32.4064   50.1004 H   0  0  0  0  0  0  0  0  0  0  0  0
  1  2  1  0
  2  3  1  0
  3  4  2  0
  4  5  1  0
  5  6  1  0
  6  7  1  0
  7  8  1  0
  8  9  1  0
  9 10  1  0
 10 11  1  0
 11 12  2  0
 12 13  1  0
 13 14  2  0
 14 15  1  0
 14 16  1  0
 16 17  2  0
  9 18  1  0
 18 19  1  0
  4 20  1  0
 20 21  2  0
 21 22  1  0
 22 23  2  0
 23 24  1  0
 24 25  2  0
 25  2  1  0
 19  6  1  0
 25 20  1  0
 17 11  1  0
  1 26  1  0
  1 27  1  0
  1 28  1  0
  3 29  1  0
  5 30  1  0
  5 31  1  0
  6 32  1  0
  7 33  1  0
  7 34  1  0
  8 35  1  0
  8 36  1  0
 10 37  1  0
 10 38  1  0
 12 39  1  0
 13 40  1  0
 16 41  1  0
 17 42  1  0
 18 43  1  0
 18 44  1  0
 19 45  1  0
 19 46  1  0
 21 47  1  0
 22 48  1  0
 23 49  1  0
 24 50  1  0
M  CHG  1   6   1
M  END
>  <UniqueID>  (9) 
9

>  <SMILES>  (9) 
Cn1cc(C[NH+]2CCN(Cc3ccc(F)cc3)CC2)c2ccccc21

>  <Energy>  (9) 
100.93619473955022

>  <Genealogy>  (9) 
Cn1cc(C[NH+]2CCN(Cc3ccc(F)cc3)CC2)c2ccccc21 (protonated)
Cn1cc(C[NH+]2CCN(Cc3ccc(F)cc3)CC2)c2ccccc21 (3D coordinates assigned)
Cn1cc(C[NH+]2CCN(Cc3ccc(F)cc3)CC2)c2ccccc21 (nonaromatic ring conformer: 100.93619473955022 kcal/mol)

>  <smiles>  (9) 
Cn1cc(CN2CCN(Cc3ccc(F)cc3)CC2)c2ccccc21

>  <score_type>  (9) 
oracle

>  <origin>  (9) 
adg

>  <m_score__min__energy>  (9) 
-6.4400000000000004

>  <m_primary>  (9) 
energy

$$$$
9:0
     RDKit          3D

 52 54  0  0  0  0  0  0  0  0999 V2000
   63.9230   32.0750   48.9200 C   0  0  0  0  0  0  0  0  0  0  0  0
   63.6780   31.6660   47.4700 C   0  0  0  0  0  0  0  0  0  0  0  0
   62.2790   31.9350   47.0640 N   0  0  0  0  0  0  0  0  0  0  0  0
   62.0490   33.3700   46.7710 C   0  0  0  0  0  0  0  0  0  0  0  0
   63.3200   34.1260   46.3510 C   0  0  0  0  0  0  0  0  0  0  0  0
   61.2770   31.3790   48.0050 C   0  0  0  0  0  0  0  0  0  0  0  0
   60.8120   29.9980   47.5180 C   0  0  0  0  0  0  0  0  0  0  0  0
   60.5630   29.9710   46.0640 N   0  0  0  0  0  0  0  0  0  0  0  0
   59.1750   29.6760   45.7530 C   0  0  0  0  0  0  0  0  0  0  0  0
   58.3760   30.6680   45.1480 C   0  0  0  0  0  0  0  0  0  0  0  0
   58.9340   31.9120   44.8210 O   0  0  0  0  0  0  0  0  0  0  0  0
   59.0120   33.0210   45.6780 C   0  0  0  0  0  0  0  0  0  0  0  0
   59.4400   34.2450   45.1490 C   0  0  0  0  0  0  0  0  0  0  0  0
   59.5670   35.3680   45.9720 C   0  0  0  0  0  0  0  0  0  0  0  0
   59.2750   35.2720   47.3360 C   0  0  0  0  0  0  0  0  0  0  0  0
   58.8600   34.0520   47.8770 C   0  0  0  0  0  0  0  0  0  0  0  0
   58.7290   32.9290   47.0560 C   0  0  0  0  0  0  0  0  0  0  0  0
   57.0380   30.3920   44.8460 C   0  0  0  0  0  0  0  0  0  0  0  0
   56.4830   29.1940   45.1570 N   0  0  0  0  0  0  0  0  0  0  0  0
   55.1580   28.9900   44.8380 O   0  0  0  0  0  0  0  0  0  0  0  0
   57.2110   28.2100   45.7680 C   0  0  0  0  0  0  0  0  0  0  0  0
   56.6090   26.9770   46.0890 C   0  0  0  0  0  0  0  0  0  0  0  0
   57.3440   25.9690   46.7120 C   0  0  0  0  0  0  0  0  0  0  0  0
   58.6860   26.1740   47.0230 C   0  0  0  0  0  0  0  0  0  0  0  0
   59.3030   27.3860   46.7120 C   0  0  0  0  0  0  0  0  0  0  0  0
   58.5810   28.4250   46.0810 C   0  0  0  0  0  0  0  0  0  0  0  0
   63.4756   31.3281   49.5923 H   0  0  0  0  0  0  0  0  0  0  0  0
   65.0055   32.1343   49.1064 H   0  0  0  0  0  0  0  0  0  0  0  0
   63.4645   33.0574   49.1064 H   0  0  0  0  0  0  0  0  0  0  0  0
   64.3563   32.2355   46.8176 H   0  0  0  0  0  0  0  0  0  0  0  0
   63.8648   30.5859   47.3776 H   0  0  0  0  0  0  0  0  0  0  0  0
   61.3149   33.4446   45.9552 H   0  0  0  0  0  0  0  0  0  0  0  0
   61.6909   33.8349   47.7014 H   0  0  0  0  0  0  0  0  0  0  0  0
   63.8667   34.4512   47.2485 H   0  0  0  0  0  0  0  0  0  0  0  0
   63.9605   33.4620   45.7520 H   0  0  0  0  0  0  0  0  0  0  0  0
   63.0422   35.0058   45.7520 H   0  0  0  0  0  0  0  0  0  0  0  0
   61.7291   31.2806   49.0030 H   0  0  0  0  0  0  0  0  0  0  0  0
   60.4114   32.0560   48.0540 H   0  0  0  0  0  0  0  0  0  0  0  0
   61.5901   29.2582   47.7573 H   0  0  0  0  0  0  0  0  0  0  0  0
   59.8647   29.7638   48.0258 H   0  0  0  0  0  0  0  0  0  0  0  0
   61.1880   29.2640   45.6150 H   0  0  0  0  0  0  0  0  0  0  0  0
   60.8570   30.8840   45.6470 H   0  0  0  0  0  0  0  0  0  0  0  0
   59.6780   34.3234   44.0779 H   0  0  0  0  0  0  0  0  0  0  0  0
   59.8967   36.3272   45.5464 H   0  0  0  0  0  0  0  0  0  0  0  0
   59.3719   36.1563   47.9830 H   0  0  0  0  0  0  0  0  0  0  0  0
   58.6361   33.9757   48.9513 H   0  0  0  0  0  0  0  0  0  0  0  0
   58.4041   31.9702   47.4862 H   0  0  0  0  0  0  0  0  0  0  0  0
   56.4263   31.1589   44.3483 H   0  0  0  0  0  0  0  0  0  0  0  0
   55.5496   26.8081   45.8459 H   0  0  0  0  0  0  0  0  0  0  0  0
   56.8633   25.0107   46.9581 H   0  0  0  0  0  0  0  0  0  0  0  0
   59.2619   25.3769   47.5159 H   0  0  0  0  0  0  0  0  0  0  0  0
   60.3641   27.5351   46.9607 H   0  0  0  0  0  0  0  0  0  0  0  0
  1  2  1  0
  2  3  1  0
  3  4  1  0
  4  5  1  0
  3  6  1  0
  6  7  1  0
  7  8  1  0
  8  9  1  0
  9 10  2  0
 10 11  1  0
 11 12  1  0
 12 13  2  0
 13 14  1  0
 14 15  2  0
 15 16  1  0
 16 17  2  0
 10 18  1  0
 18 19  2  0
 19 20  1  0
 19 21  1  0
 21 22  2  0
 22 23  1  0
 23 24  2  0
 24 25  1  0
 25 26  2  0
 26  9  1  0
 17 12  1  0
 26 21  1  0
  1 27  1  0
  1 28  1  0
  1 29  1  0
  2 30  1  0
  2 31  1  0
  4 32  1  0
  4 33  1  0
  5 34  1  0
  5 35  1  0
  5 36  1  0
  6 37  1  0
  6 38  1  0
  7 39  1  0
  7 40  1  0
  8 41  1  0
  8 42  1  0
 13 43  1  0
 14 44  1  0
 15 45  1  0
 16 46  1  0
 17 47  1  0
 18 48  1  0
 22 49  1  0
 23 50  1  0
 24 51  1  0
 25 52  1  0
M  CHG  3   8   1  19   1  20  -1
M  END
>  <UniqueID>  (10) 
10

>  <SMILES>  (10) 
CCN(CC)CC[NH2+]c1c(Oc2ccccc2)c[n+]([O-])c2ccccc12

>  <Energy>  (10) 
67.32789651695359

>  <Genealogy>  (10) 
CCN(CC)CC[NH2+]c1c(Oc2ccccc2)c[n+]([O-])c2ccccc12 (protonated)
CCN(CC)CC[NH2+]c1c(Oc2ccccc2)c[n+]([O-])c2ccccc12 (3D coordinates assigned)
CCN(CC)CC[NH2+]c1c(Oc2ccccc2)c[n+]([O-])c2ccccc12 (optimized conformer: 67.32789651695359 kcal/mol)

>  <smiles>  (10) 
CCN(CC)CCNc1c(Oc2ccccc2)c[n+]([O-])c2ccccc12

>  <score_type>  (10) 
oracle

>  <origin>  (10) 
adg

>  <m_score__min__energy>  (10) 
-6.4900000000000002

>  <m_primary>  (10) 
energy

$$$$
10:0
     RDKit          3D

 71 71  0  0  0  0  0  0  0  0999 V2000
   59.6450   35.4880   45.8190 C   0  0  0  0  0  0  0  0  0  0  0  0
   59.2320   34.9800   47.2090 C   0  0  0  0  0  0  0  0  0  0  0  0
   59.6080   33.5700   47.4960 N   0  0  0  0  0  0  0  0  0  0  0  0
   58.4880   32.6090   47.3750 C   0  0  0  0  0  0  0  0  0  0  0  0
   57.3770   33.1320   46.4640 C   0  0  0  0  0  0  0  0  0  0  0  0
   60.7920   33.1070   46.7310 C   0  0  0  0  0  0  0  0  0  0  0  0
   61.0230   31.6000   46.8840 C   0  0  0  0  0  0  0  0  0  0  0  0
   61.6390   31.3370   48.1290 O   0  0  0  0  0  0  0  0  0  0  0  0
   63.0360   31.5550   48.0600 C   0  0  0  0  0  0  0  0  0  0  0  0
   63.5280   32.3250   49.2890 C   0  0  0  0  0  0  0  0  0  0  0  0
   62.4830   32.4170   50.2380 O   0  0  0  0  0  0  0  0  0  0  0  0
   61.6140   33.4240   49.8930 N   0  0  0  0  0  0  0  0  0  0  0  0
   60.7980   33.8090   51.0500 C   0  0  0  0  0  0  0  0  0  0  0  0
   59.2930   33.8240   50.7310 C   0  0  0  0  0  0  0  0  0  0  0  0
   58.6390   32.4370   50.8080 C   0  0  0  0  0  0  0  0  0  0  0  0
   59.5260   31.3860   50.3110 N   0  0  0  0  0  0  0  0  0  0  0  0
   59.2260   29.9870   50.4360 C   0  0  0  0  0  0  0  0  0  0  0  0
   58.1050   29.6210   50.8880 O   0  0  0  0  0  0  0  0  0  0  0  0
   60.2350   28.9760   49.9620 C   0  0  0  0  0  0  0  0  0  0  0  0
   60.2490   28.7510   48.4350 C   0  0  0  0  0  0  0  0  0  0  0  0
   58.9150   29.0840   47.7420 C   0  0  0  0  0  0  0  0  0  0  0  0
   58.6860   28.3520   46.4030 C   0  0  0  0  0  0  0  0  0  0  0  0
   57.9520   29.1900   45.3780 C   0  0  0  0  0  0  0  0  0  0  0  0
   58.6250   30.2350   44.7210 C   0  0  0  0  0  0  0  0  0  0  0  0
   57.9670   31.0220   43.7750 C   0  0  0  0  0  0  0  0  0  0  0  0
   56.6360   30.7610   43.4530 C   0  0  0  0  0  0  0  0  0  0  0  0
   55.9640   29.7000   44.0620 C   0  0  0  0  0  0  0  0  0  0  0  0
   56.6180   28.8940   45.0160 C   0  0  0  0  0  0  0  0  0  0  0  0
   55.9800   27.7890   45.6080 O   0  0  0  0  0  0  0  0  0  0  0  0
   56.5300   26.4790   45.6760 C   0  0  0  0  0  0  0  0  0  0  0  0
   60.3354   36.3372   45.9292 H   0  0  0  0  0  0  0  0  0  0  0  0
   60.1445   34.6787   45.2663 H   0  0  0  0  0  0  0  0  0  0  0  0
   58.7507   35.8118   45.2663 H   0  0  0  0  0  0  0  0  0  0  0  0
   59.7101   35.6218   47.9636 H   0  0  0  0  0  0  0  0  0  0  0  0
   58.1331   35.0190   47.2385 H   0  0  0  0  0  0  0  0  0  0  0  0
   58.8730   31.6661   46.9594 H   0  0  0  0  0  0  0  0  0  0  0  0
   58.0611   32.4585   48.3776 H   0  0  0  0  0  0  0  0  0  0  0  0
   56.5515   33.5206   47.0784 H   0  0  0  0  0  0  0  0  0  0  0  0
   57.7726   33.9384   45.8291 H   0  0  0  0  0  0  0  0  0  0  0  0
   57.0076   32.3132   45.8291 H   0  0  0  0  0  0  0  0  0  0  0  0
   60.6382   33.3361   45.6662 H   0  0  0  0  0  0  0  0  0  0  0  0
   61.6764   33.6275   47.1272 H   0  0  0  0  0  0  0  0  0  0  0  0
   60.0575   31.0752   46.8355 H   0  0  0  0  0  0  0  0  0  0  0  0
   61.6761   31.2470   46.0723 H   0  0  0  0  0  0  0  0  0  0  0  0
   63.5506   30.5839   48.0131 H   0  0  0  0  0  0  0  0  0  0  0  0
   63.2560   32.1489   47.1607 H   0  0  0  0  0  0  0  0  0  0  0  0
   64.3828   31.7957   49.7352 H   0  0  0  0  0  0  0  0  0  0  0  0
   63.8392   33.3361   48.9875 H   0  0  0  0  0  0  0  0  0  0  0  0
   60.9960   33.1840   49.0780 H   0  0  0  0  0  0  0  0  0  0  0  0
   60.9789   33.0913   51.8637 H   0  0  0  0  0  0  0  0  0  0  0  0
   61.0885   34.8298   51.3389 H   0  0  0  0  0  0  0  0  0  0  0  0
   58.7906   34.4867   51.4510 H   0  0  0  0  0  0  0  0  0  0  0  0
   59.1844   34.1769   49.6948 H   0  0  0  0  0  0  0  0  0  0  0  0
   58.3852   32.2215   51.8564 H   0  0  0  0  0  0  0  0  0  0  0  0
   57.7389   32.4497   50.1759 H   0  0  0  0  0  0  0  0  0  0  0  0
   60.4530   31.6670   49.9210 H   0  0  0  0  0  0  0  0  0  0  0  0
   61.2344   29.3191   50.2676 H   0  0  0  0  0  0  0  0  0  0  0  0
   59.9516   28.0153   50.4166 H   0  0  0  0  0  0  0  0  0  0  0  0
   61.0338   29.3864   47.9987 H   0  0  0  0  0  0  0  0  0  0  0  0
   60.4339   27.6789   48.2724 H   0  0  0  0  0  0  0  0  0  0  0  0
   58.0966   28.8133   48.4253 H   0  0  0  0  0  0  0  0  0  0  0  0
   58.9449   30.1585   47.5085 H   0  0  0  0  0  0  0  0  0  0  0  0
   59.6649   28.0710   45.9873 H   0  0  0  0  0  0  0  0  0  0  0  0
   58.0574   27.4747   46.6157 H   0  0  0  0  0  0  0  0  0  0  0  0
   59.6812   30.4343   44.9551 H   0  0  0  0  0  0  0  0  0  0  0  0
   58.4992   31.8493   43.2828 H   0  0  0  0  0  0  0  0  0  0  0  0
   56.1147   31.3920   42.7181 H   0  0  0  0  0  0  0  0  0  0  0  0
   54.9173   29.4914   43.7958 H   0  0  0  0  0  0  0  0  0  0  0  0
   56.6526   26.1870   46.7294 H   0  0  0  0  0  0  0  0  0  0  0  0
   55.8533   25.7708   45.1756 H   0  0  0  0  0  0  0  0  0  0  0  0
   57.5095   26.4661   45.1756 H   0  0  0  0  0  0  0  0  0  0  0  0
  1  2  1  0
  2  3  1  0
  3  4  1  0
  4  5  1  0
  3  6  1  0
  6  7  1  0
  7  8  1  0
  8  9  1  0
  9 10  1  0
 10 11  1  0
 11 12  1  0
 12 13  1  0
 13 14  1  0
 14 15  1  0
 15 16  1  0
 16 17  1  0
 17 18  2  0
 17 19  1  0
 19 20  1  0
 20 21  1  0
 21 22  1  0
 22 23  1  0
 23 24  2  0
 24 25  1  0
 25 26  2  0
 26 27  1  0
 27 28  2  0
 28 29  1  0
 29 30  1  0
 28 23  1  0
  1 31  1  0
  1 32  1  0
  1 33  1  0
  2 34  1  0
  2 35  1  0
  4 36  1  0
  4 37  1  0
  5 38  1  0
  5 39  1  0
  5 40  1  0
  6 41  1  0
  6 42  1  0
  7 43  1  0
  7 44  1  0
  9 45  1  0
  9 46  1  0
 10 47  1  0
 10 48  1  0
 12 49  1  0
 13 50  1  0
 13 51  1  0
 14 52  1  0
 14 53  1  0
 15 54  1  0
 15 55  1  0
 16 56  1  0
 19 57  1  0
 19 58  1  0
 20 59  1  0
 20 60  1  0
 21 61  1  0
 21 62  1  0
 22 63  1  0
 22 64  1  0
 24 65  1  0
 25 66  1  0
 26 67  1  0
 27 68  1  0
 30 69  1  0
 30 70  1  0
 30 71  1  0
M  END
>  <UniqueID>  (11) 
11

>  <SMILES>  (11) 
CCN(CC)CCOCCONCCCNC(=O)CCCCc1ccccc1OC

>  <Energy>  (11) 
63.34207539946419

>  <Genealogy>  (11) 
CCN(CC)CCOCCONCCCNC(=O)CCCCc1ccccc1OC (3D coordinates assigned)
CCN(CC)CCOCCONCCCNC(=O)CCCCc1ccccc1OC (optimized conformer: 63.34207539946419 kcal/mol)

>  <smiles>  (11) 
CCN(CC)CCOCCONCCCNC(=O)CCCCc1ccccc1OC

>  <score_type>  (11) 
oracle

>  <origin>  (11) 
adg

>  <m_score__min__energy>  (11) 
-6.3399999999999999

>  <m_primary>  (11) 
energy

$$$$
11:0
     RDKit          3D

 81 84  0  0  0  0  0  0  0  0999 V2000
   58.0890   33.2480   52.2960 C   0  0  0  0  0  0  0  0  0  0  0  0
   59.0290   32.3100   51.5340 C   0  0  0  0  0  0  0  0  0  0  0  0
   58.3430   31.1600   50.9030 N   0  0  0  0  0  0  0  0  0  0  0  0
   57.1090   30.7140   51.5990 C   0  0  0  0  0  0  0  0  0  0  0  0
   57.3170   29.6150   52.6530 C   0  0  0  0  0  0  0  0  0  0  0  0
   59.2610   30.1030   50.4270 C   0  0  0  0  0  0  0  0  0  0  0  0
   59.3920   30.1280   48.9010 C   0  0  0  0  0  0  0  0  0  0  0  0
   58.5460   31.1750   48.3280 N   0  0  0  0  0  0  0  0  0  0  0  0
   58.5550   31.4190   46.9150 C   0  0  0  0  0  0  0  0  0  0  0  0
   58.3080   30.3520   46.0370 C   0  0  0  0  0  0  0  0  0  0  0  0
   58.1650   29.0330   46.5110 C   0  0  0  0  0  0  0  0  0  0  0  0
   57.9790   27.9840   45.6200 C   0  0  0  0  0  0  0  0  0  0  0  0
   57.9510   28.2470   44.2560 C   0  0  0  0  0  0  0  0  0  0  0  0
   58.0680   29.5220   43.7990 N   0  0  0  0  0  0  0  0  0  0  0  0
   58.2000   30.5950   44.6490 C   0  0  0  0  0  0  0  0  0  0  0  0
   58.2230   31.8900   44.1750 N   0  0  0  0  0  0  0  0  0  0  0  0
   57.7750   32.1700   42.7920 C   0  0  0  0  0  0  0  0  0  0  0  0
   58.6400   32.9230   44.9960 C   0  0  0  0  0  0  0  0  0  0  0  0
   58.9140   34.2090   44.4720 C   0  0  0  0  0  0  0  0  0  0  0  0
   59.2900   35.2580   45.3000 C   0  0  0  0  0  0  0  0  0  0  0  0
   59.4600   35.0520   46.6590 C   0  0  0  0  0  0  0  0  0  0  0  0
   59.2750   33.7760   47.2220 C   0  0  0  0  0  0  0  0  0  0  0  0
   59.5590   33.5430   48.5810 O   0  0  0  0  0  0  0  0  0  0  0  0
   60.5630   34.1910   49.3650 C   0  0  0  0  0  0  0  0  0  0  0  0
   61.9540   34.1740   48.6750 C   0  0  0  0  0  0  0  0  0  0  0  0
   62.7930   32.9390   48.8450 N   0  0  0  0  0  0  0  0  0  0  0  0
   62.8880   32.3160   47.4940 C   0  0  0  0  0  0  0  0  0  0  0  0
   62.1460   31.9390   49.7580 C   0  0  0  0  0  0  0  0  0  0  0  0
   62.6990   31.9840   51.1950 C   0  0  0  0  0  0  0  0  0  0  0  0
   64.1730   31.7240   51.2650 N   0  0  0  0  0  0  0  0  0  0  0  0
   64.4090   30.2790   51.5040 C   0  0  0  0  0  0  0  0  0  0  0  0
   64.7340   32.4730   52.4170 C   0  0  0  0  0  0  0  0  0  0  0  0
   64.8820   32.1300   50.0110 C   0  0  0  0  0  0  0  0  0  0  0  0
   64.1810   33.2970   49.2880 C   0  0  0  0  0  0  0  0  0  0  0  0
   58.8200   32.7070   46.3950 C   0  0  0  0  0  0  0  0  0  0  0  0
   58.2293   33.1080   53.3780 H   0  0  0  0  0  0  0  0  0  0  0  0
   58.3156   34.2907   52.0287 H   0  0  0  0  0  0  0  0  0  0  0  0
   57.0468   33.0192   52.0287 H   0  0  0  0  0  0  0  0  0  0  0  0
   59.5323   32.8888   50.7455 H   0  0  0  0  0  0  0  0  0  0  0  0
   59.7354   31.8975   52.2694 H   0  0  0  0  0  0  0  0  0  0  0  0
   56.6656   31.5872   52.0999 H   0  0  0  0  0  0  0  0  0  0  0  0
   56.4608   30.2777   50.8247 H   0  0  0  0  0  0  0  0  0  0  0  0
   57.2344   30.0516   53.6592 H   0  0  0  0  0  0  0  0  0  0  0  0
   56.5503   28.8364   52.5271 H   0  0  0  0  0  0  0  0  0  0  0  0
   58.3152   29.1704   52.5271 H   0  0  0  0  0  0  0  0  0  0  0  0
   60.2532   30.2613   50.8748 H   0  0  0  0  0  0  0  0  0  0  0  0
   58.8518   29.1265   50.7252 H   0  0  0  0  0  0  0  0  0  0  0  0
   60.4405   30.3228   48.6314 H   0  0  0  0  0  0  0  0  0  0  0  0
   59.0706   29.1547   48.5018 H   0  0  0  0  0  0  0  0  0  0  0  0
   58.1100   31.8940   48.9450 H   0  0  0  0  0  0  0  0  0  0  0  0
   58.2008   28.8330   47.5921 H   0  0  0  0  0  0  0  0  0  0  0  0
   57.8551   26.9556   45.9903 H   0  0  0  0  0  0  0  0  0  0  0  0
   57.8335   27.4187   43.5417 H   0  0  0  0  0  0  0  0  0  0  0  0
   58.0950   29.6370   42.7620 H   0  0  0  0  0  0  0  0  0  0  0  0
   56.8425   32.7528   42.8196 H   0  0  0  0  0  0  0  0  0  0  0  0
   58.5508   32.7442   42.2644 H   0  0  0  0  0  0  0  0  0  0  0  0
   57.5988   31.2210   42.2644 H   0  0  0  0  0  0  0  0  0  0  0  0
   58.8274   34.3804   43.3889 H   0  0  0  0  0  0  0  0  0  0  0  0
   59.4539   36.2589   44.8741 H   0  0  0  0  0  0  0  0  0  0  0  0
   59.7429   35.8957   47.3056 H   0  0  0  0  0  0  0  0  0  0  0  0
   60.2629   35.2364   49.5296 H   0  0  0  0  0  0  0  0  0  0  0  0
   60.6526   33.6436   50.3149 H   0  0  0  0  0  0  0  0  0  0  0  0
   61.7896   34.3158   47.5966 H   0  0  0  0  0  0  0  0  0  0  0  0
   62.5246   34.9733   49.1705 H   0  0  0  0  0  0  0  0  0  0  0  0
   63.0530   31.2336   47.6001 H   0  0  0  0  0  0  0  0  0  0  0  0
   61.9526   32.4919   46.9425 H   0  0  0  0  0  0  0  0  0  0  0  0
   63.7284   32.7627   46.9425 H   0  0  0  0  0  0  0  0  0  0  0  0
   61.0659   32.1442   49.7923 H   0  0  0  0  0  0  0  0  0  0  0  0
   62.3635   30.9389   49.3548 H   0  0  0  0  0  0  0  0  0  0  0  0
   62.4986   32.9801   51.6164 H   0  0  0  0  0  0  0  0  0  0  0  0
   62.1977   31.1878   51.7649 H   0  0  0  0  0  0  0  0  0  0  0  0
   64.4404   30.0868   52.5866 H   0  0  0  0  0  0  0  0  0  0  0  0
   63.5944   29.6946   51.0513 H   0  0  0  0  0  0  0  0  0  0  0  0
   65.3672   29.9842   51.0513 H   0  0  0  0  0  0  0  0  0  0  0  0
   64.3900   32.0138   53.3555 H   0  0  0  0  0  0  0  0  0  0  0  0
   65.8327   32.4418   52.3747 H   0  0  0  0  0  0  0  0  0  0  0  0
   64.3950   33.5186   52.3747 H   0  0  0  0  0  0  0  0  0  0  0  0
   65.9058   32.4388   50.2688 H   0  0  0  0  0  0  0  0  0  0  0  0
   64.8795   31.2656   49.3308 H   0  0  0  0  0  0  0  0  0  0  0  0
   64.1234   34.1550   49.9740 H   0  0  0  0  0  0  0  0  0  0  0  0
   64.7692   33.5397   48.3907 H   0  0  0  0  0  0  0  0  0  0  0  0
  1  2  1  0
  2  3  1  0
  3  4  1  0
  4  5  1  0
  3  6  1  0
  6  7  1  0
  7  8  1  0
  8  9  1  0
  9 10  2  0
 10 11  1  0
 11 12  2  0
 12 13  1  0
 13 14  2  0
 14 15  1  0
 15 16  2  0
 16 17  1  0
 16 18  1  0
 18 19  2  0
 19 20  1  0
 20 21  2  0
 21 22  1  0
 22 23  1  0
 23 24  1  0
 24 25  1  0
 25 26  1  0
 26 27  1  0
 26 28  1  0
 28 29  1  0
 29 30  1  0
 30 31  1  0
 30 32  1  0
 30 33  1  0
 33 34  1  0
 22 35  2  0
 35  9  1  0
 15 10  1  0
 35 18  1  0
 34 26  1  0
  1 36  1  0
  1 37  1  0
  1 38  1  0
  2 39  1  0
  2 40  1  0
  4 41  1  0
  4 42  1  0
  5 43  1  0
  5 44  1  0
  5 45  1  0
  6 46  1  0
  6 47  1  0
  7 48  1  0
  7 49  1  0
  8 50  1  0
 11 51  1  0
 12 52  1  0
 13 53  1  0
 14 54  1  0
 17 55  1  0
 17 56  1  0
 17 57  1  0
 19 58  1  0
 20 59  1  0
 21 60  1  0
 24 61  1  0
 24 62  1  0
 25 63  1  0
 25 64  1  0
 27 65  1  0
 27 66  1  0
 27 67  1  0
 28 68  1  0
 28 69  1  0
 29 70  1  0
 29 71  1  0
 31 72  1  0
 31 73  1  0
 31 74  1  0
 32 75  1  0
 32 76  1  0
 32 77  1  0
 33 78  1  0
 33 79  1  0
 34 80  1  0
 34 81  1  0
M  CHG  4  14   1  16   1  26   1  30   1
M  END
>  <UniqueID>  (12) 
12

>  <SMILES>  (12) 
CCN(CC)CCNc1c2ccc[nH+]c2[n+](C)c2cccc(OCC[N+]3(C)CC[N+](C)(C)CC3)c12

>  <Energy>  (12) 
140.8705100062981

>  <Genealogy>  (12) 
CCN(CC)CCNc1c2ccc[nH+]c2[n+](C)c2cccc(OCC[N+]3(C)CC[N+](C)(C)CC3)c12 (protonated)
CCN(CC)CCNc1c2ccc[nH+]c2[n+](C)c2cccc(OCC[N+]3(C)CC[N+](C)(C)CC3)c12 (3D coordinates assigned)
CCN(CC)CCNc1c2ccc[nH+]c2[n+](C)c2cccc(OCC[N+]3(C)CC[N+](C)(C)CC3)c12 (nonaromatic ring conformer: 140.8705100062981 kcal/mol)

>  <smiles>  (12) 
CCN(CC)CCNc1c2cccnc2[n+](C)c2cccc(OCC[N+]3(C)CC[N+](C)(C)CC3)c12

>  <score_type>  (12) 
oracle

>  <origin>  (12) 
adg

>  <m_score__min__energy>  (12) 
-3.0299999999999998

>  <m_primary>  (12) 
energy

$$$$
12:0
     RDKit          3D

 61 64  0  0  0  0  0  0  0  0999 V2000
   58.0970   32.0890   43.0510 C   0  0  0  0  0  0  0  0  0  0  0  0
   57.0100   31.1330   42.5750 C   0  0  0  0  0  0  0  0  0  0  0  0
   57.1290   29.8750   43.2350 O   0  0  0  0  0  0  0  0  0  0  0  0
   56.7410   29.6590   44.5640 C   0  0  0  0  0  0  0  0  0  0  0  0
   55.5410   29.3830   44.8450 O   0  0  0  0  0  0  0  0  0  0  0  0
   57.7630   29.7000   45.6660 C   0  0  0  0  0  0  0  0  0  0  0  0
   59.0440   28.9470   45.2400 C   0  0  0  0  0  0  0  0  0  0  0  0
   60.2840   29.3940   46.0370 C   0  0  0  0  0  0  0  0  0  0  0  0
   59.8830   29.9130   47.3580 N   0  0  0  0  0  0  0  0  0  0  0  0
   60.9960   30.0140   48.3260 C   0  0  0  0  0  0  0  0  0  0  0  0
   60.5430   30.1560   49.7960 C   0  0  0  0  0  0  0  0  0  0  0  0
   60.3670   31.6250   50.2330 C   0  0  0  0  0  0  0  0  0  0  0  0
   61.3080   32.5570   49.5790 N   0  0  0  0  0  0  0  0  0  0  0  0
   60.8300   33.3520   48.4840 C   0  0  0  0  0  0  0  0  0  0  0  0
   59.6940   34.1630   48.6300 C   0  0  0  0  0  0  0  0  0  0  0  0
   59.2750   34.9810   47.5770 C   0  0  0  0  0  0  0  0  0  0  0  0
   59.9910   34.9950   46.3780 C   0  0  0  0  0  0  0  0  0  0  0  0
   61.1150   34.1800   46.2220 C   0  0  0  0  0  0  0  0  0  0  0  0
   61.5340   33.3510   47.2740 C   0  0  0  0  0  0  0  0  0  0  0  0
   62.7100   32.4360   47.1190 C   0  0  0  0  0  0  0  0  0  0  0  0
   63.9150   32.9170   47.9350 C   0  0  0  0  0  0  0  0  0  0  0  0
   63.7620   33.0970   49.4420 C   0  0  0  0  0  0  0  0  0  0  0  0
   64.9350   33.4760   50.1240 C   0  0  0  0  0  0  0  0  0  0  0  0
   64.9260   33.7290   51.4940 C   0  0  0  0  0  0  0  0  0  0  0  0
   63.7410   33.6260   52.2150 C   0  0  0  0  0  0  0  0  0  0  0  0
   62.5630   33.2600   51.5680 C   0  0  0  0  0  0  0  0  0  0  0  0
   62.5520   32.9550   50.1920 C   0  0  0  0  0  0  0  0  0  0  0  0
   59.0980   31.1680   47.2600 C   0  0  0  0  0  0  0  0  0  0  0  0
   58.0950   31.1430   46.0870 C   0  0  0  0  0  0  0  0  0  0  0  0
   58.1153   32.1051   44.1507 H   0  0  0  0  0  0  0  0  0  0  0  0
   59.0733   31.7516   42.6729 H   0  0  0  0  0  0  0  0  0  0  0  0
   57.8870   33.1004   42.6729 H   0  0  0  0  0  0  0  0  0  0  0  0
   56.0237   31.5666   42.7969 H   0  0  0  0  0  0  0  0  0  0  0  0
   57.1207   30.9788   41.4915 H   0  0  0  0  0  0  0  0  0  0  0  0
   57.3285   29.1960   46.5419 H   0  0  0  0  0  0  0  0  0  0  0  0
   58.8902   27.8699   45.4017 H   0  0  0  0  0  0  0  0  0  0  0  0
   59.2284   29.1747   44.1797 H   0  0  0  0  0  0  0  0  0  0  0  0
   60.9569   28.5346   46.1736 H   0  0  0  0  0  0  0  0  0  0  0  0
   60.7992   30.1908   45.4806 H   0  0  0  0  0  0  0  0  0  0  0  0
   61.6116   29.1064   48.2404 H   0  0  0  0  0  0  0  0  0  0  0  0
   61.5517   30.9297   48.0757 H   0  0  0  0  0  0  0  0  0  0  0  0
   59.5813   29.6362   49.9183 H   0  0  0  0  0  0  0  0  0  0  0  0
   61.3300   29.7170   50.4268 H   0  0  0  0  0  0  0  0  0  0  0  0
   59.3415   31.9392   49.9890 H   0  0  0  0  0  0  0  0  0  0  0  0
   60.5734   31.6656   51.3127 H   0  0  0  0  0  0  0  0  0  0  0  0
   59.1319   34.1549   49.5755 H   0  0  0  0  0  0  0  0  0  0  0  0
   58.3822   35.6131   47.6925 H   0  0  0  0  0  0  0  0  0  0  0  0
   59.6692   35.6493   45.5544 H   0  0  0  0  0  0  0  0  0  0  0  0
   61.6722   34.1881   45.2736 H   0  0  0  0  0  0  0  0  0  0  0  0
   62.4263   31.4300   47.4616 H   0  0  0  0  0  0  0  0  0  0  0  0
   62.9977   32.4248   46.0573 H   0  0  0  0  0  0  0  0  0  0  0  0
   64.7230   32.1874   47.7777 H   0  0  0  0  0  0  0  0  0  0  0  0
   64.0953   33.9367   47.5640 H   0  0  0  0  0  0  0  0  0  0  0  0
   65.8766   33.5741   49.5638 H   0  0  0  0  0  0  0  0  0  0  0  0
   65.8577   34.0107   52.0064 H   0  0  0  0  0  0  0  0  0  0  0  0
   63.7341   33.8334   53.2952 H   0  0  0  0  0  0  0  0  0  0  0  0
   61.6253   33.2081   52.1407 H   0  0  0  0  0  0  0  0  0  0  0  0
   58.5415   31.3110   48.1980 H   0  0  0  0  0  0  0  0  0  0  0  0
   59.8037   31.9926   47.0811 H   0  0  0  0  0  0  0  0  0  0  0  0
   57.1683   31.6481   46.3971 H   0  0  0  0  0  0  0  0  0  0  0  0
   58.5509   31.6589   45.2291 H   0  0  0  0  0  0  0  0  0  0  0  0
  1  2  1  0
  2  3  1  0
  3  4  1  0
  4  5  2  0
  4  6  1  0
  6  7  1  0
  7  8  1  0
  8  9  1  0
  9 10  1  0
 10 11  1  0
 11 12  1  0
 12 13  1  0
 13 14  1  0
 14 15  2  0
 15 16  1  0
 16 17  2  0
 17 18  1  0
 18 19  2  0
 19 20  1  0
 20 21  1  0
 21 22  1  0
 22 23  2  0
 23 24  1  0
 24 25  2  0
 25 26  1  0
 26 27  2  0
  9 28  1  0
 28 29  1  0
 29  6  1  0
 27 13  1  0
 19 14  1  0
 27 22  1  0
  1 30  1  0
  1 31  1  0
  1 32  1  0
  2 33  1  0
  2 34  1  0
  6 35  1  0
  7 36  1  0
  7 37  1  0
  8 38  1  0
  8 39  1  0
 10 40  1  0
 10 41  1  0
 11 42  1  0
 11 43  1  0
 12 44  1  0
 12 45  1  0
 15 46  1  0
 16 47  1  0
 17 48  1  0
 18 49  1  0
 20 50  1  0
 20 51  1  0
 21 52  1  0
 21 53  1  0
 23 54  1  0
 24 55  1  0
 25 56  1  0
 26 57  1  0
 28 58  1  0
 28 59  1  0
 29 60  1  0
 29 61  1  0
M  END
>  <UniqueID>  (13) 
13

>  <SMILES>  (13) 
CCOC(=O)C1CCN(CCCN2c3ccccc3CCc3ccccc32)CC1

>  <Energy>  (13) 
82.68570438491605

>  <Genealogy>  (13) 
CCOC(=O)C1CCN(CCCN2c3ccccc3CCc3ccccc32)CC1 (3D coordinates assigned)
CCOC(=O)C1CCN(CCCN2c3ccccc3CCc3ccccc32)CC1 (nonaromatic ring conformer: 82.68570438491605 kcal/mol)

>  <smiles>  (13) 
CCOC(=O)C1CCN(CCCN2c3ccccc3CCc3ccccc32)CC1

>  <score_type>  (13) 
oracle

>  <origin>  (13) 
adg

>  <m_score__min__energy>  (13) 
-7.7800000000000002

>  <m_primary>  (13) 
energy

$$$$
13:0
     RDKit          3D

 65 67  0  0  0  0  0  0  0  0999 V2000
   61.4950   33.2270   51.5090 C   0  0  0  0  0  0  0  0  0  0  0  0
   62.8480   33.2490   50.7950 C   0  0  0  0  0  0  0  0  0  0  0  0
   63.0540   32.0350   49.9440 N   0  0  0  0  0  0  0  0  0  0  0  0
   64.1660   32.2280   48.9770 C   0  0  0  0  0  0  0  0  0  0  0  0
   63.7020   32.7530   47.6140 C   0  0  0  0  0  0  0  0  0  0  0  0
   63.3580   30.8500   50.7880 C   0  0  0  0  0  0  0  0  0  0  0  0
   62.2290   29.8060   50.7850 C   0  0  0  0  0  0  0  0  0  0  0  0
   61.2740   30.1370   49.7970 O   0  0  0  0  0  0  0  0  0  0  0  0
   59.9750   30.0410   50.3490 C   0  0  0  0  0  0  0  0  0  0  0  0
   58.9500   29.8440   49.2370 C   0  0  0  0  0  0  0  0  0  0  0  0
   59.5670   29.9200   47.9100 N   0  0  0  0  0  0  0  0  0  0  0  0
   59.1550   30.8990   46.9410 C   0  0  0  0  0  0  0  0  0  0  0  0
   59.4690   32.2540   47.1490 C   0  0  0  0  0  0  0  0  0  0  0  0
   60.4220   32.6370   48.1180 C   0  0  0  0  0  0  0  0  0  0  0  0
   60.7410   33.9790   48.3120 C   0  0  0  0  0  0  0  0  0  0  0  0
   60.1370   34.9570   47.5340 C   0  0  0  0  0  0  0  0  0  0  0  0
   59.2030   34.6020   46.5610 C   0  0  0  0  0  0  0  0  0  0  0  0
   58.8380   33.2460   46.3590 C   0  0  0  0  0  0  0  0  0  0  0  0
   57.9060   32.8790   45.4130 N   0  0  0  0  0  0  0  0  0  0  0  0
   57.0040   33.8980   44.8310 C   0  0  0  0  0  0  0  0  0  0  0  0
   57.8140   31.5600   45.0120 C   0  0  0  0  0  0  0  0  0  0  0  0
   57.1300   31.2080   43.8250 C   0  0  0  0  0  0  0  0  0  0  0  0
   56.9860   29.8820   43.4410 C   0  0  0  0  0  0  0  0  0  0  0  0
   57.5580   28.8730   44.1990 C   0  0  0  0  0  0  0  0  0  0  0  0
   58.2980   29.1700   45.3490 C   0  0  0  0  0  0  0  0  0  0  0  0
   59.0170   28.0910   45.9700 N   0  0  0  0  0  0  0  0  0  0  0  0
   60.4150   27.8950   45.5890 C   0  0  0  0  0  0  0  0  0  0  0  0
   58.2720   26.9210   46.4350 C   0  0  0  0  0  0  0  0  0  0  0  0
   58.4300   30.5260   45.7810 C   0  0  0  0  0  0  0  0  0  0  0  0
   61.6547   33.2296   52.5973 H   0  0  0  0  0  0  0  0  0  0  0  0
   60.9142   34.1158   51.2215 H   0  0  0  0  0  0  0  0  0  0  0  0
   60.9434   32.3198   51.2215 H   0  0  0  0  0  0  0  0  0  0  0  0
   62.8976   34.1430   50.1560 H   0  0  0  0  0  0  0  0  0  0  0  0
   63.6362   33.2633   51.5621 H   0  0  0  0  0  0  0  0  0  0  0  0
   62.1900   31.8160   49.3900 H   0  0  0  0  0  0  0  0  0  0  0  0
   64.8787   32.9488   49.4043 H   0  0  0  0  0  0  0  0  0  0  0  0
   64.6237   31.2423   48.8070 H   0  0  0  0  0  0  0  0  0  0  0  0
   62.9802   33.5697   47.7620 H   0  0  0  0  0  0  0  0  0  0  0  0
   64.5694   33.1278   47.0508 H   0  0  0  0  0  0  0  0  0  0  0  0
   63.2234   31.9383   47.0508 H   0  0  0  0  0  0  0  0  0  0  0  0
   64.2753   30.3757   50.4092 H   0  0  0  0  0  0  0  0  0  0  0  0
   63.4766   31.2041   51.8227 H   0  0  0  0  0  0  0  0  0  0  0  0
   62.6501   28.8133   50.5679 H   0  0  0  0  0  0  0  0  0  0  0  0
   61.7423   29.7943   51.7714 H   0  0  0  0  0  0  0  0  0  0  0  0
   59.9342   29.1846   51.0381 H   0  0  0  0  0  0  0  0  0  0  0  0
   59.7441   30.9686   50.8933 H   0  0  0  0  0  0  0  0  0  0  0  0
   58.4809   28.8561   49.3558 H   0  0  0  0  0  0  0  0  0  0  0  0
   58.2028   30.6476   49.3137 H   0  0  0  0  0  0  0  0  0  0  0  0
   60.5020   29.4740   47.7890 H   0  0  0  0  0  0  0  0  0  0  0  0
   60.9182   31.8667   48.7267 H   0  0  0  0  0  0  0  0  0  0  0  0
   61.4724   34.2640   49.0826 H   0  0  0  0  0  0  0  0  0  0  0  0
   60.3958   36.0154   47.6853 H   0  0  0  0  0  0  0  0  0  0  0  0
   58.7424   35.3851   45.9409 H   0  0  0  0  0  0  0  0  0  0  0  0
   56.5103   34.4558   45.6404 H   0  0  0  0  0  0  0  0  0  0  0  0
   57.5882   34.5931   44.2100 H   0  0  0  0  0  0  0  0  0  0  0  0
   56.2432   33.4025   44.2100 H   0  0  0  0  0  0  0  0  0  0  0  0
   56.7035   32.0012   43.1934 H   0  0  0  0  0  0  0  0  0  0  0  0
   56.4169   29.6318   42.5335 H   0  0  0  0  0  0  0  0  0  0  0  0
   57.4287   27.8244   43.8927 H   0  0  0  0  0  0  0  0  0  0  0  0
   61.0332   27.8083   46.4947 H   0  0  0  0  0  0  0  0  0  0  0  0
   60.5071   26.9752   44.9928 H   0  0  0  0  0  0  0  0  0  0  0  0
   60.7565   28.7541   44.9928 H   0  0  0  0  0  0  0  0  0  0  0  0
   58.2623   26.9058   47.5349 H   0  0  0  0  0  0  0  0  0  0  0  0
   57.2391   26.9711   46.0599 H   0  0  0  0  0  0  0  0  0  0  0  0
   58.7543   26.0063   46.0599 H   0  0  0  0  0  0  0  0  0  0  0  0
  1  2  1  0
  2  3  1  0
  3  4  1  0
  4  5  1  0
  3  6  1  0
  6  7  1  0
  7  8  1  0
  8  9  1  0
  9 10  1  0
 10 11  1  0
 11 12  1  0
 12 13  2  0
 13 14  1  0
 14 15  2  0
 15 16  1  0
 16 17  2  0
 17 18  1  0
 18 19  2  0
 19 20  1  0
 19 21  1  0
 21 22  2  0
 22 23  1  0
 23 24  2  0
 24 25  1  0
 25 26  1  0
 26 27  1  0
 26 28  1  0
 25 29  2  0
 29 12  1  0
 18 13  1  0
 29 21  1  0
  1 30  1  0
  1 31  1  0
  1 32  1  0
  2 33  1  0
  2 34  1  0
  3 35  1  0
  4 36  1  0
  4 37  1  0
  5 38  1  0
  5 39  1  0
  5 40  1  0
  6 41  1  0
  6 42  1  0
  7 43  1  0
  7 44  1  0
  9 45  1  0
  9 46  1  0
 10 47  1  0
 10 48  1  0
 11 49  1  0
 14 50  1  0
 15 51  1  0
 16 52  1  0
 17 53  1  0
 20 54  1  0
 20 55  1  0
 20 56  1  0
 22 57  1  0
 23 58  1  0
 24 59  1  0
 27 60  1  0
 27 61  1  0
 27 62  1  0
 28 63  1  0
 28 64  1  0
 28 65  1  0
M  CHG  2   3   1  19   1
M  END
>  <UniqueID>  (14) 
14

>  <SMILES>  (14) 
CC[NH+](CC)CCOCCNc1c2ccccc2[n+](C)c2cccc(N(C)C)c12

>  <Energy>  (14) 
96.25797661007657

>  <Genealogy>  (14) 
CC[NH+](CC)CCOCCNc1c2ccccc2[n+](C)c2cccc(N(C)C)c12 (protonated)
CC[NH+](CC)CCOCCNc1c2ccccc2[n+](C)c2cccc(N(C)C)c12 (3D coordinates assigned)
CC[NH+](CC)CCOCCNc1c2ccccc2[n+](C)c2cccc(N(C)C)c12 (optimized conformer: 96.25797661007657 kcal/mol)

>  <smiles>  (14) 
CCN(CC)CCOCCNc1c2ccccc2[n+](C)c2cccc(N(C)C)c12

>  <score_type>  (14) 
oracle

>  <origin>  (14) 
adg

>  <m_score__min__energy>  (14) 
-3.71

>  <m_primary>  (14) 
energy

$$$$
14:0
     RDKit          3D

 61 64  0  0  0  0  0  0  0  0999 V2000
   64.5390   31.5770   50.6100 C   0  0  0  0  0  0  0  0  0  0  0  0
   64.5040   32.4110   49.3230 C   0  0  0  0  0  0  0  0  0  0  0  0
   63.1730   32.5240   48.6280 N   0  0  0  0  0  0  0  0  0  0  0  0
   63.3870   32.5440   47.1250 C   0  0  0  0  0  0  0  0  0  0  0  0
   63.1030   33.8620   46.3690 C   0  0  0  0  0  0  0  0  0  0  0  0
   62.5570   33.8700   48.9420 C   0  0  0  0  0  0  0  0  0  0  0  0
   62.9290   34.5560   50.2740 C   0  0  0  0  0  0  0  0  0  0  0  0
   62.2220   31.4090   48.9820 C   0  0  0  0  0  0  0  0  0  0  0  0
   61.0600   31.7190   49.9690 C   0  0  0  0  0  0  0  0  0  0  0  0
   59.8550   30.8910   49.7270 N   0  0  0  0  0  0  0  0  0  0  0  0
   59.4530   30.9090   48.3310 C   0  0  0  0  0  0  0  0  0  0  0  0
   59.2450   29.7160   47.6140 C   0  0  0  0  0  0  0  0  0  0  0  0
   58.7790   29.7320   46.3060 C   0  0  0  0  0  0  0  0  0  0  0  0
   58.6560   30.8970   45.5970 N   0  0  0  0  0  0  0  0  0  0  0  0
   58.5090   30.8550   44.1320 C   0  0  0  0  0  0  0  0  0  0  0  0
   58.7540   32.1000   46.2740 C   0  0  0  0  0  0  0  0  0  0  0  0
   58.4150   33.3250   45.6460 C   0  0  0  0  0  0  0  0  0  0  0  0
   58.5570   34.5390   46.3130 C   0  0  0  0  0  0  0  0  0  0  0  0
   59.0270   34.5700   47.6180 C   0  0  0  0  0  0  0  0  0  0  0  0
   59.3350   33.3850   48.2810 C   0  0  0  0  0  0  0  0  0  0  0  0
   59.1850   32.1310   47.6440 C   0  0  0  0  0  0  0  0  0  0  0  0
   58.5630   28.3320   45.8650 C   0  0  0  0  0  0  0  0  0  0  0  0
   57.8970   27.7990   44.7510 C   0  0  0  0  0  0  0  0  0  0  0  0
   57.7770   26.4030   44.6400 C   0  0  0  0  0  0  0  0  0  0  0  0
   58.2740   25.5610   45.6520 C   0  0  0  0  0  0  0  0  0  0  0  0
   58.8730   26.1090   46.7970 C   0  0  0  0  0  0  0  0  0  0  0  0
   58.9940   27.4960   46.8780 C   0  0  0  0  0  0  0  0  0  0  0  0
   59.4480   28.3080   47.9910 C   0  0  0  0  0  0  0  0  0  0  0  0
   59.9630   27.8610   49.0480 O   0  0  0  0  0  0  0  0  0  0  0  0
   64.5109   32.2470   51.4820 H   0  0  0  0  0  0  0  0  0  0  0  0
   63.6683   30.9053   50.6355 H   0  0  0  0  0  0  0  0  0  0  0  0
   65.4630   30.9806   50.6355 H   0  0  0  0  0  0  0  0  0  0  0  0
   64.8357   33.4288   49.5759 H   0  0  0  0  0  0  0  0  0  0  0  0
   65.1562   31.8787   48.6150 H   0  0  0  0  0  0  0  0  0  0  0  0
   64.4393   32.2815   46.9409 H   0  0  0  0  0  0  0  0  0  0  0  0
   62.6425   31.8360   46.7321 H   0  0  0  0  0  0  0  0  0  0  0  0
   62.9288   34.6705   47.0943 H   0  0  0  0  0  0  0  0  0  0  0  0
   63.9670   34.1159   45.7374 H   0  0  0  0  0  0  0  0  0  0  0  0
   62.2111   33.7375   45.7374 H   0  0  0  0  0  0  0  0  0  0  0  0
   62.8446   34.5560   48.1317 H   0  0  0  0  0  0  0  0  0  0  0  0
   61.4817   33.6589   49.0382 H   0  0  0  0  0  0  0  0  0  0  0  0
   62.5908   33.9323   51.1146 H   0  0  0  0  0  0  0  0  0  0  0  0
   64.0202   34.6841   50.3282 H   0  0  0  0  0  0  0  0  0  0  0  0
   62.4411   35.5404   50.3282 H   0  0  0  0  0  0  0  0  0  0  0  0
   61.7679   31.0575   48.0438 H   0  0  0  0  0  0  0  0  0  0  0  0
   62.8462   30.6781   49.5170 H   0  0  0  0  0  0  0  0  0  0  0  0
   61.4125   31.5329   50.9942 H   0  0  0  0  0  0  0  0  0  0  0  0
   60.7719   32.7696   49.8168 H   0  0  0  0  0  0  0  0  0  0  0  0
   60.0450   29.9040   50.0130 H   0  0  0  0  0  0  0  0  0  0  0  0
   59.0780   31.1880   50.3510 H   0  0  0  0  0  0  0  0  0  0  0  0
   57.4806   30.5612   43.8750 H   0  0  0  0  0  0  0  0  0  0  0  0
   58.7216   31.8498   43.7135 H   0  0  0  0  0  0  0  0  0  0  0  0
   59.2150   30.1226   43.7135 H   0  0  0  0  0  0  0  0  0  0  0  0
   58.0333   33.3163   44.6144 H   0  0  0  0  0  0  0  0  0  0  0  0
   58.2953   35.4778   45.8029 H   0  0  0  0  0  0  0  0  0  0  0  0
   59.1568   35.5344   48.1308 H   0  0  0  0  0  0  0  0  0  0  0  0
   59.7011   33.4247   49.3175 H   0  0  0  0  0  0  0  0  0  0  0  0
   57.4769   28.4609   43.9794 H   0  0  0  0  0  0  0  0  0  0  0  0
   57.2910   25.9654   43.7555 H   0  0  0  0  0  0  0  0  0  0  0  0
   58.1928   24.4692   45.5454 H   0  0  0  0  0  0  0  0  0  0  0  0
   59.2372   25.4619   47.6086 H   0  0  0  0  0  0  0  0  0  0  0  0
  1  2  1  0
  2  3  1  0
  3  4  1  0
  4  5  1  0
  3  6  1  0
  6  7  1  0
  3  8  1  0
  8  9  1  0
  9 10  1  0
 10 11  1  0
 11 12  2  0
 12 13  1  0
 13 14  2  0
 14 15  1  0
 14 16  1  0
 16 17  2  0
 17 18  1  0
 18 19  2  0
 19 20  1  0
 20 21  2  0
 13 22  1  0
 22 23  2  0
 23 24  1  0
 24 25  2  0
 25 26  1  0
 26 27  2  0
 27 28  1  0
 28 29  2  0
 21 11  1  0
 27 22  1  0
 28 12  1  0
 21 16  1  0
  1 30  1  0
  1 31  1  0
  1 32  1  0
  2 33  1  0
  2 34  1  0
  4 35  1  0
  4 36  1  0
  5 37  1  0
  5 38  1  0
  5 39  1  0
  6 40  1  0
  6 41  1  0
  7 42  1  0
  7 43  1  0
  7 44  1  0
  8 45  1  0
  8 46  1  0
  9 47  1  0
  9 48  1  0
 10 49  1  0
 10 50  1  0
 15 51  1  0
 15 52  1  0
 15 53  1  0
 17 54  1  0
 18 55  1  0
 19 56  1  0
 20 57  1  0
 23 58  1  0
 24 59  1  0
 25 60  1  0
 26 61  1  0
M  CHG  3   3   1  10   1  14   1
M  END
>  <UniqueID>  (15) 
15

>  <SMILES>  (15) 
CC[N+](CC)(CC)CC[NH2+]c1c2c([n+](C)c3ccccc13)-c1ccccc1C2=O

>  <Energy>  (15) 
151.0346642684239

>  <Genealogy>  (15) 
CC[N+](CC)(CC)CC[NH2+]c1c2c([n+](C)c3ccccc13)-c1ccccc1C2=O (protonated)
CC[N+](CC)(CC)CC[NH2+]c1c2c([n+](C)c3ccccc13)-c1ccccc1C2=O (3D coordinates assigned)
CC[N+](CC)(CC)CC[NH2+]c1c2c([n+](C)c3ccccc13)-c1ccccc1C2=O (nonaromatic ring conformer: 151.0346642684239 kcal/mol)

>  <smiles>  (15) 
CC[N+](CC)(CC)CCNc1c2c([n+](C)c3ccccc13)-c1ccccc1C2=O

>  <score_type>  (15) 
oracle

>  <origin>  (15) 
adg

>  <m_score__min__energy>  (15) 
-3.73

>  <m_primary>  (15) 
energy

$$$$
15:0
     RDKit          3D

 40 42  0  0  0  0  0  0  0  0999 V2000
   58.1460   27.0590   42.7460 C   0  0  0  0  0  0  0  0  0  0  0  0
   57.8380   28.1740   43.7440 C   0  0  0  0  0  0  0  0  0  0  0  0
   56.8900   29.2320   43.1630 C   0  0  0  0  0  0  0  0  0  0  0  0
   57.0600   30.5580   43.8390 C   0  0  0  0  0  0  0  0  0  0  0  0
   58.0440   31.4880   43.5780 C   0  0  0  0  0  0  0  0  0  0  0  0
   57.7690   32.4990   44.4750 C   0  0  0  0  0  0  0  0  0  0  0  0
   58.5830   33.7410   44.6770 C   0  0  0  0  0  0  0  0  0  0  0  0
   58.3010   34.3310   45.9920 N   0  0  0  0  0  0  0  0  0  0  0  0
   59.4580   34.2140   46.8430 C   0  0  0  0  0  0  0  0  0  0  0  0
   59.3270   34.3270   48.2470 C   0  0  0  0  0  0  0  0  0  0  0  0
   60.4460   34.1840   49.0800 C   0  0  0  0  0  0  0  0  0  0  0  0
   61.6880   33.9220   48.4990 C   0  0  0  0  0  0  0  0  0  0  0  0
   61.8240   33.8010   47.1400 C   0  0  0  0  0  0  0  0  0  0  0  0
   60.7250   33.9360   46.2880 C   0  0  0  0  0  0  0  0  0  0  0  0
   63.2200   33.5100   46.7430 C   0  0  0  0  0  0  0  0  0  0  0  0
   63.9890   33.4770   48.0770 C   0  0  0  0  0  0  0  0  0  0  0  0
   62.9740   33.7340   49.2080 C   0  0  0  0  0  0  0  0  0  0  0  0
   56.7010   32.1670   45.2270 N   0  0  0  0  0  0  0  0  0  0  0  0
   56.3000   31.0000   44.8140 O   0  0  0  0  0  0  0  0  0  0  0  0
   58.4003   26.1384   43.2917 H   0  0  0  0  0  0  0  0  0  0  0  0
   57.2640   26.8788   42.1139 H   0  0  0  0  0  0  0  0  0  0  0  0
   58.9955   27.3570   42.1139 H   0  0  0  0  0  0  0  0  0  0  0  0
   57.3698   27.7311   44.6354 H   0  0  0  0  0  0  0  0  0  0  0  0
   58.7860   28.6730   43.9934 H   0  0  0  0  0  0  0  0  0  0  0  0
   57.1010   29.3491   42.0898 H   0  0  0  0  0  0  0  0  0  0  0  0
   55.8562   28.8934   43.3263 H   0  0  0  0  0  0  0  0  0  0  0  0
   58.8528   31.4361   42.8342 H   0  0  0  0  0  0  0  0  0  0  0  0
   59.6517   33.4877   44.6152 H   0  0  0  0  0  0  0  0  0  0  0  0
   58.3209   34.4698   43.8958 H   0  0  0  0  0  0  0  0  0  0  0  0
   57.4880   33.8390   46.4340 H   0  0  0  0  0  0  0  0  0  0  0  0
   58.0460   35.3410   45.8790 H   0  0  0  0  0  0  0  0  0  0  0  0
   58.3399   34.5286   48.6887 H   0  0  0  0  0  0  0  0  0  0  0  0
   60.3469   34.2766   50.1716 H   0  0  0  0  0  0  0  0  0  0  0  0
   60.8458   33.8271   45.2001 H   0  0  0  0  0  0  0  0  0  0  0  0
   63.2861   32.5393   46.2298 H   0  0  0  0  0  0  0  0  0  0  0  0
   63.6237   34.2540   46.0405 H   0  0  0  0  0  0  0  0  0  0  0  0
   64.4610   32.4928   48.2134 H   0  0  0  0  0  0  0  0  0  0  0  0
   64.7788   34.2426   48.0861 H   0  0  0  0  0  0  0  0  0  0  0  0
   62.9222   32.8726   49.8901 H   0  0  0  0  0  0  0  0  0  0  0  0
   63.2444   34.5992   49.8311 H   0  0  0  0  0  0  0  0  0  0  0  0
  1  2  1  0
  2  3  1  0
  3  4  1  0
  4  5  2  0
  5  6  1  0
  6  7  1  0
  7  8  1  0
  8  9  1  0
  9 10  2  0
 10 11  1  0
 11 12  2  0
 12 13  1  0
 13 14  2  0
 13 15  1  0
 15 16  1  0
 16 17  1  0
  6 18  2  0
 18 19  1  0
 19  4  1  0
 14  9  1  0
 17 12  1  0
  1 20  1  0
  1 21  1  0
  1 22  1  0
  2 23  1  0
  2 24  1  0
  3 25  1  0
  3 26  1  0
  5 27  1  0
  7 28  1  0
  7 29  1  0
  8 30  1  0
  8 31  1  0
 10 32  1  0
 11 33  1  0
 14 34  1  0
 15 35  1  0
 15 36  1  0
 16 37  1  0
 16 38  1  0
 17 39  1  0
 17 40  1  0
M  CHG  1   8   1
M  END
>  <UniqueID>  (16) 
16

>  <SMILES>  (16) 
CCCc1cc(C[NH2+]c2ccc3c(c2)CCC3)no1

>  <Energy>  (16) 
72.07879605768258

>  <Genealogy>  (16) 
CCCc1cc(C[NH2+]c2ccc3c(c2)CCC3)no1 (protonated)
CCCc1cc(C[NH2+]c2ccc3c(c2)CCC3)no1 (3D coordinates assigned)
CCCc1cc(C[NH2+]c2ccc3c(c2)CCC3)no1 (nonaromatic ring conformer: 72.07879605768258 kcal/mol)

>  <smiles>  (16) 
CCCc1cc(CNc2ccc3c(c2)CCC3)no1

>  <score_type>  (16) 
oracle

>  <origin>  (16) 
adg

>  <m_score__min__energy>  (16) 
-6.6399999999999997

>  <m_primary>  (16) 
energy

$$$$
16:0
     RDKit          3D

 52 54  0  0  0  0  0  0  0  0999 V2000
   56.6240   30.4530   43.3200 C   0  0  0  0  0  0  0  0  0  0  0  0
   56.4080   31.2270   44.4950 O   0  0  0  0  0  0  0  0  0  0  0  0
   57.3840   32.0310   45.1020 C   0  0  0  0  0  0  0  0  0  0  0  0
   57.3530   33.4510   45.0230 C   0  0  0  0  0  0  0  0  0  0  0  0
   58.3430   34.2240   45.6540 C   0  0  0  0  0  0  0  0  0  0  0  0
   59.3530   33.5580   46.3420 C   0  0  0  0  0  0  0  0  0  0  0  0
   60.3630   34.1110   47.0330 N   0  0  0  0  0  0  0  0  0  0  0  0
   61.0790   33.0830   47.5480 C   0  0  0  0  0  0  0  0  0  0  0  0
   62.2290   33.2990   48.4550 C   0  0  0  0  0  0  0  0  0  0  0  0
   62.0970   34.0310   49.6460 C   0  0  0  0  0  0  0  0  0  0  0  0
   63.1900   34.1960   50.5020 C   0  0  0  0  0  0  0  0  0  0  0  0
   64.4240   33.6240   50.1800 C   0  0  0  0  0  0  0  0  0  0  0  0
   64.5640   32.8820   49.0050 C   0  0  0  0  0  0  0  0  0  0  0  0
   63.4710   32.7140   48.1490 C   0  0  0  0  0  0  0  0  0  0  0  0
   60.5080   31.8570   47.1720 C   0  0  0  0  0  0  0  0  0  0  0  0
   60.9210   30.4640   47.5750 C   0  0  0  0  0  0  0  0  0  0  0  0
   59.9050   29.7930   48.5120 C   0  0  0  0  0  0  0  0  0  0  0  0
   58.9360   28.9980   47.7440 N   0  0  0  0  0  0  0  0  0  0  0  0
   59.2680   27.5640   47.7280 C   0  0  0  0  0  0  0  0  0  0  0  0
   59.6220   27.1250   46.3040 C   0  0  0  0  0  0  0  0  0  0  0  0
   59.4670   28.2380   45.3410 N   0  0  0  0  0  0  0  0  0  0  0  0
   58.5970   27.8290   44.2280 C   0  0  0  0  0  0  0  0  0  0  0  0
   60.7740   28.6660   44.8140 C   0  0  0  0  0  0  0  0  0  0  0  0
   59.3990   32.1920   46.4130 C   0  0  0  0  0  0  0  0  0  0  0  0
   58.4210   31.3970   45.8130 C   0  0  0  0  0  0  0  0  0  0  0  0
   56.9097   29.4291   43.6028 H   0  0  0  0  0  0  0  0  0  0  0  0
   55.6995   30.4245   42.7246 H   0  0  0  0  0  0  0  0  0  0  0  0
   57.4297   30.9073   42.7246 H   0  0  0  0  0  0  0  0  0  0  0  0
   56.5473   33.9484   44.4632 H   0  0  0  0  0  0  0  0  0  0  0  0
   58.3201   35.3227   45.6055 H   0  0  0  0  0  0  0  0  0  0  0  0
   60.5470   35.1320   47.1570 H   0  0  0  0  0  0  0  0  0  0  0  0
   61.1265   34.4779   49.9074 H   0  0  0  0  0  0  0  0  0  0  0  0
   63.0787   34.7765   51.4297 H   0  0  0  0  0  0  0  0  0  0  0  0
   65.2846   33.7582   50.8518 H   0  0  0  0  0  0  0  0  0  0  0  0
   65.5344   32.4296   48.7528 H   0  0  0  0  0  0  0  0  0  0  0  0
   63.5833   32.1202   47.2299 H   0  0  0  0  0  0  0  0  0  0  0  0
   61.0219   29.8503   46.6677 H   0  0  0  0  0  0  0  0  0  0  0  0
   61.8734   30.5439   48.1195 H   0  0  0  0  0  0  0  0  0  0  0  0
   60.4396   29.1334   49.2114 H   0  0  0  0  0  0  0  0  0  0  0  0
   59.3626   30.5749   49.0637 H   0  0  0  0  0  0  0  0  0  0  0  0
   58.9330   29.3390   46.7540 H   0  0  0  0  0  0  0  0  0  0  0  0
   60.1274   27.3815   48.3899 H   0  0  0  0  0  0  0  0  0  0  0  0
   58.3989   26.9879   48.0783 H   0  0  0  0  0  0  0  0  0  0  0  0
   60.6659   26.7786   46.2855 H   0  0  0  0  0  0  0  0  0  0  0  0
   58.9367   26.3160   46.0109 H   0  0  0  0  0  0  0  0  0  0  0  0
   57.6698   27.3931   44.6284 H   0  0  0  0  0  0  0  0  0  0  0  0
   58.3531   28.7068   43.6116 H   0  0  0  0  0  0  0  0  0  0  0  0
   59.1173   27.0812   43.6116 H   0  0  0  0  0  0  0  0  0  0  0  0
   61.4520   28.8880   45.6512 H   0  0  0  0  0  0  0  0  0  0  0  0
   61.2026   27.8613   44.1986 H   0  0  0  0  0  0  0  0  0  0  0  0
   60.6435   29.5684   44.1986 H   0  0  0  0  0  0  0  0  0  0  0  0
   58.4595   30.3006   45.8937 H   0  0  0  0  0  0  0  0  0  0  0  0
  1  2  1  0
  2  3  1  0
  3  4  2  0
  4  5  1  0
  5  6  2  0
  6  7  1  0
  7  8  1  0
  8  9  1  0
  9 10  2  0
 10 11  1  0
 11 12  2  0
 12 13  1  0
 13 14  2  0
  8 15  2  0
 15 16  1  0
 16 17  1  0
 17 18  1  0
 18 19  1  0
 19 20  1  0
 20 21  1  0
 21 22  1  0
 21 23  1  0
 15 24  1  0
 24 25  2  0
 25  3  1  0
 24  6  1  0
 14  9  1  0
  1 26  1  0
  1 27  1  0
  1 28  1  0
  4 29  1  0
  5 30  1  0
  7 31  1  0
 10 32  1  0
 11 33  1  0
 12 34  1  0
 13 35  1  0
 14 36  1  0
 16 37  1  0
 16 38  1  0
 17 39  1  0
 17 40  1  0
 18 41  1  0
 19 42  1  0
 19 43  1  0
 20 44  1  0
 20 45  1  0
 22 46  1  0
 22 47  1  0
 22 48  1  0
 23 49  1  0
 23 50  1  0
 23 51  1  0
 25 52  1  0
M  END
>  <UniqueID>  (17) 
17

>  <SMILES>  (17) 
COc1ccc2[nH]c(-c3ccccc3)c(CCNCCN(C)C)c2c1

>  <Energy>  (17) 
86.01223717494948

>  <Genealogy>  (17) 
COc1ccc2[nH]c(-c3ccccc3)c(CCNCCN(C)C)c2c1 (3D coordinates assigned)
COc1ccc2[nH]c(-c3ccccc3)c(CCNCCN(C)C)c2c1 (optimized conformer: 86.01223717494948 kcal/mol)

>  <smiles>  (17) 
COc1ccc2[nH]c(-c3ccccc3)c(CCNCCN(C)C)c2c1

>  <score_type>  (17) 
oracle

>  <origin>  (17) 
adg

>  <m_score__min__energy>  (17) 
-7.0700000000000003

>  <m_primary>  (17) 
energy

$$$$
17:0
     RDKit          3D

 56 58  0  0  0  0  0  0  0  0999 V2000
   62.4260   34.2230   48.6160 C   0  0  0  0  0  0  0  0  0  0  0  0
   62.7140   33.8250   47.1710 C   0  0  0  0  0  0  0  0  0  0  0  0
   63.5450   32.5370   47.1080 C   0  0  0  0  0  0  0  0  0  0  0  0
   63.7900   31.9710   48.5090 C   0  0  0  0  0  0  0  0  0  0  0  0
   62.6280   31.1790   48.9350 N   0  0  0  0  0  0  0  0  0  0  0  0
   62.6690   30.8920   50.3780 C   0  0  0  0  0  0  0  0  0  0  0  0
   61.6590   31.7680   51.1250 C   0  0  0  0  0  0  0  0  0  0  0  0
   60.5920   32.1490   50.2770 O   0  0  0  0  0  0  0  0  0  0  0  0
   59.3900   31.5270   50.6790 C   0  0  0  0  0  0  0  0  0  0  0  0
   58.8950   30.6090   49.5610 C   0  0  0  0  0  0  0  0  0  0  0  0
   59.7190   30.7480   48.3590 N   0  0  0  0  0  0  0  0  0  0  0  0
   59.1400   31.0180   47.0700 C   0  0  0  0  0  0  0  0  0  0  0  0
   59.0790   32.3310   46.5750 C   0  0  0  0  0  0  0  0  0  0  0  0
   59.4260   33.4290   47.3920 C   0  0  0  0  0  0  0  0  0  0  0  0
   59.3300   34.7320   46.9100 C   0  0  0  0  0  0  0  0  0  0  0  0
   58.8660   34.9660   45.6220 C   0  0  0  0  0  0  0  0  0  0  0  0
   58.5050   33.8980   44.8000 C   0  0  0  0  0  0  0  0  0  0  0  0
   58.6230   32.5570   45.2480 C   0  0  0  0  0  0  0  0  0  0  0  0
   58.2890   31.4870   44.4380 N   0  0  0  0  0  0  0  0  0  0  0  0
   58.1000   31.6890   42.9850 C   0  0  0  0  0  0  0  0  0  0  0  0
   58.1440   30.2260   44.9880 C   0  0  0  0  0  0  0  0  0  0  0  0
   57.5400   29.1630   44.2680 C   0  0  0  0  0  0  0  0  0  0  0  0
   57.4460   27.8840   44.8170 C   0  0  0  0  0  0  0  0  0  0  0  0
   57.9310   27.6340   46.0950 C   0  0  0  0  0  0  0  0  0  0  0  0
   58.4940   28.6660   46.8420 C   0  0  0  0  0  0  0  0  0  0  0  0
   58.5960   29.9690   46.3090 C   0  0  0  0  0  0  0  0  0  0  0  0
   62.9324   33.5231   49.2970 H   0  0  0  0  0  0  0  0  0  0  0  0
   62.7966   35.2429   48.7962 H   0  0  0  0  0  0  0  0  0  0  0  0
   61.3414   34.1898   48.7962 H   0  0  0  0  0  0  0  0  0  0  0  0
   61.7609   33.6637   46.6460 H   0  0  0  0  0  0  0  0  0  0  0  0
   63.2864   34.6338   46.6933 H   0  0  0  0  0  0  0  0  0  0  0  0
   63.0049   31.7898   46.5079 H   0  0  0  0  0  0  0  0  0  0  0  0
   64.5176   32.7704   46.6502 H   0  0  0  0  0  0  0  0  0  0  0  0
   64.6834   31.3294   48.4928 H   0  0  0  0  0  0  0  0  0  0  0  0
   63.9430   32.8008   49.2148 H   0  0  0  0  0  0  0  0  0  0  0  0
   61.7700   31.7480   48.7410 H   0  0  0  0  0  0  0  0  0  0  0  0
   62.4229   29.8328   50.5441 H   0  0  0  0  0  0  0  0  0  0  0  0
   63.6787   31.1091   50.7566 H   0  0  0  0  0  0  0  0  0  0  0  0
   61.2558   31.2037   51.9788 H   0  0  0  0  0  0  0  0  0  0  0  0
   62.1727   32.6770   51.4713 H   0  0  0  0  0  0  0  0  0  0  0  0
   59.5696   30.9343   51.5881 H   0  0  0  0  0  0  0  0  0  0  0  0
   58.6305   32.2950   50.8873 H   0  0  0  0  0  0  0  0  0  0  0  0
   58.9385   29.5659   49.9074 H   0  0  0  0  0  0  0  0  0  0  0  0
   57.8619   30.8911   49.3100 H   0  0  0  0  0  0  0  0  0  0  0  0
   60.7590   30.7170   48.4500 H   0  0  0  0  0  0  0  0  0  0  0  0
   59.7758   33.2534   48.4200 H   0  0  0  0  0  0  0  0  0  0  0  0
   59.6221   35.5773   47.5504 H   0  0  0  0  0  0  0  0  0  0  0  0
   58.7828   35.9973   45.2485 H   0  0  0  0  0  0  0  0  0  0  0  0
   58.1227   34.0989   43.7883 H   0  0  0  0  0  0  0  0  0  0  0  0
   57.3571   32.4830   42.8188 H   0  0  0  0  0  0  0  0  0  0  0  0
   59.0570   31.9807   42.5278 H   0  0  0  0  0  0  0  0  0  0  0  0
   57.7453   30.7535   42.5278 H   0  0  0  0  0  0  0  0  0  0  0  0
   57.1395   29.3504   43.2608 H   0  0  0  0  0  0  0  0  0  0  0  0
   56.9864   27.0706   44.2363 H   0  0  0  0  0  0  0  0  0  0  0  0
   57.8702   26.6200   46.5171 H   0  0  0  0  0  0  0  0  0  0  0  0
   58.8631   28.4634   47.8582 H   0  0  0  0  0  0  0  0  0  0  0  0
  1  2  1  0
  2  3  1  0
  3  4  1  0
  4  5  1  0
  5  6  1  0
  6  7  1  0
  7  8  1  0
  8  9  1  0
  9 10  1  0
 10 11  1  0
 11 12  1  0
 12 13  2  0
 13 14  1  0
 14 15  2  0
 15 16  1  0
 16 17  2  0
 17 18  1  0
 18 19  2  0
 19 20  1  0
 19 21  1  0
 21 22  2  0
 22 23  1  0
 23 24  2  0
 24 25  1  0
 25 26  2  0
 26 12  1  0
 18 13  1  0
 26 21  1  0
  1 27  1  0
  1 28  1  0
  1 29  1  0
  2 30  1  0
  2 31  1  0
  3 32  1  0
  3 33  1  0
  4 34  1  0
  4 35  1  0
  5 36  1  0
  6 37  1  0
  6 38  1  0
  7 39  1  0
  7 40  1  0
  9 41  1  0
  9 42  1  0
 10 43  1  0
 10 44  1  0
 11 45  1  0
 14 46  1  0
 15 47  1  0
 16 48  1  0
 17 49  1  0
 20 50  1  0
 20 51  1  0
 20 52  1  0
 22 53  1  0
 23 54  1  0
 24 55  1  0
 25 56  1  0
M  CHG  1  19   1
M  END
>  <UniqueID>  (18) 
18

>  <SMILES>  (18) 
CCCCNCCOCCNc1c2ccccc2[n+](C)c2ccccc12

>  <Energy>  (18) 
73.20261740010369

>  <Genealogy>  (18) 
CCCCNCCOCCNc1c2ccccc2[n+](C)c2ccccc12 (3D coordinates assigned)
CCCCNCCOCCNc1c2ccccc2[n+](C)c2ccccc12 (optimized conformer: 73.20261740010369 kcal/mol)

>  <smiles>  (18) 
CCCCNCCOCCNc1c2ccccc2[n+](C)c2ccccc12

>  <score_type>  (18) 
oracle

>  <origin>  (18) 
adg

>  <m_score__min__energy>  (18) 
-6.0899999999999999

>  <m_primary>  (18) 
energy

$$$$
18:0
     RDKit          3D

 73 75  0  0  0  0  0  0  0  0999 V2000
   58.1380   27.8750   44.6100 C   0  0  0  0  0  0  0  0  0  0  0  0
   57.0000   28.5430   45.3810 C   0  0  0  0  0  0  0  0  0  0  0  0
   56.7040   29.8880   44.8350 N   0  0  0  0  0  0  0  0  0  0  0  0
   55.5340   29.8310   43.9390 C   0  0  0  0  0  0  0  0  0  0  0  0
   57.8660   30.4420   44.1020 C   0  0  0  0  0  0  0  0  0  0  0  0
   57.9220   31.9730   44.2210 C   0  0  0  0  0  0  0  0  0  0  0  0
   56.7530   32.4420   44.8740 O   0  0  0  0  0  0  0  0  0  0  0  0
   57.0140   33.6730   45.5200 C   0  0  0  0  0  0  0  0  0  0  0  0
   57.5170   33.4230   46.9400 C   0  0  0  0  0  0  0  0  0  0  0  0
   58.1690   34.5810   47.4310 O   0  0  0  0  0  0  0  0  0  0  0  0
   59.4500   34.2340   47.9240 C   0  0  0  0  0  0  0  0  0  0  0  0
   60.4550   34.2440   46.7680 C   0  0  0  0  0  0  0  0  0  0  0  0
   61.7730   34.3150   47.2870 O   0  0  0  0  0  0  0  0  0  0  0  0
   62.7380   33.8280   46.3770 C   0  0  0  0  0  0  0  0  0  0  0  0
   63.9870   33.3410   47.1210 C   0  0  0  0  0  0  0  0  0  0  0  0
   63.7530   32.0570   47.7860 N   0  0  0  0  0  0  0  0  0  0  0  0
   62.6930   31.8980   48.7440 C   0  0  0  0  0  0  0  0  0  0  0  0
   61.4830   31.3120   48.3300 C   0  0  0  0  0  0  0  0  0  0  0  0
   61.4080   30.5860   47.1200 C   0  0  0  0  0  0  0  0  0  0  0  0
   60.2180   29.9740   46.7330 C   0  0  0  0  0  0  0  0  0  0  0  0
   59.0910   30.0650   47.5450 C   0  0  0  0  0  0  0  0  0  0  0  0
   59.1410   30.7840   48.7370 C   0  0  0  0  0  0  0  0  0  0  0  0
   60.3300   31.4470   49.1400 C   0  0  0  0  0  0  0  0  0  0  0  0
   60.3870   32.2100   50.2870 N   0  0  0  0  0  0  0  0  0  0  0  0
   59.1300   32.6590   50.9320 C   0  0  0  0  0  0  0  0  0  0  0  0
   61.6130   32.5590   50.8280 C   0  0  0  0  0  0  0  0  0  0  0  0
   61.7050   33.0720   52.1440 C   0  0  0  0  0  0  0  0  0  0  0  0
   62.9250   33.4710   52.6880 C   0  0  0  0  0  0  0  0  0  0  0  0
   62.9900   33.9830   54.0970 C   0  0  0  0  0  0  0  0  0  0  0  0
   64.0960   33.2820   51.9600 C   0  0  0  0  0  0  0  0  0  0  0  0
   64.0680   32.7270   50.6730 C   0  0  0  0  0  0  0  0  0  0  0  0
   65.4080   32.4080   50.0470 C   0  0  0  0  0  0  0  0  0  0  0  0
   62.8120   32.3930   50.0690 C   0  0  0  0  0  0  0  0  0  0  0  0
   58.8622   27.4499   45.3205 H   0  0  0  0  0  0  0  0  0  0  0  0
   57.7308   27.0726   43.9773 H   0  0  0  0  0  0  0  0  0  0  0  0
   58.6401   28.6217   43.9773 H   0  0  0  0  0  0  0  0  0  0  0  0
   56.0983   27.9176   45.3043 H   0  0  0  0  0  0  0  0  0  0  0  0
   57.3064   28.6519   46.4318 H   0  0  0  0  0  0  0  0  0  0  0  0
   54.6138   29.7862   44.5400 H   0  0  0  0  0  0  0  0  0  0  0  0
   55.5141   30.7292   43.3044 H   0  0  0  0  0  0  0  0  0  0  0  0
   55.6015   28.9351   43.3044 H   0  0  0  0  0  0  0  0  0  0  0  0
   58.7899   30.0159   44.5202 H   0  0  0  0  0  0  0  0  0  0  0  0
   57.7634   30.1796   43.0387 H   0  0  0  0  0  0  0  0  0  0  0  0
   58.8085   32.2628   44.8042 H   0  0  0  0  0  0  0  0  0  0  0  0
   57.9820   32.4159   43.2159 H   0  0  0  0  0  0  0  0  0  0  0  0
   57.7790   34.2256   44.9549 H   0  0  0  0  0  0  0  0  0  0  0  0
   56.0852   34.2606   45.5648 H   0  0  0  0  0  0  0  0  0  0  0  0
   56.6646   33.1804   47.5915 H   0  0  0  0  0  0  0  0  0  0  0  0
   58.2279   32.5836   46.9301 H   0  0  0  0  0  0  0  0  0  0  0  0
   59.7602   34.9628   48.6873 H   0  0  0  0  0  0  0  0  0  0  0  0
   59.4135   33.2304   48.3729 H   0  0  0  0  0  0  0  0  0  0  0  0
   60.3429   33.3231   46.1769 H   0  0  0  0  0  0  0  0  0  0  0  0
   60.2665   35.1173   46.1262 H   0  0  0  0  0  0  0  0  0  0  0  0
   62.3075   32.9910   45.8077 H   0  0  0  0  0  0  0  0  0  0  0  0
   63.0265   34.6434   45.6973 H   0  0  0  0  0  0  0  0  0  0  0  0
   64.8093   33.2247   46.3997 H   0  0  0  0  0  0  0  0  0  0  0  0
   64.2410   34.0852   47.8902 H   0  0  0  0  0  0  0  0  0  0  0  0
   64.1820   31.2000   47.3650 H   0  0  0  0  0  0  0  0  0  0  0  0
   62.2973   30.5034   46.4779 H   0  0  0  0  0  0  0  0  0  0  0  0
   60.1688   29.4183   45.7849 H   0  0  0  0  0  0  0  0  0  0  0  0
   58.1573   29.5672   47.2442 H   0  0  0  0  0  0  0  0  0  0  0  0
   58.2467   30.8389   49.3751 H   0  0  0  0  0  0  0  0  0  0  0  0
   59.2440   32.6183   52.0253 H   0  0  0  0  0  0  0  0  0  0  0  0
   58.9088   33.6918   50.6246 H   0  0  0  0  0  0  0  0  0  0  0  0
   58.3045   32.0001   50.6246 H   0  0  0  0  0  0  0  0  0  0  0  0
   60.7923   33.1579   52.7519 H   0  0  0  0  0  0  0  0  0  0  0  0
   62.8832   33.1420   54.7980 H   0  0  0  0  0  0  0  0  0  0  0  0
   63.9582   34.4780   54.2629 H   0  0  0  0  0  0  0  0  0  0  0  0
   62.1762   34.7043   54.2629 H   0  0  0  0  0  0  0  0  0  0  0  0
   65.0602   33.5732   52.4022 H   0  0  0  0  0  0  0  0  0  0  0  0
   66.1502   32.2313   50.8395 H   0  0  0  0  0  0  0  0  0  0  0  0
   65.3160   31.5067   49.4232 H   0  0  0  0  0  0  0  0  0  0  0  0
   65.7320   33.2541   49.4232 H   0  0  0  0  0  0  0  0  0  0  0  0
  1  2  1  0
  2  3  1  0
  3  4  1  0
  3  5  1  0
  5  6  1  0
  6  7  1  0
  7  8  1  0
  8  9  1  0
  9 10  1  0
 10 11  1  0
 11 12  1  0
 12 13  1  0
 13 14  1  0
 14 15  1  0
 15 16  1  0
 16 17  1  0
 17 18  2  0
 18 19  1  0
 19 20  2  0
 20 21  1  0
 21 22  2  0
 22 23  1  0
 23 24  2  0
 24 25  1  0
 24 26  1  0
 26 27  2  0
 27 28  1  0
 28 29  1  0
 28 30  2  0
 30 31  1  0
 31 32  1  0
 31 33  2  0
 33 17  1  0
 23 18  1  0
 33 26  1  0
  1 34  1  0
  1 35  1  0
  1 36  1  0
  2 37  1  0
  2 38  1  0
  4 39  1  0
  4 40  1  0
  4 41  1  0
  5 42  1  0
  5 43  1  0
  6 44  1  0
  6 45  1  0
  8 46  1  0
  8 47  1  0
  9 48  1  0
  9 49  1  0
 11 50  1  0
 11 51  1  0
 12 52  1  0
 12 53  1  0
 14 54  1  0
 14 55  1  0
 15 56  1  0
 15 57  1  0
 16 58  1  0
 19 59  1  0
 20 60  1  0
 21 61  1  0
 22 62  1  0
 25 63  1  0
 25 64  1  0
 25 65  1  0
 27 66  1  0
 29 67  1  0
 29 68  1  0
 29 69  1  0
 30 70  1  0
 32 71  1  0
 32 72  1  0
 32 73  1  0
M  CHG  1  24   1
M  END
>  <UniqueID>  (19) 
19

>  <SMILES>  (19) 
CCN(C)CCOCCOCCOCCNc1c2ccccc2[n+](C)c2cc(C)cc(C)c12

>  <Energy>  (19) 
109.89947730629169

>  <Genealogy>  (19) 
CCN(C)CCOCCOCCOCCNc1c2ccccc2[n+](C)c2cc(C)cc(C)c12 (3D coordinates assigned)
CCN(C)CCOCCOCCOCCNc1c2ccccc2[n+](C)c2cc(C)cc(C)c12 (optimized conformer: 109.89947730629169 kcal/mol)

>  <smiles>  (19) 
CCN(C)CCOCCOCCOCCNc1c2ccccc2[n+](C)c2cc(C)cc(C)c12

>  <score_type>  (19) 
oracle

>  <origin>  (19) 
adg

>  <m_score__min__energy>  (19) 
-5.5099999999999998

>  <m_primary>  (19) 
energy

$$$$
19:0
     RDKit          3D

 70 73  0  0  0  0  0  0  0  0999 V2000
   64.8180   31.9600   49.8590 C   0  0  0  0  0  0  0  0  0  0  0  0
   63.3560   32.0130   49.4010 C   0  0  0  0  0  0  0  0  0  0  0  0
   62.9170   33.3720   48.9820 N   0  0  0  0  0  0  0  0  0  0  0  0
   62.9810   34.4010   50.0580 C   0  0  0  0  0  0  0  0  0  0  0  0
   62.7120   33.8750   51.4710 C   0  0  0  0  0  0  0  0  0  0  0  0
   63.5060   33.8500   47.6900 C   0  0  0  0  0  0  0  0  0  0  0  0
   62.5800   33.8390   46.4530 C   0  0  0  0  0  0  0  0  0  0  0  0
   61.2590   33.5060   46.8160 O   0  0  0  0  0  0  0  0  0  0  0  0
   60.3460   34.2280   46.0170 C   0  0  0  0  0  0  0  0  0  0  0  0
   59.2640   34.8290   46.9030 C   0  0  0  0  0  0  0  0  0  0  0  0
   59.0570   34.0000   48.0330 O   0  0  0  0  0  0  0  0  0  0  0  0
   59.9090   34.3690   49.0470 N   0  0  0  0  0  0  0  0  0  0  0  0
   59.5390   33.6570   50.2710 C   0  0  0  0  0  0  0  0  0  0  0  0
   59.8210   32.1600   50.1220 C   0  0  0  0  0  0  0  0  0  0  0  0
   60.2800   31.8450   48.7690 N   0  0  0  0  0  0  0  0  0  0  0  0
   59.9850   30.5720   48.1760 C   0  0  0  0  0  0  0  0  0  0  0  0
   60.3280   29.3560   48.8120 C   0  0  0  0  0  0  0  0  0  0  0  0
   60.9210   29.3550   50.0900 C   0  0  0  0  0  0  0  0  0  0  0  0
   61.2370   28.1550   50.7250 C   0  0  0  0  0  0  0  0  0  0  0  0
   60.9500   26.9400   50.1090 C   0  0  0  0  0  0  0  0  0  0  0  0
   60.3650   26.9110   48.8430 C   0  0  0  0  0  0  0  0  0  0  0  0
   60.0690   28.1090   48.1490 C   0  0  0  0  0  0  0  0  0  0  0  0
   59.5240   28.0950   46.8730 N   0  0  0  0  0  0  0  0  0  0  0  0
   59.4950   26.8700   46.0560 C   0  0  0  0  0  0  0  0  0  0  0  0
   59.0660   29.2800   46.3560 C   0  0  0  0  0  0  0  0  0  0  0  0
   59.3090   30.4930   46.9620 C   0  0  0  0  0  0  0  0  0  0  0  0
   58.7500   31.5140   46.2760 N   0  0  0  0  0  0  0  0  0  0  0  0
   58.1360   30.9370   45.2250 C   0  0  0  0  0  0  0  0  0  0  0  0
   57.3680   31.5880   44.2600 C   0  0  0  0  0  0  0  0  0  0  0  0
   56.7330   30.8060   43.2820 C   0  0  0  0  0  0  0  0  0  0  0  0
   56.8520   29.4020   43.3030 C   0  0  0  0  0  0  0  0  0  0  0  0
   57.6210   28.7630   44.2920 C   0  0  0  0  0  0  0  0  0  0  0  0
   58.2890   29.5610   45.2310 C   0  0  0  0  0  0  0  0  0  0  0  0
   64.8580   31.9585   50.9583 H   0  0  0  0  0  0  0  0  0  0  0  0
   65.2900   31.0442   49.4737 H   0  0  0  0  0  0  0  0  0  0  0  0
   65.3551   32.8393   49.4737 H   0  0  0  0  0  0  0  0  0  0  0  0
   63.2325   31.3285   48.5489 H   0  0  0  0  0  0  0  0  0  0  0  0
   62.7353   31.7220   50.2613 H   0  0  0  0  0  0  0  0  0  0  0  0
   61.8910   33.2780   48.7860 H   0  0  0  0  0  0  0  0  0  0  0  0
   63.9866   34.8466   50.0451 H   0  0  0  0  0  0  0  0  0  0  0  0
   62.1811   35.1242   49.8409 H   0  0  0  0  0  0  0  0  0  0  0  0
   63.0833   34.6010   52.2093 H   0  0  0  0  0  0  0  0  0  0  0  0
   61.6301   33.7321   51.6093 H   0  0  0  0  0  0  0  0  0  0  0  0
   63.2294   32.9142   51.6093 H   0  0  0  0  0  0  0  0  0  0  0  0
   63.8449   34.8854   47.8422 H   0  0  0  0  0  0  0  0  0  0  0  0
   64.3054   33.1315   47.4561 H   0  0  0  0  0  0  0  0  0  0  0  0
   62.5856   34.8369   45.9901 H   0  0  0  0  0  0  0  0  0  0  0  0
   62.9503   33.0842   45.7437 H   0  0  0  0  0  0  0  0  0  0  0  0
   60.8775   35.0335   45.4892 H   0  0  0  0  0  0  0  0  0  0  0  0
   59.8854   33.5511   45.2825 H   0  0  0  0  0  0  0  0  0  0  0  0
   59.5779   35.8293   47.2360 H   0  0  0  0  0  0  0  0  0  0  0  0
   58.3271   34.9068   46.3318 H   0  0  0  0  0  0  0  0  0  0  0  0
   60.9270   34.2050   48.8430 H   0  0  0  0  0  0  0  0  0  0  0  0
   60.1249   34.0544   51.1129 H   0  0  0  0  0  0  0  0  0  0  0  0
   58.4646   33.8014   50.4575 H   0  0  0  0  0  0  0  0  0  0  0  0
   60.5984   31.8669   50.8429 H   0  0  0  0  0  0  0  0  0  0  0  0
   58.8895   31.6072   50.3136 H   0  0  0  0  0  0  0  0  0  0  0  0
   60.7020   32.5910   48.1680 H   0  0  0  0  0  0  0  0  0  0  0  0
   61.1366   30.3100   50.5914 H   0  0  0  0  0  0  0  0  0  0  0  0
   61.7146   28.1681   51.7158 H   0  0  0  0  0  0  0  0  0  0  0  0
   61.1860   25.9970   50.6238 H   0  0  0  0  0  0  0  0  0  0  0  0
   60.1301   25.9427   48.3768 H   0  0  0  0  0  0  0  0  0  0  0  0
   59.4742   25.9899   46.7155 H   0  0  0  0  0  0  0  0  0  0  0  0
   58.5967   26.8739   45.4212 H   0  0  0  0  0  0  0  0  0  0  0  0
   60.3925   26.8313   45.4212 H   0  0  0  0  0  0  0  0  0  0  0  0
   58.7260   32.5260   46.5330 H   0  0  0  0  0  0  0  0  0  0  0  0
   57.2627   32.6829   44.2649 H   0  0  0  0  0  0  0  0  0  0  0  0
   56.1388   31.2924   42.4944 H   0  0  0  0  0  0  0  0  0  0  0  0
   56.3386   28.8002   42.5386 H   0  0  0  0  0  0  0  0  0  0  0  0
   57.6963   27.6662   44.3277 H   0  0  0  0  0  0  0  0  0  0  0  0
  1  2  1  0
  2  3  1  0
  3  4  1  0
  4  5  1  0
  3  6  1  0
  6  7  1  0
  7  8  1  0
  8  9  1  0
  9 10  1  0
 10 11  1  0
 11 12  1  0
 12 13  1  0
 13 14  1  0
 14 15  1  0
 15 16  1  0
 16 17  2  0
 17 18  1  0
 18 19  2  0
 19 20  1  0
 20 21  2  0
 21 22  1  0
 22 23  2  0
 23 24  1  0
 23 25  1  0
 25 26  2  0
 26 27  1  0
 27 28  1  0
 28 29  2  0
 29 30  1  0
 30 31  2  0
 31 32  1  0
 32 33  2  0
 26 16  1  0
 33 28  1  0
 22 17  1  0
 33 25  1  0
  1 34  1  0
  1 35  1  0
  1 36  1  0
  2 37  1  0
  2 38  1  0
  3 39  1  0
  4 40  1  0
  4 41  1  0
  5 42  1  0
  5 43  1  0
  5 44  1  0
  6 45  1  0
  6 46  1  0
  7 47  1  0
  7 48  1  0
  9 49  1  0
  9 50  1  0
 10 51  1  0
 10 52  1  0
 12 53  1  0
 13 54  1  0
 13 55  1  0
 14 56  1  0
 14 57  1  0
 15 58  1  0
 18 59  1  0
 19 60  1  0
 20 61  1  0
 21 62  1  0
 24 63  1  0
 24 64  1  0
 24 65  1  0
 27 66  1  0
 29 67  1  0
 30 68  1  0
 31 69  1  0
 32 70  1  0
M  CHG  2   3   1  23   1
M  END
>  <UniqueID>  (20) 
20

>  <SMILES>  (20) 
CC[NH+](CC)CCOCCONCCNc1c2ccccc2[n+](C)c2c1[nH]c1ccccc12

>  <Energy>  (20) 
141.80951371588006

>  <Genealogy>  (20) 
CC[NH+](CC)CCOCCONCCNc1c2ccccc2[n+](C)c2c1[nH]c1ccccc12 (protonated)
CC[NH+](CC)CCOCCONCCNc1c2ccccc2[n+](C)c2c1[nH]c1ccccc12 (3D coordinates assigned)
CC[NH+](CC)CCOCCONCCNc1c2ccccc2[n+](C)c2c1[nH]c1ccccc12 (optimized conformer: 141.80951371588006 kcal/mol)

>  <smiles>  (20) 
CCN(CC)CCOCCONCCNc1c2ccccc2[n+](C)c2c1[nH]c1ccccc12

>  <score_type>  (20) 
oracle

>  <origin>  (20) 
adg

>  <m_score__min__energy>  (20) 
-4.5499999999999998

>  <m_primary>  (20) 
energy

$$$$
20:0
     RDKit          3D

 47 49  0  0  0  0  0  0  0  0999 V2000
   63.3870   33.8810   46.3970 C   0  0  0  0  0  0  0  0  0  0  0  0
   62.6080   33.0360   47.3990 C   0  0  0  0  0  0  0  0  0  0  0  0
   62.0880   33.8780   48.4860 N   0  0  0  0  0  0  0  0  0  0  0  0
   62.6710   33.5020   49.7800 C   0  0  0  0  0  0  0  0  0  0  0  0
   61.5740   33.4120   50.8360 C   0  0  0  0  0  0  0  0  0  0  0  0
   60.3490   33.7960   50.2520 O   0  0  0  0  0  0  0  0  0  0  0  0
   59.2940   32.9950   50.7490 C   0  0  0  0  0  0  0  0  0  0  0  0
   58.8500   32.0180   49.6600 C   0  0  0  0  0  0  0  0  0  0  0  0
   59.7800   32.0460   48.5300 N   0  0  0  0  0  0  0  0  0  0  0  0
   59.3290   32.1580   47.1700 C   0  0  0  0  0  0  0  0  0  0  0  0
   58.8770   31.0360   46.4360 C   0  0  0  0  0  0  0  0  0  0  0  0
   58.8620   29.7530   47.0170 C   0  0  0  0  0  0  0  0  0  0  0  0
   58.4480   28.6440   46.2820 C   0  0  0  0  0  0  0  0  0  0  0  0
   58.4480   26.9110   47.0870 Br  0  0  0  0  0  0  0  0  0  0  0  0
   58.0420   28.7930   44.9590 C   0  0  0  0  0  0  0  0  0  0  0  0
   58.0530   30.0510   44.3540 C   0  0  0  0  0  0  0  0  0  0  0  0
   58.4750   31.1980   45.0650 C   0  0  0  0  0  0  0  0  0  0  0  0
   58.5250   32.4480   44.4630 N   0  0  0  0  0  0  0  0  0  0  0  0
   58.1150   32.6350   43.0590 C   0  0  0  0  0  0  0  0  0  0  0  0
   58.9820   33.5030   45.2070 C   0  0  0  0  0  0  0  0  0  0  0  0
   59.1560   34.8350   44.8700 C   0  0  0  0  0  0  0  0  0  0  0  0
   59.6450   35.4280   46.0260 C   0  0  0  0  0  0  0  0  0  0  0  0
   59.7610   34.5340   46.9870 O   0  0  0  0  0  0  0  0  0  0  0  0
   59.3710   33.3780   46.5090 C   0  0  0  0  0  0  0  0  0  0  0  0
   64.0363   34.5853   46.9378 H   0  0  0  0  0  0  0  0  0  0  0  0
   64.0037   33.2249   45.7652 H   0  0  0  0  0  0  0  0  0  0  0  0
   62.6830   34.4424   45.7652 H   0  0  0  0  0  0  0  0  0  0  0  0
   61.7669   32.5479   46.8848 H   0  0  0  0  0  0  0  0  0  0  0  0
   63.2815   32.2784   47.8261 H   0  0  0  0  0  0  0  0  0  0  0  0
   61.0550   33.7180   48.5480 H   0  0  0  0  0  0  0  0  0  0  0  0
   63.1683   32.5253   49.6862 H   0  0  0  0  0  0  0  0  0  0  0  0
   63.4040   34.2643   50.0827 H   0  0  0  0  0  0  0  0  0  0  0  0
   61.4998   32.3784   51.2050 H   0  0  0  0  0  0  0  0  0  0  0  0
   61.8111   34.0774   51.6792 H   0  0  0  0  0  0  0  0  0  0  0  0
   59.6414   32.4329   51.6284 H   0  0  0  0  0  0  0  0  0  0  0  0
   58.4480   33.6355   51.0387 H   0  0  0  0  0  0  0  0  0  0  0  0
   58.8198   31.0009   50.0778 H   0  0  0  0  0  0  0  0  0  0  0  0
   57.8521   32.3141   49.3044 H   0  0  0  0  0  0  0  0  0  0  0  0
   60.8040   32.1060   48.7280 H   0  0  0  0  0  0  0  0  0  0  0  0
   59.1805   29.6252   48.0621 H   0  0  0  0  0  0  0  0  0  0  0  0
   57.7104   27.9141   44.3867 H   0  0  0  0  0  0  0  0  0  0  0  0
   57.7283   30.1515   43.3078 H   0  0  0  0  0  0  0  0  0  0  0  0
   57.1146   33.0913   43.0268 H   0  0  0  0  0  0  0  0  0  0  0  0
   58.8350   33.2938   42.5514 H   0  0  0  0  0  0  0  0  0  0  0  0
   58.0896   31.6594   42.5514 H   0  0  0  0  0  0  0  0  0  0  0  0
   58.9521   35.3159   43.9019 H   0  0  0  0  0  0  0  0  0  0  0  0
   59.8996   36.4935   46.1256 H   0  0  0  0  0  0  0  0  0  0  0  0
  1  2  1  0
  2  3  1  0
  3  4  1  0
  4  5  1  0
  5  6  1  0
  6  7  1  0
  7  8  1  0
  8  9  1  0
  9 10  1  0
 10 11  2  0
 11 12  1  0
 12 13  2  0
 13 14  1  0
 13 15  1  0
 15 16  2  0
 16 17  1  0
 17 18  2  0
 18 19  1  0
 18 20  1  0
 20 21  1  0
 21 22  2  0
 22 23  1  0
 23 24  1  0
 24 10  1  0
 17 11  1  0
 24 20  2  0
  1 25  1  0
  1 26  1  0
  1 27  1  0
  2 28  1  0
  2 29  1  0
  3 30  1  0
  4 31  1  0
  4 32  1  0
  5 33  1  0
  5 34  1  0
  7 35  1  0
  7 36  1  0
  8 37  1  0
  8 38  1  0
  9 39  1  0
 12 40  1  0
 15 41  1  0
 16 42  1  0
 19 43  1  0
 19 44  1  0
 19 45  1  0
 21 46  1  0
 22 47  1  0
M  CHG  1  18   1
M  END
>  <UniqueID>  (21) 
21

>  <SMILES>  (21) 
CCNCCOCCNc1c2cc(Br)ccc2[n+](C)c2ccoc12

>  <Energy>  (21) 
85.42932397631317

>  <Genealogy>  (21) 
CCNCCOCCNc1c2cc(Br)ccc2[n+](C)c2ccoc12 (3D coordinates assigned)
CCNCCOCCNc1c2cc(Br)ccc2[n+](C)c2ccoc12 (optimized conformer: 85.42932397631317 kcal/mol)

>  <smiles>  (21) 
CCNCCOCCNc1c2cc(Br)ccc2[n+](C)c2ccoc12

>  <score_type>  (21) 
oracle

>  <origin>  (21) 
adg

>  <m_score__min__energy>  (21) 
-5.1399999999999997

>  <m_primary>  (21) 
energy

$$$$
21:0
     RDKit          3D

 57 60  0  0  0  0  0  0  0  0999 V2000
   65.0370   32.6320   49.4110 C   0  0  0  0  0  0  0  0  0  0  0  0
   63.7310   32.5920   49.1000 C   0  0  0  0  0  0  0  0  0  0  0  0
   63.0410   33.8410   48.6010 C   0  0  0  0  0  0  0  0  0  0  0  0
   62.2830   34.5820   49.7240 C   0  0  0  0  0  0  0  0  0  0  0  0
   61.1260   33.8030   50.4160 C   0  0  2  0  0  0  0  0  0  0  0  0
   61.6240   32.5220   51.0780 C   0  0  0  0  0  0  0  0  0  0  0  0
   61.5750   31.4720   49.9630 C   0  0  2  0  0  0  0  0  0  0  0  0
   62.9500   31.2970   49.2680 C   0  0  0  0  0  0  0  0  0  0  0  0
   60.4640   31.9320   48.9950 C   0  0  0  0  0  0  0  0  0  0  0  0
   59.9930   33.3030   49.4970 C   0  0  2  0  0  0  0  0  0  0  0  0
   59.5260   34.3300   48.4200 C   0  0  0  0  0  0  0  0  0  0  0  0
   59.3400   33.8110   47.0330 N   0  0  0  0  0  0  0  0  0  0  0  0
   59.5930   34.8110   45.9710 C   0  0  0  0  0  0  0  0  0  0  0  0
   59.3670   34.1760   44.5960 C   0  0  0  0  0  0  0  0  0  0  0  0
   57.9610   33.7430   44.4290 N   0  0  0  0  0  0  0  0  0  0  0  0
   57.7660   32.6920   43.4060 C   0  0  0  0  0  0  0  0  0  0  0  0
   57.5960   31.3000   43.9780 C   0  0  0  0  0  0  0  0  0  0  0  0
   58.6780   30.6460   44.5960 C   0  0  0  0  0  0  0  0  0  0  0  0
   58.5190   29.3590   45.1220 C   0  0  0  0  0  0  0  0  0  0  0  0
   57.2790   28.7210   45.0520 C   0  0  0  0  0  0  0  0  0  0  0  0
   56.1910   29.3740   44.4690 C   0  0  0  0  0  0  0  0  0  0  0  0
   56.3430   30.6600   43.9420 C   0  0  0  0  0  0  0  0  0  0  0  0
   57.1980   33.5530   45.6840 C   0  0  0  0  0  0  0  0  0  0  0  0
   58.0760   33.0370   46.8430 C   0  0  0  0  0  0  0  0  0  0  0  0
   65.5438   31.7259   49.7745 H   0  0  0  0  0  0  0  0  0  0  0  0
   65.5998   33.5708   49.3022 H   0  0  0  0  0  0  0  0  0  0  0  0
   63.7980   34.5184   48.1789 H   0  0  0  0  0  0  0  0  0  0  0  0
   62.3046   33.5376   47.8423 H   0  0  0  0  0  0  0  0  0  0  0  0
   63.0151   34.8507   50.4997 H   0  0  0  0  0  0  0  0  0  0  0  0
   61.8013   35.4396   49.2316 H   0  0  0  0  0  0  0  0  0  0  0  0
   60.7420   34.5640   51.1113 H   0  0  0  0  0  0  0  0  0  0  0  0
   62.6522   32.6493   51.4477 H   0  0  0  0  0  0  0  0  0  0  0  0
   61.0159   32.2368   51.9491 H   0  0  0  0  0  0  0  0  0  0  0  0
   61.3465   30.4728   50.3621 H   0  0  0  0  0  0  0  0  0  0  0  0
   63.5557   30.6041   49.8704 H   0  0  0  0  0  0  0  0  0  0  0  0
   62.7476   30.9154   48.2564 H   0  0  0  0  0  0  0  0  0  0  0  0
   60.8612   32.0170   47.9727 H   0  0  0  0  0  0  0  0  0  0  0  0
   59.6342   31.2103   48.9682 H   0  0  0  0  0  0  0  0  0  0  0  0
   59.0418   33.1890   50.0375 H   0  0  0  0  0  0  0  0  0  0  0  0
   58.5633   34.7460   48.7518 H   0  0  0  0  0  0  0  0  0  0  0  0
   60.3432   35.0627   48.3466 H   0  0  0  0  0  0  0  0  0  0  0  0
   60.1090   33.1070   46.9220 H   0  0  0  0  0  0  0  0  0  0  0  0
   58.9060   35.6606   46.0982 H   0  0  0  0  0  0  0  0  0  0  0  0
   60.6332   35.1615   46.0426 H   0  0  0  0  0  0  0  0  0  0  0  0
   59.6102   34.9130   43.8164 H   0  0  0  0  0  0  0  0  0  0  0  0
   60.0156   33.2916   44.5107 H   0  0  0  0  0  0  0  0  0  0  0  0
   56.8662   32.9389   42.8235 H   0  0  0  0  0  0  0  0  0  0  0  0
   58.6773   32.6741   42.7902 H   0  0  0  0  0  0  0  0  0  0  0  0
   59.6537   31.1490   44.6660 H   0  0  0  0  0  0  0  0  0  0  0  0
   59.3729   28.8488   45.5917 H   0  0  0  0  0  0  0  0  0  0  0  0
   57.1592   27.7048   45.4558 H   0  0  0  0  0  0  0  0  0  0  0  0
   55.2116   28.8752   44.4243 H   0  0  0  0  0  0  0  0  0  0  0  0
   55.4786   31.1744   43.4968 H   0  0  0  0  0  0  0  0  0  0  0  0
   56.7586   34.5176   45.9780 H   0  0  0  0  0  0  0  0  0  0  0  0
   56.4244   32.7953   45.4907 H   0  0  0  0  0  0  0  0  0  0  0  0
   57.4913   33.0941   47.7730 H   0  0  0  0  0  0  0  0  0  0  0  0
   58.3663   32.0064   46.5907 H   0  0  0  0  0  0  0  0  0  0  0  0
  1  2  2  0
  2  3  1  0
  3  4  1  0
  4  5  1  0
  5  6  1  0
  6  7  1  0
  7  8  1  0
  7  9  1  0
  9 10  1  0
 10 11  1  0
 11 12  1  0
 12 13  1  0
 13 14  1  0
 14 15  1  0
 15 16  1  0
 16 17  1  0
 17 18  2  0
 18 19  1  0
 19 20  2  0
 20 21  1  0
 21 22  2  0
 15 23  1  0
 23 24  1  0
  8  2  1  0
 24 12  1  0
 10  5  1  0
 22 17  1  0
  1 25  1  0
  1 26  1  0
  3 27  1  0
  3 28  1  0
  4 29  1  0
  4 30  1  0
  5 31  1  1
  6 32  1  0
  6 33  1  0
  7 34  1  1
  8 35  1  0
  8 36  1  0
  9 37  1  0
  9 38  1  0
 10 39  1  1
 11 40  1  0
 11 41  1  0
 12 42  1  0
 13 43  1  0
 13 44  1  0
 14 45  1  0
 14 46  1  0
 16 47  1  0
 16 48  1  0
 18 49  1  0
 19 50  1  0
 20 51  1  0
 21 52  1  0
 22 53  1  0
 23 54  1  0
 23 55  1  0
 24 56  1  0
 24 57  1  0
M  CHG  1  12   1
M  END
>  <UniqueID>  (22) 
22

>  <SMILES>  (22) 
C=C1CC[C@@H]2C[C@H](C1)CC2C[NH+]1CCN(Cc2ccccc2)CC1

>  <Energy>  (22) 
91.8108374122319

>  <Genealogy>  (22) 
C=C1CCC2CC(C1)CC2C[NH+]1CCN(Cc2ccccc2)CC1 (protonated)
C=C1CC[C@@H]2C[C@H](C1)CC2C[NH+]1CCN(Cc2ccccc2)CC1 (chirality)
C=C1CC[C@@H]2C[C@H](C1)CC2C[NH+]1CCN(Cc2ccccc2)CC1 (3D coordinates assigned)
C=C1CC[C@@H]2C[C@H](C1)CC2C[NH+]1CCN(Cc2ccccc2)CC1 (nonaromatic ring conformer: 91.8108374122319 kcal/mol)

>  <smiles>  (22) 
C=C1CCC2CC(C1)CC2CN1CCN(Cc2ccccc2)CC1

>  <score_type>  (22) 
oracle

>  <origin>  (22) 
adg

>  <m_score__min__energy>  (22) 
-5.5899999999999999

>  <m_primary>  (22) 
energy

$$$$
22:0
     RDKit          3D

 77 79  0  0  0  0  0  0  0  0999 V2000
   63.4910   31.5690   49.8560 C   0  0  0  0  0  0  0  0  0  0  0  0
   63.7970   32.3550   48.5740 C   0  0  0  0  0  0  0  0  0  0  0  0
   62.6610   33.1510   48.0460 N   0  0  0  0  0  0  0  0  0  0  0  0
   63.0020   33.8280   46.7820 C   0  0  0  0  0  0  0  0  0  0  0  0
   62.0730   34.1040   49.0140 C   0  0  0  0  0  0  0  0  0  0  0  0
   60.9240   33.4660   49.8090 C   0  0  0  0  0  0  0  0  0  0  0  0
   59.7980   33.2320   48.9840 O   0  0  0  0  0  0  0  0  0  0  0  0
   59.1160   32.0570   49.3740 C   0  0  0  0  0  0  0  0  0  0  0  0
   59.8940   30.8430   48.8640 C   0  0  0  0  0  0  0  0  0  0  0  0
   60.6270   31.1670   47.6260 N   0  0  0  0  0  0  0  0  0  0  0  0
   59.7320   31.1790   46.4800 C   0  0  0  0  0  0  0  0  0  0  0  0
   59.3030   32.4040   45.8990 C   0  0  0  0  0  0  0  0  0  0  0  0
   59.8460   33.6510   46.3010 C   0  0  0  0  0  0  0  0  0  0  0  0
   59.3470   34.8500   45.7960 C   0  0  0  0  0  0  0  0  0  0  0  0
   58.2930   34.8360   44.8900 C   0  0  0  0  0  0  0  0  0  0  0  0
   57.7700   33.6250   44.4440 C   0  0  0  0  0  0  0  0  0  0  0  0
   58.3040   32.3860   44.8860 C   0  0  0  0  0  0  0  0  0  0  0  0
   57.8650   31.1890   44.3580 N   0  0  0  0  0  0  0  0  0  0  0  0
   57.0820   31.1850   43.1000 C   0  0  0  0  0  0  0  0  0  0  0  0
   58.2160   29.9930   44.9580 C   0  0  0  0  0  0  0  0  0  0  0  0
   57.5930   28.7730   44.5950 C   0  0  0  0  0  0  0  0  0  0  0  0
   58.0200   27.5380   45.0980 C   0  0  0  0  0  0  0  0  0  0  0  0
   57.4330   26.3560   44.5430 N   0  0  0  0  0  0  0  0  0  0  0  0
   57.5030   25.0390   45.1820 C   0  0  0  0  0  0  0  0  0  0  0  0
   57.5650   23.8920   44.1600 C   0  0  0  0  0  0  0  0  0  0  0  0
   56.1680   23.3740   43.7960 C   0  0  0  0  0  0  0  0  0  0  0  0
   56.1760   21.8980   43.6670 N   0  0  0  0  0  0  0  0  0  0  0  0
   56.0560   21.2410   44.9790 C   0  0  0  0  0  0  0  0  0  0  0  0
   57.3940   21.4240   42.9870 C   0  0  0  0  0  0  0  0  0  0  0  0
   59.1270   27.4960   45.9740 C   0  0  0  0  0  0  0  0  0  0  0  0
   59.7450   26.3210   46.4430 O   0  0  0  0  0  0  0  0  0  0  0  0
   61.1290   25.9900   46.3910 C   0  0  0  0  0  0  0  0  0  0  0  0
   59.6810   28.6990   46.4110 C   0  0  0  0  0  0  0  0  0  0  0  0
   59.2090   29.9600   45.9650 C   0  0  0  0  0  0  0  0  0  0  0  0
   63.7322   32.1886   50.7323 H   0  0  0  0  0  0  0  0  0  0  0  0
   62.4238   31.3034   49.8773 H   0  0  0  0  0  0  0  0  0  0  0  0
   64.0977   30.6517   49.8773 H   0  0  0  0  0  0  0  0  0  0  0  0
   64.6285   33.0435   48.7850 H   0  0  0  0  0  0  0  0  0  0  0  0
   64.0369   31.6083   47.8027 H   0  0  0  0  0  0  0  0  0  0  0  0
   63.4869   34.7908   47.0009 H   0  0  0  0  0  0  0  0  0  0  0  0
   63.6889   33.1952   46.2009 H   0  0  0  0  0  0  0  0  0  0  0  0
   62.0846   34.0033   46.2009 H   0  0  0  0  0  0  0  0  0  0  0  0
   62.8555   34.4285   49.7157 H   0  0  0  0  0  0  0  0  0  0  0  0
   61.6694   34.9595   48.4526 H   0  0  0  0  0  0  0  0  0  0  0  0
   61.2664   32.5085   50.2285 H   0  0  0  0  0  0  0  0  0  0  0  0
   60.6296   34.1583   50.6115 H   0  0  0  0  0  0  0  0  0  0  0  0
   59.0461   32.0170   50.4710 H   0  0  0  0  0  0  0  0  0  0  0  0
   58.1012   32.0557   48.9496 H   0  0  0  0  0  0  0  0  0  0  0  0
   60.6120   30.5262   49.6347 H   0  0  0  0  0  0  0  0  0  0  0  0
   59.1799   30.0349   48.6472 H   0  0  0  0  0  0  0  0  0  0  0  0
   61.4080   30.4890   47.4910 H   0  0  0  0  0  0  0  0  0  0  0  0
   61.1260   32.0850   47.7030 H   0  0  0  0  0  0  0  0  0  0  0  0
   60.6751   33.6720   47.0236 H   0  0  0  0  0  0  0  0  0  0  0  0
   59.7868   35.8068   46.1141 H   0  0  0  0  0  0  0  0  0  0  0  0
   57.8710   35.7838   44.5245 H   0  0  0  0  0  0  0  0  0  0  0  0
   56.9278   33.6284   43.7364 H   0  0  0  0  0  0  0  0  0  0  0  0
   56.0078   31.1795   43.3367 H   0  0  0  0  0  0  0  0  0  0  0  0
   57.3239   32.0844   42.5147 H   0  0  0  0  0  0  0  0  0  0  0  0
   57.3331   30.2881   42.5147 H   0  0  0  0  0  0  0  0  0  0  0  0
   56.7453   28.7971   43.8944 H   0  0  0  0  0  0  0  0  0  0  0  0
   57.0130   26.4350   43.5880 H   0  0  0  0  0  0  0  0  0  0  0  0
   58.4041   24.9997   45.8116 H   0  0  0  0  0  0  0  0  0  0  0  0
   56.5877   24.9071   45.7777 H   0  0  0  0  0  0  0  0  0  0  0  0
   58.0585   24.2558   43.2467 H   0  0  0  0  0  0  0  0  0  0  0  0
   58.1289   23.0628   44.6121 H   0  0  0  0  0  0  0  0  0  0  0  0
   55.4581   23.6641   44.5846 H   0  0  0  0  0  0  0  0  0  0  0  0
   55.8672   23.8124   42.8330 H   0  0  0  0  0  0  0  0  0  0  0  0
   56.1922   21.9866   45.7762 H   0  0  0  0  0  0  0  0  0  0  0  0
   55.0596   20.7841   45.0705 H   0  0  0  0  0  0  0  0  0  0  0  0
   56.8266   20.4614   45.0705 H   0  0  0  0  0  0  0  0  0  0  0  0
   58.1432   21.1324   43.7378 H   0  0  0  0  0  0  0  0  0  0  0  0
   57.1484   20.5558   42.3578 H   0  0  0  0  0  0  0  0  0  0  0  0
   57.7998   22.2298   42.3578 H   0  0  0  0  0  0  0  0  0  0  0  0
   61.5222   25.8960   47.4140 H   0  0  0  0  0  0  0  0  0  0  0  0
   61.2580   25.0357   45.8594 H   0  0  0  0  0  0  0  0  0  0  0  0
   61.6759   26.7827   45.8594 H   0  0  0  0  0  0  0  0  0  0  0  0
   60.5147   28.6688   47.1280 H   0  0  0  0  0  0  0  0  0  0  0  0
  1  2  1  0
  2  3  1  0
  3  4  1  0
  3  5  1  0
  5  6  1  0
  6  7  1  0
  7  8  1  0
  8  9  1  0
  9 10  1  0
 10 11  1  0
 11 12  2  0
 12 13  1  0
 13 14  2  0
 14 15  1  0
 15 16  2  0
 16 17  1  0
 17 18  2  0
 18 19  1  0
 18 20  1  0
 20 21  2  0
 21 22  1  0
 22 23  1  0
 23 24  1  0
 24 25  1  0
 25 26  1  0
 26 27  1  0
 27 28  1  0
 27 29  1  0
 22 30  2  0
 30 31  1  0
 31 32  1  0
 30 33  1  0
 33 34  2  0
 34 11  1  0
 17 12  1  0
 34 20  1  0
  1 35  1  0
  1 36  1  0
  1 37  1  0
  2 38  1  0
  2 39  1  0
  4 40  1  0
  4 41  1  0
  4 42  1  0
  5 43  1  0
  5 44  1  0
  6 45  1  0
  6 46  1  0
  8 47  1  0
  8 48  1  0
  9 49  1  0
  9 50  1  0
 10 51  1  0
 10 52  1  0
 13 53  1  0
 14 54  1  0
 15 55  1  0
 16 56  1  0
 19 57  1  0
 19 58  1  0
 19 59  1  0
 21 60  1  0
 23 61  1  0
 24 62  1  0
 24 63  1  0
 25 64  1  0
 25 65  1  0
 26 66  1  0
 26 67  1  0
 28 68  1  0
 28 69  1  0
 28 70  1  0
 29 71  1  0
 29 72  1  0
 29 73  1  0
 32 74  1  0
 32 75  1  0
 32 76  1  0
 33 77  1  0
M  CHG  2  10   1  18   1
M  END
>  <UniqueID>  (23) 
23

>  <SMILES>  (23) 
CCN(C)CCOCC[NH2+]c1c2ccccc2[n+](C)c2cc(NCCCN(C)C)c(OC)cc12

>  <Energy>  (23) 
119.02764560333723

>  <Genealogy>  (23) 
CCN(C)CCOCC[NH2+]c1c2ccccc2[n+](C)c2cc(NCCCN(C)C)c(OC)cc12 (protonated)
CCN(C)CCOCC[NH2+]c1c2ccccc2[n+](C)c2cc(NCCCN(C)C)c(OC)cc12 (3D coordinates assigned)
CCN(C)CCOCC[NH2+]c1c2ccccc2[n+](C)c2cc(NCCCN(C)C)c(OC)cc12 (optimized conformer: 119.02764560333723 kcal/mol)

>  <smiles>  (23) 
CCN(C)CCOCCNc1c2ccccc2[n+](C)c2cc(NCCCN(C)C)c(OC)cc12

>  <score_type>  (23) 
oracle

>  <origin>  (23) 
adg

>  <m_score__min__energy>  (23) 
-4.3700000000000001

>  <m_primary>  (23) 
energy

$$$$
23:0
     RDKit          3D

 24 24  0  0  0  0  0  0  0  0999 V2000
   57.3880   31.1760   43.4610 C   0  0  0  0  0  0  0  0  0  0  0  0
   56.6970   29.8650   43.8470 C   0  0  0  0  0  0  0  0  0  0  0  0
   57.3610   28.6850   43.2440 N   0  0  0  0  0  0  0  0  0  0  0  0
   57.8270   27.7060   44.2500 C   0  0  2  0  0  0  0  0  0  0  0  0
   57.7780   26.2530   43.7290 C   0  0  0  0  0  0  0  0  0  0  0  0
   57.8700   25.3080   44.9250 C   0  0  0  0  0  0  0  0  0  0  0  0
   57.1150   26.1770   46.2650 S   0  0  0  0  0  0  0  0  0  0  0  0
   55.7710   25.6030   46.6100 O   0  0  0  0  0  0  0  0  0  0  0  0
   58.0080   26.2100   47.4740 O   0  0  0  0  0  0  0  0  0  0  0  0
   56.9680   27.7730   45.5200 C   0  0  0  0  0  0  0  0  0  0  0  0
   57.6753   31.7211   44.3722 H   0  0  0  0  0  0  0  0  0  0  0  0
   58.2870   30.9555   42.8668 H   0  0  0  0  0  0  0  0  0  0  0  0
   56.6980   31.7931   42.8668 H   0  0  0  0  0  0  0  0  0  0  0  0
   56.7177   29.7624   44.9420 H   0  0  0  0  0  0  0  0  0  0  0  0
   55.6648   29.9025   43.4686 H   0  0  0  0  0  0  0  0  0  0  0  0
   58.1560   28.9710   42.6250 H   0  0  0  0  0  0  0  0  0  0  0  0
   56.6580   28.2050   42.6330 H   0  0  0  0  0  0  0  0  0  0  0  0
   58.8705   27.9768   44.4687 H   0  0  0  0  0  0  0  0  0  0  0  0
   56.8328   26.0824   43.1928 H   0  0  0  0  0  0  0  0  0  0  0  0
   58.6148   26.0709   43.0386 H   0  0  0  0  0  0  0  0  0  0  0  0
   57.3294   24.3724   44.7192 H   0  0  0  0  0  0  0  0  0  0  0  0
   58.9106   25.0315   45.1500 H   0  0  0  0  0  0  0  0  0  0  0  0
   55.9190   27.9845   45.2653 H   0  0  0  0  0  0  0  0  0  0  0  0
   57.2981   28.5744   46.1973 H   0  0  0  0  0  0  0  0  0  0  0  0
  1  2  1  0
  2  3  1  0
  3  4  1  0
  4  5  1  0
  5  6  1  0
  6  7  1  0
  7  8  2  0
  7  9  2  0
  7 10  1  0
 10  4  1  0
  1 11  1  0
  1 12  1  0
  1 13  1  0
  2 14  1  0
  2 15  1  0
  3 16  1  0
  3 17  1  0
  4 18  1  1
  5 19  1  0
  5 20  1  0
  6 21  1  0
  6 22  1  0
 10 23  1  0
 10 24  1  0
M  CHG  1   3   1
M  END
>  <UniqueID>  (24) 
24

>  <SMILES>  (24) 
CC[NH2+][C@@H]1CCS(=O)(=O)C1

>  <Energy>  (24) 
19.100118745458477

>  <Genealogy>  (24) 
CC[NH2+]C1CCS(=O)(=O)C1 (protonated)
CC[NH2+][C@@H]1CCS(=O)(=O)C1 (chirality)
CC[NH2+][C@@H]1CCS(=O)(=O)C1 (3D coordinates assigned)
CC[NH2+][C@@H]1CCS(=O)(=O)C1 (nonaromatic ring conformer: 19.100118745458477 kcal/mol)

>  <smiles>  (24) 
CCNC1CCS(=O)(=O)C1

>  <score_type>  (24) 
oracle

>  <origin>  (24) 
adg

>  <m_score__min__energy>  (24) 
-3.5

>  <m_primary>  (24) 
energy

$$$$
24:0
     RDKit          3D

 76 76  0  0  0  0  0  0  0  0999 V2000
   61.4746   34.2471   49.4392 H   0  0  0  0  0  0  0  0  0  0  0  0
   61.7490   33.2100   49.1960 C   0  0  0  0  0  0  0  0  0  0  0  0
   62.0400   32.9360   47.9000 C   0  0  0  0  0  0  0  0  0  0  0  0
   63.4940   32.7380   47.5430 C   0  0  0  0  0  0  0  0  0  0  0  0
   64.0899   32.6568   48.4640 H   0  0  0  0  0  0  0  0  0  0  0  0
   63.6044   31.8165   46.9525 H   0  0  0  0  0  0  0  0  0  0  0  0
   63.8467   33.5964   46.9525 H   0  0  0  0  0  0  0  0  0  0  0  0
   60.9990   32.9780   46.7890 C   0  0  0  0  0  0  0  0  0  0  0  0
   61.4882   32.6926   45.8460 H   0  0  0  0  0  0  0  0  0  0  0  0
   60.5995   34.0026   46.7667 H   0  0  0  0  0  0  0  0  0  0  0  0
   59.8000   32.0380   47.0160 C   0  0  0  0  0  0  0  0  0  0  0  0
   58.9484   32.3985   46.4204 H   0  0  0  0  0  0  0  0  0  0  0  0
   59.5641   32.0417   48.0904 H   0  0  0  0  0  0  0  0  0  0  0  0
   60.1090   30.6250   46.6140 C   0  0  0  0  0  0  0  0  0  0  0  0
   61.2510   30.1460   46.8510 O   0  0  0  0  0  0  0  0  0  0  0  0
   59.0990   29.8140   45.9990 N   0  0  0  0  0  0  0  0  0  0  0  0
   58.1120   30.1620   45.9750 H   0  0  0  0  0  0  0  0  0  0  0  0
   59.4210   28.6120   45.2330 C   0  0  0  0  0  0  0  0  0  0  0  0
   59.7832   27.8316   45.9184 H   0  0  0  0  0  0  0  0  0  0  0  0
   60.1986   28.8570   44.4945 H   0  0  0  0  0  0  0  0  0  0  0  0
   58.1790   28.1000   44.4960 C   0  0  0  0  0  0  0  0  0  0  0  0
   58.3366   27.0429   44.2360 H   0  0  0  0  0  0  0  0  0  0  0  0
   58.0448   28.7270   43.6022 H   0  0  0  0  0  0  0  0  0  0  0  0
   56.8990   28.2120   45.3310 C   0  0  0  0  0  0  0  0  0  0  0  0
   57.1358   28.0063   46.3853 H   0  0  0  0  0  0  0  0  0  0  0  0
   56.1660   27.4822   44.9566 H   0  0  0  0  0  0  0  0  0  0  0  0
   56.3260   29.5590   45.2190 N   0  0  0  0  0  0  0  0  0  0  0  0
   55.6350   29.6730   45.9990 H   0  0  0  0  0  0  0  0  0  0  0  0
   55.6010   29.7350   43.9510 C   0  0  0  0  0  0  0  0  0  0  0  0
   54.8796   30.5580   44.0618 H   0  0  0  0  0  0  0  0  0  0  0  0
   55.0836   28.7939   43.7129 H   0  0  0  0  0  0  0  0  0  0  0  0
   56.5650   30.0650   42.7980 C   0  0  0  0  0  0  0  0  0  0  0  0
   56.0379   29.9043   41.8460 H   0  0  0  0  0  0  0  0  0  0  0  0
   57.4385   29.4053   42.9063 H   0  0  0  0  0  0  0  0  0  0  0  0
   57.0830   31.5130   42.8300 C   0  0  0  0  0  0  0  0  0  0  0  0
   56.2202   32.1933   42.8819 H   0  0  0  0  0  0  0  0  0  0  0  0
   57.6754   31.6718   41.9168 H   0  0  0  0  0  0  0  0  0  0  0  0
   58.0030   31.7940   44.0320 C   0  0  0  0  0  0  0  0  0  0  0  0
   58.6066   32.6877   43.8153 H   0  0  0  0  0  0  0  0  0  0  0  0
   58.6393   30.9099   44.1853 H   0  0  0  0  0  0  0  0  0  0  0  0
   57.2400   32.0250   45.2730 N   0  0  0  0  0  0  0  0  0  0  0  0
   56.3010   31.5690   45.1970 H   0  0  0  0  0  0  0  0  0  0  0  0
   57.0630   33.4550   45.5710 C   0  0  0  0  0  0  0  0  0  0  0  0
   56.9979   33.5936   46.6603 H   0  0  0  0  0  0  0  0  0  0  0  0
   56.1390   33.8095   45.0908 H   0  0  0  0  0  0  0  0  0  0  0  0
   58.2430   34.2570   45.0310 C   0  0  0  0  0  0  0  0  0  0  0  0
   58.8302   34.6561   45.8712 H   0  0  0  0  0  0  0  0  0  0  0  0
   58.8797   33.6038   44.4162 H   0  0  0  0  0  0  0  0  0  0  0  0
   57.8699   35.0894   44.4162 H   0  0  0  0  0  0  0  0  0  0  0  0
   61.7680   32.2160   50.3380 C   0  0  0  0  0  0  0  0  0  0  0  0
   62.4744   31.4097   50.0911 H   0  0  0  0  0  0  0  0  0  0  0  0
   62.0711   32.7584   51.2457 H   0  0  0  0  0  0  0  0  0  0  0  0
   60.3980   31.6000   50.6050 C   0  0  0  0  0  0  0  0  0  0  0  0
   60.1500   30.2310   50.3130 C   0  0  0  0  0  0  0  0  0  0  0  0
   61.1290   29.3760   49.5440 C   0  0  0  0  0  0  0  0  0  0  0  0
   61.7644   28.8211   50.2499 H   0  0  0  0  0  0  0  0  0  0  0  0
   60.5770   28.6656   48.9110 H   0  0  0  0  0  0  0  0  0  0  0  0
   61.7586   30.0186   48.9110 H   0  0  0  0  0  0  0  0  0  0  0  0
   58.9580   29.6350   50.7400 C   0  0  0  0  0  0  0  0  0  0  0  0
   58.7884   28.5667   50.5403 H   0  0  0  0  0  0  0  0  0  0  0  0
   57.9770   30.3700   51.4160 C   0  0  0  0  0  0  0  0  0  0  0  0
   56.7950   29.7640   51.8800 O   0  0  0  0  0  0  0  0  0  0  0  0
   56.6130   29.2300   53.1870 C   0  0  0  0  0  0  0  0  0  0  0  0
   56.8733   29.9937   53.9346 H   0  0  0  0  0  0  0  0  0  0  0  0
   55.5624   28.9316   53.3181 H   0  0  0  0  0  0  0  0  0  0  0  0
   57.2627   28.3521   53.3181 H   0  0  0  0  0  0  0  0  0  0  0  0
   58.1640   31.7480   51.6260 C   0  0  0  0  0  0  0  0  0  0  0  0
   57.0850   32.5340   52.3380 C   0  0  0  0  0  0  0  0  0  0  0  0
   57.2180   32.4371   53.4256 H   0  0  0  0  0  0  0  0  0  0  0  0
   57.1551   33.5941   52.0530 H   0  0  0  0  0  0  0  0  0  0  0  0
   56.0974   32.1422   52.0530 H   0  0  0  0  0  0  0  0  0  0  0  0
   59.3280   32.3870   51.1230 C   0  0  0  0  0  0  0  0  0  0  0  0
   59.4100   33.9020   51.1260 C   0  0  0  0  0  0  0  0  0  0  0  0
   59.4297   34.2661   52.1638 H   0  0  0  0  0  0  0  0  0  0  0  0
   60.3267   34.2206   50.6082 H   0  0  0  0  0  0  0  0  0  0  0  0
   58.5330   34.3177   50.6082 H   0  0  0  0  0  0  0  0  0  0  0  0
  1  2  1  0
  2  3  2  0
  3  4  1  0
  4  5  1  0
  4  6  1  0
  4  7  1  0
  3  8  1  0
  8  9  1  0
  8 10  1  0
  8 11  1  0
 11 12  1  0
 11 13  1  0
 11 14  1  0
 14 15  2  0
 14 16  1  0
 16 17  1  0
 16 18  1  0
 18 19  1  0
 18 20  1  0
 18 21  1  0
 21 22  1  0
 21 23  1  0
 21 24  1  0
 24 25  1  0
 24 26  1  0
 24 27  1  0
 27 28  1  0
 27 29  1  0
 29 30  1  0
 29 31  1  0
 29 32  1  0
 32 33  1  0
 32 34  1  0
 32 35  1  0
 35 36  1  0
 35 37  1  0
 35 38  1  0
 38 39  1  0
 38 40  1  0
 38 41  1  0
 41 42  1  0
 41 43  1  0
 43 44  1  0
 43 45  1  0
 43 46  1  0
 46 47  1  0
 46 48  1  0
 46 49  1  0
  2 50  1  0
 50 51  1  0
 50 52  1  0
 50 53  1  0
 53 54  2  0
 54 55  1  0
 55 56  1  0
 55 57  1  0
 55 58  1  0
 54 59  1  0
 59 60  1  0
 59 61  2  0
 61 62  1  0
 62 63  1  0
 63 64  1  0
 63 65  1  0
 63 66  1  0
 61 67  1  0
 67 68  1  0
 68 69  1  0
 68 70  1  0
 68 71  1  0
 67 72  2  0
 72 73  1  0
 73 74  1  0
 73 75  1  0
 73 76  1  0
 72 53  1  0
M  END
>  <UniqueID>  (25) 
25

>  <SMILES>  (25) 
CCNCCCCNCCCNC(=O)CC/C(C)=C\Cc1c(C)cc(OC)c(C)c1C

>  <Energy>  (25) 
61.03972519903354

>  <Genealogy>  (25) 
CCNCCCCNCCCNC(=O)CC/C(C)=C\Cc1c(C)cc(OC)c(C)c1C (cis-trans isomerization)
CCNCCCCNCCCNC(=O)CC/C(C)=C\Cc1c(C)cc(OC)c(C)c1C (3D coordinates assigned)
CCNCCCCNCCCNC(=O)CC/C(C)=C\Cc1c(C)cc(OC)c(C)c1C (optimized conformer: 61.03972519903354 kcal/mol)

>  <smiles>  (25) 
CCNCCCCNCCCNC(=O)CCC(C)=CCc1c(C)cc(OC)c(C)c1C

>  <score_type>  (25) 
oracle

>  <origin>  (25) 
adg

>  <m_score__min__energy>  (25) 
-7.1900000000000004

>  <m_primary>  (25) 
energy

$$$$
25:0
     RDKit          3D

 74 75  0  0  0  0  0  0  0  0999 V2000
   59.6600   28.2150   44.1800 C   0  0  0  0  0  0  0  0  0  0  0  0
   60.1600   29.2240   45.2080 C   0  0  0  0  0  0  0  0  0  0  0  0
   59.1000   30.0830   45.6290 O   0  0  0  0  0  0  0  0  0  0  0  0
   59.2110   31.4600   45.8970 C   0  0  0  0  0  0  0  0  0  0  0  0
   60.2060   31.9790   46.7450 C   0  0  0  0  0  0  0  0  0  0  0  0
   60.3480   33.3660   46.9280 C   0  0  0  0  0  0  0  0  0  0  0  0
   61.4840   33.9010   47.6380 N   0  0  0  0  0  0  0  0  0  0  0  0
   62.8360   33.5510   47.1700 C   0  0  0  0  0  0  0  0  0  0  0  0
   63.8260   33.4530   48.3410 C   0  0  0  0  0  0  0  0  0  0  0  0
   63.1490   32.8820   49.5130 N   0  0  0  0  0  0  0  0  0  0  0  0
   63.6930   31.7150   50.1600 C   0  0  0  0  0  0  0  0  0  0  0  0
   64.9440   31.5720   50.2380 O   0  0  0  0  0  0  0  0  0  0  0  0
   62.7900   30.6700   50.7610 C   0  0  0  0  0  0  0  0  0  0  0  0
   63.4380   30.0260   51.9100 N   0  0  0  0  0  0  0  0  0  0  0  0
   63.1190   28.5980   51.9370 C   0  0  0  0  0  0  0  0  0  0  0  0
   61.9220   33.5230   50.0190 C   0  0  0  0  0  0  0  0  0  0  0  0
   61.3360   34.4870   48.9780 C   0  0  0  0  0  0  0  0  0  0  0  0
   59.4450   34.2320   46.2950 C   0  0  0  0  0  0  0  0  0  0  0  0
   58.4460   33.7280   45.4620 C   0  0  0  0  0  0  0  0  0  0  0  0
   58.3270   32.3460   45.2480 C   0  0  0  0  0  0  0  0  0  0  0  0
   57.4210   31.8350   44.1650 C   0  0  0  0  0  0  0  0  0  0  0  0
   56.2570   31.3510   44.7930 O   0  0  0  0  0  0  0  0  0  0  0  0
   55.7320   30.2400   44.1020 C   0  0  0  0  0  0  0  0  0  0  0  0
   56.5920   29.0110   44.4220 C   0  0  0  0  0  0  0  0  0  0  0  0
   55.9010   28.0960   45.2530 O   0  0  0  0  0  0  0  0  0  0  0  0
   56.7340   27.0310   45.6810 C   0  0  0  0  0  0  0  0  0  0  0  0
   57.7120   27.4740   46.7870 C   0  0  0  0  0  0  0  0  0  0  0  0
   58.6420   26.3790   47.1540 N   0  0  0  0  0  0  0  0  0  0  0  0
   59.8230   26.9370   47.8540 C   0  0  0  0  0  0  0  0  0  0  0  0
   59.5500   28.3360   48.4080 C   0  0  0  0  0  0  0  0  0  0  0  0
   59.0320   25.5800   45.9590 C   0  0  0  0  0  0  0  0  0  0  0  0
   58.3550   24.2120   45.9960 C   0  0  0  0  0  0  0  0  0  0  0  0
   59.2293   27.3459   44.6987 H   0  0  0  0  0  0  0  0  0  0  0  0
   58.8902   28.6844   43.5498 H   0  0  0  0  0  0  0  0  0  0  0  0
   60.4997   27.8868   43.5498 H   0  0  0  0  0  0  0  0  0  0  0  0
   60.5557   28.6842   46.0810 H   0  0  0  0  0  0  0  0  0  0  0  0
   60.9496   29.8361   44.7477 H   0  0  0  0  0  0  0  0  0  0  0  0
   60.8825   31.2903   47.2724 H   0  0  0  0  0  0  0  0  0  0  0  0
   62.7959   32.5809   46.6529 H   0  0  0  0  0  0  0  0  0  0  0  0
   63.1824   34.3421   46.4887 H   0  0  0  0  0  0  0  0  0  0  0  0
   64.6690   32.8070   48.0545 H   0  0  0  0  0  0  0  0  0  0  0  0
   64.1992   34.4577   48.5885 H   0  0  0  0  0  0  0  0  0  0  0  0
   61.8561   31.1470   51.0932 H   0  0  0  0  0  0  0  0  0  0  0  0
   62.5768   29.9053   49.9996 H   0  0  0  0  0  0  0  0  0  0  0  0
   64.4750   30.1110   51.7860 H   0  0  0  0  0  0  0  0  0  0  0  0
   63.0432   28.2589   52.9807 H   0  0  0  0  0  0  0  0  0  0  0  0
   62.1604   28.4267   51.4253 H   0  0  0  0  0  0  0  0  0  0  0  0
   63.9135   28.0351   51.4253 H   0  0  0  0  0  0  0  0  0  0  0  0
   61.1783   32.7456   50.2483 H   0  0  0  0  0  0  0  0  0  0  0  0
   62.1730   34.0950   50.9244 H   0  0  0  0  0  0  0  0  0  0  0  0
   60.2697   34.6540   49.1906 H   0  0  0  0  0  0  0  0  0  0  0  0
   61.8705   35.4474   49.0221 H   0  0  0  0  0  0  0  0  0  0  0  0
   59.5250   35.3171   46.4565 H   0  0  0  0  0  0  0  0  0  0  0  0
   57.7462   34.4189   44.9691 H   0  0  0  0  0  0  0  0  0  0  0  0
   57.1648   32.6497   43.4718 H   0  0  0  0  0  0  0  0  0  0  0  0
   57.9130   31.0397   43.5858 H   0  0  0  0  0  0  0  0  0  0  0  0
   54.6954   30.0603   44.4232 H   0  0  0  0  0  0  0  0  0  0  0  0
   55.7421   30.4330   43.0191 H   0  0  0  0  0  0  0  0  0  0  0  0
   56.8599   28.5075   43.4814 H   0  0  0  0  0  0  0  0  0  0  0  0
   57.4925   29.3494   44.9554 H   0  0  0  0  0  0  0  0  0  0  0  0
   56.1016   26.2193   46.0699 H   0  0  0  0  0  0  0  0  0  0  0  0
   57.3263   26.6938   44.8176 H   0  0  0  0  0  0  0  0  0  0  0  0
   58.2955   28.3338   46.4261 H   0  0  0  0  0  0  0  0  0  0  0  0
   57.1278   27.7467   47.6783 H   0  0  0  0  0  0  0  0  0  0  0  0
   60.0901   26.2705   48.6873 H   0  0  0  0  0  0  0  0  0  0  0  0
   60.6453   27.0129   47.1273 H   0  0  0  0  0  0  0  0  0  0  0  0
   59.5565   28.3027   49.5075 H   0  0  0  0  0  0  0  0  0  0  0  0
   60.3301   29.0278   48.0575 H   0  0  0  0  0  0  0  0  0  0  0  0
   58.5670   28.6838   48.0575 H   0  0  0  0  0  0  0  0  0  0  0  0
   58.7230   26.1139   45.0482 H   0  0  0  0  0  0  0  0  0  0  0  0
   60.1232   25.4408   45.9606 H   0  0  0  0  0  0  0  0  0  0  0  0
   58.2036   23.9060   47.0417 H   0  0  0  0  0  0  0  0  0  0  0  0
   57.3819   24.2706   45.4865 H   0  0  0  0  0  0  0  0  0  0  0  0
   58.9918   23.4738   45.4865 H   0  0  0  0  0  0  0  0  0  0  0  0
  1  2  1  0
  2  3  1  0
  3  4  1  0
  4  5  2  0
  5  6  1  0
  6  7  1  0
  7  8  1  0
  8  9  1  0
  9 10  1  0
 10 11  1  0
 11 12  2  0
 11 13  1  0
 13 14  1  0
 14 15  1  0
 10 16  1  0
 16 17  1  0
  6 18  2  0
 18 19  1  0
 19 20  2  0
 20 21  1  0
 21 22  1  0
 22 23  1  0
 23 24  1  0
 24 25  1  0
 25 26  1  0
 26 27  1  0
 27 28  1  0
 28 29  1  0
 29 30  1  0
 28 31  1  0
 31 32  1  0
 20  4  1  0
 17  7  1  0
  1 33  1  0
  1 34  1  0
  1 35  1  0
  2 36  1  0
  2 37  1  0
  5 38  1  0
  8 39  1  0
  8 40  1  0
  9 41  1  0
  9 42  1  0
 13 43  1  0
 13 44  1  0
 14 45  1  0
 15 46  1  0
 15 47  1  0
 15 48  1  0
 16 49  1  0
 16 50  1  0
 17 51  1  0
 17 52  1  0
 18 53  1  0
 19 54  1  0
 21 55  1  0
 21 56  1  0
 23 57  1  0
 23 58  1  0
 24 59  1  0
 24 60  1  0
 26 61  1  0
 26 62  1  0
 27 63  1  0
 27 64  1  0
 29 65  1  0
 29 66  1  0
 30 67  1  0
 30 68  1  0
 30 69  1  0
 31 70  1  0
 31 71  1  0
 32 72  1  0
 32 73  1  0
 32 74  1  0
M  END
>  <UniqueID>  (26) 
26

>  <SMILES>  (26) 
CCOc1cc(N2CCN(C(=O)CNC)CC2)ccc1COCCOCCN(CC)CC

>  <Energy>  (26) 
73.6598276796365

>  <Genealogy>  (26) 
CCOc1cc(N2CCN(C(=O)CNC)CC2)ccc1COCCOCCN(CC)CC (3D coordinates assigned)
CCOc1cc(N2CCN(C(=O)CNC)CC2)ccc1COCCOCCN(CC)CC (nonaromatic ring conformer: 73.6598276796365 kcal/mol)

>  <smiles>  (26) 
CCOc1cc(N2CCN(C(=O)CNC)CC2)ccc1COCCOCCN(CC)CC

>  <score_type>  (26) 
oracle

>  <origin>  (26) 
adg

>  <m_score__min__energy>  (26) 
-7.0599999999999996

>  <m_primary>  (26) 
energy

$$$$
26:0
     RDKit          3D

 51 53  0  0  0  0  0  0  0  0999 V2000
   63.2750   33.8310   49.1610 C   0  0  0  0  0  0  0  0  0  0  0  0
   63.7750   33.5190   47.7540 C   0  0  0  0  0  0  0  0  0  0  0  0
   62.6130   33.4880   46.7460 C   0  0  0  0  0  0  0  0  0  0  0  0
   61.6120   32.4610   47.0840 N   0  0  0  0  0  0  0  0  0  0  0  0
   62.2190   31.1860   47.4970 C   0  0  0  0  0  0  0  0  0  0  0  0
   61.1400   30.1310   47.7800 C   0  0  0  0  0  0  0  0  0  0  0  0
   59.8230   30.7540   48.0110 N   0  0  0  0  0  0  0  0  0  0  0  0
   59.0070   30.7080   46.8070 C   0  0  0  0  0  0  0  0  0  0  0  0
   58.7120   29.4500   46.2060 C   0  0  0  0  0  0  0  0  0  0  0  0
   59.0480   28.2240   46.8380 C   0  0  0  0  0  0  0  0  0  0  0  0
   58.8210   27.0020   46.2110 C   0  0  0  0  0  0  0  0  0  0  0  0
   58.2660   26.9650   44.9420 C   0  0  0  0  0  0  0  0  0  0  0  0
   57.8970   28.1470   44.3090 C   0  0  0  0  0  0  0  0  0  0  0  0
   58.0670   29.4080   44.9400 C   0  0  0  0  0  0  0  0  0  0  0  0
   57.6450   30.5700   44.3340 N   0  0  0  0  0  0  0  0  0  0  0  0
   56.7280   30.5020   43.1710 C   0  0  0  0  0  0  0  0  0  0  0  0
   58.0260   31.7970   44.8350 C   0  0  0  0  0  0  0  0  0  0  0  0
   57.8720   32.9710   44.0590 C   0  0  0  0  0  0  0  0  0  0  0  0
   58.1410   34.2240   44.5850 C   0  0  0  0  0  0  0  0  0  0  0  0
   58.5350   34.3510   45.9040 C   0  0  0  0  0  0  0  0  0  0  0  0
   58.7420   33.2170   46.7080 C   0  0  0  0  0  0  0  0  0  0  0  0
   59.0360   33.3830   48.0710 O   0  0  0  0  0  0  0  0  0  0  0  0
   59.6880   34.5100   48.6490 C   0  0  0  0  0  0  0  0  0  0  0  0
   58.5990   31.9080   46.1380 C   0  0  0  0  0  0  0  0  0  0  0  0
   63.9663   33.3996   49.8999 H   0  0  0  0  0  0  0  0  0  0  0  0
   63.2245   34.9212   49.2989 H   0  0  0  0  0  0  0  0  0  0  0  0
   62.2736   33.3972   49.2989 H   0  0  0  0  0  0  0  0  0  0  0  0
   64.4945   34.2931   47.4488 H   0  0  0  0  0  0  0  0  0  0  0  0
   64.2534   32.5285   47.7654 H   0  0  0  0  0  0  0  0  0  0  0  0
   62.1226   34.4726   46.7400 H   0  0  0  0  0  0  0  0  0  0  0  0
   63.0290   33.2426   45.7577 H   0  0  0  0  0  0  0  0  0  0  0  0
   60.9920   32.8110   47.8520 H   0  0  0  0  0  0  0  0  0  0  0  0
   62.8756   30.8226   46.6928 H   0  0  0  0  0  0  0  0  0  0  0  0
   62.7961   31.3539   48.4183 H   0  0  0  0  0  0  0  0  0  0  0  0
   61.0682   29.4526   46.9171 H   0  0  0  0  0  0  0  0  0  0  0  0
   61.4255   29.5800   48.6882 H   0  0  0  0  0  0  0  0  0  0  0  0
   59.3270   30.3260   48.8220 H   0  0  0  0  0  0  0  0  0  0  0  0
   59.9440   31.7390   48.3330 H   0  0  0  0  0  0  0  0  0  0  0  0
   59.4963   28.2399   47.8424 H   0  0  0  0  0  0  0  0  0  0  0  0
   59.0826   26.0646   46.7237 H   0  0  0  0  0  0  0  0  0  0  0  0
   58.1172   26.0002   44.4350 H   0  0  0  0  0  0  0  0  0  0  0  0
   57.4644   28.1044   43.2985 H   0  0  0  0  0  0  0  0  0  0  0  0
   55.6899   30.4250   43.5266 H   0  0  0  0  0  0  0  0  0  0  0  0
   56.8404   31.4109   42.5618 H   0  0  0  0  0  0  0  0  0  0  0  0
   56.9733   29.6196   42.5618 H   0  0  0  0  0  0  0  0  0  0  0  0
   57.5316   32.8865   43.0164 H   0  0  0  0  0  0  0  0  0  0  0  0
   58.0410   35.1185   43.9527 H   0  0  0  0  0  0  0  0  0  0  0  0
   58.6886   35.3534   46.3301 H   0  0  0  0  0  0  0  0  0  0  0  0
   59.6451   34.4358   49.7457 H   0  0  0  0  0  0  0  0  0  0  0  0
   60.7386   34.5324   48.3238 H   0  0  0  0  0  0  0  0  0  0  0  0
   59.1838   35.4320   48.3238 H   0  0  0  0  0  0  0  0  0  0  0  0
  1  2  1  0
  2  3  1  0
  3  4  1  0
  4  5  1  0
  5  6  1  0
  6  7  1  0
  7  8  1  0
  8  9  2  0
  9 10  1  0
 10 11  2  0
 11 12  1  0
 12 13  2  0
 13 14  1  0
 14 15  2  0
 15 16  1  0
 15 17  1  0
 17 18  2  0
 18 19  1  0
 19 20  2  0
 20 21  1  0
 21 22  1  0
 22 23  1  0
 21 24  2  0
 24  8  1  0
 14  9  1  0
 24 17  1  0
  1 25  1  0
  1 26  1  0
  1 27  1  0
  2 28  1  0
  2 29  1  0
  3 30  1  0
  3 31  1  0
  4 32  1  0
  5 33  1  0
  5 34  1  0
  6 35  1  0
  6 36  1  0
  7 37  1  0
  7 38  1  0
 10 39  1  0
 11 40  1  0
 12 41  1  0
 13 42  1  0
 16 43  1  0
 16 44  1  0
 16 45  1  0
 18 46  1  0
 19 47  1  0
 20 48  1  0
 23 49  1  0
 23 50  1  0
 23 51  1  0
M  CHG  2   7   1  15   1
M  END
>  <UniqueID>  (27) 
27

>  <SMILES>  (27) 
CCCNCC[NH2+]c1c2ccccc2[n+](C)c2cccc(OC)c12

>  <Energy>  (27) 
82.14778797220836

>  <Genealogy>  (27) 
CCCNCC[NH2+]c1c2ccccc2[n+](C)c2cccc(OC)c12 (protonated)
CCCNCC[NH2+]c1c2ccccc2[n+](C)c2cccc(OC)c12 (3D coordinates assigned)
CCCNCC[NH2+]c1c2ccccc2[n+](C)c2cccc(OC)c12 (optimized conformer: 82.14778797220836 kcal/mol)

>  <smiles>  (27) 
CCCNCCNc1c2ccccc2[n+](C)c2cccc(OC)c12

>  <score_type>  (27) 
oracle

>  <origin>  (27) 
adg

>  <m_score__min__energy>  (27) 
-3.3900000000000001

>  <m_primary>  (27) 
energy

$$$$
