0:0
     RDKit          3D

 57 59  0  0  0  0  0  0  0  0999 V2000
   58.5230   32.2500   50.1090 C   0  0  0  0  0  0  0  0  0  0  0  0
   59.6160   33.1960   50.5980 C   0  0  0  0  0  0  0  0  0  0  0  0
   60.8910   32.7140   50.2190 O   0  0  0  0  0  0  0  0  0  0  0  0
   61.9290   33.4910   50.7870 C   0  0  0  0  0  0  0  0  0  0  0  0
   62.5210   34.4350   49.7430 C   0  0  0  0  0  0  0  0  0  0  0  0
   61.9700   34.1260   48.4800 O   0  0  0  0  0  0  0  0  0  0  0  0
   62.9890   33.7670   47.5640 C   0  0  0  0  0  0  0  0  0  0  0  0
   63.4670   32.3250   47.7930 C   0  0  0  0  0  0  0  0  0  0  0  0
   62.4010   31.2940   47.3960 C   0  0  0  0  0  0  0  0  0  0  0  0
   61.0950   31.6410   47.9810 N   0  0  0  0  0  0  0  0  0  0  0  0
   60.0420   31.5190   46.9870 C   0  0  0  0  0  0  0  0  0  0  0  0
   59.3130   32.6570   46.5670 C   0  0  0  0  0  0  0  0  0  0  0  0
   58.4040   32.5500   45.4960 C   0  0  0  0  0  0  0  0  0  0  0  0
   58.0500   31.3170   44.9950 N   0  0  0  0  0  0  0  0  0  0  0  0
   56.8820   31.2010   44.0960 C   0  0  0  0  0  0  0  0  0  0  0  0
   58.7640   30.1910   45.3590 C   0  0  0  0  0  0  0  0  0  0  0  0
   58.5570   28.9460   44.7100 C   0  0  0  0  0  0  0  0  0  0  0  0
   59.2260   27.7980   45.1230 C   0  0  0  0  0  0  0  0  0  0  0  0
   60.1170   27.8550   46.1850 C   0  0  0  0  0  0  0  0  0  0  0  0
   60.3760   29.0690   46.8150 C   0  0  0  0  0  0  0  0  0  0  0  0
   59.7420   30.2640   46.3930 C   0  0  0  0  0  0  0  0  0  0  0  0
   57.8210   33.8460   44.9480 C   0  0  0  0  0  0  0  0  0  0  0  0
   58.8840   34.9570   44.9220 C   0  0  0  0  0  0  0  0  0  0  0  0
   59.6190   35.1420   46.2680 C   0  0  0  0  0  0  0  0  0  0  0  0
   59.3730   34.0040   47.2670 C   0  0  0  0  0  0  0  0  0  0  0  0
   58.0091   31.8052   50.9739 H   0  0  0  0  0  0  0  0  0  0  0  0
   57.7982   32.8105   49.5003 H   0  0  0  0  0  0  0  0  0  0  0  0
   58.9738   31.4523   49.5003 H   0  0  0  0  0  0  0  0  0  0  0  0
   59.4586   34.1910   50.1562 H   0  0  0  0  0  0  0  0  0  0  0  0
   59.5696   33.2581   51.6953 H   0  0  0  0  0  0  0  0  0  0  0  0
   61.5239   34.0821   51.6216 H   0  0  0  0  0  0  0  0  0  0  0  0
   62.7206   32.8183   51.1488 H   0  0  0  0  0  0  0  0  0  0  0  0
   62.2790   35.4752   50.0066 H   0  0  0  0  0  0  0  0  0  0  0  0
   63.6141   34.3161   49.7112 H   0  0  0  0  0  0  0  0  0  0  0  0
   62.5970   33.8556   46.5400 H   0  0  0  0  0  0  0  0  0  0  0  0
   63.8437   34.4428   47.7151 H   0  0  0  0  0  0  0  0  0  0  0  0
   64.3707   32.1509   47.1906 H   0  0  0  0  0  0  0  0  0  0  0  0
   63.6736   32.2028   48.8665 H   0  0  0  0  0  0  0  0  0  0  0  0
   62.3109   31.2721   46.2999 H   0  0  0  0  0  0  0  0  0  0  0  0
   62.7062   30.3074   47.7747 H   0  0  0  0  0  0  0  0  0  0  0  0
   61.1140   32.6050   48.3830 H   0  0  0  0  0  0  0  0  0  0  0  0
   60.9000   31.0430   48.8130 H   0  0  0  0  0  0  0  0  0  0  0  0
   55.9648   31.1099   44.6964 H   0  0  0  0  0  0  0  0  0  0  0  0
   56.8173   32.0971   43.4614 H   0  0  0  0  0  0  0  0  0  0  0  0
   56.9949   30.3096   43.4614 H   0  0  0  0  0  0  0  0  0  0  0  0
   57.8550   28.8875   43.8652 H   0  0  0  0  0  0  0  0  0  0  0  0
   59.0481   26.8433   44.6064 H   0  0  0  0  0  0  0  0  0  0  0  0
   60.6196   26.9393   46.5298 H   0  0  0  0  0  0  0  0  0  0  0  0
   61.0853   29.1013   47.6552 H   0  0  0  0  0  0  0  0  0  0  0  0
   57.4559   33.6726   43.9249 H   0  0  0  0  0  0  0  0  0  0  0  0
   56.9953   34.1643   45.6013 H   0  0  0  0  0  0  0  0  0  0  0  0
   59.6280   34.7083   44.1509 H   0  0  0  0  0  0  0  0  0  0  0  0
   58.3594   35.9001   44.7089 H   0  0  0  0  0  0  0  0  0  0  0  0
   60.6991   35.2014   46.0685 H   0  0  0  0  0  0  0  0  0  0  0  0
   59.2252   36.0617   46.7253 H   0  0  0  0  0  0  0  0  0  0  0  0
   60.1913   33.9895   48.0020 H   0  0  0  0  0  0  0  0  0  0  0  0
   58.4070   34.1805   47.7627 H   0  0  0  0  0  0  0  0  0  0  0  0
  1  2  1  0
  2  3  1  0
  3  4  1  0
  4  5  1  0
  5  6  1  0
  6  7  1  0
  7  8  1  0
  8  9  1  0
  9 10  1  0
 10 11  1  0
 11 12  2  0
 12 13  1  0
 13 14  2  0
 14 15  1  0
 14 16  1  0
 16 17  2  0
 17 18  1  0
 18 19  2  0
 19 20  1  0
 20 21  2  0
 13 22  1  0
 22 23  1  0
 23 24  1  0
 24 25  1  0
 21 11  1  0
 25 12  1  0
 21 16  1  0
  1 26  1  0
  1 27  1  0
  1 28  1  0
  2 29  1  0
  2 30  1  0
  4 31  1  0
  4 32  1  0
  5 33  1  0
  5 34  1  0
  7 35  1  0
  7 36  1  0
  8 37  1  0
  8 38  1  0
  9 39  1  0
  9 40  1  0
 10 41  1  0
 10 42  1  0
 15 43  1  0
 15 44  1  0
 15 45  1  0
 17 46  1  0
 18 47  1  0
 19 48  1  0
 20 49  1  0
 22 50  1  0
 22 51  1  0
 23 52  1  0
 23 53  1  0
 24 54  1  0
 24 55  1  0
 25 56  1  0
 25 57  1  0
M  CHG  2  10   1  14   1
M  END
>  <UniqueID>  (1) 
1

>  <SMILES>  (1) 
CCOCCOCCC[NH2+]c1c2c([n+](C)c3ccccc13)CCCC2

>  <Energy>  (1) 
81.54514707009767

>  <Genealogy>  (1) 
CCOCCOCCC[NH2+]c1c2c([n+](C)c3ccccc13)CCCC2 (protonated)
CCOCCOCCC[NH2+]c1c2c([n+](C)c3ccccc13)CCCC2 (3D coordinates assigned)
CCOCCOCCC[NH2+]c1c2c([n+](C)c3ccccc13)CCCC2 (nonaromatic ring conformer: 81.54514707009767 kcal/mol)

>  <smiles>  (1) 
CCOCCOCCCNc1c2c([n+](C)c3ccccc13)CCCC2

>  <score_type>  (1) 
oracle

>  <origin>  (1) 
adg

>  <m_score__min__energy>  (1) 
-3.4700000000000002

>  <m_primary>  (1) 
energy

$$$$
1:0
     RDKit          3D

 50 52  0  0  0  0  0  0  0  0999 V2000
   55.8550   30.0500   44.0910 C   0  0  0  0  0  0  0  0  0  0  0  0
   57.3260   30.4800   44.1260 C   0  0  0  0  0  0  0  0  0  0  0  0
   58.2840   29.3600   44.2660 N   0  0  0  0  0  0  0  0  0  0  0  0
   57.7130   28.0990   44.7850 C   0  0  0  0  0  0  0  0  0  0  0  0
   57.7500   27.9980   46.3270 C   0  0  0  0  0  0  0  0  0  0  0  0
   58.6020   29.0410   46.9360 N   0  0  0  0  0  0  0  0  0  0  0  0
   58.8160   28.8030   48.3790 C   0  0  0  0  0  0  0  0  0  0  0  0
   60.3070   28.9270   48.7100 C   0  0  0  0  0  0  0  0  0  0  0  0
   60.6240   30.2270   49.4540 C   0  0  0  0  0  0  0  0  0  0  0  0
   59.2340   31.4100   49.3340 S   0  0  0  0  0  0  0  0  0  0  0  0
   59.9840   32.4200   48.0390 C   0  0  0  0  0  0  0  0  0  0  0  0
   61.3350   32.5940   48.0520 N   0  0  0  0  0  0  0  0  0  0  0  0
   61.9670   33.3160   47.0850 C   0  0  0  0  0  0  0  0  0  0  0  0
   63.4540   33.4710   47.1120 C   0  0  0  0  0  0  0  0  0  0  0  0
   61.2480   33.8740   46.0770 N   0  0  0  0  0  0  0  0  0  0  0  0
   59.8990   33.7450   46.0190 C   0  0  0  0  0  0  0  0  0  0  0  0
   59.1890   34.3280   44.9630 C   0  0  0  0  0  0  0  0  0  0  0  0
   57.7990   34.1960   44.8960 C   0  0  0  0  0  0  0  0  0  0  0  0
   57.1140   33.4890   45.8870 C   0  0  0  0  0  0  0  0  0  0  0  0
   57.8130   32.9080   46.9490 C   0  0  0  0  0  0  0  0  0  0  0  0
   59.2160   33.0180   47.0180 C   0  0  0  0  0  0  0  0  0  0  0  0
   59.8740   29.1370   46.2060 C   0  0  0  0  0  0  0  0  0  0  0  0
   59.6150   29.7200   44.8080 C   0  0  0  0  0  0  0  0  0  0  0  0
   55.4804   29.9405   45.1194 H   0  0  0  0  0  0  0  0  0  0  0  0
   55.2625   30.8125   43.5642 H   0  0  0  0  0  0  0  0  0  0  0  0
   55.7665   29.0884   43.5642 H   0  0  0  0  0  0  0  0  0  0  0  0
   57.5520   31.0119   43.1900 H   0  0  0  0  0  0  0  0  0  0  0  0
   57.4484   31.1131   45.0172 H   0  0  0  0  0  0  0  0  0  0  0  0
   56.6657   28.0288   44.4559 H   0  0  0  0  0  0  0  0  0  0  0  0
   58.3284   27.2770   44.3906 H   0  0  0  0  0  0  0  0  0  0  0  0
   56.7260   28.1072   46.7135 H   0  0  0  0  0  0  0  0  0  0  0  0
   58.1759   27.0186   46.5905 H   0  0  0  0  0  0  0  0  0  0  0  0
   58.2500   29.5463   48.9596 H   0  0  0  0  0  0  0  0  0  0  0  0
   58.4700   27.7908   48.6354 H   0  0  0  0  0  0  0  0  0  0  0  0
   60.6025   28.0758   49.3409 H   0  0  0  0  0  0  0  0  0  0  0  0
   60.8656   28.9334   47.7624 H   0  0  0  0  0  0  0  0  0  0  0  0
   60.8106   29.9982   50.5136 H   0  0  0  0  0  0  0  0  0  0  0  0
   61.5128   30.6845   48.9950 H   0  0  0  0  0  0  0  0  0  0  0  0
   61.8990   32.1550   48.8160 H   0  0  0  0  0  0  0  0  0  0  0  0
   63.8000   33.5071   48.1555 H   0  0  0  0  0  0  0  0  0  0  0  0
   63.9211   32.6167   46.6002 H   0  0  0  0  0  0  0  0  0  0  0  0
   63.7348   34.4033   46.6002 H   0  0  0  0  0  0  0  0  0  0  0  0
   59.7255   34.8907   44.1849 H   0  0  0  0  0  0  0  0  0  0  0  0
   57.2438   34.6495   44.0617 H   0  0  0  0  0  0  0  0  0  0  0  0
   56.0200   33.3890   45.8315 H   0  0  0  0  0  0  0  0  0  0  0  0
   57.2663   32.3635   47.7329 H   0  0  0  0  0  0  0  0  0  0  0  0
   60.5644   29.7936   46.7557 H   0  0  0  0  0  0  0  0  0  0  0  0
   60.3204   28.1362   46.1108 H   0  0  0  0  0  0  0  0  0  0  0  0
   59.6840   30.8162   44.8675 H   0  0  0  0  0  0  0  0  0  0  0  0
   60.3708   29.2961   44.1305 H   0  0  0  0  0  0  0  0  0  0  0  0
  1  2  1  0
  2  3  1  0
  3  4  1  0
  4  5  1  0
  5  6  1  0
  6  7  1  0
  7  8  1  0
  8  9  1  0
  9 10  1  0
 10 11  1  0
 11 12  2  0
 12 13  1  0
 13 14  1  0
 13 15  2  0
 15 16  1  0
 16 17  2  0
 17 18  1  0
 18 19  2  0
 19 20  1  0
 20 21  2  0
  6 22  1  0
 22 23  1  0
 23  3  1  0
 21 11  1  0
 21 16  1  0
  1 24  1  0
  1 25  1  0
  1 26  1  0
  2 27  1  0
  2 28  1  0
  4 29  1  0
  4 30  1  0
  5 31  1  0
  5 32  1  0
  7 33  1  0
  7 34  1  0
  8 35  1  0
  8 36  1  0
  9 37  1  0
  9 38  1  0
 12 39  1  0
 14 40  1  0
 14 41  1  0
 14 42  1  0
 17 43  1  0
 18 44  1  0
 19 45  1  0
 20 46  1  0
 22 47  1  0
 22 48  1  0
 23 49  1  0
 23 50  1  0
M  CHG  1  12   1
M  END
>  <UniqueID>  (2) 
2

>  <SMILES>  (2) 
CCN1CCN(CCCSc2[nH+]c(C)nc3ccccc23)CC1

>  <Energy>  (2) 
58.76708874234615

>  <Genealogy>  (2) 
CCN1CCN(CCCSc2[nH+]c(C)nc3ccccc23)CC1 (protonated)
CCN1CCN(CCCSc2[nH+]c(C)nc3ccccc23)CC1 (3D coordinates assigned)
CCN1CCN(CCCSc2[nH+]c(C)nc3ccccc23)CC1 (nonaromatic ring conformer: 58.76708874234615 kcal/mol)

>  <smiles>  (2) 
CCN1CCN(CCCSc2nc(C)nc3ccccc23)CC1

>  <score_type>  (2) 
oracle

>  <origin>  (2) 
adg

>  <m_score__min__energy>  (2) 
-6.1699999999999999

>  <m_primary>  (2) 
energy

$$$$
2:0
     RDKit          3D

 50 52  0  0  0  0  0  0  0  0999 V2000
   53.1920   24.1520   45.2480 C   0  0  0  0  0  0  0  0  0  0  0  0
   54.6500   24.5220   45.4700 C   0  0  0  0  0  0  0  0  0  0  0  0
   54.7400   25.8910   45.7700 O   0  0  0  0  0  0  0  0  0  0  0  0
   55.8540   26.0390   46.5370 N   0  0  0  0  0  0  0  0  0  0  0  0
   56.7050   27.0740   45.9350 C   0  0  0  0  0  0  0  0  0  0  0  0
   58.1870   26.6660   45.8530 C   0  0  0  0  0  0  0  0  0  0  0  0
   58.9500   26.9210   47.1630 C   0  0  0  0  0  0  0  0  0  0  0  0
   59.5250   28.3420   47.2280 C   0  0  0  0  0  0  0  0  0  0  0  0
   58.4600   29.3420   47.1520 N   0  0  0  0  0  0  0  0  0  0  0  0
   58.6560   30.6150   46.5110 C   0  0  0  0  0  0  0  0  0  0  0  0
   58.1270   30.8560   45.2300 C   0  0  0  0  0  0  0  0  0  0  0  0
   57.4960   29.8240   44.5020 C   0  0  0  0  0  0  0  0  0  0  0  0
   57.0090   30.0520   43.2180 C   0  0  0  0  0  0  0  0  0  0  0  0
   57.1620   31.3000   42.6270 C   0  0  0  0  0  0  0  0  0  0  0  0
   57.7930   32.3330   43.3210 C   0  0  0  0  0  0  0  0  0  0  0  0
   58.2670   32.1430   44.6450 C   0  0  0  0  0  0  0  0  0  0  0  0
   58.8750   33.1640   45.3520 N   0  0  0  0  0  0  0  0  0  0  0  0
   58.7650   34.5610   44.8760 C   0  0  0  0  0  0  0  0  0  0  0  0
   59.5690   32.8810   46.5130 C   0  0  0  0  0  0  0  0  0  0  0  0
   60.4290   33.8340   47.1190 C   0  0  0  0  0  0  0  0  0  0  0  0
   61.0700   33.5600   48.3260 C   0  0  0  0  0  0  0  0  0  0  0  0
   60.8840   32.3360   48.9550 C   0  0  0  0  0  0  0  0  0  0  0  0
   60.0810   31.3630   48.3640 C   0  0  0  0  0  0  0  0  0  0  0  0
   59.4390   31.6080   47.1310 C   0  0  0  0  0  0  0  0  0  0  0  0
   52.6936   24.0255   46.2204 H   0  0  0  0  0  0  0  0  0  0  0  0
   52.6929   24.9519   44.6815 H   0  0  0  0  0  0  0  0  0  0  0  0
   53.1347   23.2108   44.6815 H   0  0  0  0  0  0  0  0  0  0  0  0
   55.0549   23.9348   46.3074 H   0  0  0  0  0  0  0  0  0  0  0  0
   55.2284   24.3050   44.5598 H   0  0  0  0  0  0  0  0  0  0  0  0
   55.5460   26.3390   47.4910 H   0  0  0  0  0  0  0  0  0  0  0  0
   56.3413   27.2776   44.9170 H   0  0  0  0  0  0  0  0  0  0  0  0
   56.6452   27.9632   46.5798 H   0  0  0  0  0  0  0  0  0  0  0  0
   58.2433   25.5931   45.6169 H   0  0  0  0  0  0  0  0  0  0  0  0
   58.6566   27.2817   45.0717 H   0  0  0  0  0  0  0  0  0  0  0  0
   58.2610   26.7780   48.0085 H   0  0  0  0  0  0  0  0  0  0  0  0
   59.7904   26.2128   47.2092 H   0  0  0  0  0  0  0  0  0  0  0  0
   60.0690   28.4670   48.1759 H   0  0  0  0  0  0  0  0  0  0  0  0
   60.2024   28.4856   46.3733 H   0  0  0  0  0  0  0  0  0  0  0  0
   57.4890   29.0450   47.3980 H   0  0  0  0  0  0  0  0  0  0  0  0
   57.3878   28.8275   44.9550 H   0  0  0  0  0  0  0  0  0  0  0  0
   56.5025   29.2433   42.6708 H   0  0  0  0  0  0  0  0  0  0  0  0
   56.7845   31.4743   41.6086 H   0  0  0  0  0  0  0  0  0  0  0  0
   57.9252   33.3104   42.8340 H   0  0  0  0  0  0  0  0  0  0  0  0
   58.7116   35.2396   45.7401 H   0  0  0  0  0  0  0  0  0  0  0  0
   59.6462   34.8114   44.2671 H   0  0  0  0  0  0  0  0  0  0  0  0
   57.8555   34.6703   44.2671 H   0  0  0  0  0  0  0  0  0  0  0  0
   60.5922   34.8047   46.6280 H   0  0  0  0  0  0  0  0  0  0  0  0
   61.7258   34.3163   48.7821 H   0  0  0  0  0  0  0  0  0  0  0  0
   61.3710   32.1346   49.9205 H   0  0  0  0  0  0  0  0  0  0  0  0
   59.9457   30.3926   48.8640 H   0  0  0  0  0  0  0  0  0  0  0  0
  1  2  1  0
  2  3  1  0
  3  4  1  0
  4  5  1  0
  5  6  1  0
  6  7  1  0
  7  8  1  0
  8  9  1  0
  9 10  1  0
 10 11  2  0
 11 12  1  0
 12 13  2  0
 13 14  1  0
 14 15  2  0
 15 16  1  0
 16 17  2  0
 17 18  1  0
 17 19  1  0
 19 20  2  0
 20 21  1  0
 21 22  2  0
 22 23  1  0
 23 24  2  0
 24 10  1  0
 16 11  1  0
 24 19  1  0
  1 25  1  0
  1 26  1  0
  1 27  1  0
  2 28  1  0
  2 29  1  0
  4 30  1  0
  5 31  1  0
  5 32  1  0
  6 33  1  0
  6 34  1  0
  7 35  1  0
  7 36  1  0
  8 37  1  0
  8 38  1  0
  9 39  1  0
 12 40  1  0
 13 41  1  0
 14 42  1  0
 15 43  1  0
 18 44  1  0
 18 45  1  0
 18 46  1  0
 20 47  1  0
 21 48  1  0
 22 49  1  0
 23 50  1  0
M  CHG  1  17   1
M  END
>  <UniqueID>  (3) 
3

>  <SMILES>  (3) 
CCONCCCCNc1c2ccccc2[n+](C)c2ccccc12

>  <Energy>  (3) 
67.9930197812055

>  <Genealogy>  (3) 
CCONCCCCNc1c2ccccc2[n+](C)c2ccccc12 (3D coordinates assigned)
CCONCCCCNc1c2ccccc2[n+](C)c2ccccc12 (optimized conformer: 67.9930197812055 kcal/mol)

>  <smiles>  (3) 
CCONCCCCNc1c2ccccc2[n+](C)c2ccccc12

>  <score_type>  (3) 
oracle

>  <origin>  (3) 
adg

>  <m_score__min__energy>  (3) 
-6.3899999999999997

>  <m_primary>  (3) 
energy

$$$$
3:0
     RDKit          3D

 41 42  0  0  0  0  0  0  0  0999 V2000
   61.1120   30.0340   49.2800 C   0  0  0  0  0  0  0  0  0  0  0  0
   59.7360   29.3980   49.1650 C   0  0  0  0  0  0  0  0  0  0  0  0
   58.7570   30.4150   49.1500 O   0  0  0  0  0  0  0  0  0  0  0  0
   58.4790   30.8220   50.4740 C   0  0  0  0  0  0  0  0  0  0  0  0
   58.3970   32.3530   50.5350 C   0  0  0  0  0  0  0  0  0  0  0  0
   58.9150   32.9950   49.3140 N   0  0  0  0  0  0  0  0  0  0  0  0
   59.9770   33.9750   49.5950 C   0  0  0  0  0  0  0  0  0  0  0  0
   61.2450   33.6600   48.8220 C   0  0  0  0  0  0  0  0  0  0  0  0
   62.3810   33.2110   49.5260 C   0  0  0  0  0  0  0  0  0  0  0  0
   63.5930   32.9970   48.8670 C   0  0  0  0  0  0  0  0  0  0  0  0
   64.9900   32.4220   49.7600 Cl  0  0  0  0  0  0  0  0  0  0  0  0
   63.7010   33.2630   47.5020 C   0  0  0  0  0  0  0  0  0  0  0  0
   62.5980   33.7400   46.7950 C   0  0  0  0  0  0  0  0  0  0  0  0
   61.3650   33.9330   47.4350 C   0  0  0  0  0  0  0  0  0  0  0  0
   59.9960   34.5870   46.4570 S   0  0  0  0  0  0  0  0  0  0  0  0
   59.3150   32.9640   46.0700 C   0  0  0  0  0  0  0  0  0  0  0  0
   60.0490   31.8180   46.4000 C   0  0  0  0  0  0  0  0  0  0  0  0
   59.5550   30.5480   46.0930 C   0  0  0  0  0  0  0  0  0  0  0  0
   58.3120   30.4130   45.4710 C   0  0  0  0  0  0  0  0  0  0  0  0
   57.6900   28.8180   45.0900 Cl  0  0  0  0  0  0  0  0  0  0  0  0
   57.5550   31.5500   45.1700 C   0  0  0  0  0  0  0  0  0  0  0  0
   58.0450   32.8260   45.4730 C   0  0  0  0  0  0  0  0  0  0  0  0
   57.0250   34.2190   45.1390 Cl  0  0  0  0  0  0  0  0  0  0  0  0
   61.3727   30.1545   50.3419 H   0  0  0  0  0  0  0  0  0  0  0  0
   61.8563   29.3886   48.7907 H   0  0  0  0  0  0  0  0  0  0  0  0
   61.1027   31.0191   48.7907 H   0  0  0  0  0  0  0  0  0  0  0  0
   59.6762   28.8153   48.2339 H   0  0  0  0  0  0  0  0  0  0  0  0
   59.5636   28.7301   50.0219 H   0  0  0  0  0  0  0  0  0  0  0  0
   57.5195   30.3908   50.7958 H   0  0  0  0  0  0  0  0  0  0  0  0
   59.2815   30.4722   51.1400 H   0  0  0  0  0  0  0  0  0  0  0  0
   57.3448   32.6449   50.6678 H   0  0  0  0  0  0  0  0  0  0  0  0
   59.0191   32.6877   51.3782 H   0  0  0  0  0  0  0  0  0  0  0  0
   59.2860   32.2730   48.6530 H   0  0  0  0  0  0  0  0  0  0  0  0
   59.6237   34.9766   49.3088 H   0  0  0  0  0  0  0  0  0  0  0  0
   60.2090   33.9332   50.6694 H   0  0  0  0  0  0  0  0  0  0  0  0
   62.3115   33.0270   50.6083 H   0  0  0  0  0  0  0  0  0  0  0  0
   64.6566   33.0964   46.9832 H   0  0  0  0  0  0  0  0  0  0  0  0
   62.6959   33.9675   45.7232 H   0  0  0  0  0  0  0  0  0  0  0  0
   61.0213   31.9186   46.9045 H   0  0  0  0  0  0  0  0  0  0  0  0
   60.1454   29.6537   46.3413 H   0  0  0  0  0  0  0  0  0  0  0  0
   56.5699   31.4411   44.6929 H   0  0  0  0  0  0  0  0  0  0  0  0
  1  2  1  0
  2  3  1  0
  3  4  1  0
  4  5  1  0
  5  6  1  0
  6  7  1  0
  7  8  1  0
  8  9  2  0
  9 10  1  0
 10 11  1  0
 10 12  2  0
 12 13  1  0
 13 14  2  0
 14 15  1  0
 15 16  1  0
 16 17  2  0
 17 18  1  0
 18 19  2  0
 19 20  1  0
 19 21  1  0
 21 22  2  0
 22 23  1  0
 14  8  1  0
 22 16  1  0
  1 24  1  0
  1 25  1  0
  1 26  1  0
  2 27  1  0
  2 28  1  0
  4 29  1  0
  4 30  1  0
  5 31  1  0
  5 32  1  0
  6 33  1  0
  7 34  1  0
  7 35  1  0
  9 36  1  0
 12 37  1  0
 13 38  1  0
 17 39  1  0
 18 40  1  0
 21 41  1  0
M  END
>  <UniqueID>  (4) 
4

>  <SMILES>  (4) 
CCOCCNCc1cc(Cl)ccc1Sc1ccc(Cl)cc1Cl

>  <Energy>  (4) 
36.68678234263805

>  <Genealogy>  (4) 
CCOCCNCc1cc(Cl)ccc1Sc1ccc(Cl)cc1Cl (3D coordinates assigned)
CCOCCNCc1cc(Cl)ccc1Sc1ccc(Cl)cc1Cl (optimized conformer: 36.68678234263805 kcal/mol)

>  <smiles>  (4) 
CCOCCNCc1cc(Cl)ccc1Sc1ccc(Cl)cc1Cl

>  <score_type>  (4) 
oracle

>  <origin>  (4) 
adg

>  <m_score__min__energy>  (4) 
-7.5599999999999996

>  <m_primary>  (4) 
energy

$$$$
4:0
     RDKit          3D

 47 49  0  0  0  0  0  0  0  0999 V2000
   57.0330   32.6550   40.6460 C   0  0  0  0  0  0  0  0  0  0  0  0
   58.2360   32.2100   41.4730 C   0  0  0  0  0  0  0  0  0  0  0  0
   57.8980   32.2020   42.9430 C   0  0  0  0  0  0  0  0  0  0  0  0
   58.4100   33.1900   43.7260 N   0  0  0  0  0  0  0  0  0  0  0  0
   58.2010   33.2250   45.0710 C   0  0  0  0  0  0  0  0  0  0  0  0
   58.8140   34.3230   45.8980 C   0  0  0  0  0  0  0  0  0  0  0  0
   60.2500   34.0940   46.1380 N   0  0  0  0  0  0  0  0  0  0  0  0
   60.5490   33.4640   47.4380 C   0  0  0  0  0  0  0  0  0  0  0  0
   61.9920   32.9410   47.5390 C   0  0  0  0  0  0  0  0  0  0  0  0
   61.9940   31.5170   47.6530 O   0  0  0  0  0  0  0  0  0  0  0  0
   60.9260   30.6710   47.3020 C   0  0  0  0  0  0  0  0  0  0  0  0
   59.9350   30.4320   48.2570 C   0  0  0  0  0  0  0  0  0  0  0  0
   58.8540   29.5910   47.9750 C   0  0  0  0  0  0  0  0  0  0  0  0
   58.7510   28.9720   46.7190 C   0  0  0  0  0  0  0  0  0  0  0  0
   57.6760   28.1170   46.4260 C   0  0  0  0  0  0  0  0  0  0  0  0
   57.5890   27.5040   45.1720 C   0  0  0  0  0  0  0  0  0  0  0  0
   58.5690   27.7410   44.2030 C   0  0  0  0  0  0  0  0  0  0  0  0
   59.6420   28.5910   44.4830 C   0  0  0  0  0  0  0  0  0  0  0  0
   59.7440   29.2110   45.7390 C   0  0  0  0  0  0  0  0  0  0  0  0
   60.8210   30.0630   46.0320 C   0  0  0  0  0  0  0  0  0  0  0  0
   57.4170   32.2280   45.6620 C   0  0  0  0  0  0  0  0  0  0  0  0
   56.9110   31.2310   44.8900 N   0  0  0  0  0  0  0  0  0  0  0  0
   57.1400   31.1730   43.5500 C   0  0  0  0  0  0  0  0  0  0  0  0
   56.5550   30.0330   42.7680 C   0  0  0  0  0  0  0  0  0  0  0  0
   56.2169   32.9569   41.3189 H   0  0  0  0  0  0  0  0  0  0  0  0
   57.3191   33.5068   40.0115 H   0  0  0  0  0  0  0  0  0  0  0  0
   56.6959   31.8221   40.0115 H   0  0  0  0  0  0  0  0  0  0  0  0
   58.5312   31.1962   41.1647 H   0  0  0  0  0  0  0  0  0  0  0  0
   59.0625   32.9158   41.3037 H   0  0  0  0  0  0  0  0  0  0  0  0
   58.6901   35.2789   45.3680 H   0  0  0  0  0  0  0  0  0  0  0  0
   58.3041   34.3409   46.8725 H   0  0  0  0  0  0  0  0  0  0  0  0
   60.7450   35.0160   46.0850 H   0  0  0  0  0  0  0  0  0  0  0  0
   60.3903   34.2084   48.2322 H   0  0  0  0  0  0  0  0  0  0  0  0
   59.8788   32.5982   47.5441 H   0  0  0  0  0  0  0  0  0  0  0  0
   62.5486   33.2340   46.6366 H   0  0  0  0  0  0  0  0  0  0  0  0
   62.4687   33.3731   48.4312 H   0  0  0  0  0  0  0  0  0  0  0  0
   60.0059   30.9119   49.2443 H   0  0  0  0  0  0  0  0  0  0  0  0
   58.0826   29.4140   48.7389 H   0  0  0  0  0  0  0  0  0  0  0  0
   56.9013   27.9292   47.1840 H   0  0  0  0  0  0  0  0  0  0  0  0
   56.7468   26.8331   44.9471 H   0  0  0  0  0  0  0  0  0  0  0  0
   58.4950   27.2571   43.2179 H   0  0  0  0  0  0  0  0  0  0  0  0
   60.4096   28.7752   43.7169 H   0  0  0  0  0  0  0  0  0  0  0  0
   61.5875   30.2579   45.2675 H   0  0  0  0  0  0  0  0  0  0  0  0
   57.2121   32.2512   46.7425 H   0  0  0  0  0  0  0  0  0  0  0  0
   56.1654   29.2739   43.4622 H   0  0  0  0  0  0  0  0  0  0  0  0
   55.7364   30.4049   42.1344 H   0  0  0  0  0  0  0  0  0  0  0  0
   57.3345   29.5848   42.1344 H   0  0  0  0  0  0  0  0  0  0  0  0
  1  2  1  0
  2  3  1  0
  3  4  2  0
  4  5  1  0
  5  6  1  0
  6  7  1  0
  7  8  1  0
  8  9  1  0
  9 10  1  0
 10 11  1  0
 11 12  2  0
 12 13  1  0
 13 14  2  0
 14 15  1  0
 15 16  2  0
 16 17  1  0
 17 18  2  0
 18 19  1  0
 19 20  2  0
  5 21  2  0
 21 22  1  0
 22 23  2  0
 23 24  1  0
 23  3  1  0
 20 11  1  0
 19 14  1  0
  1 25  1  0
  1 26  1  0
  1 27  1  0
  2 28  1  0
  2 29  1  0
  6 30  1  0
  6 31  1  0
  7 32  1  0
  8 33  1  0
  8 34  1  0
  9 35  1  0
  9 36  1  0
 12 37  1  0
 13 38  1  0
 15 39  1  0
 16 40  1  0
 17 41  1  0
 18 42  1  0
 20 43  1  0
 21 44  1  0
 24 45  1  0
 24 46  1  0
 24 47  1  0
M  END
>  <UniqueID>  (5) 
5

>  <SMILES>  (5) 
CCc1nc(CNCCOc2ccc3ccccc3c2)cnc1C

>  <Energy>  (5) 
47.78659252710815

>  <Genealogy>  (5) 
CCc1nc(CNCCOc2ccc3ccccc3c2)cnc1C (3D coordinates assigned)
CCc1nc(CNCCOc2ccc3ccccc3c2)cnc1C (optimized conformer: 47.78659252710815 kcal/mol)

>  <smiles>  (5) 
CCc1nc(CNCCOc2ccc3ccccc3c2)cnc1C

>  <score_type>  (5) 
oracle

>  <origin>  (5) 
adg

>  <m_score__min__energy>  (5) 
-7.8300000000000001

>  <m_primary>  (5) 
energy

$$$$
5:0
     RDKit          3D

 71 73  0  0  0  0  0  0  0  0999 V2000
   58.6730   34.0640   52.3820 C   0  0  0  0  0  0  0  0  0  0  0  0
   60.0200   33.4700   51.9600 C   0  0  0  0  0  0  0  0  0  0  0  0
   59.8600   32.2710   51.1150 N   0  0  0  0  0  0  0  0  0  0  0  0
   58.5310   31.6320   51.2590 C   0  0  0  0  0  0  0  0  0  0  0  0
   58.5560   30.1140   50.9850 C   0  0  0  0  0  0  0  0  0  0  0  0
   59.8600   29.5870   50.3520 C   0  0  0  0  0  0  0  0  0  0  0  0
   60.0940   30.0140   48.8910 C   0  0  0  0  0  0  0  0  0  0  0  0
   58.9480   30.7350   48.3290 N   0  0  0  0  0  0  0  0  0  0  0  0
   58.6870   30.8020   46.9180 C   0  0  0  0  0  0  0  0  0  0  0  0
   58.6100   29.6140   46.1680 C   0  0  0  0  0  0  0  0  0  0  0  0
   58.9860   28.3740   46.7310 C   0  0  0  0  0  0  0  0  0  0  0  0
   58.9260   27.2040   45.9810 C   0  0  0  0  0  0  0  0  0  0  0  0
   58.5200   27.2480   44.6520 C   0  0  0  0  0  0  0  0  0  0  0  0
   58.1610   28.4630   44.0700 C   0  0  0  0  0  0  0  0  0  0  0  0
   58.1790   29.6680   44.8180 C   0  0  0  0  0  0  0  0  0  0  0  0
   57.8080   30.8740   44.2610 N   0  0  0  0  0  0  0  0  0  0  0  0
   57.0640   30.8970   42.9820 C   0  0  0  0  0  0  0  0  0  0  0  0
   58.1200   32.0580   44.9040 C   0  0  0  0  0  0  0  0  0  0  0  0
   58.0320   33.2990   44.2300 C   0  0  0  0  0  0  0  0  0  0  0  0
   58.2780   34.4960   44.8900 C   0  0  0  0  0  0  0  0  0  0  0  0
   58.6350   34.4950   46.2280 C   0  0  0  0  0  0  0  0  0  0  0  0
   58.7900   33.2890   46.9330 C   0  0  0  0  0  0  0  0  0  0  0  0
   59.1980   33.3040   48.2770 O   0  0  0  0  0  0  0  0  0  0  0  0
   59.8420   34.3970   48.9310 C   0  0  0  0  0  0  0  0  0  0  0  0
   61.3740   34.2260   48.8780 C   0  0  0  0  0  0  0  0  0  0  0  0
   61.8410   32.8200   48.9540 N   0  0  0  0  0  0  0  0  0  0  0  0
   62.3390   32.2890   47.6660 C   0  0  0  0  0  0  0  0  0  0  0  0
   62.7710   33.4320   46.7510 C   0  0  0  0  0  0  0  0  0  0  0  0
   62.7790   32.5850   50.0740 C   0  0  0  0  0  0  0  0  0  0  0  0
   64.1620   32.2340   49.5350 C   0  0  0  0  0  0  0  0  0  0  0  0
   58.5440   32.0500   46.2660 C   0  0  0  0  0  0  0  0  0  0  0  0
   58.6120   34.0909   53.4800 H   0  0  0  0  0  0  0  0  0  0  0  0
   58.5821   35.0857   51.9846 H   0  0  0  0  0  0  0  0  0  0  0  0
   57.8574   33.4421   51.9846 H   0  0  0  0  0  0  0  0  0  0  0  0
   60.5807   34.2293   51.3951 H   0  0  0  0  0  0  0  0  0  0  0  0
   60.5580   33.1713   52.8718 H   0  0  0  0  0  0  0  0  0  0  0  0
   60.6230   31.5940   51.3510 H   0  0  0  0  0  0  0  0  0  0  0  0
   60.0090   32.5360   50.1120 H   0  0  0  0  0  0  0  0  0  0  0  0
   58.1730   31.7964   52.2860 H   0  0  0  0  0  0  0  0  0  0  0  0
   57.8649   32.0890   50.5123 H   0  0  0  0  0  0  0  0  0  0  0  0
   58.4059   29.5921   51.9416 H   0  0  0  0  0  0  0  0  0  0  0  0
   57.7587   29.9209   50.2522 H   0  0  0  0  0  0  0  0  0  0  0  0
   60.7041   29.9543   50.9541 H   0  0  0  0  0  0  0  0  0  0  0  0
   59.7750   28.4903   50.3416 H   0  0  0  0  0  0  0  0  0  0  0  0
   60.9771   30.6686   48.8514 H   0  0  0  0  0  0  0  0  0  0  0  0
   60.2415   29.1016   48.2945 H   0  0  0  0  0  0  0  0  0  0  0  0
   58.3900   31.3550   48.9570 H   0  0  0  0  0  0  0  0  0  0  0  0
   59.3303   28.3332   47.7749 H   0  0  0  0  0  0  0  0  0  0  0  0
   59.2001   26.2427   46.4400 H   0  0  0  0  0  0  0  0  0  0  0  0
   58.4820   26.3225   44.0586 H   0  0  0  0  0  0  0  0  0  0  0  0
   57.8586   28.4875   43.0127 H   0  0  0  0  0  0  0  0  0  0  0  0
   55.9837   30.9304   43.1868 H   0  0  0  0  0  0  0  0  0  0  0  0
   57.3554   31.7866   42.4043 H   0  0  0  0  0  0  0  0  0  0  0  0
   57.2999   29.9911   42.4043 H   0  0  0  0  0  0  0  0  0  0  0  0
   57.7637   33.3160   43.1633 H   0  0  0  0  0  0  0  0  0  0  0  0
   58.1889   35.4488   44.3476 H   0  0  0  0  0  0  0  0  0  0  0  0
   58.7995   35.4512   46.7462 H   0  0  0  0  0  0  0  0  0  0  0  0
   59.5641   35.3352   48.4284 H   0  0  0  0  0  0  0  0  0  0  0  0
   59.5214   34.4234   49.9829 H   0  0  0  0  0  0  0  0  0  0  0  0
   61.7349   34.6569   47.9324 H   0  0  0  0  0  0  0  0  0  0  0  0
   61.7758   34.7366   49.7656 H   0  0  0  0  0  0  0  0  0  0  0  0
   63.1995   31.6301   47.8540 H   0  0  0  0  0  0  0  0  0  0  0  0
   61.5314   31.7253   47.1761 H   0  0  0  0  0  0  0  0  0  0  0  0
   63.0945   34.2880   47.3614 H   0  0  0  0  0  0  0  0  0  0  0  0
   63.6050   33.0983   46.1161 H   0  0  0  0  0  0  0  0  0  0  0  0
   61.9247   33.7333   46.1161 H   0  0  0  0  0  0  0  0  0  0  0  0
   62.8480   33.4952   50.6878 H   0  0  0  0  0  0  0  0  0  0  0  0
   62.4079   31.7488   50.6848 H   0  0  0  0  0  0  0  0  0  0  0  0
   64.8497   32.0595   50.3756 H   0  0  0  0  0  0  0  0  0  0  0  0
   64.0959   31.3242   48.9203 H   0  0  0  0  0  0  0  0  0  0  0  0
   64.5378   33.0652   48.9203 H   0  0  0  0  0  0  0  0  0  0  0  0
  1  2  1  0
  2  3  1  0
  3  4  1  0
  4  5  1  0
  5  6  1  0
  6  7  1  0
  7  8  1  0
  8  9  1  0
  9 10  2  0
 10 11  1  0
 11 12  2  0
 12 13  1  0
 13 14  2  0
 14 15  1  0
 15 16  2  0
 16 17  1  0
 16 18  1  0
 18 19  2  0
 19 20  1  0
 20 21  2  0
 21 22  1  0
 22 23  1  0
 23 24  1  0
 24 25  1  0
 25 26  1  0
 26 27  1  0
 27 28  1  0
 26 29  1  0
 29 30  1  0
 22 31  2  0
 31  9  1  0
 15 10  1  0
 31 18  1  0
  1 32  1  0
  1 33  1  0
  1 34  1  0
  2 35  1  0
  2 36  1  0
  3 37  1  0
  3 38  1  0
  4 39  1  0
  4 40  1  0
  5 41  1  0
  5 42  1  0
  6 43  1  0
  6 44  1  0
  7 45  1  0
  7 46  1  0
  8 47  1  0
 11 48  1  0
 12 49  1  0
 13 50  1  0
 14 51  1  0
 17 52  1  0
 17 53  1  0
 17 54  1  0
 19 55  1  0
 20 56  1  0
 21 57  1  0
 24 58  1  0
 24 59  1  0
 25 60  1  0
 25 61  1  0
 27 62  1  0
 27 63  1  0
 28 64  1  0
 28 65  1  0
 28 66  1  0
 29 67  1  0
 29 68  1  0
 30 69  1  0
 30 70  1  0
 30 71  1  0
M  CHG  2   3   1  16   1
M  END
>  <UniqueID>  (6) 
6

>  <SMILES>  (6) 
CC[NH2+]CCCCNc1c2ccccc2[n+](C)c2cccc(OCCN(CC)CC)c12

>  <Energy>  (6) 
96.96711295138317

>  <Genealogy>  (6) 
CC[NH2+]CCCCNc1c2ccccc2[n+](C)c2cccc(OCCN(CC)CC)c12 (protonated)
CC[NH2+]CCCCNc1c2ccccc2[n+](C)c2cccc(OCCN(CC)CC)c12 (3D coordinates assigned)
CC[NH2+]CCCCNc1c2ccccc2[n+](C)c2cccc(OCCN(CC)CC)c12 (optimized conformer: 96.96711295138317 kcal/mol)

>  <smiles>  (6) 
CCNCCCCNc1c2ccccc2[n+](C)c2cccc(OCCN(CC)CC)c12

>  <score_type>  (6) 
oracle

>  <origin>  (6) 
adg

>  <m_score__min__energy>  (6) 
-3.3700000000000001

>  <m_primary>  (6) 
energy

$$$$
6:0
     RDKit          3D

 59 61  0  0  0  0  0  0  0  0999 V2000
   60.0080   34.9170   47.3050 C   0  0  0  0  0  0  0  0  0  0  0  0
   58.6580   34.2230   47.1360 C   0  0  0  0  0  0  0  0  0  0  0  0
   58.3480   33.8490   45.6740 C   0  0  0  0  0  0  0  0  0  0  0  0
   57.0870   32.9760   45.4740 C   0  0  0  0  0  0  0  0  0  0  0  0
   57.3320   31.5280   45.5470 N   0  0  0  0  0  0  0  0  0  0  0  0
   58.7310   31.1750   45.2610 C   0  0  0  0  0  0  0  0  0  0  0  0
   58.8800   29.6520   45.2020 C   0  0  0  0  0  0  0  0  0  0  0  0
   58.5140   28.9850   46.5360 C   0  0  0  0  0  0  0  0  0  0  0  0
   59.3720   29.4940   47.7230 C   0  0  0  0  0  0  0  0  0  0  0  0
   59.1050   30.8920   48.1000 N   0  0  0  0  0  0  0  0  0  0  0  0
   59.8980   31.6420   49.0350 C   0  0  0  0  0  0  0  0  0  0  0  0
   59.3000   32.1280   50.2140 C   0  0  0  0  0  0  0  0  0  0  0  0
   60.0650   32.9150   51.1150 C   0  0  0  0  0  0  0  0  0  0  0  0
   61.4010   33.1720   50.8430 N   0  0  0  0  0  0  0  0  0  0  0  0
   62.2570   33.8330   51.8560 C   0  0  0  0  0  0  0  0  0  0  0  0
   61.9420   32.8400   49.6120 C   0  0  0  0  0  0  0  0  0  0  0  0
   63.2280   33.2850   49.2110 C   0  0  0  0  0  0  0  0  0  0  0  0
   63.7690   32.9110   47.9810 C   0  0  0  0  0  0  0  0  0  0  0  0
   63.0490   32.0910   47.1170 C   0  0  0  0  0  0  0  0  0  0  0  0
   61.7720   31.6590   47.4690 C   0  0  0  0  0  0  0  0  0  0  0  0
   61.2020   32.0350   48.7030 C   0  0  0  0  0  0  0  0  0  0  0  0
   59.4290   33.3930   52.4210 C   0  0  0  0  0  0  0  0  0  0  0  0
   57.8990   33.3970   52.4140 C   0  0  0  0  0  0  0  0  0  0  0  0
   57.3740   32.0770   51.8730 C   0  0  0  0  0  0  0  0  0  0  0  0
   57.8090   31.9050   50.4220 C   0  0  0  0  0  0  0  0  0  0  0  0
   60.2300   35.0311   48.3763 H   0  0  0  0  0  0  0  0  0  0  0  0
   60.7938   34.3111   46.8302 H   0  0  0  0  0  0  0  0  0  0  0  0
   59.9725   35.9086   46.8302 H   0  0  0  0  0  0  0  0  0  0  0  0
   58.6594   33.3034   47.7396 H   0  0  0  0  0  0  0  0  0  0  0  0
   57.8826   34.9308   47.4643 H   0  0  0  0  0  0  0  0  0  0  0  0
   58.2113   34.7807   45.1054 H   0  0  0  0  0  0  0  0  0  0  0  0
   59.1981   33.2442   45.3254 H   0  0  0  0  0  0  0  0  0  0  0  0
   56.3579   33.2412   46.2538 H   0  0  0  0  0  0  0  0  0  0  0  0
   56.7215   33.1813   44.4570 H   0  0  0  0  0  0  0  0  0  0  0  0
   57.0710   31.1670   46.4970 H   0  0  0  0  0  0  0  0  0  0  0  0
   59.0267   31.6086   44.2943 H   0  0  0  0  0  0  0  0  0  0  0  0
   59.3762   31.5725   46.0584 H   0  0  0  0  0  0  0  0  0  0  0  0
   58.2174   29.2607   44.4160 H   0  0  0  0  0  0  0  0  0  0  0  0
   59.9338   29.4223   44.9856 H   0  0  0  0  0  0  0  0  0  0  0  0
   57.4560   29.1933   46.7535 H   0  0  0  0  0  0  0  0  0  0  0  0
   58.7066   27.9073   46.4289 H   0  0  0  0  0  0  0  0  0  0  0  0
   59.1684   28.8557   48.5955 H   0  0  0  0  0  0  0  0  0  0  0  0
   60.4222   29.4472   47.3991 H   0  0  0  0  0  0  0  0  0  0  0  0
   58.5140   31.4570   47.4490 H   0  0  0  0  0  0  0  0  0  0  0  0
   61.9077   33.5632   52.8636 H   0  0  0  0  0  0  0  0  0  0  0  0
   63.2983   33.5023   51.7282 H   0  0  0  0  0  0  0  0  0  0  0  0
   62.2004   34.9241   51.7282 H   0  0  0  0  0  0  0  0  0  0  0  0
   63.8083   33.9360   49.8814 H   0  0  0  0  0  0  0  0  0  0  0  0
   64.7694   33.2658   47.6924 H   0  0  0  0  0  0  0  0  0  0  0  0
   63.4881   31.7840   46.1563 H   0  0  0  0  0  0  0  0  0  0  0  0
   61.2034   31.0190   46.7783 H   0  0  0  0  0  0  0  0  0  0  0  0
   59.7677   32.7307   53.2313 H   0  0  0  0  0  0  0  0  0  0  0  0
   59.7452   34.4373   52.5606 H   0  0  0  0  0  0  0  0  0  0  0  0
   57.5312   33.5412   53.4406 H   0  0  0  0  0  0  0  0  0  0  0  0
   57.5448   34.2156   51.7702 H   0  0  0  0  0  0  0  0  0  0  0  0
   57.7763   31.2493   52.4756 H   0  0  0  0  0  0  0  0  0  0  0  0
   56.2753   32.0736   51.9260 H   0  0  0  0  0  0  0  0  0  0  0  0
   57.5600   30.8828   50.1009 H   0  0  0  0  0  0  0  0  0  0  0  0
   57.2784   32.6644   49.8289 H   0  0  0  0  0  0  0  0  0  0  0  0
  1  2  1  0
  2  3  1  0
  3  4  1  0
  4  5  1  0
  5  6  1  0
  6  7  1  0
  7  8  1  0
  8  9  1  0
  9 10  1  0
 10 11  1  0
 11 12  2  0
 12 13  1  0
 13 14  2  0
 14 15  1  0
 14 16  1  0
 16 17  2  0
 17 18  1  0
 18 19  2  0
 19 20  1  0
 20 21  2  0
 13 22  1  0
 22 23  1  0
 23 24  1  0
 24 25  1  0
 21 11  1  0
 25 12  1  0
 21 16  1  0
  1 26  1  0
  1 27  1  0
  1 28  1  0
  2 29  1  0
  2 30  1  0
  3 31  1  0
  3 32  1  0
  4 33  1  0
  4 34  1  0
  5 35  1  0
  6 36  1  0
  6 37  1  0
  7 38  1  0
  7 39  1  0
  8 40  1  0
  8 41  1  0
  9 42  1  0
  9 43  1  0
 10 44  1  0
 15 45  1  0
 15 46  1  0
 15 47  1  0
 17 48  1  0
 18 49  1  0
 19 50  1  0
 20 51  1  0
 22 52  1  0
 22 53  1  0
 23 54  1  0
 23 55  1  0
 24 56  1  0
 24 57  1  0
 25 58  1  0
 25 59  1  0
M  CHG  1  14   1
M  END
>  <UniqueID>  (7) 
7

>  <SMILES>  (7) 
CCCCNCCCCNc1c2c([n+](C)c3ccccc13)CCCC2

>  <Energy>  (7) 
72.53914612717116

>  <Genealogy>  (7) 
CCCCNCCCCNc1c2c([n+](C)c3ccccc13)CCCC2 (3D coordinates assigned)
CCCCNCCCCNc1c2c([n+](C)c3ccccc13)CCCC2 (nonaromatic ring conformer: 72.53914612717116 kcal/mol)

>  <smiles>  (7) 
CCCCNCCCCNc1c2c([n+](C)c3ccccc13)CCCC2

>  <score_type>  (7) 
oracle

>  <origin>  (7) 
adg

>  <m_score__min__energy>  (7) 
-6.3700000000000001

>  <m_primary>  (7) 
energy

$$$$
7:0
     RDKit          3D

 42 44  0  0  0  0  0  0  0  0999 V2000
   56.2550   29.7020   42.6640 C   0  0  0  0  0  0  0  0  0  0  0  0
   55.9400   30.3010   44.0390 C   0  0  0  0  0  0  0  0  0  0  0  0
   55.6850   29.2700   45.0570 N   0  0  0  0  0  0  0  0  0  0  0  0
   56.7470   28.2550   45.1010 C   0  0  0  0  0  0  0  0  0  0  0  0
   58.0500   28.8810   45.6040 C   0  0  0  0  0  0  0  0  0  0  0  0
   57.7930   30.1310   46.3190 N   0  0  0  0  0  0  0  0  0  0  0  0
   58.8470   31.0870   46.5100 C   0  0  0  0  0  0  0  0  0  0  0  0
   58.7170   32.3690   45.9470 C   0  0  0  0  0  0  0  0  0  0  0  0
   57.5510   32.7320   45.2390 C   0  0  0  0  0  0  0  0  0  0  0  0
   57.4200   33.9760   44.7170 N   0  0  0  0  0  0  0  0  0  0  0  0
   58.3930   34.9070   44.8490 C   0  0  0  0  0  0  0  0  0  0  0  0
   59.5710   34.6010   45.5270 C   0  0  0  0  0  0  0  0  0  0  0  0
   59.7620   33.3120   46.0850 C   0  0  0  0  0  0  0  0  0  0  0  0
   60.9540   32.9240   46.7530 C   0  0  0  0  0  0  0  0  0  0  0  0
   62.0730   33.7880   46.8720 C   0  0  0  0  0  0  0  0  0  0  0  0
   63.2390   33.3740   47.5110 C   0  0  0  0  0  0  0  0  0  0  0  0
   63.3290   32.0960   48.0370 C   0  0  0  0  0  0  0  0  0  0  0  0
   62.2520   31.2220   47.9400 C   0  0  0  0  0  0  0  0  0  0  0  0
   61.0390   31.6140   47.3150 C   0  0  0  0  0  0  0  0  0  0  0  0
   59.9630   30.7500   47.2400 N   0  0  0  0  0  0  0  0  0  0  0  0
   59.9980   29.4500   47.9450 C   0  0  0  0  0  0  0  0  0  0  0  0
   56.7635   28.7351   42.7930 H   0  0  0  0  0  0  0  0  0  0  0  0
   55.3189   29.5524   42.1060 H   0  0  0  0  0  0  0  0  0  0  0  0
   56.9088   30.3885   42.1060 H   0  0  0  0  0  0  0  0  0  0  0  0
   56.7957   30.9120   44.3622 H   0  0  0  0  0  0  0  0  0  0  0  0
   55.0265   30.9056   43.9391 H   0  0  0  0  0  0  0  0  0  0  0  0
   55.6020   29.7220   45.9990 H   0  0  0  0  0  0  0  0  0  0  0  0
   56.4470   27.4433   45.7802 H   0  0  0  0  0  0  0  0  0  0  0  0
   56.9061   27.8552   44.0886 H   0  0  0  0  0  0  0  0  0  0  0  0
   58.5488   28.1745   46.2837 H   0  0  0  0  0  0  0  0  0  0  0  0
   58.6895   29.1004   44.7363 H   0  0  0  0  0  0  0  0  0  0  0  0
   56.8190   30.4040   46.5890 H   0  0  0  0  0  0  0  0  0  0  0  0
   56.7414   31.9987   45.1097 H   0  0  0  0  0  0  0  0  0  0  0  0
   58.2533   35.9098   44.4191 H   0  0  0  0  0  0  0  0  0  0  0  0
   60.3570   35.3637   45.6298 H   0  0  0  0  0  0  0  0  0  0  0  0
   62.0186   34.8032   46.4520 H   0  0  0  0  0  0  0  0  0  0  0  0
   64.0911   34.0641   47.5982 H   0  0  0  0  0  0  0  0  0  0  0  0
   64.2555   31.7713   48.5331 H   0  0  0  0  0  0  0  0  0  0  0  0
   62.3415   30.2074   48.3555 H   0  0  0  0  0  0  0  0  0  0  0  0
   59.9934   29.6219   49.0315 H   0  0  0  0  0  0  0  0  0  0  0  0
   59.1155   28.8566   47.6639 H   0  0  0  0  0  0  0  0  0  0  0  0
   60.9111   28.9049   47.6639 H   0  0  0  0  0  0  0  0  0  0  0  0
  1  2  1  0
  2  3  1  0
  3  4  1  0
  4  5  1  0
  5  6  1  0
  6  7  1  0
  7  8  2  0
  8  9  1  0
  9 10  2  0
 10 11  1  0
 11 12  2  0
 12 13  1  0
 13 14  2  0
 14 15  1  0
 15 16  2  0
 16 17  1  0
 17 18  2  0
 18 19  1  0
 19 20  2  0
 20 21  1  0
 20  7  1  0
 13  8  1  0
 19 14  1  0
  1 22  1  0
  1 23  1  0
  1 24  1  0
  2 25  1  0
  2 26  1  0
  3 27  1  0
  4 28  1  0
  4 29  1  0
  5 30  1  0
  5 31  1  0
  6 32  1  0
  9 33  1  0
 11 34  1  0
 12 35  1  0
 15 36  1  0
 16 37  1  0
 17 38  1  0
 18 39  1  0
 21 40  1  0
 21 41  1  0
 21 42  1  0
M  CHG  1  20   1
M  END
>  <UniqueID>  (8) 
8

>  <SMILES>  (8) 
CCNCCNc1c2cnccc2c2ccccc2[n+]1C

>  <Energy>  (8) 
65.77558077504574

>  <Genealogy>  (8) 
CCNCCNc1c2cnccc2c2ccccc2[n+]1C (3D coordinates assigned)
CCNCCNc1c2cnccc2c2ccccc2[n+]1C (optimized conformer: 65.77558077504574 kcal/mol)

>  <smiles>  (8) 
CCNCCNc1c2cnccc2c2ccccc2[n+]1C

>  <score_type>  (8) 
oracle

>  <origin>  (8) 
adg

>  <m_score__min__energy>  (8) 
-5.9000000000000004

>  <m_primary>  (8) 
energy

$$$$
8:0
     RDKit          3D

 81 84  0  0  0  0  0  0  0  0999 V2000
   55.8910   23.8640   47.0470 C   0  0  0  0  0  0  0  0  0  0  0  0
   55.1020   24.5940   45.9500 C   0  0  0  0  0  0  0  0  0  0  0  0
   55.4870   24.0190   44.5790 C   0  0  0  0  0  0  0  0  0  0  0  0
   55.3870   26.0430   45.9960 N   0  0  0  0  0  0  0  0  0  0  0  0
   56.8120   26.3230   45.7670 C   0  0  0  0  0  0  0  0  0  0  0  0
   57.3750   27.1590   46.9220 C   0  0  0  0  0  0  0  0  0  0  0  0
   58.9010   27.0470   47.0290 C   0  0  0  0  0  0  0  0  0  0  0  0
   59.5630   27.9450   46.0800 N   0  0  0  0  0  0  0  0  0  0  0  0
   59.2040   29.3350   45.9710 C   0  0  0  0  0  0  0  0  0  0  0  0
   58.3770   29.7760   44.9220 C   0  0  0  0  0  0  0  0  0  0  0  0
   57.7830   28.8560   44.0320 C   0  0  0  0  0  0  0  0  0  0  0  0
   56.9330   29.2910   43.0190 C   0  0  0  0  0  0  0  0  0  0  0  0
   56.6400   30.6420   42.8880 C   0  0  0  0  0  0  0  0  0  0  0  0
   57.2050   31.5700   43.7620 C   0  0  0  0  0  0  0  0  0  0  0  0
   58.1020   31.1630   44.7840 C   0  0  0  0  0  0  0  0  0  0  0  0
   58.6820   32.0730   45.6470 N   0  0  0  0  0  0  0  0  0  0  0  0
   58.6390   33.5200   45.3350 C   0  0  0  0  0  0  0  0  0  0  0  0
   59.3180   31.6300   46.7920 C   0  0  0  0  0  0  0  0  0  0  0  0
   59.6740   32.5210   47.8360 C   0  0  0  0  0  0  0  0  0  0  0  0
   60.3580   32.0830   48.9710 C   0  0  0  0  0  0  0  0  0  0  0  0
   60.6620   33.0270   49.9650 O   0  0  0  0  0  0  0  0  0  0  0  0
   60.2020   32.9950   51.3160 C   0  0  0  0  0  0  0  0  0  0  0  0
   61.0650   32.0670   52.2130 C   0  0  0  0  0  0  0  0  0  0  0  0
   62.4900   32.4770   52.4660 N   0  0  0  0  0  0  0  0  0  0  0  0
   62.6830   32.7780   53.9100 C   0  0  0  0  0  0  0  0  0  0  0  0
   62.7370   33.7410   51.6840 C   0  0  0  0  0  0  0  0  0  0  0  0
   64.1750   33.8470   51.1360 C   0  0  0  0  0  0  0  0  0  0  0  0
   64.5050   32.7260   50.1970 N   0  0  0  0  0  0  0  0  0  0  0  0
   65.9720   32.5030   50.2200 C   0  0  0  0  0  0  0  0  0  0  0  0
   64.1250   33.1040   48.8130 C   0  0  0  0  0  0  0  0  0  0  0  0
   63.7990   31.4570   50.5690 C   0  0  0  0  0  0  0  0  0  0  0  0
   63.4630   31.4080   52.0700 C   0  0  0  0  0  0  0  0  0  0  0  0
   60.7120   30.7330   49.0800 C   0  0  0  0  0  0  0  0  0  0  0  0
   60.3410   29.8290   48.0890 C   0  0  0  0  0  0  0  0  0  0  0  0
   59.6170   30.2540   46.9540 C   0  0  0  0  0  0  0  0  0  0  0  0
   55.5356   24.1928   48.0347 H   0  0  0  0  0  0  0  0  0  0  0  0
   55.7413   22.7789   46.9460 H   0  0  0  0  0  0  0  0  0  0  0  0
   56.9612   24.0974   46.9460 H   0  0  0  0  0  0  0  0  0  0  0  0
   54.0246   24.4466   46.1158 H   0  0  0  0  0  0  0  0  0  0  0  0
   56.0940   23.1124   44.7190 H   0  0  0  0  0  0  0  0  0  0  0  0
   54.5751   23.7667   44.0180 H   0  0  0  0  0  0  0  0  0  0  0  0
   56.0677   24.7661   44.0180 H   0  0  0  0  0  0  0  0  0  0  0  0
   55.1630   26.4020   46.9560 H   0  0  0  0  0  0  0  0  0  0  0  0
   57.3638   25.3736   45.7019 H   0  0  0  0  0  0  0  0  0  0  0  0
   56.9229   26.8845   44.8277 H   0  0  0  0  0  0  0  0  0  0  0  0
   57.1079   28.2135   46.7589 H   0  0  0  0  0  0  0  0  0  0  0  0
   56.9421   26.7762   47.8580 H   0  0  0  0  0  0  0  0  0  0  0  0
   59.2101   27.3128   48.0507 H   0  0  0  0  0  0  0  0  0  0  0  0
   59.1930   26.0129   46.7937 H   0  0  0  0  0  0  0  0  0  0  0  0
   60.1670   27.5180   45.3420 H   0  0  0  0  0  0  0  0  0  0  0  0
   57.9942   27.7819   44.1400 H   0  0  0  0  0  0  0  0  0  0  0  0
   56.4928   28.5634   42.3213 H   0  0  0  0  0  0  0  0  0  0  0  0
   55.9602   30.9811   42.0925 H   0  0  0  0  0  0  0  0  0  0  0  0
   56.9513   32.6353   43.6577 H   0  0  0  0  0  0  0  0  0  0  0  0
   58.6219   34.0967   46.2716 H   0  0  0  0  0  0  0  0  0  0  0  0
   59.5293   33.7958   44.7508 H   0  0  0  0  0  0  0  0  0  0  0  0
   57.7338   33.7424   44.7508 H   0  0  0  0  0  0  0  0  0  0  0  0
   59.4044   33.5839   47.7492 H   0  0  0  0  0  0  0  0  0  0  0  0
   60.2377   34.0153   51.7256 H   0  0  0  0  0  0  0  0  0  0  0  0
   59.1761   32.5982   51.3118 H   0  0  0  0  0  0  0  0  0  0  0  0
   60.5645   31.9940   53.1898 H   0  0  0  0  0  0  0  0  0  0  0  0
   61.1395   31.1239   51.6517 H   0  0  0  0  0  0  0  0  0  0  0  0
   62.1872   32.0047   54.5152 H   0  0  0  0  0  0  0  0  0  0  0  0
   63.7583   32.7911   54.1413 H   0  0  0  0  0  0  0  0  0  0  0  0
   62.2462   33.7607   54.1413 H   0  0  0  0  0  0  0  0  0  0  0  0
   62.0370   33.7696   50.8360 H   0  0  0  0  0  0  0  0  0  0  0  0
   62.5873   34.5854   52.3729 H   0  0  0  0  0  0  0  0  0  0  0  0
   64.2807   34.8016   50.5997 H   0  0  0  0  0  0  0  0  0  0  0  0
   64.8674   33.7893   51.9888 H   0  0  0  0  0  0  0  0  0  0  0  0
   66.3186   32.4503   51.2627 H   0  0  0  0  0  0  0  0  0  0  0  0
   66.2074   31.5587   49.7072 H   0  0  0  0  0  0  0  0  0  0  0  0
   66.4774   33.3346   49.7072 H   0  0  0  0  0  0  0  0  0  0  0  0
   63.3455   33.8794   48.8456 H   0  0  0  0  0  0  0  0  0  0  0  0
   65.0073   33.4931   48.2838 H   0  0  0  0  0  0  0  0  0  0  0  0
   63.7405   32.2196   48.2838 H   0  0  0  0  0  0  0  0  0  0  0  0
   62.8647   31.3874   49.9927 H   0  0  0  0  0  0  0  0  0  0  0  0
   64.4683   30.6143   50.3411 H   0  0  0  0  0  0  0  0  0  0  0  0
   63.0254   30.4262   52.3035 H   0  0  0  0  0  0  0  0  0  0  0  0
   64.3946   31.5738   52.6309 H   0  0  0  0  0  0  0  0  0  0  0  0
   61.2854   30.3855   49.9520 H   0  0  0  0  0  0  0  0  0  0  0  0
   60.6157   28.7688   48.1915 H   0  0  0  0  0  0  0  0  0  0  0  0
  1  2  1  0
  2  3  1  0
  2  4  1  0
  4  5  1  0
  5  6  1  0
  6  7  1  0
  7  8  1  0
  8  9  1  0
  9 10  2  0
 10 11  1  0
 11 12  2  0
 12 13  1  0
 13 14  2  0
 14 15  1  0
 15 16  2  0
 16 17  1  0
 16 18  1  0
 18 19  2  0
 19 20  1  0
 20 21  1  0
 21 22  1  0
 22 23  1  0
 23 24  1  0
 24 25  1  0
 24 26  1  0
 26 27  1  0
 27 28  1  0
 28 29  1  0
 28 30  1  0
 28 31  1  0
 31 32  1  0
 20 33  2  0
 33 34  1  0
 34 35  2  0
 35  9  1  0
 15 10  1  0
 35 18  1  0
 32 24  1  0
  1 36  1  0
  1 37  1  0
  1 38  1  0
  2 39  1  0
  3 40  1  0
  3 41  1  0
  3 42  1  0
  4 43  1  0
  5 44  1  0
  5 45  1  0
  6 46  1  0
  6 47  1  0
  7 48  1  0
  7 49  1  0
  8 50  1  0
 11 51  1  0
 12 52  1  0
 13 53  1  0
 14 54  1  0
 17 55  1  0
 17 56  1  0
 17 57  1  0
 19 58  1  0
 22 59  1  0
 22 60  1  0
 23 61  1  0
 23 62  1  0
 25 63  1  0
 25 64  1  0
 25 65  1  0
 26 66  1  0
 26 67  1  0
 27 68  1  0
 27 69  1  0
 29 70  1  0
 29 71  1  0
 29 72  1  0
 30 73  1  0
 30 74  1  0
 30 75  1  0
 31 76  1  0
 31 77  1  0
 32 78  1  0
 32 79  1  0
 33 80  1  0
 34 81  1  0
M  CHG  3  16   1  24   1  28   1
M  END
>  <UniqueID>  (9) 
9

>  <SMILES>  (9) 
CC(C)NCCCNc1c2ccccc2[n+](C)c2cc(OCC[N+]3(C)CC[N+](C)(C)CC3)ccc12

>  <Energy>  (9) 
129.19781197898706

>  <Genealogy>  (9) 
CC(C)NCCCNc1c2ccccc2[n+](C)c2cc(OCC[N+]3(C)CC[N+](C)(C)CC3)ccc12 (3D coordinates assigned)
CC(C)NCCCNc1c2ccccc2[n+](C)c2cc(OCC[N+]3(C)CC[N+](C)(C)CC3)ccc12 (nonaromatic ring conformer: 129.19781197898706 kcal/mol)

>  <smiles>  (9) 
CC(C)NCCCNc1c2ccccc2[n+](C)c2cc(OCC[N+]3(C)CC[N+](C)(C)CC3)ccc12

>  <score_type>  (9) 
oracle

>  <origin>  (9) 
adg

>  <m_score__min__energy>  (9) 
-4.5499999999999998

>  <m_primary>  (9) 
energy

$$$$
9:0
     RDKit          3D

 76 79  0  0  0  0  0  0  0  0999 V2000
   58.5610   34.5870   52.6110 C   0  0  0  0  0  0  0  0  0  0  0  0
   57.7850   33.2720   52.4340 C   0  0  0  0  0  0  0  0  0  0  0  0
   58.2440   32.2430   53.4720 C   0  0  0  0  0  0  0  0  0  0  0  0
   57.9790   32.7120   51.0860 N   0  0  0  0  0  0  0  0  0  0  0  0
   58.7020   31.4280   51.1040 C   0  0  0  0  0  0  0  0  0  0  0  0
   59.0870   31.0300   49.6790 C   0  0  0  0  0  0  0  0  0  0  0  0
   58.2320   31.7040   48.7060 N   0  0  0  0  0  0  0  0  0  0  0  0
   58.5870   31.7100   47.3190 C   0  0  0  0  0  0  0  0  0  0  0  0
   58.5020   30.5120   46.5900 C   0  0  0  0  0  0  0  0  0  0  0  0
   58.3640   29.2680   47.2480 C   0  0  0  0  0  0  0  0  0  0  0  0
   58.3210   28.0810   46.5240 C   0  0  0  0  0  0  0  0  0  0  0  0
   58.4000   28.1130   45.1340 C   0  0  0  0  0  0  0  0  0  0  0  0
   58.5060   29.3310   44.4600 C   0  0  0  0  0  0  0  0  0  0  0  0
   58.5250   30.5570   45.1730 C   0  0  0  0  0  0  0  0  0  0  0  0
   58.5260   31.7760   44.5230 N   0  0  0  0  0  0  0  0  0  0  0  0
   58.1880   31.8240   43.0790 C   0  0  0  0  0  0  0  0  0  0  0  0
   58.8060   32.9370   45.2250 C   0  0  0  0  0  0  0  0  0  0  0  0
   59.0270   34.1650   44.5540 C   0  0  0  0  0  0  0  0  0  0  0  0
   59.2460   35.3360   45.2560 C   0  0  0  0  0  0  0  0  0  0  0  0
   59.3550   35.3160   46.6380 C   0  0  0  0  0  0  0  0  0  0  0  0
   59.2510   34.1120   47.3560 C   0  0  0  0  0  0  0  0  0  0  0  0
   59.6840   34.0700   48.7350 N   0  0  0  0  0  0  0  0  0  0  0  0
   60.9840   34.5830   49.1920 C   0  0  0  0  0  0  0  0  0  0  0  0
   61.5060   33.8350   50.4340 C   0  0  0  0  0  0  0  0  0  0  0  0
   63.0550   33.7690   50.5560 C   0  0  0  0  0  0  0  0  0  0  0  0
   63.7720   32.9330   49.5370 N   0  0  0  0  0  0  0  0  0  0  0  0
   65.2140   32.8540   49.8930 C   0  0  0  0  0  0  0  0  0  0  0  0
   63.2000   31.5370   49.5890 C   0  0  0  0  0  0  0  0  0  0  0  0
   62.0650   31.3040   48.5740 C   0  0  0  0  0  0  0  0  0  0  0  0
   62.5730   31.4700   47.1310 C   0  0  0  0  0  0  0  0  0  0  0  0
   63.7240   32.4850   47.0360 C   0  0  0  0  0  0  0  0  0  0  0  0
   63.6300   33.5290   48.1630 C   0  0  0  0  0  0  0  0  0  0  0  0
   58.8870   32.9200   46.6510 C   0  0  0  0  0  0  0  0  0  0  0  0
   58.6854   34.7978   53.6834 H   0  0  0  0  0  0  0  0  0  0  0  0
   59.5500   34.4957   52.1381 H   0  0  0  0  0  0  0  0  0  0  0  0
   58.0030   35.4086   52.1381 H   0  0  0  0  0  0  0  0  0  0  0  0
   56.7172   33.4961   52.5740 H   0  0  0  0  0  0  0  0  0  0  0  0
   58.0676   32.6385   54.4832 H   0  0  0  0  0  0  0  0  0  0  0  0
   57.6767   31.3100   53.3391 H   0  0  0  0  0  0  0  0  0  0  0  0
   59.3172   32.0417   53.3391 H   0  0  0  0  0  0  0  0  0  0  0  0
   57.0510   32.5840   50.6150 H   0  0  0  0  0  0  0  0  0  0  0  0
   59.6122   31.5300   51.7131 H   0  0  0  0  0  0  0  0  0  0  0  0
   58.0526   30.6517   51.5348 H   0  0  0  0  0  0  0  0  0  0  0  0
   60.1344   31.3120   49.4958 H   0  0  0  0  0  0  0  0  0  0  0  0
   58.9595   29.9430   49.5688 H   0  0  0  0  0  0  0  0  0  0  0  0
   57.4710   32.3430   49.0320 H   0  0  0  0  0  0  0  0  0  0  0  0
   58.2898   29.2386   48.3451 H   0  0  0  0  0  0  0  0  0  0  0  0
   58.2248   27.1189   47.0484 H   0  0  0  0  0  0  0  0  0  0  0  0
   58.3788   27.1727   44.5636 H   0  0  0  0  0  0  0  0  0  0  0  0
   58.5757   29.3400   43.3622 H   0  0  0  0  0  0  0  0  0  0  0  0
   57.1052   31.9778   42.9608 H   0  0  0  0  0  0  0  0  0  0  0  0
   58.7304   32.6541   42.6029 H   0  0  0  0  0  0  0  0  0  0  0  0
   58.4778   30.8757   42.6029 H   0  0  0  0  0  0  0  0  0  0  0  0
   59.0243   34.1873   43.4542 H   0  0  0  0  0  0  0  0  0  0  0  0
   59.3343   36.2894   44.7146 H   0  0  0  0  0  0  0  0  0  0  0  0
   59.5256   36.2572   47.1812 H   0  0  0  0  0  0  0  0  0  0  0  0
   59.1330   33.4820   49.4010 H   0  0  0  0  0  0  0  0  0  0  0  0
   61.7149   34.4692   48.3778 H   0  0  0  0  0  0  0  0  0  0  0  0
   60.8499   35.6393   49.4680 H   0  0  0  0  0  0  0  0  0  0  0  0
   61.1142   34.3422   51.3280 H   0  0  0  0  0  0  0  0  0  0  0  0
   61.1598   32.7955   50.3360 H   0  0  0  0  0  0  0  0  0  0  0  0
   63.4405   34.7962   50.4766 H   0  0  0  0  0  0  0  0  0  0  0  0
   63.2503   33.2810   51.5223 H   0  0  0  0  0  0  0  0  0  0  0  0
   65.3216   32.8481   50.9877 H   0  0  0  0  0  0  0  0  0  0  0  0
   65.6443   31.9309   49.4773 H   0  0  0  0  0  0  0  0  0  0  0  0
   65.7425   33.7245   49.4773 H   0  0  0  0  0  0  0  0  0  0  0  0
   64.0081   30.8208   49.3792 H   0  0  0  0  0  0  0  0  0  0  0  0
   62.7722   31.3980   50.5928 H   0  0  0  0  0  0  0  0  0  0  0  0
   61.6717   30.2847   48.7019 H   0  0  0  0  0  0  0  0  0  0  0  0
   61.2748   32.0475   48.7551 H   0  0  0  0  0  0  0  0  0  0  0  0
   62.9287   30.4952   46.7659 H   0  0  0  0  0  0  0  0  0  0  0  0
   61.7392   31.8453   46.5195 H   0  0  0  0  0  0  0  0  0  0  0  0
   64.6824   31.9515   47.1183 H   0  0  0  0  0  0  0  0  0  0  0  0
   63.6554   33.0047   46.0689 H   0  0  0  0  0  0  0  0  0  0  0  0
   64.4293   34.2710   48.0196 H   0  0  0  0  0  0  0  0  0  0  0  0
   62.6295   33.9826   48.1055 H   0  0  0  0  0  0  0  0  0  0  0  0
  1  2  1  0
  2  3  1  0
  2  4  1  0
  4  5  1  0
  5  6  1  0
  6  7  1  0
  7  8  1  0
  8  9  2  0
  9 10  1  0
 10 11  2  0
 11 12  1  0
 12 13  2  0
 13 14  1  0
 14 15  2  0
 15 16  1  0
 15 17  1  0
 17 18  2  0
 18 19  1  0
 19 20  2  0
 20 21  1  0
 21 22  1  0
 22 23  1  0
 23 24  1  0
 24 25  1  0
 25 26  1  0
 26 27  1  0
 26 28  1  0
 28 29  1  0
 29 30  1  0
 30 31  1  0
 31 32  1  0
 21 33  2  0
 33  8  1  0
 14  9  1  0
 33 17  1  0
 32 26  1  0
  1 34  1  0
  1 35  1  0
  1 36  1  0
  2 37  1  0
  3 38  1  0
  3 39  1  0
  3 40  1  0
  4 41  1  0
  5 42  1  0
  5 43  1  0
  6 44  1  0
  6 45  1  0
  7 46  1  0
 10 47  1  0
 11 48  1  0
 12 49  1  0
 13 50  1  0
 16 51  1  0
 16 52  1  0
 16 53  1  0
 18 54  1  0
 19 55  1  0
 20 56  1  0
 22 57  1  0
 23 58  1  0
 23 59  1  0
 24 60  1  0
 24 61  1  0
 25 62  1  0
 25 63  1  0
 27 64  1  0
 27 65  1  0
 27 66  1  0
 28 67  1  0
 28 68  1  0
 29 69  1  0
 29 70  1  0
 30 71  1  0
 30 72  1  0
 31 73  1  0
 31 74  1  0
 32 75  1  0
 32 76  1  0
M  CHG  2  15   1  26   1
M  END
>  <UniqueID>  (10) 
10

>  <SMILES>  (10) 
CC(C)NCCNc1c2ccccc2[n+](C)c2cccc(NCCC[N+]3(C)CCCCC3)c12

>  <Energy>  (10) 
124.11190713013578

>  <Genealogy>  (10) 
CC(C)NCCNc1c2ccccc2[n+](C)c2cccc(NCCC[N+]3(C)CCCCC3)c12 (3D coordinates assigned)
CC(C)NCCNc1c2ccccc2[n+](C)c2cccc(NCCC[N+]3(C)CCCCC3)c12 (nonaromatic ring conformer: 124.11190713013578 kcal/mol)

>  <smiles>  (10) 
CC(C)NCCNc1c2ccccc2[n+](C)c2cccc(NCCC[N+]3(C)CCCCC3)c12

>  <score_type>  (10) 
oracle

>  <origin>  (10) 
adg

>  <m_score__min__energy>  (10) 
-5.5

>  <m_primary>  (10) 
energy

$$$$
10:0
     RDKit          3D

 53 55  0  0  0  0  0  0  0  0999 V2000
   63.3080   33.8430   46.3850 C   0  0  0  0  0  0  0  0  0  0  0  0
   63.7720   32.5560   47.0700 C   0  0  0  0  0  0  0  0  0  0  0  0
   62.6990   31.9220   47.8550 N   0  0  0  0  0  0  0  0  0  0  0  0
   62.6200   32.4600   49.1980 C   0  0  0  0  0  0  0  0  0  0  0  0
   63.7020   32.2900   50.0840 C   0  0  0  0  0  0  0  0  0  0  0  0
   63.6400   32.7960   51.3790 C   0  0  0  0  0  0  0  0  0  0  0  0
   62.4910   33.4630   51.8000 C   0  0  0  0  0  0  0  0  0  0  0  0
   61.4450   33.6290   50.9440 N   0  0  0  0  0  0  0  0  0  0  0  0
   61.4720   33.1450   49.6730 C   0  0  0  0  0  0  0  0  0  0  0  0
   60.3670   33.4210   48.8010 N   0  0  0  0  0  0  0  0  0  0  0  0
   60.4180   34.6200   47.9540 C   0  0  0  0  0  0  0  0  0  0  0  0
   59.2750   34.6010   46.9360 C   0  0  0  0  0  0  0  0  0  0  0  0
   59.0070   33.2040   46.5560 N   0  0  0  0  0  0  0  0  0  0  0  0
   58.0120   33.1160   45.1150 S   0  0  0  0  0  0  0  0  0  0  0  0
   58.7530   33.6730   43.9300 O   0  0  0  0  0  0  0  0  0  0  0  0
   56.7420   33.9020   45.3070 O   0  0  0  0  0  0  0  0  0  0  0  0
   57.5710   31.4090   44.7980 C   0  0  0  0  0  0  0  0  0  0  0  0
   57.1740   31.1910   43.3290 C   0  0  0  0  0  0  0  0  0  0  0  0
   56.6340   29.7650   43.1020 C   0  0  0  0  0  0  0  0  0  0  0  0
   57.2370   28.7240   44.0660 C   0  0  0  0  0  0  0  0  0  0  0  0
   58.6670   29.0940   44.4790 C   0  0  0  0  0  0  0  0  0  0  0  0
   58.7270   30.4600   45.1960 C   0  0  0  0  0  0  0  0  0  0  0  0
   58.3620   32.4850   47.6740 C   0  0  0  0  0  0  0  0  0  0  0  0
   59.0980   32.7160   49.0120 C   0  0  0  0  0  0  0  0  0  0  0  0
   63.0393   34.5882   47.1482 H   0  0  0  0  0  0  0  0  0  0  0  0
   64.1204   34.2376   45.7572 H   0  0  0  0  0  0  0  0  0  0  0  0
   62.4306   33.6284   45.7572 H   0  0  0  0  0  0  0  0  0  0  0  0
   64.1122   31.8482   46.2997 H   0  0  0  0  0  0  0  0  0  0  0  0
   64.5855   32.8180   47.7625 H   0  0  0  0  0  0  0  0  0  0  0  0
   61.7860   32.1040   47.3780 H   0  0  0  0  0  0  0  0  0  0  0  0
   62.8420   30.8850   47.8560 H   0  0  0  0  0  0  0  0  0  0  0  0
   64.6023   31.7535   49.7499 H   0  0  0  0  0  0  0  0  0  0  0  0
   64.4909   32.6705   52.0647 H   0  0  0  0  0  0  0  0  0  0  0  0
   62.4289   33.8560   52.8255 H   0  0  0  0  0  0  0  0  0  0  0  0
   60.3256   35.5152   48.5865 H   0  0  0  0  0  0  0  0  0  0  0  0
   61.3767   34.6365   47.4149 H   0  0  0  0  0  0  0  0  0  0  0  0
   58.3726   35.0428   47.3838 H   0  0  0  0  0  0  0  0  0  0  0  0
   59.5543   35.1852   46.0468 H   0  0  0  0  0  0  0  0  0  0  0  0
   56.6948   31.1730   45.4198 H   0  0  0  0  0  0  0  0  0  0  0  0
   56.3941   31.9174   43.0567 H   0  0  0  0  0  0  0  0  0  0  0  0
   58.0681   31.3281   42.7030 H   0  0  0  0  0  0  0  0  0  0  0  0
   55.5429   29.7786   43.2409 H   0  0  0  0  0  0  0  0  0  0  0  0
   56.9183   29.4675   42.0819 H   0  0  0  0  0  0  0  0  0  0  0  0
   56.6091   28.6672   44.9674 H   0  0  0  0  0  0  0  0  0  0  0  0
   57.2702   27.7548   43.5467 H   0  0  0  0  0  0  0  0  0  0  0  0
   59.0522   28.3192   45.1582 H   0  0  0  0  0  0  0  0  0  0  0  0
   59.2772   29.1623   43.5663 H   0  0  0  0  0  0  0  0  0  0  0  0
   58.6797   30.2875   46.2814 H   0  0  0  0  0  0  0  0  0  0  0  0
   59.6669   30.9459   44.8953 H   0  0  0  0  0  0  0  0  0  0  0  0
   57.3254   32.8394   47.7731 H   0  0  0  0  0  0  0  0  0  0  0  0
   58.3949   31.4086   47.4496 H   0  0  0  0  0  0  0  0  0  0  0  0
   58.4585   33.3176   49.6747 H   0  0  0  0  0  0  0  0  0  0  0  0
   59.3129   31.7375   49.4664 H   0  0  0  0  0  0  0  0  0  0  0  0
  1  2  1  0
  2  3  1  0
  3  4  1  0
  4  5  2  0
  5  6  1  0
  6  7  2  0
  7  8  1  0
  8  9  2  0
  9 10  1  0
 10 11  1  0
 11 12  1  0
 12 13  1  0
 13 14  1  0
 14 15  2  0
 14 16  2  0
 14 17  1  0
 17 18  1  0
 18 19  1  0
 19 20  1  0
 20 21  1  0
 21 22  1  0
 13 23  1  0
 23 24  1  0
  9  4  1  0
 24 10  1  0
 22 17  1  0
  1 25  1  0
  1 26  1  0
  1 27  1  0
  2 28  1  0
  2 29  1  0
  3 30  1  0
  3 31  1  0
  5 32  1  0
  6 33  1  0
  7 34  1  0
 11 35  1  0
 11 36  1  0
 12 37  1  0
 12 38  1  0
 17 39  1  0
 18 40  1  0
 18 41  1  0
 19 42  1  0
 19 43  1  0
 20 44  1  0
 20 45  1  0
 21 46  1  0
 21 47  1  0
 22 48  1  0
 22 49  1  0
 23 50  1  0
 23 51  1  0
 24 52  1  0
 24 53  1  0
M  CHG  1   3   1
M  END
>  <UniqueID>  (11) 
11

>  <SMILES>  (11) 
CC[NH2+]c1cccnc1N1CCN(S(=O)(=O)C2CCCCC2)CC1

>  <Energy>  (11) 
58.79696595952427

>  <Genealogy>  (11) 
CC[NH2+]c1cccnc1N1CCN(S(=O)(=O)C2CCCCC2)CC1 (protonated)
CC[NH2+]c1cccnc1N1CCN(S(=O)(=O)C2CCCCC2)CC1 (3D coordinates assigned)
CC[NH2+]c1cccnc1N1CCN(S(=O)(=O)C2CCCCC2)CC1 (nonaromatic ring conformer: 58.79696595952427 kcal/mol)

>  <smiles>  (11) 
CCNc1cccnc1N1CCN(S(=O)(=O)C2CCCCC2)CC1

>  <score_type>  (11) 
oracle

>  <origin>  (11) 
adg

>  <m_score__min__energy>  (11) 
-6.4299999999999997

>  <m_primary>  (11) 
energy

$$$$
11:0
     RDKit          3D

 46 48  0  0  0  0  0  0  0  0999 V2000
   56.8290   30.5050   43.2710 C   0  0  0  0  0  0  0  0  0  0  0  0
   58.0250   30.8480   44.1720 C   0  0  0  0  0  0  0  0  0  0  0  0
   57.6930   30.7970   45.6190 N   0  0  1  0  0  0  0  0  0  0  0  0
   58.1190   29.5200   46.2400 C   0  0  0  0  0  0  0  0  0  0  0  0
   58.0850   31.9680   46.4810 C   0  0  2  0  0  0  0  0  0  0  0  0
   57.9630   33.4190   45.9640 C   0  0  2  0  0  0  0  0  0  0  0  0
   58.6180   33.8390   44.6390 C   0  0  0  0  0  0  0  0  0  0  0  0
   59.2380   35.1970   44.9080 C   0  0  0  0  0  0  0  0  0  0  0  0
   59.7060   35.1200   46.3450 C   0  0  0  0  0  0  0  0  0  0  0  0
   58.6920   34.2150   47.0510 C   0  0  2  0  0  0  0  0  0  0  0  0
   59.3440   33.1740   47.9870 C   0  0  0  0  0  0  0  0  0  0  0  0
   59.3100   31.8590   47.3130 N   0  0  0  0  0  0  0  0  0  0  0  0
   60.5940   31.5890   46.6140 C   0  0  0  0  0  0  0  0  0  0  0  0
   61.7630   32.1070   47.4090 C   0  0  0  0  0  0  0  0  0  0  0  0
   62.5470   33.1670   46.9170 C   0  0  0  0  0  0  0  0  0  0  0  0
   63.6500   33.6250   47.6440 C   0  0  0  0  0  0  0  0  0  0  0  0
   63.9940   33.0160   48.8530 C   0  0  0  0  0  0  0  0  0  0  0  0
   65.0640   33.4610   49.5560 F   0  0  0  0  0  0  0  0  0  0  0  0
   63.2420   31.9410   49.3320 C   0  0  0  0  0  0  0  0  0  0  0  0
   62.1380   31.4780   48.6090 C   0  0  0  0  0  0  0  0  0  0  0  0
   55.9588   30.2554   43.8959 H   0  0  0  0  0  0  0  0  0  0  0  0
   56.5883   31.3703   42.6360 H   0  0  0  0  0  0  0  0  0  0  0  0
   57.0835   29.6436   42.6360 H   0  0  0  0  0  0  0  0  0  0  0  0
   58.8327   30.1286   43.9718 H   0  0  0  0  0  0  0  0  0  0  0  0
   58.3280   31.8795   43.9394 H   0  0  0  0  0  0  0  0  0  0  0  0
   56.6440   30.7870   45.6510 H   0  0  0  0  0  0  0  0  0  0  0  0
   58.0869   29.6163   47.3353 H   0  0  0  0  0  0  0  0  0  0  0  0
   57.4411   28.7139   45.9227 H   0  0  0  0  0  0  0  0  0  0  0  0
   59.1451   29.2823   45.9227 H   0  0  0  0  0  0  0  0  0  0  0  0
   57.1992   31.8074   47.1131 H   0  0  0  0  0  0  0  0  0  0  0  0
   56.8928   33.5783   45.7656 H   0  0  0  0  0  0  0  0  0  0  0  0
   59.3916   33.1142   44.3455 H   0  0  0  0  0  0  0  0  0  0  0  0
   57.8884   33.8784   43.8167 H   0  0  0  0  0  0  0  0  0  0  0  0
   60.0864   35.3783   44.2317 H   0  0  0  0  0  0  0  0  0  0  0  0
   58.5291   36.0215   44.7419 H   0  0  0  0  0  0  0  0  0  0  0  0
   60.7147   34.6845   46.3991 H   0  0  0  0  0  0  0  0  0  0  0  0
   59.7638   36.1143   46.8119 H   0  0  0  0  0  0  0  0  0  0  0  0
   58.0396   34.8615   47.6563 H   0  0  0  0  0  0  0  0  0  0  0  0
   60.3861   33.4598   48.1928 H   0  0  0  0  0  0  0  0  0  0  0  0
   58.7970   33.1259   48.9401 H   0  0  0  0  0  0  0  0  0  0  0  0
   60.7064   30.5036   46.4755 H   0  0  0  0  0  0  0  0  0  0  0  0
   60.5774   32.1030   45.6416 H   0  0  0  0  0  0  0  0  0  0  0  0
   62.2909   33.6373   45.9562 H   0  0  0  0  0  0  0  0  0  0  0  0
   64.2478   34.4662   47.2632 H   0  0  0  0  0  0  0  0  0  0  0  0
   63.5188   31.4572   50.2804 H   0  0  0  0  0  0  0  0  0  0  0  0
   61.5609   30.6184   48.9807 H   0  0  0  0  0  0  0  0  0  0  0  0
  1  2  1  0
  2  3  1  0
  3  4  1  0
  3  5  1  0
  5  6  1  0
  6  7  1  0
  7  8  1  0
  8  9  1  0
  9 10  1  0
 10 11  1  0
 11 12  1  0
 12 13  1  0
 13 14  1  0
 14 15  2  0
 15 16  1  0
 16 17  2  0
 17 18  1  0
 17 19  1  0
 19 20  2  0
 12  5  1  0
 20 14  1  0
 10  6  1  0
  1 21  1  0
  1 22  1  0
  1 23  1  0
  2 24  1  0
  2 25  1  0
  3 26  1  6
  4 27  1  0
  4 28  1  0
  4 29  1  0
  5 30  1  1
  6 31  1  6
  7 32  1  0
  7 33  1  0
  8 34  1  0
  8 35  1  0
  9 36  1  0
  9 37  1  0
 10 38  1  1
 11 39  1  0
 11 40  1  0
 13 41  1  0
 13 42  1  0
 15 43  1  0
 16 44  1  0
 19 45  1  0
 20 46  1  0
M  CHG  1   3   1
M  END
>  <UniqueID>  (12) 
12

>  <SMILES>  (12) 
CC[N@@H+](C)[C@@H]1C2CCCC2CN1Cc1ccc(F)cc1

>  <Energy>  (12) 
86.66550472197993

>  <Genealogy>  (12) 
CC[NH+](C)C1C2CCCC2CN1Cc1ccc(F)cc1 (protonated)
CC[N@@H+](C)[C@@H]1C2CCCC2CN1Cc1ccc(F)cc1 (chirality)
CC[N@@H+](C)[C@@H]1C2CCCC2CN1Cc1ccc(F)cc1 (3D coordinates assigned)
CC[N@@H+](C)[C@@H]1C2CCCC2CN1Cc1ccc(F)cc1 (nonaromatic ring conformer: 86.66550472197993 kcal/mol)

>  <smiles>  (12) 
CCN(C)C1C2CCCC2CN1Cc1ccc(F)cc1

>  <score_type>  (12) 
oracle

>  <origin>  (12) 
adg

>  <m_score__min__energy>  (12) 
-5.54

>  <m_primary>  (12) 
energy

$$$$
12:0
     RDKit          3D

 82 85  0  0  0  0  0  0  0  0999 V2000
   57.3060   31.3180   42.9330 C   0  0  0  0  0  0  0  0  0  0  0  0
   56.3970   30.1110   42.6500 C   0  0  0  0  0  0  0  0  0  0  0  0
   57.0290   28.8320   43.0270 N   0  0  0  0  0  0  0  0  0  0  0  0
   57.0330   28.6210   44.4860 C   0  0  0  0  0  0  0  0  0  0  0  0
   57.9750   27.4660   44.8620 C   0  0  0  0  0  0  0  0  0  0  0  0
   59.4060   27.9300   45.2010 C   0  0  0  0  0  0  0  0  0  0  0  0
   59.5520   29.4590   45.3010 C   0  0  0  0  0  0  0  0  0  0  0  0
   59.0000   29.9770   46.5620 N   0  0  0  0  0  0  0  0  0  0  0  0
   59.6530   31.0550   47.2510 C   0  0  0  0  0  0  0  0  0  0  0  0
   59.5040   32.3770   46.8010 C   0  0  0  0  0  0  0  0  0  0  0  0
   58.6190   32.6830   45.7500 C   0  0  0  0  0  0  0  0  0  0  0  0
   58.4990   33.9890   45.2770 C   0  0  0  0  0  0  0  0  0  0  0  0
   59.2440   35.0030   45.8570 C   0  0  0  0  0  0  0  0  0  0  0  0
   60.1000   34.7320   46.9220 C   0  0  0  0  0  0  0  0  0  0  0  0
   60.2590   33.4150   47.4140 C   0  0  0  0  0  0  0  0  0  0  0  0
   61.1080   33.1340   48.4680 N   0  0  0  0  0  0  0  0  0  0  0  0
   62.0460   34.1840   48.9430 C   0  0  0  0  0  0  0  0  0  0  0  0
   61.1090   31.8680   49.0350 C   0  0  0  0  0  0  0  0  0  0  0  0
   61.7790   31.5910   50.2510 C   0  0  0  0  0  0  0  0  0  0  0  0
   61.9010   30.2750   50.7340 C   0  0  0  0  0  0  0  0  0  0  0  0
   62.6220   29.9960   51.8990 O   0  0  0  0  0  0  0  0  0  0  0  0
   63.6170   28.9740   51.9620 C   0  0  0  0  0  0  0  0  0  0  0  0
   65.0470   29.5600   52.0180 C   0  0  0  0  0  0  0  0  0  0  0  0
   66.0230   28.8680   52.9370 N   0  0  0  0  0  0  0  0  0  0  0  0
   65.7710   29.3050   54.3390 C   0  0  0  0  0  0  0  0  0  0  0  0
   65.8020   27.3900   52.8700 C   0  0  0  0  0  0  0  0  0  0  0  0
   66.2790   26.7410   51.5440 C   0  0  0  0  0  0  0  0  0  0  0  0
   67.6680   27.1160   51.1500 N   0  0  0  0  0  0  0  0  0  0  0  0
   67.8850   26.7160   49.7390 C   0  0  0  0  0  0  0  0  0  0  0  0
   68.6610   26.3910   51.9910 C   0  0  0  0  0  0  0  0  0  0  0  0
   67.8700   28.5880   51.2480 C   0  0  0  0  0  0  0  0  0  0  0  0
   67.4500   29.1480   52.6150 C   0  0  0  0  0  0  0  0  0  0  0  0
   61.2810   29.2290   50.0560 C   0  0  0  0  0  0  0  0  0  0  0  0
   60.5540   29.4830   48.8980 C   0  0  0  0  0  0  0  0  0  0  0  0
   60.4280   30.7980   48.3930 C   0  0  0  0  0  0  0  0  0  0  0  0
   57.4080   31.4534   44.0199 H   0  0  0  0  0  0  0  0  0  0  0  0
   58.2977   31.1418   42.4908 H   0  0  0  0  0  0  0  0  0  0  0  0
   56.8628   32.2225   42.4908 H   0  0  0  0  0  0  0  0  0  0  0  0
   55.4656   30.2277   43.2235 H   0  0  0  0  0  0  0  0  0  0  0  0
   56.2023   30.0834   41.5677 H   0  0  0  0  0  0  0  0  0  0  0  0
   58.0210   28.8540   42.6820 H   0  0  0  0  0  0  0  0  0  0  0  0
   56.5360   28.0350   42.5550 H   0  0  0  0  0  0  0  0  0  0  0  0
   57.3726   29.5413   44.9836 H   0  0  0  0  0  0  0  0  0  0  0  0
   56.0131   28.3675   44.8109 H   0  0  0  0  0  0  0  0  0  0  0  0
   57.5592   26.9480   45.7388 H   0  0  0  0  0  0  0  0  0  0  0  0
   58.0463   26.8058   43.9850 H   0  0  0  0  0  0  0  0  0  0  0  0
   59.6945   27.4895   46.1668 H   0  0  0  0  0  0  0  0  0  0  0  0
   60.0557   27.5976   44.3780 H   0  0  0  0  0  0  0  0  0  0  0  0
   60.6192   29.7196   45.2454 H   0  0  0  0  0  0  0  0  0  0  0  0
   58.9917   29.9120   44.4698 H   0  0  0  0  0  0  0  0  0  0  0  0
   58.2980   29.4150   47.0890 H   0  0  0  0  0  0  0  0  0  0  0  0
   58.0154   31.8828   45.2969 H   0  0  0  0  0  0  0  0  0  0  0  0
   57.8147   34.2138   44.4456 H   0  0  0  0  0  0  0  0  0  0  0  0
   59.1588   36.0304   45.4734 H   0  0  0  0  0  0  0  0  0  0  0  0
   60.6614   35.5552   47.3880 H   0  0  0  0  0  0  0  0  0  0  0  0
   62.0566   34.1959   50.0429 H   0  0  0  0  0  0  0  0  0  0  0  0
   63.0577   33.9684   48.5689 H   0  0  0  0  0  0  0  0  0  0  0  0
   61.7181   35.1651   48.5689 H   0  0  0  0  0  0  0  0  0  0  0  0
   62.2125   32.4203   50.8292 H   0  0  0  0  0  0  0  0  0  0  0  0
   63.4463   28.3673   52.8636 H   0  0  0  0  0  0  0  0  0  0  0  0
   63.5354   28.3639   51.0504 H   0  0  0  0  0  0  0  0  0  0  0  0
   65.4630   29.5237   51.0004 H   0  0  0  0  0  0  0  0  0  0  0  0
   64.9300   30.5739   52.4282 H   0  0  0  0  0  0  0  0  0  0  0  0
   66.1965   28.5672   55.0351 H   0  0  0  0  0  0  0  0  0  0  0  0
   66.2433   30.2839   54.5085 H   0  0  0  0  0  0  0  0  0  0  0  0
   64.6872   29.3866   54.5085 H   0  0  0  0  0  0  0  0  0  0  0  0
   66.3483   26.9204   53.7013 H   0  0  0  0  0  0  0  0  0  0  0  0
   64.7159   27.2271   52.9318 H   0  0  0  0  0  0  0  0  0  0  0  0
   66.2352   25.6479   51.6586 H   0  0  0  0  0  0  0  0  0  0  0  0
   65.6125   27.1109   50.7509 H   0  0  0  0  0  0  0  0  0  0  0  0
   68.4093   25.7495   49.7084 H   0  0  0  0  0  0  0  0  0  0  0  0
   66.9139   26.6226   49.2309 H   0  0  0  0  0  0  0  0  0  0  0  0
   68.4928   27.4791   49.2309 H   0  0  0  0  0  0  0  0  0  0  0  0
   68.4325   26.5578   53.0540 H   0  0  0  0  0  0  0  0  0  0  0  0
   68.6123   25.3145   51.7700 H   0  0  0  0  0  0  0  0  0  0  0  0
   69.6715   26.7653   51.7700 H   0  0  0  0  0  0  0  0  0  0  0  0
   68.9355   28.8096   51.0880 H   0  0  0  0  0  0  0  0  0  0  0  0
   67.2393   29.0643   50.4829 H   0  0  0  0  0  0  0  0  0  0  0  0
   68.0820   28.6920   53.3913 H   0  0  0  0  0  0  0  0  0  0  0  0
   67.5743   30.2404   52.5790 H   0  0  0  0  0  0  0  0  0  0  0  0
   61.3663   28.2005   50.4367 H   0  0  0  0  0  0  0  0  0  0  0  0
   60.0703   28.6496   48.3675 H   0  0  0  0  0  0  0  0  0  0  0  0
  1  2  1  0
  2  3  1  0
  3  4  1  0
  4  5  1  0
  5  6  1  0
  6  7  1  0
  7  8  1  0
  8  9  1  0
  9 10  2  0
 10 11  1  0
 11 12  2  0
 12 13  1  0
 13 14  2  0
 14 15  1  0
 15 16  2  0
 16 17  1  0
 16 18  1  0
 18 19  2  0
 19 20  1  0
 20 21  1  0
 21 22  1  0
 22 23  1  0
 23 24  1  0
 24 25  1  0
 24 26  1  0
 26 27  1  0
 27 28  1  0
 28 29  1  0
 28 30  1  0
 28 31  1  0
 31 32  1  0
 20 33  2  0
 33 34  1  0
 34 35  2  0
 35  9  1  0
 15 10  1  0
 35 18  1  0
 32 24  1  0
  1 36  1  0
  1 37  1  0
  1 38  1  0
  2 39  1  0
  2 40  1  0
  3 41  1  0
  3 42  1  0
  4 43  1  0
  4 44  1  0
  5 45  1  0
  5 46  1  0
  6 47  1  0
  6 48  1  0
  7 49  1  0
  7 50  1  0
  8 51  1  0
 11 52  1  0
 12 53  1  0
 13 54  1  0
 14 55  1  0
 17 56  1  0
 17 57  1  0
 17 58  1  0
 19 59  1  0
 22 60  1  0
 22 61  1  0
 23 62  1  0
 23 63  1  0
 25 64  1  0
 25 65  1  0
 25 66  1  0
 26 67  1  0
 26 68  1  0
 27 69  1  0
 27 70  1  0
 29 71  1  0
 29 72  1  0
 29 73  1  0
 30 74  1  0
 30 75  1  0
 30 76  1  0
 31 77  1  0
 31 78  1  0
 32 79  1  0
 32 80  1  0
 33 81  1  0
 34 82  1  0
M  CHG  4   3   1  16   1  24   1  28   1
M  END
>  <UniqueID>  (13) 
13

>  <SMILES>  (13) 
CC[NH2+]CCCCNc1c2ccccc2[n+](C)c2cc(OCC[N+]3(C)CC[N+](C)(C)CC3)ccc12

>  <Energy>  (13) 
129.68404979907518

>  <Genealogy>  (13) 
CC[NH2+]CCCCNc1c2ccccc2[n+](C)c2cc(OCC[N+]3(C)CC[N+](C)(C)CC3)ccc12 (protonated)
CC[NH2+]CCCCNc1c2ccccc2[n+](C)c2cc(OCC[N+]3(C)CC[N+](C)(C)CC3)ccc12 (3D coordinates assigned)
CC[NH2+]CCCCNc1c2ccccc2[n+](C)c2cc(OCC[N+]3(C)CC[N+](C)(C)CC3)ccc12 (nonaromatic ring conformer: 129.68404979907518 kcal/mol)

>  <smiles>  (13) 
CCNCCCCNc1c2ccccc2[n+](C)c2cc(OCC[N+]3(C)CC[N+](C)(C)CC3)ccc12

>  <score_type>  (13) 
oracle

>  <origin>  (13) 
adg

>  <m_score__min__energy>  (13) 
-3.1400000000000001

>  <m_primary>  (13) 
energy

$$$$
13:0
     RDKit          3D

 69 71  0  0  0  0  0  0  0  0999 V2000
   66.5690   31.3230   50.5290 C   0  0  0  0  0  0  0  0  0  0  0  0
   65.7440   32.5620   50.1470 C   0  0  0  0  0  0  0  0  0  0  0  0
   66.2250   33.7830   50.9400 C   0  0  0  0  0  0  0  0  0  0  0  0
   64.2390   32.3290   50.3850 C   0  0  0  0  0  0  0  0  0  0  0  0
   63.5050   33.6190   50.3620 N   0  0  0  0  0  0  0  0  0  0  0  0
   62.6260   33.8420   51.5330 C   0  0  0  0  0  0  0  0  0  0  0  0
   61.4930   32.8160   51.5960 C   0  0  0  0  0  0  0  0  0  0  0  0
   60.0050   33.4690   50.8630 Cl  0  0  0  0  0  0  0  0  0  0  0  0
   62.8470   33.9110   49.0640 C   0  0  0  0  0  0  0  0  0  0  0  0
   63.7570   33.8230   47.8130 C   0  0  0  0  0  0  0  0  0  0  0  0
   63.2870   32.7900   46.7720 C   0  0  0  0  0  0  0  0  0  0  0  0
   61.9240   32.3030   47.0390 N   0  0  0  0  0  0  0  0  0  0  0  0
   61.9060   30.9290   47.5660 C   0  0  0  0  0  0  0  0  0  0  0  0
   61.2250   30.8880   48.9410 C   0  0  0  0  0  0  0  0  0  0  0  0
   59.8830   30.1410   48.9330 C   0  0  0  0  0  0  0  0  0  0  0  0
   58.7920   31.0070   48.4880 N   0  0  0  0  0  0  0  0  0  0  0  0
   58.6500   31.3290   47.0980 C   0  0  0  0  0  0  0  0  0  0  0  0
   58.3270   30.3270   46.1680 C   0  0  0  0  0  0  0  0  0  0  0  0
   58.1960   28.9840   46.5760 C   0  0  0  0  0  0  0  0  0  0  0  0
   57.9190   27.9830   45.6480 C   0  0  0  0  0  0  0  0  0  0  0  0
   57.7810   28.3020   44.3010 C   0  0  0  0  0  0  0  0  0  0  0  0
   57.8940   29.6270   43.8780 C   0  0  0  0  0  0  0  0  0  0  0  0
   58.1340   30.6730   44.8040 C   0  0  0  0  0  0  0  0  0  0  0  0
   58.1960   31.9980   44.4090 N   0  0  0  0  0  0  0  0  0  0  0  0
   57.7150   32.3930   43.0670 C   0  0  0  0  0  0  0  0  0  0  0  0
   58.6840   32.9570   45.2790 C   0  0  0  0  0  0  0  0  0  0  0  0
   59.0140   34.2650   44.8430 C   0  0  0  0  0  0  0  0  0  0  0  0
   59.4640   35.2320   45.7420 C   0  0  0  0  0  0  0  0  0  0  0  0
   59.6180   34.9210   47.0880 C   0  0  0  0  0  0  0  0  0  0  0  0
   59.3450   33.6330   47.5390 C   0  0  0  0  0  0  0  0  0  0  0  0
   58.8870   32.6390   46.6490 C   0  0  0  0  0  0  0  0  0  0  0  0
   66.6230   31.2420   51.6247 H   0  0  0  0  0  0  0  0  0  0  0  0
   66.0897   30.4223   50.1179 H   0  0  0  0  0  0  0  0  0  0  0  0
   67.5849   31.4179   50.1179 H   0  0  0  0  0  0  0  0  0  0  0  0
   65.8909   32.7500   49.0732 H   0  0  0  0  0  0  0  0  0  0  0  0
   66.1434   33.5759   52.0173 H   0  0  0  0  0  0  0  0  0  0  0  0
   67.2740   33.9953   50.6858 H   0  0  0  0  0  0  0  0  0  0  0  0
   65.6027   34.6537   50.6858 H   0  0  0  0  0  0  0  0  0  0  0  0
   63.8444   31.6735   49.5947 H   0  0  0  0  0  0  0  0  0  0  0  0
   64.1024   31.8586   51.3699 H   0  0  0  0  0  0  0  0  0  0  0  0
   63.2282   33.7643   52.4502 H   0  0  0  0  0  0  0  0  0  0  0  0
   62.1772   34.8418   51.4384 H   0  0  0  0  0  0  0  0  0  0  0  0
   61.7961   31.9102   51.0504 H   0  0  0  0  0  0  0  0  0  0  0  0
   61.2911   32.5785   52.6509 H   0  0  0  0  0  0  0  0  0  0  0  0
   62.0236   33.1933   48.9338 H   0  0  0  0  0  0  0  0  0  0  0  0
   62.5205   34.9597   49.1233 H   0  0  0  0  0  0  0  0  0  0  0  0
   63.7822   34.8122   47.3326 H   0  0  0  0  0  0  0  0  0  0  0  0
   64.7484   33.4977   48.1611 H   0  0  0  0  0  0  0  0  0  0  0  0
   63.3060   33.2580   45.7767 H   0  0  0  0  0  0  0  0  0  0  0  0
   63.9673   31.9273   46.8255 H   0  0  0  0  0  0  0  0  0  0  0  0
   61.3740   32.3440   46.1500 H   0  0  0  0  0  0  0  0  0  0  0  0
   61.3535   30.2815   46.8692 H   0  0  0  0  0  0  0  0  0  0  0  0
   62.9423   30.5757   47.6722 H   0  0  0  0  0  0  0  0  0  0  0  0
   61.8998   30.3858   49.6498 H   0  0  0  0  0  0  0  0  0  0  0  0
   61.0169   31.9281   49.2323 H   0  0  0  0  0  0  0  0  0  0  0  0
   59.9568   29.2801   48.2522 H   0  0  0  0  0  0  0  0  0  0  0  0
   59.6653   29.8101   49.9592 H   0  0  0  0  0  0  0  0  0  0  0  0
   58.1920   31.5080   49.1800 H   0  0  0  0  0  0  0  0  0  0  0  0
   58.3138   28.7239   47.6383 H   0  0  0  0  0  0  0  0  0  0  0  0
   57.8093   26.9401   45.9802 H   0  0  0  0  0  0  0  0  0  0  0  0
   57.5822   27.5072   43.5670 H   0  0  0  0  0  0  0  0  0  0  0  0
   57.7952   29.8636   42.8083 H   0  0  0  0  0  0  0  0  0  0  0  0
   56.8687   33.0880   43.1707 H   0  0  0  0  0  0  0  0  0  0  0  0
   58.5293   32.8865   42.5162 H   0  0  0  0  0  0  0  0  0  0  0  0
   57.3893   31.4983   42.5162 H   0  0  0  0  0  0  0  0  0  0  0  0
   58.9135   34.5216   43.7781 H   0  0  0  0  0  0  0  0  0  0  0  0
   59.6981   36.2455   45.3841 H   0  0  0  0  0  0  0  0  0  0  0  0
   59.9553   35.6922   47.7961 H   0  0  0  0  0  0  0  0  0  0  0  0
   59.4880   33.3873   48.6016 H   0  0  0  0  0  0  0  0  0  0  0  0
  1  2  1  0
  2  3  1  0
  2  4  1  0
  4  5  1  0
  5  6  1  0
  6  7  1  0
  7  8  1  0
  5  9  1  0
  9 10  1  0
 10 11  1  0
 11 12  1  0
 12 13  1  0
 13 14  1  0
 14 15  1  0
 15 16  1  0
 16 17  1  0
 17 18  2  0
 18 19  1  0
 19 20  2  0
 20 21  1  0
 21 22  2  0
 22 23  1  0
 23 24  2  0
 24 25  1  0
 24 26  1  0
 26 27  2  0
 27 28  1  0
 28 29  2  0
 29 30  1  0
 30 31  2  0
 31 17  1  0
 23 18  1  0
 31 26  1  0
  1 32  1  0
  1 33  1  0
  1 34  1  0
  2 35  1  0
  3 36  1  0
  3 37  1  0
  3 38  1  0
  4 39  1  0
  4 40  1  0
  6 41  1  0
  6 42  1  0
  7 43  1  0
  7 44  1  0
  9 45  1  0
  9 46  1  0
 10 47  1  0
 10 48  1  0
 11 49  1  0
 11 50  1  0
 12 51  1  0
 13 52  1  0
 13 53  1  0
 14 54  1  0
 14 55  1  0
 15 56  1  0
 15 57  1  0
 16 58  1  0
 19 59  1  0
 20 60  1  0
 21 61  1  0
 22 62  1  0
 25 63  1  0
 25 64  1  0
 25 65  1  0
 27 66  1  0
 28 67  1  0
 29 68  1  0
 30 69  1  0
M  CHG  1  24   1
M  END
>  <UniqueID>  (14) 
14

>  <SMILES>  (14) 
CC(C)CN(CCCl)CCCNCCCNc1c2ccccc2[n+](C)c2ccccc12

>  <Energy>  (14) 
89.49908583495188

>  <Genealogy>  (14) 
CC(C)CN(CCCl)CCCNCCCNc1c2ccccc2[n+](C)c2ccccc12 (3D coordinates assigned)
CC(C)CN(CCCl)CCCNCCCNc1c2ccccc2[n+](C)c2ccccc12 (optimized conformer: 89.49908583495188 kcal/mol)

>  <smiles>  (14) 
CC(C)CN(CCCl)CCCNCCCNc1c2ccccc2[n+](C)c2ccccc12

>  <score_type>  (14) 
oracle

>  <origin>  (14) 
adg

>  <m_score__min__energy>  (14) 
-6.1600000000000001

>  <m_primary>  (14) 
energy

$$$$
14:0
     RDKit          3D

 62 65  0  0  0  0  0  0  0  0999 V2000
   56.1430   31.0540   51.9970 C   0  0  0  0  0  0  0  0  0  0  0  0
   57.3090   30.0830   52.0810 C   0  0  0  0  0  0  0  0  0  0  0  0
   57.9790   30.0590   50.8360 O   0  0  0  0  0  0  0  0  0  0  0  0
   58.4120   31.3550   50.4460 C   0  0  1  0  0  0  0  0  0  0  0  0
   59.6560   31.6010   51.0920 O   0  0  0  0  0  0  0  0  0  0  0  0
   60.1110   32.8810   50.8470 N   0  0  1  0  0  0  0  0  0  0  0  0
   59.2740   33.9340   51.5720 C   0  0  0  0  0  0  0  0  0  0  0  0
   58.4640   33.5590   52.8250 C   0  0  0  0  0  0  0  0  0  0  0  0
   61.5060   32.9620   51.3740 C   0  0  2  0  0  0  0  0  0  0  0  0
   61.6600   33.0190   52.9120 C   0  0  0  0  0  0  0  0  0  0  0  0
   62.1600   34.1400   50.6250 C   0  0  0  0  0  0  0  0  0  0  0  0
   61.3450   34.2660   49.3240 C   0  0  0  0  0  0  0  0  0  0  0  0
   60.4160   33.0500   49.3980 C   0  0  2  0  0  0  0  0  0  0  0  0
   59.1970   32.8080   48.4550 C   0  0  2  0  0  0  0  0  0  0  0  0
   58.5310   31.4570   48.8880 C   0  0  1  0  0  0  0  0  0  0  0  0
   59.2130   30.2010   48.2680 C   0  0  0  0  0  0  0  0  0  0  0  0
   58.4870   29.7300   47.0000 C   0  0  0  0  0  0  0  0  0  0  0  0
   58.7900   30.6130   45.7820 C   0  0  1  0  0  0  0  0  0  0  0  0
   58.0630   30.0640   44.5420 C   0  0  0  0  0  0  0  0  0  0  0  0
   58.5140   32.0960   46.0490 C   0  0  0  0  0  0  0  0  0  0  0  0
   57.5440   32.8070   45.4500 C   0  0  0  0  0  0  0  0  0  0  0  0
   57.6890   34.2720   45.6520 C   0  0  0  0  0  0  0  0  0  0  0  0
   58.9260   34.3370   46.4690 C   0  0  0  0  0  0  0  0  0  0  0  0
   59.4410   35.3910   46.8100 O   0  0  0  0  0  0  0  0  0  0  0  0
   59.4360   32.9790   46.8820 C   0  0  1  0  0  0  0  0  0  0  0  0
   60.8890   32.8160   46.3690 C   0  0  0  0  0  0  0  0  0  0  0  0
   55.8176   31.3250   53.0122 H   0  0  0  0  0  0  0  0  0  0  0  0
   56.4584   31.9601   51.4590 H   0  0  0  0  0  0  0  0  0  0  0  0
   55.3089   30.5798   51.4590 H   0  0  0  0  0  0  0  0  0  0  0  0
   58.0048   30.4095   52.8680 H   0  0  0  0  0  0  0  0  0  0  0  0
   56.9374   29.0762   52.3224 H   0  0  0  0  0  0  0  0  0  0  0  0
   57.6805   32.1190   50.7482 H   0  0  0  0  0  0  0  0  0  0  0  0
   59.9657   34.7351   51.8717 H   0  0  0  0  0  0  0  0  0  0  0  0
   58.4936   34.1796   50.8367 H   0  0  0  0  0  0  0  0  0  0  0  0
   59.0375   33.8245   53.7254 H   0  0  0  0  0  0  0  0  0  0  0  0
   57.5104   34.1072   52.8228 H   0  0  0  0  0  0  0  0  0  0  0  0
   58.2650   32.4771   52.8228 H   0  0  0  0  0  0  0  0  0  0  0  0
   62.0271   32.0136   51.1764 H   0  0  0  0  0  0  0  0  0  0  0  0
   60.7294   32.6746   53.3867 H   0  0  0  0  0  0  0  0  0  0  0  0
   62.4918   32.3692   53.2215 H   0  0  0  0  0  0  0  0  0  0  0  0
   61.8683   34.0538   53.2215 H   0  0  0  0  0  0  0  0  0  0  0  0
   62.0922   35.0641   51.2179 H   0  0  0  0  0  0  0  0  0  0  0  0
   63.2306   33.9737   50.4349 H   0  0  0  0  0  0  0  0  0  0  0  0
   60.7713   35.2043   49.3032 H   0  0  0  0  0  0  0  0  0  0  0  0
   61.9666   34.2894   48.4168 H   0  0  0  0  0  0  0  0  0  0  0  0
   60.9940   32.2504   48.9116 H   0  0  0  0  0  0  0  0  0  0  0  0
   58.4940   33.6420   48.5971 H   0  0  0  0  0  0  0  0  0  0  0  0
   57.5125   31.4691   48.4728 H   0  0  0  0  0  0  0  0  0  0  0  0
   60.2534   30.4500   48.0117 H   0  0  0  0  0  0  0  0  0  0  0  0
   59.1737   29.3883   49.0082 H   0  0  0  0  0  0  0  0  0  0  0  0
   58.8026   28.7004   46.7756 H   0  0  0  0  0  0  0  0  0  0  0  0
   57.4059   29.7907   47.1939 H   0  0  0  0  0  0  0  0  0  0  0  0
   59.8696   30.5674   45.5761 H   0  0  0  0  0  0  0  0  0  0  0  0
   57.2228   29.4295   44.8605 H   0  0  0  0  0  0  0  0  0  0  0  0
   57.6820   30.9017   43.9395 H   0  0  0  0  0  0  0  0  0  0  0  0
   58.7645   29.4683   43.9395 H   0  0  0  0  0  0  0  0  0  0  0  0
   56.7274   32.3519   44.8703 H   0  0  0  0  0  0  0  0  0  0  0  0
   57.8117   34.7994   44.6945 H   0  0  0  0  0  0  0  0  0  0  0  0
   56.8158   34.7486   46.1216 H   0  0  0  0  0  0  0  0  0  0  0  0
   61.5740   32.7392   47.2262 H   0  0  0  0  0  0  0  0  0  0  0  0
   60.9621   31.9040   45.7583 H   0  0  0  0  0  0  0  0  0  0  0  0
   61.1624   33.6891   45.7583 H   0  0  0  0  0  0  0  0  0  0  0  0
  1  2  1  0
  2  3  1  0
  3  4  1  0
  4  5  1  0
  5  6  1  0
  6  7  1  1
  7  8  1  0
  6  9  1  0
  9 10  1  0
  9 11  1  0
 11 12  1  0
 12 13  1  0
 13 14  1  0
 14 15  1  0
 15 16  1  0
 16 17  1  0
 17 18  1  0
 18 19  1  0
 18 20  1  0
 20 21  2  0
 21 22  1  0
 22 23  1  0
 23 24  2  0
 23 25  1  0
 25 26  1  1
 15  4  1  0
 25 20  1  0
 13  6  1  0
 25 14  1  0
  1 27  1  0
  1 28  1  0
  1 29  1  0
  2 30  1  0
  2 31  1  0
  4 32  1  1
  7 33  1  0
  7 34  1  0
  8 35  1  0
  8 36  1  0
  8 37  1  0
  9 38  1  6
 10 39  1  0
 10 40  1  0
 10 41  1  0
 11 42  1  0
 11 43  1  0
 12 44  1  0
 12 45  1  0
 13 46  1  6
 14 47  1  1
 15 48  1  6
 16 49  1  0
 16 50  1  0
 17 51  1  0
 17 52  1  0
 18 53  1  6
 19 54  1  0
 19 55  1  0
 19 56  1  0
 21 57  1  0
 22 58  1  0
 22 59  1  0
 26 60  1  0
 26 61  1  0
 26 62  1  0
M  CHG  1   6   1
M  END
>  <UniqueID>  (15) 
15

>  <SMILES>  (15) 
CCO[C@H]1O[N@@+]2(CC)C(C)CCC2C2C1CCC(C)C1=CCC(=O)C12C

>  <Energy>  (15) 
138.954053707996

>  <Genealogy>  (15) 
CCO[C@H]1O[N@@+]2(CC)C(C)CCC2C2C1CCC(C)C1=CCC(=O)C12C (chirality)
CCO[C@H]1O[N@@+]2(CC)C(C)CCC2C2C1CCC(C)C1=CCC(=O)C12C (3D coordinates assigned)
CCO[C@H]1O[N@@+]2(CC)C(C)CCC2C2C1CCC(C)C1=CCC(=O)C12C (nonaromatic ring conformer: 138.954053707996 kcal/mol)

>  <smiles>  (15) 
CCOC1O[N+]2(CC)C(C)CCC2C2C1CCC(C)C1=CCC(=O)C12C

>  <score_type>  (15) 
oracle

>  <origin>  (15) 
adg

>  <m_score__min__energy>  (15) 
-5.4199999999999999

>  <m_primary>  (15) 
energy

$$$$
15:0
     RDKit          3D

 61 64  0  0  0  0  0  0  0  0999 V2000
   65.7250   32.2940   50.0740 C   0  0  0  0  0  0  0  0  0  0  0  0
   64.5630   33.2510   49.7870 C   0  0  0  0  0  0  0  0  0  0  0  0
   63.4770   32.6950   48.9330 N   0  0  0  0  0  0  0  0  0  0  0  0
   63.7530   32.7400   47.4720 C   0  0  0  0  0  0  0  0  0  0  0  0
   62.8770   33.7510   46.7220 C   0  0  0  0  0  0  0  0  0  0  0  0
   62.1190   33.1920   49.3030 C   0  0  0  0  0  0  0  0  0  0  0  0
   61.2110   32.1900   50.0470 C   0  0  0  0  0  0  0  0  0  0  0  0
   61.5210   30.8870   49.5960 O   0  0  0  0  0  0  0  0  0  0  0  0
   60.6110   29.9330   50.1130 C   0  0  0  0  0  0  0  0  0  0  0  0
   59.6050   29.4320   49.0630 C   0  0  0  0  0  0  0  0  0  0  0  0
   60.0740   29.6650   47.6940 N   0  0  0  0  0  0  0  0  0  0  0  0
   59.2410   29.4390   46.5490 C   0  0  0  0  0  0  0  0  0  0  0  0
   58.8420   30.4580   45.7700 C   0  0  0  0  0  0  0  0  0  0  0  0
   58.1800   30.2710   44.4850 C   0  0  0  0  0  0  0  0  0  0  0  0
   58.0080   31.3980   43.8520 N   0  0  0  0  0  0  0  0  0  0  0  0
   57.4170   31.5680   42.5230 C   0  0  0  0  0  0  0  0  0  0  0  0
   58.4990   32.4340   44.7140 C   0  0  0  0  0  0  0  0  0  0  0  0
   58.4410   33.8180   44.5170 C   0  0  0  0  0  0  0  0  0  0  0  0
   58.8950   34.6580   45.5480 C   0  0  0  0  0  0  0  0  0  0  0  0
   59.3650   34.1130   46.7590 C   0  0  0  0  0  0  0  0  0  0  0  0
   59.4020   32.7220   46.9460 C   0  0  0  0  0  0  0  0  0  0  0  0
   58.9980   31.9050   45.8890 C   0  0  0  0  0  0  0  0  0  0  0  0
   57.8160   28.9180   44.0390 C   0  0  0  0  0  0  0  0  0  0  0  0
   57.2180   28.7200   42.9470 O   0  0  0  0  0  0  0  0  0  0  0  0
   58.1770   27.7880   44.9330 C   0  0  0  0  0  0  0  0  0  0  0  0
   57.8570   26.4670   44.5750 C   0  0  0  0  0  0  0  0  0  0  0  0
   58.2150   25.4050   45.4050 C   0  0  0  0  0  0  0  0  0  0  0  0
   58.8970   25.6450   46.5970 C   0  0  0  0  0  0  0  0  0  0  0  0
   59.2250   26.9510   46.9700 C   0  0  0  0  0  0  0  0  0  0  0  0
   58.8700   28.0400   46.1520 C   0  0  0  0  0  0  0  0  0  0  0  0
   65.8531   32.1885   51.1614 H   0  0  0  0  0  0  0  0  0  0  0  0
   65.5070   31.3100   49.6333 H   0  0  0  0  0  0  0  0  0  0  0  0
   66.6490   32.6966   49.6333 H   0  0  0  0  0  0  0  0  0  0  0  0
   64.1206   33.5468   50.7497 H   0  0  0  0  0  0  0  0  0  0  0  0
   64.9934   34.0917   49.2230 H   0  0  0  0  0  0  0  0  0  0  0  0
   63.4540   31.6750   49.1800 H   0  0  0  0  0  0  0  0  0  0  0  0
   64.8080   33.0140   47.3239 H   0  0  0  0  0  0  0  0  0  0  0  0
   63.5235   31.7440   47.0654 H   0  0  0  0  0  0  0  0  0  0  0  0
   62.3354   34.3760   47.4473 H   0  0  0  0  0  0  0  0  0  0  0  0
   63.5124   34.3892   46.0904 H   0  0  0  0  0  0  0  0  0  0  0  0
   62.1548   33.2129   46.0904 H   0  0  0  0  0  0  0  0  0  0  0  0
   62.2476   34.0732   49.9487 H   0  0  0  0  0  0  0  0  0  0  0  0
   61.6105   33.4021   48.3505 H   0  0  0  0  0  0  0  0  0  0  0  0
   61.3893   32.2604   51.1302 H   0  0  0  0  0  0  0  0  0  0  0  0
   60.1536   32.4176   49.8469 H   0  0  0  0  0  0  0  0  0  0  0  0
   61.1823   29.0719   50.4900 H   0  0  0  0  0  0  0  0  0  0  0  0
   60.0360   30.4253   50.9111 H   0  0  0  0  0  0  0  0  0  0  0  0
   59.4512   28.3523   49.2062 H   0  0  0  0  0  0  0  0  0  0  0  0
   58.6672   29.9906   49.1992 H   0  0  0  0  0  0  0  0  0  0  0  0
   60.9980   30.1340   47.5560 H   0  0  0  0  0  0  0  0  0  0  0  0
   56.3645   31.8708   42.6258 H   0  0  0  0  0  0  0  0  0  0  0  0
   57.9696   32.3436   41.9725 H   0  0  0  0  0  0  0  0  0  0  0  0
   57.4730   30.6173   41.9725 H   0  0  0  0  0  0  0  0  0  0  0  0
   58.0498   34.2380   43.5786 H   0  0  0  0  0  0  0  0  0  0  0  0
   58.8833   35.7490   45.4084 H   0  0  0  0  0  0  0  0  0  0  0  0
   59.7053   34.7817   47.5634 H   0  0  0  0  0  0  0  0  0  0  0  0
   59.7399   32.2883   47.8988 H   0  0  0  0  0  0  0  0  0  0  0  0
   57.3211   26.2697   43.6348 H   0  0  0  0  0  0  0  0  0  0  0  0
   57.9584   24.3745   45.1182 H   0  0  0  0  0  0  0  0  0  0  0  0
   59.1780   24.8028   47.2465 H   0  0  0  0  0  0  0  0  0  0  0  0
   59.7654   27.1297   47.9113 H   0  0  0  0  0  0  0  0  0  0  0  0
  1  2  1  0
  2  3  1  0
  3  4  1  0
  4  5  1  0
  3  6  1  0
  6  7  1  0
  7  8  1  0
  8  9  1  0
  9 10  1  0
 10 11  1  0
 11 12  1  0
 12 13  2  0
 13 14  1  0
 14 15  2  0
 15 16  1  0
 15 17  1  0
 17 18  2  0
 18 19  1  0
 19 20  2  0
 20 21  1  0
 21 22  2  0
 14 23  1  0
 23 24  2  0
 23 25  1  0
 25 26  2  0
 26 27  1  0
 27 28  2  0
 28 29  1  0
 29 30  2  0
 30 12  1  0
 22 13  1  0
 30 25  1  0
 22 17  1  0
  1 31  1  0
  1 32  1  0
  1 33  1  0
  2 34  1  0
  2 35  1  0
  3 36  1  0
  4 37  1  0
  4 38  1  0
  5 39  1  0
  5 40  1  0
  5 41  1  0
  6 42  1  0
  6 43  1  0
  7 44  1  0
  7 45  1  0
  9 46  1  0
  9 47  1  0
 10 48  1  0
 10 49  1  0
 11 50  1  0
 16 51  1  0
 16 52  1  0
 16 53  1  0
 18 54  1  0
 19 55  1  0
 20 56  1  0
 21 57  1  0
 26 58  1  0
 27 59  1  0
 28 60  1  0
 29 61  1  0
M  CHG  2   3   1  15   1
M  END
>  <UniqueID>  (16) 
16

>  <SMILES>  (16) 
CC[NH+](CC)CCOCCNC1=C2C(=[N+](C)c3ccccc32)C(=O)c2ccccc21

>  <Energy>  (16) 
113.10715939494287

>  <Genealogy>  (16) 
CC[NH+](CC)CCOCCNC1=C2C(=[N+](C)c3ccccc32)C(=O)c2ccccc21 (protonated)
CC[NH+](CC)CCOCCNC1=C2C(=[N+](C)c3ccccc32)C(=O)c2ccccc21 (3D coordinates assigned)
CC[NH+](CC)CCOCCNC1=C2C(=[N+](C)c3ccccc32)C(=O)c2ccccc21 (nonaromatic ring conformer: 113.10715939494287 kcal/mol)

>  <smiles>  (16) 
CCN(CC)CCOCCNC1=C2C(=[N+](C)c3ccccc32)C(=O)c2ccccc21

>  <score_type>  (16) 
oracle

>  <origin>  (16) 
adg

>  <m_score__min__energy>  (16) 
-5.1900000000000004

>  <m_primary>  (16) 
energy

$$$$
16:0
     RDKit          3D

 47 48  0  0  0  0  0  0  0  0999 V2000
   63.7780   32.1160   50.1190 C   0  0  0  0  0  0  0  0  0  0  0  0
   63.1720   32.5580   48.8110 C   0  0  0  0  0  0  0  0  0  0  0  0
   63.7980   33.5880   48.0890 C   0  0  0  0  0  0  0  0  0  0  0  0
   63.2690   34.0300   46.8790 C   0  0  0  0  0  0  0  0  0  0  0  0
   62.1040   33.4590   46.3750 C   0  0  0  0  0  0  0  0  0  0  0  0
   61.4590   32.4290   47.0700 C   0  0  0  0  0  0  0  0  0  0  0  0
   60.2350   31.9020   46.5330 N   0  0  0  0  0  0  0  0  0  0  0  0
   60.0840   30.4660   46.3030 C   0  0  0  0  0  0  0  0  0  0  0  0
   58.6690   30.0120   46.6980 C   0  0  0  0  0  0  0  0  0  0  0  0
   57.6050   30.8850   46.1500 N   0  0  0  0  0  0  0  0  0  0  0  0
   57.3830   30.6940   44.6990 C   0  0  0  0  0  0  0  0  0  0  0  0
   56.1820   29.8170   44.4500 C   0  0  0  0  0  0  0  0  0  0  0  0
   55.4430   30.0550   43.4570 O   0  0  0  0  0  0  0  0  0  0  0  0
   55.9030   28.6580   45.2470 N   0  0  0  0  0  0  0  0  0  0  0  0
   56.8620   27.6210   45.6240 C   0  0  0  0  0  0  0  0  0  0  0  0
   56.1210   26.3410   46.0180 C   0  0  0  0  0  0  0  0  0  0  0  0
   57.7950   27.3530   44.4440 C   0  0  0  0  0  0  0  0  0  0  0  0
   57.8230   32.3020   46.5110 C   0  0  0  0  0  0  0  0  0  0  0  0
   59.1950   32.8110   46.0560 C   0  0  0  0  0  0  0  0  0  0  0  0
   62.0100   31.9360   48.2790 C   0  0  0  0  0  0  0  0  0  0  0  0
   61.3400   30.7960   49.0090 C   0  0  0  0  0  0  0  0  0  0  0  0
   63.1985   32.5387   50.9530 H   0  0  0  0  0  0  0  0  0  0  0  0
   63.7595   31.0178   50.1791 H   0  0  0  0  0  0  0  0  0  0  0  0
   64.8181   32.4691   50.1791 H   0  0  0  0  0  0  0  0  0  0  0  0
   64.7151   34.0499   48.4834 H   0  0  0  0  0  0  0  0  0  0  0  0
   63.7731   34.8323   46.3202 H   0  0  0  0  0  0  0  0  0  0  0  0
   61.6869   33.8198   45.4233 H   0  0  0  0  0  0  0  0  0  0  0  0
   60.2514   30.2489   45.2377 H   0  0  0  0  0  0  0  0  0  0  0  0
   60.8194   29.9245   46.9161 H   0  0  0  0  0  0  0  0  0  0  0  0
   58.5115   28.9901   46.3225 H   0  0  0  0  0  0  0  0  0  0  0  0
   58.6024   30.0623   47.7948 H   0  0  0  0  0  0  0  0  0  0  0  0
   57.2173   31.6741   44.2278 H   0  0  0  0  0  0  0  0  0  0  0  0
   58.2700   30.2062   44.2687 H   0  0  0  0  0  0  0  0  0  0  0  0
   57.4537   27.9589   46.4875 H   0  0  0  0  0  0  0  0  0  0  0  0
   56.0772   26.2654   47.1145 H   0  0  0  0  0  0  0  0  0  0  0  0
   55.0993   26.3688   45.6113 H   0  0  0  0  0  0  0  0  0  0  0  0
   56.6539   25.4689   45.6113 H   0  0  0  0  0  0  0  0  0  0  0  0
   58.7887   27.0676   44.8197 H   0  0  0  0  0  0  0  0  0  0  0  0
   57.3860   26.5360   43.8314 H   0  0  0  0  0  0  0  0  0  0  0  0
   57.8820   28.2625   43.8314 H   0  0  0  0  0  0  0  0  0  0  0  0
   57.0425   32.9131   46.0342 H   0  0  0  0  0  0  0  0  0  0  0  0
   57.7799   32.3816   47.6073 H   0  0  0  0  0  0  0  0  0  0  0  0
   59.2233   32.8562   44.9573 H   0  0  0  0  0  0  0  0  0  0  0  0
   59.3686   33.8156   46.4691 H   0  0  0  0  0  0  0  0  0  0  0  0
   61.4313   30.9514   50.0941 H   0  0  0  0  0  0  0  0  0  0  0  0
   60.2761   30.7583   48.7323 H   0  0  0  0  0  0  0  0  0  0  0  0
   61.8247   29.8481   48.7323 H   0  0  0  0  0  0  0  0  0  0  0  0
  1  2  1  0
  2  3  2  0
  3  4  1  0
  4  5  2  0
  5  6  1  0
  6  7  1  0
  7  8  1  0
  8  9  1  0
  9 10  1  0
 10 11  1  0
 11 12  1  0
 12 13  2  0
 12 14  1  0
 14 15  1  0
 15 16  1  0
 15 17  1  0
 10 18  1  0
 18 19  1  0
  6 20  2  0
 20 21  1  0
 20  2  1  0
 19  7  1  0
  1 22  1  0
  1 23  1  0
  1 24  1  0
  3 25  1  0
  4 26  1  0
  5 27  1  0
  8 28  1  0
  8 29  1  0
  9 30  1  0
  9 31  1  0
 11 32  1  0
 11 33  1  0
 15 34  1  0
 16 35  1  0
 16 36  1  0
 16 37  1  0
 17 38  1  0
 17 39  1  0
 17 40  1  0
 18 41  1  0
 18 42  1  0
 19 43  1  0
 19 44  1  0
 21 45  1  0
 21 46  1  0
 21 47  1  0
M  CHG  1  14  -1
M  END
>  <UniqueID>  (17) 
17

>  <SMILES>  (17) 
Cc1cccc(N2CCN(CC(=O)[N-]C(C)C)CC2)c1C

>  <Energy>  (17) 
49.79245337127827

>  <Genealogy>  (17) 
Cc1cccc(N2CCN(CC(=O)[N-]C(C)C)CC2)c1C (protonated)
Cc1cccc(N2CCN(CC(=O)[N-]C(C)C)CC2)c1C (3D coordinates assigned)
Cc1cccc(N2CCN(CC(=O)[N-]C(C)C)CC2)c1C (nonaromatic ring conformer: 49.79245337127827 kcal/mol)

>  <smiles>  (17) 
Cc1cccc(N2CCN(CC(=O)NC(C)C)CC2)c1C

>  <score_type>  (17) 
oracle

>  <origin>  (17) 
adg

>  <m_score__min__energy>  (17) 
-8.8699999999999992

>  <m_primary>  (17) 
energy

$$$$
17:0
     RDKit          3D

 35 36  0  0  0  0  0  0  0  0999 V2000
   55.9100   29.6980   42.9730 C   0  0  0  0  0  0  0  0  0  0  0  0
   56.7660   30.7920   43.5270 C   0  0  0  0  0  0  0  0  0  0  0  0
   57.4100   31.6950   42.6730 C   0  0  0  0  0  0  0  0  0  0  0  0
   58.1750   32.6850   43.2030 N   0  0  0  0  0  0  0  0  0  0  0  0
   58.3300   32.8220   44.5480 C   0  0  0  0  0  0  0  0  0  0  0  0
   59.2020   33.9270   45.0950 C   0  0  0  0  0  0  0  0  0  0  0  0
   59.2690   33.9460   46.5740 N   0  0  0  0  0  0  0  0  0  0  0  0
   59.3850   35.3190   47.1010 C   0  0  0  0  0  0  0  0  0  0  0  0
   60.3310   33.0560   47.0990 C   0  0  0  0  0  0  0  0  0  0  0  0
   61.6040   33.8420   47.4580 C   0  0  1  0  0  0  0  0  0  0  0  0
   62.3410   33.2320   48.6510 C   0  0  0  0  0  0  0  0  0  0  0  0
   63.5210   32.5580   48.0250 C   0  0  0  0  0  0  0  0  0  0  0  0
   63.7080   33.3330   46.7430 C   0  0  0  0  0  0  0  0  0  0  0  0
   62.4640   33.8520   46.3370 O   0  0  0  0  0  0  0  0  0  0  0  0
   57.6790   31.9200   45.4010 C   0  0  0  0  0  0  0  0  0  0  0  0
   56.9140   30.9300   44.8710 N   0  0  0  0  0  0  0  0  0  0  0  0
   55.4634   29.1272   43.8005 H   0  0  0  0  0  0  0  0  0  0  0  0
   55.1111   30.1345   42.3555 H   0  0  0  0  0  0  0  0  0  0  0  0
   56.5258   29.0276   42.3555 H   0  0  0  0  0  0  0  0  0  0  0  0
   57.2978   31.6039   41.5825 H   0  0  0  0  0  0  0  0  0  0  0  0
   60.2206   33.7944   44.7015 H   0  0  0  0  0  0  0  0  0  0  0  0
   58.7546   34.8806   44.7781 H   0  0  0  0  0  0  0  0  0  0  0  0
   59.3826   35.2911   48.2006 H   0  0  0  0  0  0  0  0  0  0  0  0
   60.3244   35.7692   46.7477 H   0  0  0  0  0  0  0  0  0  0  0  0
   58.5345   35.9205   46.7477 H   0  0  0  0  0  0  0  0  0  0  0  0
   59.9581   32.5494   48.0014 H   0  0  0  0  0  0  0  0  0  0  0  0
   60.5867   32.3271   46.3159 H   0  0  0  0  0  0  0  0  0  0  0  0
   61.3061   34.8635   47.7370 H   0  0  0  0  0  0  0  0  0  0  0  0
   62.6624   34.0130   49.3558 H   0  0  0  0  0  0  0  0  0  0  0  0
   61.7138   32.5425   49.2351 H   0  0  0  0  0  0  0  0  0  0  0  0
   64.4096   32.6365   48.6686 H   0  0  0  0  0  0  0  0  0  0  0  0
   63.3721   31.4800   47.8643 H   0  0  0  0  0  0  0  0  0  0  0  0
   64.4153   34.1586   46.9107 H   0  0  0  0  0  0  0  0  0  0  0  0
   64.1073   32.6694   45.9618 H   0  0  0  0  0  0  0  0  0  0  0  0
   57.7867   32.0130   46.4918 H   0  0  0  0  0  0  0  0  0  0  0  0
  1  2  1  0
  2  3  2  0
  3  4  1  0
  4  5  2  0
  5  6  1  0
  6  7  1  0
  7  8  1  0
  7  9  1  0
  9 10  1  0
 10 11  1  0
 11 12  1  0
 12 13  1  0
 13 14  1  0
  5 15  1  0
 15 16  2  0
 16  2  1  0
 14 10  1  0
  1 17  1  0
  1 18  1  0
  1 19  1  0
  3 20  1  0
  6 21  1  0
  6 22  1  0
  8 23  1  0
  8 24  1  0
  8 25  1  0
  9 26  1  0
  9 27  1  0
 10 28  1  1
 11 29  1  0
 11 30  1  0
 12 31  1  0
 12 32  1  0
 13 33  1  0
 13 34  1  0
 15 35  1  0
M  END
>  <UniqueID>  (18) 
18

>  <SMILES>  (18) 
Cc1cnc(CN(C)C[C@H]2CCCO2)cn1

>  <Energy>  (18) 
36.210216889502625

>  <Genealogy>  (18) 
Cc1cnc(CN(C)C[C@H]2CCCO2)cn1 (chirality)
Cc1cnc(CN(C)C[C@H]2CCCO2)cn1 (3D coordinates assigned)
Cc1cnc(CN(C)C[C@H]2CCCO2)cn1 (nonaromatic ring conformer: 36.210216889502625 kcal/mol)

>  <smiles>  (18) 
Cc1cnc(CN(C)CC2CCCO2)cn1

>  <score_type>  (18) 
oracle

>  <origin>  (18) 
adg

>  <m_score__min__energy>  (18) 
-6.0499999999999998

>  <m_primary>  (18) 
energy

$$$$
18:0
     RDKit          3D

 59 61  0  0  0  0  0  0  0  0999 V2000
   62.7070   33.8230   46.4590 C   0  0  0  0  0  0  0  0  0  0  0  0
   63.7620   33.2430   47.0380 C   0  0  0  0  0  0  0  0  0  0  0  0
   63.6010   32.0840   47.9800 C   0  0  0  0  0  0  0  0  0  0  0  0
   62.5630   32.3840   48.9740 N   0  0  0  0  0  0  0  0  0  0  0  0
   62.9680   31.8920   50.2960 C   0  0  0  0  0  0  0  0  0  0  0  0
   62.1160   32.5530   51.3830 C   0  0  0  0  0  0  0  0  0  0  0  0
   61.2990   33.6350   50.8120 N   0  0  0  0  0  0  0  0  0  0  0  0
   59.8780   33.4710   51.1460 C   0  0  0  0  0  0  0  0  0  0  0  0
   59.2020   32.5550   50.1000 C   0  0  0  0  0  0  0  0  0  0  0  0
   60.0500   32.1220   48.9540 N   0  0  0  0  0  0  0  0  0  0  0  0
   59.3630   31.8490   47.6970 C   0  0  0  0  0  0  0  0  0  0  0  0
   59.1950   32.9100   46.7610 C   0  0  0  0  0  0  0  0  0  0  0  0
   59.5230   34.2510   47.0930 C   0  0  0  0  0  0  0  0  0  0  0  0
   59.3870   35.2800   46.1670 C   0  0  0  0  0  0  0  0  0  0  0  0
   58.9360   35.0060   44.8850 C   0  0  0  0  0  0  0  0  0  0  0  0
   58.6000   33.7050   44.5290 C   0  0  0  0  0  0  0  0  0  0  0  0
   58.6960   32.6370   45.4600 C   0  0  0  0  0  0  0  0  0  0  0  0
   58.3610   31.3520   45.1050 N   0  0  0  0  0  0  0  0  0  0  0  0
   57.5980   31.1040   43.8590 C   0  0  0  0  0  0  0  0  0  0  0  0
   58.7050   30.2940   45.9180 C   0  0  0  0  0  0  0  0  0  0  0  0
   58.7540   28.9800   45.3960 C   0  0  0  0  0  0  0  0  0  0  0  0
   59.0220   27.8830   46.2080 C   0  0  0  0  0  0  0  0  0  0  0  0
   59.0520   26.4990   45.6260 C   0  0  0  0  0  0  0  0  0  0  0  0
   59.1330   28.0680   47.5800 C   0  0  0  0  0  0  0  0  0  0  0  0
   59.0890   29.3510   48.1460 C   0  0  0  0  0  0  0  0  0  0  0  0
   58.9640   29.3750   49.6520 C   0  0  0  0  0  0  0  0  0  0  0  0
   59.0480   30.5080   47.2890 C   0  0  0  0  0  0  0  0  0  0  0  0
   62.8529   34.6704   45.7730 H   0  0  0  0  0  0  0  0  0  0  0  0
   61.6924   33.4532   46.6683 H   0  0  0  0  0  0  0  0  0  0  0  0
   64.7712   33.6226   46.8201 H   0  0  0  0  0  0  0  0  0  0  0  0
   63.3113   31.1890   47.4099 H   0  0  0  0  0  0  0  0  0  0  0  0
   64.5549   31.9047   48.4976 H   0  0  0  0  0  0  0  0  0  0  0  0
   62.4710   33.4270   49.0330 H   0  0  0  0  0  0  0  0  0  0  0  0
   62.8296   30.8015   50.3372 H   0  0  0  0  0  0  0  0  0  0  0  0
   64.0262   32.1398   50.4654 H   0  0  0  0  0  0  0  0  0  0  0  0
   61.4539   31.7983   51.8325 H   0  0  0  0  0  0  0  0  0  0  0  0
   62.7828   32.9772   52.1481 H   0  0  0  0  0  0  0  0  0  0  0  0
   61.6210   34.5370   51.2380 H   0  0  0  0  0  0  0  0  0  0  0  0
   59.7864   33.0171   52.1438 H   0  0  0  0  0  0  0  0  0  0  0  0
   59.3859   34.4548   51.1426 H   0  0  0  0  0  0  0  0  0  0  0  0
   58.8557   31.6502   50.6211 H   0  0  0  0  0  0  0  0  0  0  0  0
   58.3977   33.1605   49.6568 H   0  0  0  0  0  0  0  0  0  0  0  0
   60.6510   31.3210   49.2330 H   0  0  0  0  0  0  0  0  0  0  0  0
   60.7830   32.8490   48.7840 H   0  0  0  0  0  0  0  0  0  0  0  0
   59.8923   34.4809   48.1033 H   0  0  0  0  0  0  0  0  0  0  0  0
   59.6376   36.3124   46.4522 H   0  0  0  0  0  0  0  0  0  0  0  0
   58.8440   35.8185   44.1492 H   0  0  0  0  0  0  0  0  0  0  0  0
   58.2529   33.4987   43.5058 H   0  0  0  0  0  0  0  0  0  0  0  0
   56.5800   30.7731   44.1122 H   0  0  0  0  0  0  0  0  0  0  0  0
   57.5462   32.0316   43.2700 H   0  0  0  0  0  0  0  0  0  0  0  0
   58.1015   30.3232   43.2700 H   0  0  0  0  0  0  0  0  0  0  0  0
   58.5759   28.8221   44.3221 H   0  0  0  0  0  0  0  0  0  0  0  0
   59.0680   25.7592   46.4399 H   0  0  0  0  0  0  0  0  0  0  0  0
   58.1570   26.3425   45.0059 H   0  0  0  0  0  0  0  0  0  0  0  0
   59.9529   26.3815   45.0059 H   0  0  0  0  0  0  0  0  0  0  0  0
   59.2577   27.1929   48.2347 H   0  0  0  0  0  0  0  0  0  0  0  0
   59.9485   29.1860   50.1047 H   0  0  0  0  0  0  0  0  0  0  0  0
   58.5956   30.3603   49.9737 H   0  0  0  0  0  0  0  0  0  0  0  0
   58.2569   28.5962   49.9737 H   0  0  0  0  0  0  0  0  0  0  0  0
  1  2  2  0
  2  3  1  0
  3  4  1  0
  4  5  1  0
  5  6  1  0
  6  7  1  0
  7  8  1  0
  8  9  1  0
  9 10  1  0
 10 11  1  0
 11 12  2  0
 12 13  1  0
 13 14  2  0
 14 15  1  0
 15 16  2  0
 16 17  1  0
 17 18  2  0
 18 19  1  0
 18 20  1  0
 20 21  2  0
 21 22  1  0
 22 23  1  0
 22 24  2  0
 24 25  1  0
 25 26  1  0
 25 27  2  0
 27 11  1  0
 17 12  1  0
 27 20  1  0
  1 28  1  0
  1 29  1  0
  2 30  1  0
  3 31  1  0
  3 32  1  0
  4 33  1  0
  5 34  1  0
  5 35  1  0
  6 36  1  0
  6 37  1  0
  7 38  1  0
  8 39  1  0
  8 40  1  0
  9 41  1  0
  9 42  1  0
 10 43  1  0
 10 44  1  0
 13 45  1  0
 14 46  1  0
 15 47  1  0
 16 48  1  0
 19 49  1  0
 19 50  1  0
 19 51  1  0
 21 52  1  0
 23 53  1  0
 23 54  1  0
 23 55  1  0
 24 56  1  0
 26 57  1  0
 26 58  1  0
 26 59  1  0
M  CHG  2  10   1  18   1
M  END
>  <UniqueID>  (19) 
19

>  <SMILES>  (19) 
C=CCNCCNCC[NH2+]c1c2ccccc2[n+](C)c2cc(C)cc(C)c12

>  <Energy>  (19) 
99.67585702478938

>  <Genealogy>  (19) 
C=CCNCCNCC[NH2+]c1c2ccccc2[n+](C)c2cc(C)cc(C)c12 (protonated)
C=CCNCCNCC[NH2+]c1c2ccccc2[n+](C)c2cc(C)cc(C)c12 (3D coordinates assigned)
C=CCNCCNCC[NH2+]c1c2ccccc2[n+](C)c2cc(C)cc(C)c12 (optimized conformer: 99.67585702478938 kcal/mol)

>  <smiles>  (19) 
C=CCNCCNCCNc1c2ccccc2[n+](C)c2cc(C)cc(C)c12

>  <score_type>  (19) 
oracle

>  <origin>  (19) 
adg

>  <m_score__min__energy>  (19) 
-5.6799999999999997

>  <m_primary>  (19) 
energy

$$$$
19:0
     RDKit          3D

 79 82  0  0  0  0  0  0  0  0999 V2000
   58.8550   31.8740   49.9950 C   0  0  0  0  0  0  0  0  0  0  0  0
   58.8820   30.3800   49.6750 C   0  0  0  0  0  0  0  0  0  0  0  0
   60.1760   30.0060   49.0540 N   0  0  0  0  0  0  0  0  0  0  0  0
   61.0630   29.3400   50.0390 C   0  0  0  0  0  0  0  0  0  0  0  0
   60.7890   27.8380   50.0670 C   0  0  0  0  0  0  0  0  0  0  0  0
   59.9540   29.1470   47.8650 C   0  0  0  0  0  0  0  0  0  0  0  0
   60.5550   29.7430   46.6580 N   0  0  0  0  0  0  0  0  0  0  0  0
   59.7050   30.8060   46.1620 C   0  0  0  0  0  0  0  0  0  0  0  0
   58.6270   30.4770   45.2840 C   0  0  0  0  0  0  0  0  0  0  0  0
   58.3680   29.1430   44.8600 C   0  0  0  0  0  0  0  0  0  0  0  0
   57.3930   28.8630   43.9060 C   0  0  0  0  0  0  0  0  0  0  0  0
   56.6490   29.8910   43.3510 C   0  0  0  0  0  0  0  0  0  0  0  0
   56.8230   31.1930   43.8030 C   0  0  0  0  0  0  0  0  0  0  0  0
   57.7590   31.4980   44.8260 C   0  0  0  0  0  0  0  0  0  0  0  0
   57.8110   32.7480   45.3910 N   0  0  0  0  0  0  0  0  0  0  0  0
   56.6560   33.6680   45.2330 C   0  0  0  0  0  0  0  0  0  0  0  0
   58.8960   33.1290   46.1550 C   0  0  0  0  0  0  0  0  0  0  0  0
   59.0500   34.4890   46.5130 C   0  0  0  0  0  0  0  0  0  0  0  0
   60.0340   34.8980   47.3840 C   0  0  0  0  0  0  0  0  0  0  0  0
   60.9490   33.9900   47.8670 C   0  0  0  0  0  0  0  0  0  0  0  0
   60.9580   32.6440   47.4410 C   0  0  0  0  0  0  0  0  0  0  0  0
   62.0470   31.8310   47.8560 O   0  0  0  0  0  0  0  0  0  0  0  0
   63.4120   32.0880   47.4740 C   0  0  0  0  0  0  0  0  0  0  0  0
   64.1900   33.1160   48.3420 C   0  0  0  0  0  0  0  0  0  0  0  0
   64.1210   33.0110   49.8490 N   0  0  0  0  0  0  0  0  0  0  0  0
   65.5080   33.1810   50.3650 C   0  0  0  0  0  0  0  0  0  0  0  0
   63.6870   31.6170   50.1800 C   0  0  0  0  0  0  0  0  0  0  0  0
   63.4730   31.4080   51.6940 C   0  0  0  0  0  0  0  0  0  0  0  0
   62.4820   32.3650   52.2900 N   0  0  0  0  0  0  0  0  0  0  0  0
   63.0690   33.0280   53.4820 C   0  0  0  0  0  0  0  0  0  0  0  0
   61.2820   31.6180   52.7370 C   0  0  0  0  0  0  0  0  0  0  0  0
   62.0390   33.4020   51.3130 C   0  0  0  0  0  0  0  0  0  0  0  0
   63.2000   34.0160   50.4980 C   0  0  0  0  0  0  0  0  0  0  0  0
   59.8790   32.1720   46.5880 C   0  0  0  0  0  0  0  0  0  0  0  0
   58.8524   32.0153   51.0859 H   0  0  0  0  0  0  0  0  0  0  0  0
   59.7446   32.3573   49.5647 H   0  0  0  0  0  0  0  0  0  0  0  0
   57.9486   32.3248   49.5647 H   0  0  0  0  0  0  0  0  0  0  0  0
   58.7478   29.8080   50.6049 H   0  0  0  0  0  0  0  0  0  0  0  0
   58.0693   30.1521   48.9695 H   0  0  0  0  0  0  0  0  0  0  0  0
   62.1123   29.5124   49.7574 H   0  0  0  0  0  0  0  0  0  0  0  0
   60.8675   29.7584   51.0374 H   0  0  0  0  0  0  0  0  0  0  0  0
   60.7266   27.4961   51.1106 H   0  0  0  0  0  0  0  0  0  0  0  0
   59.8379   27.6292   49.5553 H   0  0  0  0  0  0  0  0  0  0  0  0
   61.6051   27.3068   49.5553 H   0  0  0  0  0  0  0  0  0  0  0  0
   60.4095   28.1619   48.0438 H   0  0  0  0  0  0  0  0  0  0  0  0
   58.8704   29.0491   47.7030 H   0  0  0  0  0  0  0  0  0  0  0  0
   60.7450   29.0230   45.9340 H   0  0  0  0  0  0  0  0  0  0  0  0
   61.5120   30.0840   46.8150 H   0  0  0  0  0  0  0  0  0  0  0  0
   58.9497   28.3168   45.2947 H   0  0  0  0  0  0  0  0  0  0  0  0
   57.2135   27.8239   43.5927 H   0  0  0  0  0  0  0  0  0  0  0  0
   55.9218   29.6769   42.5539 H   0  0  0  0  0  0  0  0  0  0  0  0
   56.2245   32.0027   43.3601 H   0  0  0  0  0  0  0  0  0  0  0  0
   56.2845   33.9639   46.2252 H   0  0  0  0  0  0  0  0  0  0  0  0
   56.9736   34.5633   44.6784 H   0  0  0  0  0  0  0  0  0  0  0  0
   55.8544   33.1583   44.6784 H   0  0  0  0  0  0  0  0  0  0  0  0
   58.3669   35.2375   46.0850 H   0  0  0  0  0  0  0  0  0  0  0  0
   60.0894   35.9518   47.6946 H   0  0  0  0  0  0  0  0  0  0  0  0
   61.6937   34.3223   48.6052 H   0  0  0  0  0  0  0  0  0  0  0  0
   63.9570   31.1334   47.5166 H   0  0  0  0  0  0  0  0  0  0  0  0
   63.3556   32.5356   46.4708 H   0  0  0  0  0  0  0  0  0  0  0  0
   65.2508   33.0351   48.0624 H   0  0  0  0  0  0  0  0  0  0  0  0
   63.6928   34.0725   48.1233 H   0  0  0  0  0  0  0  0  0  0  0  0
   65.4928   33.1791   51.4649 H   0  0  0  0  0  0  0  0  0  0  0  0
   66.1370   32.3532   50.0056 H   0  0  0  0  0  0  0  0  0  0  0  0
   65.9184   34.1362   50.0056 H   0  0  0  0  0  0  0  0  0  0  0  0
   62.7414   31.4087   49.6581 H   0  0  0  0  0  0  0  0  0  0  0  0
   64.4861   30.9330   49.8580 H   0  0  0  0  0  0  0  0  0  0  0  0
   63.1101   30.3825   51.8573 H   0  0  0  0  0  0  0  0  0  0  0  0
   64.4390   31.5887   52.1881 H   0  0  0  0  0  0  0  0  0  0  0  0
   62.6621   32.5684   54.3948 H   0  0  0  0  0  0  0  0  0  0  0  0
   64.1623   32.9080   53.4671 H   0  0  0  0  0  0  0  0  0  0  0  0
   62.8174   34.0987   53.4671 H   0  0  0  0  0  0  0  0  0  0  0  0
   61.2507   31.5985   53.8364 H   0  0  0  0  0  0  0  0  0  0  0  0
   60.3778   32.1131   52.3531 H   0  0  0  0  0  0  0  0  0  0  0  0
   61.3271   30.5881   52.3531 H   0  0  0  0  0  0  0  0  0  0  0  0
   61.3281   32.9395   50.6125 H   0  0  0  0  0  0  0  0  0  0  0  0
   61.5824   34.2183   51.8918 H   0  0  0  0  0  0  0  0  0  0  0  0
   62.7668   34.6442   49.7057 H   0  0  0  0  0  0  0  0  0  0  0  0
   63.8148   34.5813   51.2139 H   0  0  0  0  0  0  0  0  0  0  0  0
  1  2  1  0
  2  3  1  0
  3  4  1  0
  4  5  1  0
  3  6  1  0
  6  7  1  0
  7  8  1  0
  8  9  2  0
  9 10  1  0
 10 11  2  0
 11 12  1  0
 12 13  2  0
 13 14  1  0
 14 15  2  0
 15 16  1  0
 15 17  1  0
 17 18  2  0
 18 19  1  0
 19 20  2  0
 20 21  1  0
 21 22  1  0
 22 23  1  0
 23 24  1  0
 24 25  1  0
 25 26  1  0
 25 27  1  0
 27 28  1  0
 28 29  1  0
 29 30  1  0
 29 31  1  0
 29 32  1  0
 32 33  1  0
 21 34  2  0
 34  8  1  0
 14  9  1  0
 34 17  1  0
 33 25  1  0
  1 35  1  0
  1 36  1  0
  1 37  1  0
  2 38  1  0
  2 39  1  0
  4 40  1  0
  4 41  1  0
  5 42  1  0
  5 43  1  0
  5 44  1  0
  6 45  1  0
  6 46  1  0
  7 47  1  0
  7 48  1  0
 10 49  1  0
 11 50  1  0
 12 51  1  0
 13 52  1  0
 16 53  1  0
 16 54  1  0
 16 55  1  0
 18 56  1  0
 19 57  1  0
 20 58  1  0
 23 59  1  0
 23 60  1  0
 24 61  1  0
 24 62  1  0
 26 63  1  0
 26 64  1  0
 26 65  1  0
 27 66  1  0
 27 67  1  0
 28 68  1  0
 28 69  1  0
 30 70  1  0
 30 71  1  0
 30 72  1  0
 31 73  1  0
 31 74  1  0
 31 75  1  0
 32 76  1  0
 32 77  1  0
 33 78  1  0
 33 79  1  0
M  CHG  4   7   1  15   1  25   1  29   1
M  END
>  <UniqueID>  (20) 
20

>  <SMILES>  (20) 
CCN(CC)C[NH2+]c1c2ccccc2[n+](C)c2cccc(OCC[N+]3(C)CC[N+](C)(C)CC3)c12

>  <Energy>  (20) 
158.3995722131064

>  <Genealogy>  (20) 
CCN(CC)C[NH2+]c1c2ccccc2[n+](C)c2cccc(OCC[N+]3(C)CC[N+](C)(C)CC3)c12 (protonated)
CCN(CC)C[NH2+]c1c2ccccc2[n+](C)c2cccc(OCC[N+]3(C)CC[N+](C)(C)CC3)c12 (3D coordinates assigned)
CCN(CC)C[NH2+]c1c2ccccc2[n+](C)c2cccc(OCC[N+]3(C)CC[N+](C)(C)CC3)c12 (nonaromatic ring conformer: 158.3995722131064 kcal/mol)

>  <smiles>  (20) 
CCN(CC)CNc1c2ccccc2[n+](C)c2cccc(OCC[N+]3(C)CC[N+](C)(C)CC3)c12

>  <score_type>  (20) 
oracle

>  <origin>  (20) 
adg

>  <m_score__min__energy>  (20) 
-2.6200000000000001

>  <m_primary>  (20) 
energy

$$$$
