0:0
     RDKit          3D

 55 58  0  0  0  0  0  0  0  0999 V2000
   63.3790   33.8300   46.3990 C   0  0  0  0  0  0  0  0  0  0  0  0
   63.3750   32.5960   47.2930 C   0  0  0  0  0  0  0  0  0  0  0  0
   62.8700   32.9380   48.6320 N   0  0  0  0  0  0  0  0  0  0  0  0
   62.1100   34.1990   48.6460 C   0  0  0  0  0  0  0  0  0  0  0  0
   61.0300   34.2140   49.7410 C   0  0  0  0  0  0  0  0  0  0  0  0
   59.7320   33.8170   49.1940 N   0  0  0  0  0  0  0  0  0  0  0  0
   59.5980   32.5850   48.4720 C   0  0  0  0  0  0  0  0  0  0  0  0
   59.1830   32.6070   47.1330 C   0  0  0  0  0  0  0  0  0  0  0  0
   59.0000   31.3880   46.4440 C   0  0  0  0  0  0  0  0  0  0  0  0
   59.5080   30.2200   46.9770 N   0  0  0  0  0  0  0  0  0  0  0  0
   59.8320   29.0770   46.0990 C   0  0  0  0  0  0  0  0  0  0  0  0
   59.8370   30.1640   48.3170 C   0  0  0  0  0  0  0  0  0  0  0  0
   60.1480   28.9380   48.9540 C   0  0  0  0  0  0  0  0  0  0  0  0
   60.4590   28.8930   50.3130 C   0  0  0  0  0  0  0  0  0  0  0  0
   60.4620   30.0610   51.0700 C   0  0  0  0  0  0  0  0  0  0  0  0
   60.1620   31.2830   50.4700 C   0  0  0  0  0  0  0  0  0  0  0  0
   59.8610   31.3530   49.0950 C   0  0  0  0  0  0  0  0  0  0  0  0
   58.3280   31.4540   45.1040 C   0  0  0  0  0  0  0  0  0  0  0  0
   58.5030   32.6210   44.3320 C   0  0  0  0  0  0  0  0  0  0  0  0
   57.9540   32.7050   43.0490 C   0  0  0  0  0  0  0  0  0  0  0  0
   57.1620   31.6690   42.5600 C   0  0  0  0  0  0  0  0  0  0  0  0
   56.8620   30.5670   43.3650 C   0  0  0  0  0  0  0  0  0  0  0  0
   56.0190   29.5910   42.8480 O   0  0  0  0  0  0  0  0  0  0  0  0
   57.4050   30.4710   44.6710 C   0  0  0  0  0  0  0  0  0  0  0  0
   57.0340   29.4650   45.5840 O   0  0  0  0  0  0  0  0  0  0  0  0
   57.0080   28.0650   45.3360 C   0  0  0  0  0  0  0  0  0  0  0  0
   59.2550   33.7870   44.9180 C   0  0  0  0  0  0  0  0  0  0  0  0
   58.9250   33.9170   46.4120 C   0  0  0  0  0  0  0  0  0  0  0  0
   63.3819   34.7354   47.0237 H   0  0  0  0  0  0  0  0  0  0  0  0
   64.2771   33.8198   45.7640 H   0  0  0  0  0  0  0  0  0  0  0  0
   62.4808   33.8256   45.7640 H   0  0  0  0  0  0  0  0  0  0  0  0
   62.7280   31.8265   46.8466 H   0  0  0  0  0  0  0  0  0  0  0  0
   64.4034   32.2166   47.3843 H   0  0  0  0  0  0  0  0  0  0  0  0
   62.2670   32.1570   48.9820 H   0  0  0  0  0  0  0  0  0  0  0  0
   62.8072   35.0309   48.8246 H   0  0  0  0  0  0  0  0  0  0  0  0
   61.6064   34.3007   47.6734 H   0  0  0  0  0  0  0  0  0  0  0  0
   61.3152   33.5126   50.5389 H   0  0  0  0  0  0  0  0  0  0  0  0
   60.9472   35.2351   50.1415 H   0  0  0  0  0  0  0  0  0  0  0  0
   58.9580   34.5170   49.1190 H   0  0  0  0  0  0  0  0  0  0  0  0
   60.0805   28.2003   46.7151 H   0  0  0  0  0  0  0  0  0  0  0  0
   58.9643   28.8449   45.4641 H   0  0  0  0  0  0  0  0  0  0  0  0
   60.6925   29.3348   45.4641 H   0  0  0  0  0  0  0  0  0  0  0  0
   60.1442   28.0070   48.3681 H   0  0  0  0  0  0  0  0  0  0  0  0
   60.7027   27.9313   50.7880 H   0  0  0  0  0  0  0  0  0  0  0  0
   60.7014   30.0198   52.1429 H   0  0  0  0  0  0  0  0  0  0  0  0
   60.1602   32.2013   51.0755 H   0  0  0  0  0  0  0  0  0  0  0  0
   58.1477   33.5901   42.4252 H   0  0  0  0  0  0  0  0  0  0  0  0
   56.7701   31.7186   41.5334 H   0  0  0  0  0  0  0  0  0  0  0  0
   56.9979   27.5232   46.2933 H   0  0  0  0  0  0  0  0  0  0  0  0
   56.1050   27.8111   44.7615 H   0  0  0  0  0  0  0  0  0  0  0  0
   57.9010   27.7778   44.7615 H   0  0  0  0  0  0  0  0  0  0  0  0
   60.3359   33.6241   44.7950 H   0  0  0  0  0  0  0  0  0  0  0  0
   58.9592   34.7100   44.3978 H   0  0  0  0  0  0  0  0  0  0  0  0
   59.5550   34.7029   46.8541 H   0  0  0  0  0  0  0  0  0  0  0  0
   57.8613   34.1764   46.5185 H   0  0  0  0  0  0  0  0  0  0  0  0
  1  2  1  0
  2  3  1  0
  3  4  1  0
  4  5  1  0
  5  6  1  0
  6  7  1  0
  7  8  2  0
  8  9  1  0
  9 10  2  0
 10 11  1  0
 10 12  1  0
 12 13  2  0
 13 14  1  0
 14 15  2  0
 15 16  1  0
 16 17  2  0
  9 18  1  0
 18 19  2  0
 19 20  1  0
 20 21  2  0
 21 22  1  0
 22 23  1  0
 22 24  2  0
 24 25  1  0
 25 26  1  0
 19 27  1  0
 27 28  1  0
 17  7  1  0
 24 18  1  0
 28  8  1  0
 17 12  1  0
  1 29  1  0
  1 30  1  0
  1 31  1  0
  2 32  1  0
  2 33  1  0
  3 34  1  0
  4 35  1  0
  4 36  1  0
  5 37  1  0
  5 38  1  0
  6 39  1  0
 11 40  1  0
 11 41  1  0
 11 42  1  0
 13 43  1  0
 14 44  1  0
 15 45  1  0
 16 46  1  0
 20 47  1  0
 21 48  1  0
 26 49  1  0
 26 50  1  0
 26 51  1  0
 27 52  1  0
 27 53  1  0
 28 54  1  0
 28 55  1  0
M  CHG  2  10   1  23  -1
M  END
>  <UniqueID>  (1) 
1

>  <SMILES>  (1) 
CCNCCNc1c2c([n+](C)c3ccccc13)-c1c(ccc([O-])c1OC)CC2

>  <Energy>  (1) 
89.75313125053727

>  <Genealogy>  (1) 
CCNCCNc1c2c([n+](C)c3ccccc13)-c1c(ccc([O-])c1OC)CC2 (protonated)
CCNCCNc1c2c([n+](C)c3ccccc13)-c1c(ccc([O-])c1OC)CC2 (3D coordinates assigned)
CCNCCNc1c2c([n+](C)c3ccccc13)-c1c(ccc([O-])c1OC)CC2 (nonaromatic ring conformer: 89.75313125053727 kcal/mol)

>  <smiles>  (1) 
CCNCCNc1c2c([n+](C)c3ccccc13)-c1c(ccc(O)c1OC)CC2

>  <score_type>  (1) 
oracle

>  <origin>  (1) 
adg

>  <m_score__min__energy>  (1) 
-6.6900000000000004

>  <m_primary>  (1) 
energy

$$$$
1:0
     RDKit          3D

 57 59  0  0  0  0  0  0  0  0999 V2000
   54.3450   29.9680   44.1100 H   0  0  0  0  0  0  0  0  0  0  0  0
   55.1940   29.3600   44.0670 N   0  0  0  0  0  0  0  0  0  0  0  0
   56.2160   29.5370   44.8440 C   0  0  0  0  0  0  0  0  0  0  0  0
   56.7450   30.7810   44.9760 N   0  0  0  0  0  0  0  0  0  0  0  0
   57.8170   31.0440   45.7740 C   0  0  0  0  0  0  0  0  0  0  0  0
   58.2730   32.4500   45.8850 C   0  0  0  0  0  0  0  0  0  0  0  0
   58.2240   33.2910   44.7630 C   0  0  0  0  0  0  0  0  0  0  0  0
   57.8272   32.9106   43.8102 H   0  0  0  0  0  0  0  0  0  0  0  0
   58.6770   34.6090   44.8510 C   0  0  0  0  0  0  0  0  0  0  0  0
   58.6397   35.2617   43.9663 H   0  0  0  0  0  0  0  0  0  0  0  0
   59.1770   35.1010   46.0580 C   0  0  0  0  0  0  0  0  0  0  0  0
   59.5567   36.1320   46.1117 H   0  0  0  0  0  0  0  0  0  0  0  0
   59.1990   34.2900   47.2040 C   0  0  0  0  0  0  0  0  0  0  0  0
   59.8310   34.8120   48.4730 C   0  0  0  0  0  0  0  0  0  0  0  0
   60.8940   35.0224   48.2838 H   0  0  0  0  0  0  0  0  0  0  0  0
   59.3009   35.7277   48.7739 H   0  0  0  0  0  0  0  0  0  0  0  0
   59.7230   33.8300   49.5680 N   0  0  0  0  0  0  0  0  0  0  0  0
   59.0940   34.2040   50.3170 H   0  0  0  0  0  0  0  0  0  0  0  0
   61.0290   33.4770   50.1490 C   0  0  0  0  0  0  0  0  0  0  0  0
   61.1122   33.9427   51.1421 H   0  0  0  0  0  0  0  0  0  0  0  0
   61.0835   32.3803   50.2146 H   0  0  0  0  0  0  0  0  0  0  0  0
   62.2020   33.9560   49.2780 C   0  0  0  0  0  0  0  0  0  0  0  0
   61.8364   34.1814   48.2653 H   0  0  0  0  0  0  0  0  0  0  0  0
   62.6395   34.8610   49.7246 H   0  0  0  0  0  0  0  0  0  0  0  0
   63.2370   32.8990   49.2030 N   0  0  0  0  0  0  0  0  0  0  0  0
   64.0960   33.0720   48.0080 C   0  0  0  0  0  0  0  0  0  0  0  0
   64.9757   33.6752   48.2769 H   0  0  0  0  0  0  0  0  0  0  0  0
   64.4153   32.0826   47.6487 H   0  0  0  0  0  0  0  0  0  0  0  0
   63.3200   33.7780   46.9000 C   0  0  0  0  0  0  0  0  0  0  0  0
   62.5765   34.4544   47.3468 H   0  0  0  0  0  0  0  0  0  0  0  0
   64.0165   34.3586   46.2772 H   0  0  0  0  0  0  0  0  0  0  0  0
   62.8076   33.0299   46.2772 H   0  0  0  0  0  0  0  0  0  0  0  0
   64.0450   32.8500   50.4420 C   0  0  0  0  0  0  0  0  0  0  0  0
   64.1032   33.8583   50.8779 H   0  0  0  0  0  0  0  0  0  0  0  0
   63.5687   32.1599   51.1539 H   0  0  0  0  0  0  0  0  0  0  0  0
   65.4550   32.3520   50.1330 C   0  0  0  0  0  0  0  0  0  0  0  0
   65.9915   32.1625   51.0744 H   0  0  0  0  0  0  0  0  0  0  0  0
   65.3955   31.4205   49.5510 H   0  0  0  0  0  0  0  0  0  0  0  0
   65.9937   33.1142   49.5510 H   0  0  0  0  0  0  0  0  0  0  0  0
   58.7340   32.9660   47.1080 C   0  0  0  0  0  0  0  0  0  0  0  0
   58.7312   32.3258   48.0025 H   0  0  0  0  0  0  0  0  0  0  0  0
   58.4330   29.9770   46.4830 C   0  0  0  0  0  0  0  0  0  0  0  0
   59.6630   30.1570   47.2930 C   0  0  0  0  0  0  0  0  0  0  0  0
   60.8470   30.6280   46.7030 C   0  0  0  0  0  0  0  0  0  0  0  0
   60.8790   30.8511   45.6263 H   0  0  0  0  0  0  0  0  0  0  0  0
   61.9830   30.8110   47.4930 C   0  0  0  0  0  0  0  0  0  0  0  0
   62.9098   31.1916   47.0389 H   0  0  0  0  0  0  0  0  0  0  0  0
   61.9500   30.5210   48.8220 N   0  0  0  0  0  0  0  0  0  0  0  0
   62.8100   30.6600   49.3970 H   0  0  0  0  0  0  0  0  0  0  0  0
   60.8200   30.0500   49.4150 C   0  0  0  0  0  0  0  0  0  0  0  0
   60.8209   29.8210   50.4909 H   0  0  0  0  0  0  0  0  0  0  0  0
   59.6590   29.8560   48.6640 C   0  0  0  0  0  0  0  0  0  0  0  0
   58.7474   29.4699   49.1435 H   0  0  0  0  0  0  0  0  0  0  0  0
   57.8810   28.6920   46.3670 C   0  0  0  0  0  0  0  0  0  0  0  0
   58.3265   27.8550   46.9246 H   0  0  0  0  0  0  0  0  0  0  0  0
   56.7740   28.4670   45.5520 C   0  0  0  0  0  0  0  0  0  0  0  0
   56.3430   27.4586   45.4659 H   0  0  0  0  0  0  0  0  0  0  0  0
  1  2  1  0
  2  3  2  0
  3  4  1  0
  4  5  1  0
  5  6  1  0
  6  7  2  0
  7  8  1  0
  7  9  1  0
  9 10  1  0
  9 11  2  0
 11 12  1  0
 11 13  1  0
 13 14  1  0
 14 15  1  0
 14 16  1  0
 14 17  1  0
 17 18  1  0
 17 19  1  0
 19 20  1  0
 19 21  1  0
 19 22  1  0
 22 23  1  0
 22 24  1  0
 22 25  1  0
 25 26  1  0
 26 27  1  0
 26 28  1  0
 26 29  1  0
 29 30  1  0
 29 31  1  0
 29 32  1  0
 25 33  1  0
 33 34  1  0
 33 35  1  0
 33 36  1  0
 36 37  1  0
 36 38  1  0
 36 39  1  0
 13 40  2  0
 40 41  1  0
  5 42  2  0
 42 43  1  0
 43 44  2  0
 44 45  1  0
 44 46  1  0
 46 47  1  0
 46 48  2  0
 48 49  1  0
 48 50  1  0
 50 51  1  0
 50 52  2  0
 52 53  1  0
 42 54  1  0
 54 55  1  0
 54 56  2  0
 56 57  1  0
 56  3  1  0
 40  6  1  0
 52 43  1  0
M  CHG  2   4  -1  48   1
M  END
>  <UniqueID>  (2) 
2

>  <SMILES>  (2) 
[H]/N=c1\ccc(-c2cc[nH+]cc2)c(-c2cccc(CNCCN(CC)CC)c2)[n-]1

>  <Energy>  (2) 
69.0532269266391

>  <Genealogy>  (2) 
CCN(CC)CCNCc1cccc(-c2[n-]c(=N)ccc2-c2cc[nH+]cc2)c1 (protonated)
[H]/N=c1\ccc(-c2cc[nH+]cc2)c(-c2cccc(CNCCN(CC)CC)c2)[n-]1 (cis-trans isomerization)
[H]/N=c1\ccc(-c2cc[nH+]cc2)c(-c2cccc(CNCCN(CC)CC)c2)[n-]1 (3D coordinates assigned)
[H]/N=c1\ccc(-c2cc[nH+]cc2)c(-c2cccc(CNCCN(CC)CC)c2)[n-]1 (optimized conformer: 69.0532269266391 kcal/mol)

>  <smiles>  (2) 
CCN(CC)CCNCc1cccc(-c2[nH]c(=N)ccc2-c2ccncc2)c1

>  <score_type>  (2) 
oracle

>  <origin>  (2) 
adg

>  <m_score__min__energy>  (2) 
-8.2899999999999991

>  <m_primary>  (2) 
energy

$$$$
2:0
     RDKit          3D

 52 55  0  0  0  0  0  0  0  0999 V2000
   58.7600   32.5590   51.3050 C   0  0  0  0  0  0  0  0  0  0  0  0
   58.6600   31.1360   50.9460 N   0  0  0  0  0  0  0  0  0  0  0  0
   58.1570   30.3740   52.1030 C   0  0  0  0  0  0  0  0  0  0  0  0
   59.9760   30.6220   50.5070 C   0  0  0  0  0  0  0  0  0  0  0  0
   60.0650   30.5800   48.9790 C   0  0  0  0  0  0  0  0  0  0  0  0
   58.7410   30.7390   48.3780 N   0  0  0  0  0  0  0  0  0  0  0  0
   58.6160   31.1210   47.0010 C   0  0  0  0  0  0  0  0  0  0  0  0
   58.7520   32.4660   46.6120 C   0  0  0  0  0  0  0  0  0  0  0  0
   58.6770   32.7990   45.2320 C   0  0  0  0  0  0  0  0  0  0  0  0
   58.3470   31.8280   44.3020 N   0  0  0  0  0  0  0  0  0  0  0  0
   58.0530   32.2000   42.9010 C   0  0  0  0  0  0  0  0  0  0  0  0
   58.2950   30.4980   44.6720 C   0  0  0  0  0  0  0  0  0  0  0  0
   58.1480   29.4920   43.7470 N   0  0  0  0  0  0  0  0  0  0  0  0
   58.0450   28.1850   44.1230 C   0  0  0  0  0  0  0  0  0  0  0  0
   57.8770   27.1670   43.1700 C   0  0  0  0  0  0  0  0  0  0  0  0
   57.7650   25.8350   43.5810 C   0  0  0  0  0  0  0  0  0  0  0  0
   57.8200   25.5120   44.9400 C   0  0  0  0  0  0  0  0  0  0  0  0
   57.9910   26.5200   45.8950 C   0  0  0  0  0  0  0  0  0  0  0  0
   58.1060   27.8530   45.4890 C   0  0  0  0  0  0  0  0  0  0  0  0
   58.2920   28.8360   46.4020 N   0  0  0  0  0  0  0  0  0  0  0  0
   58.4020   30.1400   46.0340 C   0  0  0  0  0  0  0  0  0  0  0  0
   58.9090   34.2420   44.7940 C   0  0  0  0  0  0  0  0  0  0  0  0
   59.6550   35.0840   45.8260 C   0  0  0  0  0  0  0  0  0  0  0  0
   58.9890   34.9400   47.1840 C   0  0  0  0  0  0  0  0  0  0  0  0
   59.1070   33.4990   47.6710 C   0  0  0  0  0  0  0  0  0  0  0  0
   58.7672   32.6612   52.4002 H   0  0  0  0  0  0  0  0  0  0  0  0
   59.6897   32.9770   50.8916 H   0  0  0  0  0  0  0  0  0  0  0  0
   57.8979   33.1029   50.8916 H   0  0  0  0  0  0  0  0  0  0  0  0
   58.4804   30.8639   53.0333 H   0  0  0  0  0  0  0  0  0  0  0  0
   57.0580   30.3395   52.0696 H   0  0  0  0  0  0  0  0  0  0  0  0
   58.5572   29.3499   52.0696 H   0  0  0  0  0  0  0  0  0  0  0  0
   60.7673   31.2798   50.8958 H   0  0  0  0  0  0  0  0  0  0  0  0
   60.1007   29.6000   50.8942 H   0  0  0  0  0  0  0  0  0  0  0  0
   60.7184   31.3945   48.6331 H   0  0  0  0  0  0  0  0  0  0  0  0
   60.4755   29.6055   48.6760 H   0  0  0  0  0  0  0  0  0  0  0  0
   57.9310   30.9170   49.0130 H   0  0  0  0  0  0  0  0  0  0  0  0
   57.3710   33.0629   42.8862 H   0  0  0  0  0  0  0  0  0  0  0  0
   58.9893   32.4638   42.3875 H   0  0  0  0  0  0  0  0  0  0  0  0
   57.5800   31.3500   42.3875 H   0  0  0  0  0  0  0  0  0  0  0  0
   58.1410   29.6960   42.7230 H   0  0  0  0  0  0  0  0  0  0  0  0
   57.8335   27.4176   42.0998 H   0  0  0  0  0  0  0  0  0  0  0  0
   57.6333   25.0393   42.8330 H   0  0  0  0  0  0  0  0  0  0  0  0
   57.7287   24.4633   45.2591 H   0  0  0  0  0  0  0  0  0  0  0  0
   58.0349   26.2642   46.9639 H   0  0  0  0  0  0  0  0  0  0  0  0
   59.4959   34.2325   43.8637 H   0  0  0  0  0  0  0  0  0  0  0  0
   57.9182   34.7007   44.6603 H   0  0  0  0  0  0  0  0  0  0  0  0
   60.6981   34.7411   45.8923 H   0  0  0  0  0  0  0  0  0  0  0  0
   59.6316   36.1402   45.5194 H   0  0  0  0  0  0  0  0  0  0  0  0
   59.4814   35.6098   47.9044 H   0  0  0  0  0  0  0  0  0  0  0  0
   57.9253   35.2060   47.0953 H   0  0  0  0  0  0  0  0  0  0  0  0
   60.1444   33.3247   47.9926 H   0  0  0  0  0  0  0  0  0  0  0  0
   58.3872   33.3772   48.4938 H   0  0  0  0  0  0  0  0  0  0  0  0
  1  2  1  0
  2  3  1  0
  2  4  1  0
  4  5  1  0
  5  6  1  0
  6  7  1  0
  7  8  2  0
  8  9  1  0
  9 10  2  0
 10 11  1  0
 10 12  1  0
 12 13  2  0
 13 14  1  0
 14 15  2  0
 15 16  1  0
 16 17  2  0
 17 18  1  0
 18 19  2  0
 19 20  1  0
 20 21  2  0
  9 22  1  0
 22 23  1  0
 23 24  1  0
 24 25  1  0
 21  7  1  0
 25  8  1  0
 21 12  1  0
 19 14  1  0
  1 26  1  0
  1 27  1  0
  1 28  1  0
  3 29  1  0
  3 30  1  0
  3 31  1  0
  4 32  1  0
  4 33  1  0
  5 34  1  0
  5 35  1  0
  6 36  1  0
 11 37  1  0
 11 38  1  0
 11 39  1  0
 13 40  1  0
 15 41  1  0
 16 42  1  0
 17 43  1  0
 18 44  1  0
 22 45  1  0
 22 46  1  0
 23 47  1  0
 23 48  1  0
 24 49  1  0
 24 50  1  0
 25 51  1  0
 25 52  1  0
M  CHG  2  10   1  13   1
M  END
>  <UniqueID>  (3) 
3

>  <SMILES>  (3) 
CN(C)CCNc1c2c([n+](C)c3[nH+]c4ccccc4nc13)CCCC2

>  <Energy>  (3) 
73.68263188884443

>  <Genealogy>  (3) 
CN(C)CCNc1c2c([n+](C)c3[nH+]c4ccccc4nc13)CCCC2 (protonated)
CN(C)CCNc1c2c([n+](C)c3[nH+]c4ccccc4nc13)CCCC2 (3D coordinates assigned)
CN(C)CCNc1c2c([n+](C)c3[nH+]c4ccccc4nc13)CCCC2 (nonaromatic ring conformer: 73.68263188884443 kcal/mol)

>  <smiles>  (3) 
CN(C)CCNc1c2c([n+](C)c3nc4ccccc4nc13)CCCC2

>  <score_type>  (3) 
oracle

>  <origin>  (3) 
adg

>  <m_score__min__energy>  (3) 
-5.1200000000000001

>  <m_primary>  (3) 
energy

$$$$
3:0
     RDKit          3D

 43 44  0  0  0  0  0  0  0  0999 V2000
   60.8250   34.1970   46.6280 C   0  0  0  0  0  0  0  0  0  0  0  0
   59.6440   35.0960   46.3030 C   0  0  0  0  0  0  0  0  0  0  0  0
   59.1270   34.7570   45.0180 O   0  0  0  0  0  0  0  0  0  0  0  0
   58.5250   33.5300   44.7050 C   0  0  0  0  0  0  0  0  0  0  0  0
   58.4240   33.0540   43.3840 C   0  0  0  0  0  0  0  0  0  0  0  0
   57.8240   31.8190   43.1240 C   0  0  0  0  0  0  0  0  0  0  0  0
   57.3220   31.0400   44.1760 C   0  0  0  0  0  0  0  0  0  0  0  0
   56.5100   29.5070   43.8420 S   0  0  0  0  0  0  0  0  0  0  0  0
   55.1660   29.5310   44.5170 O   0  0  0  0  0  0  0  0  0  0  0  0
   56.2710   29.3950   42.3610 O   0  0  0  0  0  0  0  0  0  0  0  0
   57.3980   28.0970   44.3900 N   0  0  0  0  0  0  0  0  0  0  0  0
   58.7600   28.0330   43.8230 C   0  0  0  0  0  0  0  0  0  0  0  0
   59.7600   28.9940   44.5050 C   0  0  0  0  0  0  0  0  0  0  0  0
   59.3460   29.4000   45.8680 N   0  0  0  0  0  0  0  0  0  0  0  0
   60.5010   29.8690   46.6660 C   0  0  0  0  0  0  0  0  0  0  0  0
   60.0710   30.8150   47.7870 C   0  0  0  0  0  0  0  0  0  0  0  0
   58.6870   28.2810   46.5580 C   0  0  0  0  0  0  0  0  0  0  0  0
   57.3590   27.9360   45.8650 C   0  0  0  0  0  0  0  0  0  0  0  0
   57.4130   31.5190   45.4890 C   0  0  0  0  0  0  0  0  0  0  0  0
   58.0150   32.7530   45.7510 C   0  0  0  0  0  0  0  0  0  0  0  0
   60.9335   34.1144   47.7195 H   0  0  0  0  0  0  0  0  0  0  0  0
   60.6543   33.1982   46.1999 H   0  0  0  0  0  0  0  0  0  0  0  0
   61.7423   34.6275   46.1999 H   0  0  0  0  0  0  0  0  0  0  0  0
   58.8593   34.9589   47.0616 H   0  0  0  0  0  0  0  0  0  0  0  0
   59.9726   36.1458   46.3004 H   0  0  0  0  0  0  0  0  0  0  0  0
   58.8190   33.6567   42.5530 H   0  0  0  0  0  0  0  0  0  0  0  0
   57.7452   31.4562   42.0886 H   0  0  0  0  0  0  0  0  0  0  0  0
   56.8750   27.2850   43.9810 H   0  0  0  0  0  0  0  0  0  0  0  0
   59.1349   27.0048   43.9340 H   0  0  0  0  0  0  0  0  0  0  0  0
   58.6854   28.3397   42.7693 H   0  0  0  0  0  0  0  0  0  0  0  0
   60.7365   28.4920   44.5717 H   0  0  0  0  0  0  0  0  0  0  0  0
   59.8041   29.9067   43.8925 H   0  0  0  0  0  0  0  0  0  0  0  0
   61.0046   28.9974   47.1095 H   0  0  0  0  0  0  0  0  0  0  0  0
   61.1782   30.4190   45.9960 H   0  0  0  0  0  0  0  0  0  0  0  0
   60.2826   30.3495   48.7609 H   0  0  0  0  0  0  0  0  0  0  0  0
   60.6281   31.7598   47.7034 H   0  0  0  0  0  0  0  0  0  0  0  0
   58.9928   31.0165   47.7034 H   0  0  0  0  0  0  0  0  0  0  0  0
   59.3472   27.4015   46.5359 H   0  0  0  0  0  0  0  0  0  0  0  0
   58.4828   28.5723   47.5989 H   0  0  0  0  0  0  0  0  0  0  0  0
   57.1091   26.8895   46.0939 H   0  0  0  0  0  0  0  0  0  0  0  0
   56.6044   28.6399   46.2461 H   0  0  0  0  0  0  0  0  0  0  0  0
   57.0084   30.9207   46.3187 H   0  0  0  0  0  0  0  0  0  0  0  0
   58.0883   33.1159   46.7868 H   0  0  0  0  0  0  0  0  0  0  0  0
  1  2  1  0
  2  3  1  0
  3  4  1  0
  4  5  2  0
  5  6  1  0
  6  7  2  0
  7  8  1  0
  8  9  2  0
  8 10  2  0
  8 11  1  0
 11 12  1  0
 12 13  1  0
 13 14  1  0
 14 15  1  0
 15 16  1  0
 14 17  1  0
 17 18  1  0
  7 19  1  0
 19 20  2  0
 20  4  1  0
 18 11  1  0
  1 21  1  0
  1 22  1  0
  1 23  1  0
  2 24  1  0
  2 25  1  0
  5 26  1  0
  6 27  1  0
 11 28  1  0
 12 29  1  0
 12 30  1  0
 13 31  1  0
 13 32  1  0
 15 33  1  0
 15 34  1  0
 16 35  1  0
 16 36  1  0
 16 37  1  0
 17 38  1  0
 17 39  1  0
 18 40  1  0
 18 41  1  0
 19 42  1  0
 20 43  1  0
M  CHG  1  11   1
M  END
>  <UniqueID>  (4) 
4

>  <SMILES>  (4) 
CCOc1ccc(S(=O)(=O)[NH+]2CCN(CC)CC2)cc1

>  <Energy>  (4) 
45.45355386245186

>  <Genealogy>  (4) 
CCOc1ccc(S(=O)(=O)[NH+]2CCN(CC)CC2)cc1 (protonated)
CCOc1ccc(S(=O)(=O)[NH+]2CCN(CC)CC2)cc1 (3D coordinates assigned)
CCOc1ccc(S(=O)(=O)[NH+]2CCN(CC)CC2)cc1 (nonaromatic ring conformer: 45.45355386245186 kcal/mol)

>  <smiles>  (4) 
CCOc1ccc(S(=O)(=O)N2CCN(CC)CC2)cc1

>  <score_type>  (4) 
oracle

>  <origin>  (4) 
adg

>  <m_score__min__energy>  (4) 
-5.71

>  <m_primary>  (4) 
energy

$$$$
4:0
     RDKit          3D

 60 64  0  0  0  0  0  0  0  0999 V2000
   58.0930   34.0400   44.8470 C   0  0  0  0  0  0  0  0  0  0  0  0
   57.4430   33.3580   46.0430 C   0  0  0  0  0  0  0  0  0  0  0  0
   57.7940   31.9350   46.0680 N   0  0  0  0  0  0  0  0  0  0  0  0
   57.5690   31.0090   45.1000 C   0  0  0  0  0  0  0  0  0  0  0  0
   56.9030   31.1820   43.8810 C   0  0  0  0  0  0  0  0  0  0  0  0
   56.8000   30.0730   43.0200 C   0  0  0  0  0  0  0  0  0  0  0  0
   57.3610   28.8280   43.3800 C   0  0  0  0  0  0  0  0  0  0  0  0
   58.0350   28.6760   44.6050 C   0  0  0  0  0  0  0  0  0  0  0  0
   58.1190   29.7880   45.4420 C   0  0  0  0  0  0  0  0  0  0  0  0
   58.7250   29.9650   46.6650 C   0  0  0  0  0  0  0  0  0  0  0  0
   59.4600   29.0980   47.4690 C   0  0  0  0  0  0  0  0  0  0  0  0
   59.9770   29.6200   48.6720 C   0  0  0  0  0  0  0  0  0  0  0  0
   60.8220   28.7690   49.5710 C   0  0  0  0  0  0  0  0  0  0  0  0
   60.9170   29.3980   50.8930 N   0  0  0  0  0  0  0  0  0  0  0  0
   62.2310   29.1410   51.4910 C   0  0  0  0  0  0  0  0  0  0  0  0
   62.5760   30.2550   52.4850 C   0  0  0  0  0  0  0  0  0  0  0  0
   61.4700   31.3230   52.5870 C   0  0  0  0  0  0  0  0  0  0  0  0
   61.3690   32.1680   51.3810 N   0  0  0  0  0  0  0  0  0  0  0  0
   62.5970   32.9370   51.1450 C   0  0  0  0  0  0  0  0  0  0  0  0
   62.8840   32.9970   49.6750 C   0  0  0  0  0  0  0  0  0  0  0  0
   63.9820   32.4480   49.0260 C   0  0  0  0  0  0  0  0  0  0  0  0
   63.8570   32.6640   47.6980 N   0  0  0  0  0  0  0  0  0  0  0  0
   62.6950   33.3290   47.5630 C   0  0  0  0  0  0  0  0  0  0  0  0
   62.1220   33.7610   46.3670 C   0  0  0  0  0  0  0  0  0  0  0  0
   60.8850   34.4220   46.4390 C   0  0  0  0  0  0  0  0  0  0  0  0
   60.2590   34.6300   47.6840 C   0  0  0  0  0  0  0  0  0  0  0  0
   60.8830   34.1730   48.8550 C   0  0  0  0  0  0  0  0  0  0  0  0
   62.0810   33.5410   48.7400 N   0  0  0  0  0  0  0  0  0  0  0  0
   59.7720   30.9380   48.9940 N   0  0  0  0  0  0  0  0  0  0  0  0
   59.0510   31.7840   48.1990 C   0  0  0  0  0  0  0  0  0  0  0  0
   58.5150   31.2800   47.0130 C   0  0  0  0  0  0  0  0  0  0  0  0
   58.8116   34.7940   45.2007 H   0  0  0  0  0  0  0  0  0  0  0  0
   58.6187   33.2897   44.2381 H   0  0  0  0  0  0  0  0  0  0  0  0
   57.3184   34.5290   44.2381 H   0  0  0  0  0  0  0  0  0  0  0  0
   57.7956   33.8354   46.9692 H   0  0  0  0  0  0  0  0  0  0  0  0
   56.3504   33.4564   45.9617 H   0  0  0  0  0  0  0  0  0  0  0  0
   56.4728   32.1558   43.6040 H   0  0  0  0  0  0  0  0  0  0  0  0
   56.2775   30.1772   42.0576 H   0  0  0  0  0  0  0  0  0  0  0  0
   57.2701   27.9705   42.6970 H   0  0  0  0  0  0  0  0  0  0  0  0
   58.4808   27.7125   44.8930 H   0  0  0  0  0  0  0  0  0  0  0  0
   59.6299   28.0509   47.1780 H   0  0  0  0  0  0  0  0  0  0  0  0
   60.3641   27.7738   49.6706 H   0  0  0  0  0  0  0  0  0  0  0  0
   61.8290   28.6680   49.1400 H   0  0  0  0  0  0  0  0  0  0  0  0
   60.8190   30.4340   50.7620 H   0  0  0  0  0  0  0  0  0  0  0  0
   62.2100   28.1754   52.0175 H   0  0  0  0  0  0  0  0  0  0  0  0
   62.9921   29.1140   50.6973 H   0  0  0  0  0  0  0  0  0  0  0  0
   62.7253   29.8067   53.4784 H   0  0  0  0  0  0  0  0  0  0  0  0
   63.4874   30.7534   52.1230 H   0  0  0  0  0  0  0  0  0  0  0  0
   60.5062   30.8155   52.7408 H   0  0  0  0  0  0  0  0  0  0  0  0
   61.7269   31.9823   53.4292 H   0  0  0  0  0  0  0  0  0  0  0  0
   61.1550   31.5910   50.5330 H   0  0  0  0  0  0  0  0  0  0  0  0
   62.4690   33.9579   51.5340 H   0  0  0  0  0  0  0  0  0  0  0  0
   63.4369   32.4469   51.6593 H   0  0  0  0  0  0  0  0  0  0  0  0
   64.8169   31.9231   49.5132 H   0  0  0  0  0  0  0  0  0  0  0  0
   64.5190   32.3700   46.9440 H   0  0  0  0  0  0  0  0  0  0  0  0
   62.6212   33.5901   45.4018 H   0  0  0  0  0  0  0  0  0  0  0  0
   60.4019   34.7795   45.5177 H   0  0  0  0  0  0  0  0  0  0  0  0
   59.2892   35.1463   47.7377 H   0  0  0  0  0  0  0  0  0  0  0  0
   60.4153   34.3222   49.8394 H   0  0  0  0  0  0  0  0  0  0  0  0
   58.8971   32.8346   48.4863 H   0  0  0  0  0  0  0  0  0  0  0  0
  1  2  1  0
  2  3  1  0
  3  4  1  0
  4  5  2  0
  5  6  1  0
  6  7  2  0
  7  8  1  0
  8  9  2  0
  9 10  1  0
 10 11  2  0
 11 12  1  0
 12 13  1  0
 13 14  1  0
 14 15  1  0
 15 16  1  0
 16 17  1  0
 17 18  1  0
 18 19  1  0
 19 20  1  0
 20 21  2  0
 21 22  1  0
 22 23  2  0
 23 24  1  0
 24 25  2  0
 25 26  1  0
 26 27  2  0
 27 28  1  0
 12 29  2  0
 29 30  1  0
 30 31  2  0
 31  3  1  0
  9  4  1  0
 31 10  1  0
 28 20  1  0
 28 23  1  0
  1 32  1  0
  1 33  1  0
  1 34  1  0
  2 35  1  0
  2 36  1  0
  5 37  1  0
  6 38  1  0
  7 39  1  0
  8 40  1  0
 11 41  1  0
 13 42  1  0
 13 43  1  0
 14 44  1  0
 15 45  1  0
 15 46  1  0
 16 47  1  0
 16 48  1  0
 17 49  1  0
 17 50  1  0
 18 51  1  0
 19 52  1  0
 19 53  1  0
 21 54  1  0
 22 55  1  0
 24 56  1  0
 25 57  1  0
 26 58  1  0
 27 59  1  0
 30 60  1  0
M  CHG  1  22   1
M  END
>  <UniqueID>  (5) 
5

>  <SMILES>  (5) 
CCn1c2ccccc2c2cc(CNCCCNCc3c[nH+]c4ccccn34)ncc21

>  <Energy>  (5) 
136.99070602612562

>  <Genealogy>  (5) 
CCn1c2ccccc2c2cc(CNCCCNCc3c[nH+]c4ccccn34)ncc21 (protonated)
CCn1c2ccccc2c2cc(CNCCCNCc3c[nH+]c4ccccn34)ncc21 (3D coordinates assigned)
CCn1c2ccccc2c2cc(CNCCCNCc3c[nH+]c4ccccn34)ncc21 (optimized conformer: 136.99070602612562 kcal/mol)

>  <smiles>  (5) 
CCn1c2ccccc2c2cc(CNCCCNCc3cnc4ccccn34)ncc21

>  <score_type>  (5) 
oracle

>  <origin>  (5) 
adg

>  <m_score__min__energy>  (5) 
-6.6100000000000003

>  <m_primary>  (5) 
energy

$$$$
5:0
     RDKit          3D

 46 48  0  0  0  0  0  0  0  0999 V2000
   57.8220   25.0540   45.3340 C   0  0  0  0  0  0  0  0  0  0  0  0
   58.9460   25.4070   46.3150 C   0  0  0  0  0  0  0  0  0  0  0  0
   59.0310   26.8500   46.5840 N   0  0  0  0  0  0  0  0  0  0  0  0
   60.2420   27.4530   46.0100 C   0  0  0  0  0  0  0  0  0  0  0  0
   60.0780   28.9760   45.9370 C   0  0  0  0  0  0  0  0  0  0  0  0
   58.8520   29.4080   46.6340 N   0  0  0  0  0  0  0  0  0  0  0  0
   58.5550   30.8060   46.3430 C   0  0  0  0  0  0  0  0  0  0  0  0
   58.8840   31.8190   47.2730 C   0  0  0  0  0  0  0  0  0  0  0  0
   59.0080   31.5440   48.6530 C   0  0  0  0  0  0  0  0  0  0  0  0
   59.3080   32.5590   49.5590 C   0  0  0  0  0  0  0  0  0  0  0  0
   59.4780   33.8640   49.1110 C   0  0  0  0  0  0  0  0  0  0  0  0
   59.3700   34.1580   47.7540 C   0  0  0  0  0  0  0  0  0  0  0  0
   59.0970   33.1410   46.8050 C   0  0  0  0  0  0  0  0  0  0  0  0
   59.0510   33.4050   45.4520 N   0  0  0  0  0  0  0  0  0  0  0  0
   59.6470   34.6500   44.9200 C   0  0  0  0  0  0  0  0  0  0  0  0
   58.4290   32.5100   44.6030 C   0  0  0  0  0  0  0  0  0  0  0  0
   58.1020   32.8640   43.2710 C   0  0  0  0  0  0  0  0  0  0  0  0
   57.4500   31.9700   42.4310 C   0  0  0  0  0  0  0  0  0  0  0  0
   57.0210   30.7430   42.9140 C   0  0  0  0  0  0  0  0  0  0  0  0
   57.2680   30.3720   44.2420 C   0  0  0  0  0  0  0  0  0  0  0  0
   56.5250   29.2630   44.7810 N   0  0  0  0  0  0  0  0  0  0  0  0
   57.0960   28.1800   45.0240 O   0  0  0  0  0  0  0  0  0  0  0  0
   55.1530   29.3260   44.8640 O   0  0  0  0  0  0  0  0  0  0  0  0
   58.0800   31.2080   45.0670 C   0  0  0  0  0  0  0  0  0  0  0  0
   56.9200   24.7707   45.8964 H   0  0  0  0  0  0  0  0  0  0  0  0
   57.6006   25.9259   44.7009 H   0  0  0  0  0  0  0  0  0  0  0  0
   58.1388   24.2121   44.7009 H   0  0  0  0  0  0  0  0  0  0  0  0
   58.7626   24.8821   47.2642 H   0  0  0  0  0  0  0  0  0  0  0  0
   59.8969   25.0976   45.8566 H   0  0  0  0  0  0  0  0  0  0  0  0
   58.1890   27.3280   46.1840 H   0  0  0  0  0  0  0  0  0  0  0  0
   61.1074   27.2086   46.6436 H   0  0  0  0  0  0  0  0  0  0  0  0
   60.4011   27.0554   44.9968 H   0  0  0  0  0  0  0  0  0  0  0  0
   60.9484   29.4549   46.4093 H   0  0  0  0  0  0  0  0  0  0  0  0
   60.0034   29.2709   44.8799 H   0  0  0  0  0  0  0  0  0  0  0  0
   58.9370   29.2610   47.6650 H   0  0  0  0  0  0  0  0  0  0  0  0
   58.1020   28.7760   46.2880 H   0  0  0  0  0  0  0  0  0  0  0  0
   58.8659   30.5157   49.0168 H   0  0  0  0  0  0  0  0  0  0  0  0
   59.4104   32.3276   50.6295 H   0  0  0  0  0  0  0  0  0  0  0  0
   59.6984   34.6665   49.8303 H   0  0  0  0  0  0  0  0  0  0  0  0
   59.4986   35.1959   47.4132 H   0  0  0  0  0  0  0  0  0  0  0  0
   59.9558   35.2950   45.7558 H   0  0  0  0  0  0  0  0  0  0  0  0
   60.5243   34.4026   44.3043 H   0  0  0  0  0  0  0  0  0  0  0  0
   58.9041   35.1782   44.3043 H   0  0  0  0  0  0  0  0  0  0  0  0
   58.3687   33.8630   42.8956 H   0  0  0  0  0  0  0  0  0  0  0  0
   57.2733   32.2365   41.3785 H   0  0  0  0  0  0  0  0  0  0  0  0
   56.4813   30.0541   42.2476 H   0  0  0  0  0  0  0  0  0  0  0  0
  1  2  1  0
  2  3  1  0
  3  4  1  0
  4  5  1  0
  5  6  1  0
  6  7  1  0
  7  8  2  0
  8  9  1  0
  9 10  2  0
 10 11  1  0
 11 12  2  0
 12 13  1  0
 13 14  2  0
 14 15  1  0
 14 16  1  0
 16 17  2  0
 17 18  1  0
 18 19  2  0
 19 20  1  0
 20 21  1  0
 21 22  2  0
 21 23  1  0
 20 24  2  0
 24  7  1  0
 13  8  1  0
 24 16  1  0
  1 25  1  0
  1 26  1  0
  1 27  1  0
  2 28  1  0
  2 29  1  0
  3 30  1  0
  4 31  1  0
  4 32  1  0
  5 33  1  0
  5 34  1  0
  6 35  1  0
  6 36  1  0
  9 37  1  0
 10 38  1  0
 11 39  1  0
 12 40  1  0
 15 41  1  0
 15 42  1  0
 15 43  1  0
 17 44  1  0
 18 45  1  0
 19 46  1  0
M  CHG  4   6   1  14   1  21   1  23  -1
M  END
>  <UniqueID>  (6) 
6

>  <SMILES>  (6) 
CCNCC[NH2+]c1c2ccccc2[n+](C)c2cccc([N+](=O)[O-])c12

>  <Energy>  (6) 
87.05431781893685

>  <Genealogy>  (6) 
CCNCC[NH2+]c1c2ccccc2[n+](C)c2cccc([N+](=O)[O-])c12 (protonated)
CCNCC[NH2+]c1c2ccccc2[n+](C)c2cccc([N+](=O)[O-])c12 (3D coordinates assigned)
CCNCC[NH2+]c1c2ccccc2[n+](C)c2cccc([N+](=O)[O-])c12 (optimized conformer: 87.05431781893685 kcal/mol)

>  <smiles>  (6) 
CCNCCNc1c2ccccc2[n+](C)c2cccc([N+](=O)[O-])c12

>  <score_type>  (6) 
oracle

>  <origin>  (6) 
adg

>  <m_score__min__energy>  (6) 
-4.2000000000000002

>  <m_primary>  (6) 
energy

$$$$
6:0
     RDKit          3D

 52 54  0  0  0  0  0  0  0  0999 V2000
   58.5690   32.1150   49.4020 C   0  0  0  0  0  0  0  0  0  0  0  0
   59.9960   31.7030   49.0590 C   0  0  0  0  0  0  0  0  0  0  0  0
   60.5210   32.5260   47.9450 N   0  0  0  0  0  0  0  0  0  0  0  0
   61.8040   31.9900   47.4340 C   0  0  0  0  0  0  0  0  0  0  0  0
   62.8020   33.1040   47.1160 C   0  0  0  0  0  0  0  0  0  0  0  0
   60.5640   33.9710   48.2880 C   0  0  0  0  0  0  0  0  0  0  0  0
   59.7440   34.8640   47.3430 C   0  0  0  0  0  0  0  0  0  0  0  0
   60.2600   34.7570   46.0330 O   0  0  0  0  0  0  0  0  0  0  0  0
   59.2680   35.0800   45.0730 C   0  0  0  0  0  0  0  0  0  0  0  0
   58.1230   34.0510   45.0710 C   0  0  0  0  0  0  0  0  0  0  0  0
   58.6260   32.7100   45.3730 N   0  0  0  0  0  0  0  0  0  0  0  0
   58.0940   31.5200   44.7630 C   0  0  0  0  0  0  0  0  0  0  0  0
   57.3490   31.6310   43.5820 C   0  0  0  0  0  0  0  0  0  0  0  0
   56.8350   30.4990   42.9620 C   0  0  0  0  0  0  0  0  0  0  0  0
   57.0620   29.2330   43.4970 C   0  0  0  0  0  0  0  0  0  0  0  0
   57.8130   29.0710   44.6860 C   0  0  0  0  0  0  0  0  0  0  0  0
   58.3130   30.2390   45.3330 C   0  0  0  0  0  0  0  0  0  0  0  0
   59.0640   30.0900   46.5130 C   0  0  0  0  0  0  0  0  0  0  0  0
   59.3170   28.8620   47.0200 N   0  0  0  0  0  0  0  0  0  0  0  0
   58.8710   27.7270   46.4320 C   0  0  0  0  0  0  0  0  0  0  0  0
   59.1950   26.4950   47.0110 C   0  0  0  0  0  0  0  0  0  0  0  0
   58.7690   25.3080   46.4210 C   0  0  0  0  0  0  0  0  0  0  0  0
   58.0130   25.3430   45.2490 C   0  0  0  0  0  0  0  0  0  0  0  0
   57.4380   23.7100   44.4440 Br  0  0  0  0  0  0  0  0  0  0  0  0
   57.6790   26.5670   44.6620 C   0  0  0  0  0  0  0  0  0  0  0  0
   58.1020   27.7880   45.2410 C   0  0  0  0  0  0  0  0  0  0  0  0
   58.4500   32.1494   50.4950 H   0  0  0  0  0  0  0  0  0  0  0  0
   58.3628   33.1094   48.9793 H   0  0  0  0  0  0  0  0  0  0  0  0
   57.8645   31.3836   48.9793 H   0  0  0  0  0  0  0  0  0  0  0  0
   60.6351   31.8414   49.9435 H   0  0  0  0  0  0  0  0  0  0  0  0
   59.9968   30.6468   48.7516 H   0  0  0  0  0  0  0  0  0  0  0  0
   62.2412   31.3278   48.1958 H   0  0  0  0  0  0  0  0  0  0  0  0
   61.5974   31.4418   46.5030 H   0  0  0  0  0  0  0  0  0  0  0  0
   63.1852   33.5318   48.0542 H   0  0  0  0  0  0  0  0  0  0  0  0
   63.6383   32.6915   46.5325 H   0  0  0  0  0  0  0  0  0  0  0  0
   62.3004   33.8901   46.5325 H   0  0  0  0  0  0  0  0  0  0  0  0
   60.1722   34.0959   49.3082 H   0  0  0  0  0  0  0  0  0  0  0  0
   61.6130   34.2886   48.1945 H   0  0  0  0  0  0  0  0  0  0  0  0
   58.6929   34.5397   47.3513 H   0  0  0  0  0  0  0  0  0  0  0  0
   59.8062   35.9097   47.6787 H   0  0  0  0  0  0  0  0  0  0  0  0
   58.8552   36.0725   45.3066 H   0  0  0  0  0  0  0  0  0  0  0  0
   59.7376   35.0733   44.0783 H   0  0  0  0  0  0  0  0  0  0  0  0
   57.3805   34.3368   45.8306 H   0  0  0  0  0  0  0  0  0  0  0  0
   57.6640   34.0376   44.0714 H   0  0  0  0  0  0  0  0  0  0  0  0
   59.4040   32.6240   46.0670 H   0  0  0  0  0  0  0  0  0  0  0  0
   57.1694   32.6229   43.1417 H   0  0  0  0  0  0  0  0  0  0  0  0
   56.2435   30.6033   42.0404 H   0  0  0  0  0  0  0  0  0  0  0  0
   56.6523   28.3476   42.9889 H   0  0  0  0  0  0  0  0  0  0  0  0
   59.4496   30.9817   47.0289 H   0  0  0  0  0  0  0  0  0  0  0  0
   59.7889   26.4642   47.9364 H   0  0  0  0  0  0  0  0  0  0  0  0
   59.0286   24.3422   46.8791 H   0  0  0  0  0  0  0  0  0  0  0  0
   57.0804   26.5818   43.7392 H   0  0  0  0  0  0  0  0  0  0  0  0
  1  2  1  0
  2  3  1  0
  3  4  1  0
  4  5  1  0
  3  6  1  0
  6  7  1  0
  7  8  1  0
  8  9  1  0
  9 10  1  0
 10 11  1  0
 11 12  1  0
 12 13  2  0
 13 14  1  0
 14 15  2  0
 15 16  1  0
 16 17  2  0
 17 18  1  0
 18 19  2  0
 19 20  1  0
 20 21  2  0
 21 22  1  0
 22 23  2  0
 23 24  1  0
 23 25  1  0
 25 26  2  0
 17 12  1  0
 26 20  1  0
 26 16  1  0
  1 27  1  0
  1 28  1  0
  1 29  1  0
  2 30  1  0
  2 31  1  0
  4 32  1  0
  4 33  1  0
  5 34  1  0
  5 35  1  0
  5 36  1  0
  6 37  1  0
  6 38  1  0
  7 39  1  0
  7 40  1  0
  9 41  1  0
  9 42  1  0
 10 43  1  0
 10 44  1  0
 11 45  1  0
 13 46  1  0
 14 47  1  0
 15 48  1  0
 18 49  1  0
 21 50  1  0
 22 51  1  0
 25 52  1  0
M  END
>  <UniqueID>  (7) 
7

>  <SMILES>  (7) 
CCN(CC)CCOCCNc1cccc2c1cnc1ccc(Br)cc12

>  <Energy>  (7) 
66.59202396124874

>  <Genealogy>  (7) 
CCN(CC)CCOCCNc1cccc2c1cnc1ccc(Br)cc12 (3D coordinates assigned)
CCN(CC)CCOCCNc1cccc2c1cnc1ccc(Br)cc12 (optimized conformer: 66.59202396124874 kcal/mol)

>  <smiles>  (7) 
CCN(CC)CCOCCNc1cccc2c1cnc1ccc(Br)cc12

>  <score_type>  (7) 
oracle

>  <origin>  (7) 
adg

>  <m_score__min__energy>  (7) 
-7.7699999999999996

>  <m_primary>  (7) 
energy

$$$$
7:0
     RDKit          3D

 40 42  0  0  0  0  0  0  0  0999 V2000
   58.1720   25.1510   45.8370 C   0  0  0  0  0  0  0  0  0  0  0  0
   58.5420   26.4000   45.0130 C   0  0  1  0  0  0  0  0  0  0  0  0
   57.4660   26.8140   44.0750 N   0  0  0  0  0  0  0  0  0  0  0  0
   57.7700   27.9530   43.1820 C   0  0  0  0  0  0  0  0  0  0  0  0
   57.4120   29.2780   43.7850 C   0  0  0  0  0  0  0  0  0  0  0  0
   56.1410   29.7550   44.0110 C   0  0  0  0  0  0  0  0  0  0  0  0
   56.2610   30.9460   44.5420 O   0  0  0  0  0  0  0  0  0  0  0  0
   57.5470   31.2040   44.6400 C   0  0  0  0  0  0  0  0  0  0  0  0
   58.0920   32.4570   45.1990 C   0  0  0  0  0  0  0  0  0  0  0  0
   58.5410   33.4780   44.3420 C   0  0  0  0  0  0  0  0  0  0  0  0
   59.0550   34.6670   44.8690 C   0  0  0  0  0  0  0  0  0  0  0  0
   59.1230   34.8480   46.2530 C   0  0  0  0  0  0  0  0  0  0  0  0
   59.6210   36.0030   46.7610 F   0  0  0  0  0  0  0  0  0  0  0  0
   58.6780   33.8400   47.1130 C   0  0  0  0  0  0  0  0  0  0  0  0
   58.1640   32.6500   46.5900 C   0  0  0  0  0  0  0  0  0  0  0  0
   58.3160   30.1960   44.1740 N   0  0  0  0  0  0  0  0  0  0  0  0
   59.0860   27.5580   45.8430 C   0  0  0  0  0  0  0  0  0  0  0  0
   60.2530   28.2150   45.4110 C   0  0  0  0  0  0  0  0  0  0  0  0
   60.7610   29.3060   46.1230 C   0  0  0  0  0  0  0  0  0  0  0  0
   60.1050   29.7610   47.2680 C   0  0  0  0  0  0  0  0  0  0  0  0
   58.9370   29.1310   47.7010 C   0  0  0  0  0  0  0  0  0  0  0  0
   58.4250   28.0390   46.9940 C   0  0  0  0  0  0  0  0  0  0  0  0
   58.2415   25.3855   46.9095 H   0  0  0  0  0  0  0  0  0  0  0  0
   57.1441   24.8432   45.5948 H   0  0  0  0  0  0  0  0  0  0  0  0
   58.8664   24.3330   45.5948 H   0  0  0  0  0  0  0  0  0  0  0  0
   59.3897   26.0824   44.3881 H   0  0  0  0  0  0  0  0  0  0  0  0
   56.5860   27.0080   44.6070 H   0  0  0  0  0  0  0  0  0  0  0  0
   57.2550   25.9940   43.4590 H   0  0  0  0  0  0  0  0  0  0  0  0
   58.8475   27.9477   42.9605 H   0  0  0  0  0  0  0  0  0  0  0  0
   57.1647   27.8299   42.2718 H   0  0  0  0  0  0  0  0  0  0  0  0
   55.1991   29.2327   43.7871 H   0  0  0  0  0  0  0  0  0  0  0  0
   58.4876   33.3405   43.2519 H   0  0  0  0  0  0  0  0  0  0  0  0
   59.4062   35.4608   44.1933 H   0  0  0  0  0  0  0  0  0  0  0  0
   58.7323   33.9833   48.2023 H   0  0  0  0  0  0  0  0  0  0  0  0
   57.8138   31.8599   47.2705 H   0  0  0  0  0  0  0  0  0  0  0  0
   60.7704   27.8671   44.5048 H   0  0  0  0  0  0  0  0  0  0  0  0
   61.6788   29.8063   45.7803 H   0  0  0  0  0  0  0  0  0  0  0  0
   60.5087   30.6165   47.8294 H   0  0  0  0  0  0  0  0  0  0  0  0
   58.4184   29.4945   48.6004 H   0  0  0  0  0  0  0  0  0  0  0  0
   57.5007   27.5512   47.3369 H   0  0  0  0  0  0  0  0  0  0  0  0
  1  2  1  0
  2  3  1  0
  3  4  1  0
  4  5  1  0
  5  6  2  0
  6  7  1  0
  7  8  1  0
  8  9  1  0
  9 10  2  0
 10 11  1  0
 11 12  2  0
 12 13  1  0
 12 14  1  0
 14 15  2  0
  8 16  2  0
  2 17  1  0
 17 18  2  0
 18 19  1  0
 19 20  2  0
 20 21  1  0
 21 22  2  0
 16  5  1  0
 22 17  1  0
 15  9  1  0
  1 23  1  0
  1 24  1  0
  1 25  1  0
  2 26  1  6
  3 27  1  0
  3 28  1  0
  4 29  1  0
  4 30  1  0
  6 31  1  0
 10 32  1  0
 11 33  1  0
 14 34  1  0
 15 35  1  0
 18 36  1  0
 19 37  1  0
 20 38  1  0
 21 39  1  0
 22 40  1  0
M  CHG  1   3   1
M  END
>  <UniqueID>  (8) 
8

>  <SMILES>  (8) 
C[C@@H]([NH2+]Cc1coc(-c2ccc(F)cc2)n1)c1ccccc1

>  <Energy>  (8) 
76.49541350098066

>  <Genealogy>  (8) 
CC([NH2+]Cc1coc(-c2ccc(F)cc2)n1)c1ccccc1 (protonated)
C[C@@H]([NH2+]Cc1coc(-c2ccc(F)cc2)n1)c1ccccc1 (chirality)
C[C@@H]([NH2+]Cc1coc(-c2ccc(F)cc2)n1)c1ccccc1 (3D coordinates assigned)
C[C@@H]([NH2+]Cc1coc(-c2ccc(F)cc2)n1)c1ccccc1 (optimized conformer: 76.49541350098066 kcal/mol)

>  <smiles>  (8) 
CC(NCc1coc(-c2ccc(F)cc2)n1)c1ccccc1

>  <score_type>  (8) 
oracle

>  <origin>  (8) 
adg

>  <m_score__min__energy>  (8) 
-5.7699999999999996

>  <m_primary>  (8) 
energy

$$$$
8:0
     RDKit          3D

 36 38  0  0  0  0  0  0  0  0999 V2000
   60.4360   27.7750   48.0180 C   0  0  0  0  0  0  0  0  0  0  0  0
   59.5450   28.0200   46.8380 C   0  0  0  0  0  0  0  0  0  0  0  0
   60.0840   28.4780   45.6270 C   0  0  0  0  0  0  0  0  0  0  0  0
   59.2590   28.6700   44.5150 C   0  0  0  0  0  0  0  0  0  0  0  0
   57.8840   28.3940   44.5880 C   0  0  0  0  0  0  0  0  0  0  0  0
   57.0630   28.5970   43.4210 N   0  0  0  0  0  0  0  0  0  0  0  0
   56.5320   29.8960   43.0060 C   0  0  0  0  0  0  0  0  0  0  0  0
   57.1200   31.0010   43.8380 C   0  0  0  0  0  0  0  0  0  0  0  0
   56.9940   31.0420   45.1910 N   0  0  0  0  0  0  0  0  0  0  0  0
   57.6500   32.1680   45.5230 C   0  0  0  0  0  0  0  0  0  0  0  0
   57.8550   32.6820   46.8030 C   0  0  0  0  0  0  0  0  0  0  0  0
   58.5990   33.8710   46.9190 C   0  0  0  0  0  0  0  0  0  0  0  0
   59.1140   34.5080   45.7680 C   0  0  0  0  0  0  0  0  0  0  0  0
   58.8900   33.9630   44.4900 C   0  0  0  0  0  0  0  0  0  0  0  0
   58.1420   32.7850   44.4090 C   0  0  0  0  0  0  0  0  0  0  0  0
   57.7920   32.0700   43.3270 N   0  0  0  0  0  0  0  0  0  0  0  0
   58.1500   32.3190   41.9320 C   0  0  0  0  0  0  0  0  0  0  0  0
   57.3490   27.9190   45.8020 C   0  0  0  0  0  0  0  0  0  0  0  0
   58.1760   27.7280   46.9130 C   0  0  0  0  0  0  0  0  0  0  0  0
   59.8667   27.9315   48.9461 H   0  0  0  0  0  0  0  0  0  0  0  0
   60.8095   26.7408   47.9870 H   0  0  0  0  0  0  0  0  0  0  0  0
   61.2858   28.4728   47.9870 H   0  0  0  0  0  0  0  0  0  0  0  0
   61.1613   28.6872   45.5518 H   0  0  0  0  0  0  0  0  0  0  0  0
   59.6910   29.0408   43.5738 H   0  0  0  0  0  0  0  0  0  0  0  0
   56.8250   27.7710   42.8270 H   0  0  0  0  0  0  0  0  0  0  0  0
   56.7828   30.0675   41.9488 H   0  0  0  0  0  0  0  0  0  0  0  0
   55.4407   29.8922   43.1437 H   0  0  0  0  0  0  0  0  0  0  0  0
   57.4493   32.1757   47.6913 H   0  0  0  0  0  0  0  0  0  0  0  0
   58.7807   34.3072   47.9123 H   0  0  0  0  0  0  0  0  0  0  0  0
   59.6943   35.4367   45.8715 H   0  0  0  0  0  0  0  0  0  0  0  0
   59.2895   34.4470   43.5866 H   0  0  0  0  0  0  0  0  0  0  0  0
   59.0524   32.9467   41.8915 H   0  0  0  0  0  0  0  0  0  0  0  0
   58.3463   31.3615   41.4273 H   0  0  0  0  0  0  0  0  0  0  0  0
   57.3207   32.8362   41.4273 H   0  0  0  0  0  0  0  0  0  0  0  0
   56.2742   27.6971   45.8760 H   0  0  0  0  0  0  0  0  0  0  0  0
   57.7495   27.3460   47.8523 H   0  0  0  0  0  0  0  0  0  0  0  0
  1  2  1  0
  2  3  2  0
  3  4  1  0
  4  5  2  0
  5  6  1  0
  6  7  1  0
  7  8  1  0
  8  9  2  0
  9 10  1  0
 10 11  2  0
 11 12  1  0
 12 13  2  0
 13 14  1  0
 14 15  2  0
 15 16  1  0
 16 17  1  0
  5 18  1  0
 18 19  2  0
 19  2  1  0
 16  8  1  0
 15 10  1  0
  1 20  1  0
  1 21  1  0
  1 22  1  0
  3 23  1  0
  4 24  1  0
  6 25  1  0
  7 26  1  0
  7 27  1  0
 11 28  1  0
 12 29  1  0
 13 30  1  0
 14 31  1  0
 17 32  1  0
 17 33  1  0
 17 34  1  0
 18 35  1  0
 19 36  1  0
M  END
>  <UniqueID>  (9) 
9

>  <SMILES>  (9) 
Cc1ccc(NCc2nc3ccccc3n2C)cc1

>  <Energy>  (9) 
73.55332855821864

>  <Genealogy>  (9) 
Cc1ccc(NCc2nc3ccccc3n2C)cc1 (3D coordinates assigned)
Cc1ccc(NCc2nc3ccccc3n2C)cc1 (optimized conformer: 73.55332855821864 kcal/mol)

>  <smiles>  (9) 
Cc1ccc(NCc2nc3ccccc3n2C)cc1

>  <score_type>  (9) 
oracle

>  <origin>  (9) 
adg

>  <m_score__min__energy>  (9) 
-7.5800000000000001

>  <m_primary>  (9) 
energy

$$$$
9:0
     RDKit          3D

 51 52  0  0  0  0  0  0  0  0999 V2000
   59.6410   28.5080   46.1900 C   0  0  0  0  0  0  0  0  0  0  0  0
   59.6200   29.4790   45.0050 C   0  0  0  0  0  0  0  0  0  0  0  0
   58.4130   29.3690   44.1570 N   0  0  0  0  0  0  0  0  0  0  0  0
   57.7030   28.0840   44.3120 C   0  0  0  0  0  0  0  0  0  0  0  0
   58.1490   27.0880   43.2460 C   0  0  0  0  0  0  0  0  0  0  0  0
   57.3590   30.7730   44.2600 S   0  0  0  0  0  0  0  0  0  0  0  0
   57.2430   31.4210   42.9060 O   0  0  0  0  0  0  0  0  0  0  0  0
   55.9840   30.3130   44.6560 O   0  0  0  0  0  0  0  0  0  0  0  0
   57.8910   31.9900   45.4310 C   0  0  0  0  0  0  0  0  0  0  0  0
   58.1190   33.3080   45.0160 C   0  0  0  0  0  0  0  0  0  0  0  0
   58.5630   34.2680   45.9270 C   0  0  0  0  0  0  0  0  0  0  0  0
   58.7870   33.9230   47.2630 C   0  0  0  0  0  0  0  0  0  0  0  0
   59.2620   34.8700   48.1100 F   0  0  0  0  0  0  0  0  0  0  0  0
   58.5740   32.5990   47.6970 C   0  0  0  0  0  0  0  0  0  0  0  0
   58.8010   32.2060   49.1060 C   0  0  0  0  0  0  0  0  0  0  0  0
   59.9030   31.6870   49.4360 O   0  0  0  0  0  0  0  0  0  0  0  0
   57.7600   32.3500   50.0860 N   0  0  0  0  0  0  0  0  0  0  0  0
   57.9880   32.2180   51.4980 C   0  0  0  0  0  0  0  0  0  0  0  0
   58.9330   33.0530   52.1140 C   0  0  0  0  0  0  0  0  0  0  0  0
   59.1880   32.9530   53.4940 C   0  0  0  0  0  0  0  0  0  0  0  0
   60.1150   33.7780   54.1490 O   0  0  0  0  0  0  0  0  0  0  0  0
   59.7640   34.8770   54.9840 C   0  0  0  0  0  0  0  0  0  0  0  0
   58.5000   32.0000   54.2460 C   0  0  0  0  0  0  0  0  0  0  0  0
   57.5770   31.1450   53.6390 C   0  0  0  0  0  0  0  0  0  0  0  0
   57.3220   31.2350   52.2590 C   0  0  0  0  0  0  0  0  0  0  0  0
   56.4390   30.3550   51.6120 O   0  0  0  0  0  0  0  0  0  0  0  0
   55.0880   30.1310   52.0040 C   0  0  0  0  0  0  0  0  0  0  0  0
   58.1520   31.6350   46.7630 C   0  0  0  0  0  0  0  0  0  0  0  0
   59.6287   29.0775   47.1310 H   0  0  0  0  0  0  0  0  0  0  0  0
   58.7568   27.8552   46.1449 H   0  0  0  0  0  0  0  0  0  0  0  0
   60.5526   27.8941   46.1449 H   0  0  0  0  0  0  0  0  0  0  0  0
   59.6742   30.5050   45.3978 H   0  0  0  0  0  0  0  0  0  0  0  0
   60.4798   29.2225   44.3687 H   0  0  0  0  0  0  0  0  0  0  0  0
   57.9208   27.6691   45.3072 H   0  0  0  0  0  0  0  0  0  0  0  0
   56.6232   28.2614   44.1998 H   0  0  0  0  0  0  0  0  0  0  0  0
   58.5524   26.1872   43.7317 H   0  0  0  0  0  0  0  0  0  0  0  0
   57.2884   26.8122   42.6188 H   0  0  0  0  0  0  0  0  0  0  0  0
   58.9278   27.5464   42.6188 H   0  0  0  0  0  0  0  0  0  0  0  0
   57.9472   33.5883   43.9663 H   0  0  0  0  0  0  0  0  0  0  0  0
   58.7375   35.3011   45.5919 H   0  0  0  0  0  0  0  0  0  0  0  0
   56.7710   32.3550   49.7500 H   0  0  0  0  0  0  0  0  0  0  0  0
   59.4799   33.7933   51.5116 H   0  0  0  0  0  0  0  0  0  0  0  0
   59.8586   34.5807   56.0391 H   0  0  0  0  0  0  0  0  0  0  0  0
   60.4367   35.7228   54.7789 H   0  0  0  0  0  0  0  0  0  0  0  0
   58.7256   35.1763   54.7789 H   0  0  0  0  0  0  0  0  0  0  0  0
   58.6862   31.9212   55.3273 H   0  0  0  0  0  0  0  0  0  0  0  0
   57.0459   30.3960   54.2448 H   0  0  0  0  0  0  0  0  0  0  0  0
   55.0218   30.1200   53.1020 H   0  0  0  0  0  0  0  0  0  0  0  0
   54.4525   30.9360   51.6064 H   0  0  0  0  0  0  0  0  0  0  0  0
   54.7464   29.1640   51.6064 H   0  0  0  0  0  0  0  0  0  0  0  0
   58.0251   30.5897   47.0812 H   0  0  0  0  0  0  0  0  0  0  0  0
  1  2  1  0
  2  3  1  0
  3  4  1  0
  4  5  1  0
  3  6  1  0
  6  7  2  0
  6  8  2  0
  6  9  1  0
  9 10  2  0
 10 11  1  0
 11 12  2  0
 12 13  1  0
 12 14  1  0
 14 15  1  0
 15 16  2  0
 15 17  1  0
 17 18  1  0
 18 19  2  0
 19 20  1  0
 20 21  1  0
 21 22  1  0
 20 23  2  0
 23 24  1  0
 24 25  2  0
 25 26  1  0
 26 27  1  0
 14 28  2  0
 28  9  1  0
 25 18  1  0
  1 29  1  0
  1 30  1  0
  1 31  1  0
  2 32  1  0
  2 33  1  0
  4 34  1  0
  4 35  1  0
  5 36  1  0
  5 37  1  0
  5 38  1  0
 10 39  1  0
 11 40  1  0
 17 41  1  0
 19 42  1  0
 22 43  1  0
 22 44  1  0
 22 45  1  0
 23 46  1  0
 24 47  1  0
 27 48  1  0
 27 49  1  0
 27 50  1  0
 28 51  1  0
M  END
>  <UniqueID>  (10) 
10

>  <SMILES>  (10) 
CCN(CC)S(=O)(=O)c1ccc(F)c(C(=O)Nc2cc(OC)ccc2OC)c1

>  <Energy>  (10) 
58.73252256840107

>  <Genealogy>  (10) 
CCN(CC)S(=O)(=O)c1ccc(F)c(C(=O)Nc2cc(OC)ccc2OC)c1 (3D coordinates assigned)
CCN(CC)S(=O)(=O)c1ccc(F)c(C(=O)Nc2cc(OC)ccc2OC)c1 (optimized conformer: 58.73252256840107 kcal/mol)

>  <smiles>  (10) 
CCN(CC)S(=O)(=O)c1ccc(F)c(C(=O)Nc2cc(OC)ccc2OC)c1

>  <score_type>  (10) 
oracle

>  <origin>  (10) 
adg

>  <m_score__min__energy>  (10) 
-8.3599999999999994

>  <m_primary>  (10) 
energy

$$$$
10:0
     RDKit          3D

 40 41  0  0  0  0  0  0  0  0999 V2000
   57.3990   33.5530   45.2530 C   0  0  0  0  0  0  0  0  0  0  0  0
   57.5850   32.3390   44.3490 C   0  0  0  0  0  0  0  0  0  0  0  0
   56.9870   31.1970   44.9340 O   0  0  0  0  0  0  0  0  0  0  0  0
   56.0830   30.5700   44.0430 C   0  0  0  0  0  0  0  0  0  0  0  0
   56.7250   29.3480   43.3560 C   0  0  0  0  0  0  0  0  0  0  0  0
   58.1260   29.1270   43.7640 N   0  0  0  0  0  0  0  0  0  0  0  0
   58.2380   28.2910   44.9700 C   0  0  0  0  0  0  0  0  0  0  0  0
   59.1350   28.9440   45.9800 C   0  0  0  0  0  0  0  0  0  0  0  0
   59.6670   30.1720   45.8260 N   0  0  0  0  0  0  0  0  0  0  0  0
   60.4450   30.3170   46.9230 C   0  0  0  0  0  0  0  0  0  0  0  0
   61.2420   31.5320   47.2060 C   0  0  0  0  0  0  0  0  0  0  0  0
   62.6470   31.4630   47.2330 C   0  0  0  0  0  0  0  0  0  0  0  0
   63.4070   32.6060   47.5000 C   0  0  0  0  0  0  0  0  0  0  0  0
   62.7760   33.8280   47.7400 C   0  0  0  0  0  0  0  0  0  0  0  0
   61.3820   33.9090   47.7160 C   0  0  0  0  0  0  0  0  0  0  0  0
   60.6140   32.7710   47.4500 C   0  0  0  0  0  0  0  0  0  0  0  0
   59.2610   32.8850   47.4340 F   0  0  0  0  0  0  0  0  0  0  0  0
   60.4170   29.2590   47.7050 O   0  0  0  0  0  0  0  0  0  0  0  0
   59.6200   28.3860   47.1440 C   0  0  0  0  0  0  0  0  0  0  0  0
   59.3130   27.0360   47.7000 C   0  0  0  0  0  0  0  0  0  0  0  0
   57.4474   33.2372   46.3056 H   0  0  0  0  0  0  0  0  0  0  0  0
   58.1955   34.2848   45.0527 H   0  0  0  0  0  0  0  0  0  0  0  0
   56.4199   34.0127   45.0527 H   0  0  0  0  0  0  0  0  0  0  0  0
   57.1146   32.5363   43.3744 H   0  0  0  0  0  0  0  0  0  0  0  0
   58.6608   32.1522   44.2161 H   0  0  0  0  0  0  0  0  0  0  0  0
   55.1974   30.2397   44.6056 H   0  0  0  0  0  0  0  0  0  0  0  0
   55.8038   31.2965   43.2657 H   0  0  0  0  0  0  0  0  0  0  0  0
   56.1395   28.4532   43.6138 H   0  0  0  0  0  0  0  0  0  0  0  0
   56.7243   29.5413   42.2731 H   0  0  0  0  0  0  0  0  0  0  0  0
   58.6660   28.6960   42.9780 H   0  0  0  0  0  0  0  0  0  0  0  0
   58.5470   30.0650   43.9680 H   0  0  0  0  0  0  0  0  0  0  0  0
   57.2388   28.1528   45.4088 H   0  0  0  0  0  0  0  0  0  0  0  0
   58.6668   27.3175   44.6898 H   0  0  0  0  0  0  0  0  0  0  0  0
   63.1508   30.5038   47.0429 H   0  0  0  0  0  0  0  0  0  0  0  0
   64.5049   32.5421   47.5210 H   0  0  0  0  0  0  0  0  0  0  0  0
   63.3762   34.7261   47.9478 H   0  0  0  0  0  0  0  0  0  0  0  0
   60.8860   34.8720   47.9071 H   0  0  0  0  0  0  0  0  0  0  0  0
   59.3233   27.0811   48.7990 H   0  0  0  0  0  0  0  0  0  0  0  0
   58.3189   26.7149   47.3555 H   0  0  0  0  0  0  0  0  0  0  0  0
   60.0705   26.3166   47.3555 H   0  0  0  0  0  0  0  0  0  0  0  0
  1  2  1  0
  2  3  1  0
  3  4  1  0
  4  5  1  0
  5  6  1  0
  6  7  1  0
  7  8  1  0
  8  9  1  0
  9 10  2  0
 10 11  1  0
 11 12  2  0
 12 13  1  0
 13 14  2  0
 14 15  1  0
 15 16  2  0
 16 17  1  0
 10 18  1  0
 18 19  1  0
 19 20  1  0
 19  8  2  0
 16 11  1  0
  1 21  1  0
  1 22  1  0
  1 23  1  0
  2 24  1  0
  2 25  1  0
  4 26  1  0
  4 27  1  0
  5 28  1  0
  5 29  1  0
  6 30  1  0
  6 31  1  0
  7 32  1  0
  7 33  1  0
 12 34  1  0
 13 35  1  0
 14 36  1  0
 15 37  1  0
 20 38  1  0
 20 39  1  0
 20 40  1  0
M  CHG  1   6   1
M  END
>  <UniqueID>  (11) 
11

>  <SMILES>  (11) 
CCOCC[NH2+]Cc1nc(-c2ccccc2F)oc1C

>  <Energy>  (11) 
68.3937939683829

>  <Genealogy>  (11) 
CCOCC[NH2+]Cc1nc(-c2ccccc2F)oc1C (protonated)
CCOCC[NH2+]Cc1nc(-c2ccccc2F)oc1C (3D coordinates assigned)
CCOCC[NH2+]Cc1nc(-c2ccccc2F)oc1C (optimized conformer: 68.3937939683829 kcal/mol)

>  <smiles>  (11) 
CCOCCNCc1nc(-c2ccccc2F)oc1C

>  <score_type>  (11) 
oracle

>  <origin>  (11) 
adg

>  <m_score__min__energy>  (11) 
-5.4100000000000001

>  <m_primary>  (11) 
energy

$$$$
11:0
     RDKit          3D

 49 51  0  0  0  0  0  0  0  0999 V2000
   58.8760   27.8770   44.1100 C   0  0  0  0  0  0  0  0  0  0  0  0
   58.4400   27.3450   45.4720 C   0  0  0  0  0  0  0  0  0  0  0  0
   59.5760   27.0510   46.3890 N   0  0  0  0  0  0  0  0  0  0  0  0
   59.8130   25.5820   46.3540 C   0  0  0  0  0  0  0  0  0  0  0  0
   58.5500   24.8110   45.9890 C   0  0  0  0  0  0  0  0  0  0  0  0
   59.2840   27.4770   47.7890 C   0  0  0  0  0  0  0  0  0  0  0  0
   59.6020   28.9590   48.0640 C   0  0  0  0  0  0  0  0  0  0  0  0
   60.2620   29.6260   46.9350 N   0  0  0  0  0  0  0  0  0  0  0  0
   60.2630   31.0540   46.7420 C   0  0  0  0  0  0  0  0  0  0  0  0
   59.1690   31.6840   46.1210 C   0  0  0  0  0  0  0  0  0  0  0  0
   58.1500   30.9330   45.4990 C   0  0  0  0  0  0  0  0  0  0  0  0
   57.0800   31.5680   44.8710 C   0  0  0  0  0  0  0  0  0  0  0  0
   57.0120   32.9550   44.8430 C   0  0  0  0  0  0  0  0  0  0  0  0
   58.0030   33.7200   45.4580 C   0  0  0  0  0  0  0  0  0  0  0  0
   59.0900   33.1040   46.1290 C   0  0  0  0  0  0  0  0  0  0  0  0
   60.0590   33.8460   46.7750 N   0  0  0  0  0  0  0  0  0  0  0  0
   59.8260   35.2770   47.0710 C   0  0  0  0  0  0  0  0  0  0  0  0
   61.2530   33.2490   47.1290 C   0  0  0  0  0  0  0  0  0  0  0  0
   62.3910   34.0110   47.4860 C   0  0  0  0  0  0  0  0  0  0  0  0
   63.5920   33.3760   47.7970 C   0  0  0  0  0  0  0  0  0  0  0  0
   63.6900   32.0260   47.7260 N   0  0  0  0  0  0  0  0  0  0  0  0
   62.6300   31.2550   47.3710 C   0  0  0  0  0  0  0  0  0  0  0  0
   61.3760   31.8370   47.1020 C   0  0  0  0  0  0  0  0  0  0  0  0
   59.5676   28.7208   44.2502 H   0  0  0  0  0  0  0  0  0  0  0  0
   59.3820   27.0775   43.5489 H   0  0  0  0  0  0  0  0  0  0  0  0
   57.9927   28.2162   43.5489 H   0  0  0  0  0  0  0  0  0  0  0  0
   57.7941   28.0972   45.9486 H   0  0  0  0  0  0  0  0  0  0  0  0
   57.9150   26.3949   45.2941 H   0  0  0  0  0  0  0  0  0  0  0  0
   60.5906   25.3649   45.6068 H   0  0  0  0  0  0  0  0  0  0  0  0
   60.1284   25.2636   47.3586 H   0  0  0  0  0  0  0  0  0  0  0  0
   58.0342   24.4961   46.9081 H   0  0  0  0  0  0  0  0  0  0  0  0
   57.8842   25.4568   45.3977 H   0  0  0  0  0  0  0  0  0  0  0  0
   58.8201   23.9236   45.3977 H   0  0  0  0  0  0  0  0  0  0  0  0
   58.2153   27.3084   47.9876 H   0  0  0  0  0  0  0  0  0  0  0  0
   59.9323   26.8812   48.4483 H   0  0  0  0  0  0  0  0  0  0  0  0
   58.6602   29.4850   48.2792 H   0  0  0  0  0  0  0  0  0  0  0  0
   60.2968   28.9925   48.9161 H   0  0  0  0  0  0  0  0  0  0  0  0
   60.7970   29.0320   46.2620 H   0  0  0  0  0  0  0  0  0  0  0  0
   58.2003   29.8342   45.5097 H   0  0  0  0  0  0  0  0  0  0  0  0
   56.2881   30.9697   44.3967 H   0  0  0  0  0  0  0  0  0  0  0  0
   56.1732   33.4522   44.3338 H   0  0  0  0  0  0  0  0  0  0  0  0
   57.9405   34.8176   45.4220 H   0  0  0  0  0  0  0  0  0  0  0  0
   59.8016   35.4268   48.1605 H   0  0  0  0  0  0  0  0  0  0  0  0
   60.6381   35.8783   46.6363 H   0  0  0  0  0  0  0  0  0  0  0  0
   58.8651   35.5896   46.6363 H   0  0  0  0  0  0  0  0  0  0  0  0
   62.3273   35.1087   47.5181 H   0  0  0  0  0  0  0  0  0  0  0  0
   64.4643   33.9731   48.1014 H   0  0  0  0  0  0  0  0  0  0  0  0
   64.6080   31.5700   47.9260 H   0  0  0  0  0  0  0  0  0  0  0  0
   62.7520   30.1646   47.2927 H   0  0  0  0  0  0  0  0  0  0  0  0
  1  2  1  0
  2  3  1  0
  3  4  1  0
  4  5  1  0
  3  6  1  0
  6  7  1  0
  7  8  1  0
  8  9  1  0
  9 10  2  0
 10 11  1  0
 11 12  2  0
 12 13  1  0
 13 14  2  0
 14 15  1  0
 15 16  2  0
 16 17  1  0
 16 18  1  0
 18 19  2  0
 19 20  1  0
 20 21  2  0
 21 22  1  0
 22 23  2  0
 23  9  1  0
 15 10  1  0
 23 18  1  0
  1 24  1  0
  1 25  1  0
  1 26  1  0
  2 27  1  0
  2 28  1  0
  4 29  1  0
  4 30  1  0
  5 31  1  0
  5 32  1  0
  5 33  1  0
  6 34  1  0
  6 35  1  0
  7 36  1  0
  7 37  1  0
  8 38  1  0
 11 39  1  0
 12 40  1  0
 13 41  1  0
 14 42  1  0
 17 43  1  0
 17 44  1  0
 17 45  1  0
 19 46  1  0
 20 47  1  0
 21 48  1  0
 22 49  1  0
M  CHG  2  16   1  21   1
M  END
>  <UniqueID>  (12) 
12

>  <SMILES>  (12) 
CCN(CC)CCNc1c2ccccc2[n+](C)c2cc[nH+]cc12

>  <Energy>  (12) 
77.66394982402807

>  <Genealogy>  (12) 
CCN(CC)CCNc1c2ccccc2[n+](C)c2cc[nH+]cc12 (protonated)
CCN(CC)CCNc1c2ccccc2[n+](C)c2cc[nH+]cc12 (3D coordinates assigned)
CCN(CC)CCNc1c2ccccc2[n+](C)c2cc[nH+]cc12 (optimized conformer: 77.66394982402807 kcal/mol)

>  <smiles>  (12) 
CCN(CC)CCNc1c2ccccc2[n+](C)c2ccncc12

>  <score_type>  (12) 
oracle

>  <origin>  (12) 
adg

>  <m_score__min__energy>  (12) 
-3.96

>  <m_primary>  (12) 
energy

$$$$
12:0
     RDKit          3D

 41 42  0  0  0  0  0  0  0  0999 V2000
   59.0000   30.5400   47.0660 C   0  0  0  0  0  0  0  0  0  0  0  0
   58.8360   30.7080   45.5450 C   0  0  0  0  0  0  0  0  0  0  0  0
   57.8440   31.7350   45.1370 N   0  0  0  0  0  0  0  0  0  0  0  0
   56.6420   31.1810   44.4650 C   0  0  0  0  0  0  0  0  0  0  0  0
   56.9710   29.8700   43.7540 C   0  0  0  0  0  0  0  0  0  0  0  0
   58.4600   32.8540   44.3910 C   0  0  0  0  0  0  0  0  0  0  0  0
   58.0660   34.2010   45.0090 C   0  0  0  0  0  0  0  0  0  0  0  0
   58.3560   34.1850   46.7700 S   0  0  0  0  0  0  0  0  0  0  0  0
   57.3710   33.1050   47.5900 O   0  0  0  0  0  0  0  0  0  0  0  0
   60.0580   33.9630   47.1640 C   0  0  0  0  0  0  0  0  0  0  0  0
   60.9860   33.9930   46.1140 C   0  0  0  0  0  0  0  0  0  0  0  0
   62.3480   33.8190   46.3600 C   0  0  0  0  0  0  0  0  0  0  0  0
   62.8070   33.6420   47.6620 C   0  0  0  0  0  0  0  0  0  0  0  0
   61.8990   33.6310   48.7350 C   0  0  0  0  0  0  0  0  0  0  0  0
   62.3670   33.4730   50.0490 C   0  0  0  0  0  0  0  0  0  0  0  0
   61.4690   33.4710   51.1190 C   0  0  0  0  0  0  0  0  0  0  0  0
   60.0980   33.6160   50.8900 C   0  0  0  0  0  0  0  0  0  0  0  0
   59.6180   33.7620   49.5880 C   0  0  0  0  0  0  0  0  0  0  0  0
   60.5080   33.7800   48.4920 C   0  0  0  0  0  0  0  0  0  0  0  0
   58.3231   31.2334   47.5866 H   0  0  0  0  0  0  0  0  0  0  0  0
   58.7544   29.5059   47.3493 H   0  0  0  0  0  0  0  0  0  0  0  0
   60.0397   30.7607   47.3493 H   0  0  0  0  0  0  0  0  0  0  0  0
   59.8127   30.9889   45.1241 H   0  0  0  0  0  0  0  0  0  0  0  0
   58.4612   29.7461   45.1651 H   0  0  0  0  0  0  0  0  0  0  0  0
   55.8614   30.9965   45.2178 H   0  0  0  0  0  0  0  0  0  0  0  0
   56.2908   31.9077   43.7176 H   0  0  0  0  0  0  0  0  0  0  0  0
   57.1675   29.0870   44.5012 H   0  0  0  0  0  0  0  0  0  0  0  0
   56.1201   29.5708   43.1244 H   0  0  0  0  0  0  0  0  0  0  0  0
   57.8624   30.0080   43.1244 H   0  0  0  0  0  0  0  0  0  0  0  0
   59.5546   32.7491   44.4219 H   0  0  0  0  0  0  0  0  0  0  0  0
   58.1024   32.8244   43.3512 H   0  0  0  0  0  0  0  0  0  0  0  0
   58.6665   35.0001   44.5499 H   0  0  0  0  0  0  0  0  0  0  0  0
   56.9963   34.3793   44.8248 H   0  0  0  0  0  0  0  0  0  0  0  0
   57.2890   32.3200   46.9920 H   0  0  0  0  0  0  0  0  0  0  0  0
   60.6362   34.1557   45.0839 H   0  0  0  0  0  0  0  0  0  0  0  0
   63.0613   33.8217   45.5226 H   0  0  0  0  0  0  0  0  0  0  0  0
   63.8825   33.5104   47.8517 H   0  0  0  0  0  0  0  0  0  0  0  0
   63.4439   33.3504   50.2366 H   0  0  0  0  0  0  0  0  0  0  0  0
   61.8428   33.3547   52.1470 H   0  0  0  0  0  0  0  0  0  0  0  0
   59.3964   33.6150   51.7372 H   0  0  0  0  0  0  0  0  0  0  0  0
   58.5367   33.8640   49.4139 H   0  0  0  0  0  0  0  0  0  0  0  0
  1  2  1  0
  2  3  1  0
  3  4  1  0
  4  5  1  0
  3  6  1  0
  6  7  1  0
  7  8  1  0
  8  9  1  1
  8 10  1  0
 10 11  2  0
 11 12  1  0
 12 13  2  0
 13 14  1  0
 14 15  2  0
 15 16  1  0
 16 17  2  0
 17 18  1  0
 18 19  2  0
 19 10  1  0
 19 14  1  0
  1 20  1  0
  1 21  1  0
  1 22  1  0
  2 23  1  0
  2 24  1  0
  4 25  1  0
  4 26  1  0
  5 27  1  0
  5 28  1  0
  5 29  1  0
  6 30  1  0
  6 31  1  0
  7 32  1  0
  7 33  1  0
  9 34  1  0
 11 35  1  0
 12 36  1  0
 13 37  1  0
 15 38  1  0
 16 39  1  0
 17 40  1  0
 18 41  1  0
M  CHG  1   8   1
M  END
>  <UniqueID>  (13) 
13

>  <SMILES>  (13) 
CCN(CC)CC[S@@+](O)c1cccc2ccccc12

>  <Energy>  (13) 
39.0877299022599

>  <Genealogy>  (13) 
CCN(CC)CC[S+](O)c1cccc2ccccc12 (protonated)
CCN(CC)CC[S@@+](O)c1cccc2ccccc12 (chirality)
CCN(CC)CC[S@@+](O)c1cccc2ccccc12 (3D coordinates assigned)
CCN(CC)CC[S@@+](O)c1cccc2ccccc12 (optimized conformer: 39.0877299022599 kcal/mol)

>  <smiles>  (13) 
CCN(CC)CC[S+]([O-])c1cccc2ccccc12

>  <score_type>  (13) 
oracle

>  <origin>  (13) 
adg

>  <m_score__min__energy>  (13) 
-5.5

>  <m_primary>  (13) 
energy

$$$$
13:0
     RDKit          3D

 54 58  0  0  0  0  0  0  0  0999 V2000
   56.9150   29.3610   43.4480 C   0  0  0  0  0  0  0  0  0  0  0  0
   57.8030   28.2220   43.9390 C   0  0  0  0  0  0  0  0  0  0  0  0
   57.5590   27.9510   45.3200 O   0  0  0  0  0  0  0  0  0  0  0  0
   58.5380   27.8180   46.3220 C   0  0  0  0  0  0  0  0  0  0  0  0
   59.0140   26.5570   46.7320 C   0  0  0  0  0  0  0  0  0  0  0  0
   59.9970   26.4570   47.7160 C   0  0  0  0  0  0  0  0  0  0  0  0
   60.5260   27.6060   48.2990 C   0  0  0  0  0  0  0  0  0  0  0  0
   60.0750   28.8740   47.9030 C   0  0  0  0  0  0  0  0  0  0  0  0
   59.0730   28.9840   46.9180 C   0  0  0  0  0  0  0  0  0  0  0  0
   58.5760   30.3350   46.5670 C   0  0  0  0  0  0  0  0  0  0  0  0
   57.3990   30.4660   46.1330 O   0  0  0  0  0  0  0  0  0  0  0  0
   59.4120   31.5350   46.8640 C   0  0  0  0  0  0  0  0  0  0  0  0
   60.3920   31.4240   47.8830 C   0  0  0  0  0  0  0  0  0  0  0  0
   61.1130   32.5780   48.2720 C   0  0  0  0  0  0  0  0  0  0  0  0
   62.1540   32.5260   49.2550 N   0  0  0  0  0  0  0  0  0  0  0  0
   61.8640   32.8710   50.6510 C   0  0  0  0  0  0  0  0  0  0  0  0
   62.3090   31.7470   51.6130 C   0  0  0  0  0  0  0  0  0  0  0  0
   63.3680   30.8650   51.0540 N   0  0  0  0  0  0  0  0  0  0  0  0
   64.1510   30.2520   52.1400 C   0  0  0  0  0  0  0  0  0  0  0  0
   64.2600   31.5850   50.1240 C   0  0  0  0  0  0  0  0  0  0  0  0
   63.4740   32.0120   48.8790 C   0  0  0  0  0  0  0  0  0  0  0  0
   60.8560   33.7690   47.6790 N   0  0  0  0  0  0  0  0  0  0  0  0
   59.9550   33.9080   46.6780 C   0  0  0  0  0  0  0  0  0  0  0  0
   59.7800   35.1680   46.0920 C   0  0  0  0  0  0  0  0  0  0  0  0
   58.9140   35.3250   45.0120 C   0  0  0  0  0  0  0  0  0  0  0  0
   58.2360   34.2220   44.4970 C   0  0  0  0  0  0  0  0  0  0  0  0
   58.3980   32.9610   45.0760 C   0  0  0  0  0  0  0  0  0  0  0  0
   59.2320   32.7860   46.2070 C   0  0  0  0  0  0  0  0  0  0  0  0
   60.6290   30.0970   48.5210 C   0  0  0  0  0  0  0  0  0  0  0  0
   61.2810   30.0050   49.5950 O   0  0  0  0  0  0  0  0  0  0  0  0
   56.4963   29.8980   44.3119 H   0  0  0  0  0  0  0  0  0  0  0  0
   57.5125   30.0554   42.8390 H   0  0  0  0  0  0  0  0  0  0  0  0
   56.0959   28.9509   42.8390 H   0  0  0  0  0  0  0  0  0  0  0  0
   57.5890   27.3178   43.3503 H   0  0  0  0  0  0  0  0  0  0  0  0
   58.8558   28.5165   43.8170 H   0  0  0  0  0  0  0  0  0  0  0  0
   58.6071   25.6442   46.2724 H   0  0  0  0  0  0  0  0  0  0  0  0
   60.3561   25.4668   48.0330 H   0  0  0  0  0  0  0  0  0  0  0  0
   61.3016   27.5187   49.0741 H   0  0  0  0  0  0  0  0  0  0  0  0
   62.3994   33.7964   50.9097 H   0  0  0  0  0  0  0  0  0  0  0  0
   60.7774   33.0067   50.7558 H   0  0  0  0  0  0  0  0  0  0  0  0
   62.6933   32.2101   52.5338 H   0  0  0  0  0  0  0  0  0  0  0  0
   61.4282   31.1143   51.7969 H   0  0  0  0  0  0  0  0  0  0  0  0
   62.9050   30.0830   50.5310 H   0  0  0  0  0  0  0  0  0  0  0  0
   63.7437   30.5709   53.1108 H   0  0  0  0  0  0  0  0  0  0  0  0
   64.0935   29.1564   52.0602 H   0  0  0  0  0  0  0  0  0  0  0  0
   65.2008   30.5708   52.0602 H   0  0  0  0  0  0  0  0  0  0  0  0
   64.6658   32.4770   50.6237 H   0  0  0  0  0  0  0  0  0  0  0  0
   65.0847   30.9217   49.8239 H   0  0  0  0  0  0  0  0  0  0  0  0
   64.0320   32.7995   48.3514 H   0  0  0  0  0  0  0  0  0  0  0  0
   63.3415   31.1373   48.2253 H   0  0  0  0  0  0  0  0  0  0  0  0
   60.3282   36.0366   46.4858 H   0  0  0  0  0  0  0  0  0  0  0  0
   58.7655   36.3195   44.5660 H   0  0  0  0  0  0  0  0  0  0  0  0
   57.5699   34.3448   43.6303 H   0  0  0  0  0  0  0  0  0  0  0  0
   57.8720   32.0946   44.6487 H   0  0  0  0  0  0  0  0  0  0  0  0
  1  2  1  0
  2  3  1  0
  3  4  1  0
  4  5  2  0
  5  6  1  0
  6  7  2  0
  7  8  1  0
  8  9  2  0
  9 10  1  0
 10 11  2  0
 10 12  1  0
 12 13  2  0
 13 14  1  0
 14 15  1  0
 15 16  1  0
 16 17  1  0
 17 18  1  0
 18 19  1  0
 18 20  1  0
 20 21  1  0
 14 22  2  0
 22 23  1  0
 23 24  2  0
 24 25  1  0
 25 26  2  0
 26 27  1  0
 27 28  2  0
 13 29  1  0
 29 30  2  0
  9  4  1  0
 28 12  1  0
 29  8  1  0
 21 15  1  0
 28 23  1  0
  1 31  1  0
  1 32  1  0
  1 33  1  0
  2 34  1  0
  2 35  1  0
  5 36  1  0
  6 37  1  0
  7 38  1  0
 16 39  1  0
 16 40  1  0
 17 41  1  0
 17 42  1  0
 18 43  1  0
 19 44  1  0
 19 45  1  0
 19 46  1  0
 20 47  1  0
 20 48  1  0
 21 49  1  0
 21 50  1  0
 24 51  1  0
 25 52  1  0
 26 53  1  0
 27 54  1  0
M  CHG  1  18   1
M  END
>  <UniqueID>  (14) 
14

>  <SMILES>  (14) 
CCOc1cccc2c1C(=O)c1c(c(N3CC[NH+](C)CC3)nc3ccccc13)C2=O

>  <Energy>  (14) 
88.6736496755366

>  <Genealogy>  (14) 
CCOc1cccc2c1C(=O)c1c(c(N3CC[NH+](C)CC3)nc3ccccc13)C2=O (protonated)
CCOc1cccc2c1C(=O)c1c(c(N3CC[NH+](C)CC3)nc3ccccc13)C2=O (3D coordinates assigned)
CCOc1cccc2c1C(=O)c1c(c(N3CC[NH+](C)CC3)nc3ccccc13)C2=O (nonaromatic ring conformer: 88.6736496755366 kcal/mol)

>  <smiles>  (14) 
CCOc1cccc2c1C(=O)c1c(c(N3CCN(C)CC3)nc3ccccc13)C2=O

>  <score_type>  (14) 
oracle

>  <origin>  (14) 
adg

>  <m_score__min__energy>  (14) 
-6.7400000000000002

>  <m_primary>  (14) 
energy

$$$$
14:0
     RDKit          3D

 57 60  0  0  0  0  0  0  0  0999 V2000
   61.2990   33.8400   50.5520 C   0  0  0  0  0  0  0  0  0  0  0  0
   60.2110   33.5960   49.5110 C   0  0  0  0  0  0  0  0  0  0  0  0
   60.7320   33.8340   48.1610 N   0  0  0  0  0  0  0  0  0  0  0  0
   62.1420   34.2170   47.9760 C   0  0  0  0  0  0  0  0  0  0  0  0
   62.7770   33.4870   46.7790 C   0  0  0  0  0  0  0  0  0  0  0  0
   63.6390   32.3550   47.1880 N   0  0  0  0  0  0  0  0  0  0  0  0
   63.0740   31.6340   48.3280 C   0  0  0  0  0  0  0  0  0  0  0  0
   63.7500   31.6550   49.5820 C   0  0  0  0  0  0  0  0  0  0  0  0
   64.9840   32.3360   49.7530 C   0  0  0  0  0  0  0  0  0  0  0  0
   65.6730   32.2900   50.9610 C   0  0  0  0  0  0  0  0  0  0  0  0
   65.1550   31.5730   52.0290 C   0  0  0  0  0  0  0  0  0  0  0  0
   63.9300   30.9270   51.9060 C   0  0  0  0  0  0  0  0  0  0  0  0
   63.1800   30.9910   50.7030 C   0  0  0  0  0  0  0  0  0  0  0  0
   61.9260   30.4250   50.6120 N   0  0  0  0  0  0  0  0  0  0  0  0
   61.2000   30.0460   51.8470 C   0  0  0  0  0  0  0  0  0  0  0  0
   61.3330   30.2450   49.3810 C   0  0  0  0  0  0  0  0  0  0  0  0
   60.1890   29.4180   49.2380 C   0  0  0  0  0  0  0  0  0  0  0  0
   59.5300   29.2960   48.0200 C   0  0  0  0  0  0  0  0  0  0  0  0
   60.0040   29.9680   46.8980 C   0  0  0  0  0  0  0  0  0  0  0  0
   59.2630   29.8920   45.5930 C   0  0  0  0  0  0  0  0  0  0  0  0
   61.1560   30.7550   47.0010 C   0  0  0  0  0  0  0  0  0  0  0  0
   61.8640   30.8870   48.2220 C   0  0  0  0  0  0  0  0  0  0  0  0
   59.7990   33.9310   47.0670 C   0  0  0  0  0  0  0  0  0  0  0  0
   60.0180   34.8390   46.0150 C   0  0  0  0  0  0  0  0  0  0  0  0
   59.0920   34.9460   44.9740 C   0  0  0  0  0  0  0  0  0  0  0  0
   57.9440   34.1500   44.9690 C   0  0  0  0  0  0  0  0  0  0  0  0
   57.7220   33.2390   46.0060 C   0  0  0  0  0  0  0  0  0  0  0  0
   58.6440   33.1320   47.0530 C   0  0  0  0  0  0  0  0  0  0  0  0
   60.8699   33.7438   51.5603 H   0  0  0  0  0  0  0  0  0  0  0  0
   62.1024   33.0997   50.4232 H   0  0  0  0  0  0  0  0  0  0  0  0
   61.7093   34.8525   50.4232 H   0  0  0  0  0  0  0  0  0  0  0  0
   59.8636   32.5551   49.5871 H   0  0  0  0  0  0  0  0  0  0  0  0
   59.3766   34.2878   49.6984 H   0  0  0  0  0  0  0  0  0  0  0  0
   62.1970   35.3018   47.8022 H   0  0  0  0  0  0  0  0  0  0  0  0
   62.6962   33.9349   48.8834 H   0  0  0  0  0  0  0  0  0  0  0  0
   61.9724   33.1013   46.1357 H   0  0  0  0  0  0  0  0  0  0  0  0
   63.4122   34.2117   46.2486 H   0  0  0  0  0  0  0  0  0  0  0  0
   63.8710   31.7520   46.3750 H   0  0  0  0  0  0  0  0  0  0  0  0
   64.5860   32.7110   47.4440 H   0  0  0  0  0  0  0  0  0  0  0  0
   65.4035   32.9111   48.9143 H   0  0  0  0  0  0  0  0  0  0  0  0
   66.6293   32.8228   51.0689 H   0  0  0  0  0  0  0  0  0  0  0  0
   65.7140   31.5153   52.9746 H   0  0  0  0  0  0  0  0  0  0  0  0
   63.5343   30.3549   52.7581 H   0  0  0  0  0  0  0  0  0  0  0  0
   61.7866   30.3522   52.7257 H   0  0  0  0  0  0  0  0  0  0  0  0
   60.2216   30.5484   51.8660 H   0  0  0  0  0  0  0  0  0  0  0  0
   61.0529   28.9560   51.8660 H   0  0  0  0  0  0  0  0  0  0  0  0
   59.8153   28.8612   50.1100 H   0  0  0  0  0  0  0  0  0  0  0  0
   58.6313   28.6664   47.9433 H   0  0  0  0  0  0  0  0  0  0  0  0
   58.1862   29.7816   45.7887 H   0  0  0  0  0  0  0  0  0  0  0  0
   59.4385   30.8129   45.0175 H   0  0  0  0  0  0  0  0  0  0  0  0
   59.6218   29.0259   45.0175 H   0  0  0  0  0  0  0  0  0  0  0  0
   61.5225   31.2860   46.1101 H   0  0  0  0  0  0  0  0  0  0  0  0
   60.9212   35.4668   46.0119 H   0  0  0  0  0  0  0  0  0  0  0  0
   59.2676   35.6596   44.1555 H   0  0  0  0  0  0  0  0  0  0  0  0
   57.2154   34.2399   44.1499 H   0  0  0  0  0  0  0  0  0  0  0  0
   56.8223   32.6062   45.9988 H   0  0  0  0  0  0  0  0  0  0  0  0
   58.4632   32.4179   47.8699 H   0  0  0  0  0  0  0  0  0  0  0  0
  1  2  1  0
  2  3  1  0
  3  4  1  0
  4  5  1  0
  5  6  1  0
  6  7  1  0
  7  8  1  0
  8  9  2  0
  9 10  1  0
 10 11  2  0
 11 12  1  0
 12 13  2  0
 13 14  1  0
 14 15  1  0
 14 16  2  0
 16 17  1  0
 17 18  2  0
 18 19  1  0
 19 20  1  0
 19 21  2  0
 21 22  1  0
  3 23  1  0
 23 24  2  0
 24 25  1  0
 25 26  2  0
 26 27  1  0
 27 28  2  0
 22  7  2  0
 28 23  1  0
 13  8  1  0
 22 16  1  0
  1 29  1  0
  1 30  1  0
  1 31  1  0
  2 32  1  0
  2 33  1  0
  4 34  1  0
  4 35  1  0
  5 36  1  0
  5 37  1  0
  6 38  1  0
  6 39  1  0
  9 40  1  0
 10 41  1  0
 11 42  1  0
 12 43  1  0
 15 44  1  0
 15 45  1  0
 15 46  1  0
 17 47  1  0
 18 48  1  0
 20 49  1  0
 20 50  1  0
 20 51  1  0
 21 52  1  0
 24 53  1  0
 25 54  1  0
 26 55  1  0
 27 56  1  0
 28 57  1  0
M  CHG  2   6   1  14   1
M  END
>  <UniqueID>  (15) 
15

>  <SMILES>  (15) 
CCN(CC[NH2+]c1c2ccccc2[n+](C)c2ccc(C)cc12)c1ccccc1

>  <Energy>  (15) 
91.26457715939169

>  <Genealogy>  (15) 
CCN(CC[NH2+]c1c2ccccc2[n+](C)c2ccc(C)cc12)c1ccccc1 (protonated)
CCN(CC[NH2+]c1c2ccccc2[n+](C)c2ccc(C)cc12)c1ccccc1 (3D coordinates assigned)
CCN(CC[NH2+]c1c2ccccc2[n+](C)c2ccc(C)cc12)c1ccccc1 (optimized conformer: 91.26457715939169 kcal/mol)

>  <smiles>  (15) 
CCN(CCNc1c2ccccc2[n+](C)c2ccc(C)cc12)c1ccccc1

>  <score_type>  (15) 
oracle

>  <origin>  (15) 
adg

>  <m_score__min__energy>  (15) 
-5.4699999999999998

>  <m_primary>  (15) 
energy

$$$$
15:0
     RDKit          3D

 28 29  0  0  0  0  0  0  0  0999 V2000
   59.2630   35.8240   49.3470 H   0  0  0  0  0  0  0  0  0  0  0  0
   59.4440   34.9690   48.8360 O   0  0  0  0  0  0  0  0  0  0  0  0
   59.3440   34.9250   47.4630 N   0  0  0  0  0  0  0  0  0  0  0  0
   59.6660   35.8990   46.6570 O   0  0  0  0  0  0  0  0  0  0  0  0
   59.4750   35.6020   45.3930 N   0  0  0  0  0  0  0  0  0  0  0  0
   58.9960   34.3420   45.4100 C   0  0  0  0  0  0  0  0  0  0  0  0
   58.6200   33.5360   44.3400 C   0  0  0  0  0  0  0  0  0  0  0  0
   58.6772   33.9007   43.3038 H   0  0  0  0  0  0  0  0  0  0  0  0
   58.1620   32.2320   44.6330 C   0  0  0  0  0  0  0  0  0  0  0  0
   57.7350   31.3540   43.5250 C   0  0  0  0  0  0  0  0  0  0  0  0
   57.7279   31.7818   42.5116 H   0  0  0  0  0  0  0  0  0  0  0  0
   57.3550   30.0740   43.6600 C   0  0  0  0  0  0  0  0  0  0  0  0
   57.9302   29.3143   43.1104 H   0  0  0  0  0  0  0  0  0  0  0  0
   56.2270   29.6050   44.4870 C   0  0  0  0  0  0  0  0  0  0  0  0
   55.1600   30.2760   44.5030 O   0  0  0  0  0  0  0  0  0  0  0  0
   56.3140   28.4060   45.2020 O   0  0  0  0  0  0  0  0  0  0  0  0
   57.5530   27.8120   45.5710 C   0  0  0  0  0  0  0  0  0  0  0  0
   57.3981   27.1429   46.4303 H   0  0  0  0  0  0  0  0  0  0  0  0
   58.2710   28.5988   45.8457 H   0  0  0  0  0  0  0  0  0  0  0  0
   58.0980   27.0130   44.3970 C   0  0  0  0  0  0  0  0  0  0  0  0
   58.6804   26.1591   44.7734 H   0  0  0  0  0  0  0  0  0  0  0  0
   57.2619   26.6449   43.7843 H   0  0  0  0  0  0  0  0  0  0  0  0
   58.7458   27.6571   43.7843 H   0  0  0  0  0  0  0  0  0  0  0  0
   58.0490   31.8060   45.9870 C   0  0  0  0  0  0  0  0  0  0  0  0
   57.6525   30.8048   46.2115 H   0  0  0  0  0  0  0  0  0  0  0  0
   58.4400   32.6540   47.0420 C   0  0  0  0  0  0  0  0  0  0  0  0
   58.3747   32.3316   48.0917 H   0  0  0  0  0  0  0  0  0  0  0  0
   58.9120   33.9160   46.6990 C   0  0  0  0  0  0  0  0  0  0  0  0
  1  2  1  0
  2  3  1  0
  3  4  1  0
  4  5  1  0
  5  6  2  0
  6  7  1  0
  7  8  1  0
  7  9  2  0
  9 10  1  0
 10 11  1  0
 10 12  2  0
 12 13  1  0
 12 14  1  0
 14 15  2  0
 14 16  1  0
 16 17  1  0
 17 18  1  0
 17 19  1  0
 17 20  1  0
 20 21  1  0
 20 22  1  0
 20 23  1  0
  9 24  1  0
 24 25  1  0
 24 26  2  0
 26 27  1  0
 26 28  1  0
 28  3  2  0
 28  6  1  0
M  CHG  1   3   1
M  END
>  <UniqueID>  (16) 
16

>  <SMILES>  (16) 
CCOC(=O)/C=C\c1ccc2c(c1)no[n+]2O

>  <Energy>  (16) 
75.15638106380867

>  <Genealogy>  (16) 
CCOC(=O)C=Cc1ccc2c(c1)no[n+]2O (protonated)
CCOC(=O)/C=C\c1ccc2c(c1)no[n+]2O (cis-trans isomerization)
CCOC(=O)/C=C\c1ccc2c(c1)no[n+]2O (3D coordinates assigned)
CCOC(=O)/C=C\c1ccc2c(c1)no[n+]2O (optimized conformer: 75.15638106380867 kcal/mol)

>  <smiles>  (16) 
CCOC(=O)C=Cc1ccc2c(c1)no[n+]2[O-]

>  <score_type>  (16) 
oracle

>  <origin>  (16) 
adg

>  <m_score__min__energy>  (16) 
-5.5700000000000003

>  <m_primary>  (16) 
energy

$$$$
16:0
     RDKit          3D

 72 74  0  0  0  0  0  0  0  0999 V2000
   62.9940   32.6470   47.1650 C   0  0  0  0  0  0  0  0  0  0  0  0
   62.1110   33.8810   47.2790 C   0  0  0  0  0  0  0  0  0  0  0  0
   60.9560   33.5780   48.1620 N   0  0  0  0  0  0  0  0  0  0  0  0
   61.2630   33.8400   49.5880 C   0  0  0  0  0  0  0  0  0  0  0  0
   60.0670   33.4910   50.4710 C   0  0  0  0  0  0  0  0  0  0  0  0
   59.7200   34.2780   47.7410 C   0  0  0  0  0  0  0  0  0  0  0  0
   58.8290   33.3270   46.9310 C   0  0  0  0  0  0  0  0  0  0  0  0
   59.6330   32.4740   46.0420 N   0  0  0  0  0  0  0  0  0  0  0  0
   59.0830   31.1260   46.0110 C   0  0  0  0  0  0  0  0  0  0  0  0
   58.2080   30.7280   44.9630 C   0  0  0  0  0  0  0  0  0  0  0  0
   57.7780   31.6360   43.9620 C   0  0  0  0  0  0  0  0  0  0  0  0
   57.0040   31.2100   42.8860 C   0  0  0  0  0  0  0  0  0  0  0  0
   56.6480   29.8750   42.7720 C   0  0  0  0  0  0  0  0  0  0  0  0
   57.0140   28.9700   43.7630 C   0  0  0  0  0  0  0  0  0  0  0  0
   57.7420   29.3840   44.9090 C   0  0  0  0  0  0  0  0  0  0  0  0
   57.9990   28.5140   45.9470 N   0  0  0  0  0  0  0  0  0  0  0  0
   57.2530   27.2360   46.0430 C   0  0  0  0  0  0  0  0  0  0  0  0
   58.9110   28.8490   46.9280 C   0  0  0  0  0  0  0  0  0  0  0  0
   59.3600   27.8920   47.8760 C   0  0  0  0  0  0  0  0  0  0  0  0
   60.2210   28.2430   48.9100 C   0  0  0  0  0  0  0  0  0  0  0  0
   60.6870   29.5430   49.0220 C   0  0  0  0  0  0  0  0  0  0  0  0
   61.5520   29.8670   50.0710 O   0  0  0  0  0  0  0  0  0  0  0  0
   62.5590   30.8750   49.9630 C   0  0  0  0  0  0  0  0  0  0  0  0
   63.6270   30.6740   51.0440 C   0  0  0  0  0  0  0  0  0  0  0  0
   64.1830   32.0140   51.6030 C   0  0  0  0  0  0  0  0  0  0  0  0
   65.4330   32.5240   50.9570 N   0  0  0  0  0  0  0  0  0  0  0  0
   65.1690   33.0810   49.6090 C   0  0  0  0  0  0  0  0  0  0  0  0
   65.9740   33.6130   51.8080 C   0  0  0  0  0  0  0  0  0  0  0  0
   66.4650   31.4620   50.8670 C   0  0  0  0  0  0  0  0  0  0  0  0
   60.2730   30.5090   48.0980 C   0  0  0  0  0  0  0  0  0  0  0  0
   59.4270   30.1740   47.0100 C   0  0  0  0  0  0  0  0  0  0  0  0
   63.2520   32.2865   48.1717 H   0  0  0  0  0  0  0  0  0  0  0  0
   62.4538   31.8586   46.6204 H   0  0  0  0  0  0  0  0  0  0  0  0
   63.9146   32.9039   46.6204 H   0  0  0  0  0  0  0  0  0  0  0  0
   62.6927   34.7109   47.7066 H   0  0  0  0  0  0  0  0  0  0  0  0
   61.7470   34.1672   46.2812 H   0  0  0  0  0  0  0  0  0  0  0  0
   62.1255   33.2278   49.8900 H   0  0  0  0  0  0  0  0  0  0  0  0
   61.4922   34.9090   49.7096 H   0  0  0  0  0  0  0  0  0  0  0  0
   60.3555   33.5752   51.5291 H   0  0  0  0  0  0  0  0  0  0  0  0
   59.2404   34.1854   50.2600 H   0  0  0  0  0  0  0  0  0  0  0  0
   59.7436   32.4610   50.2600 H   0  0  0  0  0  0  0  0  0  0  0  0
   59.1730   34.6193   48.6322 H   0  0  0  0  0  0  0  0  0  0  0  0
   59.9892   35.1417   47.1153 H   0  0  0  0  0  0  0  0  0  0  0  0
   58.2617   32.6887   47.6244 H   0  0  0  0  0  0  0  0  0  0  0  0
   58.1470   33.9296   46.3131 H   0  0  0  0  0  0  0  0  0  0  0  0
   59.6740   32.8850   45.0840 H   0  0  0  0  0  0  0  0  0  0  0  0
   60.6340   32.4780   46.3320 H   0  0  0  0  0  0  0  0  0  0  0  0
   58.0612   32.6963   44.0371 H   0  0  0  0  0  0  0  0  0  0  0  0
   56.6746   31.9334   42.1256 H   0  0  0  0  0  0  0  0  0  0  0  0
   56.0759   29.5313   41.8976 H   0  0  0  0  0  0  0  0  0  0  0  0
   56.7335   27.9117   43.6563 H   0  0  0  0  0  0  0  0  0  0  0  0
   57.1024   26.9780   47.1017 H   0  0  0  0  0  0  0  0  0  0  0  0
   56.2760   27.3438   45.5493 H   0  0  0  0  0  0  0  0  0  0  0  0
   57.8273   26.4382   45.5493 H   0  0  0  0  0  0  0  0  0  0  0  0
   59.0191   26.8496   47.7906 H   0  0  0  0  0  0  0  0  0  0  0  0
   60.5338   27.4846   49.6428 H   0  0  0  0  0  0  0  0  0  0  0  0
   63.0300   30.8133   48.9709 H   0  0  0  0  0  0  0  0  0  0  0  0
   62.0940   31.8628   50.0970 H   0  0  0  0  0  0  0  0  0  0  0  0
   63.1832   30.1048   51.8741 H   0  0  0  0  0  0  0  0  0  0  0  0
   64.4674   30.1358   50.5812 H   0  0  0  0  0  0  0  0  0  0  0  0
   63.4032   32.7800   51.4794 H   0  0  0  0  0  0  0  0  0  0  0  0
   64.4511   31.8109   52.6503 H   0  0  0  0  0  0  0  0  0  0  0  0
   64.6997   34.0711   49.7068 H   0  0  0  0  0  0  0  0  0  0  0  0
   66.1173   33.1773   49.0599 H   0  0  0  0  0  0  0  0  0  0  0  0
   64.4941   32.4080   49.0599 H   0  0  0  0  0  0  0  0  0  0  0  0
   65.8431   33.3495   52.8679 H   0  0  0  0  0  0  0  0  0  0  0  0
   67.0443   33.7487   51.5934 H   0  0  0  0  0  0  0  0  0  0  0  0
   65.4356   34.5479   51.5934 H   0  0  0  0  0  0  0  0  0  0  0  0
   66.7639   31.1544   51.8799 H   0  0  0  0  0  0  0  0  0  0  0  0
   66.0540   30.5962   50.3272 H   0  0  0  0  0  0  0  0  0  0  0  0
   67.3423   31.8480   50.3272 H   0  0  0  0  0  0  0  0  0  0  0  0
   60.6105   31.5491   48.2179 H   0  0  0  0  0  0  0  0  0  0  0  0
  1  2  1  0
  2  3  1  0
  3  4  1  0
  4  5  1  0
  3  6  1  0
  6  7  1  0
  7  8  1  0
  8  9  1  0
  9 10  2  0
 10 11  1  0
 11 12  2  0
 12 13  1  0
 13 14  2  0
 14 15  1  0
 15 16  2  0
 16 17  1  0
 16 18  1  0
 18 19  2  0
 19 20  1  0
 20 21  2  0
 21 22  1  0
 22 23  1  0
 23 24  1  0
 24 25  1  0
 25 26  1  0
 26 27  1  0
 26 28  1  0
 26 29  1  0
 21 30  1  0
 30 31  2  0
 31  9  1  0
 15 10  1  0
 31 18  1  0
  1 32  1  0
  1 33  1  0
  1 34  1  0
  2 35  1  0
  2 36  1  0
  4 37  1  0
  4 38  1  0
  5 39  1  0
  5 40  1  0
  5 41  1  0
  6 42  1  0
  6 43  1  0
  7 44  1  0
  7 45  1  0
  8 46  1  0
  8 47  1  0
 11 48  1  0
 12 49  1  0
 13 50  1  0
 14 51  1  0
 17 52  1  0
 17 53  1  0
 17 54  1  0
 19 55  1  0
 20 56  1  0
 23 57  1  0
 23 58  1  0
 24 59  1  0
 24 60  1  0
 25 61  1  0
 25 62  1  0
 27 63  1  0
 27 64  1  0
 27 65  1  0
 28 66  1  0
 28 67  1  0
 28 68  1  0
 29 69  1  0
 29 70  1  0
 29 71  1  0
 30 72  1  0
M  CHG  3   8   1  16   1  26   1
M  END
>  <UniqueID>  (17) 
17

>  <SMILES>  (17) 
CCN(CC)CC[NH2+]c1c2ccccc2[n+](C)c2ccc(OCCC[N+](C)(C)C)cc12

>  <Energy>  (17) 
108.62046557249428

>  <Genealogy>  (17) 
CCN(CC)CC[NH2+]c1c2ccccc2[n+](C)c2ccc(OCCC[N+](C)(C)C)cc12 (protonated)
CCN(CC)CC[NH2+]c1c2ccccc2[n+](C)c2ccc(OCCC[N+](C)(C)C)cc12 (3D coordinates assigned)
CCN(CC)CC[NH2+]c1c2ccccc2[n+](C)c2ccc(OCCC[N+](C)(C)C)cc12 (optimized conformer: 108.62046557249428 kcal/mol)

>  <smiles>  (17) 
CCN(CC)CCNc1c2ccccc2[n+](C)c2ccc(OCCC[N+](C)(C)C)cc12

>  <score_type>  (17) 
oracle

>  <origin>  (17) 
adg

>  <m_score__min__energy>  (17) 
-2.7999999999999998

>  <m_primary>  (17) 
energy

$$$$
17:0
     RDKit          3D

 65 69  0  0  0  0  0  0  0  0999 V2000
   63.6610   33.1480   47.1350 C   0  0  0  0  0  0  0  0  0  0  0  0
   62.9990   33.8850   48.2990 C   0  0  0  0  0  0  0  0  0  0  0  0
   63.2890   33.2480   49.6050 N   0  0  0  0  0  0  0  0  0  0  0  0
   64.2500   32.1190   49.5260 C   0  0  0  0  0  0  0  0  0  0  0  0
   65.6490   32.4400   50.0710 C   0  0  0  0  0  0  0  0  0  0  0  0
   62.0420   32.8630   50.3060 C   0  0  0  0  0  0  0  0  0  0  0  0
   60.8300   32.9220   49.3560 C   0  0  0  0  0  0  0  0  0  0  0  0
   60.8700   31.8330   48.3750 N   0  0  0  0  0  0  0  0  0  0  0  0
   59.8710   31.6990   47.3470 C   0  0  0  0  0  0  0  0  0  0  0  0
   59.5160   32.8010   46.5480 C   0  0  0  0  0  0  0  0  0  0  0  0
   60.0540   34.0830   46.8000 C   0  0  0  0  0  0  0  0  0  0  0  0
   59.7580   35.1570   45.9660 C   0  0  0  0  0  0  0  0  0  0  0  0
   58.9260   34.9760   44.8670 C   0  0  0  0  0  0  0  0  0  0  0  0
   58.3490   33.7310   44.6230 C   0  0  0  0  0  0  0  0  0  0  0  0
   58.5900   32.6290   45.4840 C   0  0  0  0  0  0  0  0  0  0  0  0
   57.9600   31.4120   45.3020 N   0  0  0  0  0  0  0  0  0  0  0  0
   56.7970   31.3120   44.3900 C   0  0  0  0  0  0  0  0  0  0  0  0
   58.3830   30.2990   46.0040 C   0  0  0  0  0  0  0  0  0  0  0  0
   57.9440   28.9940   45.6640 C   0  0  0  0  0  0  0  0  0  0  0  0
   58.3300   27.8710   46.4120 C   0  0  0  0  0  0  0  0  0  0  0  0
   57.8490   26.5150   46.0410 C   0  0  0  0  0  0  0  0  0  0  0  0
   56.4710   26.2570   45.9170 C   0  0  0  0  0  0  0  0  0  0  0  0
   56.0130   24.9830   45.5700 C   0  0  0  0  0  0  0  0  0  0  0  0
   56.9240   23.9440   45.3410 C   0  0  0  0  0  0  0  0  0  0  0  0
   56.4740   22.6620   44.9910 C   0  0  0  0  0  0  0  0  0  0  0  0
   57.3930   21.6330   44.7630 C   0  0  0  0  0  0  0  0  0  0  0  0
   58.7640   21.8770   44.8810 C   0  0  0  0  0  0  0  0  0  0  0  0
   59.2260   23.1490   45.2300 C   0  0  0  0  0  0  0  0  0  0  0  0
   58.3120   24.1910   45.4620 C   0  0  0  0  0  0  0  0  0  0  0  0
   58.7640   25.4720   45.8110 C   0  0  0  0  0  0  0  0  0  0  0  0
   59.1750   28.0440   47.5110 C   0  0  0  0  0  0  0  0  0  0  0  0
   59.6590   29.3060   47.8370 C   0  0  0  0  0  0  0  0  0  0  0  0
   59.3010   30.4390   47.0790 C   0  0  0  0  0  0  0  0  0  0  0  0
   64.3476   32.3837   47.5279 H   0  0  0  0  0  0  0  0  0  0  0  0
   62.8878   32.6648   46.5197 H   0  0  0  0  0  0  0  0  0  0  0  0
   64.2241   33.8652   46.5197 H   0  0  0  0  0  0  0  0  0  0  0  0
   63.3709   34.9200   48.3198 H   0  0  0  0  0  0  0  0  0  0  0  0
   61.9106   33.8525   48.1428 H   0  0  0  0  0  0  0  0  0  0  0  0
   63.8404   31.2770   50.1033 H   0  0  0  0  0  0  0  0  0  0  0  0
   64.3741   31.8855   48.4583 H   0  0  0  0  0  0  0  0  0  0  0  0
   65.6243   32.4343   51.1707 H   0  0  0  0  0  0  0  0  0  0  0  0
   66.3634   31.6824   49.7164 H   0  0  0  0  0  0  0  0  0  0  0  0
   65.9617   33.4332   49.7164 H   0  0  0  0  0  0  0  0  0  0  0  0
   62.1478   31.8376   50.6900 H   0  0  0  0  0  0  0  0  0  0  0  0
   61.8731   33.5699   51.1317 H   0  0  0  0  0  0  0  0  0  0  0  0
   59.9064   32.8380   49.9475 H   0  0  0  0  0  0  0  0  0  0  0  0
   60.8589   33.8790   48.8145 H   0  0  0  0  0  0  0  0  0  0  0  0
   61.7310   31.2450   48.3220 H   0  0  0  0  0  0  0  0  0  0  0  0
   60.7150   34.2340   47.6662 H   0  0  0  0  0  0  0  0  0  0  0  0
   60.1826   36.1497   46.1765 H   0  0  0  0  0  0  0  0  0  0  0  0
   58.7226   35.8175   44.1884 H   0  0  0  0  0  0  0  0  0  0  0  0
   57.6955   33.6003   43.7479 H   0  0  0  0  0  0  0  0  0  0  0  0
   55.8730   31.2325   44.9815 H   0  0  0  0  0  0  0  0  0  0  0  0
   56.7503   32.2094   43.7556 H   0  0  0  0  0  0  0  0  0  0  0  0
   56.9041   30.4198   43.7556 H   0  0  0  0  0  0  0  0  0  0  0  0
   57.2854   28.8588   44.7934 H   0  0  0  0  0  0  0  0  0  0  0  0
   55.7473   27.0661   46.0950 H   0  0  0  0  0  0  0  0  0  0  0  0
   54.9331   24.7956   45.4764 H   0  0  0  0  0  0  0  0  0  0  0  0
   55.3958   22.4659   44.8957 H   0  0  0  0  0  0  0  0  0  0  0  0
   57.0359   20.6290   44.4901 H   0  0  0  0  0  0  0  0  0  0  0  0
   59.4826   21.0644   44.6984 H   0  0  0  0  0  0  0  0  0  0  0  0
   60.3062   23.3348   45.3232 H   0  0  0  0  0  0  0  0  0  0  0  0
   59.8432   25.6625   45.9056 H   0  0  0  0  0  0  0  0  0  0  0  0
   59.4595   27.1753   48.1230 H   0  0  0  0  0  0  0  0  0  0  0  0
   60.3316   29.4219   48.6997 H   0  0  0  0  0  0  0  0  0  0  0  0
  1  2  1  0
  2  3  1  0
  3  4  1  0
  4  5  1  0
  3  6  1  0
  6  7  1  0
  7  8  1  0
  8  9  1  0
  9 10  2  0
 10 11  1  0
 11 12  2  0
 12 13  1  0
 13 14  2  0
 14 15  1  0
 15 16  2  0
 16 17  1  0
 16 18  1  0
 18 19  2  0
 19 20  1  0
 20 21  1  0
 21 22  2  0
 22 23  1  0
 23 24  2  0
 24 25  1  0
 25 26  2  0
 26 27  1  0
 27 28  2  0
 28 29  1  0
 29 30  2  0
 20 31  2  0
 31 32  1  0
 32 33  2  0
 33  9  1  0
 15 10  1  0
 33 18  1  0
 30 21  1  0
 29 24  1  0
  1 34  1  0
  1 35  1  0
  1 36  1  0
  2 37  1  0
  2 38  1  0
  4 39  1  0
  4 40  1  0
  5 41  1  0
  5 42  1  0
  5 43  1  0
  6 44  1  0
  6 45  1  0
  7 46  1  0
  7 47  1  0
  8 48  1  0
 11 49  1  0
 12 50  1  0
 13 51  1  0
 14 52  1  0
 17 53  1  0
 17 54  1  0
 17 55  1  0
 19 56  1  0
 22 57  1  0
 23 58  1  0
 25 59  1  0
 26 60  1  0
 27 61  1  0
 28 62  1  0
 30 63  1  0
 31 64  1  0
 32 65  1  0
M  CHG  1  16   1
M  END
>  <UniqueID>  (18) 
18

>  <SMILES>  (18) 
CCN(CC)CCNc1c2ccccc2[n+](C)c2cc(-c3ccc4ccccc4c3)ccc12

>  <Energy>  (18) 
106.94755342190001

>  <Genealogy>  (18) 
CCN(CC)CCNc1c2ccccc2[n+](C)c2cc(-c3ccc4ccccc4c3)ccc12 (3D coordinates assigned)
CCN(CC)CCNc1c2ccccc2[n+](C)c2cc(-c3ccc4ccccc4c3)ccc12 (optimized conformer: 106.94755342190001 kcal/mol)

>  <smiles>  (18) 
CCN(CC)CCNc1c2ccccc2[n+](C)c2cc(-c3ccc4ccccc4c3)ccc12

>  <score_type>  (18) 
oracle

>  <origin>  (18) 
adg

>  <m_score__min__energy>  (18) 
-7.8799999999999999

>  <m_primary>  (18) 
energy

$$$$
18:0
     RDKit          3D

 57 59  0  0  0  0  0  0  0  0999 V2000
   56.6840   23.9490   43.5920 C   0  0  0  0  0  0  0  0  0  0  0  0
   57.4030   25.2830   43.3660 C   0  0  0  0  0  0  0  0  0  0  0  0
   57.5120   26.0750   44.6020 N   0  0  0  0  0  0  0  0  0  0  0  0
   57.5140   25.2410   45.8140 C   0  0  0  0  0  0  0  0  0  0  0  0
   57.5580   26.1160   47.0650 C   0  0  0  0  0  0  0  0  0  0  0  0
   57.0260   27.4050   46.7690 O   0  0  0  0  0  0  0  0  0  0  0  0
   57.7800   28.4860   46.2880 C   0  0  0  0  0  0  0  0  0  0  0  0
   58.9950   28.8770   46.8770 C   0  0  0  0  0  0  0  0  0  0  0  0
   59.7210   29.9660   46.3740 C   0  0  0  0  0  0  0  0  0  0  0  0
   60.9590   30.3380   47.0110 N   0  0  0  0  0  0  0  0  0  0  0  0
   61.1220   30.4340   48.4630 C   0  0  0  0  0  0  0  0  0  0  0  0
   60.6620   31.7960   48.9940 C   0  0  0  0  0  0  0  0  0  0  0  0
   60.8210   32.8280   47.9660 N   0  0  0  0  0  0  0  0  0  0  0  0
   59.7410   33.3180   47.1510 C   0  0  0  0  0  0  0  0  0  0  0  0
   59.9750   34.1390   46.0310 C   0  0  0  0  0  0  0  0  0  0  0  0
   58.9030   34.6020   45.2600 C   0  0  0  0  0  0  0  0  0  0  0  0
   57.5950   34.2430   45.5910 C   0  0  0  0  0  0  0  0  0  0  0  0
   57.3540   33.4130   46.6890 C   0  0  0  0  0  0  0  0  0  0  0  0
   58.4220   32.9480   47.4620 C   0  0  0  0  0  0  0  0  0  0  0  0
   59.2260   30.6640   45.2560 C   0  0  0  0  0  0  0  0  0  0  0  0
   58.0150   30.2800   44.6530 C   0  0  0  0  0  0  0  0  0  0  0  0
   57.2920   29.1990   45.1870 C   0  0  0  0  0  0  0  0  0  0  0  0
   56.0730   28.8280   44.6060 O   0  0  0  0  0  0  0  0  0  0  0  0
   55.4110   29.6620   43.6570 C   0  0  0  0  0  0  0  0  0  0  0  0
   56.4310   30.2920   42.7090 C   0  0  0  0  0  0  0  0  0  0  0  0
   57.4900   30.9550   43.4850 N   0  0  0  0  0  0  0  0  0  0  0  0
   57.9780   32.2780   43.0800 C   0  0  0  0  0  0  0  0  0  0  0  0
   56.5845   23.7644   44.6718 H   0  0  0  0  0  0  0  0  0  0  0  0
   55.6850   23.9886   43.1332 H   0  0  0  0  0  0  0  0  0  0  0  0
   57.2663   23.1363   43.1332 H   0  0  0  0  0  0  0  0  0  0  0  0
   58.4149   25.0795   42.9858 H   0  0  0  0  0  0  0  0  0  0  0  0
   56.8123   25.8657   42.6438 H   0  0  0  0  0  0  0  0  0  0  0  0
   56.7190   26.7560   44.6540 H   0  0  0  0  0  0  0  0  0  0  0  0
   56.6010   24.6278   45.8330 H   0  0  0  0  0  0  0  0  0  0  0  0
   58.4043   24.5950   45.8000 H   0  0  0  0  0  0  0  0  0  0  0  0
   56.9597   25.6473   47.8602 H   0  0  0  0  0  0  0  0  0  0  0  0
   58.6006   26.2204   47.3999 H   0  0  0  0  0  0  0  0  0  0  0  0
   59.3814   28.3212   47.7441 H   0  0  0  0  0  0  0  0  0  0  0  0
   61.7800   30.5430   46.3960 H   0  0  0  0  0  0  0  0  0  0  0  0
   60.5251   29.6440   48.9421 H   0  0  0  0  0  0  0  0  0  0  0  0
   62.1902   30.3164   48.6976 H   0  0  0  0  0  0  0  0  0  0  0  0
   59.6024   31.7329   49.2827 H   0  0  0  0  0  0  0  0  0  0  0  0
   61.2772   32.0643   49.8655 H   0  0  0  0  0  0  0  0  0  0  0  0
   61.7970   33.0010   47.6330 H   0  0  0  0  0  0  0  0  0  0  0  0
   61.0044   34.4174   45.7612 H   0  0  0  0  0  0  0  0  0  0  0  0
   59.0912   35.2501   44.3914 H   0  0  0  0  0  0  0  0  0  0  0  0
   56.7537   34.6138   44.9871 H   0  0  0  0  0  0  0  0  0  0  0  0
   56.3236   33.1254   46.9452 H   0  0  0  0  0  0  0  0  0  0  0  0
   58.2281   32.2876   48.3200 H   0  0  0  0  0  0  0  0  0  0  0  0
   59.7910   31.5165   44.8510 H   0  0  0  0  0  0  0  0  0  0  0  0
   54.6991   29.0576   43.0758 H   0  0  0  0  0  0  0  0  0  0  0  0
   54.8754   30.4604   44.1915 H   0  0  0  0  0  0  0  0  0  0  0  0
   56.8765   29.5082   42.0788 H   0  0  0  0  0  0  0  0  0  0  0  0
   55.9262   31.0355   42.0747 H   0  0  0  0  0  0  0  0  0  0  0  0
   58.1990   32.8772   43.9756 H   0  0  0  0  0  0  0  0  0  0  0  0
   58.8931   32.1635   42.4804 H   0  0  0  0  0  0  0  0  0  0  0  0
   57.2078   32.7852   42.4804 H   0  0  0  0  0  0  0  0  0  0  0  0
  1  2  1  0
  2  3  1  0
  3  4  1  0
  4  5  1  0
  5  6  1  0
  6  7  1  0
  7  8  2  0
  8  9  1  0
  9 10  1  0
 10 11  1  0
 11 12  1  0
 12 13  1  0
 13 14  1  0
 14 15  2  0
 15 16  1  0
 16 17  2  0
 17 18  1  0
 18 19  2  0
  9 20  2  0
 20 21  1  0
 21 22  2  0
 22 23  1  0
 23 24  1  0
 24 25  1  0
 25 26  1  0
 26 27  1  0
 22  7  1  0
 19 14  1  0
 26 21  1  0
  1 28  1  0
  1 29  1  0
  1 30  1  0
  2 31  1  0
  2 32  1  0
  3 33  1  0
  4 34  1  0
  4 35  1  0
  5 36  1  0
  5 37  1  0
  8 38  1  0
 10 39  1  0
 11 40  1  0
 11 41  1  0
 12 42  1  0
 12 43  1  0
 13 44  1  0
 15 45  1  0
 16 46  1  0
 17 47  1  0
 18 48  1  0
 19 49  1  0
 20 50  1  0
 24 51  1  0
 24 52  1  0
 25 53  1  0
 25 54  1  0
 27 55  1  0
 27 56  1  0
 27 57  1  0
M  END
>  <UniqueID>  (19) 
19

>  <SMILES>  (19) 
CCNCCOc1cc(NCCNc2ccccc2)cc2c1OCCN2C

>  <Energy>  (19) 
54.02403188071365

>  <Genealogy>  (19) 
CCNCCOc1cc(NCCNc2ccccc2)cc2c1OCCN2C (3D coordinates assigned)
CCNCCOc1cc(NCCNc2ccccc2)cc2c1OCCN2C (nonaromatic ring conformer: 54.02403188071365 kcal/mol)

>  <smiles>  (19) 
CCNCCOc1cc(NCCNc2ccccc2)cc2c1OCCN2C

>  <score_type>  (19) 
oracle

>  <origin>  (19) 
adg

>  <m_score__min__energy>  (19) 
-7.04

>  <m_primary>  (19) 
energy

$$$$
19:0
     RDKit          3D

 45 46  0  0  0  0  0  0  0  0999 V2000
   57.8700   33.8390   46.3920 C   0  0  0  0  0  0  0  0  0  0  0  0
   59.1400   33.7150   45.5560 C   0  0  0  0  0  0  0  0  0  0  0  0
   59.9210   32.6000   45.9880 O   0  0  0  0  0  0  0  0  0  0  0  0
   61.0400   32.6610   46.8370 C   0  0  0  0  0  0  0  0  0  0  0  0
   61.8620   33.8030   46.9120 C   0  0  0  0  0  0  0  0  0  0  0  0
   62.9780   33.8210   47.7530 C   0  0  0  0  0  0  0  0  0  0  0  0
   63.2930   32.7000   48.5220 C   0  0  0  0  0  0  0  0  0  0  0  0
   64.8270   32.7240   49.6600 Br  0  0  0  0  0  0  0  0  0  0  0  0
   62.4900   31.5590   48.4550 C   0  0  0  0  0  0  0  0  0  0  0  0
   61.3550   31.5340   47.6260 C   0  0  0  0  0  0  0  0  0  0  0  0
   60.5220   30.2760   47.5500 C   0  0  0  0  0  0  0  0  0  0  0  0
   59.9370   30.1160   46.2050 N   0  0  0  0  0  0  0  0  0  0  0  0
   59.7710   28.7030   45.8190 C   0  0  0  0  0  0  0  0  0  0  0  0
   58.9560   27.8640   46.8240 C   0  0  0  0  0  0  0  0  0  0  0  0
   57.4580   27.7680   46.4890 C   0  0  0  0  0  0  0  0  0  0  0  0
   57.2110   27.9160   45.0550 N   0  0  0  0  0  0  0  0  0  0  0  0
   57.0720   29.1950   44.4240 C   0  0  0  0  0  0  0  0  0  0  0  0
   57.3040   30.3070   45.0280 N   0  0  0  0  0  0  0  0  0  0  0  0
   57.0730   31.4160   44.1080 C   0  0  0  0  0  0  0  0  0  0  0  0
   56.6230   30.7610   42.7920 C   0  0  0  0  0  0  0  0  0  0  0  0
   56.6570   29.3420   43.0820 N   0  0  0  0  0  0  0  0  0  0  0  0
   58.1304   33.8136   47.4604 H   0  0  0  0  0  0  0  0  0  0  0  0
   57.3692   34.7903   46.1592 H   0  0  0  0  0  0  0  0  0  0  0  0
   57.1946   33.0025   46.1592 H   0  0  0  0  0  0  0  0  0  0  0  0
   58.8652   33.5761   44.5000 H   0  0  0  0  0  0  0  0  0  0  0  0
   59.7349   34.6322   45.6777 H   0  0  0  0  0  0  0  0  0  0  0  0
   61.6233   34.6877   46.3035 H   0  0  0  0  0  0  0  0  0  0  0  0
   63.6091   34.7202   47.8088 H   0  0  0  0  0  0  0  0  0  0  0  0
   62.7476   30.6739   49.0551 H   0  0  0  0  0  0  0  0  0  0  0  0
   61.1594   29.4074   47.7718 H   0  0  0  0  0  0  0  0  0  0  0  0
   59.7055   30.3487   48.2835 H   0  0  0  0  0  0  0  0  0  0  0  0
   59.0210   30.6160   46.1480 H   0  0  0  0  0  0  0  0  0  0  0  0
   60.5770   30.5520   45.5000 H   0  0  0  0  0  0  0  0  0  0  0  0
   59.2587   28.6692   44.8462 H   0  0  0  0  0  0  0  0  0  0  0  0
   60.7791   28.2642   45.7857 H   0  0  0  0  0  0  0  0  0  0  0  0
   59.3722   26.8460   46.8424 H   0  0  0  0  0  0  0  0  0  0  0  0
   59.0326   28.3706   47.7974 H   0  0  0  0  0  0  0  0  0  0  0  0
   57.0824   26.7870   46.8155 H   0  0  0  0  0  0  0  0  0  0  0  0
   56.9381   28.5846   47.0113 H   0  0  0  0  0  0  0  0  0  0  0  0
   56.9940   27.0620   44.4940 H   0  0  0  0  0  0  0  0  0  0  0  0
   56.2878   32.0817   44.4958 H   0  0  0  0  0  0  0  0  0  0  0  0
   57.9738   32.0328   43.9732 H   0  0  0  0  0  0  0  0  0  0  0  0
   55.6058   31.0815   42.5227 H   0  0  0  0  0  0  0  0  0  0  0  0
   57.2620   31.0362   41.9400 H   0  0  0  0  0  0  0  0  0  0  0  0
   56.3520   28.5760   42.4420 H   0  0  0  0  0  0  0  0  0  0  0  0
  1  2  1  0
  2  3  1  0
  3  4  1  0
  4  5  2  0
  5  6  1  0
  6  7  2  0
  7  8  1  0
  7  9  1  0
  9 10  2  0
 10 11  1  0
 11 12  1  0
 12 13  1  0
 13 14  1  0
 14 15  1  0
 15 16  1  0
 16 17  1  0
 17 18  2  0
 18 19  1  0
 19 20  1  0
 20 21  1  0
 10  4  1  0
 21 17  1  0
  1 22  1  0
  1 23  1  0
  1 24  1  0
  2 25  1  0
  2 26  1  0
  5 27  1  0
  6 28  1  0
  9 29  1  0
 11 30  1  0
 11 31  1  0
 12 32  1  0
 12 33  1  0
 13 34  1  0
 13 35  1  0
 14 36  1  0
 14 37  1  0
 15 38  1  0
 15 39  1  0
 16 40  1  0
 19 41  1  0
 19 42  1  0
 20 43  1  0
 20 44  1  0
 21 45  1  0
M  CHG  1  12   1
M  END
>  <UniqueID>  (20) 
20

>  <SMILES>  (20) 
CCOc1ccc(Br)cc1C[NH2+]CCCNC1=NCCN1

>  <Energy>  (20) 
47.80644308513716

>  <Genealogy>  (20) 
CCOc1ccc(Br)cc1C[NH2+]CCCNC1=NCCN1 (protonated)
CCOc1ccc(Br)cc1C[NH2+]CCCNC1=NCCN1 (3D coordinates assigned)
CCOc1ccc(Br)cc1C[NH2+]CCCNC1=NCCN1 (nonaromatic ring conformer: 47.80644308513716 kcal/mol)

>  <smiles>  (20) 
CCOc1ccc(Br)cc1CNCCCNC1=NCCN1

>  <score_type>  (20) 
oracle

>  <origin>  (20) 
adg

>  <m_score__min__energy>  (20) 
-4.5700000000000003

>  <m_primary>  (20) 
energy

$$$$
20:0
     RDKit          3D

 41 42  0  0  0  0  0  0  0  0999 V2000
   58.1430   27.0880   42.6390 C   0  0  0  0  0  0  0  0  0  0  0  0
   57.7670   25.6940   43.1590 C   0  0  0  0  0  0  0  0  0  0  0  0
   57.2810   25.7210   44.5600 N   0  0  0  0  0  0  0  0  0  0  0  0
   56.3950   24.5760   44.9090 C   0  0  0  0  0  0  0  0  0  0  0  0
   55.1090   24.9440   45.6700 C   0  0  0  0  0  0  0  0  0  0  0  0
   58.3580   25.9230   45.5250 C   0  0  0  0  0  0  0  0  0  0  0  0
   58.9620   24.9480   45.9510 O   0  0  0  0  0  0  0  0  0  0  0  0
   58.7420   27.2780   46.0700 C   0  0  0  0  0  0  0  0  0  0  0  0
   57.5490   28.0390   46.4070 N   0  0  0  0  0  0  0  0  0  0  0  0
   56.9110   28.9370   45.4940 C   0  0  0  0  0  0  0  0  0  0  0  0
   55.8830   28.5610   44.8670 O   0  0  0  0  0  0  0  0  0  0  0  0
   57.4490   30.3020   45.2910 C   0  0  0  0  0  0  0  0  0  0  0  0
   57.2620   30.9670   44.0650 C   0  0  0  0  0  0  0  0  0  0  0  0
   57.7660   32.2550   43.8660 C   0  0  0  0  0  0  0  0  0  0  0  0
   58.4550   32.9080   44.8990 C   0  0  0  0  0  0  0  0  0  0  0  0
   58.9640   34.2040   44.7120 C   0  0  0  0  0  0  0  0  0  0  0  0
   59.6320   34.8520   45.7550 C   0  0  0  0  0  0  0  0  0  0  0  0
   59.7950   34.2160   46.9890 C   0  0  0  0  0  0  0  0  0  0  0  0
   59.2970   32.9250   47.1840 C   0  0  0  0  0  0  0  0  0  0  0  0
   58.6350   32.2580   46.1420 C   0  0  0  0  0  0  0  0  0  0  0  0
   58.1410   30.9590   46.3280 C   0  0  0  0  0  0  0  0  0  0  0  0
   58.3244   27.7604   43.4905 H   0  0  0  0  0  0  0  0  0  0  0  0
   59.0542   27.0175   42.0269 H   0  0  0  0  0  0  0  0  0  0  0  0
   57.3199   27.4853   42.0269 H   0  0  0  0  0  0  0  0  0  0  0  0
   56.9737   25.2810   42.5186 H   0  0  0  0  0  0  0  0  0  0  0  0
   58.6740   25.0721   43.1324 H   0  0  0  0  0  0  0  0  0  0  0  0
   56.6610   26.5630   44.6360 H   0  0  0  0  0  0  0  0  0  0  0  0
   56.1043   24.0747   43.9740 H   0  0  0  0  0  0  0  0  0  0  0  0
   56.9780   23.9385   45.5899 H   0  0  0  0  0  0  0  0  0  0  0  0
   55.2956   24.8906   46.7527 H   0  0  0  0  0  0  0  0  0  0  0  0
   54.8032   25.9657   45.4006 H   0  0  0  0  0  0  0  0  0  0  0  0
   54.3090   24.2387   45.4006 H   0  0  0  0  0  0  0  0  0  0  0  0
   59.3562   27.1460   46.9730 H   0  0  0  0  0  0  0  0  0  0  0  0
   59.3129   27.8246   45.3049 H   0  0  0  0  0  0  0  0  0  0  0  0
   56.7126   30.4670   43.2537 H   0  0  0  0  0  0  0  0  0  0  0  0
   57.6223   32.7576   42.8981 H   0  0  0  0  0  0  0  0  0  0  0  0
   58.8367   34.7096   43.7434 H   0  0  0  0  0  0  0  0  0  0  0  0
   60.0308   35.8660   45.6041 H   0  0  0  0  0  0  0  0  0  0  0  0
   60.3163   34.7328   47.8082 H   0  0  0  0  0  0  0  0  0  0  0  0
   59.4244   32.4298   48.1579 H   0  0  0  0  0  0  0  0  0  0  0  0
   58.2947   30.4490   47.2904 H   0  0  0  0  0  0  0  0  0  0  0  0
  1  2  1  0
  2  3  1  0
  3  4  1  0
  4  5  1  0
  3  6  1  0
  6  7  2  0
  6  8  1  0
  8  9  1  0
  9 10  1  0
 10 11  2  0
 10 12  1  0
 12 13  2  0
 13 14  1  0
 14 15  2  0
 15 16  1  0
 16 17  2  0
 17 18  1  0
 18 19  2  0
 19 20  1  0
 20 21  2  0
 21 12  1  0
 20 15  1  0
  1 22  1  0
  1 23  1  0
  1 24  1  0
  2 25  1  0
  2 26  1  0
  3 27  1  0
  4 28  1  0
  4 29  1  0
  5 30  1  0
  5 31  1  0
  5 32  1  0
  8 33  1  0
  8 34  1  0
 13 35  1  0
 14 36  1  0
 16 37  1  0
 17 38  1  0
 18 39  1  0
 19 40  1  0
 21 41  1  0
M  CHG  2   3   1   9  -1
M  END
>  <UniqueID>  (21) 
21

>  <SMILES>  (21) 
CC[NH+](CC)C(=O)C[N-]C(=O)c1ccc2ccccc2c1

>  <Energy>  (21) 
47.54004116757195

>  <Genealogy>  (21) 
CC[NH+](CC)C(=O)C[N-]C(=O)c1ccc2ccccc2c1 (protonated)
CC[NH+](CC)C(=O)C[N-]C(=O)c1ccc2ccccc2c1 (3D coordinates assigned)
CC[NH+](CC)C(=O)C[N-]C(=O)c1ccc2ccccc2c1 (optimized conformer: 47.54004116757195 kcal/mol)

>  <smiles>  (21) 
CCN(CC)C(=O)CNC(=O)c1ccc2ccccc2c1

>  <score_type>  (21) 
oracle

>  <origin>  (21) 
adg

>  <m_score__min__energy>  (21) 
-6.8099999999999996

>  <m_primary>  (21) 
energy

$$$$
21:0
     RDKit          3D

 43 45  0  0  0  0  0  0  0  0999 V2000
   54.2380   24.8170   45.6260 C   0  0  0  0  0  0  0  0  0  0  0  0
   54.8000   26.0720   45.9950 O   0  0  0  0  0  0  0  0  0  0  0  0
   56.1670   26.4050   46.0140 C   0  0  0  0  0  0  0  0  0  0  0  0
   57.0530   25.4000   46.4230 C   0  0  0  0  0  0  0  0  0  0  0  0
   58.4290   25.6280   46.4720 C   0  0  0  0  0  0  0  0  0  0  0  0
   58.9480   26.8710   46.1140 C   0  0  0  0  0  0  0  0  0  0  0  0
   58.0880   27.8960   45.7010 C   0  0  0  0  0  0  0  0  0  0  0  0
   58.5970   29.1440   45.3240 C   0  0  0  0  0  0  0  0  0  0  0  0
   57.7370   30.1560   44.8720 C   0  0  0  0  0  0  0  0  0  0  0  0
   58.3100   31.4980   44.4610 C   0  0  0  0  0  0  0  0  0  0  0  0
   57.2970   32.5750   44.4660 N   0  0  0  0  0  0  0  0  0  0  0  0
   57.6790   33.7540   45.2700 C   0  0  0  0  0  0  0  0  0  0  0  0
   59.1560   34.1730   45.1150 C   0  0  0  0  0  0  0  0  0  0  0  0
   59.9500   34.0990   46.3990 C   0  0  0  0  0  0  0  0  0  0  0  0
   59.3100   34.2800   47.6370 C   0  0  0  0  0  0  0  0  0  0  0  0
   60.0410   34.2260   48.8270 C   0  0  0  0  0  0  0  0  0  0  0  0
   61.4130   33.9650   48.7930 C   0  0  0  0  0  0  0  0  0  0  0  0
   62.0540   33.7490   47.5710 C   0  0  0  0  0  0  0  0  0  0  0  0
   61.3260   33.8070   46.3770 C   0  0  0  0  0  0  0  0  0  0  0  0
   56.3530   29.9030   44.8620 C   0  0  0  0  0  0  0  0  0  0  0  0
   55.5360   30.7910   44.5000 O   0  0  0  0  0  0  0  0  0  0  0  0
   55.8800   28.6860   45.2400 N   0  0  0  0  0  0  0  0  0  0  0  0
   56.6920   27.6740   45.6470 C   0  0  0  0  0  0  0  0  0  0  0  0
   53.9834   24.2485   46.5326 H   0  0  0  0  0  0  0  0  0  0  0  0
   53.3285   24.9835   45.0301 H   0  0  0  0  0  0  0  0  0  0  0  0
   54.9679   24.2494   45.0301 H   0  0  0  0  0  0  0  0  0  0  0  0
   56.6576   24.4146   46.7104 H   0  0  0  0  0  0  0  0  0  0  0  0
   59.1065   24.8236   46.7944 H   0  0  0  0  0  0  0  0  0  0  0  0
   60.0331   27.0468   46.1559 H   0  0  0  0  0  0  0  0  0  0  0  0
   59.6791   29.3327   45.3825 H   0  0  0  0  0  0  0  0  0  0  0  0
   59.1138   31.7673   45.1619 H   0  0  0  0  0  0  0  0  0  0  0  0
   58.6852   31.3986   43.4317 H   0  0  0  0  0  0  0  0  0  0  0  0
   56.3540   32.2210   44.7480 H   0  0  0  0  0  0  0  0  0  0  0  0
   57.1950   32.9070   43.4780 H   0  0  0  0  0  0  0  0  0  0  0  0
   57.0463   34.6002   44.9638 H   0  0  0  0  0  0  0  0  0  0  0  0
   57.5379   33.4766   46.3251 H   0  0  0  0  0  0  0  0  0  0  0  0
   59.6289   33.5092   44.3763 H   0  0  0  0  0  0  0  0  0  0  0  0
   59.1582   35.2262   44.7977 H   0  0  0  0  0  0  0  0  0  0  0  0
   58.2262   34.4655   47.6697 H   0  0  0  0  0  0  0  0  0  0  0  0
   59.5360   34.3890   49.7905 H   0  0  0  0  0  0  0  0  0  0  0  0
   61.9890   33.9296   49.7295 H   0  0  0  0  0  0  0  0  0  0  0  0
   63.1323   33.5330   47.5470 H   0  0  0  0  0  0  0  0  0  0  0  0
   61.8318   33.6235   45.4176 H   0  0  0  0  0  0  0  0  0  0  0  0
  1  2  1  0
  2  3  1  0
  3  4  2  0
  4  5  1  0
  5  6  2  0
  6  7  1  0
  7  8  1  0
  8  9  2  0
  9 10  1  0
 10 11  1  0
 11 12  1  0
 12 13  1  0
 13 14  1  0
 14 15  2  0
 15 16  1  0
 16 17  2  0
 17 18  1  0
 18 19  2  0
  9 20  1  0
 20 21  2  0
 20 22  1  0
 22 23  1  0
 23  3  1  0
 23  7  2  0
 19 14  1  0
  1 24  1  0
  1 25  1  0
  1 26  1  0
  4 27  1  0
  5 28  1  0
  6 29  1  0
  8 30  1  0
 10 31  1  0
 10 32  1  0
 11 33  1  0
 11 34  1  0
 12 35  1  0
 12 36  1  0
 13 37  1  0
 13 38  1  0
 15 39  1  0
 16 40  1  0
 17 41  1  0
 18 42  1  0
 19 43  1  0
M  CHG  2  11   1  22  -1
M  END
>  <UniqueID>  (22) 
22

>  <SMILES>  (22) 
COc1cccc2cc(C[NH2+]CCc3ccccc3)c(=O)[n-]c12

>  <Energy>  (22) 
51.11012989724649

>  <Genealogy>  (22) 
COc1cccc2cc(C[NH2+]CCc3ccccc3)c(=O)[n-]c12 (protonated)
COc1cccc2cc(C[NH2+]CCc3ccccc3)c(=O)[n-]c12 (3D coordinates assigned)
COc1cccc2cc(C[NH2+]CCc3ccccc3)c(=O)[n-]c12 (optimized conformer: 51.11012989724649 kcal/mol)

>  <smiles>  (22) 
COc1cccc2cc(CNCCc3ccccc3)c(=O)[nH]c12

>  <score_type>  (22) 
oracle

>  <origin>  (22) 
adg

>  <m_score__min__energy>  (22) 
-9.6300000000000008

>  <m_primary>  (22) 
energy

$$$$
22:0
     RDKit          3D

 37 39  0  0  0  0  0  0  0  0999 V2000
   57.7690   32.3190   41.7260 C   0  0  0  0  0  0  0  0  0  0  0  0
   57.4190   31.5190   42.9770 C   0  0  0  0  0  0  0  0  0  0  0  0
   57.9600   32.1740   44.1860 N   0  0  0  0  0  0  0  0  0  0  0  0
   58.0980   33.5330   44.1420 C   0  0  0  0  0  0  0  0  0  0  0  0
   58.5920   34.2450   45.2260 C   0  0  0  0  0  0  0  0  0  0  0  0
   58.9730   33.5860   46.3990 C   0  0  0  0  0  0  0  0  0  0  0  0
   59.5090   34.3680   47.4970 N   0  0  0  0  0  0  0  0  0  0  0  0
   60.9230   34.1190   47.6730 C   0  0  0  0  0  0  0  0  0  0  0  0
   61.4920   34.0950   48.9630 C   0  0  0  0  0  0  0  0  0  0  0  0
   62.8540   33.8290   49.1320 C   0  0  0  0  0  0  0  0  0  0  0  0
   63.6590   33.5650   48.0210 C   0  0  0  0  0  0  0  0  0  0  0  0
   63.1010   33.5580   46.7410 C   0  0  0  0  0  0  0  0  0  0  0  0
   61.7400   33.8230   46.5660 C   0  0  0  0  0  0  0  0  0  0  0  0
   58.8520   32.1730   46.4520 C   0  0  0  0  0  0  0  0  0  0  0  0
   59.2210   31.4420   47.6020 C   0  0  0  0  0  0  0  0  0  0  0  0
   59.1200   30.0540   47.6310 C   0  0  0  0  0  0  0  0  0  0  0  0
   58.6520   29.3650   46.5200 C   0  0  0  0  0  0  0  0  0  0  0  0
   58.2700   30.0580   45.3730 C   0  0  0  0  0  0  0  0  0  0  0  0
   58.3500   31.4720   45.3130 C   0  0  0  0  0  0  0  0  0  0  0  0
   58.1940   33.2904   42.0189 H   0  0  0  0  0  0  0  0  0  0  0  0
   58.5055   31.7617   41.1285 H   0  0  0  0  0  0  0  0  0  0  0  0
   56.8598   32.4817   41.1285 H   0  0  0  0  0  0  0  0  0  0  0  0
   56.3249   31.4468   43.0647 H   0  0  0  0  0  0  0  0  0  0  0  0
   57.8627   30.5162   42.8903 H   0  0  0  0  0  0  0  0  0  0  0  0
   57.8115   34.0739   43.2280 H   0  0  0  0  0  0  0  0  0  0  0  0
   58.6848   35.3392   45.1618 H   0  0  0  0  0  0  0  0  0  0  0  0
   59.3840   35.3900   47.3150 H   0  0  0  0  0  0  0  0  0  0  0  0
   58.9660   34.1710   48.3690 H   0  0  0  0  0  0  0  0  0  0  0  0
   60.8598   34.2869   49.8425 H   0  0  0  0  0  0  0  0  0  0  0  0
   63.2924   33.8275   50.1409 H   0  0  0  0  0  0  0  0  0  0  0  0
   64.7320   33.3627   48.1546 H   0  0  0  0  0  0  0  0  0  0  0  0
   63.7346   33.3433   45.8678 H   0  0  0  0  0  0  0  0  0  0  0  0
   61.3044   33.8001   45.5562 H   0  0  0  0  0  0  0  0  0  0  0  0
   59.5937   31.9770   48.4879 H   0  0  0  0  0  0  0  0  0  0  0  0
   59.4117   29.5015   48.5364 H   0  0  0  0  0  0  0  0  0  0  0  0
   58.5825   28.2675   46.5454 H   0  0  0  0  0  0  0  0  0  0  0  0
   57.9006   29.4991   44.5005 H   0  0  0  0  0  0  0  0  0  0  0  0
  1  2  1  0
  2  3  1  0
  3  4  2  0
  4  5  1  0
  5  6  2  0
  6  7  1  0
  7  8  1  0
  8  9  2  0
  9 10  1  0
 10 11  2  0
 11 12  1  0
 12 13  2  0
  6 14  1  0
 14 15  2  0
 15 16  1  0
 16 17  2  0
 17 18  1  0
 18 19  2  0
 19  3  1  0
 13  8  1  0
 19 14  1  0
  1 20  1  0
  1 21  1  0
  1 22  1  0
  2 23  1  0
  2 24  1  0
  4 25  1  0
  5 26  1  0
  7 27  1  0
  7 28  1  0
  9 29  1  0
 10 30  1  0
 11 31  1  0
 12 32  1  0
 13 33  1  0
 15 34  1  0
 16 35  1  0
 17 36  1  0
 18 37  1  0
M  CHG  2   3   1   7   1
M  END
>  <UniqueID>  (23) 
23

>  <SMILES>  (23) 
CC[n+]1ccc([NH2+]c2ccccc2)c2ccccc21

>  <Energy>  (23) 
50.915051075484975

>  <Genealogy>  (23) 
CC[n+]1ccc([NH2+]c2ccccc2)c2ccccc21 (protonated)
CC[n+]1ccc([NH2+]c2ccccc2)c2ccccc21 (3D coordinates assigned)
CC[n+]1ccc([NH2+]c2ccccc2)c2ccccc21 (optimized conformer: 50.915051075484975 kcal/mol)

>  <smiles>  (23) 
CC[n+]1ccc(Nc2ccccc2)c2ccccc21

>  <score_type>  (23) 
oracle

>  <origin>  (23) 
adg

>  <m_score__min__energy>  (23) 
-3.7999999999999998

>  <m_primary>  (23) 
energy

$$$$
23:0
     RDKit          3D

 57 61  0  0  0  0  0  0  0  0999 V2000
   65.4960   31.8040   50.5020 C   0  0  0  0  0  0  0  0  0  0  0  0
   65.0070   33.0280   49.7200 C   0  0  0  0  0  0  0  0  0  0  0  0
   64.0870   32.7370   48.5850 N   0  0  0  0  0  0  0  0  0  0  0  0
   63.3150   33.9290   48.1290 C   0  0  0  0  0  0  0  0  0  0  0  0
   62.1390   34.3450   49.0330 C   0  0  0  0  0  0  0  0  0  0  0  0
   63.2570   31.5160   48.7910 C   0  0  0  0  0  0  0  0  0  0  0  0
   62.3450   31.1860   47.5860 C   0  0  0  0  0  0  0  0  0  0  0  0
   60.9630   31.6210   47.8180 N   0  0  0  0  0  0  0  0  0  0  0  0
   59.9160   31.3920   46.8640 C   0  0  0  0  0  0  0  0  0  0  0  0
   59.3940   30.1130   46.7060 C   0  0  0  0  0  0  0  0  0  0  0  0
   58.2620   29.8870   45.9420 C   0  0  0  0  0  0  0  0  0  0  0  0
   57.6930   30.8790   45.1820 N   0  0  0  0  0  0  0  0  0  0  0  0
   56.6870   30.5360   44.1630 C   0  0  0  0  0  0  0  0  0  0  0  0
   58.1460   32.1800   45.3460 C   0  0  0  0  0  0  0  0  0  0  0  0
   57.4860   33.2780   44.7420 C   0  0  0  0  0  0  0  0  0  0  0  0
   57.9880   34.5740   44.8670 C   0  0  0  0  0  0  0  0  0  0  0  0
   59.1510   34.8110   45.5920 C   0  0  0  0  0  0  0  0  0  0  0  0
   59.8020   33.7610   46.2350 C   0  0  0  0  0  0  0  0  0  0  0  0
   59.2950   32.4490   46.1600 C   0  0  0  0  0  0  0  0  0  0  0  0
   57.8590   28.4700   46.1250 C   0  0  0  0  0  0  0  0  0  0  0  0
   56.6870   27.7730   45.7610 C   0  0  0  0  0  0  0  0  0  0  0  0
   56.5930   26.4440   46.1880 C   0  0  0  0  0  0  0  0  0  0  0  0
   57.5560   25.8480   46.9530 C   0  0  0  0  0  0  0  0  0  0  0  0
   58.7010   26.5290   47.3740 C   0  0  0  0  0  0  0  0  0  0  0  0
   58.8180   27.8590   46.9450 C   0  0  0  0  0  0  0  0  0  0  0  0
   59.8030   28.8550   47.3250 C   0  0  0  0  0  0  0  0  0  0  0  0
   60.8190   28.6590   48.0440 O   0  0  0  0  0  0  0  0  0  0  0  0
   57.1810   24.5480   47.2310 O   0  0  0  0  0  0  0  0  0  0  0  0
   55.9100   24.3090   46.6100 C   0  0  0  0  0  0  0  0  0  0  0  0
   55.5700   25.5420   45.9610 O   0  0  0  0  0  0  0  0  0  0  0  0
   65.4167   32.0026   51.5810 H   0  0  0  0  0  0  0  0  0  0  0  0
   64.8771   30.9322   50.2431 H   0  0  0  0  0  0  0  0  0  0  0  0
   66.5452   31.5987   50.2431 H   0  0  0  0  0  0  0  0  0  0  0  0
   64.4801   33.6908   50.4222 H   0  0  0  0  0  0  0  0  0  0  0  0
   65.9048   33.4801   49.2733 H   0  0  0  0  0  0  0  0  0  0  0  0
   64.7320   32.5340   47.7880 H   0  0  0  0  0  0  0  0  0  0  0  0
   64.0105   34.7789   48.0656 H   0  0  0  0  0  0  0  0  0  0  0  0
   62.8683   33.6476   47.1640 H   0  0  0  0  0  0  0  0  0  0  0  0
   62.4328   34.2411   50.0879 H   0  0  0  0  0  0  0  0  0  0  0  0
   61.8718   35.3922   48.8283 H   0  0  0  0  0  0  0  0  0  0  0  0
   61.2727   33.6988   48.8283 H   0  0  0  0  0  0  0  0  0  0  0  0
   63.9287   30.6624   48.9647 H   0  0  0  0  0  0  0  0  0  0  0  0
   62.6012   31.7092   49.6528 H   0  0  0  0  0  0  0  0  0  0  0  0
   62.7347   31.6969   46.6932 H   0  0  0  0  0  0  0  0  0  0  0  0
   62.3428   30.0950   47.4455 H   0  0  0  0  0  0  0  0  0  0  0  0
   60.7760   32.2760   48.6100 H   0  0  0  0  0  0  0  0  0  0  0  0
   55.7572   30.2190   44.6579 H   0  0  0  0  0  0  0  0  0  0  0  0
   56.4863   31.4165   43.5349 H   0  0  0  0  0  0  0  0  0  0  0  0
   57.0660   29.7163   43.5349 H   0  0  0  0  0  0  0  0  0  0  0  0
   56.5646   33.1067   44.1662 H   0  0  0  0  0  0  0  0  0  0  0  0
   57.4608   35.4130   44.3894 H   0  0  0  0  0  0  0  0  0  0  0  0
   59.5579   35.8309   45.6578 H   0  0  0  0  0  0  0  0  0  0  0  0
   60.7208   33.9582   46.8068 H   0  0  0  0  0  0  0  0  0  0  0  0
   55.8893   28.2497   45.1724 H   0  0  0  0  0  0  0  0  0  0  0  0
   59.4651   26.0505   48.0043 H   0  0  0  0  0  0  0  0  0  0  0  0
   55.9872   23.4946   45.8746 H   0  0  0  0  0  0  0  0  0  0  0  0
   55.1462   24.0053   47.3410 H   0  0  0  0  0  0  0  0  0  0  0  0
  1  2  1  0
  2  3  1  0
  3  4  1  0
  4  5  1  0
  3  6  1  0
  6  7  1  0
  7  8  1  0
  8  9  1  0
  9 10  2  0
 10 11  1  0
 11 12  2  0
 12 13  1  0
 12 14  1  0
 14 15  2  0
 15 16  1  0
 16 17  2  0
 17 18  1  0
 18 19  2  0
 11 20  1  0
 20 21  2  0
 21 22  1  0
 22 23  2  0
 23 24  1  0
 24 25  2  0
 25 26  1  0
 26 27  2  0
 23 28  1  0
 28 29  1  0
 29 30  1  0
 19  9  1  0
 25 20  1  0
 26 10  1  0
 19 14  1  0
 30 22  1  0
  1 31  1  0
  1 32  1  0
  1 33  1  0
  2 34  1  0
  2 35  1  0
  3 36  1  0
  4 37  1  0
  4 38  1  0
  5 39  1  0
  5 40  1  0
  5 41  1  0
  6 42  1  0
  6 43  1  0
  7 44  1  0
  7 45  1  0
  8 46  1  0
 13 47  1  0
 13 48  1  0
 13 49  1  0
 15 50  1  0
 16 51  1  0
 17 52  1  0
 18 53  1  0
 21 54  1  0
 24 55  1  0
 29 56  1  0
 29 57  1  0
M  CHG  2   3   1  12   1
M  END
>  <UniqueID>  (24) 
24

>  <SMILES>  (24) 
CC[NH+](CC)CCNc1c2c([n+](C)c3ccccc13)-c1cc3c(cc1C2=O)OCO3

>  <Energy>  (24) 
150.9598829781548

>  <Genealogy>  (24) 
CC[NH+](CC)CCNc1c2c([n+](C)c3ccccc13)-c1cc3c(cc1C2=O)OCO3 (protonated)
CC[NH+](CC)CCNc1c2c([n+](C)c3ccccc13)-c1cc3c(cc1C2=O)OCO3 (3D coordinates assigned)
CC[NH+](CC)CCNc1c2c([n+](C)c3ccccc13)-c1cc3c(cc1C2=O)OCO3 (nonaromatic ring conformer: 150.9598829781548 kcal/mol)

>  <smiles>  (24) 
CCN(CC)CCNc1c2c([n+](C)c3ccccc13)-c1cc3c(cc1C2=O)OCO3

>  <score_type>  (24) 
oracle

>  <origin>  (24) 
adg

>  <m_score__min__energy>  (24) 
-5.9100000000000001

>  <m_primary>  (24) 
energy

$$$$
24:0
     RDKit          3D

 47 48  0  0  0  0  0  0  0  0999 V2000
   58.1810   28.7610   44.7510 C   0  0  0  0  0  0  0  0  0  0  0  0
   57.0100   29.3400   45.5300 C   0  0  0  0  0  0  0  0  0  0  0  0
   56.2750   30.2000   44.6840 O   0  0  0  0  0  0  0  0  0  0  0  0
   56.5880   29.9560   43.3270 C   0  0  0  0  0  0  0  0  0  0  0  0
   57.0190   31.2460   42.6100 C   0  0  0  0  0  0  0  0  0  0  0  0
   57.7650   32.2350   43.5270 C   0  0  0  0  0  0  0  0  0  0  0  0
   57.0660   32.4750   44.8130 N   0  0  0  0  0  0  0  0  0  0  0  0
   57.3660   33.7980   45.3920 C   0  0  0  0  0  0  0  0  0  0  0  0
   58.6460   33.7830   46.1960 C   0  0  0  0  0  0  0  0  0  0  0  0
   59.8490   34.2090   45.6130 C   0  0  0  0  0  0  0  0  0  0  0  0
   61.0320   34.2110   46.3550 C   0  0  0  0  0  0  0  0  0  0  0  0
   61.0340   33.7850   47.6920 C   0  0  0  0  0  0  0  0  0  0  0  0
   62.2650   33.7870   48.4390 N   0  0  0  0  0  0  0  0  0  0  0  0
   62.3980   34.5770   49.6660 C   0  0  0  0  0  0  0  0  0  0  0  0
   63.3450   33.8600   50.6330 C   0  0  0  0  0  0  0  0  0  0  0  0
   64.5710   33.5480   49.9970 O   0  0  0  0  0  0  0  0  0  0  0  0
   64.3500   32.6140   48.9550 C   0  0  0  0  0  0  0  0  0  0  0  0
   63.4840   33.2260   47.8500 C   0  0  0  0  0  0  0  0  0  0  0  0
   59.8290   33.3560   48.2780 C   0  0  0  0  0  0  0  0  0  0  0  0
   59.7900   32.9670   49.5770 F   0  0  0  0  0  0  0  0  0  0  0  0
   58.6450   33.3560   47.5340 C   0  0  0  0  0  0  0  0  0  0  0  0
   58.9394   28.3860   45.4539 H   0  0  0  0  0  0  0  0  0  0  0  0
   57.8271   27.9340   44.1178 H   0  0  0  0  0  0  0  0  0  0  0  0
   58.6233   29.5442   44.1178 H   0  0  0  0  0  0  0  0  0  0  0  0
   56.3608   28.5241   45.8805 H   0  0  0  0  0  0  0  0  0  0  0  0
   57.3832   29.9028   46.3983 H   0  0  0  0  0  0  0  0  0  0  0  0
   57.4092   29.2260   43.2748 H   0  0  0  0  0  0  0  0  0  0  0  0
   55.6878   29.5671   42.8286 H   0  0  0  0  0  0  0  0  0  0  0  0
   57.6824   30.9761   41.7751 H   0  0  0  0  0  0  0  0  0  0  0  0
   56.1028   31.7488   42.2667 H   0  0  0  0  0  0  0  0  0  0  0  0
   58.7641   31.8280   43.7420 H   0  0  0  0  0  0  0  0  0  0  0  0
   57.8183   33.1977   42.9975 H   0  0  0  0  0  0  0  0  0  0  0  0
   57.3360   31.7300   45.4970 H   0  0  0  0  0  0  0  0  0  0  0  0
   56.0290   32.3940   44.6990 H   0  0  0  0  0  0  0  0  0  0  0  0
   57.4668   34.5289   44.5762 H   0  0  0  0  0  0  0  0  0  0  0  0
   56.5416   34.0699   46.0676 H   0  0  0  0  0  0  0  0  0  0  0  0
   59.8604   34.5434   44.5651 H   0  0  0  0  0  0  0  0  0  0  0  0
   61.9689   34.5489   45.8881 H   0  0  0  0  0  0  0  0  0  0  0  0
   62.8055   35.5690   49.4213 H   0  0  0  0  0  0  0  0  0  0  0  0
   61.4107   34.6929   50.1370 H   0  0  0  0  0  0  0  0  0  0  0  0
   63.5422   34.5134   51.4956 H   0  0  0  0  0  0  0  0  0  0  0  0
   62.8703   32.9240   50.9625 H   0  0  0  0  0  0  0  0  0  0  0  0
   65.3185   32.3132   48.5290 H   0  0  0  0  0  0  0  0  0  0  0  0
   63.8261   31.7404   49.3701 H   0  0  0  0  0  0  0  0  0  0  0  0
   64.0466   34.0235   47.3426 H   0  0  0  0  0  0  0  0  0  0  0  0
   63.2144   32.4470   47.1217 H   0  0  0  0  0  0  0  0  0  0  0  0
   57.7069   33.0195   47.9996 H   0  0  0  0  0  0  0  0  0  0  0  0
  1  2  1  0
  2  3  1  0
  3  4  1  0
  4  5  1  0
  5  6  1  0
  6  7  1  0
  7  8  1  0
  8  9  1  0
  9 10  2  0
 10 11  1  0
 11 12  2  0
 12 13  1  0
 13 14  1  0
 14 15  1  0
 15 16  1  0
 16 17  1  0
 17 18  1  0
 12 19  1  0
 19 20  1  0
 19 21  2  0
 21  9  1  0
 18 13  1  0
  1 22  1  0
  1 23  1  0
  1 24  1  0
  2 25  1  0
  2 26  1  0
  4 27  1  0
  4 28  1  0
  5 29  1  0
  5 30  1  0
  6 31  1  0
  6 32  1  0
  7 33  1  0
  7 34  1  0
  8 35  1  0
  8 36  1  0
 10 37  1  0
 11 38  1  0
 14 39  1  0
 14 40  1  0
 15 41  1  0
 15 42  1  0
 17 43  1  0
 17 44  1  0
 18 45  1  0
 18 46  1  0
 21 47  1  0
M  CHG  1   7   1
M  END
>  <UniqueID>  (25) 
25

>  <SMILES>  (25) 
CCOCCC[NH2+]Cc1ccc(N2CCOCC2)c(F)c1

>  <Energy>  (25) 
50.824442286096996

>  <Genealogy>  (25) 
CCOCCC[NH2+]Cc1ccc(N2CCOCC2)c(F)c1 (protonated)
CCOCCC[NH2+]Cc1ccc(N2CCOCC2)c(F)c1 (3D coordinates assigned)
CCOCCC[NH2+]Cc1ccc(N2CCOCC2)c(F)c1 (nonaromatic ring conformer: 50.824442286096996 kcal/mol)

>  <smiles>  (25) 
CCOCCCNCc1ccc(N2CCOCC2)c(F)c1

>  <score_type>  (25) 
oracle

>  <origin>  (25) 
adg

>  <m_score__min__energy>  (25) 
-4.3099999999999996

>  <m_primary>  (25) 
energy

$$$$
25:0
     RDKit          3D

 75 78  0  0  0  0  0  0  0  0999 V2000
   63.2260   33.3630   47.3340 C   0  0  0  0  0  0  0  0  0  0  0  0
   62.0350   33.4620   46.3840 C   0  0  0  0  0  0  0  0  0  0  0  0
   61.0680   34.4740   46.8590 N   0  0  0  0  0  0  0  0  0  0  0  0
   60.6790   34.2560   48.2640 C   0  0  0  0  0  0  0  0  0  0  0  0
   59.8940   34.6060   45.9650 C   0  0  0  0  0  0  0  0  0  0  0  0
   58.5390   34.6030   46.7100 C   0  0  0  0  0  0  0  0  0  0  0  0
   57.9980   33.1820   46.9060 C   0  0  0  0  0  0  0  0  0  0  0  0
   59.0570   32.1850   46.7490 N   0  0  0  0  0  0  0  0  0  0  0  0
   58.7430   30.8320   46.3840 C   0  0  0  0  0  0  0  0  0  0  0  0
   58.0370   30.5260   45.1960 C   0  0  0  0  0  0  0  0  0  0  0  0
   57.6900   31.5400   44.2830 C   0  0  0  0  0  0  0  0  0  0  0  0
   57.0160   31.2360   43.1030 C   0  0  0  0  0  0  0  0  0  0  0  0
   56.6880   29.9180   42.8040 C   0  0  0  0  0  0  0  0  0  0  0  0
   57.0120   28.8920   43.6910 C   0  0  0  0  0  0  0  0  0  0  0  0
   57.6690   29.1660   44.9160 C   0  0  0  0  0  0  0  0  0  0  0  0
   57.9640   28.1580   45.8230 N   0  0  0  0  0  0  0  0  0  0  0  0
   57.4900   26.7760   45.6280 C   0  0  0  0  0  0  0  0  0  0  0  0
   58.7340   28.4710   46.9120 C   0  0  0  0  0  0  0  0  0  0  0  0
   59.2450   27.5950   47.8140 N   0  0  0  0  0  0  0  0  0  0  0  0
   59.9590   28.3520   48.6700 C   0  0  0  0  0  0  0  0  0  0  0  0
   60.7080   27.8990   49.7540 C   0  0  0  0  0  0  0  0  0  0  0  0
   61.4250   28.8470   50.5040 C   0  0  0  0  0  0  0  0  0  0  0  0
   61.4000   30.2160   50.1580 C   0  0  0  0  0  0  0  0  0  0  0  0
   62.1410   31.1120   50.9420 O   0  0  0  0  0  0  0  0  0  0  0  0
   62.2060   32.5180   50.7180 C   0  0  0  0  0  0  0  0  0  0  0  0
   61.2600   33.2440   51.6770 C   0  0  0  0  0  0  0  0  0  0  0  0
   59.8260   33.3160   51.0980 C   0  0  0  0  0  0  0  0  0  0  0  0
   58.7870   32.5750   51.8770 N   0  0  0  0  0  0  0  0  0  0  0  0
   59.4060   31.5680   52.7740 C   0  0  0  0  0  0  0  0  0  0  0  0
   57.8110   31.9090   50.9810 C   0  0  0  0  0  0  0  0  0  0  0  0
   58.0580   33.5580   52.7150 C   0  0  0  0  0  0  0  0  0  0  0  0
   60.6410   30.6440   49.0410 C   0  0  0  0  0  0  0  0  0  0  0  0
   59.9140   29.6860   48.3300 C   0  0  0  0  0  0  0  0  0  0  0  0
   59.1180   29.7660   47.1990 C   0  0  0  0  0  0  0  0  0  0  0  0
   62.8689   33.3927   48.3740 H   0  0  0  0  0  0  0  0  0  0  0  0
   63.7592   32.4174   47.1562 H   0  0  0  0  0  0  0  0  0  0  0  0
   63.9080   34.2075   47.1562 H   0  0  0  0  0  0  0  0  0  0  0  0
   62.3939   33.7474   45.3841 H   0  0  0  0  0  0  0  0  0  0  0  0
   61.5322   32.4844   46.3455 H   0  0  0  0  0  0  0  0  0  0  0  0
   61.4446   34.6850   48.9272 H   0  0  0  0  0  0  0  0  0  0  0  0
   59.7120   34.7436   48.4566 H   0  0  0  0  0  0  0  0  0  0  0  0
   60.5902   33.1766   48.4566 H   0  0  0  0  0  0  0  0  0  0  0  0
   59.9837   35.5527   45.4121 H   0  0  0  0  0  0  0  0  0  0  0  0
   59.8966   33.7290   45.3011 H   0  0  0  0  0  0  0  0  0  0  0  0
   58.6742   35.0713   47.6961 H   0  0  0  0  0  0  0  0  0  0  0  0
   57.8139   35.1631   46.1013 H   0  0  0  0  0  0  0  0  0  0  0  0
   57.5722   33.0967   47.9166 H   0  0  0  0  0  0  0  0  0  0  0  0
   57.2282   32.9947   46.1429 H   0  0  0  0  0  0  0  0  0  0  0  0
   60.0440   32.5150   46.6580 H   0  0  0  0  0  0  0  0  0  0  0  0
   57.9544   32.5846   44.5044 H   0  0  0  0  0  0  0  0  0  0  0  0
   56.7421   32.0409   42.4051 H   0  0  0  0  0  0  0  0  0  0  0  0
   56.1700   29.6835   41.8624 H   0  0  0  0  0  0  0  0  0  0  0  0
   56.7535   27.8537   43.4357 H   0  0  0  0  0  0  0  0  0  0  0  0
   57.3276   26.3024   46.6075 H   0  0  0  0  0  0  0  0  0  0  0  0
   56.5448   26.7885   45.0655 H   0  0  0  0  0  0  0  0  0  0  0  0
   58.2439   26.2057   45.0655 H   0  0  0  0  0  0  0  0  0  0  0  0
   59.1720   26.5550   47.8340 H   0  0  0  0  0  0  0  0  0  0  0  0
   60.7373   26.8308   50.0151 H   0  0  0  0  0  0  0  0  0  0  0  0
   62.0140   28.5180   51.3728 H   0  0  0  0  0  0  0  0  0  0  0  0
   63.2353   32.8669   50.8877 H   0  0  0  0  0  0  0  0  0  0  0  0
   61.9057   32.7333   49.6819 H   0  0  0  0  0  0  0  0  0  0  0  0
   61.2341   32.7028   52.6343 H   0  0  0  0  0  0  0  0  0  0  0  0
   61.6298   34.2697   51.8224 H   0  0  0  0  0  0  0  0  0  0  0  0
   59.5290   34.3743   51.0553 H   0  0  0  0  0  0  0  0  0  0  0  0
   59.8706   32.8320   50.1112 H   0  0  0  0  0  0  0  0  0  0  0  0
   59.2306   31.8533   53.8218 H   0  0  0  0  0  0  0  0  0  0  0  0
   58.9580   30.5818   52.5826 H   0  0  0  0  0  0  0  0  0  0  0  0
   60.4883   31.5225   52.5826 H   0  0  0  0  0  0  0  0  0  0  0  0
   57.0521   31.3911   51.5858 H   0  0  0  0  0  0  0  0  0  0  0  0
   57.3222   32.6628   50.3463 H   0  0  0  0  0  0  0  0  0  0  0  0
   58.3347   31.1790   50.3463 H   0  0  0  0  0  0  0  0  0  0  0  0
   58.2268   33.3304   53.7779 H   0  0  0  0  0  0  0  0  0  0  0  0
   58.4247   34.5713   52.4943 H   0  0  0  0  0  0  0  0  0  0  0  0
   56.9819   33.5013   52.4943 H   0  0  0  0  0  0  0  0  0  0  0  0
   60.6245   31.7023   48.7415 H   0  0  0  0  0  0  0  0  0  0  0  0
  1  2  1  0
  2  3  1  0
  3  4  1  0
  3  5  1  0
  5  6  1  0
  6  7  1  0
  7  8  1  0
  8  9  1  0
  9 10  2  0
 10 11  1  0
 11 12  2  0
 12 13  1  0
 13 14  2  0
 14 15  1  0
 15 16  2  0
 16 17  1  0
 16 18  1  0
 18 19  1  0
 19 20  1  0
 20 21  2  0
 21 22  1  0
 22 23  2  0
 23 24  1  0
 24 25  1  0
 25 26  1  0
 26 27  1  0
 27 28  1  0
 28 29  1  0
 28 30  1  0
 28 31  1  0
 23 32  1  0
 32 33  2  0
 33 34  1  0
 34  9  1  0
 15 10  1  0
 34 18  2  0
 33 20  1  0
  1 35  1  0
  1 36  1  0
  1 37  1  0
  2 38  1  0
  2 39  1  0
  4 40  1  0
  4 41  1  0
  4 42  1  0
  5 43  1  0
  5 44  1  0
  6 45  1  0
  6 46  1  0
  7 47  1  0
  7 48  1  0
  8 49  1  0
 11 50  1  0
 12 51  1  0
 13 52  1  0
 14 53  1  0
 17 54  1  0
 17 55  1  0
 17 56  1  0
 19 57  1  0
 21 58  1  0
 22 59  1  0
 25 60  1  0
 25 61  1  0
 26 62  1  0
 26 63  1  0
 27 64  1  0
 27 65  1  0
 29 66  1  0
 29 67  1  0
 29 68  1  0
 30 69  1  0
 30 70  1  0
 30 71  1  0
 31 72  1  0
 31 73  1  0
 31 74  1  0
 32 75  1  0
M  CHG  2  16   1  28   1
M  END
>  <UniqueID>  (26) 
26

>  <SMILES>  (26) 
CCN(C)CCCNc1c2ccccc2[n+](C)c2[nH]c3ccc(OCCC[N+](C)(C)C)cc3c12

>  <Energy>  (26) 
134.15091381037516

>  <Genealogy>  (26) 
CCN(C)CCCNc1c2ccccc2[n+](C)c2[nH]c3ccc(OCCC[N+](C)(C)C)cc3c12 (3D coordinates assigned)
CCN(C)CCCNc1c2ccccc2[n+](C)c2[nH]c3ccc(OCCC[N+](C)(C)C)cc3c12 (optimized conformer: 134.15091381037516 kcal/mol)

>  <smiles>  (26) 
CCN(C)CCCNc1c2ccccc2[n+](C)c2[nH]c3ccc(OCCC[N+](C)(C)C)cc3c12

>  <score_type>  (26) 
oracle

>  <origin>  (26) 
adg

>  <m_score__min__energy>  (26) 
-5.4500000000000002

>  <m_primary>  (26) 
energy

$$$$
26:0
     RDKit          3D

 84 87  0  0  0  0  0  0  0  0999 V2000
   66.4340   32.1640   50.8160 C   0  0  0  0  0  0  0  0  0  0  0  0
   65.4850   32.6900   49.7420 C   0  0  0  0  0  0  0  0  0  0  0  0
   64.1550   32.9640   50.3070 N   0  0  0  0  0  0  0  0  0  0  0  0
   64.1900   33.9610   51.3930 C   0  0  0  0  0  0  0  0  0  0  0  0
   62.9490   33.7910   52.2780 C   0  0  0  0  0  0  0  0  0  0  0  0
   61.9940   32.8060   51.7150 N   0  0  0  0  0  0  0  0  0  0  0  0
   60.8600   33.4330   51.0110 C   0  0  0  0  0  0  0  0  0  0  0  0
   61.0340   33.3830   49.4790 C   0  0  0  0  0  0  0  0  0  0  0  0
   61.7720   32.1910   49.0360 N   0  0  0  0  0  0  0  0  0  0  0  0
   61.7860   32.0420   47.5750 C   0  0  0  0  0  0  0  0  0  0  0  0
   60.4360   31.5140   47.1010 C   0  0  0  0  0  0  0  0  0  0  0  0
   60.0370   30.1810   47.3820 C   0  0  0  0  0  0  0  0  0  0  0  0
   60.7570   29.3790   48.3030 C   0  0  0  0  0  0  0  0  0  0  0  0
   60.3950   28.0580   48.5480 C   0  0  0  0  0  0  0  0  0  0  0  0
   59.3080   27.5030   47.8940 C   0  0  0  0  0  0  0  0  0  0  0  0
   58.5600   28.2720   47.0060 C   0  0  0  0  0  0  0  0  0  0  0  0
   58.8890   29.6290   46.7430 C   0  0  0  0  0  0  0  0  0  0  0  0
   58.0970   30.4320   45.8690 C   0  0  0  0  0  0  0  0  0  0  0  0
   56.9140   29.8020   45.1200 C   0  0  0  0  0  0  0  0  0  0  0  0
   57.1400   28.3810   44.7990 N   0  0  0  0  0  0  0  0  0  0  0  0
   57.6960   28.1960   43.4550 C   0  0  0  0  0  0  0  0  0  0  0  0
   58.1810   26.7530   43.2550 C   0  0  0  0  0  0  0  0  0  0  0  0
   58.2290   25.9540   44.5640 C   0  0  0  0  0  0  0  0  0  0  0  0
   56.8700   25.7830   45.1030 N   0  0  0  0  0  0  0  0  0  0  0  0
   56.3150   24.4160   45.0080 C   0  0  0  0  0  0  0  0  0  0  0  0
   56.2950   23.8600   43.5550 C   0  0  0  0  0  0  0  0  0  0  0  0
   56.7160   22.3930   43.4770 C   0  0  0  0  0  0  0  0  0  0  0  0
   58.0880   22.2200   44.1250 C   0  0  0  0  0  0  0  0  0  0  0  0
   58.0660   22.5430   45.6300 C   0  0  0  0  0  0  0  0  0  0  0  0
   56.9070   23.4600   46.0840 C   0  0  0  0  0  0  0  0  0  0  0  0
   58.4060   31.8200   45.7300 C   0  0  0  0  0  0  0  0  0  0  0  0
   57.5880   32.7000   44.9730 C   0  0  0  0  0  0  0  0  0  0  0  0
   57.8820   34.0570   44.8690 C   0  0  0  0  0  0  0  0  0  0  0  0
   58.9900   34.5820   45.5160 C   0  0  0  0  0  0  0  0  0  0  0  0
   59.8190   33.7510   46.2580 C   0  0  0  0  0  0  0  0  0  0  0  0
   59.5640   32.3590   46.3650 C   0  0  0  0  0  0  0  0  0  0  0  0
   66.0238   32.3914   51.8110 H   0  0  0  0  0  0  0  0  0  0  0  0
   66.5456   31.0753   50.7054 H   0  0  0  0  0  0  0  0  0  0  0  0
   67.4164   32.6464   50.7054 H   0  0  0  0  0  0  0  0  0  0  0  0
   65.8964   33.6195   49.3215 H   0  0  0  0  0  0  0  0  0  0  0  0
   65.3834   31.9259   48.9572 H   0  0  0  0  0  0  0  0  0  0  0  0
   63.5510   33.3380   49.5370 H   0  0  0  0  0  0  0  0  0  0  0  0
   65.0962   33.8128   51.9987 H   0  0  0  0  0  0  0  0  0  0  0  0
   64.2000   34.9735   50.9632 H   0  0  0  0  0  0  0  0  0  0  0  0
   63.2673   33.4477   53.2734 H   0  0  0  0  0  0  0  0  0  0  0  0
   62.4382   34.7635   52.3362 H   0  0  0  0  0  0  0  0  0  0  0  0
   62.4680   32.1210   51.0790 H   0  0  0  0  0  0  0  0  0  0  0  0
   61.5980   32.2480   52.5080 H   0  0  0  0  0  0  0  0  0  0  0  0
   59.9359   32.9011   51.2813 H   0  0  0  0  0  0  0  0  0  0  0  0
   60.8132   34.4894   51.3140 H   0  0  0  0  0  0  0  0  0  0  0  0
   60.0387   33.3762   49.0107 H   0  0  0  0  0  0  0  0  0  0  0  0
   61.6153   34.2673   49.1790 H   0  0  0  0  0  0  0  0  0  0  0  0
   62.7550   32.2390   49.3890 H   0  0  0  0  0  0  0  0  0  0  0  0
   61.9807   33.0194   47.1093 H   0  0  0  0  0  0  0  0  0  0  0  0
   62.5765   31.3330   47.2879 H   0  0  0  0  0  0  0  0  0  0  0  0
   61.6187   29.8094   48.8343 H   0  0  0  0  0  0  0  0  0  0  0  0
   60.9733   27.4536   49.2624 H   0  0  0  0  0  0  0  0  0  0  0  0
   59.0349   26.4531   48.0761 H   0  0  0  0  0  0  0  0  0  0  0  0
   57.6961   27.8192   46.4974 H   0  0  0  0  0  0  0  0  0  0  0  0
   56.0152   29.8827   45.7490 H   0  0  0  0  0  0  0  0  0  0  0  0
   56.7936   30.3437   44.1702 H   0  0  0  0  0  0  0  0  0  0  0  0
   56.2400   27.8510   44.8610 H   0  0  0  0  0  0  0  0  0  0  0  0
   56.9187   28.4210   42.7099 H   0  0  0  0  0  0  0  0  0  0  0  0
   58.5534   28.8743   43.3336 H   0  0  0  0  0  0  0  0  0  0  0  0
   57.4969   26.2458   42.5588 H   0  0  0  0  0  0  0  0  0  0  0  0
   59.2060   26.8005   42.8587 H   0  0  0  0  0  0  0  0  0  0  0  0
   58.6707   24.9653   44.3706 H   0  0  0  0  0  0  0  0  0  0  0  0
   58.8406   26.5006   45.2969 H   0  0  0  0  0  0  0  0  0  0  0  0
   56.2290   26.4400   44.5980 H   0  0  0  0  0  0  0  0  0  0  0  0
   55.2474   24.4835   45.2642 H   0  0  0  0  0  0  0  0  0  0  0  0
   55.2741   23.9544   43.1565 H   0  0  0  0  0  0  0  0  0  0  0  0
   57.0180   24.4440   42.9667 H   0  0  0  0  0  0  0  0  0  0  0  0
   55.9794   21.7718   44.0075 H   0  0  0  0  0  0  0  0  0  0  0  0
   56.7675   22.0827   42.4229 H   0  0  0  0  0  0  0  0  0  0  0  0
   58.4140   21.1780   43.9912 H   0  0  0  0  0  0  0  0  0  0  0  0
   58.7815   22.9223   43.6393 H   0  0  0  0  0  0  0  0  0  0  0  0
   57.9870   21.5946   46.1816 H   0  0  0  0  0  0  0  0  0  0  0  0
   58.9946   23.0940   45.8400 H   0  0  0  0  0  0  0  0  0  0  0  0
   56.0915   22.8149   46.4428 H   0  0  0  0  0  0  0  0  0  0  0  0
   57.3404   24.1184   46.8513 H   0  0  0  0  0  0  0  0  0  0  0  0
   56.7023   32.3007   44.4572 H   0  0  0  0  0  0  0  0  0  0  0  0
   57.2332   34.7144   44.2717 H   0  0  0  0  0  0  0  0  0  0  0  0
   59.2125   35.6567   45.4416 H   0  0  0  0  0  0  0  0  0  0  0  0
   60.6909   34.1803   46.7732 H   0  0  0  0  0  0  0  0  0  0  0  0
  1  2  1  0
  2  3  1  0
  3  4  1  0
  4  5  1  0
  5  6  1  0
  6  7  1  0
  7  8  1  0
  8  9  1  0
  9 10  1  0
 10 11  1  0
 11 12  2  0
 12 13  1  0
 13 14  2  0
 14 15  1  0
 15 16  2  0
 16 17  1  0
 17 18  2  0
 18 19  1  0
 19 20  1  0
 20 21  1  0
 21 22  1  0
 22 23  1  0
 23 24  1  0
 24 25  1  0
 25 26  1  0
 26 27  1  0
 27 28  1  0
 28 29  1  0
 29 30  1  0
 18 31  1  0
 31 32  2  0
 32 33  1  0
 33 34  2  0
 34 35  1  0
 35 36  2  0
 36 11  1  0
 17 12  1  0
 30 25  1  0
 36 31  1  0
  1 37  1  0
  1 38  1  0
  1 39  1  0
  2 40  1  0
  2 41  1  0
  3 42  1  0
  4 43  1  0
  4 44  1  0
  5 45  1  0
  5 46  1  0
  6 47  1  0
  6 48  1  0
  7 49  1  0
  7 50  1  0
  8 51  1  0
  8 52  1  0
  9 53  1  0
 10 54  1  0
 10 55  1  0
 13 56  1  0
 14 57  1  0
 15 58  1  0
 16 59  1  0
 19 60  1  0
 19 61  1  0
 20 62  1  0
 21 63  1  0
 21 64  1  0
 22 65  1  0
 22 66  1  0
 23 67  1  0
 23 68  1  0
 24 69  1  0
 25 70  1  0
 26 71  1  0
 26 72  1  0
 27 73  1  0
 27 74  1  0
 28 75  1  0
 28 76  1  0
 29 77  1  0
 29 78  1  0
 30 79  1  0
 30 80  1  0
 32 81  1  0
 33 82  1  0
 34 83  1  0
 35 84  1  0
M  CHG  1   6   1
M  END
>  <UniqueID>  (27) 
27

>  <SMILES>  (27) 
CCNCC[NH2+]CCNCc1c2ccccc2c(CNCCCNC2CCCCC2)c2ccccc12

>  <Energy>  (27) 
114.54683342753975

>  <Genealogy>  (27) 
CCNCC[NH2+]CCNCc1c2ccccc2c(CNCCCNC2CCCCC2)c2ccccc12 (protonated)
CCNCC[NH2+]CCNCc1c2ccccc2c(CNCCCNC2CCCCC2)c2ccccc12 (3D coordinates assigned)
CCNCC[NH2+]CCNCc1c2ccccc2c(CNCCCNC2CCCCC2)c2ccccc12 (nonaromatic ring conformer: 114.54683342753975 kcal/mol)

>  <smiles>  (27) 
CCNCCNCCNCc1c2ccccc2c(CNCCCNC2CCCCC2)c2ccccc12

>  <score_type>  (27) 
oracle

>  <origin>  (27) 
adg

>  <m_score__min__energy>  (27) 
-7.5800000000000001

>  <m_primary>  (27) 
energy

$$$$
27:0
     RDKit          3D

 62 65  0  0  0  0  0  0  0  0999 V2000
   50.5980   33.0090   47.7640 H   0  0  0  0  0  0  0  0  0  0  0  0
   50.2750   32.7160   48.7140 N   0  0  0  0  0  0  0  0  0  0  0  0
   51.0040   31.9650   49.4730 C   0  0  0  0  0  0  0  0  0  0  0  0
   51.3960   32.4080   50.7010 N   0  0  0  0  0  0  0  0  0  0  0  0
   52.1620   31.6460   51.5260 C   0  0  0  0  0  0  0  0  0  0  0  0
   52.4621   32.0333   52.5109 H   0  0  0  0  0  0  0  0  0  0  0  0
   52.5690   30.3690   51.1230 C   0  0  0  0  0  0  0  0  0  0  0  0
   53.3790   29.5580   51.9900 C   0  0  0  0  0  0  0  0  0  0  0  0
   54.0680   28.8850   52.7150 C   0  0  0  0  0  0  0  0  0  0  0  0
   54.9020   28.0950   53.5920 C   0  0  0  0  0  0  0  0  0  0  0  0
   56.2630   28.4230   53.7850 C   0  0  0  0  0  0  0  0  0  0  0  0
   56.8900   29.6140   53.1670 C   0  0  0  0  0  0  0  0  0  0  0  0
   56.2670   30.8630   53.2770 C   0  0  0  0  0  0  0  0  0  0  0  0
   55.3315   30.9592   53.8476 H   0  0  0  0  0  0  0  0  0  0  0  0
   56.8260   31.9860   52.6670 C   0  0  0  0  0  0  0  0  0  0  0  0
   56.3378   32.9659   52.7741 H   0  0  0  0  0  0  0  0  0  0  0  0
   58.0050   31.8740   51.9190 C   0  0  0  0  0  0  0  0  0  0  0  0
   58.5400   33.0660   51.2330 C   0  0  0  0  0  0  0  0  0  0  0  0
   58.5530   34.1590   51.8470 O   0  0  0  0  0  0  0  0  0  0  0  0
   58.9950   33.0010   49.8640 N   0  0  0  0  0  0  0  0  0  0  0  0
   59.9440   33.9940   49.3440 C   0  0  0  0  0  0  0  0  0  0  0  0
   60.0515   34.8060   50.0782 H   0  0  0  0  0  0  0  0  0  0  0  0
   60.9094   33.4956   49.1718 H   0  0  0  0  0  0  0  0  0  0  0  0
   59.4550   34.5880   48.0040 C   0  0  0  0  0  0  0  0  0  0  0  0
   59.0214   35.5801   48.1984 H   0  0  0  0  0  0  0  0  0  0  0  0
   60.3248   34.6427   47.3329 H   0  0  0  0  0  0  0  0  0  0  0  0
   58.4320   33.7490   47.3340 N   0  0  0  0  0  0  0  0  0  0  0  0
   58.3420   34.0880   45.9070 C   0  0  0  0  0  0  0  0  0  0  0  0
   58.0611   35.1460   45.7985 H   0  0  0  0  0  0  0  0  0  0  0  0
   59.3168   33.9164   45.4272 H   0  0  0  0  0  0  0  0  0  0  0  0
   57.5807   33.4554   45.4272 H   0  0  0  0  0  0  0  0  0  0  0  0
   58.7240   32.3160   47.5040 C   0  0  0  0  0  0  0  0  0  0  0  0
   58.0512   31.7235   46.8666 H   0  0  0  0  0  0  0  0  0  0  0  0
   59.7653   32.1100   47.2154 H   0  0  0  0  0  0  0  0  0  0  0  0
   58.5070   31.9390   48.9710 C   0  0  0  0  0  0  0  0  0  0  0  0
   57.4323   31.7853   49.1481 H   0  0  0  0  0  0  0  0  0  0  0  0
   59.0674   31.0166   49.1832 H   0  0  0  0  0  0  0  0  0  0  0  0
   58.6560   30.6300   51.8150 C   0  0  0  0  0  0  0  0  0  0  0  0
   59.8700   30.5550   51.1120 O   0  0  0  0  0  0  0  0  0  0  0  0
   61.1580   30.6290   51.7140 C   0  0  0  0  0  0  0  0  0  0  0  0
   61.0519   30.6229   52.8089 H   0  0  0  0  0  0  0  0  0  0  0  0
   61.7602   29.7640   51.3991 H   0  0  0  0  0  0  0  0  0  0  0  0
   61.6571   31.5573   51.3991 H   0  0  0  0  0  0  0  0  0  0  0  0
   58.0800   29.5010   52.4270 C   0  0  0  0  0  0  0  0  0  0  0  0
   58.5662   28.5196   52.3252 H   0  0  0  0  0  0  0  0  0  0  0  0
   57.0360   27.6210   54.5610 N   0  0  0  0  0  0  0  0  0  0  0  0
   56.5290   26.5260   55.1780 C   0  0  0  0  0  0  0  0  0  0  0  0
   57.1805   25.8972   55.8026 H   0  0  0  0  0  0  0  0  0  0  0  0
   55.2180   26.2030   55.0270 N   0  0  0  0  0  0  0  0  0  0  0  0
   54.8520   25.3600   55.5240 H   0  0  0  0  0  0  0  0  0  0  0  0
   54.3920   26.9460   54.2370 C   0  0  0  0  0  0  0  0  0  0  0  0
   52.9380   26.5430   54.1110 C   0  0  0  0  0  0  0  0  0  0  0  0
   52.5689   26.2122   55.0930 H   0  0  0  0  0  0  0  0  0  0  0  0
   52.3607   27.4102   53.7578 H   0  0  0  0  0  0  0  0  0  0  0  0
   52.7770   25.4060   53.1070 C   0  0  0  0  0  0  0  0  0  0  0  0
   52.6426   24.4568   53.6464 H   0  0  0  0  0  0  0  0  0  0  0  0
   51.8969   25.5965   52.4753 H   0  0  0  0  0  0  0  0  0  0  0  0
   53.6754   25.3447   52.4753 H   0  0  0  0  0  0  0  0  0  0  0  0
   52.1800   29.8950   49.8670 C   0  0  0  0  0  0  0  0  0  0  0  0
   52.4927   28.8941   49.5347 H   0  0  0  0  0  0  0  0  0  0  0  0
   51.3930   30.6950   49.0340 C   0  0  0  0  0  0  0  0  0  0  0  0
   51.0828   30.3299   48.0438 H   0  0  0  0  0  0  0  0  0  0  0  0
  1  2  1  0
  2  3  2  0
  3  4  1  0
  4  5  1  0
  5  6  1  0
  5  7  2  0
  7  8  1  0
  8  9  3  0
  9 10  1  0
 10 11  1  0
 11 12  1  0
 12 13  2  0
 13 14  1  0
 13 15  1  0
 15 16  1  0
 15 17  2  0
 17 18  1  0
 18 19  2  0
 18 20  1  0
 20 21  1  0
 21 22  1  0
 21 23  1  0
 21 24  1  0
 24 25  1  0
 24 26  1  0
 24 27  1  0
 27 28  1  0
 28 29  1  0
 28 30  1  0
 28 31  1  0
 27 32  1  0
 32 33  1  0
 32 34  1  0
 32 35  1  0
 35 36  1  0
 35 37  1  0
 17 38  1  0
 38 39  1  0
 39 40  1  0
 40 41  1  0
 40 42  1  0
 40 43  1  0
 38 44  2  0
 44 45  1  0
 11 46  2  0
 46 47  1  0
 47 48  1  0
 47 49  2  0
 49 50  1  0
 49 51  1  0
 51 52  1  0
 52 53  1  0
 52 54  1  0
 52 55  1  0
 55 56  1  0
 55 57  1  0
 55 58  1  0
  7 59  1  0
 59 60  1  0
 59 61  2  0
 61 62  1  0
 61  3  1  0
 51 10  2  0
 44 12  1  0
 35 20  1  0
M  CHG  2   4  -1  49   1
M  END
>  <UniqueID>  (28) 
28

>  <SMILES>  (28) 
[H]/N=c1/ccc(C#Cc2c(-c3ccc(C(=O)N4CCN(C)CC4)c(OC)c3)nc[nH+]c2CC)c[n-]1

>  <Energy>  (28) 
76.10880414704258

>  <Genealogy>  (28) 
CCc1[nH+]cnc(-c2ccc(C(=O)N3CCN(C)CC3)c(OC)c2)c1C#Cc1ccc(=N)[n-]c1 (protonated)
[H]/N=c1/ccc(C#Cc2c(-c3ccc(C(=O)N4CCN(C)CC4)c(OC)c3)nc[nH+]c2CC)c[n-]1 (cis-trans isomerization)
[H]/N=c1/ccc(C#Cc2c(-c3ccc(C(=O)N4CCN(C)CC4)c(OC)c3)nc[nH+]c2CC)c[n-]1 (3D coordinates assigned)
[H]/N=c1/ccc(C#Cc2c(-c3ccc(C(=O)N4CCN(C)CC4)c(OC)c3)nc[nH+]c2CC)c[n-]1 (nonaromatic ring conformer: 76.10880414704258 kcal/mol)

>  <smiles>  (28) 
CCc1ncnc(-c2ccc(C(=O)N3CCN(C)CC3)c(OC)c2)c1C#Cc1ccc(=N)[nH]c1

>  <score_type>  (28) 
oracle

>  <origin>  (28) 
adg

>  <m_score__min__energy>  (28) 
-10.41

>  <m_primary>  (28) 
energy

$$$$
28:0
     RDKit          3D

 52 53  0  0  0  0  0  0  0  0999 V2000
   61.9890   31.5690   47.1660 N   0  0  0  0  0  0  0  0  0  0  0  0
   62.8820   32.7090   47.3550 C   0  0  0  0  0  0  0  0  0  0  0  0
   62.1930   33.8310   48.1450 C   0  0  0  0  0  0  0  0  0  0  0  0
   61.3130   33.3000   49.2820 C   0  0  0  0  0  0  0  0  0  0  0  0
   60.1890   32.5020   48.7340 N   0  0  0  0  0  0  0  0  0  0  0  0
   59.8930   31.2920   49.5340 C   0  0  0  0  0  0  0  0  0  0  0  0
   59.7250   30.0440   48.6990 C   0  0  0  0  0  0  0  0  0  0  0  0
   59.2760   28.8200   49.2810 N   0  0  0  0  0  0  0  0  0  0  0  0
   60.0120   30.0780   47.4710 O   0  0  0  0  0  0  0  0  0  0  0  0
   58.9790   33.3100   48.4530 C   0  0  0  0  0  0  0  0  0  0  0  0
   58.7550   33.4340   46.9680 C   0  0  0  0  0  0  0  0  0  0  0  0
   59.2610   34.5380   46.2610 C   0  0  0  0  0  0  0  0  0  0  0  0
   59.0660   34.6400   44.8820 C   0  0  0  0  0  0  0  0  0  0  0  0
   58.3630   33.6480   44.1960 C   0  0  0  0  0  0  0  0  0  0  0  0
   57.8440   32.5410   44.8870 C   0  0  0  0  0  0  0  0  0  0  0  0
   57.0530   31.4860   44.1560 C   0  0  0  0  0  0  0  0  0  0  0  0
   56.6460   30.4120   45.0700 N   0  0  0  0  0  0  0  0  0  0  0  0
   56.8780   29.0890   44.4800 C   0  0  0  0  0  0  0  0  0  0  0  0
   58.0950   28.4730   45.1080 C   0  0  0  0  0  0  0  0  0  0  0  0
   59.3710   28.8150   44.6430 C   0  0  0  0  0  0  0  0  0  0  0  0
   60.5060   28.2680   45.2400 C   0  0  0  0  0  0  0  0  0  0  0  0
   60.3560   27.3840   46.3110 C   0  0  0  0  0  0  0  0  0  0  0  0
   59.1120   27.0700   46.7630 N   0  0  0  0  0  0  0  0  0  0  0  0
   57.9910   27.5890   46.1950 C   0  0  0  0  0  0  0  0  0  0  0  0
   58.0540   32.4350   46.2730 C   0  0  0  0  0  0  0  0  0  0  0  0
   61.0690   31.9180   46.8050 H   0  0  0  0  0  0  0  0  0  0  0  0
   61.8150   31.1430   48.1040 H   0  0  0  0  0  0  0  0  0  0  0  0
   63.7743   32.3779   47.9066 H   0  0  0  0  0  0  0  0  0  0  0  0
   63.1600   33.1007   46.3654 H   0  0  0  0  0  0  0  0  0  0  0  0
   62.9662   34.4849   48.5746 H   0  0  0  0  0  0  0  0  0  0  0  0
   61.5406   34.3763   47.4471 H   0  0  0  0  0  0  0  0  0  0  0  0
   61.9198   32.6649   49.9441 H   0  0  0  0  0  0  0  0  0  0  0  0
   60.9052   34.1517   49.8462 H   0  0  0  0  0  0  0  0  0  0  0  0
   60.7211   31.1300   50.2397 H   0  0  0  0  0  0  0  0  0  0  0  0
   58.9363   31.4693   50.0472 H   0  0  0  0  0  0  0  0  0  0  0  0
   59.2000   28.7100   50.3160 H   0  0  0  0  0  0  0  0  0  0  0  0
   59.1130   27.9850   48.6740 H   0  0  0  0  0  0  0  0  0  0  0  0
   58.1052   32.8231   48.9107 H   0  0  0  0  0  0  0  0  0  0  0  0
   59.1195   34.3161   48.8749 H   0  0  0  0  0  0  0  0  0  0  0  0
   59.8129   35.3249   46.7959 H   0  0  0  0  0  0  0  0  0  0  0  0
   59.4678   35.5052   44.3343 H   0  0  0  0  0  0  0  0  0  0  0  0
   58.2149   33.7338   43.1094 H   0  0  0  0  0  0  0  0  0  0  0  0
   56.1550   31.9470   43.7189 H   0  0  0  0  0  0  0  0  0  0  0  0
   57.6859   31.0554   43.3661 H   0  0  0  0  0  0  0  0  0  0  0  0
   55.6170   30.5090   45.2320 H   0  0  0  0  0  0  0  0  0  0  0  0
   56.0044   28.4463   44.6636 H   0  0  0  0  0  0  0  0  0  0  0  0
   57.0338   29.1908   43.3959 H   0  0  0  0  0  0  0  0  0  0  0  0
   59.4781   29.5178   43.8036 H   0  0  0  0  0  0  0  0  0  0  0  0
   61.5088   28.5298   44.8715 H   0  0  0  0  0  0  0  0  0  0  0  0
   61.2430   26.9422   46.7885 H   0  0  0  0  0  0  0  0  0  0  0  0
   57.0003   27.3161   46.5875 H   0  0  0  0  0  0  0  0  0  0  0  0
   57.6658   31.5619   46.8180 H   0  0  0  0  0  0  0  0  0  0  0  0
  1  2  1  0
  2  3  1  0
  3  4  1  0
  4  5  1  0
  5  6  1  0
  6  7  1  0
  7  8  1  0
  7  9  2  0
  5 10  1  0
 10 11  1  0
 11 12  2  0
 12 13  1  0
 13 14  2  0
 14 15  1  0
 15 16  1  0
 16 17  1  0
 17 18  1  0
 18 19  1  0
 19 20  2  0
 20 21  1  0
 21 22  2  0
 22 23  1  0
 23 24  2  0
 15 25  2  0
 25 11  1  0
 24 19  1  0
  1 26  1  0
  1 27  1  0
  2 28  1  0
  2 29  1  0
  3 30  1  0
  3 31  1  0
  4 32  1  0
  4 33  1  0
  6 34  1  0
  6 35  1  0
  8 36  1  0
  8 37  1  0
 10 38  1  0
 10 39  1  0
 12 40  1  0
 13 41  1  0
 14 42  1  0
 16 43  1  0
 16 44  1  0
 17 45  1  0
 18 46  1  0
 18 47  1  0
 20 48  1  0
 21 49  1  0
 22 50  1  0
 24 51  1  0
 25 52  1  0
M  END
>  <UniqueID>  (29) 
29

>  <SMILES>  (29) 
NCCCN(CC(N)=O)Cc1cccc(CNCc2cccnc2)c1

>  <Energy>  (29) 
47.119337840660165

>  <Genealogy>  (29) 
NCCCN(CC(N)=O)Cc1cccc(CNCc2cccnc2)c1 (3D coordinates assigned)
NCCCN(CC(N)=O)Cc1cccc(CNCc2cccnc2)c1 (optimized conformer: 47.119337840660165 kcal/mol)

>  <smiles>  (29) 
NCCCN(CC(N)=O)Cc1cccc(CNCc2cccnc2)c1

>  <score_type>  (29) 
oracle

>  <origin>  (29) 
adg

>  <m_score__min__energy>  (29) 
-8.0700000000000003

>  <m_primary>  (29) 
energy

$$$$
29:0
     RDKit          3D

 44 45  0  0  0  0  0  0  0  0999 V2000
   57.0870   31.1950   42.7300 C   0  0  0  0  0  0  0  0  0  0  0  0
   58.0600   32.3470   42.9690 C   0  0  0  0  0  0  0  0  0  0  0  0
   58.2990   32.5250   44.4190 N   0  0  0  0  0  0  0  0  0  0  0  0
   57.8800   33.8710   44.8790 C   0  0  0  0  0  0  0  0  0  0  0  0
   59.0780   34.7590   45.2160 C   0  0  0  0  0  0  0  0  0  0  0  0
   57.7420   31.4080   45.2220 C   0  0  0  0  0  0  0  0  0  0  0  0
   58.5530   31.0750   46.4890 C   0  0  0  0  0  0  0  0  0  0  0  0
   59.6450   32.0350   46.6490 N   0  0  0  0  0  0  0  0  0  0  0  0
   60.1310   32.4820   47.9300 C   0  0  0  0  0  0  0  0  0  0  0  0
   59.2210   32.7650   48.9660 C   0  0  0  0  0  0  0  0  0  0  0  0
   59.6540   33.2530   50.2010 C   0  0  0  0  0  0  0  0  0  0  0  0
   58.6870   33.5160   51.1840 O   0  0  0  0  0  0  0  0  0  0  0  0
   58.9830   33.9190   52.5170 C   0  0  0  0  0  0  0  0  0  0  0  0
   61.0250   33.4660   50.4180 C   0  0  0  0  0  0  0  0  0  0  0  0
   61.9530   33.1850   49.4070 C   0  0  0  0  0  0  0  0  0  0  0  0
   63.3200   33.3920   49.6340 C   0  0  0  0  0  0  0  0  0  0  0  0
   64.2380   33.0900   48.6290 C   0  0  0  0  0  0  0  0  0  0  0  0
   63.8110   32.5900   47.4410 N   0  0  0  0  0  0  0  0  0  0  0  0
   62.4910   32.3790   47.1850 C   0  0  0  0  0  0  0  0  0  0  0  0
   61.5160   32.6850   48.1560 C   0  0  0  0  0  0  0  0  0  0  0  0
   56.7486   30.7943   43.6969 H   0  0  0  0  0  0  0  0  0  0  0  0
   56.2196   31.5599   42.1604 H   0  0  0  0  0  0  0  0  0  0  0  0
   57.5919   30.4008   42.1604 H   0  0  0  0  0  0  0  0  0  0  0  0
   59.0142   32.1259   42.4684 H   0  0  0  0  0  0  0  0  0  0  0  0
   57.6263   33.2721   42.5616 H   0  0  0  0  0  0  0  0  0  0  0  0
   57.2940   34.3523   44.0821 H   0  0  0  0  0  0  0  0  0  0  0  0
   57.2810   33.7467   45.7932 H   0  0  0  0  0  0  0  0  0  0  0  0
   59.1817   34.8358   46.3084 H   0  0  0  0  0  0  0  0  0  0  0  0
   59.9920   34.3185   44.7910 H   0  0  0  0  0  0  0  0  0  0  0  0
   58.9223   35.7616   44.7910 H   0  0  0  0  0  0  0  0  0  0  0  0
   56.7205   31.6787   45.5275 H   0  0  0  0  0  0  0  0  0  0  0  0
   57.7728   30.5133   44.5828 H   0  0  0  0  0  0  0  0  0  0  0  0
   57.8930   31.1239   47.3676 H   0  0  0  0  0  0  0  0  0  0  0  0
   58.9725   30.0625   46.3942 H   0  0  0  0  0  0  0  0  0  0  0  0
   60.0360   32.4590   45.7780 H   0  0  0  0  0  0  0  0  0  0  0  0
   58.1465   32.5984   48.7995 H   0  0  0  0  0  0  0  0  0  0  0  0
   58.4844   33.2402   53.2245 H   0  0  0  0  0  0  0  0  0  0  0  0
   60.0705   33.8824   52.6782 H   0  0  0  0  0  0  0  0  0  0  0  0
   58.6228   34.9458   52.6782 H   0  0  0  0  0  0  0  0  0  0  0  0
   61.3719   33.8554   51.3865 H   0  0  0  0  0  0  0  0  0  0  0  0
   63.6668   33.7902   50.5990 H   0  0  0  0  0  0  0  0  0  0  0  0
   65.3118   33.2574   48.7991 H   0  0  0  0  0  0  0  0  0  0  0  0
   64.5150   32.3570   46.7050 H   0  0  0  0  0  0  0  0  0  0  0  0
   62.1827   31.9665   46.2130 H   0  0  0  0  0  0  0  0  0  0  0  0
  1  2  1  0
  2  3  1  0
  3  4  1  0
  4  5  1  0
  3  6  1  0
  6  7  1  0
  7  8  1  0
  8  9  1  0
  9 10  2  0
 10 11  1  0
 11 12  1  0
 12 13  1  0
 11 14  2  0
 14 15  1  0
 15 16  2  0
 16 17  1  0
 17 18  2  0
 18 19  1  0
 19 20  2  0
 20  9  1  0
 20 15  1  0
  1 21  1  0
  1 22  1  0
  1 23  1  0
  2 24  1  0
  2 25  1  0
  4 26  1  0
  4 27  1  0
  5 28  1  0
  5 29  1  0
  5 30  1  0
  6 31  1  0
  6 32  1  0
  7 33  1  0
  7 34  1  0
  8 35  1  0
 10 36  1  0
 13 37  1  0
 13 38  1  0
 13 39  1  0
 14 40  1  0
 16 41  1  0
 17 42  1  0
 18 43  1  0
 19 44  1  0
M  CHG  1  18   1
M  END
>  <UniqueID>  (30) 
30

>  <SMILES>  (30) 
CCN(CC)CCNc1cc(OC)cc2cc[nH+]cc12

>  <Energy>  (30) 
49.95625832922234

>  <Genealogy>  (30) 
CCN(CC)CCNc1cc(OC)cc2cc[nH+]cc12 (protonated)
CCN(CC)CCNc1cc(OC)cc2cc[nH+]cc12 (3D coordinates assigned)
CCN(CC)CCNc1cc(OC)cc2cc[nH+]cc12 (optimized conformer: 49.95625832922234 kcal/mol)

>  <smiles>  (30) 
CCN(CC)CCNc1cc(OC)cc2ccncc12

>  <score_type>  (30) 
oracle

>  <origin>  (30) 
adg

>  <m_score__min__energy>  (30) 
-4.4199999999999999

>  <m_primary>  (30) 
energy

$$$$
30:0
     RDKit          3D

 41 43  0  0  0  0  0  0  0  0999 V2000
   57.5640   25.6530   47.3110 C   0  0  0  0  0  0  0  0  0  0  0  0
   57.9480   26.9590   46.7510 N   0  0  0  0  0  0  0  0  0  0  0  0
   57.0770   27.6300   45.9230 C   0  0  0  0  0  0  0  0  0  0  0  0
   55.9550   27.1420   45.6180 O   0  0  0  0  0  0  0  0  0  0  0  0
   57.4610   28.8740   45.4350 C   0  0  0  0  0  0  0  0  0  0  0  0
   58.6510   29.4110   45.7920 C   0  0  0  0  0  0  0  0  0  0  0  0
   58.7980   30.6430   45.2650 N   0  0  0  0  0  0  0  0  0  0  0  0
   57.6360   30.8130   44.5800 C   0  0  0  0  0  0  0  0  0  0  0  0
   57.3090   31.9900   43.8960 O   0  0  0  0  0  0  0  0  0  0  0  0
   58.1990   33.0990   43.7750 C   0  0  0  0  0  0  0  0  0  0  0  0
   57.8680   34.1890   44.8030 C   0  0  0  0  0  0  0  0  0  0  0  0
   58.5140   33.9220   46.1370 C   0  0  0  0  0  0  0  0  0  0  0  0
   57.9060   33.0500   47.0590 C   0  0  0  0  0  0  0  0  0  0  0  0
   58.5450   32.7450   48.2650 C   0  0  0  0  0  0  0  0  0  0  0  0
   59.7900   33.3080   48.5600 C   0  0  0  0  0  0  0  0  0  0  0  0
   60.3970   34.1790   47.6510 C   0  0  0  0  0  0  0  0  0  0  0  0
   59.7640   34.4840   46.4420 C   0  0  0  0  0  0  0  0  0  0  0  0
   56.8040   29.7450   44.6490 N   0  0  0  0  0  0  0  0  0  0  0  0
   55.4560   29.6330   44.0970 C   0  0  0  0  0  0  0  0  0  0  0  0
   59.5160   28.7750   46.6270 N   0  0  0  0  0  0  0  0  0  0  0  0
   60.7700   29.4130   47.0480 C   0  0  0  0  0  0  0  0  0  0  0  0
   59.1470   27.5430   47.1240 C   0  0  0  0  0  0  0  0  0  0  0  0
   59.9100   26.9480   47.9360 O   0  0  0  0  0  0  0  0  0  0  0  0
   57.5796   25.7062   48.4096 H   0  0  0  0  0  0  0  0  0  0  0  0
   56.5510   25.3918   46.9709 H   0  0  0  0  0  0  0  0  0  0  0  0
   58.2744   24.8851   46.9709 H   0  0  0  0  0  0  0  0  0  0  0  0
   59.2298   32.7517   43.9391 H   0  0  0  0  0  0  0  0  0  0  0  0
   58.0900   33.5255   42.7669 H   0  0  0  0  0  0  0  0  0  0  0  0
   58.2265   35.1567   44.4223 H   0  0  0  0  0  0  0  0  0  0  0  0
   56.7778   34.1979   44.9494 H   0  0  0  0  0  0  0  0  0  0  0  0
   56.9254   32.6070   46.8305 H   0  0  0  0  0  0  0  0  0  0  0  0
   58.0674   32.0613   48.9822 H   0  0  0  0  0  0  0  0  0  0  0  0
   60.2923   33.0654   49.5081 H   0  0  0  0  0  0  0  0  0  0  0  0
   61.3743   34.6253   47.8870 H   0  0  0  0  0  0  0  0  0  0  0  0
   60.2471   35.1666   45.7274 H   0  0  0  0  0  0  0  0  0  0  0  0
   54.7272   29.5724   44.9187 H   0  0  0  0  0  0  0  0  0  0  0  0
   55.2386   30.5162   43.4784 H   0  0  0  0  0  0  0  0  0  0  0  0
   55.3873   28.7261   43.4784 H   0  0  0  0  0  0  0  0  0  0  0  0
   60.8181   29.4375   48.1467 H   0  0  0  0  0  0  0  0  0  0  0  0
   61.6228   28.8392   46.6563 H   0  0  0  0  0  0  0  0  0  0  0  0
   60.8083   30.4402   46.6563 H   0  0  0  0  0  0  0  0  0  0  0  0
  1  2  1  0
  2  3  1  0
  3  4  2  0
  3  5  1  0
  5  6  2  0
  6  7  1  0
  7  8  2  0
  8  9  1  0
  9 10  1  0
 10 11  1  0
 11 12  1  0
 12 13  2  0
 13 14  1  0
 14 15  2  0
 15 16  1  0
 16 17  2  0
  8 18  1  0
 18 19  1  0
  6 20  1  0
 20 21  1  0
 20 22  1  0
 22 23  2  0
 22  2  1  0
 18  5  1  0
 17 12  1  0
  1 24  1  0
  1 25  1  0
  1 26  1  0
 10 27  1  0
 10 28  1  0
 11 29  1  0
 11 30  1  0
 13 31  1  0
 14 32  1  0
 15 33  1  0
 16 34  1  0
 17 35  1  0
 19 36  1  0
 19 37  1  0
 19 38  1  0
 21 39  1  0
 21 40  1  0
 21 41  1  0
M  END
>  <UniqueID>  (31) 
31

>  <SMILES>  (31) 
Cn1c(=O)c2c(nc(OCCc3ccccc3)n2C)n(C)c1=O

>  <Energy>  (31) 
81.80487112570528

>  <Genealogy>  (31) 
Cn1c(=O)c2c(nc(OCCc3ccccc3)n2C)n(C)c1=O (3D coordinates assigned)
Cn1c(=O)c2c(nc(OCCc3ccccc3)n2C)n(C)c1=O (optimized conformer: 81.80487112570528 kcal/mol)

>  <smiles>  (31) 
Cn1c(=O)c2c(nc(OCCc3ccccc3)n2C)n(C)c1=O

>  <score_type>  (31) 
oracle

>  <origin>  (31) 
adg

>  <m_score__min__energy>  (31) 
-6.4900000000000002

>  <m_primary>  (31) 
energy

$$$$
