0:0
     RDKit          3D

 37 39  0  0  0  0  0  0  0  0999 V2000
   54.0080   24.4940   45.9970 O   0  0  0  0  0  0  0  0  0  0  0  0
   55.1430   24.9800   45.7470 C   0  0  0  0  0  0  0  0  0  0  0  0
   55.3640   26.3760   45.9960 N   0  0  0  0  0  0  0  0  0  0  0  0
   56.6580   27.0070   46.2540 C   0  0  0  0  0  0  0  0  0  0  0  0
   57.3080   27.5180   44.9630 C   0  0  0  0  0  0  0  0  0  0  0  0
   57.3750   29.0190   44.9210 C   0  0  0  0  0  0  0  0  0  0  0  0
   56.2800   29.8010   44.8760 N   0  0  0  0  0  0  0  0  0  0  0  0
   56.7000   31.0580   44.8710 N   0  0  0  0  0  0  0  0  0  0  0  0
   58.0450   31.0280   44.9150 C   0  0  0  0  0  0  0  0  0  0  0  0
   58.5020   29.7630   44.9520 N   0  0  0  0  0  0  0  0  0  0  0  0
   59.9020   29.3410   45.0360 C   0  0  0  0  0  0  0  0  0  0  0  0
   60.0760   28.3420   46.1360 C   0  0  0  0  0  0  0  0  0  0  0  0
   59.8830   28.5820   47.4810 C   0  0  0  0  0  0  0  0  0  0  0  0
   60.1260   27.3790   48.1100 C   0  0  0  0  0  0  0  0  0  0  0  0
   60.4480   26.4830   47.1110 C   0  0  0  0  0  0  0  0  0  0  0  0
   60.4070   27.0870   45.9450 O   0  0  0  0  0  0  0  0  0  0  0  0
   56.1930   24.1030   45.1950 C   0  0  0  0  0  0  0  0  0  0  0  0
   57.4430   24.0070   45.8290 C   0  0  0  0  0  0  0  0  0  0  0  0
   58.4330   23.1690   45.3090 C   0  0  0  0  0  0  0  0  0  0  0  0
   58.1800   22.4120   44.1620 C   0  0  0  0  0  0  0  0  0  0  0  0
   56.9330   22.4880   43.5370 C   0  0  0  0  0  0  0  0  0  0  0  0
   55.9380   23.3240   44.0520 C   0  0  0  0  0  0  0  0  0  0  0  0
   54.7360   23.3940   43.4240 F   0  0  0  0  0  0  0  0  0  0  0  0
   56.5106   27.8552   46.9387 H   0  0  0  0  0  0  0  0  0  0  0  0
   57.3245   26.2528   46.6978 H   0  0  0  0  0  0  0  0  0  0  0  0
   58.3294   27.1151   44.8963 H   0  0  0  0  0  0  0  0  0  0  0  0
   56.6911   27.1821   44.1165 H   0  0  0  0  0  0  0  0  0  0  0  0
   58.6869   31.9213   44.9201 H   0  0  0  0  0  0  0  0  0  0  0  0
   60.2020   28.8854   44.0808 H   0  0  0  0  0  0  0  0  0  0  0  0
   60.5294   30.2196   45.2468 H   0  0  0  0  0  0  0  0  0  0  0  0
   59.5956   29.5333   47.9526 H   0  0  0  0  0  0  0  0  0  0  0  0
   60.0737   27.1749   49.1896 H   0  0  0  0  0  0  0  0  0  0  0  0
   60.7006   25.4239   47.2673 H   0  0  0  0  0  0  0  0  0  0  0  0
   57.6431   24.5935   46.7378 H   0  0  0  0  0  0  0  0  0  0  0  0
   59.4135   23.1051   45.8036 H   0  0  0  0  0  0  0  0  0  0  0  0
   58.9623   21.7567   43.7515 H   0  0  0  0  0  0  0  0  0  0  0  0
   56.7334   21.8881   42.6368 H   0  0  0  0  0  0  0  0  0  0  0  0
  1  2  2  0
  2  3  1  0
  3  4  1  0
  4  5  1  0
  5  6  1  0
  6  7  2  0
  7  8  1  0
  8  9  2  0
  9 10  1  0
 10 11  1  0
 11 12  1  0
 12 13  2  0
 13 14  1  0
 14 15  2  0
 15 16  1  0
  2 17  1  0
 17 18  2  0
 18 19  1  0
 19 20  2  0
 20 21  1  0
 21 22  2  0
 22 23  1  0
 10  6  1  0
 16 12  1  0
 22 17  1  0
  4 24  1  0
  4 25  1  0
  5 26  1  0
  5 27  1  0
  9 28  1  0
 11 29  1  0
 11 30  1  0
 13 31  1  0
 14 32  1  0
 15 33  1  0
 18 34  1  0
 19 35  1  0
 20 36  1  0
 21 37  1  0
M  CHG  1   3  -1
M  END
>  <UniqueID>  (1) 
1

>  <SMILES>  (1) 
O=C([N-]CCc1nncn1Cc1ccco1)c1ccccc1F

>  <Energy>  (1) 
99.40646109051497

>  <Genealogy>  (1) 
O=C([N-]CCc1nncn1Cc1ccco1)c1ccccc1F (protonated)
O=C([N-]CCc1nncn1Cc1ccco1)c1ccccc1F (3D coordinates assigned)
O=C([N-]CCc1nncn1Cc1ccco1)c1ccccc1F (optimized conformer: 99.40646109051497 kcal/mol)

>  <smiles>  (1) 
O=C(NCCc1nncn1Cc1ccco1)c1ccccc1F

>  <score_type>  (1) 
oracle

>  <origin>  (1) 
adg

>  <m_score__min__energy>  (1) 
-9.1999999999999993

>  <m_primary>  (1) 
energy

$$$$
1:0
     RDKit          3D

 33 34  0  0  1  0  0  0  0  0999 V2000
   57.2740   25.1760   44.9540 C   0  0  0  0  0  0  0  0  0  0  0  0
   57.0680   26.3510   45.7900 C   0  0  0  0  0  0  0  0  0  0  0  0
   55.9010   26.3000   46.3860 O   0  0  0  0  0  0  0  0  0  0  0  0
   57.8230   27.5150   46.0990 C   0  0  0  0  0  0  0  0  0  0  0  0
   57.5400   28.8110   45.7240 C   0  0  0  0  0  0  0  0  0  0  0  0
   56.4830   29.2070   44.8290 C   0  0  0  0  0  0  0  0  0  0  0  0
   55.1440   28.9750   44.8480 O   0  0  0  0  0  0  0  0  0  0  0  0
   56.8650   29.9270   43.7870 N   0  0  0  0  0  0  0  0  0  0  0  0
   56.1990   29.6930   42.6070 O   0  0  0  0  0  0  0  0  0  0  0  0
   58.3440   29.8770   46.1890 C   0  0  0  0  0  0  0  0  0  0  0  0
   59.4210   29.6660   47.0170 C   0  0  0  0  0  0  0  0  0  0  0  0
   60.2770   30.7310   47.5210 C   0  0  0  0  0  0  0  0  0  0  0  0
   61.2910   31.3140   46.7930 C   0  0  0  0  0  0  0  0  0  0  0  0
   62.0870   32.3270   47.3020 C   0  0  0  0  0  0  0  0  0  0  0  0
   61.8780   32.7870   48.5840 C   0  0  0  0  0  0  0  0  0  0  0  0
   62.8650   34.0670   49.2630 Cl  0  0  0  0  0  0  0  0  0  0  0  0
   60.8720   32.2250   49.3380 C   0  0  0  0  0  0  0  0  0  0  0  0
   60.0930   31.2190   48.8090 C   0  0  0  0  0  0  0  0  0  0  0  0
   58.8330   30.5720   49.8630 Cl  0  0  0  0  0  0  0  0  0  0  0  0
   59.6750   28.4190   47.3610 N   0  0  0  0  0  0  0  0  0  0  0  0
   58.9310   27.3620   46.9410 C   0  0  0  0  0  0  0  0  0  0  0  0
   59.3940   26.0410   47.4490 C   0  0  0  0  0  0  0  0  0  0  0  0
   57.4286   24.2940   45.5929 H   0  0  0  0  0  0  0  0  0  0  0  0
   56.3898   25.0183   44.3189 H   0  0  0  0  0  0  0  0  0  0  0  0
   58.1591   25.3285   44.3189 H   0  0  0  0  0  0  0  0  0  0  0  0
   55.3480   29.1390   42.6710 H   0  0  0  0  0  0  0  0  0  0  0  0
   58.1009   30.9042   45.8795 H   0  0  0  0  0  0  0  0  0  0  0  0
   61.4757   30.9613   45.7676 H   0  0  0  0  0  0  0  0  0  0  0  0
   62.8850   32.7637   46.6835 H   0  0  0  0  0  0  0  0  0  0  0  0
   60.6902   32.5794   50.3633 H   0  0  0  0  0  0  0  0  0  0  0  0
   59.3910   26.0496   48.5490 H   0  0  0  0  0  0  0  0  0  0  0  0
   58.7189   25.2517   47.0866 H   0  0  0  0  0  0  0  0  0  0  0  0
   60.4141   25.8459   47.0866 H   0  0  0  0  0  0  0  0  0  0  0  0
  1  2  1  0
  2  3  2  0
  2  4  1  0
  4  5  2  0
  5  6  1  0
  6  7  1  0
  6  8  2  0
  8  9  1  0
  5 10  1  0
 10 11  2  0
 11 12  1  0
 12 13  2  0
 13 14  1  0
 14 15  2  0
 15 16  1  0
 15 17  1  0
 17 18  2  0
 18 19  1  0
 11 20  1  0
 20 21  2  0
 21 22  1  0
 21  4  1  0
 18 12  1  0
  1 23  1  0
  1 24  1  0
  1 25  1  0
  9 26  1  0
 10 27  1  0
 13 28  1  0
 14 29  1  0
 17 30  1  0
 22 31  1  0
 22 32  1  0
 22 33  1  0
M  CHG  1   7  -1
M  END
>  <smiles>  (2) 
CC(=O)c1c(C([O-])=NO)cc(-c2ccc(Cl)cc2Cl)nc1C

>  <score_type>  (2) 
oracle

>  <origin>  (2) 
adg

>  <m_score__min__energy>  (2) 
-11.59

>  <m_primary>  (2) 
energy

$$$$
2:0
     RDKit          3D

 39 42  0  0  0  0  0  0  0  0999 V2000
   64.4500   32.7520   49.3590 C   0  0  0  0  0  0  0  0  0  0  0  0
   63.2230   32.8710   48.5510 N   0  0  0  0  0  0  0  0  0  0  0  0
   63.5640   32.7050   47.1250 C   0  0  0  0  0  0  0  0  0  0  0  0
   62.5570   34.1790   48.8010 C   0  0  0  0  0  0  0  0  0  0  0  0
   61.0630   34.0350   49.1650 C   0  0  0  0  0  0  0  0  0  0  0  0
   60.2970   33.3370   48.1110 N   0  0  0  0  0  0  0  0  0  0  0  0
   60.2740   31.9440   48.1130 C   0  0  0  0  0  0  0  0  0  0  0  0
   60.9110   31.2770   48.9740 O   0  0  0  0  0  0  0  0  0  0  0  0
   59.5300   31.2830   47.1440 C   0  0  0  0  0  0  0  0  0  0  0  0
   59.2650   29.9400   46.8070 C   0  0  0  0  0  0  0  0  0  0  0  0
   58.4270   29.9840   45.6720 C   0  0  0  0  0  0  0  0  0  0  0  0
   57.8430   28.9950   44.8760 C   0  0  0  0  0  0  0  0  0  0  0  0
   57.0480   29.4120   43.7710 C   0  0  0  0  0  0  0  0  0  0  0  0
   56.8580   30.7970   43.4800 C   0  0  0  0  0  0  0  0  0  0  0  0
   57.4630   31.7660   44.3020 C   0  0  0  0  0  0  0  0  0  0  0  0
   57.3960   33.1800   44.1590 C   0  0  0  0  0  0  0  0  0  0  0  0
   58.0960   34.0230   45.0900 C   0  0  0  0  0  0  0  0  0  0  0  0
   58.8500   33.4360   46.1460 C   0  0  0  0  0  0  0  0  0  0  0  0
   58.8460   32.0770   46.2070 C   0  0  0  0  0  0  0  0  0  0  0  0
   58.2070   31.2890   45.3540 C   0  0  0  0  0  0  0  0  0  0  0  0
   59.6100   34.0830   47.1450 C   0  0  0  0  0  0  0  0  0  0  0  0
   59.6550   35.3440   47.1520 O   0  0  0  0  0  0  0  0  0  0  0  0
   64.1894   32.7773   50.4274 H   0  0  0  0  0  0  0  0  0  0  0  0
   64.9515   31.8010   49.1263 H   0  0  0  0  0  0  0  0  0  0  0  0
   65.1249   33.5889   49.1263 H   0  0  0  0  0  0  0  0  0  0  0  0
   62.5940   32.0830   48.8320 H   0  0  0  0  0  0  0  0  0  0  0  0
   64.5499   32.2251   47.0372 H   0  0  0  0  0  0  0  0  0  0  0  0
   62.8051   32.0755   46.6374 H   0  0  0  0  0  0  0  0  0  0  0  0
   63.5913   33.6906   46.6374 H   0  0  0  0  0  0  0  0  0  0  0  0
   63.0734   34.6823   49.6317 H   0  0  0  0  0  0  0  0  0  0  0  0
   62.6143   34.7611   47.8694 H   0  0  0  0  0  0  0  0  0  0  0  0
   60.9798   33.4633   50.1011 H   0  0  0  0  0  0  0  0  0  0  0  0
   60.6430   35.0457   49.2750 H   0  0  0  0  0  0  0  0  0  0  0  0
   59.6354   29.0418   47.3229 H   0  0  0  0  0  0  0  0  0  0  0  0
   57.9928   27.9277   45.0963 H   0  0  0  0  0  0  0  0  0  0  0  0
   56.5722   28.6546   43.1307 H   0  0  0  0  0  0  0  0  0  0  0  0
   56.2439   31.1040   42.6205 H   0  0  0  0  0  0  0  0  0  0  0  0
   56.8118   33.6259   43.3406 H   0  0  0  0  0  0  0  0  0  0  0  0
   58.0493   35.1172   44.9870 H   0  0  0  0  0  0  0  0  0  0  0  0
  1  2  1  0
  2  3  1  0
  2  4  1  0
  4  5  1  0
  5  6  1  0
  6  7  1  0
  7  8  2  0
  7  9  1  0
  9 10  2  0
 10 11  1  0
 11 12  2  0
 12 13  1  0
 13 14  2  0
 14 15  1  0
 15 16  2  0
 16 17  1  0
 17 18  2  0
 18 19  1  0
 19 20  2  0
 18 21  1  0
 21 22  2  0
 21  6  1  0
 19  9  1  0
 20 11  1  0
 20 15  1  0
  1 23  1  0
  1 24  1  0
  1 25  1  0
  2 26  1  0
  3 27  1  0
  3 28  1  0
  3 29  1  0
  4 30  1  0
  4 31  1  0
  5 32  1  0
  5 33  1  0
 10 34  1  0
 12 35  1  0
 13 36  1  0
 14 37  1  0
 16 38  1  0
 17 39  1  0
M  CHG  1   2   1
M  END
>  <UniqueID>  (3) 
2

>  <SMILES>  (3) 
C[NH+](C)CCn1c(=O)c2cc3cccc4ccc(c-2c43)c1=O

>  <Energy>  (3) 
109.40265881074461

>  <Genealogy>  (3) 
C[NH+](C)CCn1c(=O)c2cc3cccc4ccc(c-2c43)c1=O (protonated)
C[NH+](C)CCn1c(=O)c2cc3cccc4ccc(c-2c43)c1=O (3D coordinates assigned)
C[NH+](C)CCn1c(=O)c2cc3cccc4ccc(c-2c43)c1=O (optimized conformer: 109.40265881074461 kcal/mol)

>  <smiles>  (3) 
CN(C)CCn1c(=O)c2cc3cccc4ccc(c-2c43)c1=O

>  <score_type>  (3) 
oracle

>  <origin>  (3) 
adg

>  <m_score__min__energy>  (3) 
-5.8099999999999996

>  <m_primary>  (3) 
energy

$$$$
3:0
     RDKit          3D

 55 57  0  0  0  0  0  0  0  0999 V2000
   56.5740   29.8160   43.9230 C   0  0  0  0  0  0  0  0  0  0  0  0
   56.6830   29.7520   45.3310 O   0  0  0  0  0  0  0  0  0  0  0  0
   57.9310   30.2820   45.7600 C   0  0  0  0  0  0  0  0  0  0  0  0
   58.1820   29.8150   47.2030 C   0  0  0  0  0  0  0  0  0  0  0  0
   59.5410   30.3180   47.7490 C   0  0  0  0  0  0  0  0  0  0  0  0
   60.4920   30.6750   46.6660 N   0  0  0  0  0  0  0  0  0  0  0  0
   61.8700   30.7980   47.1890 C   0  0  0  0  0  0  0  0  0  0  0  0
   61.9360   31.8890   48.2740 C   0  0  1  0  0  0  0  0  0  0  0  0
   63.3820   32.2940   48.6160 C   0  0  0  0  0  0  0  0  0  0  0  0
   63.4920   33.7150   49.1960 C   0  0  0  0  0  0  0  0  0  0  0  0
   62.2120   34.1660   49.9240 C   0  0  0  0  0  0  0  0  0  0  0  0
   60.9060   33.9220   49.1210 C   0  0  0  0  0  0  0  0  0  0  0  0
   61.0940   33.0610   47.9300 N   0  0  0  0  0  0  0  0  0  0  0  0
   61.5400   33.8410   46.7410 C   0  0  0  0  0  0  0  0  0  0  0  0
   60.5020   34.9080   46.3870 C   0  0  0  0  0  0  0  0  0  0  0  0
   59.1830   34.2990   45.9950 C   0  0  0  0  0  0  0  0  0  0  0  0
   58.1950   34.0440   46.9650 C   0  0  0  0  0  0  0  0  0  0  0  0
   56.9820   33.4560   46.5920 C   0  0  0  0  0  0  0  0  0  0  0  0
   56.7380   33.1370   45.2470 C   0  0  0  0  0  0  0  0  0  0  0  0
   57.7200   33.3810   44.2790 C   0  0  0  0  0  0  0  0  0  0  0  0
   58.9380   33.9500   44.6510 C   0  0  0  0  0  0  0  0  0  0  0  0
   60.4290   29.6970   45.5610 C   0  0  0  0  0  0  0  0  0  0  0  0
   59.0790   29.8040   44.8350 C   0  0  0  0  0  0  0  0  0  0  0  0
   55.6550   30.3556   43.6505 H   0  0  0  0  0  0  0  0  0  0  0  0
   57.4459   30.3456   43.5114 H   0  0  0  0  0  0  0  0  0  0  0  0
   56.5363   28.7966   43.5114 H   0  0  0  0  0  0  0  0  0  0  0  0
   57.9015   31.3807   45.7152 H   0  0  0  0  0  0  0  0  0  0  0  0
   57.3768   30.2003   47.8458 H   0  0  0  0  0  0  0  0  0  0  0  0
   58.2019   28.7152   47.2049 H   0  0  0  0  0  0  0  0  0  0  0  0
   59.3638   31.2082   48.3705 H   0  0  0  0  0  0  0  0  0  0  0  0
   59.9901   29.5005   48.3321 H   0  0  0  0  0  0  0  0  0  0  0  0
   62.1805   29.8360   47.6227 H   0  0  0  0  0  0  0  0  0  0  0  0
   62.5422   31.0743   46.3632 H   0  0  0  0  0  0  0  0  0  0  0  0
   61.5151   31.4475   49.1893 H   0  0  0  0  0  0  0  0  0  0  0  0
   63.7787   31.5828   49.3555 H   0  0  0  0  0  0  0  0  0  0  0  0
   63.9566   32.2782   47.6781 H   0  0  0  0  0  0  0  0  0  0  0  0
   64.3287   33.7390   49.9097 H   0  0  0  0  0  0  0  0  0  0  0  0
   63.6527   34.4038   48.3536 H   0  0  0  0  0  0  0  0  0  0  0  0
   62.1420   33.6144   50.8731 H   0  0  0  0  0  0  0  0  0  0  0  0
   62.2963   35.2531   50.0693 H   0  0  0  0  0  0  0  0  0  0  0  0
   60.1737   33.4407   49.7859 H   0  0  0  0  0  0  0  0  0  0  0  0
   60.5619   34.9022   48.7593 H   0  0  0  0  0  0  0  0  0  0  0  0
   62.4999   34.3289   46.9661 H   0  0  0  0  0  0  0  0  0  0  0  0
   61.6563   33.1573   45.8872 H   0  0  0  0  0  0  0  0  0  0  0  0
   60.3479   35.5581   47.2609 H   0  0  0  0  0  0  0  0  0  0  0  0
   60.8815   35.4814   45.5284 H   0  0  0  0  0  0  0  0  0  0  0  0
   58.3772   34.3075   48.0173 H   0  0  0  0  0  0  0  0  0  0  0  0
   56.2178   33.2432   47.3541 H   0  0  0  0  0  0  0  0  0  0  0  0
   55.7745   32.6950   44.9531 H   0  0  0  0  0  0  0  0  0  0  0  0
   57.5311   33.1242   43.2262 H   0  0  0  0  0  0  0  0  0  0  0  0
   59.7127   34.1277   43.8906 H   0  0  0  0  0  0  0  0  0  0  0  0
   61.2420   29.9006   44.8486 H   0  0  0  0  0  0  0  0  0  0  0  0
   60.5361   28.6825   45.9726 H   0  0  0  0  0  0  0  0  0  0  0  0
   59.1824   30.5196   44.0060 H   0  0  0  0  0  0  0  0  0  0  0  0
   58.8165   28.7973   44.4776 H   0  0  0  0  0  0  0  0  0  0  0  0
  1  2  1  0
  2  3  1  0
  3  4  1  0
  4  5  1  0
  5  6  1  0
  6  7  1  0
  7  8  1  0
  8  9  1  0
  9 10  1  0
 10 11  1  0
 11 12  1  0
 12 13  1  0
 13 14  1  0
 14 15  1  0
 15 16  1  0
 16 17  2  0
 17 18  1  0
 18 19  2  0
 19 20  1  0
 20 21  2  0
  6 22  1  0
 22 23  1  0
 23  3  1  0
 13  8  1  0
 21 16  1  0
  1 24  1  0
  1 25  1  0
  1 26  1  0
  3 27  1  0
  4 28  1  0
  4 29  1  0
  5 30  1  0
  5 31  1  0
  7 32  1  0
  7 33  1  0
  8 34  1  1
  9 35  1  0
  9 36  1  0
 10 37  1  0
 10 38  1  0
 11 39  1  0
 11 40  1  0
 12 41  1  0
 12 42  1  0
 14 43  1  0
 14 44  1  0
 15 45  1  0
 15 46  1  0
 17 47  1  0
 18 48  1  0
 19 49  1  0
 20 50  1  0
 21 51  1  0
 22 52  1  0
 22 53  1  0
 23 54  1  0
 23 55  1  0
M  END
>  <UniqueID>  (4) 
3

>  <SMILES>  (4) 
COC1CCN(C[C@H]2CCCCN2CCc2ccccc2)CC1

>  <Energy>  (4) 
70.91183635484454

>  <Genealogy>  (4) 
COC1CCN(C[C@H]2CCCCN2CCc2ccccc2)CC1 (chirality)
COC1CCN(C[C@H]2CCCCN2CCc2ccccc2)CC1 (3D coordinates assigned)
COC1CCN(C[C@H]2CCCCN2CCc2ccccc2)CC1 (nonaromatic ring conformer: 70.91183635484454 kcal/mol)

>  <smiles>  (4) 
COC1CCN(CC2CCCCN2CCc2ccccc2)CC1

>  <score_type>  (4) 
oracle

>  <origin>  (4) 
adg

>  <m_score__min__energy>  (4) 
-8.25

>  <m_primary>  (4) 
energy

$$$$
4:0
     RDKit          3D

 33 34  0  0  0  0  0  0  0  0999 V2000
   58.8710   34.4300   46.7170 C   0  0  0  0  0  0  0  0  0  0  0  0
   57.8760   33.3630   47.2050 C   0  0  0  0  0  0  0  0  0  0  0  0
   57.9440   32.0560   46.4910 N   0  0  1  0  0  0  0  0  0  0  0  0
   58.0090   32.1800   45.0100 C   0  0  0  0  0  0  0  0  0  0  0  0
   57.1610   31.1900   44.2560 C   0  0  0  0  0  0  0  0  0  0  0  0
   57.2560   30.9050   42.9080 C   0  0  0  0  0  0  0  0  0  0  0  0
   56.2890   29.9560   42.6590 C   0  0  0  0  0  0  0  0  0  0  0  0
   55.6610   29.7240   43.8660 C   0  0  0  0  0  0  0  0  0  0  0  0
   56.2010   30.4750   44.7980 O   0  0  0  0  0  0  0  0  0  0  0  0
   58.9500   31.1490   47.0240 C   0  0  0  0  0  0  0  0  0  0  0  0
   59.6400   31.4990   48.0220 O   0  0  0  0  0  0  0  0  0  0  0  0
   59.1810   29.7930   46.4470 C   0  0  0  0  0  0  0  0  0  0  0  0
   60.3950   29.4450   45.8190 C   0  0  0  0  0  0  0  0  0  0  0  0
   60.5750   28.1670   45.2820 C   0  0  0  0  0  0  0  0  0  0  0  0
   59.5530   27.2200   45.3600 C   0  0  0  0  0  0  0  0  0  0  0  0
   58.3420   27.5500   45.9730 C   0  0  0  0  0  0  0  0  0  0  0  0
   56.9420   26.2560   46.0750 Br  0  0  0  0  0  0  0  0  0  0  0  0
   58.1560   28.8280   46.5110 C   0  0  0  0  0  0  0  0  0  0  0  0
   59.3325   34.9249   47.5842 H   0  0  0  0  0  0  0  0  0  0  0  0
   59.6528   33.9515   46.1089 H   0  0  0  0  0  0  0  0  0  0  0  0
   58.3391   35.1765   46.1089 H   0  0  0  0  0  0  0  0  0  0  0  0
   58.0714   33.1784   48.2716 H   0  0  0  0  0  0  0  0  0  0  0  0
   56.8729   33.7676   47.0049 H   0  0  0  0  0  0  0  0  0  0  0  0
   57.0160   31.5980   46.6460 H   0  0  0  0  0  0  0  0  0  0  0  0
   57.6778   33.1927   44.7364 H   0  0  0  0  0  0  0  0  0  0  0  0
   59.0518   31.9735   44.7272 H   0  0  0  0  0  0  0  0  0  0  0  0
   57.9578   31.3444   42.1838 H   0  0  0  0  0  0  0  0  0  0  0  0
   56.0631   29.4795   41.6936 H   0  0  0  0  0  0  0  0  0  0  0  0
   54.8332   29.0169   44.0234 H   0  0  0  0  0  0  0  0  0  0  0  0
   61.2062   30.1848   45.7513 H   0  0  0  0  0  0  0  0  0  0  0  0
   61.5267   27.9066   44.7957 H   0  0  0  0  0  0  0  0  0  0  0  0
   59.7009   26.2145   44.9391 H   0  0  0  0  0  0  0  0  0  0  0  0
   57.1987   29.0825   46.9894 H   0  0  0  0  0  0  0  0  0  0  0  0
  1  2  1  0
  2  3  1  0
  3  4  1  0
  4  5  1  0
  5  6  2  0
  6  7  1  0
  7  8  2  0
  8  9  1  0
  3 10  1  0
 10 11  2  0
 10 12  1  0
 12 13  2  0
 13 14  1  0
 14 15  2  0
 15 16  1  0
 16 17  1  0
 16 18  2  0
  9  5  1  0
 18 12  1  0
  1 19  1  0
  1 20  1  0
  1 21  1  0
  2 22  1  0
  2 23  1  0
  3 24  1  6
  4 25  1  0
  4 26  1  0
  6 27  1  0
  7 28  1  0
  8 29  1  0
 13 30  1  0
 14 31  1  0
 15 32  1  0
 18 33  1  0
M  CHG  1   3   1
M  END
>  <UniqueID>  (5) 
4

>  <SMILES>  (5) 
CC[N@@H+](Cc1ccco1)C(=O)c1cccc(Br)c1

>  <Energy>  (5) 
70.6859562801565

>  <Genealogy>  (5) 
CC[NH+](Cc1ccco1)C(=O)c1cccc(Br)c1 (protonated)
CC[N@@H+](Cc1ccco1)C(=O)c1cccc(Br)c1 (chirality)
CC[N@@H+](Cc1ccco1)C(=O)c1cccc(Br)c1 (3D coordinates assigned)
CC[N@@H+](Cc1ccco1)C(=O)c1cccc(Br)c1 (optimized conformer: 70.6859562801565 kcal/mol)

>  <smiles>  (5) 
CCN(Cc1ccco1)C(=O)c1cccc(Br)c1

>  <score_type>  (5) 
oracle

>  <origin>  (5) 
adg

>  <m_score__min__energy>  (5) 
-6.4400000000000004

>  <m_primary>  (5) 
energy

$$$$
5:0
     RDKit          3D

 64 68  0  0  1  0  0  0  0  0999 V2000
   57.4140   31.2660   51.5390 C   0  0  0  0  0  0  0  0  0  0  0  0
   58.5260   30.2800   51.3620 C   0  0  0  0  0  0  0  0  0  0  0  0
   59.4720   30.5000   50.3600 N   0  0  0  0  0  0  0  0  0  0  0  0
   59.0130   30.0320   49.0360 C   0  0  0  0  0  0  0  0  0  0  0  0
   59.2480   28.5770   48.8070 C   0  0  0  0  0  0  0  0  0  0  0  0
   60.3400   28.2820   47.7900 C   0  0  0  0  0  0  0  0  0  0  0  0
   59.8980   28.1580   46.4670 N   0  0  0  0  0  0  0  0  0  0  0  0
   58.6740   28.0590   46.1410 C   0  0  0  0  0  0  0  0  0  0  0  0
   57.9640   26.9160   46.4350 C   0  0  0  0  0  0  0  0  0  0  0  0
   56.6390   26.9070   45.9400 C   0  0  0  0  0  0  0  0  0  0  0  0
   56.1360   27.9380   45.2470 N   0  0  0  0  0  0  0  0  0  0  0  0
   56.8440   29.0410   44.9760 C   0  0  0  0  0  0  0  0  0  0  0  0
   56.2530   30.0600   44.2620 C   0  0  0  0  0  0  0  0  0  0  0  0
   56.9810   31.2070   43.9800 C   0  0  0  0  0  0  0  0  0  0  0  0
   58.2820   31.3000   44.4230 C   0  0  0  0  0  0  0  0  0  0  0  0
   58.8680   30.2650   45.1440 C   0  0  0  0  0  0  0  0  0  0  0  0
   58.1440   29.1200   45.4260 C   0  0  0  0  0  0  0  0  0  0  0  0
   55.8710   25.6700   46.2320 C   0  0  0  0  0  0  0  0  0  0  0  0
   56.6590   24.4070   46.0830 C   0  0  0  0  0  0  0  0  0  0  0  0
   58.1360   24.5180   46.3430 C   0  0  0  0  0  0  0  0  0  0  0  0
   58.4050   25.7880   47.1870 C   0  0  0  0  0  0  0  0  0  0  0  0
   60.1170   31.7470   50.2130 C   0  0  0  0  0  0  0  0  0  0  0  0
   59.9750   32.4440   48.9280 C   0  0  0  0  0  0  0  0  0  0  0  0
   61.0830   32.8360   48.2740 N   0  0  0  0  0  0  0  0  0  0  0  0
   60.9140   33.4640   47.1000 C   0  0  0  0  0  0  0  0  0  0  0  0
   61.9750   33.8330   46.4850 O   0  0  0  0  0  0  0  0  0  0  0  0
   59.6630   33.7170   46.5500 C   0  0  0  0  0  0  0  0  0  0  0  0
   59.5920   34.3650   45.3430 C   0  0  0  0  0  0  0  0  0  0  0  0
   58.3200   34.5930   44.8330 C   0  0  0  0  0  0  0  0  0  0  0  0
   57.1760   34.1950   45.4950 C   0  0  0  0  0  0  0  0  0  0  0  0
   57.2870   33.5420   46.7160 C   0  0  0  0  0  0  0  0  0  0  0  0
   58.5360   33.3000   47.2490 C   0  0  0  0  0  0  0  0  0  0  0  0
   58.7280   32.6730   48.4220 N   0  0  0  0  0  0  0  0  0  0  0  0
   57.2333   31.4262   52.6122 H   0  0  0  0  0  0  0  0  0  0  0  0
   57.6916   32.2203   51.0675 H   0  0  0  0  0  0  0  0  0  0  0  0
   56.4998   30.8762   51.0675 H   0  0  0  0  0  0  0  0  0  0  0  0
   59.0716   30.2347   52.3161 H   0  0  0  0  0  0  0  0  0  0  0  0
   58.0144   29.3595   51.0443 H   0  0  0  0  0  0  0  0  0  0  0  0
   57.9339   30.2282   48.9518 H   0  0  0  0  0  0  0  0  0  0  0  0
   59.5956   30.5777   48.2792 H   0  0  0  0  0  0  0  0  0  0  0  0
   59.5332   28.1172   49.7647 H   0  0  0  0  0  0  0  0  0  0  0  0
   58.3133   28.1624   48.4015 H   0  0  0  0  0  0  0  0  0  0  0  0
   61.0735   29.1008   47.8295 H   0  0  0  0  0  0  0  0  0  0  0  0
   60.7619   27.3044   48.0664 H   0  0  0  0  0  0  0  0  0  0  0  0
   55.1460   27.8680   44.9080 H   0  0  0  0  0  0  0  0  0  0  0  0
   55.2124   29.9652   43.9182 H   0  0  0  0  0  0  0  0  0  0  0  0
   56.5256   32.0306   43.4106 H   0  0  0  0  0  0  0  0  0  0  0  0
   58.8659   32.2060   44.2033 H   0  0  0  0  0  0  0  0  0  0  0  0
   59.9080   30.3567   45.4904 H   0  0  0  0  0  0  0  0  0  0  0  0
   55.5054   25.7279   47.2678 H   0  0  0  0  0  0  0  0  0  0  0  0
   55.0571   25.6226   45.4936 H   0  0  0  0  0  0  0  0  0  0  0  0
   56.2478   23.6685   46.7869 H   0  0  0  0  0  0  0  0  0  0  0  0
   56.5644   24.1210   45.0251 H   0  0  0  0  0  0  0  0  0  0  0  0
   58.4816   23.6299   46.8925 H   0  0  0  0  0  0  0  0  0  0  0  0
   58.6776   24.5848   45.3879 H   0  0  0  0  0  0  0  0  0  0  0  0
   57.8502   25.7310   48.1351 H   0  0  0  0  0  0  0  0  0  0  0  0
   59.4774   25.8758   47.4157 H   0  0  0  0  0  0  0  0  0  0  0  0
   59.7228   32.4143   50.9936 H   0  0  0  0  0  0  0  0  0  0  0  0
   61.1897   31.5143   50.2849 H   0  0  0  0  0  0  0  0  0  0  0  0
   60.4963   34.6877   44.8062 H   0  0  0  0  0  0  0  0  0  0  0  0
   58.2209   35.1093   43.8668 H   0  0  0  0  0  0  0  0  0  0  0  0
   56.1855   34.3931   45.0596 H   0  0  0  0  0  0  0  0  0  0  0  0
   56.3838   33.2197   47.2549 H   0  0  0  0  0  0  0  0  0  0  0  0
   57.8690   32.3650   48.9360 H   0  0  0  0  0  0  0  0  0  0  0  0
  1  2  1  0
  2  3  1  0
  3  4  1  0
  4  5  1  0
  5  6  1  0
  6  7  1  0
  7  8  2  0
  8  9  1  0
  9 10  2  0
 10 11  1  0
 11 12  1  0
 12 13  2  0
 13 14  1  0
 14 15  2  0
 15 16  1  0
 16 17  2  0
 10 18  1  0
 18 19  1  0
 19 20  1  0
 20 21  1  0
  3 22  1  0
 22 23  1  0
 23 24  2  0
 24 25  1  0
 25 26  2  0
 25 27  1  0
 27 28  2  0
 28 29  1  0
 29 30  2  0
 30 31  1  0
 31 32  2  0
 32 33  1  0
 17  8  1  0
 33 23  1  0
 21  9  1  0
 32 27  1  0
 17 12  1  0
  1 34  1  0
  1 35  1  0
  1 36  1  0
  2 37  1  0
  2 38  1  0
  4 39  1  0
  4 40  1  0
  5 41  1  0
  5 42  1  0
  6 43  1  0
  6 44  1  0
 11 45  1  0
 13 46  1  0
 14 47  1  0
 15 48  1  0
 16 49  1  0
 18 50  1  0
 18 51  1  0
 19 52  1  0
 19 53  1  0
 20 54  1  0
 20 55  1  0
 21 56  1  0
 21 57  1  0
 22 58  1  0
 22 59  1  0
 28 60  1  0
 29 61  1  0
 30 62  1  0
 31 63  1  0
 33 64  1  0
M  END
>  <smiles>  (6) 
CCN(CCCN=c1c2c([nH]c3ccccc13)CCCC2)Cc1nc(=O)c2ccccc2[nH]1

>  <score_type>  (6) 
oracle

>  <origin>  (6) 
adg

>  <m_score__min__energy>  (6) 
-9.9499999999999993

>  <m_primary>  (6) 
energy

$$$$
6:0
     RDKit          3D

 33 34  0  0  0  0  0  0  0  0999 V2000
   57.4110   31.6510   43.5590 C   0  0  0  0  0  0  0  0  0  0  0  0
   56.9020   30.4550   44.2930 C   0  0  0  0  0  0  0  0  0  0  0  0
   55.5930   30.1730   44.4470 N   0  0  0  0  0  0  0  0  0  0  0  0
   55.5190   29.0080   45.0250 O   0  0  0  0  0  0  0  0  0  0  0  0
   56.7140   28.5090   45.2460 C   0  0  0  0  0  0  0  0  0  0  0  0
   56.9650   27.1690   45.8530 C   0  0  0  0  0  0  0  0  0  0  0  0
   57.6580   29.4110   44.7960 C   0  0  0  0  0  0  0  0  0  0  0  0
   59.1470   29.2260   44.7160 C   0  0  0  0  0  0  0  0  0  0  0  0
   59.7780   29.6890   45.9890 C   0  0  0  0  0  0  0  0  0  0  0  0
   61.0340   29.7520   46.0830 O   0  0  0  0  0  0  0  0  0  0  0  0
   58.9500   29.9910   47.1150 N   0  0  0  0  0  0  0  0  0  0  0  0
   59.2040   31.1170   48.0060 C   0  0  0  0  0  0  0  0  0  0  0  0
   59.2230   32.4000   47.2130 C   0  0  0  0  0  0  0  0  0  0  0  0
   58.0230   32.9090   46.6870 C   0  0  0  0  0  0  0  0  0  0  0  0
   58.0290   34.0600   45.8950 C   0  0  0  0  0  0  0  0  0  0  0  0
   59.2310   34.7120   45.6160 C   0  0  0  0  0  0  0  0  0  0  0  0
   59.2330   35.8260   44.8430 F   0  0  0  0  0  0  0  0  0  0  0  0
   60.4300   34.2160   46.1290 C   0  0  0  0  0  0  0  0  0  0  0  0
   60.4360   33.0650   46.9260 C   0  0  0  0  0  0  0  0  0  0  0  0
   61.9800   32.4760   47.5340 Cl  0  0  0  0  0  0  0  0  0  0  0  0
   57.7357   32.4140   44.2818 H   0  0  0  0  0  0  0  0  0  0  0  0
   58.2626   31.3585   42.9272 H   0  0  0  0  0  0  0  0  0  0  0  0
   56.6098   32.0619   42.9272 H   0  0  0  0  0  0  0  0  0  0  0  0
   56.9490   27.2544   46.9496 H   0  0  0  0  0  0  0  0  0  0  0  0
   56.1827   26.4671   45.5284 H   0  0  0  0  0  0  0  0  0  0  0  0
   57.9483   26.7978   45.5284 H   0  0  0  0  0  0  0  0  0  0  0  0
   59.3759   28.1615   44.5598 H   0  0  0  0  0  0  0  0  0  0  0  0
   59.5440   29.8147   43.8759 H   0  0  0  0  0  0  0  0  0  0  0  0
   58.4099   31.1685   48.7654 H   0  0  0  0  0  0  0  0  0  0  0  0
   60.1780   30.9790   48.4981 H   0  0  0  0  0  0  0  0  0  0  0  0
   57.0727   32.3977   46.9004 H   0  0  0  0  0  0  0  0  0  0  0  0
   57.0845   34.4530   45.4906 H   0  0  0  0  0  0  0  0  0  0  0  0
   61.3755   34.7320   45.9061 H   0  0  0  0  0  0  0  0  0  0  0  0
  1  2  1  0
  2  3  2  0
  3  4  1  0
  4  5  1  0
  5  6  1  0
  5  7  2  0
  7  8  1  0
  8  9  1  0
  9 10  2  0
  9 11  1  0
 11 12  1  0
 12 13  1  0
 13 14  2  0
 14 15  1  0
 15 16  2  0
 16 17  1  0
 16 18  1  0
 18 19  2  0
 19 20  1  0
  7  2  1  0
 19 13  1  0
  1 21  1  0
  1 22  1  0
  1 23  1  0
  6 24  1  0
  6 25  1  0
  6 26  1  0
  8 27  1  0
  8 28  1  0
 12 29  1  0
 12 30  1  0
 14 31  1  0
 15 32  1  0
 18 33  1  0
M  CHG  1  11  -1
M  END
>  <UniqueID>  (7) 
5

>  <SMILES>  (7) 
Cc1noc(C)c1CC(=O)[N-]Cc1ccc(F)cc1Cl

>  <Energy>  (7) 
55.30937385368625

>  <Genealogy>  (7) 
Cc1noc(C)c1CC(=O)[N-]Cc1ccc(F)cc1Cl (protonated)
Cc1noc(C)c1CC(=O)[N-]Cc1ccc(F)cc1Cl (3D coordinates assigned)
Cc1noc(C)c1CC(=O)[N-]Cc1ccc(F)cc1Cl (optimized conformer: 55.30937385368625 kcal/mol)

>  <smiles>  (7) 
Cc1noc(C)c1CC(=O)NCc1ccc(F)cc1Cl

>  <score_type>  (7) 
oracle

>  <origin>  (7) 
adg

>  <m_score__min__energy>  (7) 
-9.0500000000000007

>  <m_primary>  (7) 
energy

$$$$
7:0
     RDKit          3D

 59 63  0  0  0  0  0  0  0  0999 V2000
   59.4590   34.9620   48.8820 O   0  0  0  0  0  0  0  0  0  0  0  0
   60.1640   34.2510   48.1110 C   0  0  0  0  0  0  0  0  0  0  0  0
   59.5680   33.8110   46.8130 C   0  0  0  0  0  0  0  0  0  0  0  0
   59.5010   34.6660   45.6930 C   0  0  0  0  0  0  0  0  0  0  0  0
   58.9210   34.2350   44.4960 C   0  0  0  0  0  0  0  0  0  0  0  0
   58.3950   32.9460   44.3950 C   0  0  0  0  0  0  0  0  0  0  0  0
   57.8290   32.5270   43.2300 N   0  0  0  0  0  0  0  0  0  0  0  0
   57.3070   31.2790   43.0980 C   0  0  0  0  0  0  0  0  0  0  0  0
   57.3390   30.3870   44.1720 C   0  0  0  0  0  0  0  0  0  0  0  0
   57.9120   30.7880   45.3810 C   0  0  0  0  0  0  0  0  0  0  0  0
   58.4480   32.0770   45.5050 C   0  0  0  0  0  0  0  0  0  0  0  0
   59.0290   32.5120   46.7040 C   0  0  0  0  0  0  0  0  0  0  0  0
   61.5290   33.9200   48.4900 N   0  0  2  0  0  0  0  0  0  0  0  0
   62.1560   32.9230   47.5710 C   0  0  0  0  0  0  0  0  0  0  0  0
   62.3660   31.5340   48.2010 C   0  0  0  0  0  0  0  0  0  0  0  0
   61.1780   31.1400   49.0770 C   0  0  0  0  0  0  0  0  0  0  0  0
   60.8860   32.1590   50.2210 C   0  0  2  0  0  0  0  0  0  0  0  0
   59.4120   32.2960   50.4490 N   0  0  0  0  0  0  0  0  0  0  0  0
   58.6210   31.2380   49.7510 C   0  0  0  0  0  0  0  0  0  0  0  0
   58.1590   30.1040   50.6760 C   0  0  0  0  0  0  0  0  0  0  0  0
   57.3890   30.6520   51.7940 N   0  0  0  0  0  0  0  0  0  0  0  0
   56.5080   29.8070   52.5480 C   0  0  0  0  0  0  0  0  0  0  0  0
   57.0370   28.8470   53.4230 C   0  0  0  0  0  0  0  0  0  0  0  0
   56.1840   28.0150   54.1550 C   0  0  0  0  0  0  0  0  0  0  0  0
   54.7980   28.1400   54.0180 C   0  0  0  0  0  0  0  0  0  0  0  0
   54.2650   29.0970   53.1510 C   0  0  0  0  0  0  0  0  0  0  0  0
   55.1150   29.9310   52.4150 C   0  0  0  0  0  0  0  0  0  0  0  0
   54.5820   30.8730   51.5970 F   0  0  0  0  0  0  0  0  0  0  0  0
   57.6000   32.0460   52.1890 C   0  0  0  0  0  0  0  0  0  0  0  0
   59.0490   32.4430   51.8870 C   0  0  0  0  0  0  0  0  0  0  0  0
   61.6030   33.5200   49.9150 C   0  0  0  0  0  0  0  0  0  0  0  0
   59.9102   35.6847   45.7622 H   0  0  0  0  0  0  0  0  0  0  0  0
   58.8791   34.9137   43.6314 H   0  0  0  0  0  0  0  0  0  0  0  0
   56.8580   30.9707   42.1423 H   0  0  0  0  0  0  0  0  0  0  0  0
   56.9164   29.3769   44.0667 H   0  0  0  0  0  0  0  0  0  0  0  0
   57.9425   30.0938   46.2337 H   0  0  0  0  0  0  0  0  0  0  0  0
   59.0650   31.8334   47.5690 H   0  0  0  0  0  0  0  0  0  0  0  0
   62.1030   34.7890   48.3860 H   0  0  0  0  0  0  0  0  0  0  0  0
   61.5068   32.8085   46.6904 H   0  0  0  0  0  0  0  0  0  0  0  0
   63.1535   33.3100   47.3154 H   0  0  0  0  0  0  0  0  0  0  0  0
   62.4830   30.7902   47.3991 H   0  0  0  0  0  0  0  0  0  0  0  0
   63.2670   31.5696   48.8310 H   0  0  0  0  0  0  0  0  0  0  0  0
   60.2845   31.0660   48.4397 H   0  0  0  0  0  0  0  0  0  0  0  0
   61.4301   30.1811   49.5533 H   0  0  0  0  0  0  0  0  0  0  0  0
   61.3008   31.7856   51.1689 H   0  0  0  0  0  0  0  0  0  0  0  0
   57.7315   31.7067   49.3047 H   0  0  0  0  0  0  0  0  0  0  0  0
   59.2814   30.7882   48.9950 H   0  0  0  0  0  0  0  0  0  0  0  0
   57.5285   29.4044   50.1077 H   0  0  0  0  0  0  0  0  0  0  0  0
   59.0408   29.5767   51.0690 H   0  0  0  0  0  0  0  0  0  0  0  0
   58.1269   28.7481   53.5339 H   0  0  0  0  0  0  0  0  0  0  0  0
   56.6034   27.2621   54.8386 H   0  0  0  0  0  0  0  0  0  0  0  0
   54.1273   27.4847   54.5930 H   0  0  0  0  0  0  0  0  0  0  0  0
   53.1744   29.1955   53.0464 H   0  0  0  0  0  0  0  0  0  0  0  0
   56.9154   32.6958   51.6242 H   0  0  0  0  0  0  0  0  0  0  0  0
   57.4034   32.1583   53.2654 H   0  0  0  0  0  0  0  0  0  0  0  0
   59.1909   33.4944   52.1774 H   0  0  0  0  0  0  0  0  0  0  0  0
   59.6991   31.7643   52.4586 H   0  0  0  0  0  0  0  0  0  0  0  0
   61.1310   34.3064   50.5223 H   0  0  0  0  0  0  0  0  0  0  0  0
   62.6674   33.3869   50.1588 H   0  0  0  0  0  0  0  0  0  0  0  0
  1  2  2  0
  2  3  1  0
  3  4  2  0
  4  5  1  0
  5  6  2  0
  6  7  1  0
  7  8  2  0
  8  9  1  0
  9 10  2  0
 10 11  1  0
 11 12  2  0
  2 13  1  0
 13 14  1  0
 14 15  1  0
 15 16  1  0
 16 17  1  0
 17 18  1  0
 18 19  1  0
 19 20  1  0
 20 21  1  0
 21 22  1  0
 22 23  2  0
 23 24  1  0
 24 25  2  0
 25 26  1  0
 26 27  2  0
 27 28  1  0
 21 29  1  0
 29 30  1  0
 17 31  1  0
 12  3  1  0
 31 13  1  0
 11  6  1  0
 30 18  1  0
 27 22  1  0
  4 32  1  0
  5 33  1  0
  8 34  1  0
  9 35  1  0
 10 36  1  0
 12 37  1  0
 13 38  1  1
 14 39  1  0
 14 40  1  0
 15 41  1  0
 15 42  1  0
 16 43  1  0
 16 44  1  0
 17 45  1  1
 19 46  1  0
 19 47  1  0
 20 48  1  0
 20 49  1  0
 23 50  1  0
 24 51  1  0
 25 52  1  0
 26 53  1  0
 29 54  1  0
 29 55  1  0
 30 56  1  0
 30 57  1  0
 31 58  1  0
 31 59  1  0
M  CHG  1  13   1
M  END
>  <UniqueID>  (8) 
6

>  <SMILES>  (8) 
O=C(c1ccc2ncccc2c1)[N@@H+]1CCC[C@H](N2CCN(c3ccccc3F)CC2)C1

>  <Energy>  (8) 
101.41641692618155

>  <Genealogy>  (8) 
O=C(c1ccc2ncccc2c1)[NH+]1CCCC(N2CCN(c3ccccc3F)CC2)C1 (protonated)
O=C(c1ccc2ncccc2c1)[N@@H+]1CCC[C@H](N2CCN(c3ccccc3F)CC2)C1 (chirality)
O=C(c1ccc2ncccc2c1)[N@@H+]1CCC[C@H](N2CCN(c3ccccc3F)CC2)C1 (3D coordinates assigned)
O=C(c1ccc2ncccc2c1)[N@@H+]1CCC[C@H](N2CCN(c3ccccc3F)CC2)C1 (nonaromatic ring conformer: 101.41641692618155 kcal/mol)

>  <smiles>  (8) 
O=C(c1ccc2ncccc2c1)N1CCCC(N2CCN(c3ccccc3F)CC2)C1

>  <score_type>  (8) 
oracle

>  <origin>  (8) 
adg

>  <m_score__min__energy>  (8) 
-7.2699999999999996

>  <m_primary>  (8) 
energy

$$$$
8:0
     RDKit          3D

 47 48  0  0  0  0  0  0  0  0999 V2000
   63.8010   33.0680   46.7970 C   0  0  0  0  0  0  0  0  0  0  0  0
   62.5110   33.8320   47.0760 C   0  0  0  0  0  0  0  0  0  0  0  0
   62.0000   33.4960   48.4240 N   0  0  0  0  0  0  0  0  0  0  0  0
   63.0370   33.6890   49.4620 C   0  0  0  0  0  0  0  0  0  0  0  0
   63.4990   32.3350   50.0030 C   0  0  0  0  0  0  0  0  0  0  0  0
   62.8300   31.3090   49.3260 O   0  0  0  0  0  0  0  0  0  0  0  0
   60.7680   34.2580   48.7400 C   0  0  0  0  0  0  0  0  0  0  0  0
   59.6070   33.8010   47.8430 C   0  0  0  0  0  0  0  0  0  0  0  0
   59.7620   32.3260   47.4200 C   0  0  0  0  0  0  0  0  0  0  0  0
   58.8830   31.9210   46.2430 C   0  0  0  0  0  0  0  0  0  0  0  0
   58.4570   32.9160   45.3510 C   0  0  0  0  0  0  0  0  0  0  0  0
   57.4380   32.6650   44.4520 C   0  0  0  0  0  0  0  0  0  0  0  0
   56.8210   31.4240   44.4470 C   0  0  0  0  0  0  0  0  0  0  0  0
   57.2760   30.3990   45.2420 N   0  0  0  0  0  0  0  0  0  0  0  0
   56.6180   29.1890   45.2100 C   0  0  0  0  0  0  0  0  0  0  0  0
   55.5680   29.0560   44.5180 O   0  0  0  0  0  0  0  0  0  0  0  0
   57.0980   28.0890   45.9460 C   0  0  0  0  0  0  0  0  0  0  0  0
   56.3950   26.7770   45.9710 C   0  0  0  0  0  0  0  0  0  0  0  0
   55.1380   26.7120   46.0100 O   0  0  0  0  0  0  0  0  0  0  0  0
   57.1210   25.5910   45.9620 O   0  0  0  0  0  0  0  0  0  0  0  0
   58.3060   28.2260   46.6260 C   0  0  0  0  0  0  0  0  0  0  0  0
   58.9980   29.4380   46.6380 C   0  0  0  0  0  0  0  0  0  0  0  0
   60.4260   29.3890   47.1360 C   0  0  0  0  0  0  0  0  0  0  0  0
   58.3880   30.5870   46.0520 C   0  0  0  0  0  0  0  0  0  0  0  0
   64.2744   32.7876   47.7495 H   0  0  0  0  0  0  0  0  0  0  0  0
   63.5719   32.1599   46.2201 H   0  0  0  0  0  0  0  0  0  0  0  0
   64.4872   33.7054   46.2201 H   0  0  0  0  0  0  0  0  0  0  0  0
   62.7095   34.9126   47.0215 H   0  0  0  0  0  0  0  0  0  0  0  0
   61.7574   33.5506   46.3257 H   0  0  0  0  0  0  0  0  0  0  0  0
   63.8962   34.2178   49.0237 H   0  0  0  0  0  0  0  0  0  0  0  0
   62.6140   34.2806   50.2873 H   0  0  0  0  0  0  0  0  0  0  0  0
   64.5831   32.2294   49.8495 H   0  0  0  0  0  0  0  0  0  0  0  0
   63.2730   32.2732   51.0777 H   0  0  0  0  0  0  0  0  0  0  0  0
   62.2170   31.7550   48.6860 H   0  0  0  0  0  0  0  0  0  0  0  0
   60.4991   34.0905   49.7934 H   0  0  0  0  0  0  0  0  0  0  0  0
   60.9556   35.3271   48.5616 H   0  0  0  0  0  0  0  0  0  0  0  0
   58.6626   33.9165   48.3951 H   0  0  0  0  0  0  0  0  0  0  0  0
   59.6098   34.4212   46.9345 H   0  0  0  0  0  0  0  0  0  0  0  0
   60.8124   32.1549   47.1417 H   0  0  0  0  0  0  0  0  0  0  0  0
   59.4450   31.7148   48.2779 H   0  0  0  0  0  0  0  0  0  0  0  0
   58.9383   33.9050   45.3672 H   0  0  0  0  0  0  0  0  0  0  0  0
   57.1187   33.4449   43.7451 H   0  0  0  0  0  0  0  0  0  0  0  0
   55.9512   31.2561   43.7949 H   0  0  0  0  0  0  0  0  0  0  0  0
   58.7228   27.3619   47.1642 H   0  0  0  0  0  0  0  0  0  0  0  0
   60.4309   29.3888   48.2360 H   0  0  0  0  0  0  0  0  0  0  0  0
   60.9118   28.4737   46.7670 H   0  0  0  0  0  0  0  0  0  0  0  0
   60.9734   30.2689   46.7670 H   0  0  0  0  0  0  0  0  0  0  0  0
  1  2  1  0
  2  3  1  0
  3  4  1  0
  4  5  1  0
  5  6  1  0
  3  7  1  0
  7  8  1  0
  8  9  1  0
  9 10  1  0
 10 11  2  0
 11 12  1  0
 12 13  2  0
 13 14  1  0
 14 15  1  0
 15 16  2  0
 15 17  1  0
 17 18  1  0
 18 19  2  0
 18 20  1  0
 17 21  2  0
 21 22  1  0
 22 23  1  0
 22 24  2  0
 24 10  1  0
 24 14  1  0
  1 25  1  0
  1 26  1  0
  1 27  1  0
  2 28  1  0
  2 29  1  0
  4 30  1  0
  4 31  1  0
  5 32  1  0
  5 33  1  0
  6 34  1  0
  7 35  1  0
  7 36  1  0
  8 37  1  0
  8 38  1  0
  9 39  1  0
  9 40  1  0
 11 41  1  0
 12 42  1  0
 13 43  1  0
 21 44  1  0
 23 45  1  0
 23 46  1  0
 23 47  1  0
M  CHG  1  20  -1
M  END
>  <UniqueID>  (9) 
7

>  <SMILES>  (9) 
CCN(CCO)CCCc1cccn2c(=O)c(C(=O)[O-])cc(C)c12

>  <Energy>  (9) 
68.48693432410259

>  <Genealogy>  (9) 
CCN(CCO)CCCc1cccn2c(=O)c(C(=O)[O-])cc(C)c12 (protonated)
CCN(CCO)CCCc1cccn2c(=O)c(C(=O)[O-])cc(C)c12 (3D coordinates assigned)
CCN(CCO)CCCc1cccn2c(=O)c(C(=O)[O-])cc(C)c12 (optimized conformer: 68.48693432410259 kcal/mol)

>  <smiles>  (9) 
CCN(CCO)CCCc1cccn2c(=O)c(C(=O)O)cc(C)c12

>  <score_type>  (9) 
oracle

>  <origin>  (9) 
adg

>  <m_score__min__energy>  (9) 
-9.7100000000000009

>  <m_primary>  (9) 
energy

$$$$
9:0
     RDKit          3D

 27 28  0  0  1  0  0  0  0  0999 V2000
   56.9950   27.2960   45.7670 C   0  0  0  0  0  0  0  0  0  0  0  0
   56.0660   28.2640   45.2380 N   0  0  0  0  0  0  0  0  0  0  0  0
   56.4430   29.3080   44.5780 C   0  0  0  0  0  0  0  0  0  0  0  0
   57.0490   30.2940   45.2760 N   0  0  0  0  0  0  0  0  0  0  0  0
   57.4890   31.4480   44.6730 C   0  0  0  0  0  0  0  0  0  0  0  0
   58.1200   32.4510   45.4700 C   0  0  0  0  0  0  0  0  0  0  0  0
   59.4510   32.0340   46.5880 S   0  0  0  0  0  0  0  0  0  0  0  0
   59.6860   33.7670   47.1860 C   0  0  0  0  0  0  0  0  0  0  0  0
   60.7160   34.1190   48.2000 C   0  0  0  0  0  0  0  0  0  0  0  0
   58.8040   34.3490   46.5130 N   0  0  0  0  0  0  0  0  0  0  0  0
   58.0020   33.7840   45.6580 C   0  0  0  0  0  0  0  0  0  0  0  0
   56.9640   34.5990   44.8940 C   0  0  0  0  0  0  0  0  0  0  0  0
   57.2560   31.4920   43.3180 C   0  0  0  0  0  0  0  0  0  0  0  0
   56.6350   30.4730   42.6170 C   0  0  0  0  0  0  0  0  0  0  0  0
   56.2260   29.3680   43.2610 N   0  0  0  0  0  0  0  0  0  0  0  0
   56.9678   27.3244   46.8663 H   0  0  0  0  0  0  0  0  0  0  0  0
   56.7149   26.2908   45.4191 H   0  0  0  0  0  0  0  0  0  0  0  0
   58.0109   27.5346   45.4191 H   0  0  0  0  0  0  0  0  0  0  0  0
   60.3009   33.9772   49.2088 H   0  0  0  0  0  0  0  0  0  0  0  0
   61.5948   33.4702   48.0705 H   0  0  0  0  0  0  0  0  0  0  0  0
   61.0139   35.1699   48.0705 H   0  0  0  0  0  0  0  0  0  0  0  0
   56.3057   35.1158   45.6078 H   0  0  0  0  0  0  0  0  0  0  0  0
   57.4734   35.3409   44.2615 H   0  0  0  0  0  0  0  0  0  0  0  0
   56.3641   33.9281   44.2615 H   0  0  0  0  0  0  0  0  0  0  0  0
   57.5804   32.3842   42.7623 H   0  0  0  0  0  0  0  0  0  0  0  0
   56.4765   30.5683   41.5327 H   0  0  0  0  0  0  0  0  0  0  0  0
   55.7550   28.5890   42.7500 H   0  0  0  0  0  0  0  0  0  0  0  0
  1  2  1  0
  2  3  2  0
  3  4  1  0
  4  5  2  0
  5  6  1  0
  6  7  1  0
  7  8  1  0
  8  9  1  0
  8 10  2  0
 10 11  1  0
 11 12  1  0
  5 13  1  0
 13 14  2  0
 14 15  1  0
 15  3  1  0
 11  6  2  0
  1 16  1  0
  1 17  1  0
  1 18  1  0
  9 19  1  0
  9 20  1  0
  9 21  1  0
 12 22  1  0
 12 23  1  0
 12 24  1  0
 13 25  1  0
 14 26  1  0
 15 27  1  0
M  END
>  <smiles>  (10) 
CN=c1nc(-c2sc(C)nc2C)cc[nH]1

>  <score_type>  (10) 
oracle

>  <origin>  (10) 
adg

>  <m_score__min__energy>  (10) 
-6.2199999999999998

>  <m_primary>  (10) 
energy

$$$$
10:0
     RDKit          3D

 45 48  0  0  0  0  0  0  0  0999 V2000
   54.3940   26.7270   46.7440 H   0  0  0  0  0  0  0  0  0  0  0  0
   55.0850   26.3040   46.0840 N   0  0  0  0  0  0  0  0  0  0  0  0
   56.2260   26.8640   45.8490 C   0  0  0  0  0  0  0  0  0  0  0  0
   56.2630   28.0920   45.2480 N   0  0  0  0  0  0  0  0  0  0  0  0
   57.4750   28.6420   44.9940 C   0  0  0  0  0  0  0  0  0  0  0  0
   58.6350   28.0330   45.3400 C   0  0  0  0  0  0  0  0  0  0  0  0
   58.6120   26.8000   45.9780 C   0  0  0  0  0  0  0  0  0  0  0  0
   60.1100   25.9990   46.5620 S   0  0  0  0  0  0  0  0  0  0  0  0
   60.0410   26.7170   48.2360 C   0  0  0  0  0  0  0  0  0  0  0  0
   59.1459   26.3428   48.7545 H   0  0  0  0  0  0  0  0  0  0  0  0
   60.9467   26.4247   48.7877 H   0  0  0  0  0  0  0  0  0  0  0  0
   59.9790   28.2080   48.1600 C   0  0  0  0  0  0  0  0  0  0  0  0
   60.7650   28.9400   47.4050 O   0  0  0  0  0  0  0  0  0  0  0  0
   60.4620   30.2040   47.5920 C   0  0  0  0  0  0  0  0  0  0  0  0
   60.9543   31.0532   47.0955 H   0  0  0  0  0  0  0  0  0  0  0  0
   59.4320   30.3060   48.5060 C   0  0  0  0  0  0  0  0  0  0  0  0
   58.9591   31.2302   48.8696 H   0  0  0  0  0  0  0  0  0  0  0  0
   59.1170   29.0150   48.8700 C   0  0  0  0  0  0  0  0  0  0  0  0
   58.3395   28.6953   49.5794 H   0  0  0  0  0  0  0  0  0  0  0  0
   57.3910   26.2350   46.2150 N   0  0  0  0  0  0  0  0  0  0  0  0
   59.6700   28.8410   45.0510 N   0  0  0  0  0  0  0  0  0  0  0  0
   60.6850   28.6820   45.2350 H   0  0  0  0  0  0  0  0  0  0  0  0
   59.0890   29.9480   44.5240 C   0  0  0  0  0  0  0  0  0  0  0  0
   59.6528   30.8272   44.1788 H   0  0  0  0  0  0  0  0  0  0  0  0
   57.7330   29.8520   44.4690 N   0  0  0  0  0  0  0  0  0  0  0  0
   56.7880   30.9180   44.1360 C   0  0  0  0  0  0  0  0  0  0  0  0
   56.2586   30.6499   43.2098 H   0  0  0  0  0  0  0  0  0  0  0  0
   56.0824   31.0275   44.9728 H   0  0  0  0  0  0  0  0  0  0  0  0
   57.5060   32.2650   43.9300 C   0  0  0  0  0  0  0  0  0  0  0  0
   58.5855   32.1110   44.0744 H   0  0  0  0  0  0  0  0  0  0  0  0
   57.2691   32.6084   42.9122 H   0  0  0  0  0  0  0  0  0  0  0  0
   57.0350   33.3590   44.9010 C   0  0  0  0  0  0  0  0  0  0  0  0
   56.7801   34.2584   44.3212 H   0  0  0  0  0  0  0  0  0  0  0  0
   56.1641   32.9668   45.4467 H   0  0  0  0  0  0  0  0  0  0  0  0
   58.0840   33.7230   45.9190 C   0  0  0  0  0  0  0  0  0  0  0  0
   59.1080   34.6260   45.5930 C   0  0  0  0  0  0  0  0  0  0  0  0
   59.1534   35.0618   44.5840 H   0  0  0  0  0  0  0  0  0  0  0  0
   60.0710   34.9740   46.5460 C   0  0  0  0  0  0  0  0  0  0  0  0
   60.8768   35.6749   46.2826 H   0  0  0  0  0  0  0  0  0  0  0  0
   60.0100   34.4320   47.8320 C   0  0  0  0  0  0  0  0  0  0  0  0
   60.7642   34.7107   48.5827 H   0  0  0  0  0  0  0  0  0  0  0  0
   58.9900   33.5350   48.1650 C   0  0  0  0  0  0  0  0  0  0  0  0
   58.9400   33.1121   49.1792 H   0  0  0  0  0  0  0  0  0  0  0  0
   58.0340   33.1750   47.2110 C   0  0  0  0  0  0  0  0  0  0  0  0
   57.2400   32.4602   47.4731 H   0  0  0  0  0  0  0  0  0  0  0  0
  1  2  1  0
  2  3  2  0
  3  4  1  0
  4  5  2  0
  5  6  1  0
  6  7  2  0
  7  8  1  0
  8  9  1  0
  9 10  1  0
  9 11  1  0
  9 12  1  0
 12 13  1  0
 13 14  1  0
 14 15  1  0
 14 16  2  0
 16 17  1  0
 16 18  1  0
 18 19  1  0
  7 20  1  0
  6 21  1  0
 21 22  1  0
 21 23  2  0
 23 24  1  0
 23 25  1  0
 25 26  1  0
 26 27  1  0
 26 28  1  0
 26 29  1  0
 29 30  1  0
 29 31  1  0
 29 32  1  0
 32 33  1  0
 32 34  1  0
 32 35  1  0
 35 36  2  0
 36 37  1  0
 36 38  1  0
 38 39  1  0
 38 40  2  0
 40 41  1  0
 40 42  1  0
 42 43  1  0
 42 44  2  0
 44 45  1  0
 20  3  1  0
 44 35  1  0
 25  5  1  0
 18 12  2  0
M  CHG  2  20  -1  21   1
M  END
>  <UniqueID>  (11) 
8

>  <SMILES>  (11) 
[H]/N=c1/nc2c([nH+]cn2CCCc2ccccc2)c(SCc2ccco2)[n-]1

>  <Energy>  (11) 
103.80252452165033

>  <Genealogy>  (11) 
N=c1nc2c([nH+]cn2CCCc2ccccc2)c(SCc2ccco2)[n-]1 (protonated)
[H]/N=c1/nc2c([nH+]cn2CCCc2ccccc2)c(SCc2ccco2)[n-]1 (cis-trans isomerization)
[H]/N=c1/nc2c([nH+]cn2CCCc2ccccc2)c(SCc2ccco2)[n-]1 (3D coordinates assigned)
[H]/N=c1/nc2c([nH+]cn2CCCc2ccccc2)c(SCc2ccco2)[n-]1 (optimized conformer: 103.80252452165033 kcal/mol)

>  <smiles>  (11) 
N=c1nc2c(ncn2CCCc2ccccc2)c(SCc2ccco2)[nH]1

>  <score_type>  (11) 
oracle

>  <origin>  (11) 
adg

>  <m_score__min__energy>  (11) 
-9.2400000000000002

>  <m_primary>  (11) 
energy

$$$$
11:0
     RDKit          3D

 35 36  0  0  0  0  0  0  0  0999 V2000
   55.1500   30.4680   45.2310 H   0  0  0  0  0  0  0  0  0  0  0  0
   55.2690   29.5660   44.8350 O   0  0  0  0  0  0  0  0  0  0  0  0
   56.0550   29.7460   43.6880 C   0  0  0  0  0  0  0  0  0  0  0  0
   55.4295   30.1636   42.8853 H   0  0  0  0  0  0  0  0  0  0  0  0
   56.4662   28.7706   43.3887 H   0  0  0  0  0  0  0  0  0  0  0  0
   57.2230   30.7050   43.9650 C   0  0  1  0  0  0  0  0  0  0  0  0
   57.5757   30.9534   42.9531 H   0  0  0  0  0  0  0  0  0  0  0  0
   56.6820   32.2060   44.8630 S   0  0  0  0  0  0  0  0  0  0  0  0
   58.3550   32.3390   45.4470 C   0  0  0  0  0  0  0  0  0  0  0  0
   58.8370   33.4600   45.8910 N   0  0  0  0  0  0  0  0  0  0  0  0
   59.9460   33.6060   46.7920 C   0  0  0  0  0  0  0  0  0  0  0  0
   59.6830   33.7710   48.1580 C   0  0  0  0  0  0  0  0  0  0  0  0
   58.6425   33.8080   48.5128 H   0  0  0  0  0  0  0  0  0  0  0  0
   60.7330   33.8890   49.0740 C   0  0  0  0  0  0  0  0  0  0  0  0
   60.5141   34.0255   50.1433 H   0  0  0  0  0  0  0  0  0  0  0  0
   62.0650   33.8340   48.6350 C   0  0  0  0  0  0  0  0  0  0  0  0
   63.1940   33.9270   49.6250 C   0  0  0  0  0  0  0  0  0  0  0  0
   63.6153   34.9428   49.5975 H   0  0  0  0  0  0  0  0  0  0  0  0
   62.8032   33.7022   50.6284 H   0  0  0  0  0  0  0  0  0  0  0  0
   64.2910   32.9210   49.2900 C   0  0  0  0  0  0  0  0  0  0  0  0
   64.7225   32.5253   50.2213 H   0  0  0  0  0  0  0  0  0  0  0  0
   63.8637   32.0942   48.7036 H   0  0  0  0  0  0  0  0  0  0  0  0
   65.0778   33.4181   48.7036 H   0  0  0  0  0  0  0  0  0  0  0  0
   62.3310   33.6250   47.2730 C   0  0  0  0  0  0  0  0  0  0  0  0
   63.3716   33.5529   46.9239 H   0  0  0  0  0  0  0  0  0  0  0  0
   61.2820   33.5080   46.3580 C   0  0  0  0  0  0  0  0  0  0  0  0
   61.5006   33.3385   45.2934 H   0  0  0  0  0  0  0  0  0  0  0  0
   59.1150   31.1890   45.3070 O   0  0  0  0  0  0  0  0  0  0  0  0
   58.4260   30.0950   44.7320 C   0  0  1  0  0  0  0  0  0  0  0  0
   59.0332   29.5042   44.0304 H   0  0  0  0  0  0  0  0  0  0  0  0
   58.0160   29.1560   45.8420 C   0  0  0  0  0  0  0  0  0  0  0  0
   57.0819   28.5839   45.7407 H   0  0  0  0  0  0  0  0  0  0  0  0
   58.7560   29.0010   46.9430 C   0  0  0  0  0  0  0  0  0  0  0  0
   58.4287   28.3088   47.7328 H   0  0  0  0  0  0  0  0  0  0  0  0
   59.6928   29.5655   47.0600 H   0  0  0  0  0  0  0  0  0  0  0  0
  1  2  1  0
  2  3  1  0
  3  4  1  0
  3  5  1  0
  3  6  1  0
  6  7  1  6
  6  8  1  0
  8  9  1  0
  9 10  2  0
 10 11  1  0
 11 12  2  0
 12 13  1  0
 12 14  1  0
 14 15  1  0
 14 16  2  0
 16 17  1  0
 17 18  1  0
 17 19  1  0
 17 20  1  0
 20 21  1  0
 20 22  1  0
 20 23  1  0
 16 24  1  0
 24 25  1  0
 24 26  2  0
 26 27  1  0
  9 28  1  0
 28 29  1  0
 29 30  1  6
 29 31  1  0
 31 32  1  0
 31 33  2  0
 33 34  1  0
 33 35  1  0
 29  6  1  0
 26 11  1  0
M  END
>  <UniqueID>  (12) 
9

>  <SMILES>  (12) 
C=C[C@@H]1O/C(=N\c2ccc(CC)cc2)S[C@@H]1CO

>  <Energy>  (12) 
41.796171693380906

>  <Genealogy>  (12) 
C=C[C@@H]1OC(=Nc2ccc(CC)cc2)S[C@@H]1CO (chirality)
C=C[C@@H]1O/C(=N\c2ccc(CC)cc2)S[C@@H]1CO (cis-trans isomerization)
C=C[C@@H]1O/C(=N\c2ccc(CC)cc2)S[C@@H]1CO (3D coordinates assigned)
C=C[C@@H]1O/C(=N\c2ccc(CC)cc2)S[C@@H]1CO (nonaromatic ring conformer: 41.796171693380906 kcal/mol)

>  <smiles>  (12) 
C=CC1OC(=Nc2ccc(CC)cc2)SC1CO

>  <score_type>  (12) 
oracle

>  <origin>  (12) 
adg

>  <m_score__min__energy>  (12) 
-6.9100000000000001

>  <m_primary>  (12) 
energy

$$$$
12:0
     RDKit          3D

 33 34  0  0  0  0  0  0  0  0999 V2000
   57.0510   30.9310   43.5570 C   0  0  0  0  0  0  0  0  0  0  0  0
   57.0190   31.4710   44.9240 N   0  0  0  0  0  0  0  0  0  0  0  0
   58.0170   30.8030   45.7950 C   0  0  0  0  0  0  0  0  0  0  0  0
   59.2790   31.6570   45.9920 C   0  0  0  0  0  0  0  0  0  0  0  0
   58.9660   32.9630   46.6340 N   0  0  0  0  0  0  0  0  0  0  0  0
   60.0210   33.9670   46.3460 C   0  0  0  0  0  0  0  0  0  0  0  0
   61.2500   33.7700   47.2110 C   0  0  0  0  0  0  0  0  0  0  0  0
   62.4830   33.4780   46.6000 C   0  0  0  0  0  0  0  0  0  0  0  0
   63.6270   33.2650   47.3740 C   0  0  0  0  0  0  0  0  0  0  0  0
   63.5550   33.3410   48.7660 C   0  0  0  0  0  0  0  0  0  0  0  0
   64.9930   33.0730   49.7350 Cl  0  0  0  0  0  0  0  0  0  0  0  0
   62.3380   33.6310   49.3870 C   0  0  0  0  0  0  0  0  0  0  0  0
   61.1840   33.8450   48.6210 C   0  0  0  0  0  0  0  0  0  0  0  0
   59.6840   34.2140   49.4650 Cl  0  0  0  0  0  0  0  0  0  0  0  0
   57.6210   33.4840   46.2560 C   0  0  0  0  0  0  0  0  0  0  0  0
   57.1510   32.9470   44.8970 C   0  0  0  0  0  0  0  0  0  0  0  0
   57.1160   29.8337   43.5977 H   0  0  0  0  0  0  0  0  0  0  0  0
   56.1339   31.2245   43.0253 H   0  0  0  0  0  0  0  0  0  0  0  0
   57.9270   31.3308   43.0253 H   0  0  0  0  0  0  0  0  0  0  0  0
   57.5599   30.6144   46.7776 H   0  0  0  0  0  0  0  0  0  0  0  0
   58.3172   29.8643   45.3065 H   0  0  0  0  0  0  0  0  0  0  0  0
   59.9858   31.1065   46.6302 H   0  0  0  0  0  0  0  0  0  0  0  0
   59.7150   31.8575   45.0022 H   0  0  0  0  0  0  0  0  0  0  0  0
   58.9490   32.8060   47.6710 H   0  0  0  0  0  0  0  0  0  0  0  0
   60.3139   33.8800   45.2893 H   0  0  0  0  0  0  0  0  0  0  0  0
   59.6089   34.9628   46.5664 H   0  0  0  0  0  0  0  0  0  0  0  0
   62.5473   33.4168   45.5036 H   0  0  0  0  0  0  0  0  0  0  0  0
   64.5858   33.0371   46.8855 H   0  0  0  0  0  0  0  0  0  0  0  0
   62.2849   33.6918   50.4840 H   0  0  0  0  0  0  0  0  0  0  0  0
   56.8954   33.1827   47.0259 H   0  0  0  0  0  0  0  0  0  0  0  0
   57.6928   34.5790   46.1794 H   0  0  0  0  0  0  0  0  0  0  0  0
   56.1744   33.3908   44.6535 H   0  0  0  0  0  0  0  0  0  0  0  0
   57.8985   33.2174   44.1367 H   0  0  0  0  0  0  0  0  0  0  0  0
  1  2  1  0
  2  3  1  0
  3  4  1  0
  4  5  1  0
  5  6  1  0
  6  7  1  0
  7  8  2  0
  8  9  1  0
  9 10  2  0
 10 11  1  0
 10 12  1  0
 12 13  2  0
 13 14  1  0
  5 15  1  0
 15 16  1  0
 16  2  1  0
 13  7  1  0
  1 17  1  0
  1 18  1  0
  1 19  1  0
  3 20  1  0
  3 21  1  0
  4 22  1  0
  4 23  1  0
  5 24  1  0
  6 25  1  0
  6 26  1  0
  8 27  1  0
  9 28  1  0
 12 29  1  0
 15 30  1  0
 15 31  1  0
 16 32  1  0
 16 33  1  0
M  CHG  1   5   1
M  END
>  <UniqueID>  (13) 
10

>  <SMILES>  (13) 
CN1CC[NH+](Cc2ccc(Cl)cc2Cl)CC1

>  <Energy>  (13) 
46.077467710896634

>  <Genealogy>  (13) 
CN1CC[NH+](Cc2ccc(Cl)cc2Cl)CC1 (protonated)
CN1CC[NH+](Cc2ccc(Cl)cc2Cl)CC1 (3D coordinates assigned)
CN1CC[NH+](Cc2ccc(Cl)cc2Cl)CC1 (nonaromatic ring conformer: 46.077467710896634 kcal/mol)

>  <smiles>  (13) 
CN1CCN(Cc2ccc(Cl)cc2Cl)CC1

>  <score_type>  (13) 
oracle

>  <origin>  (13) 
adg

>  <m_score__min__energy>  (13) 
-5

>  <m_primary>  (13) 
energy

$$$$
13:0
     RDKit          3D

 40 43  0  0  0  0  0  0  0  0999 V2000
   55.9220   29.7210   43.4850 C   0  0  0  0  0  0  0  0  0  0  0  0
   56.1150   29.7330   44.8950 O   0  0  0  0  0  0  0  0  0  0  0  0
   57.2420   29.2110   45.5530 C   0  0  0  0  0  0  0  0  0  0  0  0
   57.3980   27.8270   45.7590 C   0  0  0  0  0  0  0  0  0  0  0  0
   58.5400   27.3310   46.3830 C   0  0  0  0  0  0  0  0  0  0  0  0
   59.5350   28.2010   46.8210 C   0  0  0  0  0  0  0  0  0  0  0  0
   59.3990   29.5870   46.6530 C   0  0  0  0  0  0  0  0  0  0  0  0
   60.4620   30.4660   47.1950 C   0  0  0  0  0  0  0  0  0  0  0  0
   61.1400   30.3030   48.4010 C   0  0  0  0  0  0  0  0  0  0  0  0
   62.0380   31.2980   48.4880 N   0  0  0  0  0  0  0  0  0  0  0  0
   62.9340   31.5800   49.4670 C   0  0  0  0  0  0  0  0  0  0  0  0
   63.7670   32.6960   49.2990 C   0  0  0  0  0  0  0  0  0  0  0  0
   63.6510   33.4800   48.1340 C   0  0  0  0  0  0  0  0  0  0  0  0
   62.7100   33.1480   47.1440 C   0  0  0  0  0  0  0  0  0  0  0  0
   61.9100   32.0280   47.3680 C   0  0  0  0  0  0  0  0  0  0  0  0
   60.9590   31.5470   46.5470 N   0  0  0  0  0  0  0  0  0  0  0  0
   58.2470   30.0980   45.9980 C   0  0  0  0  0  0  0  0  0  0  0  0
   58.1040   31.5460   45.7070 C   0  0  0  0  0  0  0  0  0  0  0  0
   58.1610   32.0110   44.3820 C   0  0  0  0  0  0  0  0  0  0  0  0
   58.0390   33.3770   44.1110 C   0  0  0  0  0  0  0  0  0  0  0  0
   57.8520   34.2850   45.1560 C   0  0  0  0  0  0  0  0  0  0  0  0
   57.7860   33.8290   46.4760 C   0  0  0  0  0  0  0  0  0  0  0  0
   57.9110   32.4630   46.7530 C   0  0  0  0  0  0  0  0  0  0  0  0
   54.8468   29.6542   43.2627 H   0  0  0  0  0  0  0  0  0  0  0  0
   56.3293   30.6462   43.0513 H   0  0  0  0  0  0  0  0  0  0  0  0
   56.4408   28.8534   43.0513 H   0  0  0  0  0  0  0  0  0  0  0  0
   56.6127   27.1329   45.4249 H   0  0  0  0  0  0  0  0  0  0  0  0
   58.6565   26.2472   46.5305 H   0  0  0  0  0  0  0  0  0  0  0  0
   60.4371   27.7972   47.3038 H   0  0  0  0  0  0  0  0  0  0  0  0
   60.9715   29.5085   49.1428 H   0  0  0  0  0  0  0  0  0  0  0  0
   63.0052   30.9514   50.3669 H   0  0  0  0  0  0  0  0  0  0  0  0
   64.5055   32.9572   50.0712 H   0  0  0  0  0  0  0  0  0  0  0  0
   64.3008   34.3572   47.9984 H   0  0  0  0  0  0  0  0  0  0  0  0
   62.6086   33.7485   46.2280 H   0  0  0  0  0  0  0  0  0  0  0  0
   60.6640   31.9310   45.6210 H   0  0  0  0  0  0  0  0  0  0  0  0
   58.3020   31.2983   43.5561 H   0  0  0  0  0  0  0  0  0  0  0  0
   58.0903   33.7375   43.0730 H   0  0  0  0  0  0  0  0  0  0  0  0
   57.7566   35.3594   44.9402 H   0  0  0  0  0  0  0  0  0  0  0  0
   57.6357   34.5447   47.2977 H   0  0  0  0  0  0  0  0  0  0  0  0
   57.8580   32.1067   47.7923 H   0  0  0  0  0  0  0  0  0  0  0  0
  1  2  1  0
  2  3  1  0
  3  4  2  0
  4  5  1  0
  5  6  2  0
  6  7  1  0
  7  8  1  0
  8  9  2  0
  9 10  1  0
 10 11  1  0
 11 12  2  0
 12 13  1  0
 13 14  2  0
 14 15  1  0
 15 16  2  0
  7 17  2  0
 17 18  1  0
 18 19  2  0
 19 20  1  0
 20 21  2  0
 21 22  1  0
 22 23  2  0
 17  3  1  0
 23 18  1  0
 16  8  1  0
 15 10  1  0
  1 24  1  0
  1 25  1  0
  1 26  1  0
  4 27  1  0
  5 28  1  0
  6 29  1  0
  9 30  1  0
 11 31  1  0
 12 32  1  0
 13 33  1  0
 14 34  1  0
 16 35  1  0
 19 36  1  0
 20 37  1  0
 21 38  1  0
 22 39  1  0
 23 40  1  0
M  CHG  1  16   1
M  END
>  <UniqueID>  (14) 
11

>  <SMILES>  (14) 
COc1cccc(-c2cn3ccccc3[nH+]2)c1-c1ccccc1

>  <Energy>  (14) 
91.88201617033438

>  <Genealogy>  (14) 
COc1cccc(-c2cn3ccccc3[nH+]2)c1-c1ccccc1 (protonated)
COc1cccc(-c2cn3ccccc3[nH+]2)c1-c1ccccc1 (3D coordinates assigned)
COc1cccc(-c2cn3ccccc3[nH+]2)c1-c1ccccc1 (optimized conformer: 91.88201617033438 kcal/mol)

>  <smiles>  (14) 
COc1cccc(-c2cn3ccccc3n2)c1-c1ccccc1

>  <score_type>  (14) 
oracle

>  <origin>  (14) 
adg

>  <m_score__min__energy>  (14) 
-6.6900000000000004

>  <m_primary>  (14) 
energy

$$$$
14:0
     RDKit          3D

 49 51  0  0  0  0  0  0  0  0999 V2000
   60.0530   27.8180   48.8840 C   0  0  0  0  0  0  0  0  0  0  0  0
   58.8610   27.7640   48.1070 O   0  0  0  0  0  0  0  0  0  0  0  0
   58.8270   27.7290   46.7050 C   0  0  0  0  0  0  0  0  0  0  0  0
   58.1440   26.7160   46.0010 C   0  0  0  0  0  0  0  0  0  0  0  0
   58.1190   26.7250   44.6060 C   0  0  0  0  0  0  0  0  0  0  0  0
   58.7620   27.7410   43.9010 C   0  0  0  0  0  0  0  0  0  0  0  0
   59.4520   28.7430   44.5860 C   0  0  0  0  0  0  0  0  0  0  0  0
   59.4920   28.7440   45.9960 C   0  0  0  0  0  0  0  0  0  0  0  0
   60.1930   29.7100   46.7420 O   0  0  0  0  0  0  0  0  0  0  0  0
   60.3400   31.0970   46.4300 C   0  0  0  0  0  0  0  0  0  0  0  0
   59.2100   31.9280   47.0460 C   0  0  0  0  0  0  0  0  0  0  0  0
   58.9420   33.1570   46.2750 N   0  0  0  0  0  0  0  0  0  0  0  0
   59.6620   34.3880   46.6540 C   0  0  0  0  0  0  0  0  0  0  0  0
   61.0190   34.0640   47.2220 C   0  0  0  0  0  0  0  0  0  0  0  0
   61.2210   34.0310   48.6120 C   0  0  0  0  0  0  0  0  0  0  0  0
   62.4900   33.7690   49.1350 C   0  0  0  0  0  0  0  0  0  0  0  0
   63.5690   33.5380   48.2770 C   0  0  0  0  0  0  0  0  0  0  0  0
   63.3770   33.5650   46.8930 C   0  0  0  0  0  0  0  0  0  0  0  0
   62.1090   33.8280   46.3660 C   0  0  0  0  0  0  0  0  0  0  0  0
   57.8180   33.1830   45.3590 C   0  0  0  0  0  0  0  0  0  0  0  0
   56.8120   33.8930   45.6340 O   0  0  0  0  0  0  0  0  0  0  0  0
   57.8420   32.4450   44.0400 C   0  0  0  0  0  0  0  0  0  0  0  0
   57.0320   31.1820   44.0820 C   0  0  0  0  0  0  0  0  0  0  0  0
   56.5810   30.4720   42.9960 C   0  0  0  0  0  0  0  0  0  0  0  0
   55.9140   29.3900   43.4300 N   0  0  0  0  0  0  0  0  0  0  0  0
   55.9800   29.4800   44.7760 C   0  0  0  0  0  0  0  0  0  0  0  0
   56.6570   30.5620   45.2150 N   0  0  0  0  0  0  0  0  0  0  0  0
   59.7946   27.8063   49.9532 H   0  0  0  0  0  0  0  0  0  0  0  0
   60.6833   26.9475   48.6495 H   0  0  0  0  0  0  0  0  0  0  0  0
   60.6020   28.7419   48.6495 H   0  0  0  0  0  0  0  0  0  0  0  0
   57.6292   25.9161   46.5534 H   0  0  0  0  0  0  0  0  0  0  0  0
   57.5907   25.9286   44.0614 H   0  0  0  0  0  0  0  0  0  0  0  0
   58.7257   27.7534   42.8017 H   0  0  0  0  0  0  0  0  0  0  0  0
   59.9670   29.5356   44.0233 H   0  0  0  0  0  0  0  0  0  0  0  0
   61.3030   31.4531   46.8247 H   0  0  0  0  0  0  0  0  0  0  0  0
   60.3009   31.2134   45.3369 H   0  0  0  0  0  0  0  0  0  0  0  0
   58.2947   31.3185   47.0716 H   0  0  0  0  0  0  0  0  0  0  0  0
   59.5203   32.2241   48.0589 H   0  0  0  0  0  0  0  0  0  0  0  0
   59.7863   35.0212   45.7632 H   0  0  0  0  0  0  0  0  0  0  0  0
   59.0766   34.9153   47.4216 H   0  0  0  0  0  0  0  0  0  0  0  0
   60.3757   34.2124   49.2921 H   0  0  0  0  0  0  0  0  0  0  0  0
   62.6402   33.7445   50.2244 H   0  0  0  0  0  0  0  0  0  0  0  0
   64.5679   33.3352   48.6906 H   0  0  0  0  0  0  0  0  0  0  0  0
   64.2248   33.3790   46.2172 H   0  0  0  0  0  0  0  0  0  0  0  0
   61.9634   33.8504   45.2759 H   0  0  0  0  0  0  0  0  0  0  0  0
   57.4328   33.1024   43.2588 H   0  0  0  0  0  0  0  0  0  0  0  0
   58.8853   32.1700   43.8259 H   0  0  0  0  0  0  0  0  0  0  0  0
   56.7402   30.7451   41.9424 H   0  0  0  0  0  0  0  0  0  0  0  0
   55.5246   28.7407   45.4513 H   0  0  0  0  0  0  0  0  0  0  0  0
  1  2  1  0
  2  3  1  0
  3  4  2  0
  4  5  1  0
  5  6  2  0
  6  7  1  0
  7  8  2  0
  8  9  1  0
  9 10  1  0
 10 11  1  0
 11 12  1  0
 12 13  1  0
 13 14  1  0
 14 15  2  0
 15 16  1  0
 16 17  2  0
 17 18  1  0
 18 19  2  0
 12 20  1  0
 20 21  2  0
 20 22  1  0
 22 23  1  0
 23 24  2  0
 24 25  1  0
 25 26  1  0
 26 27  2  0
  8  3  1  0
 19 14  1  0
 27 23  1  0
  1 28  1  0
  1 29  1  0
  1 30  1  0
  4 31  1  0
  5 32  1  0
  6 33  1  0
  7 34  1  0
 10 35  1  0
 10 36  1  0
 11 37  1  0
 11 38  1  0
 13 39  1  0
 13 40  1  0
 15 41  1  0
 16 42  1  0
 17 43  1  0
 18 44  1  0
 19 45  1  0
 22 46  1  0
 22 47  1  0
 24 48  1  0
 26 49  1  0
M  CHG  1  25  -1
M  END
>  <UniqueID>  (15) 
12

>  <SMILES>  (15) 
COc1ccccc1OCCN(Cc1ccccc1)C(=O)Cc1c[n-]cn1

>  <Energy>  (15) 
73.63689399377674

>  <Genealogy>  (15) 
COc1ccccc1OCCN(Cc1ccccc1)C(=O)Cc1c[n-]cn1 (protonated)
COc1ccccc1OCCN(Cc1ccccc1)C(=O)Cc1c[n-]cn1 (3D coordinates assigned)
COc1ccccc1OCCN(Cc1ccccc1)C(=O)Cc1c[n-]cn1 (optimized conformer: 73.63689399377674 kcal/mol)

>  <smiles>  (15) 
COc1ccccc1OCCN(Cc1ccccc1)C(=O)Cc1c[nH]cn1

>  <score_type>  (15) 
oracle

>  <origin>  (15) 
adg

>  <m_score__min__energy>  (15) 
-9.0700000000000003

>  <m_primary>  (15) 
energy

$$$$
15:0
     RDKit          3D

 27 28  0  0  0  0  0  0  0  0999 V2000
   57.9390   32.1500   43.7160 O   0  0  0  0  0  0  0  0  0  0  0  0
   57.8640   31.5930   44.8460 C   0  0  0  0  0  0  0  0  0  0  0  0
   57.3830   32.2980   45.9580 O   0  0  0  0  0  0  0  0  0  0  0  0
   58.1630   33.0790   46.8230 C   0  0  0  0  0  0  0  0  0  0  0  0
   58.6660   32.4930   47.9890 C   0  0  0  0  0  0  0  0  0  0  0  0
   59.4540   33.2390   48.8650 C   0  0  0  0  0  0  0  0  0  0  0  0
   59.7450   34.5690   48.5600 C   0  0  0  0  0  0  0  0  0  0  0  0
   59.2690   35.1260   47.4130 N   0  0  0  0  0  0  0  0  0  0  0  0
   58.4970   34.4170   46.5440 C   0  0  0  0  0  0  0  0  0  0  0  0
   58.2650   30.1760   45.0010 C   0  0  0  0  0  0  0  0  0  0  0  0
   59.5250   29.8820   45.5620 C   0  0  0  0  0  0  0  0  0  0  0  0
   60.3420   30.8750   45.9970 F   0  0  0  0  0  0  0  0  0  0  0  0
   59.9770   28.5630   45.6400 C   0  0  0  0  0  0  0  0  0  0  0  0
   59.1860   27.5220   45.1590 C   0  0  0  0  0  0  0  0  0  0  0  0
   57.9310   27.7900   44.6140 C   0  0  0  0  0  0  0  0  0  0  0  0
   57.4470   29.1090   44.5440 C   0  0  0  0  0  0  0  0  0  0  0  0
   56.1100   29.3360   44.0660 N   0  0  0  0  0  0  0  0  0  0  0  0
   55.1560   29.3770   44.8700 O   0  0  0  0  0  0  0  0  0  0  0  0
   55.8990   29.7300   42.7650 O   0  0  0  0  0  0  0  0  0  0  0  0
   58.4394   31.4407   48.2158 H   0  0  0  0  0  0  0  0  0  0  0  0
   59.8424   32.7832   49.7877 H   0  0  0  0  0  0  0  0  0  0  0  0
   60.3600   35.1683   49.2475 H   0  0  0  0  0  0  0  0  0  0  0  0
   59.5090   36.1180   47.1910 H   0  0  0  0  0  0  0  0  0  0  0  0
   58.1333   34.8918   45.6208 H   0  0  0  0  0  0  0  0  0  0  0  0
   60.9603   28.3454   46.0824 H   0  0  0  0  0  0  0  0  0  0  0  0
   59.5525   26.4861   45.2093 H   0  0  0  0  0  0  0  0  0  0  0  0
   57.3135   26.9622   44.2352 H   0  0  0  0  0  0  0  0  0  0  0  0
  1  2  2  0
  2  3  1  0
  3  4  1  0
  4  5  2  0
  5  6  1  0
  6  7  2  0
  7  8  1  0
  8  9  2  0
  2 10  1  0
 10 11  2  0
 11 12  1  0
 11 13  1  0
 13 14  2  0
 14 15  1  0
 15 16  2  0
 16 17  1  0
 17 18  2  0
 17 19  1  0
  9  4  1  0
 16 10  1  0
  5 20  1  0
  6 21  1  0
  7 22  1  0
  8 23  1  0
  9 24  1  0
 13 25  1  0
 14 26  1  0
 15 27  1  0
M  CHG  3   8   1  17   1  19  -1
M  END
>  <UniqueID>  (16) 
13

>  <SMILES>  (16) 
O=C(Oc1ccc[nH+]c1)c1c(F)cccc1[N+](=O)[O-]

>  <Energy>  (16) 
42.0100235270632

>  <Genealogy>  (16) 
O=C(Oc1ccc[nH+]c1)c1c(F)cccc1[N+](=O)[O-] (protonated)
O=C(Oc1ccc[nH+]c1)c1c(F)cccc1[N+](=O)[O-] (3D coordinates assigned)
O=C(Oc1ccc[nH+]c1)c1c(F)cccc1[N+](=O)[O-] (optimized conformer: 42.0100235270632 kcal/mol)

>  <smiles>  (16) 
O=C(Oc1cccnc1)c1c(F)cccc1[N+](=O)[O-]

>  <score_type>  (16) 
oracle

>  <origin>  (16) 
adg

>  <m_score__min__energy>  (16) 
-5.0899999999999999

>  <m_primary>  (16) 
energy

$$$$
16:0
     RDKit          3D

 54 56  0  0  0  0  0  0  0  0999 V2000
   55.7030   25.1990   45.6610 C   0  0  0  0  0  0  0  0  0  0  0  0
   55.5700   26.5910   45.9310 O   0  0  0  0  0  0  0  0  0  0  0  0
   56.6420   27.4960   45.9730 C   0  0  0  0  0  0  0  0  0  0  0  0
   57.6930   27.2410   46.8600 C   0  0  0  0  0  0  0  0  0  0  0  0
   58.7840   28.1100   46.9400 C   0  0  0  0  0  0  0  0  0  0  0  0
   58.8430   29.2570   46.1270 C   0  0  0  0  0  0  0  0  0  0  0  0
   60.0150   30.2150   46.2140 C   0  0  2  0  0  0  0  0  0  0  0  0
   61.1550   29.6550   45.6110 O   0  0  0  0  0  0  0  0  0  0  0  0
   60.2850   30.6370   47.6750 C   0  0  0  0  0  0  0  0  0  0  0  0
   61.7910   30.7060   47.9750 C   0  0  0  0  0  0  0  0  0  0  0  0
   62.1210   31.5410   49.2310 C   0  0  0  0  0  0  0  0  0  0  0  0
   62.8460   32.8150   48.9630 N   0  0  0  0  0  0  0  0  0  0  0  0
   62.1540   34.0240   49.4670 C   0  0  0  0  0  0  0  0  0  0  0  0
   60.7720   34.1950   48.8220 C   0  0  0  0  0  0  0  0  0  0  0  0
   60.8050   33.8250   47.4030 N   0  0  0  0  0  0  0  0  0  0  0  0
   59.5770   33.8280   46.6490 C   0  0  0  0  0  0  0  0  0  0  0  0
   58.3670   33.4380   47.2530 C   0  0  0  0  0  0  0  0  0  0  0  0
   57.1780   33.4400   46.5180 C   0  0  0  0  0  0  0  0  0  0  0  0
   57.1840   33.8360   45.1780 C   0  0  0  0  0  0  0  0  0  0  0  0
   58.3780   34.2290   44.5700 C   0  0  0  0  0  0  0  0  0  0  0  0
   59.5710   34.2260   45.3000 C   0  0  0  0  0  0  0  0  0  0  0  0
   62.0940   33.7370   46.7030 C   0  0  0  0  0  0  0  0  0  0  0  0
   63.1520   32.9500   47.5130 C   0  0  0  0  0  0  0  0  0  0  0  0
   57.7840   29.5150   45.2410 C   0  0  0  0  0  0  0  0  0  0  0  0
   56.6940   28.6450   45.1620 C   0  0  0  0  0  0  0  0  0  0  0  0
   55.7559   24.6449   46.6098 H   0  0  0  0  0  0  0  0  0  0  0  0
   54.8338   24.8531   45.0823 H   0  0  0  0  0  0  0  0  0  0  0  0
   56.6220   25.0239   45.0823 H   0  0  0  0  0  0  0  0  0  0  0  0
   57.6602   26.3475   47.5008 H   0  0  0  0  0  0  0  0  0  0  0  0
   59.6024   27.8961   47.6432 H   0  0  0  0  0  0  0  0  0  0  0  0
   59.7582   31.1292   45.6588 H   0  0  0  0  0  0  0  0  0  0  0  0
   60.9110   29.3680   44.6930 H   0  0  0  0  0  0  0  0  0  0  0  0
   59.8407   31.6283   47.8481 H   0  0  0  0  0  0  0  0  0  0  0  0
   59.8361   29.8838   48.3392 H   0  0  0  0  0  0  0  0  0  0  0  0
   62.1649   29.6827   48.1268 H   0  0  0  0  0  0  0  0  0  0  0  0
   62.2738   31.1982   47.1179 H   0  0  0  0  0  0  0  0  0  0  0  0
   61.1755   31.7855   49.7372 H   0  0  0  0  0  0  0  0  0  0  0  0
   62.7953   30.9246   49.8437 H   0  0  0  0  0  0  0  0  0  0  0  0
   63.7680   32.7590   49.4550 H   0  0  0  0  0  0  0  0  0  0  0  0
   62.0309   33.9366   50.5566 H   0  0  0  0  0  0  0  0  0  0  0  0
   62.7645   34.9020   49.2094 H   0  0  0  0  0  0  0  0  0  0  0  0
   60.0489   33.5517   49.3448 H   0  0  0  0  0  0  0  0  0  0  0  0
   60.4761   35.2514   48.9020 H   0  0  0  0  0  0  0  0  0  0  0  0
   58.3570   33.1300   48.3090 H   0  0  0  0  0  0  0  0  0  0  0  0
   56.2367   33.1295   46.9950 H   0  0  0  0  0  0  0  0  0  0  0  0
   56.2472   33.8381   44.6015 H   0  0  0  0  0  0  0  0  0  0  0  0
   58.3803   34.5414   43.5153 H   0  0  0  0  0  0  0  0  0  0  0  0
   60.5091   34.5364   44.8168 H   0  0  0  0  0  0  0  0  0  0  0  0
   61.9387   33.2307   45.7389 H   0  0  0  0  0  0  0  0  0  0  0  0
   62.4711   34.7610   46.5641 H   0  0  0  0  0  0  0  0  0  0  0  0
   63.2320   31.9405   47.0836 H   0  0  0  0  0  0  0  0  0  0  0  0
   64.0883   33.5232   47.4435 H   0  0  0  0  0  0  0  0  0  0  0  0
   57.8133   30.4108   44.6032 H   0  0  0  0  0  0  0  0  0  0  0  0
   55.8724   28.8590   44.4626 H   0  0  0  0  0  0  0  0  0  0  0  0
  1  2  1  0
  2  3  1  0
  3  4  2  0
  4  5  1  0
  5  6  2  0
  6  7  1  0
  7  8  1  0
  7  9  1  0
  9 10  1  0
 10 11  1  0
 11 12  1  0
 12 13  1  0
 13 14  1  0
 14 15  1  0
 15 16  1  0
 16 17  2  0
 17 18  1  0
 18 19  2  0
 19 20  1  0
 20 21  2  0
 15 22  1  0
 22 23  1  0
  6 24  1  0
 24 25  2  0
 25  3  1  0
 23 12  1  0
 21 16  1  0
  1 26  1  0
  1 27  1  0
  1 28  1  0
  4 29  1  0
  5 30  1  0
  7 31  1  6
  8 32  1  0
  9 33  1  0
  9 34  1  0
 10 35  1  0
 10 36  1  0
 11 37  1  0
 11 38  1  0
 12 39  1  0
 13 40  1  0
 13 41  1  0
 14 42  1  0
 14 43  1  0
 17 44  1  0
 18 45  1  0
 19 46  1  0
 20 47  1  0
 21 48  1  0
 22 49  1  0
 22 50  1  0
 23 51  1  0
 23 52  1  0
 24 53  1  0
 25 54  1  0
M  CHG  1  12   1
M  END
>  <UniqueID>  (17) 
14

>  <SMILES>  (17) 
COc1ccc([C@H](O)CCC[NH+]2CCN(c3ccccc3)CC2)cc1

>  <Energy>  (17) 
66.40583530787342

>  <Genealogy>  (17) 
COc1ccc(C(O)CCC[NH+]2CCN(c3ccccc3)CC2)cc1 (protonated)
COc1ccc([C@H](O)CCC[NH+]2CCN(c3ccccc3)CC2)cc1 (chirality)
COc1ccc([C@H](O)CCC[NH+]2CCN(c3ccccc3)CC2)cc1 (3D coordinates assigned)
COc1ccc([C@H](O)CCC[NH+]2CCN(c3ccccc3)CC2)cc1 (nonaromatic ring conformer: 66.40583530787342 kcal/mol)

>  <smiles>  (17) 
COc1ccc(C(O)CCCN2CCN(c3ccccc3)CC2)cc1

>  <score_type>  (17) 
oracle

>  <origin>  (17) 
adg

>  <m_score__min__energy>  (17) 
-6.79

>  <m_primary>  (17) 
energy

$$$$
17:0
     RDKit          3D

 34 37  0  0  0  0  0  0  0  0999 V2000
   57.6700   34.2160   44.6510 C   0  0  0  0  0  0  0  0  0  0  0  0
   57.0370   33.4330   45.6170 C   0  0  0  0  0  0  0  0  0  0  0  0
   57.6840   33.1490   46.8240 C   0  0  0  0  0  0  0  0  0  0  0  0
   58.9720   33.6550   47.0810 C   0  0  0  0  0  0  0  0  0  0  0  0
   59.6470   33.3370   48.3660 C   0  0  0  0  0  0  0  0  0  0  0  0
   61.0370   33.4590   48.5230 C   0  0  0  0  0  0  0  0  0  0  0  0
   61.6120   33.1430   49.7640 C   0  0  0  0  0  0  0  0  0  0  0  0
   63.0670   33.2450   50.0030 C   0  0  0  0  0  0  0  0  0  0  0  0
   63.7140   33.8950   51.0550 C   0  0  0  0  0  0  0  0  0  0  0  0
   65.1100   33.8080   50.9870 C   0  0  0  0  0  0  0  0  0  0  0  0
   65.5750   33.0960   49.8910 C   0  0  0  0  0  0  0  0  0  0  0  0
   64.2460   32.5750   49.0050 S   0  0  0  0  0  0  0  0  0  0  0  0
   60.8070   32.7400   50.7810 N   0  0  0  0  0  0  0  0  0  0  0  0
   59.4610   32.6350   50.6260 C   0  0  0  0  0  0  0  0  0  0  0  0
   58.6190   32.2000   51.7480 C   0  0  0  0  0  0  0  0  0  0  0  0
   58.8090   32.5200   53.0890 C   0  0  0  0  0  0  0  0  0  0  0  0
   57.8420   31.9600   53.9320 C   0  0  0  0  0  0  0  0  0  0  0  0
   56.8890   31.2020   53.2640 C   0  0  0  0  0  0  0  0  0  0  0  0
   57.2520   31.2270   51.6220 S   0  0  0  0  0  0  0  0  0  0  0  0
   58.8970   32.9330   49.4280 N   0  0  0  0  0  0  0  0  0  0  0  0
   59.6050   34.4340   46.0920 C   0  0  0  0  0  0  0  0  0  0  0  0
   58.9530   34.7140   44.8860 C   0  0  0  0  0  0  0  0  0  0  0  0
   57.1579   34.4410   43.7038 H   0  0  0  0  0  0  0  0  0  0  0  0
   56.0275   33.0385   45.4290 H   0  0  0  0  0  0  0  0  0  0  0  0
   57.1823   32.5252   47.5784 H   0  0  0  0  0  0  0  0  0  0  0  0
   61.6658   33.7971   47.6862 H   0  0  0  0  0  0  0  0  0  0  0  0
   63.1800   34.4236   51.8584 H   0  0  0  0  0  0  0  0  0  0  0  0
   65.7769   34.2627   51.7343 H   0  0  0  0  0  0  0  0  0  0  0  0
   66.6301   32.9057   49.6449 H   0  0  0  0  0  0  0  0  0  0  0  0
   59.6357   33.1495   53.4500 H   0  0  0  0  0  0  0  0  0  0  0  0
   57.8373   32.1066   55.0222 H   0  0  0  0  0  0  0  0  0  0  0  0
   56.0423   30.6758   53.7290 H   0  0  0  0  0  0  0  0  0  0  0  0
   60.6180   34.8244   46.2691 H   0  0  0  0  0  0  0  0  0  0  0  0
   59.4522   35.3276   44.1216 H   0  0  0  0  0  0  0  0  0  0  0  0
  1  2  2  0
  2  3  1  0
  3  4  2  0
  4  5  1  0
  5  6  2  0
  6  7  1  0
  7  8  1  0
  8  9  2  0
  9 10  1  0
 10 11  2  0
 11 12  1  0
  7 13  2  0
 13 14  1  0
 14 15  1  0
 15 16  2  0
 16 17  1  0
 17 18  2  0
 18 19  1  0
 14 20  2  0
  4 21  1  0
 21 22  2  0
 22  1  1  0
 20  5  1  0
 12  8  1  0
 19 15  1  0
  1 23  1  0
  2 24  1  0
  3 25  1  0
  6 26  1  0
  9 27  1  0
 10 28  1  0
 11 29  1  0
 16 30  1  0
 17 31  1  0
 18 32  1  0
 21 33  1  0
 22 34  1  0
M  END
>  <UniqueID>  (18) 
15

>  <SMILES>  (18) 
c1ccc(-c2cc(-c3cccs3)nc(-c3cccs3)n2)cc1

>  <Energy>  (18) 
95.46084141975582

>  <Genealogy>  (18) 
c1ccc(-c2cc(-c3cccs3)nc(-c3cccs3)n2)cc1 (3D coordinates assigned)
c1ccc(-c2cc(-c3cccs3)nc(-c3cccs3)n2)cc1 (optimized conformer: 95.46084141975582 kcal/mol)

>  <smiles>  (18) 
c1ccc(-c2cc(-c3cccs3)nc(-c3cccs3)n2)cc1

>  <score_type>  (18) 
oracle

>  <origin>  (18) 
adg

>  <m_score__min__energy>  (18) 
-6.5999999999999996

>  <m_primary>  (18) 
energy

$$$$
18:0
     RDKit          3D

 47 50  0  0  0  0  0  0  0  0999 V2000
   56.8540   20.7710   42.9230 C   0  0  0  0  0  0  0  0  0  0  0  0
   56.1830   21.8160   43.7140 N   0  0  0  0  0  0  0  0  0  0  0  0
   56.0570   21.3660   45.1110 C   0  0  0  0  0  0  0  0  0  0  0  0
   56.9440   23.0820   43.6190 C   0  0  0  0  0  0  0  0  0  0  0  0
   56.1260   24.2760   44.1280 C   0  0  0  0  0  0  0  0  0  0  0  0
   56.8410   24.9660   45.1970 N   0  0  0  0  0  0  0  0  0  0  0  0
   56.4010   26.1700   45.8350 C   0  0  0  0  0  0  0  0  0  0  0  0
   55.1670   26.3420   46.0180 O   0  0  0  0  0  0  0  0  0  0  0  0
   57.3400   27.2330   46.2440 C   0  0  0  0  0  0  0  0  0  0  0  0
   58.4210   26.9470   47.1200 C   0  0  0  0  0  0  0  0  0  0  0  0
   59.3130   27.9600   47.5210 C   0  0  0  0  0  0  0  0  0  0  0  0
   59.0910   29.2500   47.0470 C   0  0  0  0  0  0  0  0  0  0  0  0
   59.8040   30.3330   47.3000 O   0  0  0  0  0  0  0  0  0  0  0  0
   59.2250   31.3260   46.6480 C   0  0  0  0  0  0  0  0  0  0  0  0
   59.6040   32.6710   46.5850 C   0  0  0  0  0  0  0  0  0  0  0  0
   60.7850   33.1900   47.3160 C   0  0  0  0  0  0  0  0  0  0  0  0
   62.0700   33.1230   46.7450 C   0  0  0  0  0  0  0  0  0  0  0  0
   63.1810   33.6130   47.4390 C   0  0  0  0  0  0  0  0  0  0  0  0
   63.0220   34.1710   48.7100 C   0  0  0  0  0  0  0  0  0  0  0  0
   61.7530   34.2390   49.2890 C   0  0  0  0  0  0  0  0  0  0  0  0
   60.6390   33.7510   48.5990 C   0  0  0  0  0  0  0  0  0  0  0  0
   58.8050   33.5160   45.7790 C   0  0  0  0  0  0  0  0  0  0  0  0
   57.6830   32.9970   45.0920 C   0  0  0  0  0  0  0  0  0  0  0  0
   57.3550   31.6750   45.1910 N   0  0  0  0  0  0  0  0  0  0  0  0
   58.1260   30.8720   45.9620 C   0  0  0  0  0  0  0  0  0  0  0  0
   58.0290   29.5320   46.2150 C   0  0  0  0  0  0  0  0  0  0  0  0
   57.1300   28.5570   45.7960 C   0  0  0  0  0  0  0  0  0  0  0  0
   57.3221   20.0419   43.6007 H   0  0  0  0  0  0  0  0  0  0  0  0
   56.1148   20.2599   42.2887 H   0  0  0  0  0  0  0  0  0  0  0  0
   57.6263   21.2305   42.2887 H   0  0  0  0  0  0  0  0  0  0  0  0
   56.2908   22.2011   45.7877 H   0  0  0  0  0  0  0  0  0  0  0  0
   55.0282   21.0226   45.2942 H   0  0  0  0  0  0  0  0  0  0  0  0
   56.7579   20.5383   45.2942 H   0  0  0  0  0  0  0  0  0  0  0  0
   57.8593   22.9938   44.2227 H   0  0  0  0  0  0  0  0  0  0  0  0
   57.1852   23.2582   42.5603 H   0  0  0  0  0  0  0  0  0  0  0  0
   55.9524   24.9763   43.2977 H   0  0  0  0  0  0  0  0  0  0  0  0
   55.1664   23.9087   44.5208 H   0  0  0  0  0  0  0  0  0  0  0  0
   58.5631   25.9209   47.4899 H   0  0  0  0  0  0  0  0  0  0  0  0
   60.1591   27.7389   48.1882 H   0  0  0  0  0  0  0  0  0  0  0  0
   62.2012   32.6821   45.7458 H   0  0  0  0  0  0  0  0  0  0  0  0
   64.1809   33.5590   46.9837 H   0  0  0  0  0  0  0  0  0  0  0  0
   63.8964   34.5568   49.2546 H   0  0  0  0  0  0  0  0  0  0  0  0
   61.6295   34.6775   50.2902 H   0  0  0  0  0  0  0  0  0  0  0  0
   59.6424   33.8058   49.0615 H   0  0  0  0  0  0  0  0  0  0  0  0
   59.0579   34.5825   45.6862 H   0  0  0  0  0  0  0  0  0  0  0  0
   57.0680   33.6652   44.4713 H   0  0  0  0  0  0  0  0  0  0  0  0
   56.2845   28.8077   45.1385 H   0  0  0  0  0  0  0  0  0  0  0  0
  1  2  1  0
  2  3  1  0
  2  4  1  0
  4  5  1  0
  5  6  1  0
  6  7  1  0
  7  8  2  0
  7  9  1  0
  9 10  2  0
 10 11  1  0
 11 12  2  0
 12 13  1  0
 13 14  1  0
 14 15  2  0
 15 16  1  0
 16 17  2  0
 17 18  1  0
 18 19  2  0
 19 20  1  0
 20 21  2  0
 15 22  1  0
 22 23  2  0
 23 24  1  0
 24 25  2  0
 25 26  1  0
 26 27  2  0
 27  9  1  0
 26 12  1  0
 25 14  1  0
 21 16  1  0
  1 28  1  0
  1 29  1  0
  1 30  1  0
  3 31  1  0
  3 32  1  0
  3 33  1  0
  4 34  1  0
  4 35  1  0
  5 36  1  0
  5 37  1  0
 10 38  1  0
 11 39  1  0
 17 40  1  0
 18 41  1  0
 19 42  1  0
 20 43  1  0
 21 44  1  0
 22 45  1  0
 23 46  1  0
 27 47  1  0
M  CHG  1   6  -1
M  END
>  <UniqueID>  (19) 
16

>  <SMILES>  (19) 
CN(C)CC[N-]C(=O)c1ccc2oc3c(-c4ccccc4)ccnc3c2c1

>  <Energy>  (19) 
104.52111942498121

>  <Genealogy>  (19) 
CN(C)CC[N-]C(=O)c1ccc2oc3c(-c4ccccc4)ccnc3c2c1 (protonated)
CN(C)CC[N-]C(=O)c1ccc2oc3c(-c4ccccc4)ccnc3c2c1 (3D coordinates assigned)
CN(C)CC[N-]C(=O)c1ccc2oc3c(-c4ccccc4)ccnc3c2c1 (optimized conformer: 104.52111942498121 kcal/mol)

>  <smiles>  (19) 
CN(C)CCNC(=O)c1ccc2oc3c(-c4ccccc4)ccnc3c2c1

>  <score_type>  (19) 
oracle

>  <origin>  (19) 
adg

>  <m_score__min__energy>  (19) 
-10.33

>  <m_primary>  (19) 
energy

$$$$
19:0
     RDKit          3D

 56 58  0  0  0  0  0  0  0  0999 V2000
   55.1550   29.7330   43.5710 C   0  0  0  0  0  0  0  0  0  0  0  0
   55.3480   28.9840   44.7670 O   0  0  0  0  0  0  0  0  0  0  0  0
   56.5970   28.5520   45.2400 C   0  0  0  0  0  0  0  0  0  0  0  0
   57.7600   29.3310   45.0920 C   0  0  0  0  0  0  0  0  0  0  0  0
   58.9880   28.8630   45.5620 C   0  0  0  0  0  0  0  0  0  0  0  0
   59.0780   27.6130   46.1900 C   0  0  0  0  0  0  0  0  0  0  0  0
   60.4150   27.0840   46.6510 C   0  0  0  0  0  0  0  0  0  0  0  0
   60.4010   26.7130   48.1420 C   0  0  0  0  0  0  0  0  0  0  0  0
   60.0070   27.8480   48.9790 N   0  0  0  0  0  0  0  0  0  0  0  0
   60.3940   29.1920   48.6550 C   0  0  0  0  0  0  0  0  0  0  0  0
   61.1670   29.3990   47.6790 O   0  0  0  0  0  0  0  0  0  0  0  0
   59.8660   30.3440   49.4330 C   0  0  0  0  0  0  0  0  0  0  0  0
   59.8700   31.6330   48.8790 C   0  0  0  0  0  0  0  0  0  0  0  0
   59.4860   32.7300   49.6060 N   0  0  0  0  0  0  0  0  0  0  0  0
   59.6410   34.0490   48.9590 C   0  0  0  0  0  0  0  0  0  0  0  0
   59.0770   34.0150   47.5590 C   0  0  0  0  0  0  0  0  0  0  0  0
   59.7970   34.5760   46.4920 C   0  0  0  0  0  0  0  0  0  0  0  0
   59.3010   34.4970   45.1870 C   0  0  0  0  0  0  0  0  0  0  0  0
   58.0860   33.8540   44.9370 C   0  0  0  0  0  0  0  0  0  0  0  0
   57.3660   33.2850   45.9900 C   0  0  0  0  0  0  0  0  0  0  0  0
   57.8590   33.3620   47.2970 C   0  0  0  0  0  0  0  0  0  0  0  0
   59.0070   32.5760   50.8900 C   0  0  0  0  0  0  0  0  0  0  0  0
   58.5150   33.7460   51.7090 C   0  0  0  0  0  0  0  0  0  0  0  0
   58.9450   31.2960   51.4600 C   0  0  0  0  0  0  0  0  0  0  0  0
   59.3840   30.1850   50.7430 C   0  0  0  0  0  0  0  0  0  0  0  0
   59.3570   29.0500   51.2910 O   0  0  0  0  0  0  0  0  0  0  0  0
   57.9190   26.8390   46.3490 C   0  0  0  0  0  0  0  0  0  0  0  0
   56.6760   27.3030   45.8750 C   0  0  0  0  0  0  0  0  0  0  0  0
   55.4980   26.5520   46.0140 O   0  0  0  0  0  0  0  0  0  0  0  0
   55.3630   25.1850   45.6340 C   0  0  0  0  0  0  0  0  0  0  0  0
   54.8880   30.7691   43.8263 H   0  0  0  0  0  0  0  0  0  0  0  0
   56.0837   29.7283   42.9815 H   0  0  0  0  0  0  0  0  0  0  0  0
   54.3442   29.2801   42.9815 H   0  0  0  0  0  0  0  0  0  0  0  0
   57.7007   30.3145   44.6030 H   0  0  0  0  0  0  0  0  0  0  0  0
   59.8910   29.4790   45.4388 H   0  0  0  0  0  0  0  0  0  0  0  0
   60.6646   26.1879   46.0639 H   0  0  0  0  0  0  0  0  0  0  0  0
   61.1642   27.8759   46.5037 H   0  0  0  0  0  0  0  0  0  0  0  0
   59.6875   25.8905   48.2980 H   0  0  0  0  0  0  0  0  0  0  0  0
   61.4190   26.4118   48.4299 H   0  0  0  0  0  0  0  0  0  0  0  0
   59.3600   27.6850   49.7810 H   0  0  0  0  0  0  0  0  0  0  0  0
   60.1893   31.7668   47.8349 H   0  0  0  0  0  0  0  0  0  0  0  0
   59.1046   34.8075   49.5481 H   0  0  0  0  0  0  0  0  0  0  0  0
   60.7110   34.2991   48.9079 H   0  0  0  0  0  0  0  0  0  0  0  0
   60.7558   35.0800   46.6836 H   0  0  0  0  0  0  0  0  0  0  0  0
   59.8682   34.9417   44.3560 H   0  0  0  0  0  0  0  0  0  0  0  0
   57.6961   33.7958   43.9101 H   0  0  0  0  0  0  0  0  0  0  0  0
   56.4111   32.7762   45.7916 H   0  0  0  0  0  0  0  0  0  0  0  0
   57.2915   32.9098   48.1237 H   0  0  0  0  0  0  0  0  0  0  0  0
   58.6135   33.5117   52.7792 H   0  0  0  0  0  0  0  0  0  0  0  0
   59.1145   34.6373   51.4721 H   0  0  0  0  0  0  0  0  0  0  0  0
   57.4587   33.9410   51.4721 H   0  0  0  0  0  0  0  0  0  0  0  0
   58.5479   31.1687   52.4779 H   0  0  0  0  0  0  0  0  0  0  0  0
   57.9812   25.8608   46.8483 H   0  0  0  0  0  0  0  0  0  0  0  0
   55.3011   24.5581   46.5358 H   0  0  0  0  0  0  0  0  0  0  0  0
   54.4481   25.0592   45.0365 H   0  0  0  0  0  0  0  0  0  0  0  0
   56.2357   24.8826   45.0365 H   0  0  0  0  0  0  0  0  0  0  0  0
  1  2  1  0
  2  3  1  0
  3  4  2  0
  4  5  1  0
  5  6  2  0
  6  7  1  0
  7  8  1  0
  8  9  1  0
  9 10  1  0
 10 11  2  0
 10 12  1  0
 12 13  2  0
 13 14  1  0
 14 15  1  0
 15 16  1  0
 16 17  2  0
 17 18  1  0
 18 19  2  0
 19 20  1  0
 20 21  2  0
 14 22  1  0
 22 23  1  0
 22 24  2  0
 24 25  1  0
 25 26  2  0
  6 27  1  0
 27 28  2  0
 28 29  1  0
 29 30  1  0
 28  3  1  0
 25 12  1  0
 21 16  1  0
  1 31  1  0
  1 32  1  0
  1 33  1  0
  4 34  1  0
  5 35  1  0
  7 36  1  0
  7 37  1  0
  8 38  1  0
  8 39  1  0
  9 40  1  0
 13 41  1  0
 15 42  1  0
 15 43  1  0
 17 44  1  0
 18 45  1  0
 19 46  1  0
 20 47  1  0
 21 48  1  0
 23 49  1  0
 23 50  1  0
 23 51  1  0
 24 52  1  0
 27 53  1  0
 30 54  1  0
 30 55  1  0
 30 56  1  0
M  END
>  <UniqueID>  (20) 
17

>  <SMILES>  (20) 
COc1ccc(CCNC(=O)c2cn(Cc3ccccc3)c(C)cc2=O)cc1OC

>  <Energy>  (20) 
57.9237575340279

>  <Genealogy>  (20) 
COc1ccc(CCNC(=O)c2cn(Cc3ccccc3)c(C)cc2=O)cc1OC (3D coordinates assigned)
COc1ccc(CCNC(=O)c2cn(Cc3ccccc3)c(C)cc2=O)cc1OC (optimized conformer: 57.9237575340279 kcal/mol)

>  <smiles>  (20) 
COc1ccc(CCNC(=O)c2cn(Cc3ccccc3)c(C)cc2=O)cc1OC

>  <score_type>  (20) 
oracle

>  <origin>  (20) 
adg

>  <m_score__min__energy>  (20) 
-9.5700000000000003

>  <m_primary>  (20) 
energy

$$$$
20:0
     RDKit          3D

 31 33  0  0  0  0  0  0  0  0999 V2000
   56.0330   23.7660   46.5330 C   0  0  0  0  0  0  0  0  0  0  0  0
   56.2600   25.0390   47.1310 O   0  0  0  0  0  0  0  0  0  0  0  0
   57.2210   25.9700   46.6980 C   0  0  0  0  0  0  0  0  0  0  0  0
   58.5710   25.8260   47.0630 C   0  0  0  0  0  0  0  0  0  0  0  0
   59.6850   26.9690   46.5190 S   0  0  0  0  0  0  0  0  0  0  0  0
   58.9590   28.1570   45.5660 C   0  0  0  0  0  0  0  0  0  0  0  0
   59.7620   29.2980   45.0170 C   0  0  0  0  0  0  0  0  0  0  0  0
   58.8770   30.4070   44.6670 N   0  0  0  0  0  0  0  0  0  0  0  0
   58.1320   30.4690   43.5680 N   0  0  0  0  0  0  0  0  0  0  0  0
   57.3580   31.5520   43.5530 N   0  0  0  0  0  0  0  0  0  0  0  0
   57.6290   32.1940   44.7050 C   0  0  0  0  0  0  0  0  0  0  0  0
   57.0780   33.3740   45.1960 C   0  0  0  0  0  0  0  0  0  0  0  0
   57.5230   33.8220   46.4550 C   0  0  0  0  0  0  0  0  0  0  0  0
   58.4910   33.0860   47.1800 C   0  0  0  0  0  0  0  0  0  0  0  0
   59.0260   31.8940   46.6530 C   0  0  0  0  0  0  0  0  0  0  0  0
   58.5630   31.4860   45.4020 C   0  0  0  0  0  0  0  0  0  0  0  0
   57.5790   28.0710   45.3670 C   0  0  0  0  0  0  0  0  0  0  0  0
   56.7600   27.0450   45.8930 C   0  0  0  0  0  0  0  0  0  0  0  0
   55.5300   27.0940   45.6230 O   0  0  0  0  0  0  0  0  0  0  0  0
   55.8982   23.0098   47.3204 H   0  0  0  0  0  0  0  0  0  0  0  0
   55.1286   23.8103   45.9084 H   0  0  0  0  0  0  0  0  0  0  0  0
   56.8970   23.4950   45.9084 H   0  0  0  0  0  0  0  0  0  0  0  0
   58.8946   24.9834   47.6918 H   0  0  0  0  0  0  0  0  0  0  0  0
   60.4846   29.6336   45.7755 H   0  0  0  0  0  0  0  0  0  0  0  0
   60.2967   28.9635   44.1158 H   0  0  0  0  0  0  0  0  0  0  0  0
   58.1380   29.7510   42.8100 H   0  0  0  0  0  0  0  0  0  0  0  0
   56.3246   33.9347   44.6233 H   0  0  0  0  0  0  0  0  0  0  0  0
   57.1150   34.7516   46.8785 H   0  0  0  0  0  0  0  0  0  0  0  0
   58.8281   33.4477   48.1626 H   0  0  0  0  0  0  0  0  0  0  0  0
   59.7771   31.3097   47.2047 H   0  0  0  0  0  0  0  0  0  0  0  0
   57.0976   28.8529   44.7612 H   0  0  0  0  0  0  0  0  0  0  0  0
  1  2  1  0
  2  3  1  0
  3  4  2  0
  4  5  1  0
  5  6  1  0
  6  7  1  0
  7  8  1  0
  8  9  1  0
  9 10  2  0
 10 11  1  0
 11 12  2  0
 12 13  1  0
 13 14  2  0
 14 15  1  0
 15 16  2  0
  6 17  2  0
 17 18  1  0
 18 19  2  0
 18  3  1  0
 16  8  1  0
 16 11  1  0
  1 20  1  0
  1 21  1  0
  1 22  1  0
  4 23  1  0
  7 24  1  0
  7 25  1  0
  9 26  1  0
 12 27  1  0
 13 28  1  0
 14 29  1  0
 15 30  1  0
 17 31  1  0
M  CHG  1   9   1
M  END
>  <UniqueID>  (21) 
18

>  <SMILES>  (21) 
COc1csc(Cn2[nH+]nc3ccccc32)cc1=O

>  <Energy>  (21) 
78.55335831565193

>  <Genealogy>  (21) 
COc1csc(Cn2[nH+]nc3ccccc32)cc1=O (protonated)
COc1csc(Cn2[nH+]nc3ccccc32)cc1=O (3D coordinates assigned)
COc1csc(Cn2[nH+]nc3ccccc32)cc1=O (optimized conformer: 78.55335831565193 kcal/mol)

>  <smiles>  (21) 
COc1csc(Cn2nnc3ccccc32)cc1=O

>  <score_type>  (21) 
oracle

>  <origin>  (21) 
adg

>  <m_score__min__energy>  (21) 
-6.0899999999999999

>  <m_primary>  (21) 
energy

$$$$
21:0
     RDKit          3D

 39 41  0  0  0  0  0  0  0  0999 V2000
   56.2720   25.4240   47.0850 O   0  0  0  0  0  0  0  0  0  0  0  0
   55.8790   26.2310   46.2020 C   0  0  0  0  0  0  0  0  0  0  0  0
   54.5200   26.3440   45.9370 O   0  0  0  0  0  0  0  0  0  0  0  0
   56.8440   27.0680   45.4700 C   0  0  0  0  0  0  0  0  0  0  0  0
   57.8340   26.5250   44.9150 O   0  0  0  0  0  0  0  0  0  0  0  0
   56.6300   28.4760   45.2910 N   0  0  0  0  0  0  0  0  0  0  0  0
   57.4190   29.4480   45.6590 C   0  0  0  0  0  0  0  0  0  0  0  0
   57.5780   30.6240   44.9040 C   0  0  0  0  0  0  0  0  0  0  0  0
   58.4260   31.6410   45.3630 C   0  0  0  0  0  0  0  0  0  0  0  0
   59.1270   31.4710   46.5780 C   0  0  0  0  0  0  0  0  0  0  0  0
   58.9210   30.2830   47.3170 C   0  0  0  0  0  0  0  0  0  0  0  0
   59.5760   30.0350   48.6140 C   0  0  0  0  0  0  0  0  0  0  0  0
   60.5230   29.0050   48.7380 C   0  0  0  0  0  0  0  0  0  0  0  0
   61.1290   28.7560   49.9730 C   0  0  0  0  0  0  0  0  0  0  0  0
   60.7870   29.5230   51.0900 C   0  0  0  0  0  0  0  0  0  0  0  0
   61.3750   29.2800   52.2880 F   0  0  0  0  0  0  0  0  0  0  0  0
   59.8340   30.5410   50.9740 C   0  0  0  0  0  0  0  0  0  0  0  0
   59.2240   30.7950   49.7400 C   0  0  0  0  0  0  0  0  0  0  0  0
   58.3030   31.7870   49.6430 F   0  0  0  0  0  0  0  0  0  0  0  0
   58.0790   29.3290   46.8390 N   0  0  0  0  0  0  0  0  0  0  0  0
   59.9580   32.6200   47.1100 C   0  0  0  0  0  0  0  0  0  0  0  0
   59.0880   33.8490   47.4340 C   0  0  0  0  0  0  0  0  0  0  0  0
   58.8830   34.7620   46.2910 N   0  0  0  0  0  0  0  0  0  0  0  0
   58.0230   34.2020   45.2300 C   0  0  0  0  0  0  0  0  0  0  0  0
   58.5730   32.9160   44.5520 C   0  0  0  0  0  0  0  0  0  0  0  0
   57.0371   30.7454   43.9539 H   0  0  0  0  0  0  0  0  0  0  0  0
   60.7880   28.3938   47.8627 H   0  0  0  0  0  0  0  0  0  0  0  0
   61.8767   27.9545   50.0657 H   0  0  0  0  0  0  0  0  0  0  0  0
   59.5637   31.1428   51.8542 H   0  0  0  0  0  0  0  0  0  0  0  0
   60.4710   32.2945   48.0270 H   0  0  0  0  0  0  0  0  0  0  0  0
   60.6828   32.9075   46.3341 H   0  0  0  0  0  0  0  0  0  0  0  0
   58.1036   33.4952   47.7742 H   0  0  0  0  0  0  0  0  0  0  0  0
   59.6237   34.4220   48.2051 H   0  0  0  0  0  0  0  0  0  0  0  0
   59.8240   34.9470   45.8720 H   0  0  0  0  0  0  0  0  0  0  0  0
   58.5230   35.6910   46.6150 H   0  0  0  0  0  0  0  0  0  0  0  0
   57.0452   33.9629   45.6735 H   0  0  0  0  0  0  0  0  0  0  0  0
   57.9684   34.9670   44.4415 H   0  0  0  0  0  0  0  0  0  0  0  0
   58.0374   32.7776   43.6012 H   0  0  0  0  0  0  0  0  0  0  0  0
   59.6545   33.0755   44.4297 H   0  0  0  0  0  0  0  0  0  0  0  0
  1  2  2  0
  2  3  1  0
  2  4  1  0
  4  5  2  0
  4  6  1  0
  6  7  2  3
  7  8  1  0
  8  9  2  0
  9 10  1  0
 10 11  2  0
 11 12  1  0
 12 13  2  0
 13 14  1  0
 14 15  2  0
 15 16  1  0
 15 17  1  0
 17 18  2  0
 18 19  1  0
 11 20  1  0
 10 21  1  0
 21 22  1  0
 22 23  1  0
 23 24  1  0
 24 25  1  0
 20  7  1  0
 25  9  1  0
 18 12  1  0
  8 26  1  0
 13 27  1  0
 14 28  1  0
 17 29  1  0
 21 30  1  0
 21 31  1  0
 22 32  1  0
 22 33  1  0
 23 34  1  0
 23 35  1  0
 24 36  1  0
 24 37  1  0
 25 38  1  0
 25 39  1  0
M  CHG  3   3  -1  20  -1  23   1
M  END
>  <UniqueID>  (22) 
19

>  <SMILES>  (22) 
O=C([O-])C(=O)N=c1cc2c(c(-c3ccc(F)cc3F)[n-]1)CC[NH2+]CC2

>  <Energy>  (22) 
69.59345476705288

>  <Genealogy>  (22) 
O=C([O-])C(=O)N=c1cc2c(c(-c3ccc(F)cc3F)[n-]1)CC[NH2+]CC2 (protonated)
O=C([O-])C(=O)N=c1cc2c(c(-c3ccc(F)cc3F)[n-]1)CC[NH2+]CC2 (3D coordinates assigned)
O=C([O-])C(=O)N=c1cc2c(c(-c3ccc(F)cc3F)[n-]1)CC[NH2+]CC2 (nonaromatic ring conformer: 69.59345476705288 kcal/mol)

>  <smiles>  (22) 
O=C(O)C(=O)N=c1cc2c(c(-c3ccc(F)cc3F)[nH]1)CCNCC2

>  <score_type>  (22) 
oracle

>  <origin>  (22) 
adg

>  <m_score__min__energy>  (22) 
-8.25

>  <m_primary>  (22) 
energy

$$$$
22:0
     RDKit          3D

 31 32  0  0  0  0  0  0  0  0999 V2000
   58.6500   27.4180   47.0830 O   0  0  0  0  0  0  0  0  0  0  0  0
   58.0780   26.7880   46.1520 C   0  0  0  0  0  0  0  0  0  0  0  0
   58.0190   25.2920   46.2050 C   0  0  0  0  0  0  0  0  0  0  0  0
   57.3760   24.7350   44.9350 C   0  0  0  0  0  0  0  0  0  0  0  0
   55.9800   24.3860   45.1860 N   0  0  0  0  0  0  0  0  0  0  0  0
   55.3550   23.1130   44.8610 C   0  0  0  0  0  0  0  0  0  0  0  0
   53.8660   23.2730   45.2530 C   0  0  0  0  0  0  0  0  0  0  0  0
   53.7020   24.6470   45.7200 N   0  0  0  0  0  0  0  0  0  0  0  0
   54.9730   25.2530   45.6610 C   0  0  0  0  0  0  0  0  0  0  0  0
   55.1780   26.4520   45.9850 O   0  0  0  0  0  0  0  0  0  0  0  0
   57.4120   27.4950   45.0960 N   0  0  0  0  0  0  0  0  0  0  0  0
   57.5130   28.9150   44.9060 C   0  0  0  0  0  0  0  0  0  0  0  0
   58.7540   29.5440   45.0800 C   0  0  0  0  0  0  0  0  0  0  0  0
   58.8770   30.9280   44.9160 C   0  0  0  0  0  0  0  0  0  0  0  0
   57.7550   31.6960   44.5930 C   0  0  0  0  0  0  0  0  0  0  0  0
   57.8750   33.0370   44.4350 F   0  0  0  0  0  0  0  0  0  0  0  0
   56.5080   31.0820   44.4440 C   0  0  0  0  0  0  0  0  0  0  0  0
   56.3800   29.6990   44.6070 C   0  0  0  0  0  0  0  0  0  0  0  0
   55.1480   29.1370   44.5210 F   0  0  0  0  0  0  0  0  0  0  0  0
   59.0397   24.8928   46.2987 H   0  0  0  0  0  0  0  0  0  0  0  0
   57.4123   24.9909   47.0718 H   0  0  0  0  0  0  0  0  0  0  0  0
   57.4232   25.4947   44.1409 H   0  0  0  0  0  0  0  0  0  0  0  0
   57.9209   23.8314   44.6242 H   0  0  0  0  0  0  0  0  0  0  0  0
   55.4491   22.9017   43.7856 H   0  0  0  0  0  0  0  0  0  0  0  0
   55.8303   22.2764   45.3941 H   0  0  0  0  0  0  0  0  0  0  0  0
   53.2221   23.0895   44.3802 H   0  0  0  0  0  0  0  0  0  0  0  0
   53.5821   22.5523   46.0341 H   0  0  0  0  0  0  0  0  0  0  0  0
   56.7150   26.9710   44.5200 H   0  0  0  0  0  0  0  0  0  0  0  0
   59.6371   28.9451   45.3473 H   0  0  0  0  0  0  0  0  0  0  0  0
   59.8570   31.4117   45.0413 H   0  0  0  0  0  0  0  0  0  0  0  0
   55.6243   31.6889   44.1977 H   0  0  0  0  0  0  0  0  0  0  0  0
  1  2  2  0
  2  3  1  0
  3  4  1  0
  4  5  1  0
  5  6  1  0
  6  7  1  0
  7  8  1  0
  8  9  1  0
  9 10  2  0
  2 11  1  0
 11 12  1  0
 12 13  2  0
 13 14  1  0
 14 15  2  0
 15 16  1  0
 15 17  1  0
 17 18  2  0
 18 19  1  0
  9  5  1  0
 18 12  1  0
  3 20  1  0
  3 21  1  0
  4 22  1  0
  4 23  1  0
  6 24  1  0
  6 25  1  0
  7 26  1  0
  7 27  1  0
 11 28  1  0
 13 29  1  0
 14 30  1  0
 17 31  1  0
M  CHG  1   8  -1
M  END
>  <UniqueID>  (23) 
20

>  <SMILES>  (23) 
O=C(CCN1CC[N-]C1=O)Nc1ccc(F)cc1F

>  <Energy>  (23) 
42.95933354191461

>  <Genealogy>  (23) 
O=C(CCN1CC[N-]C1=O)Nc1ccc(F)cc1F (protonated)
O=C(CCN1CC[N-]C1=O)Nc1ccc(F)cc1F (3D coordinates assigned)
O=C(CCN1CC[N-]C1=O)Nc1ccc(F)cc1F (nonaromatic ring conformer: 42.95933354191461 kcal/mol)

>  <smiles>  (23) 
O=C(CCN1CCNC1=O)Nc1ccc(F)cc1F

>  <score_type>  (23) 
oracle

>  <origin>  (23) 
adg

>  <m_score__min__energy>  (23) 
-8.4000000000000004

>  <m_primary>  (23) 
energy

$$$$
23:0
     RDKit          3D

 26 27  0  0  0  0  0  0  0  0999 V2000
   60.1070   29.8590   51.4420 C   0  0  0  0  0  0  0  0  0  0  0  0
   59.2710   30.2780   52.5140 O   0  0  0  0  0  0  0  0  0  0  0  0
   57.8710   30.1880   52.5100 C   0  0  0  0  0  0  0  0  0  0  0  0
   57.2740   29.0620   53.0870 C   0  0  0  0  0  0  0  0  0  0  0  0
   55.8840   28.9250   53.1050 C   0  0  0  0  0  0  0  0  0  0  0  0
   55.0660   29.9070   52.5290 C   0  0  0  0  0  0  0  0  0  0  0  0
   53.6370   29.7580   52.5870 N   0  0  0  0  0  0  0  0  0  0  0  0
   52.7070   30.5040   51.7840 C   0  0  0  0  0  0  0  0  0  0  0  0
   52.3320   30.0730   50.5020 C   0  0  0  0  0  0  0  0  0  0  0  0
   51.3970   30.8270   49.7910 C   0  0  0  0  0  0  0  0  0  0  0  0
   51.0450   30.4730   48.6360 O   0  0  0  0  0  0  0  0  0  0  0  0
   50.8610   31.9440   50.3480 N   0  0  0  0  0  0  0  0  0  0  0  0
   51.2180   32.3380   51.5980 C   0  0  0  0  0  0  0  0  0  0  0  0
   50.7050   33.3710   52.1010 O   0  0  0  0  0  0  0  0  0  0  0  0
   52.1270   31.6180   52.3060 N   0  0  0  0  0  0  0  0  0  0  0  0
   55.6610   31.0510   51.9700 C   0  0  0  0  0  0  0  0  0  0  0  0
   57.0520   31.1880   51.9530 C   0  0  0  0  0  0  0  0  0  0  0  0
   61.0212   29.4008   51.8474 H   0  0  0  0  0  0  0  0  0  0  0  0
   59.5707   29.1231   50.8248 H   0  0  0  0  0  0  0  0  0  0  0  0
   60.3756   30.7290   50.8248 H   0  0  0  0  0  0  0  0  0  0  0  0
   57.9048   28.2775   53.5305 H   0  0  0  0  0  0  0  0  0  0  0  0
   55.4282   28.0407   53.5743 H   0  0  0  0  0  0  0  0  0  0  0  0
   53.2420   29.0650   53.2610 H   0  0  0  0  0  0  0  0  0  0  0  0
   52.7657   29.1605   50.0669 H   0  0  0  0  0  0  0  0  0  0  0  0
   55.0283   31.8433   51.5433 H   0  0  0  0  0  0  0  0  0  0  0  0
   57.5086   32.0815   51.5022 H   0  0  0  0  0  0  0  0  0  0  0  0
  1  2  1  0
  2  3  1  0
  3  4  2  0
  4  5  1  0
  5  6  2  0
  6  7  1  0
  7  8  1  0
  8  9  2  0
  9 10  1  0
 10 11  2  0
 10 12  1  0
 12 13  1  0
 13 14  2  0
 13 15  1  0
  6 16  1  0
 16 17  2  0
 17  3  1  0
 15  8  1  0
  1 18  1  0
  1 19  1  0
  1 20  1  0
  4 21  1  0
  5 22  1  0
  7 23  1  0
  9 24  1  0
 16 25  1  0
 17 26  1  0
M  CHG  2  12  -1  15  -1
M  END
>  <UniqueID>  (24) 
21

>  <SMILES>  (24) 
COc1ccc(Nc2cc(=O)[n-]c(=O)[n-]2)cc1

>  <Energy>  (24) 
32.499455735479465

>  <Genealogy>  (24) 
COc1ccc(Nc2cc(=O)[n-]c(=O)[n-]2)cc1 (protonated)
COc1ccc(Nc2cc(=O)[n-]c(=O)[n-]2)cc1 (3D coordinates assigned)
COc1ccc(Nc2cc(=O)[n-]c(=O)[n-]2)cc1 (optimized conformer: 32.499455735479465 kcal/mol)

>  <smiles>  (24) 
COc1ccc(Nc2cc(=O)[nH]c(=O)[nH]2)cc1

>  <score_type>  (24) 
oracle

>  <origin>  (24) 
adg

>  <m_score__min__energy>  (24) 
-10.69

>  <m_primary>  (24) 
energy

$$$$
24:0
     RDKit          3D

 46 47  0  0  0  0  0  0  0  0999 V2000
   57.0970   26.6500   46.4760 C   0  0  0  0  0  0  0  0  0  0  0  0
   57.6670   27.9770   45.9570 C   0  0  1  0  0  0  0  0  0  0  0  0
   59.2140   27.9950   45.9390 C   0  0  0  0  0  0  0  0  0  0  0  0
   59.8710   29.3500   45.6010 C   0  0  0  0  0  0  0  0  0  0  0  0
   60.0310   30.2500   46.7990 C   0  0  0  0  0  0  0  0  0  0  0  0
   61.1600   31.0790   46.9160 C   0  0  0  0  0  0  0  0  0  0  0  0
   61.3030   31.9190   48.0240 C   0  0  0  0  0  0  0  0  0  0  0  0
   60.3260   31.9350   49.0240 C   0  0  0  0  0  0  0  0  0  0  0  0
   59.2050   31.1080   48.9180 C   0  0  0  0  0  0  0  0  0  0  0  0
   59.0570   30.2650   47.8120 C   0  0  0  0  0  0  0  0  0  0  0  0
   57.1360   28.2800   44.6270 N   0  0  0  0  0  0  0  0  0  0  0  0
   56.2450   29.3480   44.2740 C   0  0  0  0  0  0  0  0  0  0  0  0
   55.1410   29.4300   44.8760 O   0  0  0  0  0  0  0  0  0  0  0  0
   56.5910   30.3870   43.2360 C   0  0  0  0  0  0  0  0  0  0  0  0
   57.9060   31.1200   43.5490 C   0  0  0  0  0  0  0  0  0  0  0  0
   57.8070   32.6540   43.4520 C   0  0  0  0  0  0  0  0  0  0  0  0
   58.2030   33.3410   44.7350 C   0  0  0  0  0  0  0  0  0  0  0  0
   59.2550   34.2740   44.7470 C   0  0  0  0  0  0  0  0  0  0  0  0
   59.6410   34.8860   45.9430 C   0  0  0  0  0  0  0  0  0  0  0  0
   58.9760   34.5770   47.1330 C   0  0  0  0  0  0  0  0  0  0  0  0
   57.9250   33.6550   47.1290 C   0  0  0  0  0  0  0  0  0  0  0  0
   57.5390   33.0390   45.9350 C   0  0  0  0  0  0  0  0  0  0  0  0
   57.0992   26.6552   47.5760 H   0  0  0  0  0  0  0  0  0  0  0  0
   56.0664   26.5263   46.1120 H   0  0  0  0  0  0  0  0  0  0  0  0
   57.7168   25.8173   46.1120 H   0  0  0  0  0  0  0  0  0  0  0  0
   57.3456   28.7586   46.6612 H   0  0  0  0  0  0  0  0  0  0  0  0
   59.5657   27.6897   46.9355 H   0  0  0  0  0  0  0  0  0  0  0  0
   59.5091   27.3121   45.1287 H   0  0  0  0  0  0  0  0  0  0  0  0
   60.8660   29.1585   45.1728 H   0  0  0  0  0  0  0  0  0  0  0  0
   59.2071   29.8662   44.8920 H   0  0  0  0  0  0  0  0  0  0  0  0
   61.9331   31.0667   46.1335 H   0  0  0  0  0  0  0  0  0  0  0  0
   62.1863   32.5690   48.1094 H   0  0  0  0  0  0  0  0  0  0  0  0
   60.4399   32.5985   49.8939 H   0  0  0  0  0  0  0  0  0  0  0  0
   58.4374   31.1199   49.7059 H   0  0  0  0  0  0  0  0  0  0  0  0
   58.1755   29.6116   47.7347 H   0  0  0  0  0  0  0  0  0  0  0  0
   56.6882   29.8905   42.2592 H   0  0  0  0  0  0  0  0  0  0  0  0
   55.7850   31.1355   43.2320 H   0  0  0  0  0  0  0  0  0  0  0  0
   58.2133   30.8573   44.5720 H   0  0  0  0  0  0  0  0  0  0  0  0
   58.6367   30.7999   42.7916 H   0  0  0  0  0  0  0  0  0  0  0  0
   58.4718   33.0001   42.6469 H   0  0  0  0  0  0  0  0  0  0  0  0
   56.7567   32.9087   43.2471 H   0  0  0  0  0  0  0  0  0  0  0  0
   59.7765   34.5233   43.8111 H   0  0  0  0  0  0  0  0  0  0  0  0
   60.4683   35.6110   45.9477 H   0  0  0  0  0  0  0  0  0  0  0  0
   59.2799   35.0597   48.0736 H   0  0  0  0  0  0  0  0  0  0  0  0
   57.4015   33.4142   48.0660 H   0  0  0  0  0  0  0  0  0  0  0  0
   56.7114   32.3144   45.9354 H   0  0  0  0  0  0  0  0  0  0  0  0
  1  2  1  0
  2  3  1  0
  3  4  1  0
  4  5  1  0
  5  6  2  0
  6  7  1  0
  7  8  2  0
  8  9  1  0
  9 10  2  0
  2 11  1  0
 11 12  1  0
 12 13  2  0
 12 14  1  0
 14 15  1  0
 15 16  1  0
 16 17  1  0
 17 18  2  0
 18 19  1  0
 19 20  2  0
 20 21  1  0
 21 22  2  0
 10  5  1  0
 22 17  1  0
  1 23  1  0
  1 24  1  0
  1 25  1  0
  2 26  1  1
  3 27  1  0
  3 28  1  0
  4 29  1  0
  4 30  1  0
  6 31  1  0
  7 32  1  0
  8 33  1  0
  9 34  1  0
 10 35  1  0
 14 36  1  0
 14 37  1  0
 15 38  1  0
 15 39  1  0
 16 40  1  0
 16 41  1  0
 18 42  1  0
 19 43  1  0
 20 44  1  0
 21 45  1  0
 22 46  1  0
M  CHG  1  11  -1
M  END
>  <UniqueID>  (25) 
22

>  <SMILES>  (25) 
C[C@@H](CCc1ccccc1)[N-]C(=O)CCCc1ccccc1

>  <Energy>  (25) 
36.9561971686671

>  <Genealogy>  (25) 
CC(CCc1ccccc1)[N-]C(=O)CCCc1ccccc1 (protonated)
C[C@@H](CCc1ccccc1)[N-]C(=O)CCCc1ccccc1 (chirality)
C[C@@H](CCc1ccccc1)[N-]C(=O)CCCc1ccccc1 (3D coordinates assigned)
C[C@@H](CCc1ccccc1)[N-]C(=O)CCCc1ccccc1 (optimized conformer: 36.9561971686671 kcal/mol)

>  <smiles>  (25) 
CC(CCc1ccccc1)NC(=O)CCCc1ccccc1

>  <score_type>  (25) 
oracle

>  <origin>  (25) 
adg

>  <m_score__min__energy>  (25) 
-9.6500000000000004

>  <m_primary>  (25) 
energy

$$$$
25:0
     RDKit          3D

 73 79  0  0  0  0  0  0  0  0999 V2000
   57.0950   25.5020   45.2910 C   0  0  0  0  0  0  0  0  0  0  0  0
   56.5840   26.7090   45.8350 O   0  0  0  0  0  0  0  0  0  0  0  0
   57.3630   27.8400   46.1250 C   0  0  0  0  0  0  0  0  0  0  0  0
   58.4950   27.7720   46.9560 C   0  0  0  0  0  0  0  0  0  0  0  0
   59.2100   28.9260   47.2680 C   0  0  0  0  0  0  0  0  0  0  0  0
   58.7910   30.1880   46.8010 C   0  0  0  0  0  0  0  0  0  0  0  0
   59.5990   31.4290   47.2060 C   0  0  2  0  0  0  0  0  0  0  0  0
   59.4050   31.9090   48.6410 C   0  0  0  0  0  0  0  0  0  0  0  0
   58.3800   31.4390   49.5000 C   0  0  0  0  0  0  0  0  0  0  0  0
   58.3090   31.9670   50.7830 C   0  0  0  0  0  0  0  0  0  0  0  0
   59.1560   32.9330   51.2160 C   0  0  0  0  0  0  0  0  0  0  0  0
   60.1410   33.4710   50.3980 C   0  0  0  0  0  0  0  0  0  0  0  0
   60.2480   32.9780   49.0740 C   0  0  0  0  0  0  0  0  0  0  0  0
   61.2180   33.5800   48.0660 C   0  0  2  0  0  0  0  0  0  0  0  0
   61.7860   34.7750   48.5970 O   0  0  0  0  0  0  0  0  0  0  0  0
   63.1020   34.5930   49.0980 C   0  0  1  0  0  0  0  0  0  0  0  0
   63.1030   34.9620   50.4770 O   0  0  0  0  0  0  0  0  0  0  0  0
   64.0560   34.2530   51.2440 C   0  0  1  0  0  0  0  0  0  0  0  0
   64.1240   34.8740   52.6480 C   0  0  0  0  0  0  0  0  0  0  0  0
   64.2690   33.8800   53.6500 O   0  0  0  0  0  0  0  0  0  0  0  0
   63.1580   32.9820   53.6610 C   0  0  1  0  0  0  0  0  0  0  0  0
   62.0400   33.5220   54.5550 C   0  0  0  0  0  0  0  0  0  0  0  0
   62.6270   32.6860   52.3730 O   0  0  0  0  0  0  0  0  0  0  0  0
   63.6260   32.7790   51.3760 C   0  0  1  0  0  0  0  0  0  0  0  0
   63.0520   32.2480   50.0360 C   0  0  2  0  0  0  0  0  0  0  0  0
   63.3760   30.8960   49.8310 O   0  0  0  0  0  0  0  0  0  0  0  0
   63.4920   33.1100   48.8420 C   0  0  2  0  0  0  0  0  0  0  0  0
   64.8850   33.0100   48.6590 O   0  0  0  0  0  0  0  0  0  0  0  0
   60.4710   33.8330   46.7070 C   0  0  2  0  0  0  0  0  0  0  0  0
   59.6070   35.1270   46.7420 C   0  0  0  0  0  0  0  0  0  0  0  0
   58.2680   34.7120   46.5760 O   0  0  0  0  0  0  0  0  0  0  0  0
   58.1680   33.3620   46.3380 C   0  0  0  0  0  0  0  0  0  0  0  0
   57.0550   32.7920   46.1940 O   0  0  0  0  0  0  0  0  0  0  0  0
   59.4970   32.6780   46.2790 C   0  0  2  0  0  0  0  0  0  0  0  0
   58.8520   33.2660   52.5210 O   0  0  0  0  0  0  0  0  0  0  0  0
   57.7410   32.4570   52.9330 C   0  0  0  0  0  0  0  0  0  0  0  0
   57.4230   31.6470   51.7930 O   0  0  0  0  0  0  0  0  0  0  0  0
   57.7270   30.2280   45.8750 C   0  0  0  0  0  0  0  0  0  0  0  0
   56.9970   29.0660   45.5570 C   0  0  0  0  0  0  0  0  0  0  0  0
   55.8980   29.0930   44.6810 O   0  0  0  0  0  0  0  0  0  0  0  0
   55.9040   29.7050   43.3950 C   0  0  0  0  0  0  0  0  0  0  0  0
   57.3820   24.8240   46.1083 H   0  0  0  0  0  0  0  0  0  0  0  0
   56.3225   25.0230   44.6715 H   0  0  0  0  0  0  0  0  0  0  0  0
   57.9766   25.7233   44.6715 H   0  0  0  0  0  0  0  0  0  0  0  0
   58.8179   26.8020   47.3621 H   0  0  0  0  0  0  0  0  0  0  0  0
   60.1154   28.8512   47.8883 H   0  0  0  0  0  0  0  0  0  0  0  0
   60.6048   30.9987   47.0911 H   0  0  0  0  0  0  0  0  0  0  0  0
   57.6617   30.6783   49.1605 H   0  0  0  0  0  0  0  0  0  0  0  0
   60.8175   34.2560   50.7668 H   0  0  0  0  0  0  0  0  0  0  0  0
   62.0444   32.8810   47.8699 H   0  0  0  0  0  0  0  0  0  0  0  0
   63.8528   35.2236   48.5994 H   0  0  0  0  0  0  0  0  0  0  0  0
   65.0376   34.3080   50.7506 H   0  0  0  0  0  0  0  0  0  0  0  0
   64.9847   35.5573   52.6952 H   0  0  0  0  0  0  0  0  0  0  0  0
   63.1840   35.4148   52.8320 H   0  0  0  0  0  0  0  0  0  0  0  0
   63.5557   32.0376   54.0610 H   0  0  0  0  0  0  0  0  0  0  0  0
   62.3178   33.3878   55.6109 H   0  0  0  0  0  0  0  0  0  0  0  0
   61.8898   34.5919   54.3484 H   0  0  0  0  0  0  0  0  0  0  0  0
   61.1086   32.9745   54.3484 H   0  0  0  0  0  0  0  0  0  0  0  0
   64.5046   32.1745   51.6455 H   0  0  0  0  0  0  0  0  0  0  0  0
   61.9568   32.3208   50.1089 H   0  0  0  0  0  0  0  0  0  0  0  0
   64.1480   30.8550   49.2030 H   0  0  0  0  0  0  0  0  0  0  0  0
   62.9865   32.7496   47.9339 H   0  0  0  0  0  0  0  0  0  0  0  0
   65.1330   32.0550   48.7400 H   0  0  0  0  0  0  0  0  0  0  0  0
   61.2955   33.9097   45.9829 H   0  0  0  0  0  0  0  0  0  0  0  0
   59.7299   35.6414   47.7065 H   0  0  0  0  0  0  0  0  0  0  0  0
   59.9087   35.8315   45.9529 H   0  0  0  0  0  0  0  0  0  0  0  0
   59.7182   32.2509   45.2898 H   0  0  0  0  0  0  0  0  0  0  0  0
   58.0202   31.8254   53.7892 H   0  0  0  0  0  0  0  0  0  0  0  0
   56.8847   33.0676   53.2554 H   0  0  0  0  0  0  0  0  0  0  0  0
   57.4635   31.1815   45.3939 H   0  0  0  0  0  0  0  0  0  0  0  0
   55.9147   30.7990   43.5096 H   0  0  0  0  0  0  0  0  0  0  0  0
   56.7991   29.3856   42.8411 H   0  0  0  0  0  0  0  0  0  0  0  0
   55.0029   29.4032   42.8411 H   0  0  0  0  0  0  0  0  0  0  0  0
  1  2  1  0
  2  3  1  0
  3  4  2  0
  4  5  1  0
  5  6  2  0
  6  7  1  0
  7  8  1  0
  8  9  2  0
  9 10  1  0
 10 11  2  0
 11 12  1  0
 12 13  2  0
 13 14  1  0
 14 15  1  0
 15 16  1  0
 16 17  1  0
 17 18  1  0
 18 19  1  0
 19 20  1  0
 20 21  1  0
 21 22  1  0
 21 23  1  0
 23 24  1  0
 24 25  1  0
 25 26  1  0
 25 27  1  0
 27 28  1  0
 14 29  1  0
 29 30  1  0
 30 31  1  0
 31 32  1  0
 32 33  2  0
 32 34  1  0
 11 35  1  0
 35 36  1  0
 36 37  1  0
  6 38  1  0
 38 39  2  0
 39 40  1  0
 40 41  1  0
 39  3  1  0
 34  7  1  0
 13  8  1  0
 27 16  1  0
 34 29  1  0
 37 10  1  0
 24 18  1  0
  1 42  1  0
  1 43  1  0
  1 44  1  0
  4 45  1  0
  5 46  1  0
  7 47  1  1
  9 48  1  0
 12 49  1  0
 14 50  1  6
 16 51  1  6
 18 52  1  6
 19 53  1  0
 19 54  1  0
 21 55  1  1
 22 56  1  0
 22 57  1  0
 22 58  1  0
 24 59  1  1
 25 60  1  1
 26 61  1  0
 27 62  1  6
 28 63  1  0
 29 64  1  6
 30 65  1  0
 30 66  1  0
 34 67  1  6
 36 68  1  0
 36 69  1  0
 38 70  1  0
 41 71  1  0
 41 72  1  0
 41 73  1  0
M  END
>  <UniqueID>  (26) 
23

>  <SMILES>  (26) 
COc1ccc([C@@H]2c3cc4c(cc3[C@H](OC3OC5COC(C)OC5C(O)C3O)C3COC(=O)C32)OCO4)cc1OC

>  <Energy>  (26) 
162.08841345097454

>  <Genealogy>  (26) 
COc1ccc([C@@H]2c3cc4c(cc3[C@H](OC3OC5COC(C)OC5C(O)C3O)C3COC(=O)C32)OCO4)cc1OC (chirality)
COc1ccc([C@@H]2c3cc4c(cc3[C@H](OC3OC5COC(C)OC5C(O)C3O)C3COC(=O)C32)OCO4)cc1OC (3D coordinates assigned)
COc1ccc([C@@H]2c3cc4c(cc3[C@H](OC3OC5COC(C)OC5C(O)C3O)C3COC(=O)C32)OCO4)cc1OC (nonaromatic ring conformer: 162.08841345097454 kcal/mol)

>  <smiles>  (26) 
COc1ccc(C2c3cc4c(cc3C(OC3OC5COC(C)OC5C(O)C3O)C3COC(=O)C23)OCO4)cc1OC

>  <score_type>  (26) 
oracle

>  <origin>  (26) 
adg

>  <m_score__min__energy>  (26) 
-9.1899999999999995

>  <m_primary>  (26) 
energy

$$$$
26:0
     RDKit          3D

 53 55  0  0  0  0  0  0  0  0999 V2000
   60.1460   29.9440   48.2800 C   0  0  0  0  0  0  0  0  0  0  0  0
   59.2550   29.2760   47.2710 C   0  0  0  0  0  0  0  0  0  0  0  0
   58.8550   28.0010   47.5430 N   0  0  0  0  0  0  0  0  0  0  0  0
   58.1170   27.3250   46.6390 C   0  0  0  0  0  0  0  0  0  0  0  0
   57.6350   26.0380   46.7240 C   0  0  0  0  0  0  0  0  0  0  0  0
   57.7160   25.1010   47.8810 C   0  0  0  0  0  0  0  0  0  0  0  0
   56.9590   25.8510   45.5220 C   0  0  0  0  0  0  0  0  0  0  0  0
   57.0710   26.9740   44.7770 N   0  0  0  0  0  0  0  0  0  0  0  0
   57.7730   27.8620   45.4670 N   0  0  0  0  0  0  0  0  0  0  0  0
   58.1200   29.1280   45.1010 C   0  0  0  0  0  0  0  0  0  0  0  0
   57.7190   29.6260   43.7320 C   0  0  0  0  0  0  0  0  0  0  0  0
   58.8860   29.8980   46.0330 C   0  0  0  0  0  0  0  0  0  0  0  0
   59.2910   31.3340   45.7370 C   0  0  0  0  0  0  0  0  0  0  0  0
   57.8670   32.4090   45.5520 S   0  0  0  0  0  0  0  0  0  0  0  0
   56.6460   31.5860   45.2420 O   0  0  0  0  0  0  0  0  0  0  0  0
   58.1420   33.3330   44.3990 O   0  0  0  0  0  0  0  0  0  0  0  0
   57.6190   33.3490   47.0690 C   0  0  0  0  0  0  0  0  0  0  0  0
   58.8970   33.8450   47.7910 C   0  0  0  0  0  0  0  0  0  0  0  0
   59.4230   32.8390   48.8380 C   0  0  0  0  0  0  0  0  0  0  0  0
   60.8120   33.2440   49.3450 C   0  0  0  0  0  0  0  0  0  0  0  0
   61.7690   33.3760   48.2320 N   0  0  0  0  0  0  0  0  0  0  0  0
   63.1960   33.3090   48.4640 C   0  0  0  0  0  0  0  0  0  0  0  0
   63.9700   33.0430   47.5020 O   0  0  0  0  0  0  0  0  0  0  0  0
   63.7930   33.5290   49.8310 C   0  0  0  0  0  0  0  0  0  0  0  0
   63.3950   32.5240   50.6940 F   0  0  0  0  0  0  0  0  0  0  0  0
   63.3670   34.7400   50.3460 F   0  0  0  0  0  0  0  0  0  0  0  0
   65.1750   33.5480   49.7430 F   0  0  0  0  0  0  0  0  0  0  0  0
   61.2640   33.4970   46.8540 C   0  0  0  0  0  0  0  0  0  0  0  0
   59.9970   34.3610   46.8260 C   0  0  0  0  0  0  0  0  0  0  0  0
   59.8062   29.6893   49.2947 H   0  0  0  0  0  0  0  0  0  0  0  0
   61.1807   29.5972   48.1419 H   0  0  0  0  0  0  0  0  0  0  0  0
   60.1032   31.0345   48.1419 H   0  0  0  0  0  0  0  0  0  0  0  0
   57.6666   25.6723   48.8197 H   0  0  0  0  0  0  0  0  0  0  0  0
   56.8758   24.3923   47.8384 H   0  0  0  0  0  0  0  0  0  0  0  0
   58.6654   24.5470   47.8384 H   0  0  0  0  0  0  0  0  0  0  0  0
   56.4211   24.9383   45.2261 H   0  0  0  0  0  0  0  0  0  0  0  0
   56.6670   27.1170   43.8240 H   0  0  0  0  0  0  0  0  0  0  0  0
   57.0324   30.4787   43.8386 H   0  0  0  0  0  0  0  0  0  0  0  0
   58.6159   29.9442   43.1803 H   0  0  0  0  0  0  0  0  0  0  0  0
   57.2168   28.8176   43.1803 H   0  0  0  0  0  0  0  0  0  0  0  0
   59.9116   31.7060   46.5656 H   0  0  0  0  0  0  0  0  0  0  0  0
   59.8479   31.3414   44.7884 H   0  0  0  0  0  0  0  0  0  0  0  0
   57.0119   34.2318   46.8198 H   0  0  0  0  0  0  0  0  0  0  0  0
   57.1410   32.6494   47.7705 H   0  0  0  0  0  0  0  0  0  0  0  0
   58.5848   34.7328   48.3606 H   0  0  0  0  0  0  0  0  0  0  0  0
   58.7255   32.8078   49.6880 H   0  0  0  0  0  0  0  0  0  0  0  0
   59.4996   31.8496   48.3635 H   0  0  0  0  0  0  0  0  0  0  0  0
   60.7355   34.2084   49.8685 H   0  0  0  0  0  0  0  0  0  0  0  0
   61.1760   32.4604   50.0258 H   0  0  0  0  0  0  0  0  0  0  0  0
   62.0357   33.9638   46.2243 H   0  0  0  0  0  0  0  0  0  0  0  0
   61.0221   32.4942   46.4719 H   0  0  0  0  0  0  0  0  0  0  0  0
   60.2652   35.3878   47.1154 H   0  0  0  0  0  0  0  0  0  0  0  0
   59.5892   34.3185   45.8053 H   0  0  0  0  0  0  0  0  0  0  0  0
  1  2  1  0
  2  3  2  0
  3  4  1  0
  4  5  2  0
  5  6  1  0
  5  7  1  0
  7  8  2  0
  8  9  1  0
  9 10  1  0
 10 11  1  0
 10 12  2  0
 12 13  1  0
 13 14  1  0
 14 15  2  0
 14 16  2  0
 14 17  1  0
 17 18  1  0
 18 19  1  0
 19 20  1  0
 20 21  1  0
 21 22  1  0
 22 23  2  0
 22 24  1  0
 24 25  1  0
 24 26  1  0
 24 27  1  0
 21 28  1  0
 28 29  1  0
 12  2  1  0
 29 18  1  0
  9  4  1  0
  1 30  1  0
  1 31  1  0
  1 32  1  0
  6 33  1  0
  6 34  1  0
  6 35  1  0
  7 36  1  0
  8 37  1  0
 11 38  1  0
 11 39  1  0
 11 40  1  0
 13 41  1  0
 13 42  1  0
 17 43  1  0
 17 44  1  0
 18 45  1  0
 19 46  1  0
 19 47  1  0
 20 48  1  0
 20 49  1  0
 28 50  1  0
 28 51  1  0
 29 52  1  0
 29 53  1  0
M  CHG  1   8   1
M  END
>  <UniqueID>  (27) 
24

>  <SMILES>  (27) 
Cc1nc2c(C)c[nH+]n2c(C)c1CS(=O)(=O)CC1CCN(C(=O)C(F)(F)F)CC1

>  <Energy>  (27) 
92.24241392390016

>  <Genealogy>  (27) 
Cc1nc2c(C)c[nH+]n2c(C)c1CS(=O)(=O)CC1CCN(C(=O)C(F)(F)F)CC1 (protonated)
Cc1nc2c(C)c[nH+]n2c(C)c1CS(=O)(=O)CC1CCN(C(=O)C(F)(F)F)CC1 (3D coordinates assigned)
Cc1nc2c(C)c[nH+]n2c(C)c1CS(=O)(=O)CC1CCN(C(=O)C(F)(F)F)CC1 (nonaromatic ring conformer: 92.24241392390016 kcal/mol)

>  <smiles>  (27) 
Cc1nc2c(C)cnn2c(C)c1CS(=O)(=O)CC1CCN(C(=O)C(F)(F)F)CC1

>  <score_type>  (27) 
oracle

>  <origin>  (27) 
adg

>  <m_score__min__energy>  (27) 
-7.54

>  <m_primary>  (27) 
energy

$$$$
27:0
     RDKit          3D

 38 41  0  0  0  0  0  0  0  0999 V2000
   58.7740   21.0813   43.5730 H   0  0  0  0  0  0  0  0  0  0  0  0
   58.3510   21.9290   44.1320 C   0  0  0  0  0  0  0  0  0  0  0  0
   59.1690   22.6940   44.9640 C   0  0  0  0  0  0  0  0  0  0  0  0
   60.2376   22.4506   45.0583 H   0  0  0  0  0  0  0  0  0  0  0  0
   58.6330   23.7680   45.6770 C   0  0  0  0  0  0  0  0  0  0  0  0
   59.2823   24.3642   46.3350 H   0  0  0  0  0  0  0  0  0  0  0  0
   57.2700   24.0940   45.5610 C   0  0  0  0  0  0  0  0  0  0  0  0
   56.7300   25.2310   46.3410 C   0  0  0  0  0  0  0  0  0  0  0  0
   55.5200   25.2140   46.6930 O   0  0  0  0  0  0  0  0  0  0  0  0
   57.5590   26.3170   46.7870 N   0  0  0  0  0  0  0  0  0  0  0  0
   57.6100   27.5070   46.2660 C   0  0  0  0  0  0  0  0  0  0  0  0
   56.9460   27.8720   45.1400 N   0  0  0  0  0  0  0  0  0  0  0  0
   57.1700   29.1780   44.8530 C   0  0  0  0  0  0  0  0  0  0  0  0
   56.6270   29.8520   43.7440 C   0  0  0  0  0  0  0  0  0  0  0  0
   55.9727   29.3222   43.0361 H   0  0  0  0  0  0  0  0  0  0  0  0
   56.9320   31.2160   43.5510 C   0  0  0  0  0  0  0  0  0  0  0  0
   56.5234   31.7677   42.6916 H   0  0  0  0  0  0  0  0  0  0  0  0
   57.7690   31.8530   44.4810 C   0  0  0  0  0  0  0  0  0  0  0  0
   58.2950   33.4450   44.5090 S   0  0  0  0  0  0  0  0  0  0  0  0
   59.1890   33.2050   45.9320 C   0  0  0  0  0  0  0  0  0  0  0  0
   59.9770   34.2390   46.6070 C   0  0  0  0  0  0  0  0  0  0  0  0
   59.6270   35.4480   46.5280 O   0  0  0  0  0  0  0  0  0  0  0  0
   61.1190   33.8710   47.3280 O   0  0  0  0  0  0  0  0  0  0  0  0
   62.4210   33.7970   46.7510 C   0  0  0  0  0  0  0  0  0  0  0  0
   62.8982   34.7865   46.8076 H   0  0  0  0  0  0  0  0  0  0  0  0
   62.3263   33.4794   45.7021 H   0  0  0  0  0  0  0  0  0  0  0  0
   63.2820   32.7820   47.4960 C   0  0  0  0  0  0  0  0  0  0  0  0
   63.1613   32.9243   48.5801 H   0  0  0  0  0  0  0  0  0  0  0  0
   62.9679   31.7639   47.2226 H   0  0  0  0  0  0  0  0  0  0  0  0
   64.3377   32.9259   47.2226 H   0  0  0  0  0  0  0  0  0  0  0  0
   59.0950   31.9320   46.3890 N   0  0  0  0  0  0  0  0  0  0  0  0
   58.3040   31.1870   45.5760 C   0  0  0  0  0  0  0  0  0  0  0  0
   57.9970   29.8430   45.7540 C   0  0  0  0  0  0  0  0  0  0  0  0
   58.4810   28.7820   46.9620 S   0  0  0  0  0  0  0  0  0  0  0  0
   56.4460   23.3150   44.7190 C   0  0  0  0  0  0  0  0  0  0  0  0
   54.5870   23.7150   44.4510 Br  0  0  0  0  0  0  0  0  0  0  0  0
   56.9940   22.2400   44.0090 C   0  0  0  0  0  0  0  0  0  0  0  0
   56.3525   21.6363   43.3502 H   0  0  0  0  0  0  0  0  0  0  0  0
  1  2  1  0
  2  3  2  0
  3  4  1  0
  3  5  1  0
  5  6  1  0
  5  7  2  0
  7  8  1  0
  8  9  2  0
  8 10  1  0
 10 11  2  0
 11 12  1  0
 12 13  1  0
 13 14  2  0
 14 15  1  0
 14 16  1  0
 16 17  1  0
 16 18  2  0
 18 19  1  0
 19 20  1  0
 20 21  1  0
 21 22  2  0
 21 23  1  0
 23 24  1  0
 24 25  1  0
 24 26  1  0
 24 27  1  0
 27 28  1  0
 27 29  1  0
 27 30  1  0
 20 31  2  0
 31 32  1  0
 32 33  2  0
 33 34  1  0
  7 35  1  0
 35 36  1  0
 35 37  2  0
 37 38  1  0
 37  2  1  0
 34 11  1  0
 33 13  1  0
 32 18  1  0
M  CHG  1  12  -1
M  END
>  <UniqueID>  (28) 
25

>  <SMILES>  (28) 
CCOC(=O)c1nc2c(ccc3[n-]/c(=N\C(=O)c4ccccc4Br)sc32)s1

>  <Energy>  (28) 
116.33301547980282

>  <Genealogy>  (28) 
CCOC(=O)c1nc2c(ccc3[n-]c(=NC(=O)c4ccccc4Br)sc32)s1 (protonated)
CCOC(=O)c1nc2c(ccc3[n-]/c(=N\C(=O)c4ccccc4Br)sc32)s1 (cis-trans isomerization)
CCOC(=O)c1nc2c(ccc3[n-]/c(=N\C(=O)c4ccccc4Br)sc32)s1 (3D coordinates assigned)
CCOC(=O)c1nc2c(ccc3[n-]/c(=N\C(=O)c4ccccc4Br)sc32)s1 (optimized conformer: 116.33301547980282 kcal/mol)

>  <smiles>  (28) 
CCOC(=O)c1nc2c(ccc3[nH]c(=NC(=O)c4ccccc4Br)sc32)s1

>  <score_type>  (28) 
oracle

>  <origin>  (28) 
adg

>  <m_score__min__energy>  (28) 
-10.23

>  <m_primary>  (28) 
energy

$$$$
28:0
     RDKit          3D

 53 56  0  0  0  0  0  0  0  0999 V2000
   63.7260   34.1500   50.9160 C   0  0  0  0  0  0  0  0  0  0  0  0
   62.6590   34.8070   50.2400 O   0  0  0  0  0  0  0  0  0  0  0  0
   61.7890   34.1790   49.3360 C   0  0  0  0  0  0  0  0  0  0  0  0
   60.3890   34.2400   49.4710 C   0  0  0  0  0  0  0  0  0  0  0  0
   59.5640   33.6000   48.5410 C   0  0  0  0  0  0  0  0  0  0  0  0
   60.1220   32.9010   47.4600 C   0  0  0  0  0  0  0  0  0  0  0  0
   59.2700   32.2420   46.5000 N   0  0  0  0  0  0  0  0  0  0  0  0
   58.6180   31.0760   46.8270 C   0  0  0  0  0  0  0  0  0  0  0  0
   58.7300   30.3460   48.4710 S   0  0  0  0  0  0  0  0  0  0  0  0
   60.2380   29.3720   48.1300 C   0  0  0  0  0  0  0  0  0  0  0  0
   60.4000   29.1070   46.6600 C   0  0  0  0  0  0  0  0  0  0  0  0
   61.1470   29.8790   45.9980 O   0  0  0  0  0  0  0  0  0  0  0  0
   59.6700   28.0630   45.9790 N   0  0  0  0  0  0  0  0  0  0  0  0
   59.4950   26.7320   46.5760 C   0  0  0  0  0  0  0  0  0  0  0  0
   58.2370   26.0690   46.0090 C   0  0  0  0  0  0  0  0  0  0  0  0
   58.2670   26.0650   44.5950 O   0  0  0  0  0  0  0  0  0  0  0  0
   58.2160   27.3950   44.1140 C   0  0  0  0  0  0  0  0  0  0  0  0
   59.4700   28.1720   44.5290 C   0  0  0  0  0  0  0  0  0  0  0  0
   57.8490   30.4420   45.9060 N   0  0  0  0  0  0  0  0  0  0  0  0
   57.6790   30.9390   44.6590 C   0  0  0  0  0  0  0  0  0  0  0  0
   56.8590   30.2690   43.7460 C   0  0  0  0  0  0  0  0  0  0  0  0
   56.6730   30.7850   42.4600 C   0  0  0  0  0  0  0  0  0  0  0  0
   57.3160   31.9700   42.0730 C   0  0  0  0  0  0  0  0  0  0  0  0
   57.0820   32.5420   40.7070 C   0  0  0  0  0  0  0  0  0  0  0  0
   58.1260   32.6530   42.9950 C   0  0  0  0  0  0  0  0  0  0  0  0
   58.3160   32.1380   44.2910 C   0  0  0  0  0  0  0  0  0  0  0  0
   59.1270   32.7780   45.2440 C   0  0  0  0  0  0  0  0  0  0  0  0
   59.7340   33.8420   44.9360 O   0  0  0  0  0  0  0  0  0  0  0  0
   61.5180   32.8260   47.3380 C   0  0  0  0  0  0  0  0  0  0  0  0
   62.3420   33.4670   48.2670 C   0  0  0  0  0  0  0  0  0  0  0  0
   63.5815   34.2390   52.0028 H   0  0  0  0  0  0  0  0  0  0  0  0
   63.7395   33.0869   50.6337 H   0  0  0  0  0  0  0  0  0  0  0  0
   64.6814   34.6165   50.6337 H   0  0  0  0  0  0  0  0  0  0  0  0
   59.9427   34.7929   50.3107 H   0  0  0  0  0  0  0  0  0  0  0  0
   58.4711   33.6448   48.6576 H   0  0  0  0  0  0  0  0  0  0  0  0
   61.1140   29.9306   48.4914 H   0  0  0  0  0  0  0  0  0  0  0  0
   60.1498   28.4055   48.6479 H   0  0  0  0  0  0  0  0  0  0  0  0
   60.3718   26.1097   46.3436 H   0  0  0  0  0  0  0  0  0  0  0  0
   59.3908   26.8345   47.6662 H   0  0  0  0  0  0  0  0  0  0  0  0
   58.1808   25.0321   46.3717 H   0  0  0  0  0  0  0  0  0  0  0  0
   57.3568   26.6386   46.3420 H   0  0  0  0  0  0  0  0  0  0  0  0
   58.1484   27.3792   43.0162 H   0  0  0  0  0  0  0  0  0  0  0  0
   57.3344   27.8922   44.5447 H   0  0  0  0  0  0  0  0  0  0  0  0
   60.3452   27.7565   44.0081 H   0  0  0  0  0  0  0  0  0  0  0  0
   59.3445   29.2312   44.2600 H   0  0  0  0  0  0  0  0  0  0  0  0
   56.3593   29.3342   44.0400 H   0  0  0  0  0  0  0  0  0  0  0  0
   56.0194   30.2593   41.7484 H   0  0  0  0  0  0  0  0  0  0  0  0
   56.6670   33.5564   40.8004 H   0  0  0  0  0  0  0  0  0  0  0  0
   58.0349   32.5847   40.1592 H   0  0  0  0  0  0  0  0  0  0  0  0
   56.3724   31.9046   40.1592 H   0  0  0  0  0  0  0  0  0  0  0  0
   58.6140   33.5946   42.7029 H   0  0  0  0  0  0  0  0  0  0  0  0
   61.9656   32.2602   46.5076 H   0  0  0  0  0  0  0  0  0  0  0  0
   63.4350   33.4110   48.1564 H   0  0  0  0  0  0  0  0  0  0  0  0
  1  2  1  0
  2  3  1  0
  3  4  2  0
  4  5  1  0
  5  6  2  0
  6  7  1  0
  7  8  1  0
  8  9  1  0
  9 10  1  0
 10 11  1  0
 11 12  2  0
 11 13  1  0
 13 14  1  0
 14 15  1  0
 15 16  1  0
 16 17  1  0
 17 18  1  0
  8 19  2  0
 19 20  1  0
 20 21  2  0
 21 22  1  0
 22 23  2  0
 23 24  1  0
 23 25  1  0
 25 26  2  0
 26 27  1  0
 27 28  2  0
  6 29  1  0
 29 30  2  0
 30  3  1  0
 27  7  1  0
 18 13  1  0
 26 20  1  0
  1 31  1  0
  1 32  1  0
  1 33  1  0
  4 34  1  0
  5 35  1  0
 10 36  1  0
 10 37  1  0
 14 38  1  0
 14 39  1  0
 15 40  1  0
 15 41  1  0
 17 42  1  0
 17 43  1  0
 18 44  1  0
 18 45  1  0
 21 46  1  0
 22 47  1  0
 24 48  1  0
 24 49  1  0
 24 50  1  0
 25 51  1  0
 29 52  1  0
 30 53  1  0
M  END
>  <UniqueID>  (29) 
26

>  <SMILES>  (29) 
COc1ccc(-n2c(SCC(=O)N3CCOCC3)nc3ccc(C)cc3c2=O)cc1

>  <Energy>  (29) 
65.06611594030765

>  <Genealogy>  (29) 
COc1ccc(-n2c(SCC(=O)N3CCOCC3)nc3ccc(C)cc3c2=O)cc1 (3D coordinates assigned)
COc1ccc(-n2c(SCC(=O)N3CCOCC3)nc3ccc(C)cc3c2=O)cc1 (nonaromatic ring conformer: 65.06611594030765 kcal/mol)

>  <smiles>  (29) 
COc1ccc(-n2c(SCC(=O)N3CCOCC3)nc3ccc(C)cc3c2=O)cc1

>  <score_type>  (29) 
oracle

>  <origin>  (29) 
adg

>  <m_score__min__energy>  (29) 
-7.6100000000000003

>  <m_primary>  (29) 
energy

$$$$
29:0
     RDKit          3D

 41 43  0  0  0  0  0  0  0  0999 V2000
   62.2900   33.8380   48.4190 C   0  0  0  0  0  0  0  0  0  0  0  0
   61.1750   34.5700   47.9210 O   0  0  0  0  0  0  0  0  0  0  0  0
   60.2390   34.0610   47.0080 C   0  0  0  0  0  0  0  0  0  0  0  0
   59.3460   34.9030   46.2860 C   0  0  0  0  0  0  0  0  0  0  0  0
   58.4220   34.3550   45.3790 C   0  0  0  0  0  0  0  0  0  0  0  0
   58.4100   32.9730   45.2140 C   0  0  0  0  0  0  0  0  0  0  0  0
   57.6170   32.2560   44.4010 N   0  0  0  0  0  0  0  0  0  0  0  0
   57.9760   30.9590   44.5830 C   0  0  0  0  0  0  0  0  0  0  0  0
   57.3840   29.7870   43.8830 C   0  0  0  0  0  0  0  0  0  0  0  0
   57.0190   29.9390   42.6830 O   0  0  0  0  0  0  0  0  0  0  0  0
   57.2210   28.4830   44.5000 N   0  0  1  0  0  0  0  0  0  0  0  0
   58.0930   27.4770   43.8560 C   0  0  0  0  0  0  0  0  0  0  0  0
   57.7760   26.0650   44.3750 C   0  0  0  0  0  0  0  0  0  0  0  0
   57.6360   26.0020   45.9200 C   0  0  2  0  0  0  0  0  0  0  0  0
   56.2510   25.5800   46.3470 C   0  0  0  0  0  0  0  0  0  0  0  0
   55.1050   26.3390   45.9690 N   0  0  0  0  0  0  0  0  0  0  0  0
   56.1050   24.5590   47.0740 O   0  0  0  0  0  0  0  0  0  0  0  0
   58.0420   27.3220   46.6030 C   0  0  0  0  0  0  0  0  0  0  0  0
   57.3480   28.5520   45.9830 C   0  0  0  0  0  0  0  0  0  0  0  0
   59.0080   30.8650   45.5170 C   0  0  0  0  0  0  0  0  0  0  0  0
   59.2650   32.1610   45.9050 C   0  0  0  0  0  0  0  0  0  0  0  0
   60.1940   32.6670   46.8100 C   0  0  0  0  0  0  0  0  0  0  0  0
   62.2739   33.8486   49.5188 H   0  0  0  0  0  0  0  0  0  0  0  0
   62.2359   32.7991   48.0615 H   0  0  0  0  0  0  0  0  0  0  0  0
   63.2217   34.3008   48.0615 H   0  0  0  0  0  0  0  0  0  0  0  0
   59.3794   35.9918   46.4392 H   0  0  0  0  0  0  0  0  0  0  0  0
   57.7296   34.9989   44.8169 H   0  0  0  0  0  0  0  0  0  0  0  0
   56.8970   32.6480   43.7570 H   0  0  0  0  0  0  0  0  0  0  0  0
   56.2390   28.1780   44.2970 H   0  0  0  0  0  0  0  0  0  0  0  0
   59.1435   27.7153   44.0787 H   0  0  0  0  0  0  0  0  0  0  0  0
   57.9158   27.5010   42.7706 H   0  0  0  0  0  0  0  0  0  0  0  0
   58.5880   25.3889   44.0691 H   0  0  0  0  0  0  0  0  0  0  0  0
   56.8083   25.7668   43.9452 H   0  0  0  0  0  0  0  0  0  0  0  0
   58.3419   25.2285   46.2567 H   0  0  0  0  0  0  0  0  0  0  0  0
   55.1740   27.0920   45.2480 H   0  0  0  0  0  0  0  0  0  0  0  0
   59.1307   27.4471   46.5076 H   0  0  0  0  0  0  0  0  0  0  0  0
   57.7299   27.2605   47.6560 H   0  0  0  0  0  0  0  0  0  0  0  0
   57.9329   29.4474   46.2403 H   0  0  0  0  0  0  0  0  0  0  0  0
   56.3275   28.5859   46.3921 H   0  0  0  0  0  0  0  0  0  0  0  0
   59.5092   29.9511   45.8684 H   0  0  0  0  0  0  0  0  0  0  0  0
   60.8743   31.9966   47.3556 H   0  0  0  0  0  0  0  0  0  0  0  0
  1  2  1  0
  2  3  1  0
  3  4  2  0
  4  5  1  0
  5  6  2  0
  6  7  1  0
  7  8  1  0
  8  9  1  0
  9 10  2  0
  9 11  1  0
 11 12  1  0
 12 13  1  0
 13 14  1  0
 14 15  1  0
 15 16  1  0
 15 17  2  0
 14 18  1  0
 18 19  1  0
  8 20  2  0
 20 21  1  0
 21 22  2  0
 22  3  1  0
 21  6  1  0
 19 11  1  0
  1 23  1  0
  1 24  1  0
  1 25  1  0
  4 26  1  0
  5 27  1  0
  7 28  1  0
 11 29  1  1
 12 30  1  0
 12 31  1  0
 13 32  1  0
 13 33  1  0
 14 34  1  1
 16 35  1  0
 18 36  1  0
 18 37  1  0
 19 38  1  0
 19 39  1  0
 20 40  1  0
 22 41  1  0
M  CHG  2  11   1  16  -1
M  END
>  <UniqueID>  (30) 
27

>  <SMILES>  (30) 
COc1ccc2[nH]c(C(=O)[NH+]3CCC(C([NH-])=O)CC3)cc2c1

>  <Energy>  (30) 
85.94606652815112

>  <Genealogy>  (30) 
COc1ccc2[nH]c(C(=O)[NH+]3CCC(C([NH-])=O)CC3)cc2c1 (protonated)
COc1ccc2[nH]c(C(=O)[NH+]3CCC(C([NH-])=O)CC3)cc2c1 (3D coordinates assigned)
COc1ccc2[nH]c(C(=O)[NH+]3CCC(C([NH-])=O)CC3)cc2c1 (nonaromatic ring conformer: 85.94606652815112 kcal/mol)

>  <smiles>  (30) 
COc1ccc2[nH]c(C(=O)N3CCC(C(N)=O)CC3)cc2c1

>  <score_type>  (30) 
oracle

>  <origin>  (30) 
adg

>  <m_score__min__energy>  (30) 
-9.5600000000000005

>  <m_primary>  (30) 
energy

$$$$
30:0
     RDKit          3D

 48 51  0  0  0  0  0  0  0  0999 V2000
   55.3090   24.1780   45.4150 C   0  0  0  0  0  0  0  0  0  0  0  0
   55.7620   25.1950   46.3030 O   0  0  0  0  0  0  0  0  0  0  0  0
   56.8630   26.0270   46.0580 C   0  0  0  0  0  0  0  0  0  0  0  0
   57.3850   26.2270   44.7670 C   0  0  0  0  0  0  0  0  0  0  0  0
   58.4790   27.0750   44.5720 C   0  0  0  0  0  0  0  0  0  0  0  0
   59.0630   27.7470   45.6600 C   0  0  0  0  0  0  0  0  0  0  0  0
   60.1950   28.6830   45.4580 C   0  0  0  0  0  0  0  0  0  0  0  0
   61.1850   28.3110   44.7690 O   0  0  0  0  0  0  0  0  0  0  0  0
   60.1980   30.0530   46.0280 C   0  0  0  0  0  0  0  0  0  0  0  0
   61.2120   30.3990   46.9310 C   0  0  0  0  0  0  0  0  0  0  0  0
   61.2910   31.6960   47.4440 C   0  0  0  0  0  0  0  0  0  0  0  0
   62.3110   32.0590   48.3370 C   0  0  0  0  0  0  0  0  0  0  0  0
   62.3860   33.3620   48.8410 C   0  0  0  0  0  0  0  0  0  0  0  0
   63.4250   33.6720   49.7300 O   0  0  0  0  0  0  0  0  0  0  0  0
   64.6900   33.0170   49.7500 C   0  0  0  0  0  0  0  0  0  0  0  0
   61.4260   34.3110   48.4420 C   0  0  0  0  0  0  0  0  0  0  0  0
   60.4080   33.9560   47.5520 C   0  0  0  0  0  0  0  0  0  0  0  0
   60.3330   32.6500   47.0470 C   0  0  0  0  0  0  0  0  0  0  0  0
   59.3380   32.2970   46.1850 N   0  0  0  0  0  0  0  0  0  0  0  0
   59.2290   31.0310   45.6800 C   0  0  0  0  0  0  0  0  0  0  0  0
   58.0800   30.7140   44.8000 C   0  0  0  0  0  0  0  0  0  0  0  0
   57.0270   29.9020   45.2590 C   0  0  0  0  0  0  0  0  0  0  0  0
   55.9630   29.5840   44.4100 C   0  0  0  0  0  0  0  0  0  0  0  0
   55.9350   30.0830   43.1040 C   0  0  0  0  0  0  0  0  0  0  0  0
   56.9660   30.9070   42.6480 C   0  0  0  0  0  0  0  0  0  0  0  0
   58.0330   31.2280   43.4940 C   0  0  0  0  0  0  0  0  0  0  0  0
   58.5510   27.5290   46.9500 C   0  0  0  0  0  0  0  0  0  0  0  0
   57.4580   26.6800   47.1440 C   0  0  0  0  0  0  0  0  0  0  0  0
   54.9292   23.3254   45.9971 H   0  0  0  0  0  0  0  0  0  0  0  0
   54.5035   24.5770   44.7810 H   0  0  0  0  0  0  0  0  0  0  0  0
   56.1444   23.8461   44.7810 H   0  0  0  0  0  0  0  0  0  0  0  0
   56.9301   25.7137   43.9070 H   0  0  0  0  0  0  0  0  0  0  0  0
   58.8859   27.2175   43.5600 H   0  0  0  0  0  0  0  0  0  0  0  0
   61.9509   29.6442   47.2381 H   0  0  0  0  0  0  0  0  0  0  0  0
   63.0583   31.3123   48.6435 H   0  0  0  0  0  0  0  0  0  0  0  0
   65.0026   32.8551   50.7921 H   0  0  0  0  0  0  0  0  0  0  0  0
   64.6091   32.0475   49.2367 H   0  0  0  0  0  0  0  0  0  0  0  0
   65.4350   33.6426   49.2367 H   0  0  0  0  0  0  0  0  0  0  0  0
   61.4771   35.3380   48.8328 H   0  0  0  0  0  0  0  0  0  0  0  0
   59.6623   34.7047   47.2464 H   0  0  0  0  0  0  0  0  0  0  0  0
   58.6200   33.0100   45.9180 H   0  0  0  0  0  0  0  0  0  0  0  0
   57.0409   29.5162   46.2890 H   0  0  0  0  0  0  0  0  0  0  0  0
   55.1467   28.9404   44.7697 H   0  0  0  0  0  0  0  0  0  0  0  0
   55.1002   29.8262   42.4354 H   0  0  0  0  0  0  0  0  0  0  0  0
   56.9392   31.3041   41.6225 H   0  0  0  0  0  0  0  0  0  0  0  0
   58.8383   31.8856   43.1348 H   0  0  0  0  0  0  0  0  0  0  0  0
   59.0136   28.0300   47.8132 H   0  0  0  0  0  0  0  0  0  0  0  0
   57.0620   26.5236   48.1583 H   0  0  0  0  0  0  0  0  0  0  0  0
  1  2  1  0
  2  3  1  0
  3  4  2  0
  4  5  1  0
  5  6  2  0
  6  7  1  0
  7  8  2  0
  7  9  1  0
  9 10  2  0
 10 11  1  0
 11 12  2  0
 12 13  1  0
 13 14  1  0
 14 15  1  0
 13 16  2  0
 16 17  1  0
 17 18  2  0
 18 19  1  0
 19 20  2  0
 20 21  1  0
 21 22  2  0
 22 23  1  0
 23 24  2  0
 24 25  1  0
 25 26  2  0
  6 27  1  0
 27 28  2  0
 28  3  1  0
 20  9  1  0
 26 21  1  0
 18 11  1  0
  1 29  1  0
  1 30  1  0
  1 31  1  0
  4 32  1  0
  5 33  1  0
 10 34  1  0
 12 35  1  0
 15 36  1  0
 15 37  1  0
 15 38  1  0
 16 39  1  0
 17 40  1  0
 19 41  1  0
 22 42  1  0
 23 43  1  0
 24 44  1  0
 25 45  1  0
 26 46  1  0
 27 47  1  0
 28 48  1  0
M  CHG  1  19   1
M  END
>  <UniqueID>  (31) 
28

>  <SMILES>  (31) 
COc1ccc(C(=O)c2cc3cc(OC)ccc3[nH+]c2-c2ccccc2)cc1

>  <Energy>  (31) 
66.81254573445418

>  <Genealogy>  (31) 
COc1ccc(C(=O)c2cc3cc(OC)ccc3[nH+]c2-c2ccccc2)cc1 (protonated)
COc1ccc(C(=O)c2cc3cc(OC)ccc3[nH+]c2-c2ccccc2)cc1 (3D coordinates assigned)
COc1ccc(C(=O)c2cc3cc(OC)ccc3[nH+]c2-c2ccccc2)cc1 (optimized conformer: 66.81254573445418 kcal/mol)

>  <smiles>  (31) 
COc1ccc(C(=O)c2cc3cc(OC)ccc3nc2-c2ccccc2)cc1

>  <score_type>  (31) 
oracle

>  <origin>  (31) 
adg

>  <m_score__min__energy>  (31) 
-6.46

>  <m_primary>  (31) 
energy

$$$$
31:0
     RDKit          3D

 46 49  0  0  0  0  0  0  0  0999 V2000
   63.0910   33.3440   48.3020 C   0  0  0  0  0  0  0  0  0  0  0  0
   62.1790   32.1860   48.0250 C   0  0  0  0  0  0  0  0  0  0  0  0
   61.4660   32.1110   46.8180 C   0  0  0  0  0  0  0  0  0  0  0  0
   60.6010   31.0400   46.5770 C   0  0  0  0  0  0  0  0  0  0  0  0
   60.4330   30.0290   47.5390 C   0  0  0  0  0  0  0  0  0  0  0  0
   59.5450   28.9280   47.2810 N   0  0  0  0  0  0  0  0  0  0  0  0
   58.9880   28.1210   48.2090 C   0  0  0  0  0  0  0  0  0  0  0  0
   58.1620   27.2220   47.5650 C   0  0  0  0  0  0  0  0  0  0  0  0
   58.1970   27.4720   46.2450 N   0  0  0  0  0  0  0  0  0  0  0  0
   59.0390   28.5120   46.0970 C   0  0  0  0  0  0  0  0  0  0  0  0
   59.3290   29.3100   44.5110 S   0  0  0  0  0  0  0  0  0  0  0  0
   57.7620   28.7410   43.7700 C   0  0  0  0  0  0  0  0  0  0  0  0
   56.5940   29.1950   44.5850 C   0  0  0  0  0  0  0  0  0  0  0  0
   55.9140   28.3490   45.2260 O   0  0  0  0  0  0  0  0  0  0  0  0
   56.2190   30.5780   44.5710 N   0  0  0  0  0  0  0  0  0  0  0  0
   57.1060   31.6970   44.6980 C   0  0  0  0  0  0  0  0  0  0  0  0
   57.6620   32.3380   43.5740 C   0  0  0  0  0  0  0  0  0  0  0  0
   58.4990   33.4470   43.7360 C   0  0  0  0  0  0  0  0  0  0  0  0
   58.7780   33.9280   45.0180 C   0  0  0  0  0  0  0  0  0  0  0  0
   58.2400   33.2880   46.1400 C   0  0  0  0  0  0  0  0  0  0  0  0
   57.3880   32.1920   45.9800 C   0  0  0  0  0  0  0  0  0  0  0  0
   58.5700   33.7600   47.4150 O   0  0  0  0  0  0  0  0  0  0  0  0
   59.6450   34.6830   47.6040 C   0  0  0  0  0  0  0  0  0  0  0  0
   59.6640   35.7120   46.4660 C   0  0  0  0  0  0  0  0  0  0  0  0
   59.5930   35.0500   45.2000 O   0  0  0  0  0  0  0  0  0  0  0  0
   61.1230   30.1250   48.7580 C   0  0  0  0  0  0  0  0  0  0  0  0
   61.9890   31.1950   48.9990 C   0  0  0  0  0  0  0  0  0  0  0  0
   63.1955   33.4766   49.3890 H   0  0  0  0  0  0  0  0  0  0  0  0
   64.0788   33.1466   47.8601 H   0  0  0  0  0  0  0  0  0  0  0  0
   62.6676   34.2580   47.8601 H   0  0  0  0  0  0  0  0  0  0  0  0
   61.5886   32.8979   46.0593 H   0  0  0  0  0  0  0  0  0  0  0  0
   60.0477   30.9879   45.6277 H   0  0  0  0  0  0  0  0  0  0  0  0
   59.1627   28.1714   49.2939 H   0  0  0  0  0  0  0  0  0  0  0  0
   57.5723   26.4313   48.0519 H   0  0  0  0  0  0  0  0  0  0  0  0
   57.6570   26.9840   45.4970 H   0  0  0  0  0  0  0  0  0  0  0  0
   57.6738   29.1516   42.7533 H   0  0  0  0  0  0  0  0  0  0  0  0
   57.7649   27.6414   43.7398 H   0  0  0  0  0  0  0  0  0  0  0  0
   57.4370   31.9648   42.5640 H   0  0  0  0  0  0  0  0  0  0  0  0
   58.9370   33.9398   42.8555 H   0  0  0  0  0  0  0  0  0  0  0  0
   56.9367   31.7155   46.8627 H   0  0  0  0  0  0  0  0  0  0  0  0
   59.5122   35.2043   48.5635 H   0  0  0  0  0  0  0  0  0  0  0  0
   60.5966   34.1312   47.6058 H   0  0  0  0  0  0  0  0  0  0  0  0
   58.8018   36.3869   46.5720 H   0  0  0  0  0  0  0  0  0  0  0  0
   60.6001   36.2874   46.5181 H   0  0  0  0  0  0  0  0  0  0  0  0
   60.9810   29.3528   49.5285 H   0  0  0  0  0  0  0  0  0  0  0  0
   62.5244   31.2603   49.9577 H   0  0  0  0  0  0  0  0  0  0  0  0
  1  2  1  0
  2  3  2  0
  3  4  1  0
  4  5  2  0
  5  6  1  0
  6  7  1  0
  7  8  2  0
  8  9  1  0
  9 10  2  0
 10 11  1  0
 11 12  1  0
 12 13  1  0
 13 14  2  0
 13 15  1  0
 15 16  1  0
 16 17  2  0
 17 18  1  0
 18 19  2  0
 19 20  1  0
 20 21  2  0
 20 22  1  0
 22 23  1  0
 23 24  1  0
 24 25  1  0
  5 26  1  0
 26 27  2  0
 27  2  1  0
 10  6  1  0
 21 16  1  0
 25 19  1  0
  1 28  1  0
  1 29  1  0
  1 30  1  0
  3 31  1  0
  4 32  1  0
  7 33  1  0
  8 34  1  0
  9 35  1  0
 12 36  1  0
 12 37  1  0
 17 38  1  0
 18 39  1  0
 21 40  1  0
 23 41  1  0
 23 42  1  0
 24 43  1  0
 24 44  1  0
 26 45  1  0
 27 46  1  0
M  CHG  2   9   1  15  -1
M  END
>  <UniqueID>  (32) 
29

>  <SMILES>  (32) 
Cc1ccc(-n2cc[nH+]c2SCC(=O)[N-]c2ccc3c(c2)OCCO3)cc1

>  <Energy>  (32) 
83.47582323266894

>  <Genealogy>  (32) 
Cc1ccc(-n2cc[nH+]c2SCC(=O)[N-]c2ccc3c(c2)OCCO3)cc1 (protonated)
Cc1ccc(-n2cc[nH+]c2SCC(=O)[N-]c2ccc3c(c2)OCCO3)cc1 (3D coordinates assigned)
Cc1ccc(-n2cc[nH+]c2SCC(=O)[N-]c2ccc3c(c2)OCCO3)cc1 (nonaromatic ring conformer: 83.47582323266894 kcal/mol)

>  <smiles>  (32) 
Cc1ccc(-n2ccnc2SCC(=O)Nc2ccc3c(c2)OCCO3)cc1

>  <score_type>  (32) 
oracle

>  <origin>  (32) 
adg

>  <m_score__min__energy>  (32) 
-8.4700000000000006

>  <m_primary>  (32) 
energy

$$$$
32:0
     RDKit          3D

 41 43  0  0  0  0  0  0  0  0999 V2000
   59.6940   34.1930   48.4630 C   0  0  0  0  0  0  0  0  0  0  0  0
   59.5700   35.0390   47.2020 C   0  0  0  0  0  0  0  0  0  0  0  0
   59.0260   34.2230   46.0750 C   0  0  0  0  0  0  0  0  0  0  0  0
   58.0050   33.3530   46.1970 N   0  0  0  0  0  0  0  0  0  0  0  0
   57.8830   32.9150   44.9270 C   0  0  0  0  0  0  0  0  0  0  0  0
   56.8410   31.9210   44.4860 C   0  0  0  0  0  0  0  0  0  0  0  0
   57.0890   30.5510   44.9830 N   0  0  0  0  0  0  0  0  0  0  0  0
   57.0240   29.5290   43.9110 C   0  0  0  0  0  0  0  0  0  0  0  0
   57.6800   28.1930   44.3130 C   0  0  0  0  0  0  0  0  0  0  0  0
   57.7290   28.0410   45.7740 N   0  0  0  0  0  0  0  0  0  0  0  0
   57.5500   26.7480   46.3740 C   0  0  0  0  0  0  0  0  0  0  0  0
   58.4180   26.3060   47.1740 O   0  0  0  0  0  0  0  0  0  0  0  0
   56.3580   25.9310   46.0970 C   0  0  0  0  0  0  0  0  0  0  0  0
   56.3140   24.5680   45.8840 C   0  0  0  0  0  0  0  0  0  0  0  0
   54.9770   24.3240   45.6520 C   0  0  0  0  0  0  0  0  0  0  0  0
   54.3620   22.9870   45.4050 C   0  0  0  0  0  0  0  0  0  0  0  0
   54.2820   25.4740   45.7310 N   0  0  0  0  0  0  0  0  0  0  0  0
   55.1410   26.4150   45.9920 O   0  0  0  0  0  0  0  0  0  0  0  0
   58.2510   29.1380   46.5980 C   0  0  0  0  0  0  0  0  0  0  0  0
   58.3100   30.4410   45.7990 C   0  0  0  0  0  0  0  0  0  0  0  0
   58.7720   33.4870   44.0920 N   0  0  0  0  0  0  0  0  0  0  0  0
   59.4600   34.2940   44.8410 O   0  0  0  0  0  0  0  0  0  0  0  0
   59.5994   34.8387   49.3485 H   0  0  0  0  0  0  0  0  0  0  0  0
   58.8974   33.4345   48.4755 H   0  0  0  0  0  0  0  0  0  0  0  0
   60.6747   33.6950   48.4755 H   0  0  0  0  0  0  0  0  0  0  0  0
   58.8923   35.8830   47.3977 H   0  0  0  0  0  0  0  0  0  0  0  0
   60.5674   35.4098   46.9233 H   0  0  0  0  0  0  0  0  0  0  0  0
   55.8611   32.2548   44.8580 H   0  0  0  0  0  0  0  0  0  0  0  0
   56.8764   31.8793   43.3874 H   0  0  0  0  0  0  0  0  0  0  0  0
   55.9675   29.3419   43.6684 H   0  0  0  0  0  0  0  0  0  0  0  0
   57.5799   29.9221   43.0470 H   0  0  0  0  0  0  0  0  0  0  0  0
   57.0963   27.3643   43.8858 H   0  0  0  0  0  0  0  0  0  0  0  0
   58.7103   28.1821   43.9278 H   0  0  0  0  0  0  0  0  0  0  0  0
   57.1462   23.8488   45.8964 H   0  0  0  0  0  0  0  0  0  0  0  0
   54.1391   22.5025   46.3671 H   0  0  0  0  0  0  0  0  0  0  0  0
   53.4308   23.1118   44.8329 H   0  0  0  0  0  0  0  0  0  0  0  0
   55.0627   22.3611   44.8329 H   0  0  0  0  0  0  0  0  0  0  0  0
   57.5934   29.2789   47.4685 H   0  0  0  0  0  0  0  0  0  0  0  0
   59.2694   28.8791   46.9234 H   0  0  0  0  0  0  0  0  0  0  0  0
   58.3723   31.2956   46.4888 H   0  0  0  0  0  0  0  0  0  0  0  0
   59.1967   30.4413   45.1481 H   0  0  0  0  0  0  0  0  0  0  0  0
  1  2  1  0
  2  3  1  0
  3  4  2  0
  4  5  1  0
  5  6  1  0
  6  7  1  0
  7  8  1  0
  8  9  1  0
  9 10  1  0
 10 11  1  0
 11 12  2  0
 11 13  1  0
 13 14  2  0
 14 15  1  0
 15 16  1  0
 15 17  2  0
 17 18  1  0
 10 19  1  0
 19 20  1  0
  5 21  2  0
 21 22  1  0
 22  3  1  0
 20  7  1  0
 18 13  1  0
  1 23  1  0
  1 24  1  0
  1 25  1  0
  2 26  1  0
  2 27  1  0
  6 28  1  0
  6 29  1  0
  8 30  1  0
  8 31  1  0
  9 32  1  0
  9 33  1  0
 14 34  1  0
 16 35  1  0
 16 36  1  0
 16 37  1  0
 19 38  1  0
 19 39  1  0
 20 40  1  0
 20 41  1  0
M  END
>  <UniqueID>  (33) 
30

>  <SMILES>  (33) 
CCc1nc(CN2CCN(C(=O)c3cc(C)no3)CC2)no1

>  <Energy>  (33) 
108.89662557598477

>  <Genealogy>  (33) 
CCc1nc(CN2CCN(C(=O)c3cc(C)no3)CC2)no1 (3D coordinates assigned)
CCc1nc(CN2CCN(C(=O)c3cc(C)no3)CC2)no1 (nonaromatic ring conformer: 108.89662557598477 kcal/mol)

>  <smiles>  (33) 
CCc1nc(CN2CCN(C(=O)c3cc(C)no3)CC2)no1

>  <score_type>  (33) 
oracle

>  <origin>  (33) 
adg

>  <m_score__min__energy>  (33) 
-8.3300000000000001

>  <m_primary>  (33) 
energy

$$$$
33:0
     RDKit          3D

 33 34  0  0  0  0  0  0  0  0999 V2000
   60.2930   26.3830   46.6330 F   0  0  0  0  0  0  0  0  0  0  0  0
   59.5120   27.2880   45.9950 C   0  0  0  0  0  0  0  0  0  0  0  0
   60.0960   28.2950   45.2210 C   0  0  0  0  0  0  0  0  0  0  0  0
   59.2920   29.2290   44.5620 C   0  0  0  0  0  0  0  0  0  0  0  0
   57.8920   29.1580   44.6670 C   0  0  0  0  0  0  0  0  0  0  0  0
   57.0300   30.1670   43.9570 C   0  0  0  0  0  0  0  0  0  0  0  0
   56.6570   31.2650   44.8690 N   0  0  0  0  0  0  0  0  0  0  0  0
   57.7820   32.1800   45.1570 C   0  0  0  0  0  0  0  0  0  0  0  0
   58.1450   32.1530   46.6670 C   0  0  0  0  0  0  0  0  0  0  0  0
   58.7740   33.4620   47.1830 C   0  0  0  0  0  0  0  0  0  0  0  0
   59.5310   34.2010   46.0770 C   0  0  0  0  0  0  0  0  0  0  0  0
   58.5950   34.5900   44.9160 C   0  0  0  0  0  0  0  0  0  0  0  0
   57.4170   33.6140   44.7240 C   0  0  0  0  0  0  0  0  0  0  0  0
   57.3120   28.1500   45.4560 C   0  0  0  0  0  0  0  0  0  0  0  0
   58.1210   27.2160   46.1130 C   0  0  0  0  0  0  0  0  0  0  0  0
   61.1908   28.3524   45.1305 H   0  0  0  0  0  0  0  0  0  0  0  0
   59.7565   30.0229   43.9587 H   0  0  0  0  0  0  0  0  0  0  0  0
   57.5861   30.5800   43.1025 H   0  0  0  0  0  0  0  0  0  0  0  0
   56.1134   29.6681   43.6093 H   0  0  0  0  0  0  0  0  0  0  0  0
   55.9070   31.8160   44.3860 H   0  0  0  0  0  0  0  0  0  0  0  0
   58.6598   31.8424   44.5865 H   0  0  0  0  0  0  0  0  0  0  0  0
   57.2261   31.9610   47.2405 H   0  0  0  0  0  0  0  0  0  0  0  0
   58.8991   31.3632   46.7994 H   0  0  0  0  0  0  0  0  0  0  0  0
   57.9754   34.1146   47.5657 H   0  0  0  0  0  0  0  0  0  0  0  0
   59.4905   33.2079   47.9780 H   0  0  0  0  0  0  0  0  0  0  0  0
   59.9774   35.1141   46.4978 H   0  0  0  0  0  0  0  0  0  0  0  0
   60.3093   33.5306   45.6836 H   0  0  0  0  0  0  0  0  0  0  0  0
   58.1881   35.5920   45.1173 H   0  0  0  0  0  0  0  0  0  0  0  0
   59.1935   34.5611   43.9935 H   0  0  0  0  0  0  0  0  0  0  0  0
   56.5652   33.9616   45.3271 H   0  0  0  0  0  0  0  0  0  0  0  0
   57.1629   33.5927   43.6540 H   0  0  0  0  0  0  0  0  0  0  0  0
   56.2181   28.0949   45.5575 H   0  0  0  0  0  0  0  0  0  0  0  0
   57.6617   26.4242   46.7230 H   0  0  0  0  0  0  0  0  0  0  0  0
  1  2  1  0
  2  3  2  0
  3  4  1  0
  4  5  2  0
  5  6  1  0
  6  7  1  0
  7  8  1  0
  8  9  1  0
  9 10  1  0
 10 11  1  0
 11 12  1  0
 12 13  1  0
  5 14  1  0
 14 15  2  0
 15  2  1  0
 13  8  1  0
  3 16  1  0
  4 17  1  0
  6 18  1  0
  6 19  1  0
  7 20  1  0
  8 21  1  0
  9 22  1  0
  9 23  1  0
 10 24  1  0
 10 25  1  0
 11 26  1  0
 11 27  1  0
 12 28  1  0
 12 29  1  0
 13 30  1  0
 13 31  1  0
 14 32  1  0
 15 33  1  0
M  END
>  <UniqueID>  (34) 
31

>  <SMILES>  (34) 
Fc1ccc(CNC2CCCCC2)cc1

>  <Energy>  (34) 
34.50749026096982

>  <Genealogy>  (34) 
Fc1ccc(CNC2CCCCC2)cc1 (3D coordinates assigned)
Fc1ccc(CNC2CCCCC2)cc1 (nonaromatic ring conformer: 34.50749026096982 kcal/mol)

>  <smiles>  (34) 
Fc1ccc(CNC2CCCCC2)cc1

>  <score_type>  (34) 
oracle

>  <origin>  (34) 
adg

>  <m_score__min__energy>  (34) 
-6.0700000000000003

>  <m_primary>  (34) 
energy

$$$$
34:0
     RDKit          3D

 49 52  0  0  0  0  0  0  0  0999 V2000
   58.5120   32.2870   49.9790 C   0  0  0  0  0  0  0  0  0  0  0  0
   59.2980   33.2060   49.2270 O   0  0  0  0  0  0  0  0  0  0  0  0
   60.5740   32.9250   48.7150 C   0  0  0  0  0  0  0  0  0  0  0  0
   61.6960   32.7530   49.5480 C   0  0  0  0  0  0  0  0  0  0  0  0
   62.9550   32.4700   48.9960 C   0  0  0  0  0  0  0  0  0  0  0  0
   64.1340   32.3090   49.8720 C   0  0  0  0  0  0  0  0  0  0  0  0
   65.2590   33.1110   49.6140 C   0  0  0  0  0  0  0  0  0  0  0  0
   66.3860   33.0350   50.4320 C   0  0  0  0  0  0  0  0  0  0  0  0
   66.4020   32.1630   51.5180 C   0  0  0  0  0  0  0  0  0  0  0  0
   65.2970   31.3490   51.7830 C   0  0  0  0  0  0  0  0  0  0  0  0
   64.1580   31.3870   50.9530 C   0  0  0  0  0  0  0  0  0  0  0  0
   62.9820   30.4780   51.2620 C   0  0  0  0  0  0  0  0  0  0  0  0
   61.9880   31.1600   51.9440 F   0  0  0  0  0  0  0  0  0  0  0  0
   62.4510   29.9940   50.0820 F   0  0  0  0  0  0  0  0  0  0  0  0
   63.3800   29.4170   52.0550 F   0  0  0  0  0  0  0  0  0  0  0  0
   63.0970   32.3750   47.6050 C   0  0  0  0  0  0  0  0  0  0  0  0
   61.9900   32.5440   46.7730 C   0  0  0  0  0  0  0  0  0  0  0  0
   60.7310   32.8250   47.3200 C   0  0  0  0  0  0  0  0  0  0  0  0
   59.6000   33.0170   46.4490 N   0  0  0  0  0  0  0  0  0  0  0  0
   59.2670   34.3140   46.1350 C   0  0  0  0  0  0  0  0  0  0  0  0
   59.9250   35.2810   46.6120 O   0  0  0  0  0  0  0  0  0  0  0  0
   58.2010   34.5900   45.2830 C   0  0  0  0  0  0  0  0  0  0  0  0
   57.4660   33.5500   44.7380 C   0  0  0  0  0  0  0  0  0  0  0  0
   57.7900   32.2280   45.0490 C   0  0  0  0  0  0  0  0  0  0  0  0
   57.0380   31.1890   44.4890 C   0  0  0  0  0  0  0  0  0  0  0  0
   57.3400   29.8660   44.7850 C   0  0  0  0  0  0  0  0  0  0  0  0
   58.3910   29.5640   45.6440 C   0  0  0  0  0  0  0  0  0  0  0  0
   59.1690   30.5830   46.2290 C   0  0  0  0  0  0  0  0  0  0  0  0
   60.2170   30.2530   47.1040 O   0  0  0  0  0  0  0  0  0  0  0  0
   60.1300   29.3330   48.1880 C   0  0  0  0  0  0  0  0  0  0  0  0
   58.8770   31.9530   45.9260 C   0  0  0  0  0  0  0  0  0  0  0  0
   58.6656   32.4666   51.0533 H   0  0  0  0  0  0  0  0  0  0  0  0
   57.4491   32.4260   49.7323 H   0  0  0  0  0  0  0  0  0  0  0  0
   58.8142   31.2585   49.7323 H   0  0  0  0  0  0  0  0  0  0  0  0
   61.5851   32.8410   50.6389 H   0  0  0  0  0  0  0  0  0  0  0  0
   65.2505   33.8042   48.7600 H   0  0  0  0  0  0  0  0  0  0  0  0
   67.2629   33.6642   50.2194 H   0  0  0  0  0  0  0  0  0  0  0  0
   67.2872   32.1148   52.1693 H   0  0  0  0  0  0  0  0  0  0  0  0
   65.3163   30.6710   52.6490 H   0  0  0  0  0  0  0  0  0  0  0  0
   64.0846   32.1665   47.1678 H   0  0  0  0  0  0  0  0  0  0  0  0
   62.1061   32.4563   45.6827 H   0  0  0  0  0  0  0  0  0  0  0  0
   57.9429   35.6320   45.0431 H   0  0  0  0  0  0  0  0  0  0  0  0
   56.6270   33.7657   44.0601 H   0  0  0  0  0  0  0  0  0  0  0  0
   56.2035   31.4213   43.8110 H   0  0  0  0  0  0  0  0  0  0  0  0
   56.7461   29.0548   44.3386 H   0  0  0  0  0  0  0  0  0  0  0  0
   58.6189   28.5120   45.8707 H   0  0  0  0  0  0  0  0  0  0  0  0
   60.1819   29.8819   49.1398 H   0  0  0  0  0  0  0  0  0  0  0  0
   59.1763   28.7879   48.1306 H   0  0  0  0  0  0  0  0  0  0  0  0
   60.9646   28.6188   48.1306 H   0  0  0  0  0  0  0  0  0  0  0  0
  1  2  1  0
  2  3  1  0
  3  4  2  0
  4  5  1  0
  5  6  1  0
  6  7  2  0
  7  8  1  0
  8  9  2  0
  9 10  1  0
 10 11  2  0
 11 12  1  0
 12 13  1  0
 12 14  1  0
 12 15  1  0
  5 16  2  0
 16 17  1  0
 17 18  2  0
 18 19  1  0
 19 20  1  0
 20 21  2  0
 20 22  1  0
 22 23  2  0
 23 24  1  0
 24 25  2  0
 25 26  1  0
 26 27  2  0
 27 28  1  0
 28 29  1  0
 29 30  1  0
 28 31  2  0
 18  3  1  0
 31 19  1  0
 11  6  1  0
 31 24  1  0
  1 32  1  0
  1 33  1  0
  1 34  1  0
  4 35  1  0
  7 36  1  0
  8 37  1  0
  9 38  1  0
 10 39  1  0
 16 40  1  0
 17 41  1  0
 22 42  1  0
 23 43  1  0
 25 44  1  0
 26 45  1  0
 27 46  1  0
 30 47  1  0
 30 48  1  0
 30 49  1  0
M  END
>  <UniqueID>  (35) 
32

>  <SMILES>  (35) 
COc1cc(-c2ccccc2C(F)(F)F)ccc1-n1c(=O)ccc2cccc(OC)c21

>  <Energy>  (35) 
80.48036528350052

>  <Genealogy>  (35) 
COc1cc(-c2ccccc2C(F)(F)F)ccc1-n1c(=O)ccc2cccc(OC)c21 (3D coordinates assigned)
COc1cc(-c2ccccc2C(F)(F)F)ccc1-n1c(=O)ccc2cccc(OC)c21 (optimized conformer: 80.48036528350052 kcal/mol)

>  <smiles>  (35) 
COc1cc(-c2ccccc2C(F)(F)F)ccc1-n1c(=O)ccc2cccc(OC)c21

>  <score_type>  (35) 
oracle

>  <origin>  (35) 
adg

>  <m_score__min__energy>  (35) 
-6.9699999999999998

>  <m_primary>  (35) 
energy

$$$$
35:0
     RDKit          3D

 42 46  0  0  1  0  0  0  0  0999 V2000
   62.3130   32.2840   48.5490 C   0  0  0  0  0  0  0  0  0  0  0  0
   62.3910   31.4010   47.5040 C   0  0  0  0  0  0  0  0  0  0  0  0
   61.3950   30.4690   47.2390 C   0  0  0  0  0  0  0  0  0  0  0  0
   60.2430   30.4180   48.0750 C   0  0  0  0  0  0  0  0  0  0  0  0
   59.2320   29.6580   47.7900 N   0  0  0  0  0  0  0  0  0  0  0  0
   58.5200   29.2750   46.9170 C   0  0  0  0  0  0  0  0  0  0  0  0
   58.0690   27.9830   46.9940 N   0  0  0  0  0  0  0  0  0  0  0  0
   57.1840   27.4530   46.1670 C   0  0  0  0  0  0  0  0  0  0  0  0
   56.7280   26.0800   46.2780 C   0  0  0  0  0  0  0  0  0  0  0  0
   57.5360   25.0170   46.6380 C   0  0  0  0  0  0  0  0  0  0  0  0
   56.7350   23.8860   46.6280 C   0  0  0  0  0  0  0  0  0  0  0  0
   55.4670   24.3370   46.2550 C   0  0  0  0  0  0  0  0  0  0  0  0
   55.5310   25.6170   46.0670 O   0  0  0  0  0  0  0  0  0  0  0  0
   56.7010   28.2220   45.2010 N   0  0  0  0  0  0  0  0  0  0  0  0
   57.1450   29.4940   45.1180 C   0  0  0  0  0  0  0  0  0  0  0  0
   56.5860   30.6760   43.8970 S   0  0  0  0  0  0  0  0  0  0  0  0
   57.6010   31.9450   44.5130 C   0  0  0  0  0  0  0  0  0  0  0  0
   58.3480   31.4210   45.6450 C   0  0  0  0  0  0  0  0  0  0  0  0
   58.0460   30.1370   45.9020 C   0  0  0  0  0  0  0  0  0  0  0  0
   59.2620   32.5240   46.0360 C   0  0  0  0  0  0  0  0  0  0  0  0
   58.3290   33.6540   46.5290 C   0  0  0  0  0  0  0  0  0  0  0  0
   57.7320   34.3390   45.2910 C   0  0  0  0  0  0  0  0  0  0  0  0
   57.7550   33.3610   44.1160 C   0  0  0  0  0  0  0  0  0  0  0  0
   60.1800   31.3450   49.1580 C   0  0  0  0  0  0  0  0  0  0  0  0
   61.2150   32.2440   49.3540 C   0  0  0  0  0  0  0  0  0  0  0  0
   63.1193   33.0091   48.7337 H   0  0  0  0  0  0  0  0  0  0  0  0
   63.2753   31.4311   46.8504 H   0  0  0  0  0  0  0  0  0  0  0  0
   61.4954   29.7762   46.3905 H   0  0  0  0  0  0  0  0  0  0  0  0
   58.6071   25.0607   46.8846 H   0  0  0  0  0  0  0  0  0  0  0  0
   57.0340   22.8539   46.8635 H   0  0  0  0  0  0  0  0  0  0  0  0
   54.5686   23.7127   46.1406 H   0  0  0  0  0  0  0  0  0  0  0  0
   56.0090   27.8250   44.5500 H   0  0  0  0  0  0  0  0  0  0  0  0
   59.9377   32.2003   46.8414 H   0  0  0  0  0  0  0  0  0  0  0  0
   59.9021   32.8481   45.2022 H   0  0  0  0  0  0  0  0  0  0  0  0
   57.5240   33.2318   47.1485 H   0  0  0  0  0  0  0  0  0  0  0  0
   58.8895   34.3786   47.1379 H   0  0  0  0  0  0  0  0  0  0  0  0
   56.6944   34.6383   45.5004 H   0  0  0  0  0  0  0  0  0  0  0  0
   58.3239   35.2318   45.0408 H   0  0  0  0  0  0  0  0  0  0  0  0
   56.9329   33.6207   43.4329 H   0  0  0  0  0  0  0  0  0  0  0  0
   58.7431   33.4544   43.6417 H   0  0  0  0  0  0  0  0  0  0  0  0
   59.3127   31.3455   49.8346 H   0  0  0  0  0  0  0  0  0  0  0  0
   61.1478   32.9532   50.1922 H   0  0  0  0  0  0  0  0  0  0  0  0
  1  2  2  0
  2  3  1  0
  3  4  2  0
  4  5  1  0
  5  6  2  0
  6  7  1  0
  7  8  2  0
  8  9  1  0
  9 10  2  0
 10 11  1  0
 11 12  2  0
 12 13  1  0
  8 14  1  0
 14 15  1  0
 15 16  1  0
 16 17  1  0
 17 18  2  0
 18 19  1  0
 18 20  1  0
 20 21  1  0
 21 22  1  0
 22 23  1  0
  4 24  1  0
 24 25  2  0
 25  1  1  0
 19  6  1  0
 13  9  1  0
 19 15  2  0
 23 17  1  0
  1 26  1  0
  2 27  1  0
  3 28  1  0
 10 29  1  0
 11 30  1  0
 12 31  1  0
 14 32  1  0
 20 33  1  0
 20 34  1  0
 21 35  1  0
 21 36  1  0
 22 37  1  0
 22 38  1  0
 23 39  1  0
 23 40  1  0
 24 41  1  0
 25 42  1  0
M  END
>  <smiles>  (36) 
c1ccc(N=c2nc(-c3ccco3)[nH]c3sc4c(c23)CCCC4)cc1

>  <score_type>  (36) 
oracle

>  <origin>  (36) 
adg

>  <m_score__min__energy>  (36) 
-8.6799999999999997

>  <m_primary>  (36) 
energy

$$$$
36:0
     RDKit          3D

 38 38  0  0  0  0  0  0  0  0999 V2000
   58.5100   34.2220   45.4710 C   0  0  0  0  0  0  0  0  0  0  0  0
   57.3820   33.2630   45.0900 C   0  0  0  0  0  0  0  0  0  0  0  0
   57.8020   32.2710   43.9970 C   0  0  0  0  0  0  0  0  0  0  0  0
   57.3450   30.8610   44.2960 C   0  0  0  0  0  0  0  0  0  0  0  0
   56.2580   30.6990   44.8320 O   0  0  0  0  0  0  0  0  0  0  0  0
   58.1890   29.7170   43.9880 N   0  0  2  0  0  0  0  0  0  0  0  0
   57.4010   28.4620   44.0380 C   0  0  0  0  0  0  0  0  0  0  0  0
   58.3110   27.2410   44.1780 C   0  0  0  0  0  0  0  0  0  0  0  0
   59.0410   27.2660   45.5260 C   0  0  0  0  0  0  0  0  0  0  0  0
   59.4200   28.6980   45.9990 C   0  0  2  0  0  0  0  0  0  0  0  0
   58.5470   29.1830   47.1840 C   0  0  0  0  0  0  0  0  0  0  0  0
   59.2940   30.1820   48.0840 C   0  0  0  0  0  0  0  0  0  0  0  0
   58.8710   31.6170   47.7810 C   0  0  0  0  0  0  0  0  0  0  0  0
   59.4230   29.7150   44.8260 C   0  0  0  0  0  0  0  0  0  0  0  0
   58.5836   34.2846   46.5667 H   0  0  0  0  0  0  0  0  0  0  0  0
   59.4607   33.8514   45.0602 H   0  0  0  0  0  0  0  0  0  0  0  0
   58.2972   35.2200   45.0602 H   0  0  0  0  0  0  0  0  0  0  0  0
   57.0821   32.6972   45.9844 H   0  0  0  0  0  0  0  0  0  0  0  0
   56.5495   33.8641   44.6956 H   0  0  0  0  0  0  0  0  0  0  0  0
   57.3615   32.5905   43.0410 H   0  0  0  0  0  0  0  0  0  0  0  0
   58.9010   32.2661   43.9510 H   0  0  0  0  0  0  0  0  0  0  0  0
   58.5090   29.8150   42.9960 H   0  0  0  0  0  0  0  0  0  0  0  0
   56.7186   28.5012   44.8998 H   0  0  0  0  0  0  0  0  0  0  0  0
   56.8360   28.3686   43.0988 H   0  0  0  0  0  0  0  0  0  0  0  0
   57.7026   26.3269   44.1129 H   0  0  0  0  0  0  0  0  0  0  0  0
   59.0568   27.2590   43.3696 H   0  0  0  0  0  0  0  0  0  0  0  0
   58.3875   26.8102   46.2845 H   0  0  0  0  0  0  0  0  0  0  0  0
   59.9804   26.7087   45.3959 H   0  0  0  0  0  0  0  0  0  0  0  0
   60.4513   28.6376   46.3770 H   0  0  0  0  0  0  0  0  0  0  0  0
   57.6461   29.6713   46.7840 H   0  0  0  0  0  0  0  0  0  0  0  0
   58.2884   28.3055   47.7948 H   0  0  0  0  0  0  0  0  0  0  0  0
   59.0685   29.9556   49.1366 H   0  0  0  0  0  0  0  0  0  0  0  0
   60.3728   30.0875   47.8909 H   0  0  0  0  0  0  0  0  0  0  0  0
   58.7112   32.1592   48.7247 H   0  0  0  0  0  0  0  0  0  0  0  0
   59.6600   32.1169   47.2000 H   0  0  0  0  0  0  0  0  0  0  0  0
   57.9370   31.6090   47.2000 H   0  0  0  0  0  0  0  0  0  0  0  0
   59.5496   30.7226   45.2487 H   0  0  0  0  0  0  0  0  0  0  0  0
   60.2451   29.4131   44.1605 H   0  0  0  0  0  0  0  0  0  0  0  0
  1  2  1  0
  2  3  1  0
  3  4  1  0
  4  5  2  0
  4  6  1  0
  6  7  1  0
  7  8  1  0
  8  9  1  0
  9 10  1  0
 10 11  1  0
 11 12  1  0
 12 13  1  0
 10 14  1  0
 14  6  1  0
  1 15  1  0
  1 16  1  0
  1 17  1  0
  2 18  1  0
  2 19  1  0
  3 20  1  0
  3 21  1  0
  6 22  1  6
  7 23  1  0
  7 24  1  0
  8 25  1  0
  8 26  1  0
  9 27  1  0
  9 28  1  0
 10 29  1  1
 11 30  1  0
 11 31  1  0
 12 32  1  0
 12 33  1  0
 13 34  1  0
 13 35  1  0
 13 36  1  0
 14 37  1  0
 14 38  1  0
M  CHG  1   6   1
M  END
>  <UniqueID>  (37) 
33

>  <SMILES>  (37) 
CCCC(=O)[N@@H+]1CCC[C@H](CCC)C1

>  <Energy>  (37) 
34.31002058520719

>  <Genealogy>  (37) 
CCCC(=O)[NH+]1CCCC(CCC)C1 (protonated)
CCCC(=O)[N@@H+]1CCC[C@H](CCC)C1 (chirality)
CCCC(=O)[N@@H+]1CCC[C@H](CCC)C1 (3D coordinates assigned)
CCCC(=O)[N@@H+]1CCC[C@H](CCC)C1 (nonaromatic ring conformer: 34.31002058520719 kcal/mol)

>  <smiles>  (37) 
CCCC(=O)N1CCCC(CCC)C1

>  <score_type>  (37) 
oracle

>  <origin>  (37) 
adg

>  <m_score__min__energy>  (37) 
-4.2800000000000002

>  <m_primary>  (37) 
energy

$$$$
37:0
     RDKit          3D

 45 48  0  0  0  0  0  0  0  0999 V2000
   63.3810   34.0190   46.4850 C   0  0  0  0  0  0  0  0  0  0  0  0
   63.3790   33.5170   47.8740 N   0  0  0  0  0  0  0  0  0  0  0  0
   63.7460   32.0850   47.9340 C   0  0  0  0  0  0  0  0  0  0  0  0
   62.6910   31.1980   47.2570 C   0  0  0  0  0  0  0  0  0  0  0  0
   61.3350   31.6570   47.5830 N   0  0  0  0  0  0  0  0  0  0  0  0
   60.1960   30.9800   47.0190 C   0  0  0  0  0  0  0  0  0  0  0  0
   60.1200   29.6370   47.1370 C   0  0  0  0  0  0  0  0  0  0  0  0
   59.0160   28.7830   46.6370 C   0  0  0  0  0  0  0  0  0  0  0  0
   58.6180   27.6850   47.4180 C   0  0  0  0  0  0  0  0  0  0  0  0
   57.5980   26.8360   46.9820 C   0  0  0  0  0  0  0  0  0  0  0  0
   56.9740   27.0650   45.7550 C   0  0  0  0  0  0  0  0  0  0  0  0
   57.3760   28.1360   44.9560 C   0  0  0  0  0  0  0  0  0  0  0  0
   58.4080   28.9920   45.3790 C   0  0  0  0  0  0  0  0  0  0  0  0
   58.8470   30.1260   44.4990 C   0  0  0  0  0  0  0  0  0  0  0  0
   58.4960   31.4220   45.1700 C   0  0  0  0  0  0  0  0  0  0  0  0
   57.5060   32.2480   44.6100 C   0  0  0  0  0  0  0  0  0  0  0  0
   57.1560   33.4500   45.2250 C   0  0  0  0  0  0  0  0  0  0  0  0
   57.7850   33.8380   46.4060 C   0  0  0  0  0  0  0  0  0  0  0  0
   58.7640   33.0230   46.9790 C   0  0  0  0  0  0  0  0  0  0  0  0
   59.1280   31.8040   46.3780 C   0  0  0  0  0  0  0  0  0  0  0  0
   61.1420   32.6020   48.6870 C   0  0  0  0  0  0  0  0  0  0  0  0
   62.0880   33.8150   48.5570 C   0  0  0  0  0  0  0  0  0  0  0  0
   63.3854   35.1190   46.4927 H   0  0  0  0  0  0  0  0  0  0  0  0
   64.2777   33.6524   45.9639 H   0  0  0  0  0  0  0  0  0  0  0  0
   62.4814   33.6595   45.9639 H   0  0  0  0  0  0  0  0  0  0  0  0
   64.1330   34.0430   48.3780 H   0  0  0  0  0  0  0  0  0  0  0  0
   64.7107   31.9429   47.4249 H   0  0  0  0  0  0  0  0  0  0  0  0
   63.8111   31.7924   48.9924 H   0  0  0  0  0  0  0  0  0  0  0  0
   62.8326   31.2378   46.1669 H   0  0  0  0  0  0  0  0  0  0  0  0
   62.8110   30.1673   47.6221 H   0  0  0  0  0  0  0  0  0  0  0  0
   60.9514   29.1314   47.6499 H   0  0  0  0  0  0  0  0  0  0  0  0
   59.1138   27.4923   48.3809 H   0  0  0  0  0  0  0  0  0  0  0  0
   57.2863   25.9859   47.6066 H   0  0  0  0  0  0  0  0  0  0  0  0
   56.1647   26.4008   45.4175 H   0  0  0  0  0  0  0  0  0  0  0  0
   56.8823   28.3117   43.9889 H   0  0  0  0  0  0  0  0  0  0  0  0
   59.9346   30.0732   44.3427 H   0  0  0  0  0  0  0  0  0  0  0  0
   58.3413   30.0605   43.5243 H   0  0  0  0  0  0  0  0  0  0  0  0
   57.0036   31.9442   43.6798 H   0  0  0  0  0  0  0  0  0  0  0  0
   56.3830   34.0919   44.7773 H   0  0  0  0  0  0  0  0  0  0  0  0
   57.5102   34.7878   46.8880 H   0  0  0  0  0  0  0  0  0  0  0  0
   59.2562   33.3379   47.9110 H   0  0  0  0  0  0  0  0  0  0  0  0
   60.1008   32.9567   48.6775 H   0  0  0  0  0  0  0  0  0  0  0  0
   61.3676   32.0846   49.6311 H   0  0  0  0  0  0  0  0  0  0  0  0
   61.5681   34.5972   47.9844 H   0  0  0  0  0  0  0  0  0  0  0  0
   62.3390   34.1292   49.5808 H   0  0  0  0  0  0  0  0  0  0  0  0
  1  2  1  0
  2  3  1  0
  3  4  1  0
  4  5  1  0
  5  6  1  0
  6  7  2  0
  7  8  1  0
  8  9  2  0
  9 10  1  0
 10 11  2  0
 11 12  1  0
 12 13  2  0
 13 14  1  0
 14 15  1  0
 15 16  2  0
 16 17  1  0
 17 18  2  0
 18 19  1  0
 19 20  2  0
  5 21  1  0
 21 22  1  0
 22  2  1  0
 20  6  1  0
 13  8  1  0
 20 15  1  0
  1 23  1  0
  1 24  1  0
  1 25  1  0
  2 26  1  0
  3 27  1  0
  3 28  1  0
  4 29  1  0
  4 30  1  0
  7 31  1  0
  9 32  1  0
 10 33  1  0
 11 34  1  0
 12 35  1  0
 14 36  1  0
 14 37  1  0
 16 38  1  0
 17 39  1  0
 18 40  1  0
 19 41  1  0
 21 42  1  0
 21 43  1  0
 22 44  1  0
 22 45  1  0
M  CHG  1   2   1
M  END
>  <UniqueID>  (38) 
34

>  <SMILES>  (38) 
C[NH+]1CCN(C2=Cc3ccccc3Cc3ccccc32)CC1

>  <Energy>  (38) 
72.42378285390429

>  <Genealogy>  (38) 
C[NH+]1CCN(C2=Cc3ccccc3Cc3ccccc32)CC1 (protonated)
C[NH+]1CCN(C2=Cc3ccccc3Cc3ccccc32)CC1 (3D coordinates assigned)
C[NH+]1CCN(C2=Cc3ccccc3Cc3ccccc32)CC1 (nonaromatic ring conformer: 72.42378285390429 kcal/mol)

>  <smiles>  (38) 
CN1CCN(C2=Cc3ccccc3Cc3ccccc32)CC1

>  <score_type>  (38) 
oracle

>  <origin>  (38) 
adg

>  <m_score__min__energy>  (38) 
-4.8700000000000001

>  <m_primary>  (38) 
energy

$$$$
38:0
     RDKit          3D

 44 48  0  0  0  0  0  0  0  0999 V2000
   65.1860   33.3990   50.2910 C   0  0  0  0  0  0  0  0  0  0  0  0
   64.2950   33.9640   51.2090 C   0  0  0  0  0  0  0  0  0  0  0  0
   62.9730   34.2220   50.8380 C   0  0  0  0  0  0  0  0  0  0  0  0
   62.5330   33.9160   49.5400 C   0  0  0  0  0  0  0  0  0  0  0  0
   61.2090   34.1720   49.1550 C   0  0  0  0  0  0  0  0  0  0  0  0
   60.7790   33.8770   47.8540 C   0  0  0  0  0  0  0  0  0  0  0  0
   59.0800   34.2300   47.3690 S   0  0  0  0  0  0  0  0  0  0  0  0
   58.7060   32.4990   46.9700 C   0  0  0  0  0  0  0  0  0  0  0  0
   58.7840   31.4840   47.9700 C   0  0  0  0  0  0  0  0  0  0  0  0
   58.9280   31.7710   49.4290 C   0  0  0  0  0  0  0  0  0  0  0  0
   60.0010   31.5430   50.1030 N   0  0  0  0  0  0  0  0  0  0  0  0
   59.8220   31.9360   51.4940 C   0  0  0  0  0  0  0  0  0  0  0  0
   58.3990   32.5030   51.5650 C   0  0  0  0  0  0  0  0  0  0  0  0
   57.8960   32.3440   50.2150 N   0  0  0  0  0  0  0  0  0  0  0  0
   58.6660   30.1390   47.5790 C   0  0  0  0  0  0  0  0  0  0  0  0
   58.4160   29.7880   46.2570 C   0  0  0  0  0  0  0  0  0  0  0  0
   58.2330   30.7750   45.2880 C   0  0  0  0  0  0  0  0  0  0  0  0
   57.9280   30.4070   43.9680 C   0  0  0  0  0  0  0  0  0  0  0  0
   57.7140   31.3860   42.9970 C   0  0  0  0  0  0  0  0  0  0  0  0
   57.7910   32.7340   43.3370 C   0  0  0  0  0  0  0  0  0  0  0  0
   58.1000   33.1150   44.6460 C   0  0  0  0  0  0  0  0  0  0  0  0
   58.3530   32.1430   45.6400 C   0  0  0  0  0  0  0  0  0  0  0  0
   61.6720   33.2940   46.9450 C   0  0  0  0  0  0  0  0  0  0  0  0
   62.9940   33.0320   47.3180 C   0  0  0  0  0  0  0  0  0  0  0  0
   63.4350   33.3430   48.6110 C   0  0  0  0  0  0  0  0  0  0  0  0
   64.7610   33.0880   48.9970 C   0  0  0  0  0  0  0  0  0  0  0  0
   66.2257   33.1986   50.5890 H   0  0  0  0  0  0  0  0  0  0  0  0
   64.6361   34.2060   52.2264 H   0  0  0  0  0  0  0  0  0  0  0  0
   62.2756   34.6656   51.5639 H   0  0  0  0  0  0  0  0  0  0  0  0
   60.5037   34.6070   49.8784 H   0  0  0  0  0  0  0  0  0  0  0  0
   59.9251   31.0653   52.1583 H   0  0  0  0  0  0  0  0  0  0  0  0
   60.5759   32.6690   51.8171 H   0  0  0  0  0  0  0  0  0  0  0  0
   57.7863   31.9355   52.2809 H   0  0  0  0  0  0  0  0  0  0  0  0
   58.3739   33.5478   51.9081 H   0  0  0  0  0  0  0  0  0  0  0  0
   56.9820   32.7150   49.8750 H   0  0  0  0  0  0  0  0  0  0  0  0
   58.7737   29.3472   48.3350 H   0  0  0  0  0  0  0  0  0  0  0  0
   58.3622   28.7265   45.9736 H   0  0  0  0  0  0  0  0  0  0  0  0
   57.8575   29.3429   43.6982 H   0  0  0  0  0  0  0  0  0  0  0  0
   57.4843   31.0926   41.9621 H   0  0  0  0  0  0  0  0  0  0  0  0
   57.6078   33.5028   42.5719 H   0  0  0  0  0  0  0  0  0  0  0  0
   58.1467   34.1830   44.9051 H   0  0  0  0  0  0  0  0  0  0  0  0
   61.3305   33.0406   45.9305 H   0  0  0  0  0  0  0  0  0  0  0  0
   63.6892   32.5808   46.5947 H   0  0  0  0  0  0  0  0  0  0  0  0
   65.4660   32.6428   48.2795 H   0  0  0  0  0  0  0  0  0  0  0  0
  1  2  2  0
  2  3  1  0
  3  4  2  0
  4  5  1  0
  5  6  2  0
  6  7  1  0
  7  8  1  0
  8  9  1  0
  9 10  1  0
 10 11  2  0
 11 12  1  0
 12 13  1  0
 13 14  1  0
  9 15  2  0
 15 16  1  0
 16 17  2  0
 17 18  1  0
 18 19  2  0
 19 20  1  0
 20 21  2  0
 21 22  1  0
  6 23  1  0
 23 24  2  0
 24 25  1  0
 25 26  2  0
 26  1  1  0
 25  4  1  0
 22  8  2  0
 14 10  1  0
 22 17  1  0
  1 27  1  0
  2 28  1  0
  3 29  1  0
  5 30  1  0
 12 31  1  0
 12 32  1  0
 13 33  1  0
 13 34  1  0
 14 35  1  0
 15 36  1  0
 16 37  1  0
 18 38  1  0
 19 39  1  0
 20 40  1  0
 21 41  1  0
 23 42  1  0
 24 43  1  0
 26 44  1  0
M  END
>  <UniqueID>  (39) 
35

>  <SMILES>  (39) 
c1ccc2cc(Sc3c(C4=NCCN4)ccc4ccccc34)ccc2c1

>  <Energy>  (39) 
73.21208622049673

>  <Genealogy>  (39) 
c1ccc2cc(Sc3c(C4=NCCN4)ccc4ccccc34)ccc2c1 (3D coordinates assigned)
c1ccc2cc(Sc3c(C4=NCCN4)ccc4ccccc34)ccc2c1 (nonaromatic ring conformer: 73.21208622049673 kcal/mol)

>  <smiles>  (39) 
c1ccc2cc(Sc3c(C4=NCCN4)ccc4ccccc34)ccc2c1

>  <score_type>  (39) 
oracle

>  <origin>  (39) 
adg

>  <m_score__min__energy>  (39) 
-8.6099999999999994

>  <m_primary>  (39) 
energy

$$$$
39:0
     RDKit          3D

 42 44  0  0  1  0  0  0  0  0999 V2000
   57.3980   21.3250   44.2260 C   0  0  0  0  0  0  0  0  0  0  0  0
   57.1090   22.7970   44.2280 C   0  0  0  0  0  0  0  0  0  0  0  0
   56.8780   23.5400   45.3630 C   0  0  0  0  0  0  0  0  0  0  0  0
   56.6580   24.8330   44.8980 C   0  0  0  0  0  0  0  0  0  0  0  0
   56.3720   26.0250   45.7380 C   0  0  0  0  0  0  0  0  0  0  0  0
   55.2120   26.2920   46.1300 O   0  0  0  0  0  0  0  0  0  0  0  0
   57.4830   26.8280   46.0610 N   0  0  0  0  0  0  0  0  0  0  0  0
   58.7720   26.4460   46.6680 C   0  0  0  0  0  0  0  0  0  0  0  0
   59.7750   27.1630   45.8190 C   0  0  0  0  0  0  0  0  0  0  0  0
   59.0180   28.3090   45.1740 C   0  0  0  0  0  0  0  0  0  0  0  0
   57.6790   28.2750   45.8770 C   0  0  1  0  0  0  0  0  0  0  0  0
   56.6290   28.9620   45.1290 C   0  0  0  0  0  0  0  0  0  0  0  0
   57.0600   30.3360   44.8190 N   0  0  0  0  0  0  0  0  0  0  0  0
   57.5380   31.2270   45.7060 N   0  0  0  0  0  0  0  0  0  0  0  0
   57.8590   32.3820   45.0760 C   0  0  0  0  0  0  0  0  0  0  0  0
   58.4270   33.6130   45.7210 C   0  0  0  0  0  0  0  0  0  0  0  0
   57.5740   32.2270   43.7350 C   0  0  0  0  0  0  0  0  0  0  0  0
   57.0780   30.9390   43.6120 C   0  0  0  0  0  0  0  0  0  0  0  0
   56.6300   30.3930   42.3000 C   0  0  0  0  0  0  0  0  0  0  0  0
   56.7590   24.8370   43.5350 N   0  0  0  0  0  0  0  0  0  0  0  0
   57.0300   23.6140   43.1360 N   0  0  0  0  0  0  0  0  0  0  0  0
   57.4689   20.9639   45.2626 H   0  0  0  0  0  0  0  0  0  0  0  0
   56.5872   20.7928   43.7070 H   0  0  0  0  0  0  0  0  0  0  0  0
   58.3498   21.1389   43.7070 H   0  0  0  0  0  0  0  0  0  0  0  0
   56.8692   23.1898   46.4057 H   0  0  0  0  0  0  0  0  0  0  0  0
   58.8298   26.7803   47.7144 H   0  0  0  0  0  0  0  0  0  0  0  0
   58.9300   25.3578   46.6966 H   0  0  0  0  0  0  0  0  0  0  0  0
   60.5983   27.5473   46.4390 H   0  0  0  0  0  0  0  0  0  0  0  0
   60.2229   26.4965   45.0672 H   0  0  0  0  0  0  0  0  0  0  0  0
   59.5302   29.2671   45.3464 H   0  0  0  0  0  0  0  0  0  0  0  0
   58.9352   28.2116   44.0815 H   0  0  0  0  0  0  0  0  0  0  0  0
   57.6418   28.8236   46.8297 H   0  0  0  0  0  0  0  0  0  0  0  0
   56.4327   28.4200   44.1922 H   0  0  0  0  0  0  0  0  0  0  0  0
   55.7115   28.9953   45.7349 H   0  0  0  0  0  0  0  0  0  0  0  0
   58.3790   33.5091   46.8150 H   0  0  0  0  0  0  0  0  0  0  0  0
   59.4746   33.7396   45.4103 H   0  0  0  0  0  0  0  0  0  0  0  0
   57.8435   34.4922   45.4103 H   0  0  0  0  0  0  0  0  0  0  0  0
   57.7113   32.9682   42.9339 H   0  0  0  0  0  0  0  0  0  0  0  0
   55.9405   29.5527   42.4687 H   0  0  0  0  0  0  0  0  0  0  0  0
   56.1150   31.1813   41.7313 H   0  0  0  0  0  0  0  0  0  0  0  0
   57.5037   30.0419   41.7313 H   0  0  0  0  0  0  0  0  0  0  0  0
   56.6360   25.7040   42.9410 H   0  0  0  0  0  0  0  0  0  0  0  0
  1  2  1  0
  2  3  1  0
  3  4  2  0
  4  5  1  0
  5  6  2  0
  5  7  1  0
  7  8  1  0
  8  9  1  0
  9 10  1  0
 10 11  1  0
 11 12  1  0
 12 13  1  0
 13 14  1  0
 14 15  2  0
 15 16  1  0
 15 17  1  0
 17 18  2  0
 18 19  1  0
  4 20  1  0
 20 21  1  0
 21  2  2  0
 11  7  1  0
 18 13  1  0
  1 22  1  0
  1 23  1  0
  1 24  1  0
  3 25  1  0
  8 26  1  0
  8 27  1  0
  9 28  1  0
  9 29  1  0
 10 30  1  0
 10 31  1  0
 11 32  1  1
 12 33  1  0
 12 34  1  0
 16 35  1  0
 16 36  1  0
 16 37  1  0
 17 38  1  0
 19 39  1  0
 19 40  1  0
 19 41  1  0
 20 42  1  0
M  END
>  <smiles>  (40) 
Cc1cc(C(=O)N2CCCC2Cn2nc(C)cc2C)[nH]n1

>  <score_type>  (40) 
oracle

>  <origin>  (40) 
adg

>  <m_score__min__energy>  (40) 
-7.8600000000000003

>  <m_primary>  (40) 
energy

$$$$
40:0
     RDKit          3D

 37 39  0  0  0  0  0  0  0  0999 V2000
   63.3890   33.8380   46.3380 C   0  0  0  0  0  0  0  0  0  0  0  0
   63.9020   33.7040   47.6590 O   0  0  0  0  0  0  0  0  0  0  0  0
   63.1070   33.6250   48.8130 C   0  0  0  0  0  0  0  0  0  0  0  0
   63.7430   33.4440   50.0470 C   0  0  0  0  0  0  0  0  0  0  0  0
   62.9960   33.3540   51.2230 C   0  0  0  0  0  0  0  0  0  0  0  0
   61.6030   33.4450   51.1780 C   0  0  0  0  0  0  0  0  0  0  0  0
   60.9470   33.6350   49.9530 C   0  0  0  0  0  0  0  0  0  0  0  0
   59.4440   33.7060   49.9100 C   0  0  0  0  0  0  0  0  0  0  0  0
   58.9460   33.1140   48.6710 N   0  0  0  0  0  0  0  0  0  0  0  0
   58.8860   33.8490   47.4370 C   0  0  0  0  0  0  0  0  0  0  0  0
   59.2100   35.0690   47.4190 O   0  0  0  0  0  0  0  0  0  0  0  0
   58.4480   33.1880   46.1880 C   0  0  0  0  0  0  0  0  0  0  0  0
   58.6830   33.7800   44.9340 C   0  0  0  0  0  0  0  0  0  0  0  0
   58.2590   33.1320   43.7710 C   0  0  0  0  0  0  0  0  0  0  0  0
   57.6070   31.8990   43.8630 C   0  0  0  0  0  0  0  0  0  0  0  0
   57.1660   31.2110   42.7270 C   0  0  0  0  0  0  0  0  0  0  0  0
   56.5190   29.9800   42.8720 C   0  0  0  0  0  0  0  0  0  0  0  0
   56.3210   29.4540   44.1520 C   0  0  0  0  0  0  0  0  0  0  0  0
   56.7560   30.1340   45.2460 N   0  0  0  0  0  0  0  0  0  0  0  0
   57.3890   31.3330   45.1350 C   0  0  0  0  0  0  0  0  0  0  0  0
   57.8100   31.9850   46.2490 N   0  0  0  0  0  0  0  0  0  0  0  0
   61.7010   33.7200   48.7700 C   0  0  0  0  0  0  0  0  0  0  0  0
   62.3256   34.1158   46.3840 H   0  0  0  0  0  0  0  0  0  0  0  0
   63.9495   34.6199   45.8046 H   0  0  0  0  0  0  0  0  0  0  0  0
   63.4955   32.8819   45.8046 H   0  0  0  0  0  0  0  0  0  0  0  0
   64.8398   33.3721   50.0903 H   0  0  0  0  0  0  0  0  0  0  0  0
   63.5057   33.2111   52.1873 H   0  0  0  0  0  0  0  0  0  0  0  0
   61.0184   33.3674   52.1066 H   0  0  0  0  0  0  0  0  0  0  0  0
   59.0296   33.1559   50.7677 H   0  0  0  0  0  0  0  0  0  0  0  0
   59.1332   34.7603   49.9542 H   0  0  0  0  0  0  0  0  0  0  0  0
   58.6230   32.1210   48.6990 H   0  0  0  0  0  0  0  0  0  0  0  0
   59.1986   34.7495   44.8691 H   0  0  0  0  0  0  0  0  0  0  0  0
   58.4375   33.5903   42.7871 H   0  0  0  0  0  0  0  0  0  0  0  0
   57.3275   31.6363   41.7255 H   0  0  0  0  0  0  0  0  0  0  0  0
   56.1687   29.4300   41.9862 H   0  0  0  0  0  0  0  0  0  0  0  0
   55.8116   28.4868   44.2745 H   0  0  0  0  0  0  0  0  0  0  0  0
   61.1915   33.8614   47.8054 H   0  0  0  0  0  0  0  0  0  0  0  0
  1  2  1  0
  2  3  1  0
  3  4  2  0
  4  5  1  0
  5  6  2  0
  6  7  1  0
  7  8  1  0
  8  9  1  0
  9 10  1  0
 10 11  2  0
 10 12  1  0
 12 13  2  0
 13 14  1  0
 14 15  2  0
 15 16  1  0
 16 17  2  0
 17 18  1  0
 18 19  2  0
 19 20  1  0
 20 21  2  0
  7 22  2  0
 22  3  1  0
 21 12  1  0
 20 15  1  0
  1 23  1  0
  1 24  1  0
  1 25  1  0
  4 26  1  0
  5 27  1  0
  6 28  1  0
  8 29  1  0
  8 30  1  0
  9 31  1  0
 13 32  1  0
 14 33  1  0
 16 34  1  0
 17 35  1  0
 18 36  1  0
 22 37  1  0
M  END
>  <UniqueID>  (41) 
36

>  <SMILES>  (41) 
COc1cccc(CNC(=O)c2ccc3cccnc3n2)c1

>  <Energy>  (41) 
40.395731055568746

>  <Genealogy>  (41) 
COc1cccc(CNC(=O)c2ccc3cccnc3n2)c1 (3D coordinates assigned)
COc1cccc(CNC(=O)c2ccc3cccnc3n2)c1 (optimized conformer: 40.395731055568746 kcal/mol)

>  <smiles>  (41) 
COc1cccc(CNC(=O)c2ccc3cccnc3n2)c1

>  <score_type>  (41) 
oracle

>  <origin>  (41) 
adg

>  <m_score__min__energy>  (41) 
-8.0500000000000007

>  <m_primary>  (41) 
energy

$$$$
41:0
     RDKit          3D

 47 51  0  0  0  0  0  0  0  0999 V2000
   63.0400   31.3840   50.3260 C   0  0  0  0  0  0  0  0  0  0  0  0
   63.8810   32.5680   50.0810 N   0  0  0  0  0  0  0  0  0  0  0  0
   63.2980   33.7900   50.6740 C   0  0  0  0  0  0  0  0  0  0  0  0
   61.9990   34.2080   49.9650 C   0  0  0  0  0  0  0  0  0  0  0  0
   62.0990   33.9730   48.5200 N   0  0  0  0  0  0  0  0  0  0  0  0
   60.9070   33.8670   47.7180 C   0  0  0  0  0  0  0  0  0  0  0  0
   60.0360   34.9650   47.5910 C   0  0  0  0  0  0  0  0  0  0  0  0
   58.8710   34.8630   46.8250 C   0  0  0  0  0  0  0  0  0  0  0  0
   58.5560   33.6580   46.1840 C   0  0  0  0  0  0  0  0  0  0  0  0
   57.3950   33.5250   45.4140 C   0  0  0  0  0  0  0  0  0  0  0  0
   57.1080   32.3070   44.7920 C   0  0  0  0  0  0  0  0  0  0  0  0
   57.9880   31.2230   44.9450 C   0  0  0  0  0  0  0  0  0  0  0  0
   57.7200   29.9160   44.3060 C   0  0  0  0  0  0  0  0  0  0  0  0
   57.0480   29.6510   43.1080 C   0  0  0  0  0  0  0  0  0  0  0  0
   57.0280   28.3160   42.8910 N   0  0  0  0  0  0  0  0  0  0  0  0
   57.6540   27.7320   43.8960 N   0  0  0  0  0  0  0  0  0  0  0  0
   57.8670   26.4070   44.0850 C   0  0  0  0  0  0  0  0  0  0  0  0
   58.5620   26.0140   45.2350 C   0  0  0  0  0  0  0  0  0  0  0  0
   59.0040   27.0060   46.1350 C   0  0  0  0  0  0  0  0  0  0  0  0
   58.7580   28.3260   45.8850 N   0  0  0  0  0  0  0  0  0  0  0  0
   58.0800   28.6610   44.7590 C   0  0  0  0  0  0  0  0  0  0  0  0
   59.1120   31.3760   45.7000 N   0  0  0  0  0  0  0  0  0  0  0  0
   59.4180   32.5500   46.3160 C   0  0  0  0  0  0  0  0  0  0  0  0
   60.5840   32.6570   47.0800 C   0  0  0  0  0  0  0  0  0  0  0  0
   63.4310   33.8300   47.9250 C   0  0  0  0  0  0  0  0  0  0  0  0
   64.2190   32.7170   48.6410 C   0  0  0  0  0  0  0  0  0  0  0  0
   62.9305   31.2299   51.4096 H   0  0  0  0  0  0  0  0  0  0  0  0
   62.0484   31.5390   49.8757 H   0  0  0  0  0  0  0  0  0  0  0  0
   63.5129   30.4988   49.8757 H   0  0  0  0  0  0  0  0  0  0  0  0
   63.0788   33.6006   51.7352 H   0  0  0  0  0  0  0  0  0  0  0  0
   64.0268   34.6058   50.5590 H   0  0  0  0  0  0  0  0  0  0  0  0
   61.1616   33.6205   50.3694 H   0  0  0  0  0  0  0  0  0  0  0  0
   61.8306   35.2811   50.1383 H   0  0  0  0  0  0  0  0  0  0  0  0
   60.2738   35.9114   48.0987 H   0  0  0  0  0  0  0  0  0  0  0  0
   58.2011   35.7298   46.7256 H   0  0  0  0  0  0  0  0  0  0  0  0
   56.7096   34.3776   45.2986 H   0  0  0  0  0  0  0  0  0  0  0  0
   56.1970   32.1977   44.1853 H   0  0  0  0  0  0  0  0  0  0  0  0
   56.6051   30.4097   42.4460 H   0  0  0  0  0  0  0  0  0  0  0  0
   56.5970   27.8210   42.0780 H   0  0  0  0  0  0  0  0  0  0  0  0
   57.5055   25.6644   43.3584 H   0  0  0  0  0  0  0  0  0  0  0  0
   58.7599   24.9503   45.4332 H   0  0  0  0  0  0  0  0  0  0  0  0
   59.5504   26.7146   47.0442 H   0  0  0  0  0  0  0  0  0  0  0  0
   61.2523   31.7893   47.1824 H   0  0  0  0  0  0  0  0  0  0  0  0
   63.3273   33.5740   46.8602 H   0  0  0  0  0  0  0  0  0  0  0  0
   63.9751   34.7799   48.0326 H   0  0  0  0  0  0  0  0  0  0  0  0
   64.0075   31.7632   48.1355 H   0  0  0  0  0  0  0  0  0  0  0  0
   65.2818   32.9962   48.5906 H   0  0  0  0  0  0  0  0  0  0  0  0
  1  2  1  0
  2  3  1  0
  3  4  1  0
  4  5  1  0
  5  6  1  0
  6  7  2  0
  7  8  1  0
  8  9  2  0
  9 10  1  0
 10 11  2  0
 11 12  1  0
 12 13  1  0
 13 14  1  0
 14 15  2  0
 15 16  1  0
 16 17  1  0
 17 18  2  0
 18 19  1  0
 19 20  2  0
 20 21  1  0
 12 22  2  0
 22 23  1  0
 23 24  2  0
  5 25  1  0
 25 26  1  0
 26  2  1  0
 24  6  1  0
 23  9  1  0
 21 13  2  0
 21 16  1  0
  1 27  1  0
  1 28  1  0
  1 29  1  0
  3 30  1  0
  3 31  1  0
  4 32  1  0
  4 33  1  0
  7 34  1  0
  8 35  1  0
 10 36  1  0
 11 37  1  0
 14 38  1  0
 15 39  1  0
 17 40  1  0
 18 41  1  0
 19 42  1  0
 24 43  1  0
 25 44  1  0
 25 45  1  0
 26 46  1  0
 26 47  1  0
M  CHG  1  15   1
M  END
>  <UniqueID>  (42) 
37

>  <SMILES>  (42) 
CN1CCN(c2ccc3ccc(-c4c[nH+]n5cccnc45)nc3c2)CC1

>  <Energy>  (42) 
106.09352857950327

>  <Genealogy>  (42) 
CN1CCN(c2ccc3ccc(-c4c[nH+]n5cccnc45)nc3c2)CC1 (protonated)
CN1CCN(c2ccc3ccc(-c4c[nH+]n5cccnc45)nc3c2)CC1 (3D coordinates assigned)
CN1CCN(c2ccc3ccc(-c4c[nH+]n5cccnc45)nc3c2)CC1 (nonaromatic ring conformer: 106.09352857950327 kcal/mol)

>  <smiles>  (42) 
CN1CCN(c2ccc3ccc(-c4cnn5cccnc45)nc3c2)CC1

>  <score_type>  (42) 
oracle

>  <origin>  (42) 
adg

>  <m_score__min__energy>  (42) 
-7.0199999999999996

>  <m_primary>  (42) 
energy

$$$$
42:0
     RDKit          3D

 48 50  0  0  0  0  0  0  0  0999 V2000
   58.5540   31.8940   49.6050 C   0  0  0  0  0  0  0  0  0  0  0  0
   59.7300   32.5890   49.9500 O   0  0  0  0  0  0  0  0  0  0  0  0
   59.3990   33.6960   50.7620 C   0  0  0  0  0  0  0  0  0  0  0  0
   60.4290   33.8330   51.8820 C   0  0  0  0  0  0  0  0  0  0  0  0
   61.7310   33.3340   51.4450 N   0  0  0  0  0  0  0  0  0  0  0  0
   62.4610   32.3770   52.0540 C   0  0  0  0  0  0  0  0  0  0  0  0
   63.5720   32.0980   51.2890 C   0  0  0  0  0  0  0  0  0  0  0  0
   64.5130   31.1590   51.5550 F   0  0  0  0  0  0  0  0  0  0  0  0
   63.5130   32.9100   50.1730 C   0  0  0  0  0  0  0  0  0  0  0  0
   64.4450   32.8850   48.9920 C   0  0  0  0  0  0  0  0  0  0  0  0
   63.7770   32.3780   47.7690 N   0  0  0  0  0  0  0  0  0  0  0  0
   62.6710   31.4400   48.1100 C   0  0  0  0  0  0  0  0  0  0  0  0
   61.6080   31.3540   47.0100 C   0  0  0  0  0  0  0  0  0  0  0  0
   61.0440   32.6850   46.7550 N   0  0  0  0  0  0  0  0  0  0  0  0
   59.7000   32.8310   46.2410 C   0  0  0  0  0  0  0  0  0  0  0  0
   59.0400   34.0720   46.3060 C   0  0  0  0  0  0  0  0  0  0  0  0
   57.7390   34.2100   45.8100 C   0  0  0  0  0  0  0  0  0  0  0  0
   57.0850   33.1140   45.2440 C   0  0  0  0  0  0  0  0  0  0  0  0
   57.7280   31.8750   45.1740 C   0  0  0  0  0  0  0  0  0  0  0  0
   56.9050   30.5000   44.4600 Cl  0  0  0  0  0  0  0  0  0  0  0  0
   59.0290   31.7330   45.6700 C   0  0  0  0  0  0  0  0  0  0  0  0
   61.8700   33.8650   47.0400 C   0  0  0  0  0  0  0  0  0  0  0  0
   63.3560   33.5130   46.8950 C   0  0  0  0  0  0  0  0  0  0  0  0
   62.3570   33.6570   50.2940 C   0  0  0  0  0  0  0  0  0  0  0  0
   58.0293   31.5839   50.5207 H   0  0  0  0  0  0  0  0  0  0  0  0
   57.9003   32.5509   49.0125 H   0  0  0  0  0  0  0  0  0  0  0  0
   58.8142   31.0045   49.0125 H   0  0  0  0  0  0  0  0  0  0  0  0
   59.3975   34.6110   50.1515 H   0  0  0  0  0  0  0  0  0  0  0  0
   58.4008   33.5446   51.1987 H   0  0  0  0  0  0  0  0  0  0  0  0
   60.5225   34.8932   52.1598 H   0  0  0  0  0  0  0  0  0  0  0  0
   60.0940   33.2419   52.7471 H   0  0  0  0  0  0  0  0  0  0  0  0
   62.2089   31.8955   53.0104 H   0  0  0  0  0  0  0  0  0  0  0  0
   64.8056   33.9067   48.8023 H   0  0  0  0  0  0  0  0  0  0  0  0
   65.2781   32.2074   49.2304 H   0  0  0  0  0  0  0  0  0  0  0  0
   64.4930   31.8340   47.2280 H   0  0  0  0  0  0  0  0  0  0  0  0
   63.0958   30.4377   48.2679 H   0  0  0  0  0  0  0  0  0  0  0  0
   62.1799   31.8214   49.0174 H   0  0  0  0  0  0  0  0  0  0  0  0
   62.0680   30.9700   46.0875 H   0  0  0  0  0  0  0  0  0  0  0  0
   60.8046   30.6765   47.3349 H   0  0  0  0  0  0  0  0  0  0  0  0
   59.5503   34.9395   46.7498 H   0  0  0  0  0  0  0  0  0  0  0  0
   57.2305   35.1838   45.8661 H   0  0  0  0  0  0  0  0  0  0  0  0
   56.0630   33.2257   44.8529 H   0  0  0  0  0  0  0  0  0  0  0  0
   59.5311   30.7559   45.6132 H   0  0  0  0  0  0  0  0  0  0  0  0
   61.6151   34.6676   46.3323 H   0  0  0  0  0  0  0  0  0  0  0  0
   61.6773   34.2003   48.0698 H   0  0  0  0  0  0  0  0  0  0  0  0
   63.5503   33.2390   45.8475 H   0  0  0  0  0  0  0  0  0  0  0  0
   63.9340   34.3965   47.2036 H   0  0  0  0  0  0  0  0  0  0  0  0
   62.0019   34.4001   49.5648 H   0  0  0  0  0  0  0  0  0  0  0  0
  1  2  1  0
  2  3  1  0
  3  4  1  0
  4  5  1  0
  5  6  1  0
  6  7  2  0
  7  8  1  0
  7  9  1  0
  9 10  1  0
 10 11  1  0
 11 12  1  0
 12 13  1  0
 13 14  1  0
 14 15  1  0
 15 16  2  0
 16 17  1  0
 17 18  2  0
 18 19  1  0
 19 20  1  0
 19 21  2  0
 14 22  1  0
 22 23  1  0
  9 24  2  0
 24  5  1  0
 23 11  1  0
 21 15  1  0
  1 25  1  0
  1 26  1  0
  1 27  1  0
  3 28  1  0
  3 29  1  0
  4 30  1  0
  4 31  1  0
  6 32  1  0
 10 33  1  0
 10 34  1  0
 11 35  1  0
 12 36  1  0
 12 37  1  0
 13 38  1  0
 13 39  1  0
 16 40  1  0
 17 41  1  0
 18 42  1  0
 21 43  1  0
 22 44  1  0
 22 45  1  0
 23 46  1  0
 23 47  1  0
 24 48  1  0
M  CHG  1  11   1
M  END
>  <UniqueID>  (43) 
38

>  <SMILES>  (43) 
COCCn1cc(F)c(C[NH+]2CCN(c3cccc(Cl)c3)CC2)c1

>  <Energy>  (43) 
83.2464988475764

>  <Genealogy>  (43) 
COCCn1cc(F)c(C[NH+]2CCN(c3cccc(Cl)c3)CC2)c1 (protonated)
COCCn1cc(F)c(C[NH+]2CCN(c3cccc(Cl)c3)CC2)c1 (3D coordinates assigned)
COCCn1cc(F)c(C[NH+]2CCN(c3cccc(Cl)c3)CC2)c1 (nonaromatic ring conformer: 83.2464988475764 kcal/mol)

>  <smiles>  (43) 
COCCn1cc(F)c(CN2CCN(c3cccc(Cl)c3)CC2)c1

>  <score_type>  (43) 
oracle

>  <origin>  (43) 
adg

>  <m_score__min__energy>  (43) 
-5.6900000000000004

>  <m_primary>  (43) 
energy

$$$$
43:0
     RDKit          3D

 39 42  0  0  0  0  0  0  0  0999 V2000
   60.9710   28.8190   45.6120 C   0  0  0  0  0  0  0  0  0  0  0  0
   59.5760   28.5460   45.1010 C   0  0  0  0  0  0  0  0  0  0  0  0
   59.2430   27.2020   44.8920 C   0  0  0  0  0  0  0  0  0  0  0  0
   58.1390   26.8680   44.1170 C   0  0  0  0  0  0  0  0  0  0  0  0
   57.4150   27.8390   43.5100 N   0  0  0  0  0  0  0  0  0  0  0  0
   57.6770   29.1620   43.7160 C   0  0  0  0  0  0  0  0  0  0  0  0
   56.9730   30.1250   42.9810 C   0  0  0  0  0  0  0  0  0  0  0  0
   57.2490   31.4770   43.1450 C   0  0  0  0  0  0  0  0  0  0  0  0
   58.1260   31.8960   44.1440 C   0  0  0  0  0  0  0  0  0  0  0  0
   58.3010   33.2230   44.3510 N   0  0  0  0  0  0  0  0  0  0  0  0
   59.0430   33.6930   45.3820 C   0  0  0  0  0  0  0  0  0  0  0  0
   59.2230   35.1800   45.5090 C   0  0  0  0  0  0  0  0  0  0  0  0
   59.5410   32.8180   46.3140 N   0  0  0  0  0  0  0  0  0  0  0  0
   60.2240   33.3050   47.4860 C   0  0  0  0  0  0  0  0  0  0  0  0
   59.4950   33.7440   48.6030 C   0  0  0  0  0  0  0  0  0  0  0  0
   60.1640   34.2060   49.7410 C   0  0  0  0  0  0  0  0  0  0  0  0
   61.5620   34.2240   49.7730 C   0  0  0  0  0  0  0  0  0  0  0  0
   62.2920   33.7800   48.6670 C   0  0  0  0  0  0  0  0  0  0  0  0
   61.6280   33.3190   47.5270 C   0  0  0  0  0  0  0  0  0  0  0  0
   59.3660   31.4670   46.1540 C   0  0  0  0  0  0  0  0  0  0  0  0
   59.6480   30.6910   47.1080 O   0  0  0  0  0  0  0  0  0  0  0  0
   58.7790   30.9550   44.9710 C   0  0  0  0  0  0  0  0  0  0  0  0
   58.6860   29.5640   44.6380 C   0  0  0  0  0  0  0  0  0  0  0  0
   60.9653   28.8179   46.7120 H   0  0  0  0  0  0  0  0  0  0  0  0
   61.6543   28.0375   45.2481 H   0  0  0  0  0  0  0  0  0  0  0  0
   61.3093   29.8004   45.2481 H   0  0  0  0  0  0  0  0  0  0  0  0
   59.8571   26.4084   45.3426 H   0  0  0  0  0  0  0  0  0  0  0  0
   57.8523   25.8129   43.9961 H   0  0  0  0  0  0  0  0  0  0  0  0
   56.6450   27.5490   42.8660 H   0  0  0  0  0  0  0  0  0  0  0  0
   56.1964   29.8086   42.2692 H   0  0  0  0  0  0  0  0  0  0  0  0
   56.7744   32.2181   42.4851 H   0  0  0  0  0  0  0  0  0  0  0  0
   59.2564   35.4557   46.5734 H   0  0  0  0  0  0  0  0  0  0  0  0
   60.1638   35.4783   45.0233 H   0  0  0  0  0  0  0  0  0  0  0  0
   58.3805   35.6941   45.0233 H   0  0  0  0  0  0  0  0  0  0  0  0
   58.3954   33.7245   48.5829 H   0  0  0  0  0  0  0  0  0  0  0  0
   59.5900   34.5556   50.6118 H   0  0  0  0  0  0  0  0  0  0  0  0
   62.0870   34.5876   50.6686 H   0  0  0  0  0  0  0  0  0  0  0  0
   63.3916   33.7934   48.6939 H   0  0  0  0  0  0  0  0  0  0  0  0
   62.2060   32.9664   46.6601 H   0  0  0  0  0  0  0  0  0  0  0  0
  1  2  1  0
  2  3  2  0
  3  4  1  0
  4  5  2  0
  5  6  1  0
  6  7  2  0
  7  8  1  0
  8  9  2  0
  9 10  1  0
 10 11  2  0
 11 12  1  0
 11 13  1  0
 13 14  1  0
 14 15  2  0
 15 16  1  0
 16 17  2  0
 17 18  1  0
 18 19  2  0
 13 20  1  0
 20 21  2  0
 20 22  1  0
 22 23  2  0
 23  2  1  0
 23  6  1  0
 22  9  1  0
 19 14  1  0
  1 24  1  0
  1 25  1  0
  1 26  1  0
  3 27  1  0
  4 28  1  0
  5 29  1  0
  7 30  1  0
  8 31  1  0
 12 32  1  0
 12 33  1  0
 12 34  1  0
 15 35  1  0
 16 36  1  0
 17 37  1  0
 18 38  1  0
 19 39  1  0
M  CHG  1   5   1
M  END
>  <UniqueID>  (44) 
39

>  <SMILES>  (44) 
Cc1cc[nH+]c2ccc3nc(C)n(-c4ccccc4)c(=O)c3c12

>  <Energy>  (44) 
80.81796850458606

>  <Genealogy>  (44) 
Cc1cc[nH+]c2ccc3nc(C)n(-c4ccccc4)c(=O)c3c12 (protonated)
Cc1cc[nH+]c2ccc3nc(C)n(-c4ccccc4)c(=O)c3c12 (3D coordinates assigned)
Cc1cc[nH+]c2ccc3nc(C)n(-c4ccccc4)c(=O)c3c12 (optimized conformer: 80.81796850458606 kcal/mol)

>  <smiles>  (44) 
Cc1ccnc2ccc3nc(C)n(-c4ccccc4)c(=O)c3c12

>  <score_type>  (44) 
oracle

>  <origin>  (44) 
adg

>  <m_score__min__energy>  (44) 
-6.71

>  <m_primary>  (44) 
energy

$$$$
44:0
     RDKit          3D

 39 41  0  0  0  0  0  0  0  0999 V2000
   55.2670   25.0920   45.6270 C   0  0  0  0  0  0  0  0  0  0  0  0
   55.4130   26.4630   45.9790 O   0  0  0  0  0  0  0  0  0  0  0  0
   56.6380   27.1470   46.0070 C   0  0  0  0  0  0  0  0  0  0  0  0
   57.7220   26.7230   46.7990 C   0  0  0  0  0  0  0  0  0  0  0  0
   58.9220   27.4420   46.7960 C   0  0  0  0  0  0  0  0  0  0  0  0
   59.0580   28.5900   46.0000 C   0  0  0  0  0  0  0  0  0  0  0  0
   60.3350   29.3860   46.0260 C   0  0  0  0  0  0  0  0  0  0  0  0
   60.5530   30.1110   47.3660 C   0  0  0  0  0  0  0  0  0  0  0  0
   60.8270   31.5480   47.1800 N   0  0  0  0  0  0  0  0  0  0  0  0
   62.0870   32.1540   47.5670 C   0  0  0  0  0  0  0  0  0  0  0  0
   63.0460   31.4550   48.3710 N   0  0  0  0  0  0  0  0  0  0  0  0
   62.3520   33.3820   47.2300 N   0  0  0  0  0  0  0  0  0  0  0  0
   61.5170   34.2210   46.3720 C   0  0  0  0  0  0  0  0  0  0  0  0
   60.1020   33.7270   46.2930 C   0  0  0  0  0  0  0  0  0  0  0  0
   59.0930   34.5470   45.7710 C   0  0  0  0  0  0  0  0  0  0  0  0
   57.8020   34.0440   45.6080 C   0  0  0  0  0  0  0  0  0  0  0  0
   57.5390   32.7180   45.9520 C   0  0  0  0  0  0  0  0  0  0  0  0
   58.5320   31.9340   46.4470 N   0  0  0  0  0  0  0  0  0  0  0  0
   59.8010   32.3990   46.6290 C   0  0  0  0  0  0  0  0  0  0  0  0
   57.9770   29.0100   45.2090 C   0  0  0  0  0  0  0  0  0  0  0  0
   56.7790   28.2920   45.2140 C   0  0  0  0  0  0  0  0  0  0  0  0
   55.2022   24.4836   46.5412 H   0  0  0  0  0  0  0  0  0  0  0  0
   54.3499   24.9614   45.0339 H   0  0  0  0  0  0  0  0  0  0  0  0
   56.1361   24.7712   45.0339 H   0  0  0  0  0  0  0  0  0  0  0  0
   57.6249   25.8223   47.4230 H   0  0  0  0  0  0  0  0  0  0  0  0
   59.7630   27.1061   47.4204 H   0  0  0  0  0  0  0  0  0  0  0  0
   61.1797   28.7028   45.8535 H   0  0  0  0  0  0  0  0  0  0  0  0
   60.2661   30.1523   45.2398 H   0  0  0  0  0  0  0  0  0  0  0  0
   59.6482   29.9990   47.9814 H   0  0  0  0  0  0  0  0  0  0  0  0
   61.4276   29.6598   47.8574 H   0  0  0  0  0  0  0  0  0  0  0  0
   63.9350   31.9300   48.6420 H   0  0  0  0  0  0  0  0  0  0  0  0
   62.8980   30.4890   48.7270 H   0  0  0  0  0  0  0  0  0  0  0  0
   61.5121   35.2444   46.7753 H   0  0  0  0  0  0  0  0  0  0  0  0
   61.9406   34.1902   45.3573 H   0  0  0  0  0  0  0  0  0  0  0  0
   59.3185   35.5863   45.4900 H   0  0  0  0  0  0  0  0  0  0  0  0
   57.0007   34.6856   45.2128 H   0  0  0  0  0  0  0  0  0  0  0  0
   56.5270   32.3069   45.8224 H   0  0  0  0  0  0  0  0  0  0  0  0
   58.0739   29.9088   44.5823 H   0  0  0  0  0  0  0  0  0  0  0  0
   55.9388   28.6292   44.5893 H   0  0  0  0  0  0  0  0  0  0  0  0
  1  2  1  0
  2  3  1  0
  3  4  2  0
  4  5  1  0
  5  6  2  0
  6  7  1  0
  7  8  1  0
  8  9  1  0
  9 10  1  0
 10 11  1  0
 10 12  2  0
 12 13  1  0
 13 14  1  0
 14 15  2  0
 15 16  1  0
 16 17  2  0
 17 18  1  0
 18 19  2  0
  6 20  1  0
 20 21  2  0
 21  3  1  0
 19  9  1  0
 19 14  1  0
  1 22  1  0
  1 23  1  0
  1 24  1  0
  4 25  1  0
  5 26  1  0
  7 27  1  0
  7 28  1  0
  8 29  1  0
  8 30  1  0
 11 31  1  0
 11 32  1  0
 13 33  1  0
 13 34  1  0
 15 35  1  0
 16 36  1  0
 17 37  1  0
 20 38  1  0
 21 39  1  0
M  END
>  <UniqueID>  (45) 
40

>  <SMILES>  (45) 
COc1ccc(CCN2C(N)=NCc3cccnc32)cc1

>  <Energy>  (45) 
42.16400769419043

>  <Genealogy>  (45) 
COc1ccc(CCN2C(N)=NCc3cccnc32)cc1 (3D coordinates assigned)
COc1ccc(CCN2C(N)=NCc3cccnc32)cc1 (nonaromatic ring conformer: 42.16400769419043 kcal/mol)

>  <smiles>  (45) 
COc1ccc(CCN2C(N)=NCc3cccnc32)cc1

>  <score_type>  (45) 
oracle

>  <origin>  (45) 
adg

>  <m_score__min__energy>  (45) 
-6.9100000000000001

>  <m_primary>  (45) 
energy

$$$$
45:0
     RDKit          3D

 40 42  0  0  0  0  0  0  0  0999 V2000
   54.3850   26.7140   45.1880 H   0  0  0  0  0  0  0  0  0  0  0  0
   54.4290   26.0270   45.9040 O   0  0  0  0  0  0  0  0  0  0  0  0
   55.7750   25.6630   46.0110 C   0  0  0  0  0  0  0  0  0  0  0  0
   55.9860   24.8320   45.3218 H   0  0  0  0  0  0  0  0  0  0  0  0
   55.9883   25.3470   47.0428 H   0  0  0  0  0  0  0  0  0  0  0  0
   56.6420   26.8390   45.6580 C   0  0  0  0  0  0  0  0  0  0  0  0
   56.0310   27.9920   45.2780 N   0  0  0  0  0  0  0  0  0  0  0  0
   56.7380   29.1010   44.9360 C   0  0  0  0  0  0  0  0  0  0  0  0
   56.1350   30.2000   44.5920 N   0  0  0  0  0  0  0  0  0  0  0  0
   56.7310   31.2630   43.7830 C   0  0  0  0  0  0  0  0  0  0  0  0
   57.4251   30.8172   43.0554 H   0  0  0  0  0  0  0  0  0  0  0  0
   55.9276   31.8038   43.2614 H   0  0  0  0  0  0  0  0  0  0  0  0
   57.4840   32.2350   44.6540 C   0  0  0  0  0  0  0  0  0  0  0  0
   57.9230   33.4570   44.1210 C   0  0  0  0  0  0  0  0  0  0  0  0
   57.6897   33.7125   43.0768 H   0  0  0  0  0  0  0  0  0  0  0  0
   58.6540   34.3510   44.9070 C   0  0  0  0  0  0  0  0  0  0  0  0
   58.9878   35.3089   44.4814 H   0  0  0  0  0  0  0  0  0  0  0  0
   58.9640   34.0310   46.2380 C   0  0  0  0  0  0  0  0  0  0  0  0
   59.7050   34.9180   47.0340 C   0  0  0  0  0  0  0  0  0  0  0  0
   60.0446   35.8774   46.6166 H   0  0  0  0  0  0  0  0  0  0  0  0
   60.0120   34.5850   48.3550 C   0  0  0  0  0  0  0  0  0  0  0  0
   60.5933   35.2831   48.9753 H   0  0  0  0  0  0  0  0  0  0  0  0
   59.5830   33.3670   48.8920 C   0  0  0  0  0  0  0  0  0  0  0  0
   59.8275   33.1105   49.9333 H   0  0  0  0  0  0  0  0  0  0  0  0
   58.8440   32.4740   48.1090 C   0  0  0  0  0  0  0  0  0  0  0  0
   58.5102   31.5164   48.5351 H   0  0  0  0  0  0  0  0  0  0  0  0
   58.5280   32.7980   46.7810 C   0  0  0  0  0  0  0  0  0  0  0  0
   57.7890   31.9100   45.9860 C   0  0  0  0  0  0  0  0  0  0  0  0
   57.4463   30.9537   46.4079 H   0  0  0  0  0  0  0  0  0  0  0  0
   58.0940   29.0650   44.9620 N   0  0  0  0  0  0  0  0  0  0  0  0
   58.7600   27.9380   45.3180 C   0  0  0  0  0  0  0  0  0  0  0  0
   59.8599   27.9341   45.3322 H   0  0  0  0  0  0  0  0  0  0  0  0
   58.0540   26.7780   45.6680 C   0  0  0  0  0  0  0  0  0  0  0  0
   58.8220   25.5460   46.0900 C   0  0  0  0  0  0  0  0  0  0  0  0
   58.7645   24.7937   45.2895 H   0  0  0  0  0  0  0  0  0  0  0  0
   58.3776   25.1545   47.0169 H   0  0  0  0  0  0  0  0  0  0  0  0
   60.2860   25.8830   46.3550 C   0  0  0  0  0  0  0  0  0  0  0  0
   60.4623   25.9236   47.4400 H   0  0  0  0  0  0  0  0  0  0  0  0
   60.9272   25.1090   45.9080 H   0  0  0  0  0  0  0  0  0  0  0  0
   60.5242   26.8595   45.9080 H   0  0  0  0  0  0  0  0  0  0  0  0
  1  2  1  0
  2  3  1  0
  3  4  1  0
  3  5  1  0
  3  6  1  0
  6  7  2  0
  7  8  1  0
  8  9  2  0
  9 10  1  0
 10 11  1  0
 10 12  1  0
 10 13  1  0
 13 14  2  0
 14 15  1  0
 14 16  1  0
 16 17  1  0
 16 18  2  0
 18 19  1  0
 19 20  1  0
 19 21  2  0
 21 22  1  0
 21 23  1  0
 23 24  1  0
 23 25  2  0
 25 26  1  0
 25 27  1  0
 27 28  2  0
 28 29  1  0
  8 30  1  0
 30 31  1  0
 31 32  1  0
 31 33  2  0
 33 34  1  0
 34 35  1  0
 34 36  1  0
 34 37  1  0
 37 38  1  0
 37 39  1  0
 37 40  1  0
 33  6  1  0
 28 13  1  0
 27 18  1  0
M  CHG  1  30  -1
M  END
>  <UniqueID>  (46) 
41

>  <SMILES>  (46) 
CCc1c[n-]/c(=N/Cc2ccc3ccccc3c2)nc1CO

>  <Energy>  (46) 
41.490441883112595

>  <Genealogy>  (46) 
CCc1c[n-]c(=NCc2ccc3ccccc3c2)nc1CO (protonated)
CCc1c[n-]/c(=N/Cc2ccc3ccccc3c2)nc1CO (cis-trans isomerization)
CCc1c[n-]/c(=N/Cc2ccc3ccccc3c2)nc1CO (3D coordinates assigned)
CCc1c[n-]/c(=N/Cc2ccc3ccccc3c2)nc1CO (optimized conformer: 41.490441883112595 kcal/mol)

>  <smiles>  (46) 
CCc1c[nH]c(=NCc2ccc3ccccc3c2)nc1CO

>  <score_type>  (46) 
oracle

>  <origin>  (46) 
adg

>  <m_score__min__energy>  (46) 
-10.67

>  <m_primary>  (46) 
energy

$$$$
46:0
     RDKit          3D

 37 39  0  0  0  0  0  0  0  0999 V2000
   57.2995   34.1245   47.6796 H   0  0  0  0  0  0  0  0  0  0  0  0
   58.0550   33.7760   46.9600 C   0  0  0  0  0  0  0  0  0  0  0  0
   59.1520   34.5360   46.8030 C   0  0  0  0  0  0  0  0  0  0  0  0
   59.0330   35.4895   46.2676 H   0  0  0  0  0  0  0  0  0  0  0  0
   60.5070   34.1960   47.2910 C   0  0  0  0  0  0  0  0  0  0  0  0
   61.4860   33.8110   46.3640 C   0  0  0  0  0  0  0  0  0  0  0  0
   61.2325   33.7488   45.2954 H   0  0  0  0  0  0  0  0  0  0  0  0
   62.7810   33.5060   46.7890 C   0  0  0  0  0  0  0  0  0  0  0  0
   63.5440   33.2186   46.0506 H   0  0  0  0  0  0  0  0  0  0  0  0
   63.1160   33.5630   48.1470 C   0  0  0  0  0  0  0  0  0  0  0  0
   64.4340   33.2630   48.5220 O   0  0  0  0  0  0  0  0  0  0  0  0
   64.7900   32.5280   49.6880 C   0  0  0  0  0  0  0  0  0  0  0  0
   64.5114   33.1032   50.5833 H   0  0  0  0  0  0  0  0  0  0  0  0
   64.2585   31.5649   49.6908 H   0  0  0  0  0  0  0  0  0  0  0  0
   65.8752   32.3480   49.6908 H   0  0  0  0  0  0  0  0  0  0  0  0
   62.1260   33.9130   49.0840 C   0  0  0  0  0  0  0  0  0  0  0  0
   62.3732   33.9476   50.1553 H   0  0  0  0  0  0  0  0  0  0  0  0
   60.8290   34.2170   48.6580 C   0  0  0  0  0  0  0  0  0  0  0  0
   60.0566   34.4740   49.3978 H   0  0  0  0  0  0  0  0  0  0  0  0
   57.7780   32.5110   46.2470 C   0  0  0  0  0  0  0  0  0  0  0  0
   56.8800   32.5440   45.2280 N   0  0  0  0  0  0  0  0  0  0  0  0
   56.6060   31.4610   44.5010 N   0  0  0  0  0  0  0  0  0  0  0  0
   57.2200   30.2810   44.7580 C   0  0  0  0  0  0  0  0  0  0  0  0
   56.8860   28.9670   43.8510 S   0  0  0  0  0  0  0  0  0  0  0  0
   58.1000   30.1930   45.7840 N   0  0  0  0  0  0  0  0  0  0  0  0
   58.3900   31.2720   46.5590 C   0  0  0  0  0  0  0  0  0  0  0  0
   59.3170   31.0840   47.6980 C   0  0  0  0  0  0  0  0  0  0  0  0
   60.6290   30.6360   47.4600 C   0  0  0  0  0  0  0  0  0  0  0  0
   60.9543   30.4153   46.4326 H   0  0  0  0  0  0  0  0  0  0  0  0
   61.5210   30.4700   48.5230 C   0  0  0  0  0  0  0  0  0  0  0  0
   62.5502   30.1340   48.3286 H   0  0  0  0  0  0  0  0  0  0  0  0
   61.1080   30.7300   49.8320 C   0  0  0  0  0  0  0  0  0  0  0  0
   61.8136   30.6048   50.6665 H   0  0  0  0  0  0  0  0  0  0  0  0
   59.7990   31.1490   50.0810 C   0  0  0  0  0  0  0  0  0  0  0  0
   59.4728   31.3463   51.1128 H   0  0  0  0  0  0  0  0  0  0  0  0
   58.9030   31.3180   49.0220 C   0  0  0  0  0  0  0  0  0  0  0  0
   57.8694   31.6354   49.2245 H   0  0  0  0  0  0  0  0  0  0  0  0
  1  2  1  0
  2  3  2  0
  3  4  1  0
  3  5  1  0
  5  6  2  0
  6  7  1  0
  6  8  1  0
  8  9  1  0
  8 10  2  0
 10 11  1  0
 11 12  1  0
 12 13  1  0
 12 14  1  0
 12 15  1  0
 10 16  1  0
 16 17  1  0
 16 18  2  0
 18 19  1  0
  2 20  1  0
 20 21  2  0
 21 22  1  0
 22 23  1  0
 23 24  2  0
 23 25  1  0
 25 26  2  0
 26 27  1  0
 27 28  2  0
 28 29  1  0
 28 30  1  0
 30 31  1  0
 30 32  2  0
 32 33  1  0
 32 34  1  0
 34 35  1  0
 34 36  2  0
 36 37  1  0
 18  5  1  0
 26 20  1  0
 36 27  1  0
M  CHG  1  22  -1
M  END
>  <UniqueID>  (47) 
42

>  <SMILES>  (47) 
COc1ccc(/C=C\c2n[n-]c(=S)nc2-c2ccccc2)cc1

>  <Energy>  (47) 
54.58937642110945

>  <Genealogy>  (47) 
COc1ccc(C=Cc2n[n-]c(=S)nc2-c2ccccc2)cc1 (protonated)
COc1ccc(/C=C\c2n[n-]c(=S)nc2-c2ccccc2)cc1 (cis-trans isomerization)
COc1ccc(/C=C\c2n[n-]c(=S)nc2-c2ccccc2)cc1 (3D coordinates assigned)
COc1ccc(/C=C\c2n[n-]c(=S)nc2-c2ccccc2)cc1 (optimized conformer: 54.58937642110945 kcal/mol)

>  <smiles>  (47) 
COc1ccc(C=Cc2n[nH]c(=S)nc2-c2ccccc2)cc1

>  <score_type>  (47) 
oracle

>  <origin>  (47) 
adg

>  <m_score__min__energy>  (47) 
-9

>  <m_primary>  (47) 
energy

$$$$
47:0
     RDKit          3D

 35 36  0  0  0  0  0  0  0  0999 V2000
   60.7400   26.3180   46.4010 C   0  0  0  0  0  0  0  0  0  0  0  0
   59.7750   27.2230   45.6940 C   0  0  0  0  0  0  0  0  0  0  0  0
   60.2180   28.4340   45.1420 C   0  0  0  0  0  0  0  0  0  0  0  0
   59.3130   29.2960   44.5160 C   0  0  0  0  0  0  0  0  0  0  0  0
   57.9520   28.9650   44.4500 C   0  0  0  0  0  0  0  0  0  0  0  0
   56.8020   30.0450   43.6700 S   0  0  0  0  0  0  0  0  0  0  0  0
   56.3570   29.4410   42.3670 O   0  0  0  0  0  0  0  0  0  0  0  0
   55.5960   30.2240   44.5510 O   0  0  0  0  0  0  0  0  0  0  0  0
   57.5230   31.6030   43.3790 N   0  0  0  0  0  0  0  0  0  0  0  0
   57.7680   32.0230   41.9980 C   0  0  0  0  0  0  0  0  0  0  0  0
   57.9040   32.4510   44.4840 C   0  0  0  0  0  0  0  0  0  0  0  0
   58.5560   33.5630   44.2720 N   0  0  0  0  0  0  0  0  0  0  0  0
   58.8950   34.4540   45.3440 C   0  0  0  0  0  0  0  0  0  0  0  0
   59.5800   35.4850   45.1090 O   0  0  0  0  0  0  0  0  0  0  0  0
   58.3720   34.2070   46.7280 C   0  0  0  0  0  0  0  0  0  0  0  0
   58.2340   32.7060   46.9690 C   0  0  0  0  0  0  0  0  0  0  0  0
   57.5780   32.0660   45.8330 N   0  0  0  0  0  0  0  0  0  0  0  0
   57.5070   27.7610   45.0120 C   0  0  0  0  0  0  0  0  0  0  0  0
   58.4120   26.8990   45.6380 C   0  0  0  0  0  0  0  0  0  0  0  0
   60.6193   26.4312   47.4885 H   0  0  0  0  0  0  0  0  0  0  0  0
   60.5398   25.2745   46.1165 H   0  0  0  0  0  0  0  0  0  0  0  0
   61.7685   26.5847   46.1165 H   0  0  0  0  0  0  0  0  0  0  0  0
   61.2820   28.7065   45.2020 H   0  0  0  0  0  0  0  0  0  0  0  0
   59.6699   30.2377   44.0734 H   0  0  0  0  0  0  0  0  0  0  0  0
   58.3223   32.9732   41.9966 H   0  0  0  0  0  0  0  0  0  0  0  0
   58.3587   31.2531   41.4799 H   0  0  0  0  0  0  0  0  0  0  0  0
   56.8071   32.1583   41.4799 H   0  0  0  0  0  0  0  0  0  0  0  0
   58.8160   33.8510   43.3020 H   0  0  0  0  0  0  0  0  0  0  0  0
   59.0707   34.6321   47.4636 H   0  0  0  0  0  0  0  0  0  0  0  0
   57.3864   34.6837   46.8340 H   0  0  0  0  0  0  0  0  0  0  0  0
   59.2336   32.2673   47.1045 H   0  0  0  0  0  0  0  0  0  0  0  0
   57.6246   32.5441   47.8703 H   0  0  0  0  0  0  0  0  0  0  0  0
   57.0200   31.2040   46.0170 H   0  0  0  0  0  0  0  0  0  0  0  0
   56.4414   27.4931   44.9604 H   0  0  0  0  0  0  0  0  0  0  0  0
   58.0531   25.9620   46.0888 H   0  0  0  0  0  0  0  0  0  0  0  0
  1  2  1  0
  2  3  2  0
  3  4  1  0
  4  5  2  0
  5  6  1  0
  6  7  2  0
  6  8  2  0
  6  9  1  0
  9 10  1  0
  9 11  1  0
 11 12  2  0
 12 13  1  0
 13 14  2  0
 13 15  1  0
 15 16  1  0
 16 17  1  0
  5 18  1  0
 18 19  2  0
 19  2  1  0
 17 11  1  0
  1 20  1  0
  1 21  1  0
  1 22  1  0
  3 23  1  0
  4 24  1  0
 10 25  1  0
 10 26  1  0
 10 27  1  0
 12 28  1  0
 15 29  1  0
 15 30  1  0
 16 31  1  0
 16 32  1  0
 17 33  1  0
 18 34  1  0
 19 35  1  0
M  CHG  1  12   1
M  END
>  <UniqueID>  (48) 
43

>  <SMILES>  (48) 
Cc1ccc(S(=O)(=O)N(C)C2=[NH+]C(=O)CCN2)cc1

>  <Energy>  (48) 
34.758175681536216

>  <Genealogy>  (48) 
Cc1ccc(S(=O)(=O)N(C)C2=[NH+]C(=O)CCN2)cc1 (protonated)
Cc1ccc(S(=O)(=O)N(C)C2=[NH+]C(=O)CCN2)cc1 (3D coordinates assigned)
Cc1ccc(S(=O)(=O)N(C)C2=[NH+]C(=O)CCN2)cc1 (nonaromatic ring conformer: 34.758175681536216 kcal/mol)

>  <smiles>  (48) 
Cc1ccc(S(=O)(=O)N(C)C2=NC(=O)CCN2)cc1

>  <score_type>  (48) 
oracle

>  <origin>  (48) 
adg

>  <m_score__min__energy>  (48) 
-6.2300000000000004

>  <m_primary>  (48) 
energy

$$$$
48:0
     RDKit          3D

 36 37  0  0  1  0  0  0  0  0999 V2000
   59.6510   35.2220   46.6440 C   0  0  0  0  0  0  0  0  0  0  0  0
   59.1550   33.9130   46.2620 N   0  0  0  0  0  0  0  0  0  0  0  0
   57.7750   33.8650   46.7430 C   0  0  0  0  0  0  0  0  0  0  0  0
   59.2050   33.8660   44.8200 C   0  0  0  0  0  0  0  0  0  0  0  0
   57.8050   33.3980   44.2410 C   0  0  0  0  0  0  0  0  0  0  0  0
   58.1170   32.0440   43.9080 N   0  0  0  0  0  0  0  0  0  0  0  0
   57.4010   31.0610   44.2210 C   0  0  0  0  0  0  0  0  0  0  0  0
   56.2670   30.8710   43.4770 N   0  0  0  0  0  0  0  0  0  0  0  0
   55.4800   29.8180   43.7410 C   0  0  0  0  0  0  0  0  0  0  0  0
   55.7720   28.9440   44.7170 N   0  0  0  0  0  0  0  0  0  0  0  0
   56.8810   29.1320   45.4440 C   0  0  0  0  0  0  0  0  0  0  0  0
   57.7500   30.2150   45.2210 C   0  0  0  0  0  0  0  0  0  0  0  0
   58.8560   30.3140   46.1300 C   0  0  0  0  0  0  0  0  0  0  0  0
   60.1680   29.9940   45.8980 C   0  0  0  0  0  0  0  0  0  0  0  0
   61.1410   30.1900   46.8540 C   0  0  0  0  0  0  0  0  0  0  0  0
   60.8400   30.7160   48.0780 C   0  0  0  0  0  0  0  0  0  0  0  0
   59.5360   31.0470   48.3410 C   0  0  0  0  0  0  0  0  0  0  0  0
   58.5700   30.8550   47.4030 C   0  0  0  0  0  0  0  0  0  0  0  0
   59.6796   35.2975   47.7410 H   0  0  0  0  0  0  0  0  0  0  0  0
   60.6646   35.3622   46.2403 H   0  0  0  0  0  0  0  0  0  0  0  0
   58.9848   35.9987   46.2403 H   0  0  0  0  0  0  0  0  0  0  0  0
   57.7699   33.8648   47.8430 H   0  0  0  0  0  0  0  0  0  0  0  0
   57.2273   34.7446   46.3739 H   0  0  0  0  0  0  0  0  0  0  0  0
   57.2897   32.9494   46.3739 H   0  0  0  0  0  0  0  0  0  0  0  0
   59.4431   34.8672   44.4314 H   0  0  0  0  0  0  0  0  0  0  0  0
   59.9803   33.1500   44.5099 H   0  0  0  0  0  0  0  0  0  0  0  0
   57.0087   33.4597   44.9974 H   0  0  0  0  0  0  0  0  0  0  0  0
   57.4212   34.0045   43.4074 H   0  0  0  0  0  0  0  0  0  0  0  0
   54.5703   29.6663   43.1414 H   0  0  0  0  0  0  0  0  0  0  0  0
   55.1450   28.1200   44.9140 H   0  0  0  0  0  0  0  0  0  0  0  0
   57.1203   28.4147   46.2429 H   0  0  0  0  0  0  0  0  0  0  0  0
   60.4519   29.5698   44.9236 H   0  0  0  0  0  0  0  0  0  0  0  0
   62.1820   29.9171   46.6265 H   0  0  0  0  0  0  0  0  0  0  0  0
   61.6243   30.8701   48.8338 H   0  0  0  0  0  0  0  0  0  0  0  0
   59.2684   31.4718   49.3197 H   0  0  0  0  0  0  0  0  0  0  0  0
   57.5324   31.1299   47.6436 H   0  0  0  0  0  0  0  0  0  0  0  0
  1  2  1  0
  2  3  1  0
  2  4  1  0
  4  5  1  0
  5  6  1  0
  6  7  2  0
  7  8  1  0
  8  9  2  0
  9 10  1  0
 10 11  1  0
 11 12  2  0
 12 13  1  0
 13 14  2  0
 14 15  1  0
 15 16  2  0
 16 17  1  0
 17 18  2  0
 12  7  1  0
 18 13  1  0
  1 19  1  0
  1 20  1  0
  1 21  1  0
  3 22  1  0
  3 23  1  0
  3 24  1  0
  4 25  1  0
  4 26  1  0
  5 27  1  0
  5 28  1  0
  9 29  1  0
 10 30  1  0
 11 31  1  0
 14 32  1  0
 15 33  1  0
 16 34  1  0
 17 35  1  0
 18 36  1  0
M  END
>  <smiles>  (49) 
CN(C)CCN=c1nc[nH]cc1-c1ccccc1

>  <score_type>  (49) 
oracle

>  <origin>  (49) 
adg

>  <m_score__min__energy>  (49) 
-5.9299999999999997

>  <m_primary>  (49) 
energy

$$$$
