1:0
     RDKit          3D

 57 59  0  0  0  0  0  0  0  0999 V2000
   58.1850   28.2000   46.2240 C   0  0  0  0  0  0  0  0  0  0  0  0
   58.3940   29.6840   46.3820 C   0  0  0  0  0  0  0  0  0  0  0  0
   59.8330   29.9920   45.9980 C   0  0  0  0  0  0  0  0  0  0  0  0
   57.4340   30.4140   45.6120 N   0  0  0  0  0  0  0  0  0  0  0  0
   57.8540   30.7960   44.3020 C   0  0  0  0  0  0  0  0  0  0  0  0
   57.7410   32.3110   44.1340 C   0  0  0  0  0  0  0  0  0  0  0  0
   56.9850   32.9000   45.1370 O   0  0  0  0  0  0  0  0  0  0  0  0
   57.3790   34.1590   45.5030 C   0  0  0  0  0  0  0  0  0  0  0  0
   58.2200   34.2400   46.7470 C   0  0  0  0  0  0  0  0  0  0  0  0
   58.7060   32.9380   47.1650 N   0  0  0  0  0  0  0  0  0  0  0  0
   59.6770   32.7640   48.1950 C   0  0  0  0  0  0  0  0  0  0  0  0
   61.0150   32.9090   47.8760 C   0  0  0  0  0  0  0  0  0  0  0  0
   62.0030   32.7540   48.8280 C   0  0  0  0  0  0  0  0  0  0  0  0
   61.6590   32.4540   50.0950 N   0  0  0  0  0  0  0  0  0  0  0  0
   62.6180   32.2700   51.1640 C   0  0  0  0  0  0  0  0  0  0  0  0
   60.3520   32.3060   50.4350 C   0  0  0  0  0  0  0  0  0  0  0  0
   59.9920   31.9970   51.7470 C   0  0  0  0  0  0  0  0  0  0  0  0
   58.6750   31.8410   52.1260 C   0  0  0  0  0  0  0  0  0  0  0  0
   57.6900   31.9980   51.1730 C   0  0  0  0  0  0  0  0  0  0  0  0
   58.0640   32.3030   49.8810 C   0  0  0  0  0  0  0  0  0  0  0  0
   59.3740   32.4600   49.4920 C   0  0  0  0  0  0  0  0  0  0  0  0
   63.4490   32.8990   48.5410 C   0  0  0  0  0  0  0  0  0  0  0  0
   63.7680   33.0730   47.0850 C   0  0  0  0  0  0  0  0  0  0  0  0
   62.7190   33.8990   46.3650 C   0  0  0  0  0  0  0  0  0  0  0  0
   61.3530   33.2410   46.4670 C   0  0  0  0  0  0  0  0  0  0  0  0
   58.1190   27.7312   47.2169 H   0  0  0  0  0  0  0  0  0  0  0  0
   57.2524   28.0180   45.6699 H   0  0  0  0  0  0  0  0  0  0  0  0
   59.0311   27.7675   45.6699 H   0  0  0  0  0  0  0  0  0  0  0  0
   58.2352   30.0004   47.4235 H   0  0  0  0  0  0  0  0  0  0  0  0
   60.4360   30.1211   46.9089 H   0  0  0  0  0  0  0  0  0  0  0  0
   60.2399   29.1606   45.4037 H   0  0  0  0  0  0  0  0  0  0  0  0
   59.8639   30.9171   45.4037 H   0  0  0  0  0  0  0  0  0  0  0  0
   57.0190   31.2010   46.1560 H   0  0  0  0  0  0  0  0  0  0  0  0
   58.9000   30.4905   44.1520 H   0  0  0  0  0  0  0  0  0  0  0  0
   57.2094   30.3028   43.5596 H   0  0  0  0  0  0  0  0  0  0  0  0
   58.7517   32.7447   44.1527 H   0  0  0  0  0  0  0  0  0  0  0  0
   57.2363   32.5052   43.1761 H   0  0  0  0  0  0  0  0  0  0  0  0
   57.9604   34.5865   44.6728 H   0  0  0  0  0  0  0  0  0  0  0  0
   56.4542   34.7105   45.7282 H   0  0  0  0  0  0  0  0  0  0  0  0
   59.0825   34.8936   46.5498 H   0  0  0  0  0  0  0  0  0  0  0  0
   57.5906   34.6412   47.5550 H   0  0  0  0  0  0  0  0  0  0  0  0
   58.3400   32.0630   46.7020 H   0  0  0  0  0  0  0  0  0  0  0  0
   62.1089   32.3677   52.1342 H   0  0  0  0  0  0  0  0  0  0  0  0
   63.0676   31.2692   51.0850 H   0  0  0  0  0  0  0  0  0  0  0  0
   63.4061   33.0333   51.0850 H   0  0  0  0  0  0  0  0  0  0  0  0
   60.7824   31.8741   52.5021 H   0  0  0  0  0  0  0  0  0  0  0  0
   58.4155   31.5965   53.1666 H   0  0  0  0  0  0  0  0  0  0  0  0
   56.6287   31.8824   51.4380 H   0  0  0  0  0  0  0  0  0  0  0  0
   57.2755   32.4269   49.1240 H   0  0  0  0  0  0  0  0  0  0  0  0
   63.8229   33.7792   49.0846 H   0  0  0  0  0  0  0  0  0  0  0  0
   63.9326   31.9650   48.8633 H   0  0  0  0  0  0  0  0  0  0  0  0
   64.7411   33.5776   46.9931 H   0  0  0  0  0  0  0  0  0  0  0  0
   63.7899   32.0755   46.6218 H   0  0  0  0  0  0  0  0  0  0  0  0
   62.6726   34.8995   46.8199 H   0  0  0  0  0  0  0  0  0  0  0  0
   62.9964   33.9746   45.3032 H   0  0  0  0  0  0  0  0  0  0  0  0
   60.5932   33.9300   46.0695 H   0  0  0  0  0  0  0  0  0  0  0  0
   61.3744   32.3068   45.8867 H   0  0  0  0  0  0  0  0  0  0  0  0
  1  2  1  0
  2  3  1  0
  2  4  1  0
  4  5  1  0
  5  6  1  0
  6  7  1  0
  7  8  1  0
  8  9  1  0
  9 10  1  0
 10 11  1  0
 11 12  2  0
 12 13  1  0
 13 14  2  0
 14 15  1  0
 14 16  1  0
 16 17  2  0
 17 18  1  0
 18 19  2  0
 19 20  1  0
 20 21  2  0
 13 22  1  0
 22 23  1  0
 23 24  1  0
 24 25  1  0
 21 11  1  0
 25 12  1  0
 21 16  1  0
  1 26  1  0
  1 27  1  0
  1 28  1  0
  2 29  1  0
  3 30  1  0
  3 31  1  0
  3 32  1  0
  4 33  1  0
  5 34  1  0
  5 35  1  0
  6 36  1  0
  6 37  1  0
  8 38  1  0
  8 39  1  0
  9 40  1  0
  9 41  1  0
 10 42  1  0
 15 43  1  0
 15 44  1  0
 15 45  1  0
 17 46  1  0
 18 47  1  0
 19 48  1  0
 20 49  1  0
 22 50  1  0
 22 51  1  0
 23 52  1  0
 23 53  1  0
 24 54  1  0
 24 55  1  0
 25 56  1  0
 25 57  1  0
M  CHG  1  14   1
M  END
>  <smiles>  (1) 
CC(C)NCCOCCNc1c2c([n+](C)c3ccccc13)CCCC2

>  <score_type>  (1) 
oracle

>  <origin>  (1) 
adg

>  <m_score__min__energy>  (1) 
-6.3899999999999997

>  <m_primary>  (1) 
energy

$$$$
2:0
     RDKit          3D

 52 54  0  0  0  0  0  0  0  0999 V2000
   58.7550   32.4090   50.3180 C   0  0  0  0  0  0  0  0  0  0  0  0
   59.4900   32.0320   49.0740 C   0  0  0  0  0  0  0  0  0  0  0  0
   60.4130   32.9200   48.5620 C   0  0  0  0  0  0  0  0  0  0  0  0
   61.0790   32.5390   47.4000 C   0  0  0  0  0  0  0  0  0  0  0  0
   62.0930   33.4410   46.7840 C   0  0  0  0  0  0  0  0  0  0  0  0
   60.8000   31.3170   46.8120 C   0  0  0  0  0  0  0  0  0  0  0  0
   59.8760   30.4320   47.3240 C   0  0  0  0  0  0  0  0  0  0  0  0
   59.5730   29.1760   46.7310 N   0  0  0  0  0  0  0  0  0  0  0  0
   58.3010   28.5390   47.0320 C   0  0  0  0  0  0  0  0  0  0  0  0
   58.0570   27.4800   45.9660 C   0  0  0  0  0  0  0  0  0  0  0  0
   58.3960   27.9590   44.6850 N   0  0  0  0  0  0  0  0  0  0  0  0
   57.4030   28.5340   43.8780 C   0  0  0  0  0  0  0  0  0  0  0  0
   57.1220   29.9450   44.2420 C   0  0  0  0  0  0  0  0  0  0  0  0
   56.0180   30.1730   44.8050 O   0  0  0  0  0  0  0  0  0  0  0  0
   57.9820   31.0250   44.0140 N   0  0  0  0  0  0  0  0  0  0  0  0
   57.5960   32.3610   44.4180 C   0  0  0  0  0  0  0  0  0  0  0  0
   57.6420   32.4870   45.9470 C   0  0  0  0  0  0  0  0  0  0  0  0
   57.4150   34.0010   46.0640 C   0  0  0  0  0  0  0  0  0  0  0  0
   58.1610   34.5890   44.8840 C   0  0  0  0  0  0  0  0  0  0  0  0
   58.5670   33.4290   44.0010 C   0  0  0  0  0  0  0  0  0  0  0  0
   59.7000   28.4660   44.4800 C   0  0  0  0  0  0  0  0  0  0  0  0
   60.4550   28.4750   45.8270 C   0  0  0  0  0  0  0  0  0  0  0  0
   59.2220   30.8170   48.4760 C   0  0  0  0  0  0  0  0  0  0  0  0
   59.3433   32.1073   51.1971 H   0  0  0  0  0  0  0  0  0  0  0  0
   58.6001   33.4979   50.3366 H   0  0  0  0  0  0  0  0  0  0  0  0
   57.7803   31.8996   50.3366 H   0  0  0  0  0  0  0  0  0  0  0  0
   60.6138   33.8854   49.0495 H   0  0  0  0  0  0  0  0  0  0  0  0
   62.6627   33.9478   47.5768 H   0  0  0  0  0  0  0  0  0  0  0  0
   62.7793   32.8494   46.1603 H   0  0  0  0  0  0  0  0  0  0  0  0
   61.5854   34.1915   46.1603 H   0  0  0  0  0  0  0  0  0  0  0  0
   61.3403   31.0400   45.8947 H   0  0  0  0  0  0  0  0  0  0  0  0
   58.3419   28.0693   48.0258 H   0  0  0  0  0  0  0  0  0  0  0  0
   57.4878   29.2797   47.0361 H   0  0  0  0  0  0  0  0  0  0  0  0
   58.6703   26.5953   46.1921 H   0  0  0  0  0  0  0  0  0  0  0  0
   56.9877   27.2219   45.9697 H   0  0  0  0  0  0  0  0  0  0  0  0
   57.7361   28.4995   42.8302 H   0  0  0  0  0  0  0  0  0  0  0  0
   56.4769   27.9594   44.0268 H   0  0  0  0  0  0  0  0  0  0  0  0
   58.9100   30.9000   43.5640 H   0  0  0  0  0  0  0  0  0  0  0  0
   56.6067   32.4970   43.9567 H   0  0  0  0  0  0  0  0  0  0  0  0
   56.8417   31.9101   46.4336 H   0  0  0  0  0  0  0  0  0  0  0  0
   58.5542   32.1045   46.4282 H   0  0  0  0  0  0  0  0  0  0  0  0
   56.3428   34.2391   46.0039 H   0  0  0  0  0  0  0  0  0  0  0  0
   57.7682   34.4038   47.0248 H   0  0  0  0  0  0  0  0  0  0  0  0
   57.5077   35.2775   44.3280 H   0  0  0  0  0  0  0  0  0  0  0  0
   59.0413   35.1580   45.2175 H   0  0  0  0  0  0  0  0  0  0  0  0
   58.4526   33.6789   42.9359 H   0  0  0  0  0  0  0  0  0  0  0  0
   59.6215   33.1362   44.1120 H   0  0  0  0  0  0  0  0  0  0  0  0
   60.2351   27.8273   43.7619 H   0  0  0  0  0  0  0  0  0  0  0  0
   59.6417   29.4892   44.0805 H   0  0  0  0  0  0  0  0  0  0  0  0
   60.6359   27.4484   46.1782 H   0  0  0  0  0  0  0  0  0  0  0  0
   61.4422   28.9541   45.7501 H   0  0  0  0  0  0  0  0  0  0  0  0
   58.4754   30.1454   48.9250 H   0  0  0  0  0  0  0  0  0  0  0  0
  1  2  1  0
  2  3  2  0
  3  4  1  0
  4  5  1  0
  4  6  2  0
  6  7  1  0
  7  8  1  0
  8  9  1  0
  9 10  1  0
 10 11  1  0
 11 12  1  0
 12 13  1  0
 13 14  2  0
 13 15  1  0
 15 16  1  0
 16 17  1  0
 17 18  1  0
 18 19  1  0
 19 20  1  0
 11 21  1  0
 21 22  1  0
  7 23  2  0
 23  2  1  0
 22  8  1  0
 20 16  1  0
  1 24  1  0
  1 25  1  0
  1 26  1  0
  3 27  1  0
  5 28  1  0
  5 29  1  0
  5 30  1  0
  6 31  1  0
  9 32  1  0
  9 33  1  0
 10 34  1  0
 10 35  1  0
 12 36  1  0
 12 37  1  0
 15 38  1  0
 16 39  1  0
 17 40  1  0
 17 41  1  0
 18 42  1  0
 18 43  1  0
 19 44  1  0
 19 45  1  0
 20 46  1  0
 20 47  1  0
 21 48  1  0
 21 49  1  0
 22 50  1  0
 22 51  1  0
 23 52  1  0
M  END
>  <smiles>  (2) 
Cc1cc(C)cc(N2CCN(CC(=O)NC3CCCC3)CC2)c1

>  <score_type>  (2) 
oracle

>  <origin>  (2) 
adg

>  <m_score__min__energy>  (2) 
-7.7000000000000002

>  <m_primary>  (2) 
energy

$$$$
4:0
     RDKit          3D

 56 58  0  0  0  0  0  0  0  0999 V2000
   59.3590   29.5180   48.7400 C   0  0  0  0  0  0  0  0  0  0  0  0
   59.6930   30.7000   49.6480 C   0  0  0  0  0  0  0  0  0  0  0  0
   60.0710   31.8570   48.8300 N   0  0  0  0  0  0  0  0  0  0  0  0
   61.3880   32.3860   48.8190 C   0  0  0  0  0  0  0  0  0  0  0  0
   62.4540   31.5320   49.0260 C   0  0  0  0  0  0  0  0  0  0  0  0
   63.7770   31.9690   49.0350 C   0  0  0  0  0  0  0  0  0  0  0  0
   63.9820   33.3260   48.8240 C   0  0  0  0  0  0  0  0  0  0  0  0
   62.8960   34.1700   48.6180 C   0  0  0  0  0  0  0  0  0  0  0  0
   61.6090   33.7430   48.6100 C   0  0  0  0  0  0  0  0  0  0  0  0
   60.4160   34.5820   48.3800 C   0  0  0  0  0  0  0  0  0  0  0  0
   59.6280   34.2510   47.2540 N   0  0  0  0  0  0  0  0  0  0  0  0
   58.2440   34.0340   47.4250 C   0  0  0  0  0  0  0  0  0  0  0  0
   57.7630   33.1930   46.2310 C   0  0  0  0  0  0  0  0  0  0  0  0
   58.4990   31.9670   46.2540 N   0  0  0  0  0  0  0  0  0  0  0  0
   57.8700   30.9360   45.4320 C   0  0  0  0  0  0  0  0  0  0  0  0
   58.8020   29.8030   45.3100 C   0  0  0  0  0  0  0  0  0  0  0  0
   58.2120   28.4600   45.0250 C   0  0  0  0  0  0  0  0  0  0  0  0
   57.7180   28.4190   43.6030 C   0  0  0  0  0  0  0  0  0  0  0  0
   56.5670   29.3560   43.3640 C   0  0  0  0  0  0  0  0  0  0  0  0
   56.9910   30.7490   43.0560 C   0  0  0  0  0  0  0  0  0  0  0  0
   57.3900   31.5980   44.2010 C   0  0  0  0  0  0  0  0  0  0  0  0
   59.8700   32.2280   45.8830 C   0  0  0  0  0  0  0  0  0  0  0  0
   60.2700   33.6620   46.1400 C   0  0  0  0  0  0  0  0  0  0  0  0
   59.1112   28.6410   49.3560 H   0  0  0  0  0  0  0  0  0  0  0  0
   58.4983   29.7751   48.1051 H   0  0  0  0  0  0  0  0  0  0  0  0
   60.2269   29.2867   48.1051 H   0  0  0  0  0  0  0  0  0  0  0  0
   58.8129   30.9540   50.2570 H   0  0  0  0  0  0  0  0  0  0  0  0
   60.5309   30.4291   50.3071 H   0  0  0  0  0  0  0  0  0  0  0  0
   59.3150   32.2860   48.2420 H   0  0  0  0  0  0  0  0  0  0  0  0
   62.2500   30.4636   49.1904 H   0  0  0  0  0  0  0  0  0  0  0  0
   64.6148   31.2756   49.2005 H   0  0  0  0  0  0  0  0  0  0  0  0
   65.0037   33.7336   48.8198 H   0  0  0  0  0  0  0  0  0  0  0  0
   63.0913   35.2399   48.4529 H   0  0  0  0  0  0  0  0  0  0  0  0
   59.7759   34.5068   49.2714 H   0  0  0  0  0  0  0  0  0  0  0  0
   60.8009   35.5934   48.1830 H   0  0  0  0  0  0  0  0  0  0  0  0
   58.0610   33.4927   48.3650 H   0  0  0  0  0  0  0  0  0  0  0  0
   57.7023   34.9903   47.4716 H   0  0  0  0  0  0  0  0  0  0  0  0
   56.6862   32.9881   46.3237 H   0  0  0  0  0  0  0  0  0  0  0  0
   57.9264   33.7291   45.2845 H   0  0  0  0  0  0  0  0  0  0  0  0
   56.9715   30.4690   45.8615 H   0  0  0  0  0  0  0  0  0  0  0  0
   59.5018   30.0367   44.4941 H   0  0  0  0  0  0  0  0  0  0  0  0
   59.2608   29.7054   46.3050 H   0  0  0  0  0  0  0  0  0  0  0  0
   58.9790   27.6847   45.1690 H   0  0  0  0  0  0  0  0  0  0  0  0
   57.3712   28.2765   45.7102 H   0  0  0  0  0  0  0  0  0  0  0  0
   58.5453   28.6993   42.9344 H   0  0  0  0  0  0  0  0  0  0  0  0
   57.3631   27.3973   43.4028 H   0  0  0  0  0  0  0  0  0  0  0  0
   55.9783   28.9755   42.5163 H   0  0  0  0  0  0  0  0  0  0  0  0
   55.9813   29.3938   44.2944 H   0  0  0  0  0  0  0  0  0  0  0  0
   57.8495   30.6909   42.3708 H   0  0  0  0  0  0  0  0  0  0  0  0
   56.0967   31.2343   42.6381 H   0  0  0  0  0  0  0  0  0  0  0  0
   58.1970   32.2584   43.8508 H   0  0  0  0  0  0  0  0  0  0  0  0
   56.4579   32.0956   44.5069 H   0  0  0  0  0  0  0  0  0  0  0  0
   60.5267   31.5672   46.4679 H   0  0  0  0  0  0  0  0  0  0  0  0
   59.9686   32.0392   44.8038 H   0  0  0  0  0  0  0  0  0  0  0  0
   61.3561   33.6919   46.3119 H   0  0  0  0  0  0  0  0  0  0  0  0
   59.9630   34.2397   45.2557 H   0  0  0  0  0  0  0  0  0  0  0  0
  1  2  1  0
  2  3  1  0
  3  4  1  0
  4  5  2  0
  5  6  1  0
  6  7  2  0
  7  8  1  0
  8  9  2  0
  9 10  1  0
 10 11  1  0
 11 12  1  0
 12 13  1  0
 13 14  1  0
 14 15  1  0
 15 16  1  0
 16 17  1  0
 17 18  1  0
 18 19  1  0
 19 20  1  0
 20 21  1  0
 14 22  1  0
 22 23  1  0
  9  4  1  0
 23 11  1  0
 21 15  1  0
  1 24  1  0
  1 25  1  0
  1 26  1  0
  2 27  1  0
  2 28  1  0
  3 29  1  0
  5 30  1  0
  6 31  1  0
  7 32  1  0
  8 33  1  0
 10 34  1  0
 10 35  1  0
 12 36  1  0
 12 37  1  0
 13 38  1  0
 13 39  1  0
 15 40  1  0
 16 41  1  0
 16 42  1  0
 17 43  1  0
 17 44  1  0
 18 45  1  0
 18 46  1  0
 19 47  1  0
 19 48  1  0
 20 49  1  0
 20 50  1  0
 21 51  1  0
 21 52  1  0
 22 53  1  0
 22 54  1  0
 23 55  1  0
 23 56  1  0
M  END
>  <smiles>  (3) 
CCNc1ccccc1CN1CCN(C2CCCCCC2)CC1

>  <score_type>  (3) 
oracle

>  <origin>  (3) 
adg

>  <m_score__min__energy>  (3) 
-5

>  <m_primary>  (3) 
energy

$$$$
6:0
     RDKit          3D

 60 62  0  0  0  0  0  0  0  0999 V2000
   60.2040   30.1910   47.1330 C   0  0  0  0  0  0  0  0  0  0  0  0
   60.3560   29.8250   48.5930 C   0  0  0  0  0  0  0  0  0  0  0  0
   59.0550   29.6540   49.2930 C   0  0  0  0  0  0  0  0  0  0  0  0
   58.9480   30.2040   50.5960 N   0  0  0  0  0  0  0  0  0  0  0  0
   59.0790   29.3130   51.6960 C   0  0  0  0  0  0  0  0  0  0  0  0
   57.7480   29.3860   52.4690 C   0  0  0  0  0  0  0  0  0  0  0  0
   56.7380   29.8510   51.6620 O   0  0  0  0  0  0  0  0  0  0  0  0
   56.1570   31.0060   52.1210 C   0  0  0  0  0  0  0  0  0  0  0  0
   57.0830   31.7860   53.0400 C   0  0  0  0  0  0  0  0  0  0  0  0
   58.2640   32.1200   52.4460 O   0  0  0  0  0  0  0  0  0  0  0  0
   58.5100   33.4650   52.5230 C   0  0  0  0  0  0  0  0  0  0  0  0
   59.2800   34.0310   51.3670 C   0  0  0  0  0  0  0  0  0  0  0  0
   59.7890   32.9680   50.5100 N   0  0  0  0  0  0  0  0  0  0  0  0
   60.6300   33.2050   49.4090 C   0  0  0  0  0  0  0  0  0  0  0  0
   60.2000   33.5430   48.1460 C   0  0  0  0  0  0  0  0  0  0  0  0
   58.8360   33.6690   47.9690 C   0  0  0  0  0  0  0  0  0  0  0  0
   58.3120   34.0130   46.7390 C   0  0  0  0  0  0  0  0  0  0  0  0
   59.2180   34.2190   45.7190 C   0  0  0  0  0  0  0  0  0  0  0  0
   60.5890   34.0920   45.8980 C   0  0  0  0  0  0  0  0  0  0  0  0
   61.1050   33.7490   47.1270 C   0  0  0  0  0  0  0  0  0  0  0  0
   62.4350   33.6400   47.2720 N   0  0  0  0  0  0  0  0  0  0  0  0
   63.3980   33.8320   46.2370 C   0  0  0  0  0  0  0  0  0  0  0  0
   62.8850   33.3080   48.5110 C   0  0  0  0  0  0  0  0  0  0  0  0
   64.2250   33.1670   48.7970 C   0  0  0  0  0  0  0  0  0  0  0  0
   64.6810   32.8270   50.0710 C   0  0  0  0  0  0  0  0  0  0  0  0
   66.4160   32.6600   50.3790 Cl  0  0  0  0  0  0  0  0  0  0  0  0
   63.7990   32.6160   51.1060 C   0  0  0  0  0  0  0  0  0  0  0  0
   62.4600   32.7540   50.8340 C   0  0  0  0  0  0  0  0  0  0  0  0
   62.0100   33.0910   49.5690 C   0  0  0  0  0  0  0  0  0  0  0  0
   59.7833   31.2040   47.0508 H   0  0  0  0  0  0  0  0  0  0  0  0
   61.1886   30.1620   46.6433 H   0  0  0  0  0  0  0  0  0  0  0  0
   59.5296   29.4731   46.6433 H   0  0  0  0  0  0  0  0  0  0  0  0
   60.9158   28.8805   48.6601 H   0  0  0  0  0  0  0  0  0  0  0  0
   60.8849   30.6549   49.0845 H   0  0  0  0  0  0  0  0  0  0  0  0
   58.2789   30.1227   48.6701 H   0  0  0  0  0  0  0  0  0  0  0  0
   58.9454   28.5682   49.4312 H   0  0  0  0  0  0  0  0  0  0  0  0
   58.1440   30.8250   50.7150 H   0  0  0  0  0  0  0  0  0  0  0  0
   59.2562   28.2882   51.3377 H   0  0  0  0  0  0  0  0  0  0  0  0
   59.9300   29.5887   52.3361 H   0  0  0  0  0  0  0  0  0  0  0  0
   57.4860   28.3809   52.8311 H   0  0  0  0  0  0  0  0  0  0  0  0
   57.8699   30.0789   53.3146 H   0  0  0  0  0  0  0  0  0  0  0  0
   55.8968   31.6387   51.2596 H   0  0  0  0  0  0  0  0  0  0  0  0
   55.2622   30.7290   52.6976 H   0  0  0  0  0  0  0  0  0  0  0  0
   56.5728   32.7098   53.3501 H   0  0  0  0  0  0  0  0  0  0  0  0
   57.3172   31.1390   53.8982 H   0  0  0  0  0  0  0  0  0  0  0  0
   57.5433   33.9870   52.5786 H   0  0  0  0  0  0  0  0  0  0  0  0
   59.1361   33.6146   53.4149 H   0  0  0  0  0  0  0  0  0  0  0  0
   58.6178   34.6825   50.7778 H   0  0  0  0  0  0  0  0  0  0  0  0
   60.1328   34.6039   51.7600 H   0  0  0  0  0  0  0  0  0  0  0  0
   59.5260   31.9730   50.7070 H   0  0  0  0  0  0  0  0  0  0  0  0
   58.1592   33.4932   48.8181 H   0  0  0  0  0  0  0  0  0  0  0  0
   57.2285   34.1174   46.5804 H   0  0  0  0  0  0  0  0  0  0  0  0
   58.8389   34.4950   44.7240 H   0  0  0  0  0  0  0  0  0  0  0  0
   61.2683   34.2669   45.0507 H   0  0  0  0  0  0  0  0  0  0  0  0
   64.3833   34.0285   46.6848 H   0  0  0  0  0  0  0  0  0  0  0  0
   63.4522   32.9270   45.6141 H   0  0  0  0  0  0  0  0  0  0  0  0
   63.1010   34.6886   45.6141 H   0  0  0  0  0  0  0  0  0  0  0  0
   64.9599   33.3278   47.9944 H   0  0  0  0  0  0  0  0  0  0  0  0
   64.1528   32.3472   52.1123 H   0  0  0  0  0  0  0  0  0  0  0  0
   61.7285   32.5931   51.6396 H   0  0  0  0  0  0  0  0  0  0  0  0
  1  2  1  0
  2  3  1  0
  3  4  1  0
  4  5  1  0
  5  6  1  0
  6  7  1  0
  7  8  1  0
  8  9  1  0
  9 10  1  0
 10 11  1  0
 11 12  1  0
 12 13  1  0
 13 14  1  0
 14 15  2  0
 15 16  1  0
 16 17  2  0
 17 18  1  0
 18 19  2  0
 19 20  1  0
 20 21  2  0
 21 22  1  0
 21 23  1  0
 23 24  2  0
 24 25  1  0
 25 26  1  0
 25 27  2  0
 27 28  1  0
 28 29  2  0
 29 14  1  0
 20 15  1  0
 29 23  1  0
  1 30  1  0
  1 31  1  0
  1 32  1  0
  2 33  1  0
  2 34  1  0
  3 35  1  0
  3 36  1  0
  4 37  1  0
  5 38  1  0
  5 39  1  0
  6 40  1  0
  6 41  1  0
  8 42  1  0
  8 43  1  0
  9 44  1  0
  9 45  1  0
 11 46  1  0
 11 47  1  0
 12 48  1  0
 12 49  1  0
 13 50  1  0
 16 51  1  0
 17 52  1  0
 18 53  1  0
 19 54  1  0
 22 55  1  0
 22 56  1  0
 22 57  1  0
 24 58  1  0
 27 59  1  0
 28 60  1  0
M  CHG  1  21   1
M  END
>  <smiles>  (4) 
CCCNCCOCCOCCNc1c2ccccc2[n+](C)c2cc(Cl)ccc12

>  <score_type>  (4) 
oracle

>  <origin>  (4) 
adg

>  <m_score__min__energy>  (4) 
-5.6900000000000004

>  <m_primary>  (4) 
energy

$$$$
7:0
     RDKit          3D

 69 72  0  0  0  0  0  0  0  0999 V2000
   50.9190   24.5170   44.0680 C   0  0  0  0  0  0  0  0  0  0  0  0
   51.2080   23.4820   45.1290 C   0  0  0  0  0  0  0  0  0  0  0  0
   52.5100   22.9600   45.0230 O   0  0  0  0  0  0  0  0  0  0  0  0
   53.4480   22.9750   46.0290 C   0  0  0  0  0  0  0  0  0  0  0  0
   53.1180   22.6080   47.1850 O   0  0  0  0  0  0  0  0  0  0  0  0
   54.7820   23.3960   45.7830 N   0  0  0  0  0  0  0  0  0  0  0  0
   55.7800   23.4150   46.8350 C   0  0  0  0  0  0  0  0  0  0  0  0
   56.2750   24.8400   47.0310 C   0  0  0  0  0  0  0  0  0  0  0  0
   56.3770   25.5720   45.7230 C   0  0  0  0  0  0  0  0  0  0  0  0
   57.5490   26.4770   45.6160 C   0  0  0  0  0  0  0  0  0  0  0  0
   57.4840   27.5710   44.7410 N   0  0  0  0  0  0  0  0  0  0  0  0
   56.6680   28.6810   45.0480 C   0  0  0  0  0  0  0  0  0  0  0  0
   57.0650   29.9370   44.2870 C   0  0  0  0  0  0  0  0  0  0  0  0
   58.5260   30.2440   44.3580 C   0  0  0  0  0  0  0  0  0  0  0  0
   58.7830   31.3180   45.3490 C   0  0  0  0  0  0  0  0  0  0  0  0
   59.5950   31.2020   46.4660 C   0  0  0  0  0  0  0  0  0  0  0  0
   59.6020   32.3940   47.1620 C   0  0  0  0  0  0  0  0  0  0  0  0
   60.2980   32.7770   48.4040 C   0  0  0  0  0  0  0  0  0  0  0  0
   61.5680   33.3790   48.0660 N   0  0  0  0  0  0  0  0  0  0  0  0
   62.6120   32.4150   48.2990 C   0  0  0  0  0  0  0  0  0  0  0  0
   63.6970   32.7030   47.2890 C   0  0  0  0  0  0  0  0  0  0  0  0
   63.1450   33.8510   46.4850 C   0  0  0  0  0  0  0  0  0  0  0  0
   61.6490   33.6750   46.6380 C   0  0  0  0  0  0  0  0  0  0  0  0
   58.7950   33.2130   46.4540 N   0  0  0  0  0  0  0  0  0  0  0  0
   58.5020   34.5940   46.8230 C   0  0  0  0  0  0  0  0  0  0  0  0
   58.3150   32.5740   45.3880 N   0  0  0  0  0  0  0  0  0  0  0  0
   59.3710   29.0100   44.5830 C   0  0  0  0  0  0  0  0  0  0  0  0
   58.6330   27.8270   43.9420 C   0  0  0  0  0  0  0  0  0  0  0  0
   56.5270   24.5050   44.6280 C   0  0  0  0  0  0  0  0  0  0  0  0
   55.1650   23.8240   44.4350 C   0  0  0  0  0  0  0  0  0  0  0  0
   50.6529   25.4701   44.5484 H   0  0  0  0  0  0  0  0  0  0  0  0
   51.8119   24.6590   43.4414 H   0  0  0  0  0  0  0  0  0  0  0  0
   50.0818   24.1759   43.4414 H   0  0  0  0  0  0  0  0  0  0  0  0
   51.0929   23.9479   46.1188 H   0  0  0  0  0  0  0  0  0  0  0  0
   50.4996   22.6517   44.9919 H   0  0  0  0  0  0  0  0  0  0  0  0
   55.3341   23.0486   47.7714 H   0  0  0  0  0  0  0  0  0  0  0  0
   56.6234   22.7666   46.5553 H   0  0  0  0  0  0  0  0  0  0  0  0
   55.5725   25.3755   47.6865 H   0  0  0  0  0  0  0  0  0  0  0  0
   57.2773   24.7983   47.4823 H   0  0  0  0  0  0  0  0  0  0  0  0
   55.4785   26.1996   45.6289 H   0  0  0  0  0  0  0  0  0  0  0  0
   57.7388   26.8794   46.6220 H   0  0  0  0  0  0  0  0  0  0  0  0
   58.3361   25.8405   45.1855 H   0  0  0  0  0  0  0  0  0  0  0  0
   55.6269   28.4318   44.7949 H   0  0  0  0  0  0  0  0  0  0  0  0
   56.7895   28.8930   46.1205 H   0  0  0  0  0  0  0  0  0  0  0  0
   56.7884   29.8053   43.2305 H   0  0  0  0  0  0  0  0  0  0  0  0
   56.5356   30.7791   44.7567 H   0  0  0  0  0  0  0  0  0  0  0  0
   58.8400   30.6243   43.3747 H   0  0  0  0  0  0  0  0  0  0  0  0
   60.1499   30.2970   46.7543 H   0  0  0  0  0  0  0  0  0  0  0  0
   59.6846   33.4993   48.9626 H   0  0  0  0  0  0  0  0  0  0  0  0
   60.4636   31.8856   49.0269 H   0  0  0  0  0  0  0  0  0  0  0  0
   63.0061   32.5215   49.3204 H   0  0  0  0  0  0  0  0  0  0  0  0
   62.2342   31.3873   48.1938 H   0  0  0  0  0  0  0  0  0  0  0  0
   64.6329   32.9903   47.7906 H   0  0  0  0  0  0  0  0  0  0  0  0
   63.9429   31.8288   46.6683 H   0  0  0  0  0  0  0  0  0  0  0  0
   63.4748   34.8171   46.8948 H   0  0  0  0  0  0  0  0  0  0  0  0
   63.4798   33.8511   45.4372 H   0  0  0  0  0  0  0  0  0  0  0  0
   61.1023   34.5942   46.3809 H   0  0  0  0  0  0  0  0  0  0  0  0
   61.2050   32.9112   45.9827 H   0  0  0  0  0  0  0  0  0  0  0  0
   58.4828   34.6845   47.9191 H   0  0  0  0  0  0  0  0  0  0  0  0
   59.2797   35.2557   46.4140 H   0  0  0  0  0  0  0  0  0  0  0  0
   57.5226   34.8829   46.4140 H   0  0  0  0  0  0  0  0  0  0  0  0
   60.3569   29.1381   44.1122 H   0  0  0  0  0  0  0  0  0  0  0  0
   59.5260   28.8354   45.6579 H   0  0  0  0  0  0  0  0  0  0  0  0
   58.3302   28.0820   42.9157 H   0  0  0  0  0  0  0  0  0  0  0  0
   59.2819   26.9402   43.8921 H   0  0  0  0  0  0  0  0  0  0  0  0
   56.8436   24.9786   43.6870 H   0  0  0  0  0  0  0  0  0  0  0  0
   57.2854   23.7637   44.9200 H   0  0  0  0  0  0  0  0  0  0  0  0
   54.4291   24.5325   44.0269 H   0  0  0  0  0  0  0  0  0  0  0  0
   55.2104   22.9858   43.7241 H   0  0  0  0  0  0  0  0  0  0  0  0
  1  2  1  0
  2  3  1  0
  3  4  1  0
  4  5  2  0
  4  6  1  0
  6  7  1  0
  7  8  1  0
  8  9  1  0
  9 10  1  0
 10 11  1  0
 11 12  1  0
 12 13  1  0
 13 14  1  0
 14 15  1  0
 15 16  1  0
 16 17  2  0
 17 18  1  0
 18 19  1  0
 19 20  1  0
 20 21  1  0
 21 22  1  0
 22 23  1  0
 17 24  1  0
 24 25  1  0
 24 26  1  0
 14 27  1  0
 27 28  1  0
  9 29  1  0
 29 30  1  0
 30  6  1  0
 28 11  1  0
 26 15  2  0
 23 19  1  0
  1 31  1  0
  1 32  1  0
  1 33  1  0
  2 34  1  0
  2 35  1  0
  7 36  1  0
  7 37  1  0
  8 38  1  0
  8 39  1  0
  9 40  1  0
 10 41  1  0
 10 42  1  0
 12 43  1  0
 12 44  1  0
 13 45  1  0
 13 46  1  0
 14 47  1  0
 16 48  1  0
 18 49  1  0
 18 50  1  0
 20 51  1  0
 20 52  1  0
 21 53  1  0
 21 54  1  0
 22 55  1  0
 22 56  1  0
 23 57  1  0
 23 58  1  0
 25 59  1  0
 25 60  1  0
 25 61  1  0
 27 62  1  0
 27 63  1  0
 28 64  1  0
 28 65  1  0
 29 66  1  0
 29 67  1  0
 30 68  1  0
 30 69  1  0
M  END
>  <smiles>  (5) 
CCOC(=O)N1CCC(CN2CCC(c3cc(CN4CCCC4)n(C)n3)CC2)CC1

>  <score_type>  (5) 
oracle

>  <origin>  (5) 
adg

>  <m_score__min__energy>  (5) 
-8.8499999999999996

>  <m_primary>  (5) 
energy

$$$$
8:0
     RDKit          3D

 81 83  0  0  0  0  0  0  0  0999 V2000
   56.2680   30.0810   42.8430 C   0  0  0  0  0  0  0  0  0  0  0  0
   55.5100   29.9500   44.1260 C   0  0  0  0  0  0  0  0  0  0  0  0
   56.1540   29.2090   45.0970 O   0  0  0  0  0  0  0  0  0  0  0  0
   57.3170   28.5930   44.6040 C   0  0  0  0  0  0  0  0  0  0  0  0
   57.3450   27.1260   44.9730 C   0  0  0  0  0  0  0  0  0  0  0  0
   56.8030   26.8160   46.1810 O   0  0  0  0  0  0  0  0  0  0  0  0
   57.4300   25.8900   46.9580 C   0  0  0  0  0  0  0  0  0  0  0  0
   58.6050   26.4340   47.7320 C   0  0  0  0  0  0  0  0  0  0  0  0
   59.7480   26.5430   46.9720 O   0  0  0  0  0  0  0  0  0  0  0  0
   60.2720   27.7890   46.8270 C   0  0  0  0  0  0  0  0  0  0  0  0
   59.9550   28.7730   47.9300 C   0  0  0  0  0  0  0  0  0  0  0  0
   59.1340   29.8650   47.2760 C   0  0  0  0  0  0  0  0  0  0  0  0
   59.8960   30.6790   46.2720 C   0  0  0  0  0  0  0  0  0  0  0  0
   58.8600   31.0940   45.2240 C   0  0  0  0  0  0  0  0  0  0  0  0
   57.6980   31.6570   45.8870 N   0  0  0  0  0  0  0  0  0  0  0  0
   57.0560   32.6560   45.0900 C   0  0  0  0  0  0  0  0  0  0  0  0
   57.9570   33.7100   44.5230 C   0  0  0  0  0  0  0  0  0  0  0  0
   59.1720   33.9440   45.2190 N   0  0  0  0  0  0  0  0  0  0  0  0
   59.3570   35.2060   45.8430 C   0  0  0  0  0  0  0  0  0  0  0  0
   59.2090   35.0080   47.3670 C   0  0  0  0  0  0  0  0  0  0  0  0
   59.2010   33.5820   47.6180 N   0  0  0  0  0  0  0  0  0  0  0  0
   60.1030   32.9660   48.5380 C   0  0  0  0  0  0  0  0  0  0  0  0
   61.4720   32.9820   48.3710 C   0  0  0  0  0  0  0  0  0  0  0  0
   61.9540   33.6330   47.2550 C   0  0  0  0  0  0  0  0  0  0  0  0
   63.3050   33.6950   47.0190 C   0  0  0  0  0  0  0  0  0  0  0  0
   64.1630   33.0950   47.9190 C   0  0  0  0  0  0  0  0  0  0  0  0
   63.6550   32.4400   49.0440 C   0  0  0  0  0  0  0  0  0  0  0  0
   62.2980   32.3670   49.2990 C   0  0  0  0  0  0  0  0  0  0  0  0
   61.8090   31.7330   50.3930 N   0  0  0  0  0  0  0  0  0  0  0  0
   62.7460   31.1210   51.2870 C   0  0  0  0  0  0  0  0  0  0  0  0
   60.4780   31.7270   50.5410 C   0  0  0  0  0  0  0  0  0  0  0  0
   59.9200   31.1100   51.6190 C   0  0  0  0  0  0  0  0  0  0  0  0
   58.5390   31.0910   51.7960 C   0  0  0  0  0  0  0  0  0  0  0  0
   57.6700   31.6850   50.9080 C   0  0  0  0  0  0  0  0  0  0  0  0
   58.2350   32.3110   49.8140 C   0  0  0  0  0  0  0  0  0  0  0  0
   59.6080   32.3290   49.6390 C   0  0  0  0  0  0  0  0  0  0  0  0
   57.3303   30.2646   43.0618 H   0  0  0  0  0  0  0  0  0  0  0  0
   56.1685   29.1523   42.2619 H   0  0  0  0  0  0  0  0  0  0  0  0
   55.8626   30.9224   42.2619 H   0  0  0  0  0  0  0  0  0  0  0  0
   55.3326   30.9596   44.5251 H   0  0  0  0  0  0  0  0  0  0  0  0
   54.5801   29.4131   43.8873 H   0  0  0  0  0  0  0  0  0  0  0  0
   57.3399   28.6899   43.5085 H   0  0  0  0  0  0  0  0  0  0  0  0
   58.1934   29.0858   45.0501 H   0  0  0  0  0  0  0  0  0  0  0  0
   56.7914   26.5716   44.2008 H   0  0  0  0  0  0  0  0  0  0  0  0
   58.4081   26.8514   45.0394 H   0  0  0  0  0  0  0  0  0  0  0  0
   56.6992   25.4882   47.6753 H   0  0  0  0  0  0  0  0  0  0  0  0
   57.8247   25.1194   46.2795 H   0  0  0  0  0  0  0  0  0  0  0  0
   58.3415   27.4316   48.1133 H   0  0  0  0  0  0  0  0  0  0  0  0
   58.8183   25.7254   48.5459 H   0  0  0  0  0  0  0  0  0  0  0  0
   61.3659   27.6895   46.7687 H   0  0  0  0  0  0  0  0  0  0  0  0
   59.8089   28.2019   45.9187 H   0  0  0  0  0  0  0  0  0  0  0  0
   59.3771   28.2832   48.7275 H   0  0  0  0  0  0  0  0  0  0  0  0
   60.8684   29.1726   48.3947 H   0  0  0  0  0  0  0  0  0  0  0  0
   58.2791   29.3972   46.7657 H   0  0  0  0  0  0  0  0  0  0  0  0
   58.8230   30.5534   48.0756 H   0  0  0  0  0  0  0  0  0  0  0  0
   60.3382   31.5657   46.7498 H   0  0  0  0  0  0  0  0  0  0  0  0
   60.7267   30.1115   45.8273 H   0  0  0  0  0  0  0  0  0  0  0  0
   59.2992   31.8465   44.5525 H   0  0  0  0  0  0  0  0  0  0  0  0
   58.5569   30.2126   44.6398 H   0  0  0  0  0  0  0  0  0  0  0  0
   57.0330   30.8970   46.1410 H   0  0  0  0  0  0  0  0  0  0  0  0
   56.5571   32.1499   44.2504 H   0  0  0  0  0  0  0  0  0  0  0  0
   56.3659   33.1822   45.7659 H   0  0  0  0  0  0  0  0  0  0  0  0
   58.2122   33.4141   43.4947 H   0  0  0  0  0  0  0  0  0  0  0  0
   57.3909   34.6500   44.5999 H   0  0  0  0  0  0  0  0  0  0  0  0
   59.3990   33.1200   45.8160 H   0  0  0  0  0  0  0  0  0  0  0  0
   60.3602   35.5936   45.6121 H   0  0  0  0  0  0  0  0  0  0  0  0
   58.6122   35.9277   45.4762 H   0  0  0  0  0  0  0  0  0  0  0  0
   60.0543   35.4776   47.8913 H   0  0  0  0  0  0  0  0  0  0  0  0
   58.2808   35.4724   47.7314 H   0  0  0  0  0  0  0  0  0  0  0  0
   58.5330   32.9370   47.1350 H   0  0  0  0  0  0  0  0  0  0  0  0
   61.2529   34.1047   46.5508 H   0  0  0  0  0  0  0  0  0  0  0  0
   63.6961   34.2124   46.1306 H   0  0  0  0  0  0  0  0  0  0  0  0
   65.2493   33.1327   47.7500 H   0  0  0  0  0  0  0  0  0  0  0  0
   64.3560   31.9681   49.7482 H   0  0  0  0  0  0  0  0  0  0  0  0
   62.4439   31.3183   52.3261 H   0  0  0  0  0  0  0  0  0  0  0  0
   62.7657   30.0354   51.1107 H   0  0  0  0  0  0  0  0  0  0  0  0
   63.7480   31.5393   51.1107 H   0  0  0  0  0  0  0  0  0  0  0  0
   60.5689   30.6200   52.3599 H   0  0  0  0  0  0  0  0  0  0  0  0
   58.1262   30.5818   52.6793 H   0  0  0  0  0  0  0  0  0  0  0  0
   56.5811   31.6621   51.0621 H   0  0  0  0  0  0  0  0  0  0  0  0
   57.5862   32.8010   49.0731 H   0  0  0  0  0  0  0  0  0  0  0  0
  1  2  1  0
  2  3  1  0
  3  4  1  0
  4  5  1  0
  5  6  1  0
  6  7  1  0
  7  8  1  0
  8  9  1  0
  9 10  1  0
 10 11  1  0
 11 12  1  0
 12 13  1  0
 13 14  1  0
 14 15  1  0
 15 16  1  0
 16 17  1  0
 17 18  1  0
 18 19  1  0
 19 20  1  0
 20 21  1  0
 21 22  1  0
 22 23  2  0
 23 24  1  0
 24 25  2  0
 25 26  1  0
 26 27  2  0
 27 28  1  0
 28 29  2  0
 29 30  1  0
 29 31  1  0
 31 32  2  0
 32 33  1  0
 33 34  2  0
 34 35  1  0
 35 36  2  0
 36 22  1  0
 28 23  1  0
 36 31  1  0
  1 37  1  0
  1 38  1  0
  1 39  1  0
  2 40  1  0
  2 41  1  0
  4 42  1  0
  4 43  1  0
  5 44  1  0
  5 45  1  0
  7 46  1  0
  7 47  1  0
  8 48  1  0
  8 49  1  0
 10 50  1  0
 10 51  1  0
 11 52  1  0
 11 53  1  0
 12 54  1  0
 12 55  1  0
 13 56  1  0
 13 57  1  0
 14 58  1  0
 14 59  1  0
 15 60  1  0
 16 61  1  0
 16 62  1  0
 17 63  1  0
 17 64  1  0
 18 65  1  0
 19 66  1  0
 19 67  1  0
 20 68  1  0
 20 69  1  0
 21 70  1  0
 24 71  1  0
 25 72  1  0
 26 73  1  0
 27 74  1  0
 30 75  1  0
 30 76  1  0
 30 77  1  0
 32 78  1  0
 33 79  1  0
 34 80  1  0
 35 81  1  0
M  CHG  1  29   1
M  END
>  <smiles>  (6) 
CCOCCOCCOCCCCCNCCNCCNc1c2ccccc2[n+](C)c2ccccc12

>  <score_type>  (6) 
oracle

>  <origin>  (6) 
adg

>  <m_score__min__energy>  (6) 
-6.9500000000000002

>  <m_primary>  (6) 
energy

$$$$
9:0
     RDKit          3D

 63 66  0  0  1  0  0  0  0  0999 V2000
   57.0120   24.5990   42.9900 C   0  0  0  0  0  0  0  0  0  0  0  0
   57.2250   23.4820   43.9200 C   0  0  0  0  0  0  0  0  0  0  0  0
   57.0030   22.1970   43.4010 C   0  0  0  0  0  0  0  0  0  0  0  0
   57.1870   21.0800   44.1590 C   0  0  0  0  0  0  0  0  0  0  0  0
   57.6010   21.2570   45.4620 C   0  0  0  0  0  0  0  0  0  0  0  0
   57.8190   22.5170   45.9720 C   0  0  0  0  0  0  0  0  0  0  0  0
   57.6350   23.6780   45.2060 C   0  0  0  0  0  0  0  0  0  0  0  0
   57.8520   24.9010   45.8450 N   0  0  0  0  0  0  0  0  0  0  0  0
   56.8340   25.4320   46.7760 C   0  0  0  0  0  0  0  0  0  0  0  0
   56.2070   26.5800   46.0450 C   0  0  0  0  0  0  0  0  0  0  0  0
   57.1770   27.4120   45.4160 N   0  0  0  0  0  0  0  0  0  0  0  0
   56.7340   28.7410   45.1720 C   0  0  0  0  0  0  0  0  0  0  0  0
   57.1690   29.2360   43.8330 C   0  0  0  0  0  0  0  0  0  0  0  0
   57.4500   30.7450   43.8800 C   0  0  0  0  0  0  0  0  0  0  0  0
   57.3530   31.1570   45.2640 N   0  0  0  0  0  0  0  0  0  0  0  0
   58.1190   32.0720   45.7330 C   0  0  0  0  0  0  0  0  0  0  0  0
   57.9210   33.4270   45.8800 C   0  0  0  0  0  0  0  0  0  0  0  0
   59.0680   33.9520   46.4380 C   0  0  0  0  0  0  0  0  0  0  0  0
   59.3060   35.3590   46.7720 C   0  0  0  0  0  0  0  0  0  0  0  0
   59.9270   32.9320   46.6190 N   0  0  0  0  0  0  0  0  0  0  0  0
   61.2290   32.9860   47.1630 C   0  0  0  0  0  0  0  0  0  0  0  0
   62.2700   33.6150   46.4980 C   0  0  0  0  0  0  0  0  0  0  0  0
   63.5500   33.6830   47.0060 C   0  0  0  0  0  0  0  0  0  0  0  0
   63.8070   33.0890   48.2480 C   0  0  0  0  0  0  0  0  0  0  0  0
   62.7710   32.4500   48.9340 C   0  0  0  0  0  0  0  0  0  0  0  0
   61.5000   32.4070   48.3860 C   0  0  0  0  0  0  0  0  0  0  0  0
   59.3710   31.7940   46.2010 N   0  0  0  0  0  0  0  0  0  0  0  0
   59.9970   30.4690   46.2340 C   0  0  0  0  0  0  0  0  0  0  0  0
   58.5310   27.2390   45.8020 C   0  0  0  0  0  0  0  0  0  0  0  0
   58.9970   25.7860   45.6700 C   0  0  0  0  0  0  0  0  0  0  0  0
   56.8359   25.5227   43.5607 H   0  0  0  0  0  0  0  0  0  0  0  0
   57.9026   24.7236   42.3565 H   0  0  0  0  0  0  0  0  0  0  0  0
   56.1381   24.3871   42.3565 H   0  0  0  0  0  0  0  0  0  0  0  0
   56.6726   22.0892   42.3574 H   0  0  0  0  0  0  0  0  0  0  0  0
   57.0119   20.0752   43.7470 H   0  0  0  0  0  0  0  0  0  0  0  0
   57.7596   20.3780   46.1040 H   0  0  0  0  0  0  0  0  0  0  0  0
   58.1490   22.6170   47.0166 H   0  0  0  0  0  0  0  0  0  0  0  0
   56.0821   24.6631   47.0074 H   0  0  0  0  0  0  0  0  0  0  0  0
   57.2716   25.7413   47.7367 H   0  0  0  0  0  0  0  0  0  0  0  0
   55.5292   26.1821   45.2754 H   0  0  0  0  0  0  0  0  0  0  0  0
   55.6633   27.1917   46.7800 H   0  0  0  0  0  0  0  0  0  0  0  0
   55.6353   28.7640   45.2198 H   0  0  0  0  0  0  0  0  0  0  0  0
   57.1782   29.3942   45.9375 H   0  0  0  0  0  0  0  0  0  0  0  0
   58.0852   28.7068   43.5320 H   0  0  0  0  0  0  0  0  0  0  0  0
   56.3647   29.0474   43.1066 H   0  0  0  0  0  0  0  0  0  0  0  0
   58.4595   30.9523   43.4952 H   0  0  0  0  0  0  0  0  0  0  0  0
   56.7288   31.2954   43.2580 H   0  0  0  0  0  0  0  0  0  0  0  0
   57.0155   33.9870   45.6035 H   0  0  0  0  0  0  0  0  0  0  0  0
   59.3261   35.4780   47.8654 H   0  0  0  0  0  0  0  0  0  0  0  0
   60.2708   35.6777   46.3507 H   0  0  0  0  0  0  0  0  0  0  0  0
   58.4997   35.9773   46.3507 H   0  0  0  0  0  0  0  0  0  0  0  0
   62.0660   34.0802   45.5223 H   0  0  0  0  0  0  0  0  0  0  0  0
   64.3505   34.1918   46.4489 H   0  0  0  0  0  0  0  0  0  0  0  0
   64.8177   33.1253   48.6805 H   0  0  0  0  0  0  0  0  0  0  0  0
   62.9651   31.9809   49.9098 H   0  0  0  0  0  0  0  0  0  0  0  0
   60.6918   31.9022   48.9355 H   0  0  0  0  0  0  0  0  0  0  0  0
   60.1436   30.1587   47.2791 H   0  0  0  0  0  0  0  0  0  0  0  0
   59.3465   29.7433   45.7238 H   0  0  0  0  0  0  0  0  0  0  0  0
   60.9707   30.5107   45.7238 H   0  0  0  0  0  0  0  0  0  0  0  0
   59.1638   27.8720   45.1626 H   0  0  0  0  0  0  0  0  0  0  0  0
   58.6155   27.5224   46.8615 H   0  0  0  0  0  0  0  0  0  0  0  0
   59.4354   25.6287   44.6735 H   0  0  0  0  0  0  0  0  0  0  0  0
   59.7548   25.5683   46.4371 H   0  0  0  0  0  0  0  0  0  0  0  0
  1  2  1  0
  2  3  2  0
  3  4  1  0
  4  5  2  0
  5  6  1  0
  6  7  2  0
  7  8  1  0
  8  9  1  0
  9 10  1  0
 10 11  1  0
 11 12  1  0
 12 13  1  0
 13 14  1  0
 14 15  1  0
 15 16  2  0
 16 17  1  0
 17 18  2  0
 18 19  1  0
 18 20  1  0
 20 21  1  0
 21 22  2  0
 22 23  1  0
 23 24  2  0
 24 25  1  0
 25 26  2  0
 20 27  1  0
 27 28  1  0
 11 29  1  0
 29 30  1  0
  7  2  1  0
 30  8  1  0
 27 16  1  0
 26 21  1  0
  1 31  1  0
  1 32  1  0
  1 33  1  0
  3 34  1  0
  4 35  1  0
  5 36  1  0
  6 37  1  0
  9 38  1  0
  9 39  1  0
 10 40  1  0
 10 41  1  0
 12 42  1  0
 12 43  1  0
 13 44  1  0
 13 45  1  0
 14 46  1  0
 14 47  1  0
 17 48  1  0
 19 49  1  0
 19 50  1  0
 19 51  1  0
 22 52  1  0
 23 53  1  0
 24 54  1  0
 25 55  1  0
 26 56  1  0
 28 57  1  0
 28 58  1  0
 28 59  1  0
 29 60  1  0
 29 61  1  0
 30 62  1  0
 30 63  1  0
M  END
>  <smiles>  (7) 
Cc1ccccc1N1CCN(CCCN=c2cc(C)n(-c3ccccc3)n2C)CC1

>  <score_type>  (7) 
oracle

>  <origin>  (7) 
adg

>  <m_score__min__energy>  (7) 
-9.1199999999999992

>  <m_primary>  (7) 
energy

$$$$
10:0
     RDKit          3D

 45 48  0  0  0  0  0  0  0  0999 V2000
   59.0030   29.3680   49.1460 C   0  0  0  0  0  0  0  0  0  0  0  0
   59.6380   28.8010   47.9010 C   0  0  0  0  0  0  0  0  0  0  0  0
   58.6560   28.5510   46.8550 N   0  0  0  0  0  0  0  0  0  0  0  0
   58.2970   27.2980   46.5470 C   0  0  0  0  0  0  0  0  0  0  0  0
   58.8120   26.3160   47.1640 O   0  0  0  0  0  0  0  0  0  0  0  0
   57.3650   27.0240   45.5570 C   0  0  0  0  0  0  0  0  0  0  0  0
   57.0140   25.6320   45.2660 C   0  0  0  0  0  0  0  0  0  0  0  0
   56.3020   24.8750   46.1910 C   0  0  0  0  0  0  0  0  0  0  0  0
   55.9890   23.5540   45.8720 C   0  0  0  0  0  0  0  0  0  0  0  0
   56.3850   23.0150   44.6560 C   0  0  0  0  0  0  0  0  0  0  0  0
   57.0920   23.7600   43.7330 C   0  0  0  0  0  0  0  0  0  0  0  0
   57.4070   25.0830   44.0470 C   0  0  0  0  0  0  0  0  0  0  0  0
   56.8200   28.0660   44.9040 N   0  0  0  0  0  0  0  0  0  0  0  0
   57.1560   29.3450   45.1870 C   0  0  0  0  0  0  0  0  0  0  0  0
   56.5800   30.4060   44.4980 C   0  0  0  0  0  0  0  0  0  0  0  0
   56.9460   31.6830   44.8140 N   0  0  0  0  0  0  0  0  0  0  0  0
   57.8560   31.8930   45.7830 C   0  0  0  0  0  0  0  0  0  0  0  0
   58.1950   33.2460   46.0640 N   0  0  0  0  0  0  0  0  0  0  0  0
   58.2590   34.2240   45.0280 C   0  0  0  0  0  0  0  0  0  0  0  0
   59.2870   35.2920   45.2210 C   0  0  0  0  0  0  0  0  0  0  0  0
   59.7150   35.5190   46.5590 N   0  0  0  0  0  0  0  0  0  0  0  0
   59.8940   34.3020   47.3140 C   0  0  0  0  0  0  0  0  0  0  0  0
   58.4920   33.6890   47.4290 C   0  0  0  0  0  0  0  0  0  0  0  0
   58.4230   30.8750   46.4580 N   0  0  0  0  0  0  0  0  0  0  0  0
   58.0980   29.5780   46.1890 C   0  0  0  0  0  0  0  0  0  0  0  0
   59.4872   28.9357   50.0340 H   0  0  0  0  0  0  0  0  0  0  0  0
   59.1275   30.4609   49.1560 H   0  0  0  0  0  0  0  0  0  0  0  0
   57.9311   29.1210   49.1560 H   0  0  0  0  0  0  0  0  0  0  0  0
   60.3837   29.5168   47.5247 H   0  0  0  0  0  0  0  0  0  0  0  0
   60.1065   27.8413   48.1646 H   0  0  0  0  0  0  0  0  0  0  0  0
   55.9926   25.3091   47.1532 H   0  0  0  0  0  0  0  0  0  0  0  0
   55.4258   22.9366   46.5873 H   0  0  0  0  0  0  0  0  0  0  0  0
   56.1299   21.9708   44.4222 H   0  0  0  0  0  0  0  0  0  0  0  0
   57.3998   23.3210   42.7725 H   0  0  0  0  0  0  0  0  0  0  0  0
   57.9692   25.6963   43.3274 H   0  0  0  0  0  0  0  0  0  0  0  0
   55.8382   30.2191   43.7076 H   0  0  0  0  0  0  0  0  0  0  0  0
   58.4811   33.7050   44.0839 H   0  0  0  0  0  0  0  0  0  0  0  0
   57.2849   34.7350   45.0312 H   0  0  0  0  0  0  0  0  0  0  0  0
   60.1717   35.0171   44.6279 H   0  0  0  0  0  0  0  0  0  0  0  0
   58.8020   36.2273   44.9049 H   0  0  0  0  0  0  0  0  0  0  0  0
   59.1730   36.1980   47.1100 H   0  0  0  0  0  0  0  0  0  0  0  0
   60.5724   33.6164   46.7851 H   0  0  0  0  0  0  0  0  0  0  0  0
   60.3411   34.4927   48.3007 H   0  0  0  0  0  0  0  0  0  0  0  0
   58.4915   32.8384   48.1265 H   0  0  0  0  0  0  0  0  0  0  0  0
   57.7469   34.3979   47.8193 H   0  0  0  0  0  0  0  0  0  0  0  0
  1  2  1  0
  2  3  1  0
  3  4  1  0
  4  5  2  0
  4  6  1  0
  6  7  1  0
  7  8  2  0
  8  9  1  0
  9 10  2  0
 10 11  1  0
 11 12  2  0
  6 13  2  0
 13 14  1  0
 14 15  2  0
 15 16  1  0
 16 17  2  0
 17 18  1  0
 18 19  1  0
 19 20  1  0
 20 21  1  0
 21 22  1  0
 22 23  1  0
 17 24  1  0
 24 25  2  0
 25  3  1  0
 12  7  1  0
 25 14  1  0
 23 18  1  0
  1 26  1  0
  1 27  1  0
  1 28  1  0
  2 29  1  0
  2 30  1  0
  8 31  1  0
  9 32  1  0
 10 33  1  0
 11 34  1  0
 12 35  1  0
 15 36  1  0
 19 37  1  0
 19 38  1  0
 20 39  1  0
 20 40  1  0
 21 41  1  0
 22 42  1  0
 22 43  1  0
 23 44  1  0
 23 45  1  0
M  END
>  <smiles>  (8) 
CCn1c(=O)c(-c2ccccc2)nc2cnc(N3CCNCC3)nc21

>  <score_type>  (8) 
oracle

>  <origin>  (8) 
adg

>  <m_score__min__energy>  (8) 
-7.46

>  <m_primary>  (8) 
energy

$$$$
11:0
     RDKit          3D

 60 62  0  0  0  0  0  0  0  0999 V2000
   58.8910   30.7720   47.8940 C   0  0  0  0  0  0  0  0  0  0  0  0
   60.1400   29.9570   47.4620 C   0  0  0  0  0  0  0  0  0  0  0  0
   59.7220   29.1570   46.3960 N   0  0  0  0  0  0  0  0  0  0  0  0
   60.5250   29.2060   45.2330 C   0  0  0  0  0  0  0  0  0  0  0  0
   58.4000   28.7970   46.1700 C   0  0  0  0  0  0  0  0  0  0  0  0
   57.8250   29.3590   44.8680 C   0  0  0  0  0  0  0  0  0  0  0  0
   56.7400   30.1210   44.9820 O   0  0  0  0  0  0  0  0  0  0  0  0
   56.5780   31.3200   44.4590 C   0  0  0  0  0  0  0  0  0  0  0  0
   57.7260   31.8840   43.6010 C   0  0  0  0  0  0  0  0  0  0  0  0
   58.5870   32.5250   44.4260 O   0  0  0  0  0  0  0  0  0  0  0  0
   58.5860   33.8700   44.4890 C   0  0  0  0  0  0  0  0  0  0  0  0
   59.1150   34.4040   45.8090 C   0  0  0  0  0  0  0  0  0  0  0  0
   59.9950   33.5370   46.4180 N   0  0  0  0  0  0  0  0  0  0  0  0
   61.1850   33.5090   47.1290 C   0  0  0  0  0  0  0  0  0  0  0  0
   62.3870   33.5090   46.4440 C   0  0  0  0  0  0  0  0  0  0  0  0
   63.6160   33.5060   47.1230 C   0  0  0  0  0  0  0  0  0  0  0  0
   63.6020   33.5020   48.4980 C   0  0  0  0  0  0  0  0  0  0  0  0
   62.4230   33.4990   49.2400 C   0  0  0  0  0  0  0  0  0  0  0  0
   61.2590   33.5020   48.5190 C   0  0  0  0  0  0  0  0  0  0  0  0
   60.0810   33.4870   49.3090 C   0  0  0  0  0  0  0  0  0  0  0  0
   60.1300   33.4700   50.6830 C   0  0  0  0  0  0  0  0  0  0  0  0
   58.8950   33.4460   51.3540 C   0  0  0  0  0  0  0  0  0  0  0  0
   58.9080   33.4210   52.7560 C   0  0  0  0  0  0  0  0  0  0  0  0
   60.1290   33.4200   53.3480 C   0  0  0  0  0  0  0  0  0  0  0  0
   61.3540   33.4440   52.7350 C   0  0  0  0  0  0  0  0  0  0  0  0
   61.3280   33.4690   51.3370 C   0  0  0  0  0  0  0  0  0  0  0  0
   62.4550   33.4840   50.5840 N   0  0  0  0  0  0  0  0  0  0  0  0
   63.7060   33.5150   51.2960 C   0  0  0  0  0  0  0  0  0  0  0  0
   58.8377   30.8068   48.9922 H   0  0  0  0  0  0  0  0  0  0  0  0
   58.9660   31.7955   47.4979 H   0  0  0  0  0  0  0  0  0  0  0  0
   57.9844   30.2911   47.4979 H   0  0  0  0  0  0  0  0  0  0  0  0
   60.9461   30.6329   47.1406 H   0  0  0  0  0  0  0  0  0  0  0  0
   60.5357   29.3523   48.2913 H   0  0  0  0  0  0  0  0  0  0  0  0
   61.5845   29.2707   45.5215 H   0  0  0  0  0  0  0  0  0  0  0  0
   60.3622   28.2963   44.6365 H   0  0  0  0  0  0  0  0  0  0  0  0
   60.2528   30.0892   44.6365 H   0  0  0  0  0  0  0  0  0  0  0  0
   58.3405   27.6993   46.1310 H   0  0  0  0  0  0  0  0  0  0  0  0
   57.8057   29.2197   46.9935 H   0  0  0  0  0  0  0  0  0  0  0  0
   58.6095   29.9629   44.3886 H   0  0  0  0  0  0  0  0  0  0  0  0
   57.5068   28.4817   44.2857 H   0  0  0  0  0  0  0  0  0  0  0  0
   55.6800   31.2839   43.8247 H   0  0  0  0  0  0  0  0  0  0  0  0
   56.5171   31.9966   45.3242 H   0  0  0  0  0  0  0  0  0  0  0  0
   58.2447   31.0628   43.0846 H   0  0  0  0  0  0  0  0  0  0  0  0
   57.3326   32.5783   42.8439 H   0  0  0  0  0  0  0  0  0  0  0  0
   59.2163   34.2592   43.6758 H   0  0  0  0  0  0  0  0  0  0  0  0
   57.5417   34.2025   44.3950 H   0  0  0  0  0  0  0  0  0  0  0  0
   59.6322   35.3565   45.6215 H   0  0  0  0  0  0  0  0  0  0  0  0
   58.2558   34.5340   46.4834 H   0  0  0  0  0  0  0  0  0  0  0  0
   59.6040   32.4710   46.2900 H   0  0  0  0  0  0  0  0  0  0  0  0
   62.3797   33.5114   45.3440 H   0  0  0  0  0  0  0  0  0  0  0  0
   64.5662   33.5068   46.5689 H   0  0  0  0  0  0  0  0  0  0  0  0
   64.5622   33.5011   49.0346 H   0  0  0  0  0  0  0  0  0  0  0  0
   59.1014   33.4890   48.8087 H   0  0  0  0  0  0  0  0  0  0  0  0
   57.9470   33.4468   50.7961 H   0  0  0  0  0  0  0  0  0  0  0  0
   57.9786   33.4032   53.3441 H   0  0  0  0  0  0  0  0  0  0  0  0
   60.1361   33.3973   54.4477 H   0  0  0  0  0  0  0  0  0  0  0  0
   62.2951   33.4436   53.3044 H   0  0  0  0  0  0  0  0  0  0  0  0
   63.5119   33.5102   52.3787 H   0  0  0  0  0  0  0  0  0  0  0  0
   64.3032   32.6314   51.0266 H   0  0  0  0  0  0  0  0  0  0  0  0
   64.2587   34.4271   51.0266 H   0  0  0  0  0  0  0  0  0  0  0  0
  1  2  1  0
  2  3  1  0
  3  4  1  0
  3  5  1  0
  5  6  1  0
  6  7  1  0
  7  8  1  0
  8  9  1  0
  9 10  1  0
 10 11  1  0
 11 12  1  0
 12 13  1  0
 13 14  1  0
 14 15  2  0
 15 16  1  0
 16 17  2  0
 17 18  1  0
 18 19  2  0
 19 20  1  0
 20 21  2  0
 21 22  1  0
 22 23  2  0
 23 24  1  0
 24 25  2  0
 25 26  1  0
 26 27  2  0
 27 28  1  0
 19 14  1  0
 26 21  1  0
 27 18  1  0
  1 29  1  0
  1 30  1  0
  1 31  1  0
  2 32  1  0
  2 33  1  0
  4 34  1  0
  4 35  1  0
  4 36  1  0
  5 37  1  0
  5 38  1  0
  6 39  1  0
  6 40  1  0
  8 41  1  0
  8 42  1  0
  9 43  1  0
  9 44  1  0
 11 45  1  0
 11 46  1  0
 12 47  1  0
 12 48  1  0
 13 49  1  0
 15 50  1  0
 16 51  1  0
 17 52  1  0
 20 53  1  0
 22 54  1  0
 23 55  1  0
 24 56  1  0
 25 57  1  0
 28 58  1  0
 28 59  1  0
 28 60  1  0
M  CHG  1  27   1
M  END
>  <smiles>  (9) 
CCN(C)CCOCCOCCNc1cccc2c1cc1ccccc1[n+]2C

>  <score_type>  (9) 
oracle

>  <origin>  (9) 
adg

>  <m_score__min__energy>  (9) 
-5.1500000000000004

>  <m_primary>  (9) 
energy

$$$$
12:0
     RDKit          3D

 77 80  0  0  0  0  0  0  0  0999 V2000
   60.2230   31.2460   53.6940 C   0  0  0  0  0  0  0  0  0  0  0  0
   59.0350   31.0100   52.8300 C   0  0  0  0  0  0  0  0  0  0  0  0
   58.3930   32.1810   52.3040 N   0  0  0  0  0  0  0  0  0  0  0  0
   58.2890   33.1890   53.3390 C   0  0  0  0  0  0  0  0  0  0  0  0
   58.5170   34.5760   52.8250 C   0  0  0  0  0  0  0  0  0  0  0  0
   57.0580   31.9430   51.7870 C   0  0  0  0  0  0  0  0  0  0  0  0
   56.5800   30.5400   52.0890 C   0  0  0  0  0  0  0  0  0  0  0  0
   59.1780   32.6820   51.2150 C   0  0  0  0  0  0  0  0  0  0  0  0
   58.5970   32.4410   49.8510 C   0  0  0  0  0  0  0  0  0  0  0  0
   59.7180   32.1780   48.9110 N   0  0  0  0  0  0  0  0  0  0  0  0
   59.3170   31.7460   47.6230 C   0  0  0  0  0  0  0  0  0  0  0  0
   59.1590   32.7700   46.6880 C   0  0  0  0  0  0  0  0  0  0  0  0
   59.4530   34.0910   47.0470 C   0  0  0  0  0  0  0  0  0  0  0  0
   59.3290   35.1490   46.1930 C   0  0  0  0  0  0  0  0  0  0  0  0
   58.8930   34.8990   44.9150 C   0  0  0  0  0  0  0  0  0  0  0  0
   58.5920   33.5970   44.5260 C   0  0  0  0  0  0  0  0  0  0  0  0
   58.7250   32.5480   45.4050 C   0  0  0  0  0  0  0  0  0  0  0  0
   58.4440   31.2870   45.0420 N   0  0  0  0  0  0  0  0  0  0  0  0
   57.9860   30.9360   43.7160 C   0  0  0  0  0  0  0  0  0  0  0  0
   58.5880   30.2720   45.9210 C   0  0  0  0  0  0  0  0  0  0  0  0
   58.2830   28.9990   45.4890 C   0  0  0  0  0  0  0  0  0  0  0  0
   58.4190   27.9440   46.3540 C   0  0  0  0  0  0  0  0  0  0  0  0
   58.8610   28.1770   47.6400 C   0  0  0  0  0  0  0  0  0  0  0  0
   59.1810   29.4350   48.1230 C   0  0  0  0  0  0  0  0  0  0  0  0
   59.6650   29.5450   49.4370 N   0  0  0  0  0  0  0  0  0  0  0  0
   61.0960   29.2650   49.7110 C   0  0  0  0  0  0  0  0  0  0  0  0
   61.6570   30.1980   50.7540 C   0  0  0  0  0  0  0  0  0  0  0  0
   62.9800   30.7590   50.3490 C   0  0  0  0  0  0  0  0  0  0  0  0
   62.9370   31.7790   49.3580 N   0  0  0  0  0  0  0  0  0  0  0  0
   62.8690   33.0820   49.7530 C   0  0  0  0  0  0  0  0  0  0  0  0
   62.8240   34.1210   48.8620 C   0  0  0  0  0  0  0  0  0  0  0  0
   62.8490   33.8400   47.5000 C   0  0  0  0  0  0  0  0  0  0  0  0
   62.9170   32.5110   47.1280 C   0  0  0  0  0  0  0  0  0  0  0  0
   62.9610   31.4770   48.0460 C   0  0  0  0  0  0  0  0  0  0  0  0
   59.0300   30.4780   47.2340 C   0  0  0  0  0  0  0  0  0  0  0  0
   59.9251   31.1868   54.7512 H   0  0  0  0  0  0  0  0  0  0  0  0
   60.9861   30.4819   53.4848 H   0  0  0  0  0  0  0  0  0  0  0  0
   60.6361   32.2438   53.4848 H   0  0  0  0  0  0  0  0  0  0  0  0
   59.3563   30.3920   51.9786 H   0  0  0  0  0  0  0  0  0  0  0  0
   58.2880   30.5308   53.4799 H   0  0  0  0  0  0  0  0  0  0  0  0
   57.2818   33.1385   53.7784 H   0  0  0  0  0  0  0  0  0  0  0  0
   59.0710   32.9799   54.0838 H   0  0  0  0  0  0  0  0  0  0  0  0
   58.6306   35.2673   53.6731 H   0  0  0  0  0  0  0  0  0  0  0  0
   59.4302   34.5944   52.2121 H   0  0  0  0  0  0  0  0  0  0  0  0
   57.6577   34.8858   52.2121 H   0  0  0  0  0  0  0  0  0  0  0  0
   56.3645   32.6621   52.2474 H   0  0  0  0  0  0  0  0  0  0  0  0
   57.0877   32.0661   50.6943 H   0  0  0  0  0  0  0  0  0  0  0  0
   56.5309   30.3959   53.1784 H   0  0  0  0  0  0  0  0  0  0  0  0
   55.5806   30.3916   51.6541 H   0  0  0  0  0  0  0  0  0  0  0  0
   57.2809   29.8123   51.6541 H   0  0  0  0  0  0  0  0  0  0  0  0
   59.2948   33.7675   51.3494 H   0  0  0  0  0  0  0  0  0  0  0  0
   60.1311   32.1336   51.2448 H   0  0  0  0  0  0  0  0  0  0  0  0
   57.9238   31.5716   49.8809 H   0  0  0  0  0  0  0  0  0  0  0  0
   58.0216   33.3187   49.5216 H   0  0  0  0  0  0  0  0  0  0  0  0
   60.7110   32.3430   49.1970 H   0  0  0  0  0  0  0  0  0  0  0  0
   59.8024   34.2868   48.0715 H   0  0  0  0  0  0  0  0  0  0  0  0
   59.5711   36.1713   46.5190 H   0  0  0  0  0  0  0  0  0  0  0  0
   58.7818   35.7270   44.1994 H   0  0  0  0  0  0  0  0  0  0  0  0
   58.2428   33.4044   43.5008 H   0  0  0  0  0  0  0  0  0  0  0  0
   57.1151   30.2686   43.7936 H   0  0  0  0  0  0  0  0  0  0  0  0
   57.7009   31.8491   43.1729 H   0  0  0  0  0  0  0  0  0  0  0  0
   58.7936   30.4234   43.1729 H   0  0  0  0  0  0  0  0  0  0  0  0
   57.9337   28.8311   44.4595 H   0  0  0  0  0  0  0  0  0  0  0  0
   58.1781   26.9221   46.0260 H   0  0  0  0  0  0  0  0  0  0  0  0
   58.9649   27.3173   48.3183 H   0  0  0  0  0  0  0  0  0  0  0  0
   59.1860   29.8270   50.2970 H   0  0  0  0  0  0  0  0  0  0  0  0
   61.1944   28.2296   50.0690 H   0  0  0  0  0  0  0  0  0  0  0  0
   61.6594   29.4149   48.7782 H   0  0  0  0  0  0  0  0  0  0  0  0
   60.9507   31.0276   50.9051 H   0  0  0  0  0  0  0  0  0  0  0  0
   61.8008   29.6240   51.6813 H   0  0  0  0  0  0  0  0  0  0  0  0
   63.4588   31.1785   51.2461 H   0  0  0  0  0  0  0  0  0  0  0  0
   63.5360   29.9239   49.8979 H   0  0  0  0  0  0  0  0  0  0  0  0
   62.8495   33.3076   50.8294 H   0  0  0  0  0  0  0  0  0  0  0  0
   62.7690   35.1605   49.2175 H   0  0  0  0  0  0  0  0  0  0  0  0
   62.8160   34.6433   46.7493 H   0  0  0  0  0  0  0  0  0  0  0  0
   62.9370   32.2646   46.0561 H   0  0  0  0  0  0  0  0  0  0  0  0
   63.0144   30.4305   47.7113 H   0  0  0  0  0  0  0  0  0  0  0  0
  1  2  1  0
  2  3  1  0
  3  4  1  0
  4  5  1  0
  3  6  1  0
  6  7  1  0
  3  8  1  0
  8  9  1  0
  9 10  1  0
 10 11  1  0
 11 12  2  0
 12 13  1  0
 13 14  2  0
 14 15  1  0
 15 16  2  0
 16 17  1  0
 17 18  2  0
 18 19  1  0
 18 20  1  0
 20 21  2  0
 21 22  1  0
 22 23  2  0
 23 24  1  0
 24 25  1  0
 25 26  1  0
 26 27  1  0
 27 28  1  0
 28 29  1  0
 29 30  2  0
 30 31  1  0
 31 32  2  0
 32 33  1  0
 33 34  2  0
 24 35  2  0
 35 11  1  0
 17 12  1  0
 35 20  1  0
 34 29  1  0
  1 36  1  0
  1 37  1  0
  1 38  1  0
  2 39  1  0
  2 40  1  0
  4 41  1  0
  4 42  1  0
  5 43  1  0
  5 44  1  0
  5 45  1  0
  6 46  1  0
  6 47  1  0
  7 48  1  0
  7 49  1  0
  7 50  1  0
  8 51  1  0
  8 52  1  0
  9 53  1  0
  9 54  1  0
 10 55  1  0
 13 56  1  0
 14 57  1  0
 15 58  1  0
 16 59  1  0
 19 60  1  0
 19 61  1  0
 19 62  1  0
 21 63  1  0
 22 64  1  0
 23 65  1  0
 25 66  1  0
 26 67  1  0
 26 68  1  0
 27 69  1  0
 27 70  1  0
 28 71  1  0
 28 72  1  0
 30 73  1  0
 31 74  1  0
 32 75  1  0
 33 76  1  0
 34 77  1  0
M  CHG  3   3   1  18   1  29   1
M  END
>  <smiles>  (10) 
CC[N+](CC)(CC)CCNc1c2ccccc2[n+](C)c2cccc(NCCC[n+]3ccccc3)c12

>  <score_type>  (10) 
oracle

>  <origin>  (10) 
adg

>  <m_score__min__energy>  (10) 
-4.0800000000000001

>  <m_primary>  (10) 
energy

$$$$
14:0
     RDKit          3D

 43 46  0  0  1  0  0  0  0  0999 V2000
   57.4250   31.9570   41.7410 C   0  0  0  0  0  0  0  0  0  0  0  0
   57.1690   31.5280   43.1010 N   0  0  0  0  0  0  0  0  0  0  0  0
   56.3820   30.5350   43.4720 N   0  0  0  0  0  0  0  0  0  0  0  0
   56.3750   30.4090   44.7820 N   0  0  0  0  0  0  0  0  0  0  0  0
   57.1820   31.3540   45.2430 N   0  0  0  0  0  0  0  0  0  0  0  0
   57.6820   32.0570   44.2020 C   0  0  0  0  0  0  0  0  0  0  0  0
   58.8240   33.4290   44.4050 S   0  0  0  0  0  0  0  0  0  0  0  0
   58.1400   34.5440   45.6580 C   0  0  0  0  0  0  0  0  0  0  0  0
   58.1700   33.8890   47.0490 C   0  0  0  0  0  0  0  0  0  0  0  0
   59.5230   33.4320   47.3680 C   0  0  0  0  0  0  0  0  0  0  0  0
   59.8180   32.0700   47.5120 N   0  0  0  0  0  0  0  0  0  0  0  0
   58.8210   31.3270   48.2510 C   0  0  0  0  0  0  0  0  0  0  0  0
   59.3790   29.9660   48.3080 C   0  0  2  0  0  0  0  0  0  0  0  0
   60.7380   29.5230   48.0910 C   0  0  0  0  0  0  0  0  0  0  0  0
   59.9600   29.8490   46.8870 C   0  0  1  0  0  0  0  0  0  0  0  0
   59.2200   28.8760   46.0830 C   0  0  0  0  0  0  0  0  0  0  0  0
   58.2680   28.0240   46.6590 C   0  0  0  0  0  0  0  0  0  0  0  0
   57.5720   27.1000   45.8990 C   0  0  0  0  0  0  0  0  0  0  0  0
   57.7760   26.9650   44.5470 C   0  0  0  0  0  0  0  0  0  0  0  0
   58.7130   27.7990   43.9660 C   0  0  0  0  0  0  0  0  0  0  0  0
   59.4090   28.7260   44.7300 C   0  0  0  0  0  0  0  0  0  0  0  0
   60.1600   31.2770   46.4140 C   0  0  0  0  0  0  0  0  0  0  0  0
   57.9886   32.9015   41.7544 H   0  0  0  0  0  0  0  0  0  0  0  0
   58.0116   31.1873   41.2180 H   0  0  0  0  0  0  0  0  0  0  0  0
   56.4691   32.1078   41.2180 H   0  0  0  0  0  0  0  0  0  0  0  0
   58.7361   35.4682   45.6820 H   0  0  0  0  0  0  0  0  0  0  0  0
   57.0952   34.7680   45.3970 H   0  0  0  0  0  0  0  0  0  0  0  0
   57.8482   34.6231   47.8024 H   0  0  0  0  0  0  0  0  0  0  0  0
   57.4911   33.0235   47.0508 H   0  0  0  0  0  0  0  0  0  0  0  0
   60.1754   33.8083   46.5663 H   0  0  0  0  0  0  0  0  0  0  0  0
   59.6693   33.8161   48.3883 H   0  0  0  0  0  0  0  0  0  0  0  0
   58.6910   31.7413   49.2617 H   0  0  0  0  0  0  0  0  0  0  0  0
   57.8260   31.3629   47.7833 H   0  0  0  0  0  0  0  0  0  0  0  0
   58.7142   29.5819   49.0957 H   0  0  0  0  0  0  0  0  0  0  0  0
   61.5720   30.1761   48.3875 H   0  0  0  0  0  0  0  0  0  0  0  0
   61.3019   28.6332   48.4078 H   0  0  0  0  0  0  0  0  0  0  0  0
   58.0695   28.0911   47.7389 H   0  0  0  0  0  0  0  0  0  0  0  0
   56.8320   26.4532   46.3931 H   0  0  0  0  0  0  0  0  0  0  0  0
   57.2183   26.2259   43.9531 H   0  0  0  0  0  0  0  0  0  0  0  0
   58.9094   27.7273   42.8860 H   0  0  0  0  0  0  0  0  0  0  0  0
   60.1462   29.3706   44.2290 H   0  0  0  0  0  0  0  0  0  0  0  0
   61.2080   31.4461   46.1258 H   0  0  0  0  0  0  0  0  0  0  0  0
   59.5498   31.5096   45.5288 H   0  0  0  0  0  0  0  0  0  0  0  0
  1  2  1  0
  2  3  1  0
  3  4  2  0
  4  5  1  0
  5  6  2  0
  6  7  1  0
  7  8  1  0
  8  9  1  0
  9 10  1  0
 10 11  1  0
 11 12  1  0
 12 13  1  0
 13 14  1  0
 14 15  1  0
 15 16  1  6
 16 17  2  0
 17 18  1  0
 18 19  2  0
 19 20  1  0
 20 21  2  0
 15 22  1  0
  6  2  1  0
 22 11  1  0
 15 13  1  0
 21 16  1  0
  1 23  1  0
  1 24  1  0
  1 25  1  0
  8 26  1  0
  8 27  1  0
  9 28  1  0
  9 29  1  0
 10 30  1  0
 10 31  1  0
 12 32  1  0
 12 33  1  0
 13 34  1  6
 14 35  1  0
 14 36  1  0
 17 37  1  0
 18 38  1  0
 19 39  1  0
 20 40  1  0
 21 41  1  0
 22 42  1  0
 22 43  1  0
M  END
>  <smiles>  (11) 
Cn1nnnc1SCCCN1CC2CC2(c2ccccc2)C1

>  <score_type>  (11) 
oracle

>  <origin>  (11) 
adg

>  <m_score__min__energy>  (11) 
-8.8800000000000008

>  <m_primary>  (11) 
energy

$$$$
15:0
     RDKit          3D

 53 55  0  0  0  0  0  0  0  0999 V2000
   57.7960   28.0760   44.0520 C   0  0  0  0  0  0  0  0  0  0  0  0
   56.9520   28.5300   45.2490 C   0  0  0  0  0  0  0  0  0  0  0  0
   55.8510   29.2100   44.8220 O   0  0  0  0  0  0  0  0  0  0  0  0
   56.0240   29.9800   43.6980 C   0  0  0  0  0  0  0  0  0  0  0  0
   56.9030   31.1710   43.9240 C   0  0  0  0  0  0  0  0  0  0  0  0
   57.0300   31.5290   45.2420 O   0  0  0  0  0  0  0  0  0  0  0  0
   58.0880   32.3840   45.4640 C   0  0  0  0  0  0  0  0  0  0  0  0
   57.8650   33.2250   46.7210 C   0  0  0  0  0  0  0  0  0  0  0  0
   58.7590   34.4490   46.7040 C   0  0  0  0  0  0  0  0  0  0  0  0
   59.3270   34.6650   48.0080 N   0  0  0  0  0  0  0  0  0  0  0  0
   60.4160   33.9400   48.5450 C   0  0  0  0  0  0  0  0  0  0  0  0
   61.5360   33.5980   47.7860 C   0  0  0  0  0  0  0  0  0  0  0  0
   62.5690   32.8890   48.3640 C   0  0  0  0  0  0  0  0  0  0  0  0
   62.5480   32.5040   49.6530 N   0  0  0  0  0  0  0  0  0  0  0  0
   63.6500   31.7560   50.2450 C   0  0  0  0  0  0  0  0  0  0  0  0
   61.4830   32.8180   50.4130 C   0  0  0  0  0  0  0  0  0  0  0  0
   61.4240   32.4420   51.7400 C   0  0  0  0  0  0  0  0  0  0  0  0
   60.3390   32.7570   52.5330 C   0  0  0  0  0  0  0  0  0  0  0  0
   59.2690   33.4640   52.0190 C   0  0  0  0  0  0  0  0  0  0  0  0
   59.3270   33.8450   50.6810 C   0  0  0  0  0  0  0  0  0  0  0  0
   60.4080   33.5350   49.8800 C   0  0  0  0  0  0  0  0  0  0  0  0
   63.6350   32.6540   47.3460 C   0  0  0  0  0  0  0  0  0  0  0  0
   63.3950   33.8090   46.4070 C   0  0  0  0  0  0  0  0  0  0  0  0
   61.8810   33.8580   46.3580 C   0  0  0  0  0  0  0  0  0  0  0  0
   58.7108   27.5839   44.4139 H   0  0  0  0  0  0  0  0  0  0  0  0
   57.2159   27.3682   43.4417 H   0  0  0  0  0  0  0  0  0  0  0  0
   58.0668   28.9502   43.4417 H   0  0  0  0  0  0  0  0  0  0  0  0
   56.6332   27.6477   45.8234 H   0  0  0  0  0  0  0  0  0  0  0  0
   57.5585   29.1939   45.8826 H   0  0  0  0  0  0  0  0  0  0  0  0
   56.4771   29.3557   42.9138 H   0  0  0  0  0  0  0  0  0  0  0  0
   55.0328   30.3579   43.4069 H   0  0  0  0  0  0  0  0  0  0  0  0
   57.9041   30.9417   43.5299 H   0  0  0  0  0  0  0  0  0  0  0  0
   56.4285   32.0189   43.4084 H   0  0  0  0  0  0  0  0  0  0  0  0
   59.0075   31.7928   45.5864 H   0  0  0  0  0  0  0  0  0  0  0  0
   58.1746   33.0620   44.6022 H   0  0  0  0  0  0  0  0  0  0  0  0
   56.8133   33.5450   46.7610 H   0  0  0  0  0  0  0  0  0  0  0  0
   58.1094   32.6172   47.6047 H   0  0  0  0  0  0  0  0  0  0  0  0
   59.5688   34.2979   45.9750 H   0  0  0  0  0  0  0  0  0  0  0  0
   58.1605   35.3278   46.4221 H   0  0  0  0  0  0  0  0  0  0  0  0
   58.9200   35.4170   48.6380 H   0  0  0  0  0  0  0  0  0  0  0  0
   63.5787   31.8044   51.3416 H   0  0  0  0  0  0  0  0  0  0  0  0
   63.5971   30.7064   49.9201 H   0  0  0  0  0  0  0  0  0  0  0  0
   64.6059   32.1927   49.9201 H   0  0  0  0  0  0  0  0  0  0  0  0
   62.2617   31.8779   52.1759 H   0  0  0  0  0  0  0  0  0  0  0  0
   60.3261   32.4414   53.5867 H   0  0  0  0  0  0  0  0  0  0  0  0
   58.4010   33.7172   52.6454 H   0  0  0  0  0  0  0  0  0  0  0  0
   58.4871   34.4094   50.2496 H   0  0  0  0  0  0  0  0  0  0  0  0
   64.6386   32.6993   47.7940 H   0  0  0  0  0  0  0  0  0  0  0  0
   63.5950   31.6644   46.8674 H   0  0  0  0  0  0  0  0  0  0  0  0
   63.8134   34.7443   46.8071 H   0  0  0  0  0  0  0  0  0  0  0  0
   63.8693   33.6886   45.4218 H   0  0  0  0  0  0  0  0  0  0  0  0
   61.5201   34.8437   46.0292 H   0  0  0  0  0  0  0  0  0  0  0  0
   61.4292   33.1494   45.6483 H   0  0  0  0  0  0  0  0  0  0  0  0
  1  2  1  0
  2  3  1  0
  3  4  1  0
  4  5  1  0
  5  6  1  0
  6  7  1  0
  7  8  1  0
  8  9  1  0
  9 10  1  0
 10 11  1  0
 11 12  2  0
 12 13  1  0
 13 14  2  0
 14 15  1  0
 14 16  1  0
 16 17  2  0
 17 18  1  0
 18 19  2  0
 19 20  1  0
 20 21  2  0
 13 22  1  0
 22 23  1  0
 23 24  1  0
 21 11  1  0
 24 12  1  0
 21 16  1  0
  1 25  1  0
  1 26  1  0
  1 27  1  0
  2 28  1  0
  2 29  1  0
  4 30  1  0
  4 31  1  0
  5 32  1  0
  5 33  1  0
  7 34  1  0
  7 35  1  0
  8 36  1  0
  8 37  1  0
  9 38  1  0
  9 39  1  0
 10 40  1  0
 15 41  1  0
 15 42  1  0
 15 43  1  0
 17 44  1  0
 18 45  1  0
 19 46  1  0
 20 47  1  0
 22 48  1  0
 22 49  1  0
 23 50  1  0
 23 51  1  0
 24 52  1  0
 24 53  1  0
M  CHG  1  14   1
M  END
>  <smiles>  (12) 
CCOCCOCCCNc1c2c([n+](C)c3ccccc13)CCC2

>  <score_type>  (12) 
oracle

>  <origin>  (12) 
adg

>  <m_score__min__energy>  (12) 
-6.2800000000000002

>  <m_primary>  (12) 
energy

$$$$
16:0
     RDKit          3D

 70 71  0  0  0  0  0  0  0  0999 V2000
   61.6950   32.3740   53.5180 C   0  0  0  0  0  0  0  0  0  0  0  0
   60.8750   31.1770   53.9620 C   0  0  0  0  0  0  0  0  0  0  0  0
   60.8730   30.2350   52.9580 O   0  0  0  0  0  0  0  0  0  0  0  0
   61.6290   29.1160   53.2180 C   0  0  0  0  0  0  0  0  0  0  0  0
   62.2470   28.4810   52.0000 C   0  0  0  0  0  0  0  0  0  0  0  0
   63.0900   29.5050   51.2480 C   0  0  0  0  0  0  0  0  0  0  0  0
   62.2820   30.6370   50.8410 N   0  0  0  0  0  0  0  0  0  0  0  0
   62.8390   31.6960   50.0400 C   0  0  0  0  0  0  0  0  0  0  0  0
   64.0370   31.6150   49.6940 O   0  0  0  0  0  0  0  0  0  0  0  0
   61.9460   32.8380   49.6710 C   0  0  0  0  0  0  0  0  0  0  0  0
   60.7230   32.7320   50.3430 N   0  0  0  0  0  0  0  0  0  0  0  0
   59.8820   33.8670   50.3010 C   0  0  0  0  0  0  0  0  0  0  0  0
   59.1910   33.9890   51.6370 C   0  0  0  0  0  0  0  0  0  0  0  0
   58.7150   32.7950   52.1540 N   0  0  0  0  0  0  0  0  0  0  0  0
   57.5830   32.1600   51.6890 C   0  0  0  0  0  0  0  0  0  0  0  0
   57.7830   30.8800   50.9520 C   0  0  0  0  0  0  0  0  0  0  0  0
   59.1020   30.4850   50.8040 N   0  0  0  0  0  0  0  0  0  0  0  0
   59.5700   29.4480   50.0430 C   0  0  0  0  0  0  0  0  0  0  0  0
   59.7170   29.5530   48.5530 C   0  0  0  0  0  0  0  0  0  0  0  0
   59.6920   30.9780   48.1530 N   0  0  0  0  0  0  0  0  0  0  0  0
   59.0060   31.4390   47.0200 C   0  0  0  0  0  0  0  0  0  0  0  0
   58.1350   30.6070   46.3600 C   0  0  0  0  0  0  0  0  0  0  0  0
   57.4040   31.0190   45.2480 C   0  0  0  0  0  0  0  0  0  0  0  0
   56.5650   30.0970   44.6670 O   0  0  0  0  0  0  0  0  0  0  0  0
   56.4280   29.8970   43.2720 C   0  0  0  0  0  0  0  0  0  0  0  0
   57.5830   32.3110   44.8170 C   0  0  0  0  0  0  0  0  0  0  0  0
   58.4400   33.1700   45.4430 C   0  0  0  0  0  0  0  0  0  0  0  0
   58.6050   34.4660   44.9810 C   0  0  0  0  0  0  0  0  0  0  0  0
   59.4960   35.3020   45.6500 C   0  0  0  0  0  0  0  0  0  0  0  0
   60.1820   34.8080   46.7470 C   0  0  0  0  0  0  0  0  0  0  0  0
   60.0090   33.5400   47.1860 N   0  0  0  0  0  0  0  0  0  0  0  0
   59.1420   32.7230   46.5370 C   0  0  0  0  0  0  0  0  0  0  0  0
   62.0647   32.9136   54.4024 H   0  0  0  0  0  0  0  0  0  0  0  0
   62.5484   32.0305   52.9149 H   0  0  0  0  0  0  0  0  0  0  0  0
   61.0664   33.0457   52.9149 H   0  0  0  0  0  0  0  0  0  0  0  0
   61.3170   30.7447   54.8718 H   0  0  0  0  0  0  0  0  0  0  0  0
   59.8433   31.4932   54.1756 H   0  0  0  0  0  0  0  0  0  0  0  0
   62.4394   29.4012   53.9050 H   0  0  0  0  0  0  0  0  0  0  0  0
   60.9441   28.3691   53.6459 H   0  0  0  0  0  0  0  0  0  0  0  0
   62.8860   27.6416   52.3116 H   0  0  0  0  0  0  0  0  0  0  0  0
   61.4475   28.1162   51.3384 H   0  0  0  0  0  0  0  0  0  0  0  0
   63.8998   29.8571   51.9039 H   0  0  0  0  0  0  0  0  0  0  0  0
   63.5062   29.0272   50.3488 H   0  0  0  0  0  0  0  0  0  0  0  0
   61.2680   30.7020   51.1380 H   0  0  0  0  0  0  0  0  0  0  0  0
   62.4327   33.7844   49.9493 H   0  0  0  0  0  0  0  0  0  0  0  0
   61.7629   32.8145   48.5866 H   0  0  0  0  0  0  0  0  0  0  0  0
   60.4320   31.8850   50.7950 H   0  0  0  0  0  0  0  0  0  0  0  0
   60.4820   34.7685   50.1080 H   0  0  0  0  0  0  0  0  0  0  0  0
   59.1394   33.7611   49.4964 H   0  0  0  0  0  0  0  0  0  0  0  0
   59.9079   34.4121   52.3561 H   0  0  0  0  0  0  0  0  0  0  0  0
   58.3116   34.6296   51.4745 H   0  0  0  0  0  0  0  0  0  0  0  0
   58.9360   32.7190   53.1670 H   0  0  0  0  0  0  0  0  0  0  0  0
   56.9411   31.9472   52.5566 H   0  0  0  0  0  0  0  0  0  0  0  0
   57.1489   32.8510   50.9514 H   0  0  0  0  0  0  0  0  0  0  0  0
   57.2492   30.0869   51.4962 H   0  0  0  0  0  0  0  0  0  0  0  0
   57.3992   31.0499   49.9352 H   0  0  0  0  0  0  0  0  0  0  0  0
   59.8080   31.0110   51.3840 H   0  0  0  0  0  0  0  0  0  0  0  0
   60.5695   29.2069   50.4339 H   0  0  0  0  0  0  0  0  0  0  0  0
   58.7619   28.7083   50.1419 H   0  0  0  0  0  0  0  0  0  0  0  0
   60.6728   29.1030   48.2464 H   0  0  0  0  0  0  0  0  0  0  0  0
   58.8873   29.0209   48.0647 H   0  0  0  0  0  0  0  0  0  0  0  0
   60.2030   31.6880   48.7310 H   0  0  0  0  0  0  0  0  0  0  0  0
   58.0099   29.5763   46.7232 H   0  0  0  0  0  0  0  0  0  0  0  0
   55.8151   29.0022   43.0883 H   0  0  0  0  0  0  0  0  0  0  0  0
   55.9403   30.7743   42.8220 H   0  0  0  0  0  0  0  0  0  0  0  0
   57.4222   29.7591   42.8220 H   0  0  0  0  0  0  0  0  0  0  0  0
   57.0189   32.6642   43.9412 H   0  0  0  0  0  0  0  0  0  0  0  0
   58.0449   34.8265   44.1056 H   0  0  0  0  0  0  0  0  0  0  0  0
   59.6521   36.3373   45.3126 H   0  0  0  0  0  0  0  0  0  0  0  0
   60.8875   35.4652   47.2764 H   0  0  0  0  0  0  0  0  0  0  0  0
  1  2  1  0
  2  3  1  0
  3  4  1  0
  4  5  1  0
  5  6  1  0
  6  7  1  0
  7  8  1  0
  8  9  2  0
  8 10  1  0
 10 11  1  0
 11 12  1  0
 12 13  1  0
 13 14  1  0
 14 15  1  0
 15 16  1  0
 16 17  1  0
 17 18  1  0
 18 19  1  0
 19 20  1  0
 20 21  1  0
 21 22  2  0
 22 23  1  0
 23 24  1  0
 24 25  1  0
 23 26  2  0
 26 27  1  0
 27 28  2  0
 28 29  1  0
 29 30  2  0
 30 31  1  0
 31 32  2  0
 32 21  1  0
 32 27  1  0
  1 33  1  0
  1 34  1  0
  1 35  1  0
  2 36  1  0
  2 37  1  0
  4 38  1  0
  4 39  1  0
  5 40  1  0
  5 41  1  0
  6 42  1  0
  6 43  1  0
  7 44  1  0
 10 45  1  0
 10 46  1  0
 11 47  1  0
 12 48  1  0
 12 49  1  0
 13 50  1  0
 13 51  1  0
 14 52  1  0
 15 53  1  0
 15 54  1  0
 16 55  1  0
 16 56  1  0
 17 57  1  0
 18 58  1  0
 18 59  1  0
 19 60  1  0
 19 61  1  0
 20 62  1  0
 22 63  1  0
 25 64  1  0
 25 65  1  0
 25 66  1  0
 26 67  1  0
 28 68  1  0
 29 69  1  0
 30 70  1  0
M  END
>  <smiles>  (13) 
CCOCCCNC(=O)CNCCNCCNCCNc1cc(OC)cc2cccnc12

>  <score_type>  (13) 
oracle

>  <origin>  (13) 
adg

>  <m_score__min__energy>  (13) 
-5.3300000000000001

>  <m_primary>  (13) 
energy

$$$$
17:0
     RDKit          3D

 69 72  0  0  0  0  0  0  0  0999 V2000
   63.2280   32.0590   47.4800 C   0  0  0  0  0  0  0  0  0  0  0  0
   62.8880   33.5040   47.1370 C   0  0  0  0  0  0  0  0  0  0  0  0
   61.4970   33.8230   47.4380 N   0  0  0  0  0  0  0  0  0  0  0  0
   61.3360   34.1970   48.8290 C   0  0  0  0  0  0  0  0  0  0  0  0
   59.9570   33.7960   49.3600 C   0  0  0  0  0  0  0  0  0  0  0  0
   59.0050   33.7070   48.1810 C   0  0  0  0  0  0  0  0  0  0  0  0
   58.8680   32.3550   47.6180 C   0  0  0  0  0  0  0  0  0  0  0  0
   59.3890   31.1440   48.0750 C   0  0  0  0  0  0  0  0  0  0  0  0
   58.9620   30.1250   47.2220 C   0  0  0  0  0  0  0  0  0  0  0  0
   59.1340   28.7740   47.1720 C   0  0  0  0  0  0  0  0  0  0  0  0
   58.5670   27.9660   46.1870 C   0  0  0  0  0  0  0  0  0  0  0  0
   58.7090   26.5510   46.1960 C   0  0  0  0  0  0  0  0  0  0  0  0
   59.9070   26.0910   46.1530 O   0  0  0  0  0  0  0  0  0  0  0  0
   57.7020   25.5480   46.2480 N   0  0  0  0  0  0  0  0  0  0  0  0
   58.2520   24.1750   46.2510 C   0  0  0  0  0  0  0  0  0  0  0  0
   57.0940   23.2350   46.4480 C   0  0  0  0  0  0  0  0  0  0  0  0
   56.1650   23.5450   45.3660 N   0  0  0  0  0  0  0  0  0  0  0  0
   55.9600   22.7130   44.2370 C   0  0  0  0  0  0  0  0  0  0  0  0
   55.1150   23.0540   43.3510 O   0  0  0  0  0  0  0  0  0  0  0  0
   56.6760   21.4390   44.0010 C   0  0  0  0  0  0  0  0  0  0  0  0
   57.3120   21.0730   42.7370 C   0  0  0  0  0  0  0  0  0  0  0  0
   58.2010   21.6190   43.7940 C   0  0  0  0  0  0  0  0  0  0  0  0
   55.4490   24.8080   45.5140 C   0  0  0  0  0  0  0  0  0  0  0  0
   56.2890   25.8080   46.2900 C   0  0  0  0  0  0  0  0  0  0  0  0
   57.8070   28.5930   45.2420 C   0  0  0  0  0  0  0  0  0  0  0  0
   57.5920   29.9800   45.2400 C   0  0  0  0  0  0  0  0  0  0  0  0
   58.1840   30.7430   46.2510 C   0  0  0  0  0  0  0  0  0  0  0  0
   58.1410   32.0880   46.5110 N   0  0  0  0  0  0  0  0  0  0  0  0
   57.3820   33.0030   45.6680 C   0  0  0  0  0  0  0  0  0  0  0  0
   58.1850   33.5410   44.5180 C   0  0  0  0  0  0  0  0  0  0  0  0
   58.7450   34.9110   44.8690 C   0  0  0  0  0  0  0  0  0  0  0  0
   60.0110   34.7840   45.5620 N   0  0  0  0  0  0  0  0  0  0  0  0
   63.2563   31.9385   48.5730 H   0  0  0  0  0  0  0  0  0  0  0  0
   62.4623   31.3919   47.0573 H   0  0  0  0  0  0  0  0  0  0  0  0
   64.2108   31.8033   47.0573 H   0  0  0  0  0  0  0  0  0  0  0  0
   63.5398   34.1706   47.7208 H   0  0  0  0  0  0  0  0  0  0  0  0
   63.0429   33.6429   46.0569 H   0  0  0  0  0  0  0  0  0  0  0  0
   61.2470   34.6260   46.8030 H   0  0  0  0  0  0  0  0  0  0  0  0
   62.1099   33.6933   49.4268 H   0  0  0  0  0  0  0  0  0  0  0  0
   61.4321   35.2900   48.9067 H   0  0  0  0  0  0  0  0  0  0  0  0
   60.0205   32.8195   49.8624 H   0  0  0  0  0  0  0  0  0  0  0  0
   59.5967   34.5405   50.0852 H   0  0  0  0  0  0  0  0  0  0  0  0
   58.0122   34.0448   48.5129 H   0  0  0  0  0  0  0  0  0  0  0  0
   59.4263   34.3396   47.3858 H   0  0  0  0  0  0  0  0  0  0  0  0
   60.0294   31.0140   48.9599 H   0  0  0  0  0  0  0  0  0  0  0  0
   59.7511   28.2969   47.9476 H   0  0  0  0  0  0  0  0  0  0  0  0
   58.7491   23.9656   45.2923 H   0  0  0  0  0  0  0  0  0  0  0  0
   58.9959   24.0530   47.0520 H   0  0  0  0  0  0  0  0  0  0  0  0
   57.4295   22.1895   46.3814 H   0  0  0  0  0  0  0  0  0  0  0  0
   56.6292   23.3551   47.4377 H   0  0  0  0  0  0  0  0  0  0  0  0
   55.9669   20.8886   44.6368 H   0  0  0  0  0  0  0  0  0  0  0  0
   57.3913   20.0115   42.4596 H   0  0  0  0  0  0  0  0  0  0  0  0
   57.1255   21.3477   41.6883 H   0  0  0  0  0  0  0  0  0  0  0  0
   58.9147   20.9635   44.3146 H   0  0  0  0  0  0  0  0  0  0  0  0
   58.9187   22.4487   43.8746 H   0  0  0  0  0  0  0  0  0  0  0  0
   55.2275   25.2175   44.5174 H   0  0  0  0  0  0  0  0  0  0  0  0
   54.5147   24.6249   46.0649 H   0  0  0  0  0  0  0  0  0  0  0  0
   56.1097   26.8087   45.8700 H   0  0  0  0  0  0  0  0  0  0  0  0
   55.9837   25.7273   47.3437 H   0  0  0  0  0  0  0  0  0  0  0  0
   57.3442   27.9863   44.4497 H   0  0  0  0  0  0  0  0  0  0  0  0
   56.9740   30.4543   44.4634 H   0  0  0  0  0  0  0  0  0  0  0  0
   56.5089   32.4678   45.2664 H   0  0  0  0  0  0  0  0  0  0  0  0
   57.0860   33.8586   46.2927 H   0  0  0  0  0  0  0  0  0  0  0  0
   59.0153   32.8531   44.3004 H   0  0  0  0  0  0  0  0  0  0  0  0
   57.5346   33.6325   43.6356 H   0  0  0  0  0  0  0  0  0  0  0  0
   58.8957   35.4874   43.9443 H   0  0  0  0  0  0  0  0  0  0  0  0
   58.0311   35.4269   45.5279 H   0  0  0  0  0  0  0  0  0  0  0  0
   59.9260   35.1230   46.5650 H   0  0  0  0  0  0  0  0  0  0  0  0
   60.3650   33.8040   45.5850 H   0  0  0  0  0  0  0  0  0  0  0  0
  1  2  1  0
  2  3  1  0
  3  4  1  0
  4  5  1  0
  5  6  1  0
  6  7  1  0
  7  8  2  0
  8  9  1  0
  9 10  2  0
 10 11  1  0
 11 12  1  0
 12 13  2  0
 12 14  1  0
 14 15  1  0
 15 16  1  0
 16 17  1  0
 17 18  1  0
 18 19  2  0
 18 20  1  0
 20 21  1  0
 21 22  1  0
 17 23  1  0
 23 24  1  0
 11 25  2  0
 25 26  1  0
 26 27  2  0
 27 28  1  0
 28 29  1  0
 29 30  1  0
 30 31  1  0
 31 32  1  0
 28  7  1  0
 27  9  1  0
 24 14  1  0
 22 20  1  0
  1 33  1  0
  1 34  1  0
  1 35  1  0
  2 36  1  0
  2 37  1  0
  3 38  1  0
  4 39  1  0
  4 40  1  0
  5 41  1  0
  5 42  1  0
  6 43  1  0
  6 44  1  0
  8 45  1  0
 10 46  1  0
 15 47  1  0
 15 48  1  0
 16 49  1  0
 16 50  1  0
 20 51  1  0
 21 52  1  0
 21 53  1  0
 22 54  1  0
 22 55  1  0
 23 56  1  0
 23 57  1  0
 24 58  1  0
 24 59  1  0
 25 60  1  0
 26 61  1  0
 29 62  1  0
 29 63  1  0
 30 64  1  0
 30 65  1  0
 31 66  1  0
 31 67  1  0
 32 68  1  0
 32 69  1  0
M  END
>  <smiles>  (14) 
CCNCCCc1cc2cc(C(=O)N3CCN(C(=O)C4CC4)CC3)ccc2n1CCCN

>  <score_type>  (14) 
oracle

>  <origin>  (14) 
adg

>  <m_score__min__energy>  (14) 
-8.8200000000000003

>  <m_primary>  (14) 
energy

$$$$
18:0
     RDKit          3D

 46 47  0  0  0  0  0  0  0  0999 V2000
   59.0310   29.7320   45.4510 C   0  0  0  0  0  0  0  0  0  0  0  0
   57.5260   29.6110   45.3200 C   0  0  0  0  0  0  0  0  0  0  0  0
   57.0260   30.8390   44.9150 O   0  0  0  0  0  0  0  0  0  0  0  0
   56.8820   30.8410   43.5500 C   0  0  0  0  0  0  0  0  0  0  0  0
   57.7650   31.9630   43.0200 C   0  0  0  0  0  0  0  0  0  0  0  0
   58.3350   32.5610   44.1100 O   0  0  0  0  0  0  0  0  0  0  0  0
   57.7400   33.7370   44.5320 C   0  0  0  0  0  0  0  0  0  0  0  0
   57.9850   34.0200   45.9960 C   0  0  0  0  0  0  0  0  0  0  0  0
   58.5960   32.8560   46.6310 N   0  0  0  0  0  0  0  0  0  0  0  0
   59.4120   32.9610   47.7950 C   0  0  0  0  0  0  0  0  0  0  0  0
   58.8840   32.7960   49.0550 C   0  0  0  0  0  0  0  0  0  0  0  0
   59.6470   32.9190   50.2130 C   0  0  0  0  0  0  0  0  0  0  0  0
   60.9870   33.2190   50.1270 C   0  0  0  0  0  0  0  0  0  0  0  0
   61.5430   33.3900   48.8800 C   0  0  0  0  0  0  0  0  0  0  0  0
   60.7660   33.2620   47.7310 C   0  0  0  0  0  0  0  0  0  0  0  0
   61.3750   33.4430   46.5080 C   0  0  0  0  0  0  0  0  0  0  0  0
   62.7380   33.7440   46.4380 C   0  0  0  0  0  0  0  0  0  0  0  0
   63.4250   33.8510   47.6030 C   0  0  0  0  0  0  0  0  0  0  0  0
   62.8560   33.6800   48.8340 N   0  0  0  0  0  0  0  0  0  0  0  0
   63.6910   33.8220   50.0050 C   0  0  0  0  0  0  0  0  0  0  0  0
   64.9340   33.0060   49.7530 C   0  0  0  0  0  0  0  0  0  0  0  0
   59.3058   29.7541   46.5159 H   0  0  0  0  0  0  0  0  0  0  0  0
   59.5118   28.8696   44.9661 H   0  0  0  0  0  0  0  0  0  0  0  0
   59.3678   30.6601   44.9661 H   0  0  0  0  0  0  0  0  0  0  0  0
   57.2779   28.8431   44.5725 H   0  0  0  0  0  0  0  0  0  0  0  0
   57.0831   29.3197   46.2838 H   0  0  0  0  0  0  0  0  0  0  0  0
   57.2043   29.8754   43.1331 H   0  0  0  0  0  0  0  0  0  0  0  0
   55.8313   30.9942   43.2626 H   0  0  0  0  0  0  0  0  0  0  0  0
   58.5447   31.5531   42.3612 H   0  0  0  0  0  0  0  0  0  0  0  0
   57.1785   32.6853   42.4332 H   0  0  0  0  0  0  0  0  0  0  0  0
   58.1466   34.5698   43.9394 H   0  0  0  0  0  0  0  0  0  0  0  0
   56.6544   33.6302   44.3907 H   0  0  0  0  0  0  0  0  0  0  0  0
   58.6588   34.8841   46.0928 H   0  0  0  0  0  0  0  0  0  0  0  0
   57.0261   34.2397   46.4881 H   0  0  0  0  0  0  0  0  0  0  0  0
   58.3950   31.9430   46.1780 H   0  0  0  0  0  0  0  0  0  0  0  0
   57.8146   32.5570   49.1513 H   0  0  0  0  0  0  0  0  0  0  0  0
   59.1780   32.7762   51.1977 H   0  0  0  0  0  0  0  0  0  0  0  0
   61.6001   33.3199   51.0347 H   0  0  0  0  0  0  0  0  0  0  0  0
   60.7861   33.3502   45.5835 H   0  0  0  0  0  0  0  0  0  0  0  0
   63.2379   33.8895   45.4690 H   0  0  0  0  0  0  0  0  0  0  0  0
   64.4980   34.0882   47.5543 H   0  0  0  0  0  0  0  0  0  0  0  0
   63.9556   34.8790   50.1559 H   0  0  0  0  0  0  0  0  0  0  0  0
   63.1673   33.4762   50.9084 H   0  0  0  0  0  0  0  0  0  0  0  0
   65.3811   32.7125   50.7142 H   0  0  0  0  0  0  0  0  0  0  0  0
   64.6709   32.1043   49.1805 H   0  0  0  0  0  0  0  0  0  0  0  0
   65.6567   33.6060   49.1805 H   0  0  0  0  0  0  0  0  0  0  0  0
  1  2  1  0
  2  3  1  0
  3  4  1  0
  4  5  1  0
  5  6  1  0
  6  7  1  0
  7  8  1  0
  8  9  1  0
  9 10  1  0
 10 11  2  0
 11 12  1  0
 12 13  2  0
 13 14  1  0
 14 15  2  0
 15 16  1  0
 16 17  2  0
 17 18  1  0
 18 19  2  0
 19 20  1  0
 20 21  1  0
 15 10  1  0
 19 14  1  0
  1 22  1  0
  1 23  1  0
  1 24  1  0
  2 25  1  0
  2 26  1  0
  4 27  1  0
  4 28  1  0
  5 29  1  0
  5 30  1  0
  7 31  1  0
  7 32  1  0
  8 33  1  0
  8 34  1  0
  9 35  1  0
 11 36  1  0
 12 37  1  0
 13 38  1  0
 16 39  1  0
 17 40  1  0
 18 41  1  0
 20 42  1  0
 20 43  1  0
 21 44  1  0
 21 45  1  0
 21 46  1  0
M  CHG  1  19   1
M  END
>  <smiles>  (15) 
CCOCCOCCNc1cccc2c1ccc[n+]2CC

>  <score_type>  (15) 
oracle

>  <origin>  (15) 
adg

>  <m_score__min__energy>  (15) 
-5.4100000000000001

>  <m_primary>  (15) 
energy

$$$$
19:0
     RDKit          3D

 49 51  0  0  1  0  0  0  0  0999 V2000
   55.5270   29.8240   43.9140 C   0  0  0  0  0  0  0  0  0  0  0  0
   56.6330   30.0960   44.8430 N   0  0  0  0  0  0  0  0  0  0  0  0
   57.5430   30.9910   44.1370 C   0  0  0  0  0  0  0  0  0  0  0  0
   57.3000   28.8070   45.0000 C   0  0  0  0  0  0  0  0  0  0  0  0
   58.7270   28.8450   44.5840 C   0  0  0  0  0  0  0  0  0  0  0  0
   59.5670   28.9180   45.6780 O   0  0  0  0  0  0  0  0  0  0  0  0
   59.4460   29.3540   46.9380 C   0  0  0  0  0  0  0  0  0  0  0  0
   59.6240   28.6500   48.1050 C   0  0  0  0  0  0  0  0  0  0  0  0
   59.4690   29.2080   49.3650 C   0  0  0  0  0  0  0  0  0  0  0  0
   59.1250   30.5170   49.5020 C   0  0  0  0  0  0  0  0  0  0  0  0
   58.9380   31.2620   48.3580 C   0  0  0  0  0  0  0  0  0  0  0  0
   59.0920   30.7070   47.1110 C   0  0  0  0  0  0  0  0  0  0  0  0
   58.5640   32.6860   48.5300 C   0  0  2  0  0  0  0  0  0  0  0  0
   58.5570   33.4190   47.2750 C   0  0  0  0  0  0  0  0  0  0  0  0
   57.3960   33.4330   46.4940 C   0  0  0  0  0  0  0  0  0  0  0  0
   57.3650   34.1200   45.3060 C   0  0  0  0  0  0  0  0  0  0  0  0
   58.5010   34.7970   44.8940 C   0  0  0  0  0  0  0  0  0  0  0  0
   59.6630   34.8150   45.6240 C   0  0  0  0  0  0  0  0  0  0  0  0
   59.6550   34.1090   46.8210 C   0  0  0  0  0  0  0  0  0  0  0  0
   59.5040   33.2270   49.5650 C   0  0  0  0  0  0  0  0  0  0  0  0
   59.3820   32.5530   50.8050 N   0  0  0  0  0  0  0  0  0  0  0  0
   58.5700   33.3210   51.7240 C   0  0  0  0  0  0  0  0  0  0  0  0
   58.9370   31.2060   50.7990 C   0  0  0  0  0  0  0  0  0  0  0  0
   54.6145   29.5996   44.4859 H   0  0  0  0  0  0  0  0  0  0  0  0
   55.3549   30.7066   43.2804 H   0  0  0  0  0  0  0  0  0  0  0  0
   55.7838   28.9623   43.2804 H   0  0  0  0  0  0  0  0  0  0  0  0
   58.1296   31.5680   44.8670 H   0  0  0  0  0  0  0  0  0  0  0  0
   58.2226   30.3997   43.5058 H   0  0  0  0  0  0  0  0  0  0  0  0
   56.9630   31.6803   43.5058 H   0  0  0  0  0  0  0  0  0  0  0  0
   57.2497   28.5113   46.0583 H   0  0  0  0  0  0  0  0  0  0  0  0
   56.7838   28.0845   44.3508 H   0  0  0  0  0  0  0  0  0  0  0  0
   58.9586   27.9328   44.0146 H   0  0  0  0  0  0  0  0  0  0  0  0
   58.8844   29.7406   43.9651 H   0  0  0  0  0  0  0  0  0  0  0  0
   59.9040   27.5885   48.0359 H   0  0  0  0  0  0  0  0  0  0  0  0
   59.6253   28.5878   50.2600 H   0  0  0  0  0  0  0  0  0  0  0  0
   58.9346   31.3363   46.2226 H   0  0  0  0  0  0  0  0  0  0  0  0
   57.5252   32.7994   48.8735 H   0  0  0  0  0  0  0  0  0  0  0  0
   56.5021   32.8898   46.8344 H   0  0  0  0  0  0  0  0  0  0  0  0
   56.4529   34.1327   44.6912 H   0  0  0  0  0  0  0  0  0  0  0  0
   58.4705   35.3440   43.9402 H   0  0  0  0  0  0  0  0  0  0  0  0
   60.5543   35.3599   45.2796 H   0  0  0  0  0  0  0  0  0  0  0  0
   60.5692   34.1023   47.4327 H   0  0  0  0  0  0  0  0  0  0  0  0
   60.5355   33.1133   49.2003 H   0  0  0  0  0  0  0  0  0  0  0  0
   59.2512   34.2848   49.7300 H   0  0  0  0  0  0  0  0  0  0  0  0
   58.8428   33.0630   52.7579 H   0  0  0  0  0  0  0  0  0  0  0  0
   58.7421   34.3944   51.5563 H   0  0  0  0  0  0  0  0  0  0  0  0
   57.5078   33.0894   51.5563 H   0  0  0  0  0  0  0  0  0  0  0  0
   59.4957   30.6534   51.5687 H   0  0  0  0  0  0  0  0  0  0  0  0
   57.8548   31.2267   50.9952 H   0  0  0  0  0  0  0  0  0  0  0  0
  1  2  1  0
  2  3  1  0
  2  4  1  0
  4  5  1  0
  5  6  1  0
  6  7  1  0
  7  8  2  0
  8  9  1  0
  9 10  2  0
 10 11  1  0
 11 12  2  0
 11 13  1  0
 13 14  1  0
 14 15  2  0
 15 16  1  0
 16 17  2  0
 17 18  1  0
 18 19  2  0
 13 20  1  0
 20 21  1  0
 21 22  1  0
 21 23  1  0
 12  7  1  0
 19 14  1  0
 23 10  1  0
  1 24  1  0
  1 25  1  0
  1 26  1  0
  3 27  1  0
  3 28  1  0
  3 29  1  0
  4 30  1  0
  4 31  1  0
  5 32  1  0
  5 33  1  0
  8 34  1  0
  9 35  1  0
 12 36  1  0
 13 37  1  1
 15 38  1  0
 16 39  1  0
 17 40  1  0
 18 41  1  0
 19 42  1  0
 20 43  1  0
 20 44  1  0
 22 45  1  0
 22 46  1  0
 22 47  1  0
 23 48  1  0
 23 49  1  0
M  END
>  <smiles>  (16) 
CN(C)CCOc1ccc2c(c1)C(c1ccccc1)CN(C)C2

>  <score_type>  (16) 
oracle

>  <origin>  (16) 
adg

>  <m_score__min__energy>  (16) 
-7.21

>  <m_primary>  (16) 
energy

$$$$
20:0
     RDKit          3D

 48 50  0  0  1  0  0  0  0  0999 V2000
   58.2720   32.5000   41.5420 C   0  0  0  0  0  0  0  0  0  0  0  0
   57.3850   31.5680   42.2730 C   0  0  0  0  0  0  0  0  0  0  0  0
   56.6510   30.8090   42.8630 C   0  0  0  0  0  0  0  0  0  0  0  0
   55.7460   29.8990   43.5600 C   0  0  0  0  0  0  0  0  0  0  0  0
   56.2460   29.6780   44.8620 O   0  0  0  0  0  0  0  0  0  0  0  0
   56.7050   28.4610   45.2970 N   0  0  0  0  0  0  0  0  0  0  0  0
   57.9310   28.1520   45.4200 C   0  0  0  0  0  0  0  0  0  0  0  0
   58.9820   29.0970   45.9110 C   0  0  0  0  0  0  0  0  0  0  0  0
   58.2940   30.1880   46.6060 N   0  0  0  0  0  0  0  0  0  0  0  0
   59.0190   31.2190   47.2240 C   0  0  0  0  0  0  0  0  0  0  0  0
   58.8700   32.5160   46.8030 C   0  0  0  0  0  0  0  0  0  0  0  0
   59.5730   33.5790   47.3910 C   0  0  0  0  0  0  0  0  0  0  0  0
   60.4360   33.3560   48.4090 N   0  0  0  0  0  0  0  0  0  0  0  0
   61.1170   34.5050   48.9490 C   0  0  0  0  0  0  0  0  0  0  0  0
   60.5830   32.1010   48.8190 C   0  0  0  0  0  0  0  0  0  0  0  0
   61.4490   31.8250   49.8540 C   0  0  0  0  0  0  0  0  0  0  0  0
   61.6150   30.5200   50.2980 C   0  0  0  0  0  0  0  0  0  0  0  0
   60.9440   29.4500   49.7470 C   0  0  0  0  0  0  0  0  0  0  0  0
   60.0770   29.7250   48.7110 C   0  0  0  0  0  0  0  0  0  0  0  0
   59.9130   31.0170   48.2740 C   0  0  0  0  0  0  0  0  0  0  0  0
   59.2900   34.9140   46.8250 C   0  0  0  0  0  0  0  0  0  0  0  0
   59.3080   34.9430   45.3370 C   0  0  0  0  0  0  0  0  0  0  0  0
   58.8450   33.6590   44.7080 C   0  0  0  0  0  0  0  0  0  0  0  0
   57.9590   32.9200   45.6870 C   0  0  0  0  0  0  0  0  0  0  0  0
   58.8450   33.1020   42.2626 H   0  0  0  0  0  0  0  0  0  0  0  0
   58.9658   31.9262   40.9100 H   0  0  0  0  0  0  0  0  0  0  0  0
   57.6646   33.1646   40.9100 H   0  0  0  0  0  0  0  0  0  0  0  0
   54.7429   30.3466   43.6190 H   0  0  0  0  0  0  0  0  0  0  0  0
   55.6785   28.9454   43.0159 H   0  0  0  0  0  0  0  0  0  0  0  0
   58.2377   27.1307   45.1499 H   0  0  0  0  0  0  0  0  0  0  0  0
   59.6613   28.5783   46.6035 H   0  0  0  0  0  0  0  0  0  0  0  0
   59.5807   29.4841   45.0734 H   0  0  0  0  0  0  0  0  0  0  0  0
   57.2420   30.2310   46.6620 H   0  0  0  0  0  0  0  0  0  0  0  0
   61.0921   34.4630   50.0479 H   0  0  0  0  0  0  0  0  0  0  0  0
   62.1621   34.5067   48.6057 H   0  0  0  0  0  0  0  0  0  0  0  0
   60.6168   35.4226   48.6057 H   0  0  0  0  0  0  0  0  0  0  0  0
   62.0112   32.6416   50.3306 H   0  0  0  0  0  0  0  0  0  0  0  0
   62.3134   30.3318   51.1267 H   0  0  0  0  0  0  0  0  0  0  0  0
   61.0931   28.4247   50.1164 H   0  0  0  0  0  0  0  0  0  0  0  0
   59.5156   28.9084   48.2335 H   0  0  0  0  0  0  0  0  0  0  0  0
   58.2948   35.2338   47.1676 H   0  0  0  0  0  0  0  0  0  0  0  0
   60.0868   35.5884   47.1718 H   0  0  0  0  0  0  0  0  0  0  0  0
   58.6491   35.7553   44.9964 H   0  0  0  0  0  0  0  0  0  0  0  0
   60.3526   35.0969   45.0284 H   0  0  0  0  0  0  0  0  0  0  0  0
   58.2773   33.8810   43.7923 H   0  0  0  0  0  0  0  0  0  0  0  0
   59.7151   33.0364   44.4524 H   0  0  0  0  0  0  0  0  0  0  0  0
   57.1601   33.5784   46.0589 H   0  0  0  0  0  0  0  0  0  0  0  0
   57.4629   32.0543   45.2239 H   0  0  0  0  0  0  0  0  0  0  0  0
  1  2  1  0
  2  3  3  0
  3  4  1  0
  4  5  1  0
  5  6  1  0
  6  7  2  0
  7  8  1  0
  8  9  1  0
  9 10  1  0
 10 11  2  0
 11 12  1  0
 12 13  2  0
 13 14  1  0
 13 15  1  0
 15 16  2  0
 16 17  1  0
 17 18  2  0
 18 19  1  0
 19 20  2  0
 12 21  1  0
 21 22  1  0
 22 23  1  0
 23 24  1  0
 20 10  1  0
 24 11  1  0
 20 15  1  0
  1 25  1  0
  1 26  1  0
  1 27  1  0
  4 28  1  0
  4 29  1  0
  7 30  1  0
  8 31  1  0
  8 32  1  0
  9 33  1  0
 14 34  1  0
 14 35  1  0
 14 36  1  0
 16 37  1  0
 17 38  1  0
 18 39  1  0
 19 40  1  0
 21 41  1  0
 21 42  1  0
 22 43  1  0
 22 44  1  0
 23 45  1  0
 23 46  1  0
 24 47  1  0
 24 48  1  0
M  CHG  1  13   1
M  END
>  <smiles>  (17) 
CC#CCON=CCNc1c2c([n+](C)c3ccccc13)CCCC2

>  <score_type>  (17) 
oracle

>  <origin>  (17) 
adg

>  <m_score__min__energy>  (17) 
-6.1399999999999997

>  <m_primary>  (17) 
energy

$$$$
