0:0
     RDKit          3D

 49 50  0  0  0  0  0  0  0  0999 V2000
   60.7630   26.7010   46.4030 C   0  0  0  0  0  0  0  0  0  0  0  0
   60.3180   27.9530   45.8910 O   0  0  0  0  0  0  0  0  0  0  0  0
   58.9740   28.2900   45.6730 C   0  0  0  0  0  0  0  0  0  0  0  0
   58.6670   29.6190   45.3620 C   0  0  0  0  0  0  0  0  0  0  0  0
   57.3390   30.0130   45.1300 C   0  0  0  0  0  0  0  0  0  0  0  0
   56.9910   31.3750   44.8420 N   0  0  0  0  0  0  0  0  0  0  0  0
   57.7600   32.2970   44.0600 C   0  0  0  0  0  0  0  0  0  0  0  0
   58.1450   31.9910   42.8990 O   0  0  0  0  0  0  0  0  0  0  0  0
   58.0510   33.6630   44.6040 C   0  0  0  0  0  0  0  0  0  0  0  0
   59.2310   33.6680   45.6010 C   0  0  0  0  0  0  0  0  0  0  0  0
   59.1320   32.6060   46.6360 N   0  0  0  0  0  0  0  0  0  0  0  0
   58.7860   33.2100   47.9400 C   0  0  0  0  0  0  0  0  0  0  0  0
   58.4480   32.1110   48.9530 C   0  0  0  0  0  0  0  0  0  0  0  0
   59.4260   31.0170   48.9000 N   0  0  0  0  0  0  0  0  0  0  0  0
   59.2450   29.8890   49.7850 C   0  0  0  0  0  0  0  0  0  0  0  0
   60.3350   28.8890   50.0310 C   0  0  0  0  0  0  0  0  0  0  0  0
   58.1380   29.7230   50.3670 O   0  0  0  0  0  0  0  0  0  0  0  0
   60.6610   31.1980   48.1210 C   0  0  0  0  0  0  0  0  0  0  0  0
   60.3830   31.8030   46.7260 C   0  0  0  0  0  0  0  0  0  0  0  0
   56.3140   29.0690   45.2480 C   0  0  0  0  0  0  0  0  0  0  0  0
   56.5980   27.7340   45.5560 C   0  0  0  0  0  0  0  0  0  0  0  0
   55.5280   26.8320   45.6470 O   0  0  0  0  0  0  0  0  0  0  0  0
   55.6690   25.4150   45.6820 C   0  0  0  0  0  0  0  0  0  0  0  0
   57.9350   27.3440   45.7620 C   0  0  0  0  0  0  0  0  0  0  0  0
   60.7527   26.7300   47.5026 H   0  0  0  0  0  0  0  0  0  0  0  0
   60.0938   25.9021   46.0510 H   0  0  0  0  0  0  0  0  0  0  0  0
   61.7863   26.5037   46.0510 H   0  0  0  0  0  0  0  0  0  0  0  0
   59.4744   30.3634   45.2985 H   0  0  0  0  0  0  0  0  0  0  0  0
   58.2960   34.3311   43.7652 H   0  0  0  0  0  0  0  0  0  0  0  0
   57.1562   34.0026   45.1461 H   0  0  0  0  0  0  0  0  0  0  0  0
   60.1643   33.5204   45.0378 H   0  0  0  0  0  0  0  0  0  0  0  0
   59.2106   34.6353   46.1244 H   0  0  0  0  0  0  0  0  0  0  0  0
   58.3440   31.9670   46.3670 H   0  0  0  0  0  0  0  0  0  0  0  0
   59.6413   33.7951   48.3090 H   0  0  0  0  0  0  0  0  0  0  0  0
   57.9121   33.8661   47.8137 H   0  0  0  0  0  0  0  0  0  0  0  0
   58.4487   32.5435   49.9644 H   0  0  0  0  0  0  0  0  0  0  0  0
   57.4571   31.7030   48.7047 H   0  0  0  0  0  0  0  0  0  0  0  0
   60.4762   28.7595   51.1142 H   0  0  0  0  0  0  0  0  0  0  0  0
   60.0570   27.9252   49.5796 H   0  0  0  0  0  0  0  0  0  0  0  0
   61.2714   29.2488   49.5796 H   0  0  0  0  0  0  0  0  0  0  0  0
   61.3332   31.8717   48.6726 H   0  0  0  0  0  0  0  0  0  0  0  0
   61.1195   30.2086   47.9767 H   0  0  0  0  0  0  0  0  0  0  0  0
   61.2285   32.4543   46.4599 H   0  0  0  0  0  0  0  0  0  0  0  0
   60.2585   30.9542   46.0375 H   0  0  0  0  0  0  0  0  0  0  0  0
   55.2699   29.3803   45.0966 H   0  0  0  0  0  0  0  0  0  0  0  0
   55.7028   25.0756   46.7278 H   0  0  0  0  0  0  0  0  0  0  0  0
   54.8128   24.9486   45.1726 H   0  0  0  0  0  0  0  0  0  0  0  0
   56.6003   25.1265   45.1726 H   0  0  0  0  0  0  0  0  0  0  0  0
   58.1692   26.2945   45.9937 H   0  0  0  0  0  0  0  0  0  0  0  0
  1  2  1  0
  2  3  1  0
  3  4  2  0
  4  5  1  0
  5  6  1  0
  6  7  1  0
  7  8  2  0
  7  9  1  0
  9 10  1  0
 10 11  1  0
 11 12  1  0
 12 13  1  0
 13 14  1  0
 14 15  1  0
 15 16  1  0
 15 17  2  0
 14 18  1  0
 18 19  1  0
  5 20  2  0
 20 21  1  0
 21 22  1  0
 22 23  1  0
 21 24  2  0
 24  3  1  0
 19 11  1  0
  1 25  1  0
  1 26  1  0
  1 27  1  0
  4 28  1  0
  9 29  1  0
  9 30  1  0
 10 31  1  0
 10 32  1  0
 11 33  1  0
 12 34  1  0
 12 35  1  0
 13 36  1  0
 13 37  1  0
 16 38  1  0
 16 39  1  0
 16 40  1  0
 18 41  1  0
 18 42  1  0
 19 43  1  0
 19 44  1  0
 20 45  1  0
 23 46  1  0
 23 47  1  0
 23 48  1  0
 24 49  1  0
M  CHG  2   6  -1  11   1
M  END
>  <UniqueID>  (1) 
1

>  <SMILES>  (1) 
COc1cc([N-]C(=O)CC[NH+]2CCN(C(C)=O)CC2)cc(OC)c1

>  <Energy>  (1) 
54.736051697722736

>  <Genealogy>  (1) 
COc1cc([N-]C(=O)CC[NH+]2CCN(C(C)=O)CC2)cc(OC)c1 (protonated)
COc1cc([N-]C(=O)CC[NH+]2CCN(C(C)=O)CC2)cc(OC)c1 (3D coordinates assigned)
COc1cc([N-]C(=O)CC[NH+]2CCN(C(C)=O)CC2)cc(OC)c1 (nonaromatic ring conformer: 54.736051697722736 kcal/mol)

>  <smiles>  (1) 
COc1cc(NC(=O)CCN2CCN(C(C)=O)CC2)cc(OC)c1

>  <score_type>  (1) 
oracle

>  <origin>  (1) 
adg

>  <m_score__min__energy>  (1) 
-7.71

>  <m_primary>  (1) 
energy

$$$$
1:0
     RDKit          3D

 71 76  0  0  1  0  0  0  0  0999 V2000
   57.1660   31.4930   51.3320 C   0  0  0  0  0  0  0  0  0  0  0  0
   57.5310   30.1460   51.1650 O   0  0  0  0  0  0  0  0  0  0  0  0
   58.8220   29.8550   50.7750 C   0  0  0  0  0  0  0  0  0  0  0  0
   59.0660   29.2080   49.5840 C   0  0  0  0  0  0  0  0  0  0  0  0
   60.3790   28.9490   49.2560 C   0  0  0  0  0  0  0  0  0  0  0  0
   60.7690   28.2880   48.0560 N   0  0  0  0  0  0  0  0  0  0  0  0
   59.9290   27.4430   47.5590 C   0  0  0  0  0  0  0  0  0  0  0  0
   59.5050   27.5030   46.2900 N   0  0  0  0  0  0  0  0  0  0  0  0
   58.6420   26.4950   46.0710 C   0  0  0  0  0  0  0  0  0  0  0  0
   57.9370   26.1270   44.9400 C   0  0  0  0  0  0  0  0  0  0  0  0
   58.1400   27.0930   43.4680 S   0  0  0  0  0  0  0  0  0  0  0  0
   57.7780   28.8260   43.7510 C   0  0  0  0  0  0  0  0  0  0  0  0
   56.7590   29.4870   43.0940 C   0  0  0  0  0  0  0  0  0  0  0  0
   56.5720   30.8250   43.3940 C   0  0  0  0  0  0  0  0  0  0  0  0
   57.3610   31.4980   44.3090 C   0  0  0  0  0  0  0  0  0  0  0  0
   58.3840   30.8360   44.9690 C   0  0  0  0  0  0  0  0  0  0  0  0
   59.1760   31.5770   45.9120 C   0  0  0  0  0  0  0  0  0  0  0  0
   59.0200   32.8180   45.9800 O   0  0  0  0  0  0  0  0  0  0  0  0
   60.1300   30.9660   46.7730 N   0  0  0  0  0  0  0  0  0  0  0  0
   60.9150   31.7000   47.7070 C   0  0  0  0  0  0  0  0  0  0  0  0
   62.2950   31.5610   47.5850 C   0  0  0  0  0  0  0  0  0  0  0  0
   63.1230   32.2470   48.4620 C   0  0  0  0  0  0  0  0  0  0  0  0
   62.5400   33.0440   49.4260 C   0  0  0  0  0  0  0  0  0  0  0  0
   63.4240   33.7610   50.3420 C   0  0  0  0  0  0  0  0  0  0  0  0
   64.6380   33.3750   50.7870 N   0  0  0  0  0  0  0  0  0  0  0  0
   65.0880   34.3330   51.6030 C   0  0  0  0  0  0  0  0  0  0  0  0
   66.3590   34.4020   52.3500 C   0  0  0  0  0  0  0  0  0  0  0  0
   64.1480   35.2970   51.6530 N   0  0  0  0  0  0  0  0  0  0  0  0
   63.1670   34.9310   50.8910 O   0  0  0  0  0  0  0  0  0  0  0  0
   61.1740   33.1920   49.5590 C   0  0  0  0  0  0  0  0  0  0  0  0
   60.3560   32.5050   48.6800 C   0  0  0  0  0  0  0  0  0  0  0  0
   58.5750   29.5020   44.6740 C   0  0  0  0  0  0  0  0  0  0  0  0
   57.0880   25.0250   44.9540 C   0  0  0  0  0  0  0  0  0  0  0  0
   56.9940   24.3360   46.1420 C   0  0  0  0  0  0  0  0  0  0  0  0
   57.7150   24.7290   47.2640 C   0  0  0  0  0  0  0  0  0  0  0  0
   58.5370   25.8090   47.2220 N   0  0  0  0  0  0  0  0  0  0  0  0
   59.3270   26.3880   48.1390 N   0  0  0  0  0  0  0  0  0  0  0  0
   61.4220   29.3290   50.1010 C   0  0  0  0  0  0  0  0  0  0  0  0
   61.1680   29.9790   51.2960 C   0  0  0  0  0  0  0  0  0  0  0  0
   62.1970   30.3680   52.1580 O   0  0  0  0  0  0  0  0  0  0  0  0
   63.5220   30.4030   51.7070 C   0  0  0  0  0  0  0  0  0  0  0  0
   59.8570   30.2360   51.6220 C   0  0  0  0  0  0  0  0  0  0  0  0
   59.5840   30.8850   52.8130 O   0  0  0  0  0  0  0  0  0  0  0  0
   60.0270   32.2070   53.0430 C   0  0  0  0  0  0  0  0  0  0  0  0
   57.1030   31.7255   52.4053 H   0  0  0  0  0  0  0  0  0  0  0  0
   57.9216   32.1388   50.8607 H   0  0  0  0  0  0  0  0  0  0  0  0
   56.1878   31.6690   50.8607 H   0  0  0  0  0  0  0  0  0  0  0  0
   58.2426   28.9089   48.9187 H   0  0  0  0  0  0  0  0  0  0  0  0
   56.1213   28.9706   42.3614 H   0  0  0  0  0  0  0  0  0  0  0  0
   55.7656   31.3738   42.8856 H   0  0  0  0  0  0  0  0  0  0  0  0
   57.1758   32.5628   44.5136 H   0  0  0  0  0  0  0  0  0  0  0  0
   60.2900   29.9350   46.7470 H   0  0  0  0  0  0  0  0  0  0  0  0
   62.7232   30.9159   46.8037 H   0  0  0  0  0  0  0  0  0  0  0  0
   64.2170   32.1578   48.3906 H   0  0  0  0  0  0  0  0  0  0  0  0
   66.1506   34.3907   53.4300 H   0  0  0  0  0  0  0  0  0  0  0  0
   66.9855   33.5365   52.0884 H   0  0  0  0  0  0  0  0  0  0  0  0
   66.8882   35.3302   52.0884 H   0  0  0  0  0  0  0  0  0  0  0  0
   60.7482   33.8375   50.3413 H   0  0  0  0  0  0  0  0  0  0  0  0
   59.2627   32.5997   48.7559 H   0  0  0  0  0  0  0  0  0  0  0  0
   59.3817   28.9542   45.1831 H   0  0  0  0  0  0  0  0  0  0  0  0
   56.5212   24.7200   44.0620 H   0  0  0  0  0  0  0  0  0  0  0  0
   56.3355   23.4572   46.2049 H   0  0  0  0  0  0  0  0  0  0  0  0
   57.6182   24.1571   48.1986 H   0  0  0  0  0  0  0  0  0  0  0  0
   59.4590   26.0830   49.1340 H   0  0  0  0  0  0  0  0  0  0  0  0
   62.4607   29.1089   49.8134 H   0  0  0  0  0  0  0  0  0  0  0  0
   64.2030   30.4210   52.5707 H   0  0  0  0  0  0  0  0  0  0  0  0
   63.7257   29.5099   51.0980 H   0  0  0  0  0  0  0  0  0  0  0  0
   63.6783   31.3056   51.0980 H   0  0  0  0  0  0  0  0  0  0  0  0
   60.0883   32.3900   54.1259 H   0  0  0  0  0  0  0  0  0  0  0  0
   61.0204   32.3447   52.5910 H   0  0  0  0  0  0  0  0  0  0  0  0
   59.3172   32.9154   52.5910 H   0  0  0  0  0  0  0  0  0  0  0  0
  1  2  1  0
  2  3  1  0
  3  4  2  0
  4  5  1  0
  5  6  1  0
  6  7  2  0
  7  8  1  0
  8  9  2  0
  9 10  1  0
 10 11  1  0
 11 12  1  0
 12 13  2  0
 13 14  1  0
 14 15  2  0
 15 16  1  0
 16 17  1  0
 17 18  2  0
 17 19  1  0
 19 20  1  0
 20 21  2  0
 21 22  1  0
 22 23  2  0
 23 24  1  0
 24 25  2  0
 25 26  1  0
 26 27  1  0
 26 28  2  0
 28 29  1  0
 23 30  1  0
 30 31  2  0
 16 32  2  0
 10 33  2  0
 33 34  1  0
 34 35  2  0
 35 36  1  0
 36 37  1  0
  5 38  2  0
 38 39  1  0
 39 40  1  0
 40 41  1  0
 39 42  2  0
 42 43  1  0
 43 44  1  0
 42  3  1  0
 37  7  1  0
 36  9  1  0
 32 12  1  0
 31 20  1  0
 29 24  1  0
  1 45  1  0
  1 46  1  0
  1 47  1  0
  4 48  1  0
 13 49  1  0
 14 50  1  0
 15 51  1  0
 19 52  1  0
 21 53  1  0
 22 54  1  0
 27 55  1  0
 27 56  1  0
 27 57  1  0
 30 58  1  0
 31 59  1  0
 32 60  1  0
 33 61  1  0
 34 62  1  0
 35 63  1  0
 37 64  1  0
 38 65  1  0
 41 66  1  0
 41 67  1  0
 41 68  1  0
 44 69  1  0
 44 70  1  0
 44 71  1  0
M  END
>  <smiles>  (2) 
COc1cc(N=c2nc3c(Sc4cccc(C(=O)Nc5ccc(-c6nc(C)no6)cc5)c4)cccn3[nH]2)cc(OC)c1OC

>  <score_type>  (2) 
oracle

>  <origin>  (2) 
adg

>  <m_score__min__energy>  (2) 
-10.69

>  <m_primary>  (2) 
energy

$$$$
2:0
     RDKit          3D

 41 43  0  0  0  0  0  0  0  0999 V2000
   56.0420   29.3390   44.2680 C   0  0  0  0  0  0  0  0  0  0  0  0
   56.8140   30.6100   44.1180 C   0  0  0  0  0  0  0  0  0  0  0  0
   57.0410   31.1590   42.8500 C   0  0  0  0  0  0  0  0  0  0  0  0
   57.7580   32.3500   42.7400 C   0  0  0  0  0  0  0  0  0  0  0  0
   58.2300   32.9890   43.8880 C   0  0  0  0  0  0  0  0  0  0  0  0
   57.9620   32.4290   45.1450 C   0  0  0  0  0  0  0  0  0  0  0  0
   58.4100   33.0820   46.3860 C   0  0  0  0  0  0  0  0  0  0  0  0
   57.5500   33.6650   47.1020 O   0  0  0  0  0  0  0  0  0  0  0  0
   59.7990   33.1170   46.7730 N   0  0  0  0  0  0  0  0  0  0  0  0
   60.7300   34.0870   46.2150 C   0  0  0  0  0  0  0  0  0  0  0  0
   62.0730   33.8130   46.8820 C   0  0  0  0  0  0  0  0  0  0  0  0
   61.9540   32.4290   47.5140 C   0  0  0  0  0  0  0  0  0  0  0  0
   60.4550   32.1980   47.6970 C   0  0  2  0  0  0  0  0  0  0  0  0
   60.0670   30.7500   47.4750 C   0  0  0  0  0  0  0  0  0  0  0  0
   59.5960   30.2960   46.2980 N   0  0  0  0  0  0  0  0  0  0  0  0
   59.4110   28.9900   46.3960 N   0  0  0  0  0  0  0  0  0  0  0  0
   59.7650   28.6570   47.6530 C   0  0  0  0  0  0  0  0  0  0  0  0
   59.7320   27.2560   48.1730 C   0  0  0  0  0  0  0  0  0  0  0  0
   60.1760   29.7330   48.3610 N   0  0  0  0  0  0  0  0  0  0  0  0
   60.6430   29.7350   49.7480 C   0  0  0  0  0  0  0  0  0  0  0  0
   57.2770   31.2540   45.2240 N   0  0  0  0  0  0  0  0  0  0  0  0
   55.9066   29.1162   45.3367 H   0  0  0  0  0  0  0  0  0  0  0  0
   55.0580   29.4490   43.7889 H   0  0  0  0  0  0  0  0  0  0  0  0
   56.5932   28.5165   43.7889 H   0  0  0  0  0  0  0  0  0  0  0  0
   56.6577   30.6560   41.9500 H   0  0  0  0  0  0  0  0  0  0  0  0
   57.9516   32.7859   41.7488 H   0  0  0  0  0  0  0  0  0  0  0  0
   58.8063   33.9224   43.8071 H   0  0  0  0  0  0  0  0  0  0  0  0
   60.8106   33.9565   45.1258 H   0  0  0  0  0  0  0  0  0  0  0  0
   60.3935   35.1185   46.3960 H   0  0  0  0  0  0  0  0  0  0  0  0
   62.8802   33.8239   46.1348 H   0  0  0  0  0  0  0  0  0  0  0  0
   62.3137   34.5797   47.6332 H   0  0  0  0  0  0  0  0  0  0  0  0
   62.3837   31.6640   46.8505 H   0  0  0  0  0  0  0  0  0  0  0  0
   62.4986   32.3650   48.4676 H   0  0  0  0  0  0  0  0  0  0  0  0
   60.1382   32.3985   48.7311 H   0  0  0  0  0  0  0  0  0  0  0  0
   59.4210   30.8540   45.4340 H   0  0  0  0  0  0  0  0  0  0  0  0
   59.7324   27.2730   49.2729 H   0  0  0  0  0  0  0  0  0  0  0  0
   58.8218   26.7531   47.8144 H   0  0  0  0  0  0  0  0  0  0  0  0
   60.6176   26.7108   47.8144 H   0  0  0  0  0  0  0  0  0  0  0  0
   59.7771   29.7313   50.4264 H   0  0  0  0  0  0  0  0  0  0  0  0
   61.2553   28.8395   49.9300 H   0  0  0  0  0  0  0  0  0  0  0  0
   61.2476   30.6357   49.9300 H   0  0  0  0  0  0  0  0  0  0  0  0
  1  2  1  0
  2  3  2  0
  3  4  1  0
  4  5  2  0
  5  6  1  0
  6  7  1  0
  7  8  2  0
  7  9  1  0
  9 10  1  0
 10 11  1  0
 11 12  1  0
 12 13  1  0
 13 14  1  0
 14 15  2  0
 15 16  1  0
 16 17  2  0
 17 18  1  0
 17 19  1  0
 19 20  1  0
  6 21  2  0
 21  2  1  0
 13  9  1  0
 19 14  1  0
  1 22  1  0
  1 23  1  0
  1 24  1  0
  3 25  1  0
  4 26  1  0
  5 27  1  0
 10 28  1  0
 10 29  1  0
 11 30  1  0
 11 31  1  0
 12 32  1  0
 12 33  1  0
 13 34  1  1
 15 35  1  0
 18 36  1  0
 18 37  1  0
 18 38  1  0
 20 39  1  0
 20 40  1  0
 20 41  1  0
M  CHG  1  15   1
M  END
>  <UniqueID>  (3) 
2

>  <SMILES>  (3) 
Cc1cccc(C(=O)N2CCC[C@@H]2c2[nH+]nc(C)n2C)n1

>  <Energy>  (3) 
78.41850880551277

>  <Genealogy>  (3) 
Cc1cccc(C(=O)N2CCCC2c2[nH+]nc(C)n2C)n1 (protonated)
Cc1cccc(C(=O)N2CCC[C@@H]2c2[nH+]nc(C)n2C)n1 (chirality)
Cc1cccc(C(=O)N2CCC[C@@H]2c2[nH+]nc(C)n2C)n1 (3D coordinates assigned)
Cc1cccc(C(=O)N2CCC[C@@H]2c2[nH+]nc(C)n2C)n1 (nonaromatic ring conformer: 78.41850880551277 kcal/mol)

>  <smiles>  (3) 
Cc1cccc(C(=O)N2CCCC2c2nnc(C)n2C)n1

>  <score_type>  (3) 
oracle

>  <origin>  (3) 
adg

>  <m_score__min__energy>  (3) 
-6.5

>  <m_primary>  (3) 
energy

$$$$
3:0
     RDKit          3D

 46 48  0  0  0  0  0  0  0  0999 V2000
   55.1450   29.0060   44.8290 O   0  0  0  0  0  0  0  0  0  0  0  0
   56.3220   29.4430   44.7460 C   0  0  0  0  0  0  0  0  0  0  0  0
   57.4680   28.4730   44.8170 C   0  0  0  0  0  0  0  0  0  0  0  0
   57.4340   27.5200   46.3780 S   0  0  0  0  0  0  0  0  0  0  0  0
   56.6990   26.0460   45.6660 C   0  0  0  0  0  0  0  0  0  0  0  0
   57.3980   25.2940   44.7170 C   0  0  0  0  0  0  0  0  0  0  0  0
   56.7990   24.1560   44.1710 C   0  0  0  0  0  0  0  0  0  0  0  0
   55.5110   23.7910   44.5700 C   0  0  0  0  0  0  0  0  0  0  0  0
   54.8400   24.5760   45.5100 C   0  0  0  0  0  0  0  0  0  0  0  0
   55.4410   25.6780   46.0320 N   0  0  0  0  0  0  0  0  0  0  0  0
   56.5180   30.8390   44.4770 N   0  0  0  0  0  0  0  0  0  0  0  0
   57.3980   31.7340   45.1700 C   0  0  0  0  0  0  0  0  0  0  0  0
   57.5230   33.0500   44.7130 C   0  0  0  0  0  0  0  0  0  0  0  0
   58.3480   33.9580   45.3860 C   0  0  0  0  0  0  0  0  0  0  0  0
   59.0400   33.5610   46.5390 C   0  0  0  0  0  0  0  0  0  0  0  0
   60.0630   34.7130   47.4020 S   0  0  0  0  0  0  0  0  0  0  0  0
   59.5520   34.8730   48.8070 O   0  0  0  0  0  0  0  0  0  0  0  0
   59.9800   36.0520   46.7230 O   0  0  0  0  0  0  0  0  0  0  0  0
   61.7290   34.1880   47.4420 N   0  0  0  0  0  0  0  0  0  0  0  0
   61.9130   32.8940   46.7380 C   0  0  0  0  0  0  0  0  0  0  0  0
   62.0650   31.7060   47.6990 C   0  0  0  0  0  0  0  0  0  0  0  0
   63.2600   31.9050   48.6460 C   0  0  0  0  0  0  0  0  0  0  0  0
   63.5250   33.3870   48.9660 C   0  0  0  0  0  0  0  0  0  0  0  0
   62.2460   34.2180   48.8280 C   0  0  0  0  0  0  0  0  0  0  0  0
   58.8980   32.2490   47.0110 C   0  0  0  0  0  0  0  0  0  0  0  0
   58.0720   31.3430   46.3380 C   0  0  0  0  0  0  0  0  0  0  0  0
   57.4003   27.7752   43.9693 H   0  0  0  0  0  0  0  0  0  0  0  0
   58.4085   29.0422   44.7774 H   0  0  0  0  0  0  0  0  0  0  0  0
   58.4085   25.5950   44.4036 H   0  0  0  0  0  0  0  0  0  0  0  0
   57.3397   23.5495   43.4295 H   0  0  0  0  0  0  0  0  0  0  0  0
   55.0308   22.8955   44.1486 H   0  0  0  0  0  0  0  0  0  0  0  0
   53.8234   24.3022   45.8286 H   0  0  0  0  0  0  0  0  0  0  0  0
   56.9694   33.3732   43.8191 H   0  0  0  0  0  0  0  0  0  0  0  0
   58.4539   34.9861   45.0094 H   0  0  0  0  0  0  0  0  0  0  0  0
   61.0375   32.7162   46.0962 H   0  0  0  0  0  0  0  0  0  0  0  0
   62.8420   32.9660   46.1534 H   0  0  0  0  0  0  0  0  0  0  0  0
   61.1465   31.6081   48.2963 H   0  0  0  0  0  0  0  0  0  0  0  0
   62.2400   30.7975   47.1041 H   0  0  0  0  0  0  0  0  0  0  0  0
   63.0556   31.3731   49.5869 H   0  0  0  0  0  0  0  0  0  0  0  0
   64.1534   31.5097   48.1405 H   0  0  0  0  0  0  0  0  0  0  0  0
   63.8983   33.4707   49.9973 H   0  0  0  0  0  0  0  0  0  0  0  0
   64.2696   33.7707   48.2530 H   0  0  0  0  0  0  0  0  0  0  0  0
   61.4801   33.8109   49.5045 H   0  0  0  0  0  0  0  0  0  0  0  0
   62.4814   35.2609   49.0869 H   0  0  0  0  0  0  0  0  0  0  0  0
   59.4385   31.9305   47.9146 H   0  0  0  0  0  0  0  0  0  0  0  0
   57.9500   30.3206   46.7251 H   0  0  0  0  0  0  0  0  0  0  0  0
  1  2  2  0
  2  3  1  0
  3  4  1  0
  4  5  1  0
  5  6  2  0
  6  7  1  0
  7  8  2  0
  8  9  1  0
  9 10  2  0
  2 11  1  0
 11 12  1  0
 12 13  2  0
 13 14  1  0
 14 15  2  0
 15 16  1  0
 16 17  2  0
 16 18  2  0
 16 19  1  0
 19 20  1  0
 20 21  1  0
 21 22  1  0
 22 23  1  0
 23 24  1  0
 15 25  1  0
 25 26  2  0
 10  5  1  0
 26 12  1  0
 24 19  1  0
  3 27  1  0
  3 28  1  0
  6 29  1  0
  7 30  1  0
  8 31  1  0
  9 32  1  0
 13 33  1  0
 14 34  1  0
 20 35  1  0
 20 36  1  0
 21 37  1  0
 21 38  1  0
 22 39  1  0
 22 40  1  0
 23 41  1  0
 23 42  1  0
 24 43  1  0
 24 44  1  0
 25 45  1  0
 26 46  1  0
M  CHG  1  11  -1
M  END
>  <UniqueID>  (4) 
3

>  <SMILES>  (4) 
O=C(CSc1ccccn1)[N-]c1ccc(S(=O)(=O)N2CCCCC2)cc1

>  <Energy>  (4) 
53.94190541320451

>  <Genealogy>  (4) 
O=C(CSc1ccccn1)[N-]c1ccc(S(=O)(=O)N2CCCCC2)cc1 (protonated)
O=C(CSc1ccccn1)[N-]c1ccc(S(=O)(=O)N2CCCCC2)cc1 (3D coordinates assigned)
O=C(CSc1ccccn1)[N-]c1ccc(S(=O)(=O)N2CCCCC2)cc1 (nonaromatic ring conformer: 53.94190541320451 kcal/mol)

>  <smiles>  (4) 
O=C(CSc1ccccn1)Nc1ccc(S(=O)(=O)N2CCCCC2)cc1

>  <score_type>  (4) 
oracle

>  <origin>  (4) 
adg

>  <m_score__min__energy>  (4) 
-10.92

>  <m_primary>  (4) 
energy

$$$$
4:0
     RDKit          3D

 36 38  0  0  0  0  0  0  0  0999 V2000
   57.5770   26.8770   45.3750 C   0  0  0  0  0  0  0  0  0  0  0  0
   57.6830   28.3590   45.5580 C   0  0  0  0  0  0  0  0  0  0  0  0
   57.0360   29.2950   44.7990 N   0  0  0  0  0  0  0  0  0  0  0  0
   57.3930   30.5000   45.2800 C   0  0  0  0  0  0  0  0  0  0  0  0
   57.0200   31.7230   44.8620 N   0  0  0  0  0  0  0  0  0  0  0  0
   57.4730   32.8650   45.4530 C   0  0  0  0  0  0  0  0  0  0  0  0
   57.0310   34.2170   44.9780 C   0  0  0  0  0  0  0  0  0  0  0  0
   58.3520   32.7240   46.5240 C   0  0  0  0  0  0  0  0  0  0  0  0
   58.9170   33.9320   47.2250 C   0  0  0  0  0  0  0  0  0  0  0  0
   60.1270   34.4510   46.5020 C   0  0  0  0  0  0  0  0  0  0  0  0
   61.3530   33.9480   47.1510 C   0  0  0  0  0  0  0  0  0  0  0  0
   62.4830   33.8160   46.3940 C   0  0  0  0  0  0  0  0  0  0  0  0
   63.6960   33.3560   46.8910 C   0  0  0  0  0  0  0  0  0  0  0  0
   63.7600   33.0090   48.2390 C   0  0  0  0  0  0  0  0  0  0  0  0
   62.6210   33.1360   49.0310 C   0  0  0  0  0  0  0  0  0  0  0  0
   61.4220   33.6010   48.4930 C   0  0  0  0  0  0  0  0  0  0  0  0
   58.7070   31.4470   46.9200 C   0  0  0  0  0  0  0  0  0  0  0  0
   59.5040   31.2650   47.8880 O   0  0  0  0  0  0  0  0  0  0  0  0
   58.2410   30.3380   46.3140 N   0  0  0  0  0  0  0  0  0  0  0  0
   58.4040   29.0320   46.4670 N   0  0  0  0  0  0  0  0  0  0  0  0
   57.5420   26.3876   46.3595 H   0  0  0  0  0  0  0  0  0  0  0  0
   56.6597   26.6413   44.8155 H   0  0  0  0  0  0  0  0  0  0  0  0
   58.4514   26.5132   44.8155 H   0  0  0  0  0  0  0  0  0  0  0  0
   56.8209   34.8598   45.8456 H   0  0  0  0  0  0  0  0  0  0  0  0
   57.8276   34.6705   44.3700 H   0  0  0  0  0  0  0  0  0  0  0  0
   56.1203   34.1124   44.3700 H   0  0  0  0  0  0  0  0  0  0  0  0
   58.1510   34.7207   47.2583 H   0  0  0  0  0  0  0  0  0  0  0  0
   59.2127   33.6420   48.2441 H   0  0  0  0  0  0  0  0  0  0  0  0
   60.1014   34.1101   45.4565 H   0  0  0  0  0  0  0  0  0  0  0  0
   60.1247   35.5505   46.5343 H   0  0  0  0  0  0  0  0  0  0  0  0
   62.4291   34.0897   45.3300 H   0  0  0  0  0  0  0  0  0  0  0  0
   64.5787   33.2684   46.2405 H   0  0  0  0  0  0  0  0  0  0  0  0
   64.7003   32.6386   48.6733 H   0  0  0  0  0  0  0  0  0  0  0  0
   62.6684   32.8655   50.0962 H   0  0  0  0  0  0  0  0  0  0  0  0
   60.5312   33.6928   49.1317 H   0  0  0  0  0  0  0  0  0  0  0  0
   59.0150   28.5750   47.2000 H   0  0  0  0  0  0  0  0  0  0  0  0
  1  2  1  0
  2  3  2  0
  3  4  1  0
  4  5  2  0
  5  6  1  0
  6  7  1  0
  6  8  2  0
  8  9  1  0
  9 10  1  0
 10 11  1  0
 11 12  2  0
 12 13  1  0
 13 14  2  0
 14 15  1  0
 15 16  2  0
  8 17  1  0
 17 18  2  0
 17 19  1  0
 19 20  1  0
 20  2  1  0
 19  4  1  0
 16 11  1  0
  1 21  1  0
  1 22  1  0
  1 23  1  0
  7 24  1  0
  7 25  1  0
  7 26  1  0
  9 27  1  0
  9 28  1  0
 10 29  1  0
 10 30  1  0
 12 31  1  0
 13 32  1  0
 14 33  1  0
 15 34  1  0
 16 35  1  0
 20 36  1  0
M  END
>  <smiles>  (5) 
Cc1nc2nc(C)c(CCc3ccccc3)c(=O)n2[nH]1

>  <score_type>  (5) 
oracle

>  <origin>  (5) 
adg

>  <m_score__min__energy>  (5) 
-7.8899999999999997

>  <m_primary>  (5) 
energy

$$$$
5:0
     RDKit          3D

 58 58  0  0  0  0  0  0  0  0999 V2000
   57.8100   26.4490   44.6140 C   0  0  0  0  0  0  0  0  0  0  0  0
   58.1450   27.3300   43.4050 C   0  0  0  0  0  0  0  0  0  0  0  0
   58.1550   28.7850   43.7420 N   0  0  0  0  0  0  0  0  0  0  0  0
   58.7910   29.0640   45.0560 C   0  0  0  0  0  0  0  0  0  0  0  0
   60.3180   28.9590   45.0130 C   0  0  0  0  0  0  0  0  0  0  0  0
   56.8040   29.4090   43.6280 C   0  0  0  0  0  0  0  0  0  0  0  0
   56.6710   30.8800   44.1110 C   0  0  0  0  0  0  0  0  0  0  0  0
   57.4700   31.9330   43.3190 C   0  0  0  0  0  0  0  0  0  0  0  0
   58.1200   33.0250   44.2030 C   0  0  0  0  0  0  0  0  0  0  0  0
   57.0960   33.9690   44.8480 C   0  0  0  0  0  0  0  0  0  0  0  0
   57.1030   33.8160   46.3030 N   0  0  0  0  0  0  0  0  0  0  0  0
   58.2830   33.5850   47.0990 C   0  0  0  0  0  0  0  0  0  0  0  0
   59.1450   34.6600   47.3680 C   0  0  0  0  0  0  0  0  0  0  0  0
   60.2950   34.4740   48.1390 C   0  0  0  0  0  0  0  0  0  0  0  0
   60.6060   33.2090   48.6570 C   0  0  0  0  0  0  0  0  0  0  0  0
   61.7930   33.0180   49.4520 N   0  0  0  0  0  0  0  0  0  0  0  0
   62.9710   32.3680   48.8590 C   0  0  0  0  0  0  0  0  0  0  0  0
   63.8990   33.4100   48.2400 C   0  0  0  0  0  0  0  0  0  0  0  0
   63.3590   33.8130   46.5920 Cl  0  0  0  0  0  0  0  0  0  0  0  0
   61.8150   33.4560   50.8570 C   0  0  0  0  0  0  0  0  0  0  0  0
   60.7190   32.7630   51.6660 C   0  0  0  0  0  0  0  0  0  0  0  0
   59.2660   33.7900   51.7770 Cl  0  0  0  0  0  0  0  0  0  0  0  0
   59.7470   32.1320   48.3950 C   0  0  0  0  0  0  0  0  0  0  0  0
   58.5950   32.3160   47.6250 C   0  0  0  0  0  0  0  0  0  0  0  0
   58.0206   27.0028   45.5408 H   0  0  0  0  0  0  0  0  0  0  0  0
   56.7450   26.1752   44.5844 H   0  0  0  0  0  0  0  0  0  0  0  0
   58.4240   25.5368   44.5844 H   0  0  0  0  0  0  0  0  0  0  0  0
   59.1394   27.0485   43.0282 H   0  0  0  0  0  0  0  0  0  0  0  0
   57.3643   27.1681   42.6472 H   0  0  0  0  0  0  0  0  0  0  0  0
   58.7280   29.2850   43.0200 H   0  0  0  0  0  0  0  0  0  0  0  0
   58.5179   30.0826   45.3690 H   0  0  0  0  0  0  0  0  0  0  0  0
   58.4278   28.3064   45.7661 H   0  0  0  0  0  0  0  0  0  0  0  0
   60.7127   28.9319   46.0394 H   0  0  0  0  0  0  0  0  0  0  0  0
   60.6075   28.0388   44.4844 H   0  0  0  0  0  0  0  0  0  0  0  0
   60.7307   29.8309   44.4844 H   0  0  0  0  0  0  0  0  0  0  0  0
   56.5113   29.3786   42.5681 H   0  0  0  0  0  0  0  0  0  0  0  0
   56.1584   28.8248   44.3002 H   0  0  0  0  0  0  0  0  0  0  0  0
   55.6075   31.1557   44.0569 H   0  0  0  0  0  0  0  0  0  0  0  0
   57.0926   30.8946   45.1269 H   0  0  0  0  0  0  0  0  0  0  0  0
   58.2674   31.4170   42.7641 H   0  0  0  0  0  0  0  0  0  0  0  0
   56.7553   32.4431   42.6564 H   0  0  0  0  0  0  0  0  0  0  0  0
   58.6934   32.5325   45.0021 H   0  0  0  0  0  0  0  0  0  0  0  0
   58.7615   33.6352   43.5502 H   0  0  0  0  0  0  0  0  0  0  0  0
   57.3503   35.0082   44.5921 H   0  0  0  0  0  0  0  0  0  0  0  0
   56.0940   33.7193   44.4690 H   0  0  0  0  0  0  0  0  0  0  0  0
   56.1760   33.8470   46.7880 H   0  0  0  0  0  0  0  0  0  0  0  0
   58.9127   35.6580   46.9680 H   0  0  0  0  0  0  0  0  0  0  0  0
   60.9610   35.3259   48.3410 H   0  0  0  0  0  0  0  0  0  0  0  0
   63.5142   31.8185   49.6419 H   0  0  0  0  0  0  0  0  0  0  0  0
   62.6378   31.6750   48.0724 H   0  0  0  0  0  0  0  0  0  0  0  0
   63.8879   34.3195   48.8586 H   0  0  0  0  0  0  0  0  0  0  0  0
   64.9186   32.9999   48.1933 H   0  0  0  0  0  0  0  0  0  0  0  0
   62.7940   33.2109   51.2945 H   0  0  0  0  0  0  0  0  0  0  0  0
   61.6389   34.5414   50.8877 H   0  0  0  0  0  0  0  0  0  0  0  0
   60.4536   31.8151   51.1751 H   0  0  0  0  0  0  0  0  0  0  0  0
   61.0964   32.5764   52.6822 H   0  0  0  0  0  0  0  0  0  0  0  0
   59.9813   31.1357   48.7981 H   0  0  0  0  0  0  0  0  0  0  0  0
   57.9275   31.4641   47.4284 H   0  0  0  0  0  0  0  0  0  0  0  0
  1  2  1  0
  2  3  1  0
  3  4  1  0
  4  5  1  0
  3  6  1  0
  6  7  1  0
  7  8  1  0
  8  9  1  0
  9 10  1  0
 10 11  1  0
 11 12  1  0
 12 13  2  0
 13 14  1  0
 14 15  2  0
 15 16  1  0
 16 17  1  0
 17 18  1  0
 18 19  1  0
 16 20  1  0
 20 21  1  0
 21 22  1  0
 15 23  1  0
 23 24  2  0
 24 12  1  0
  1 25  1  0
  1 26  1  0
  1 27  1  0
  2 28  1  0
  2 29  1  0
  3 30  1  0
  4 31  1  0
  4 32  1  0
  5 33  1  0
  5 34  1  0
  5 35  1  0
  6 36  1  0
  6 37  1  0
  7 38  1  0
  7 39  1  0
  8 40  1  0
  8 41  1  0
  9 42  1  0
  9 43  1  0
 10 44  1  0
 10 45  1  0
 11 46  1  0
 13 47  1  0
 14 48  1  0
 17 49  1  0
 17 50  1  0
 18 51  1  0
 18 52  1  0
 20 53  1  0
 20 54  1  0
 21 55  1  0
 21 56  1  0
 23 57  1  0
 24 58  1  0
M  CHG  1   3   1
M  END
>  <UniqueID>  (6) 
4

>  <SMILES>  (6) 
CC[NH+](CC)CCCCCNc1ccc(N(CCCl)CCCl)cc1

>  <Energy>  (6) 
57.626045307338295

>  <Genealogy>  (6) 
CC[NH+](CC)CCCCCNc1ccc(N(CCCl)CCCl)cc1 (protonated)
CC[NH+](CC)CCCCCNc1ccc(N(CCCl)CCCl)cc1 (3D coordinates assigned)
CC[NH+](CC)CCCCCNc1ccc(N(CCCl)CCCl)cc1 (optimized conformer: 57.626045307338295 kcal/mol)

>  <smiles>  (6) 
CCN(CC)CCCCCNc1ccc(N(CCCl)CCCl)cc1

>  <score_type>  (6) 
oracle

>  <origin>  (6) 
adg

>  <m_score__min__energy>  (6) 
-4.7199999999999998

>  <m_primary>  (6) 
energy

$$$$
6:0
     RDKit          3D

 46 48  0  0  0  0  0  0  0  0999 V2000
   68.5590   33.4500   52.9620 C   0  0  0  0  0  0  0  0  0  0  0  0
   67.8100   33.1560   51.7270 N   0  0  0  0  0  0  0  0  0  0  0  0
   68.5240   33.7360   50.5740 C   0  0  0  0  0  0  0  0  0  0  0  0
   67.6180   31.6870   51.5580 C   0  0  0  0  0  0  0  0  0  0  0  0
   66.1600   31.3020   51.2060 C   0  0  0  0  0  0  0  0  0  0  0  0
   65.2340   32.4450   51.1040 N   0  0  0  0  0  0  0  0  0  0  0  0
   65.2730   33.1250   49.8010 C   0  0  0  0  0  0  0  0  0  0  0  0
   63.8880   33.3440   49.2750 C   0  0  0  0  0  0  0  0  0  0  0  0
   62.9410   34.2070   49.8110 C   0  0  0  0  0  0  0  0  0  0  0  0
   61.7470   34.2370   49.0820 C   0  0  0  0  0  0  0  0  0  0  0  0
   61.7590   33.4020   47.9680 C   0  0  0  0  0  0  0  0  0  0  0  0
   60.6580   33.2250   47.0100 C   0  0  0  0  0  0  0  0  0  0  0  0
   59.8860   34.2380   46.4530 C   0  0  0  0  0  0  0  0  0  0  0  0
   58.9030   33.7710   45.5720 C   0  0  0  0  0  0  0  0  0  0  0  0
   58.8920   32.3810   45.4260 C   0  0  0  0  0  0  0  0  0  0  0  0
   57.9760   31.5820   44.5710 C   0  0  0  0  0  0  0  0  0  0  0  0
   57.8640   31.8600   43.1940 C   0  0  0  0  0  0  0  0  0  0  0  0
   57.0040   31.1130   42.3840 C   0  0  0  0  0  0  0  0  0  0  0  0
   56.2430   30.0810   42.9360 C   0  0  0  0  0  0  0  0  0  0  0  0
   56.3380   29.7950   44.2990 C   0  0  0  0  0  0  0  0  0  0  0  0
   55.5930   28.7970   44.8340 F   0  0  0  0  0  0  0  0  0  0  0  0
   57.1980   30.5390   45.1140 C   0  0  0  0  0  0  0  0  0  0  0  0
   60.1130   31.7540   46.4070 S   0  0  0  0  0  0  0  0  0  0  0  0
   63.2540   32.6290   47.8910 S   0  0  0  0  0  0  0  0  0  0  0  0
   67.9365   33.2056   53.8353 H   0  0  0  0  0  0  0  0  0  0  0  0
   69.4779   32.8458   52.9862 H   0  0  0  0  0  0  0  0  0  0  0  0
   68.8216   34.5179   52.9862 H   0  0  0  0  0  0  0  0  0  0  0  0
   66.8860   33.6420   51.8130 H   0  0  0  0  0  0  0  0  0  0  0  0
   69.3307   34.3913   50.9342 H   0  0  0  0  0  0  0  0  0  0  0  0
   68.9532   32.9275   49.9640 H   0  0  0  0  0  0  0  0  0  0  0  0
   67.8206   34.3217   49.9640 H   0  0  0  0  0  0  0  0  0  0  0  0
   68.2772   31.3384   50.7493 H   0  0  0  0  0  0  0  0  0  0  0  0
   67.8599   31.2116   52.5200 H   0  0  0  0  0  0  0  0  0  0  0  0
   66.1669   30.7779   50.2389 H   0  0  0  0  0  0  0  0  0  0  0  0
   65.7936   30.6749   52.0321 H   0  0  0  0  0  0  0  0  0  0  0  0
   65.4250   33.1370   51.8630 H   0  0  0  0  0  0  0  0  0  0  0  0
   65.7731   34.0979   49.9165 H   0  0  0  0  0  0  0  0  0  0  0  0
   65.8251   32.4934   49.0895 H   0  0  0  0  0  0  0  0  0  0  0  0
   63.1123   34.8065   50.7172 H   0  0  0  0  0  0  0  0  0  0  0  0
   60.8839   34.8590   49.3615 H   0  0  0  0  0  0  0  0  0  0  0  0
   60.0332   35.3037   46.6823 H   0  0  0  0  0  0  0  0  0  0  0  0
   58.2042   34.4364   45.0438 H   0  0  0  0  0  0  0  0  0  0  0  0
   58.4592   32.6728   42.7523 H   0  0  0  0  0  0  0  0  0  0  0  0
   56.9267   31.3386   41.3102 H   0  0  0  0  0  0  0  0  0  0  0  0
   55.5682   29.4929   42.2966 H   0  0  0  0  0  0  0  0  0  0  0  0
   57.2678   30.3083   46.1873 H   0  0  0  0  0  0  0  0  0  0  0  0
  1  2  1  0
  2  3  1  0
  2  4  1  0
  4  5  1  0
  5  6  1  0
  6  7  1  0
  7  8  1  0
  8  9  2  0
  9 10  1  0
 10 11  2  0
 11 12  1  0
 12 13  2  0
 13 14  1  0
 14 15  2  0
 15 16  1  0
 16 17  2  0
 17 18  1  0
 18 19  2  0
 19 20  1  0
 20 21  1  0
 20 22  2  0
 15 23  1  0
 11 24  1  0
 24  8  1  0
 23 12  1  0
 22 16  1  0
  1 25  1  0
  1 26  1  0
  1 27  1  0
  2 28  1  0
  3 29  1  0
  3 30  1  0
  3 31  1  0
  4 32  1  0
  4 33  1  0
  5 34  1  0
  5 35  1  0
  6 36  1  0
  7 37  1  0
  7 38  1  0
  9 39  1  0
 10 40  1  0
 13 41  1  0
 14 42  1  0
 17 43  1  0
 18 44  1  0
 19 45  1  0
 22 46  1  0
M  CHG  1   2   1
M  END
>  <UniqueID>  (7) 
5

>  <SMILES>  (7) 
C[NH+](C)CCNCc1ccc(-c2ccc(-c3cccc(F)c3)s2)s1

>  <Energy>  (7) 
105.4106738922805

>  <Genealogy>  (7) 
C[NH+](C)CCNCc1ccc(-c2ccc(-c3cccc(F)c3)s2)s1 (protonated)
C[NH+](C)CCNCc1ccc(-c2ccc(-c3cccc(F)c3)s2)s1 (3D coordinates assigned)
C[NH+](C)CCNCc1ccc(-c2ccc(-c3cccc(F)c3)s2)s1 (optimized conformer: 105.4106738922805 kcal/mol)

>  <smiles>  (7) 
CN(C)CCNCc1ccc(-c2ccc(-c3cccc(F)c3)s2)s1

>  <score_type>  (7) 
oracle

>  <origin>  (7) 
adg

>  <m_score__min__energy>  (7) 
-6.1299999999999999

>  <m_primary>  (7) 
energy

$$$$
7:0
     RDKit          3D

 45 47  0  0  0  0  0  0  0  0999 V2000
   66.1980   33.0670   50.1240 C   0  0  0  0  0  0  0  0  0  0  0  0
   65.1120   32.1460   50.1560 O   0  0  0  0  0  0  0  0  0  0  0  0
   63.9960   32.2090   49.3090 C   0  0  0  0  0  0  0  0  0  0  0  0
   64.0290   33.0980   48.2310 C   0  0  0  0  0  0  0  0  0  0  0  0
   62.9430   33.2000   47.3560 C   0  0  0  0  0  0  0  0  0  0  0  0
   61.7980   32.4020   47.5460 C   0  0  0  0  0  0  0  0  0  0  0  0
   60.6570   32.4760   46.6660 N   0  0  0  0  0  0  0  0  0  0  0  0
   59.5760   33.4650   46.7850 C   0  0  1  0  0  0  0  0  0  0  0  0
   59.6590   34.4910   45.6200 C   0  0  0  0  0  0  0  0  0  0  0  0
   58.3160   34.7310   44.9200 C   0  0  0  0  0  0  0  0  0  0  0  0
   57.7120   33.4050   44.4460 C   0  0  0  0  0  0  0  0  0  0  0  0
   57.7400   32.3880   45.5110 N   0  0  0  0  0  0  0  0  0  0  0  0
   57.4470   31.0140   45.1960 C   0  0  0  0  0  0  0  0  0  0  0  0
   56.3110   30.7090   44.7440 O   0  0  0  0  0  0  0  0  0  0  0  0
   58.4490   29.9450   45.3980 C   0  0  0  0  0  0  0  0  0  0  0  0
   58.9650   29.6840   46.6770 C   0  0  0  0  0  0  0  0  0  0  0  0
   59.9260   28.6860   46.8410 C   0  0  0  0  0  0  0  0  0  0  0  0
   60.3730   27.9650   45.7350 C   0  0  0  0  0  0  0  0  0  0  0  0
   59.8550   28.2590   44.4730 C   0  0  0  0  0  0  0  0  0  0  0  0
   58.9190   29.2370   44.3270 N   0  0  0  0  0  0  0  0  0  0  0  0
   58.2060   32.7530   46.8540 C   0  0  0  0  0  0  0  0  0  0  0  0
   61.7670   31.5120   48.6310 C   0  0  0  0  0  0  0  0  0  0  0  0
   62.8530   31.4120   49.5050 C   0  0  0  0  0  0  0  0  0  0  0  0
   66.4953   33.3192   51.1526 H   0  0  0  0  0  0  0  0  0  0  0  0
   67.0496   32.6116   49.5973 H   0  0  0  0  0  0  0  0  0  0  0  0
   65.8878   33.9815   49.5973 H   0  0  0  0  0  0  0  0  0  0  0  0
   64.9188   33.7241   48.0692 H   0  0  0  0  0  0  0  0  0  0  0  0
   62.9831   33.9074   46.5146 H   0  0  0  0  0  0  0  0  0  0  0  0
   60.6110   31.7850   45.8820 H   0  0  0  0  0  0  0  0  0  0  0  0
   59.6925   34.0296   47.7218 H   0  0  0  0  0  0  0  0  0  0  0  0
   60.0169   35.4492   46.0247 H   0  0  0  0  0  0  0  0  0  0  0  0
   60.3454   34.0731   44.8689 H   0  0  0  0  0  0  0  0  0  0  0  0
   57.6221   35.2134   45.6242 H   0  0  0  0  0  0  0  0  0  0  0  0
   58.4815   35.3784   44.0463 H   0  0  0  0  0  0  0  0  0  0  0  0
   56.6687   33.5758   44.1422 H   0  0  0  0  0  0  0  0  0  0  0  0
   58.3106   33.0357   43.6003 H   0  0  0  0  0  0  0  0  0  0  0  0
   58.6140   30.2625   47.5443 H   0  0  0  0  0  0  0  0  0  0  0  0
   60.3300   28.4686   47.8408 H   0  0  0  0  0  0  0  0  0  0  0  0
   61.1262   27.1725   45.8557 H   0  0  0  0  0  0  0  0  0  0  0  0
   60.2041   27.6987   43.5931 H   0  0  0  0  0  0  0  0  0  0  0  0
   58.5500   29.4310   43.3690 H   0  0  0  0  0  0  0  0  0  0  0  0
   57.4721   33.4274   47.3194 H   0  0  0  0  0  0  0  0  0  0  0  0
   58.3152   31.8354   47.4507 H   0  0  0  0  0  0  0  0  0  0  0  0
   60.8776   30.8859   48.7953 H   0  0  0  0  0  0  0  0  0  0  0  0
   62.8141   30.7078   50.3491 H   0  0  0  0  0  0  0  0  0  0  0  0
  1  2  1  0
  2  3  1  0
  3  4  2  0
  4  5  1  0
  5  6  2  0
  6  7  1  0
  7  8  1  0
  8  9  1  0
  9 10  1  0
 10 11  1  0
 11 12  1  0
 12 13  1  0
 13 14  2  0
 13 15  1  0
 15 16  2  0
 16 17  1  0
 17 18  2  0
 18 19  1  0
 19 20  2  0
 12 21  1  0
  6 22  1  0
 22 23  2  0
 23  3  1  0
 21  8  1  0
 20 15  1  0
  1 24  1  0
  1 25  1  0
  1 26  1  0
  4 27  1  0
  5 28  1  0
  7 29  1  0
  8 30  1  1
  9 31  1  0
  9 32  1  0
 10 33  1  0
 10 34  1  0
 11 35  1  0
 11 36  1  0
 16 37  1  0
 17 38  1  0
 18 39  1  0
 19 40  1  0
 20 41  1  0
 21 42  1  0
 21 43  1  0
 22 44  1  0
 23 45  1  0
M  CHG  1  20   1
M  END
>  <UniqueID>  (8) 
6

>  <SMILES>  (8) 
COc1ccc(N[C@H]2CCCN(C(=O)c3cccc[nH+]3)C2)cc1

>  <Energy>  (8) 
53.63790041000217

>  <Genealogy>  (8) 
COc1ccc(NC2CCCN(C(=O)c3cccc[nH+]3)C2)cc1 (protonated)
COc1ccc(N[C@H]2CCCN(C(=O)c3cccc[nH+]3)C2)cc1 (chirality)
COc1ccc(N[C@H]2CCCN(C(=O)c3cccc[nH+]3)C2)cc1 (3D coordinates assigned)
COc1ccc(N[C@H]2CCCN(C(=O)c3cccc[nH+]3)C2)cc1 (nonaromatic ring conformer: 53.63790041000217 kcal/mol)

>  <smiles>  (8) 
COc1ccc(NC2CCCN(C(=O)c3ccccn3)C2)cc1

>  <score_type>  (8) 
oracle

>  <origin>  (8) 
adg

>  <m_score__min__energy>  (8) 
-6.3200000000000003

>  <m_primary>  (8) 
energy

$$$$
8:0
     RDKit          3D

 52 55  0  0  0  0  0  0  0  0999 V2000
   63.2950   33.4990   46.7160 C   0  0  0  0  0  0  0  0  0  0  0  0
   62.9140   32.3610   47.6660 C   0  0  0  0  0  0  0  0  0  0  0  0
   62.8770   32.8230   49.0750 N   0  0  0  0  0  0  0  0  0  0  0  0
   64.1730   33.4190   49.4750 C   0  0  0  0  0  0  0  0  0  0  0  0
   65.1680   32.3640   49.9680 C   0  0  0  0  0  0  0  0  0  0  0  0
   62.3540   31.7980   50.0180 C   0  0  0  0  0  0  0  0  0  0  0  0
   60.9150   32.0500   50.5250 C   0  0  0  0  0  0  0  0  0  0  0  0
   60.2670   33.1020   49.7270 N   0  0  0  0  0  0  0  0  0  0  0  0
   59.6700   32.5310   48.5420 C   0  0  0  0  0  0  0  0  0  0  0  0
   59.1590   31.1980   48.5810 C   0  0  0  0  0  0  0  0  0  0  0  0
   58.5510   30.6080   47.4490 C   0  0  0  0  0  0  0  0  0  0  0  0
   58.4530   31.3710   46.2870 C   0  0  0  0  0  0  0  0  0  0  0  0
   58.9310   32.6510   46.2680 C   0  0  0  0  0  0  0  0  0  0  0  0
   58.7330   33.2530   45.0620 C   0  0  0  0  0  0  0  0  0  0  0  0
   59.1210   34.5330   44.8390 N   0  0  0  0  0  0  0  0  0  0  0  0
   59.7260   35.2250   45.8590 C   0  0  0  0  0  0  0  0  0  0  0  0
   59.9450   34.6200   47.1260 C   0  0  0  0  0  0  0  0  0  0  0  0
   59.5340   33.2820   47.3390 C   0  0  0  0  0  0  0  0  0  0  0  0
   58.0680   32.2830   44.2000 C   0  0  0  0  0  0  0  0  0  0  0  0
   57.6440   32.3740   42.8790 C   0  0  0  0  0  0  0  0  0  0  0  0
   57.0270   31.2500   42.3080 C   0  0  0  0  0  0  0  0  0  0  0  0
   56.8480   30.0660   43.0570 C   0  0  0  0  0  0  0  0  0  0  0  0
   57.2850   29.9880   44.4030 C   0  0  0  0  0  0  0  0  0  0  0  0
   57.1340   28.8370   45.1880 O   0  0  0  0  0  0  0  0  0  0  0  0
   57.8730   27.6340   44.9970 C   0  0  0  0  0  0  0  0  0  0  0  0
   57.8930   31.1220   44.9490 C   0  0  0  0  0  0  0  0  0  0  0  0
   63.5906   34.3820   47.3016 H   0  0  0  0  0  0  0  0  0  0  0  0
   64.1358   33.1813   46.0818 H   0  0  0  0  0  0  0  0  0  0  0  0
   62.4324   33.7516   46.0818 H   0  0  0  0  0  0  0  0  0  0  0  0
   61.9203   31.9799   47.3879 H   0  0  0  0  0  0  0  0  0  0  0  0
   63.6730   31.5694   47.5806 H   0  0  0  0  0  0  0  0  0  0  0  0
   64.6073   33.9373   48.6074 H   0  0  0  0  0  0  0  0  0  0  0  0
   63.9822   34.1164   50.3040 H   0  0  0  0  0  0  0  0  0  0  0  0
   65.1772   32.3543   51.0679 H   0  0  0  0  0  0  0  0  0  0  0  0
   64.8673   31.3738   49.5951 H   0  0  0  0  0  0  0  0  0  0  0  0
   66.1741   32.6063   49.5951 H   0  0  0  0  0  0  0  0  0  0  0  0
   62.3700   30.8242   49.5067 H   0  0  0  0  0  0  0  0  0  0  0  0
   63.0035   31.8364   50.9049 H   0  0  0  0  0  0  0  0  0  0  0  0
   60.3329   31.1205   50.4403 H   0  0  0  0  0  0  0  0  0  0  0  0
   60.9584   32.3745   51.5752 H   0  0  0  0  0  0  0  0  0  0  0  0
   59.5400   33.5970   50.2930 H   0  0  0  0  0  0  0  0  0  0  0  0
   60.9830   33.8160   49.4510 H   0  0  0  0  0  0  0  0  0  0  0  0
   59.2402   30.6177   49.5119 H   0  0  0  0  0  0  0  0  0  0  0  0
   58.1669   29.5778   47.4845 H   0  0  0  0  0  0  0  0  0  0  0  0
   60.0462   36.2641   45.6927 H   0  0  0  0  0  0  0  0  0  0  0  0
   60.4299   35.1866   47.9346 H   0  0  0  0  0  0  0  0  0  0  0  0
   57.7876   33.2979   42.2995 H   0  0  0  0  0  0  0  0  0  0  0  0
   56.6789   31.2917   41.2654 H   0  0  0  0  0  0  0  0  0  0  0  0
   56.3642   29.1951   42.5907 H   0  0  0  0  0  0  0  0  0  0  0  0
   58.1360   27.2059   45.9756 H   0  0  0  0  0  0  0  0  0  0  0  0
   57.2615   26.9135   44.4340 H   0  0  0  0  0  0  0  0  0  0  0  0
   58.7921   27.8537   44.4340 H   0  0  0  0  0  0  0  0  0  0  0  0
  1  2  1  0
  2  3  1  0
  3  4  1  0
  4  5  1  0
  3  6  1  0
  6  7  1  0
  7  8  1  0
  8  9  1  0
  9 10  2  0
 10 11  1  0
 11 12  2  0
 12 13  1  0
 13 14  2  0
 14 15  1  0
 15 16  2  0
 16 17  1  0
 17 18  2  0
 14 19  1  0
 19 20  2  0
 20 21  1  0
 21 22  2  0
 22 23  1  0
 23 24  1  0
 24 25  1  0
 23 26  2  0
 18  9  1  0
 26 19  1  0
 26 12  1  0
 18 13  1  0
  1 27  1  0
  1 28  1  0
  1 29  1  0
  2 30  1  0
  2 31  1  0
  4 32  1  0
  4 33  1  0
  5 34  1  0
  5 35  1  0
  5 36  1  0
  6 37  1  0
  6 38  1  0
  7 39  1  0
  7 40  1  0
  8 41  1  0
  8 42  1  0
 10 43  1  0
 11 44  1  0
 16 45  1  0
 17 46  1  0
 20 47  1  0
 21 48  1  0
 22 49  1  0
 25 50  1  0
 25 51  1  0
 25 52  1  0
M  CHG  1   8   1
M  END
>  <UniqueID>  (9) 
7

>  <SMILES>  (9) 
CCN(CC)CC[NH2+]c1ccc2c3c(nccc13)-c1cccc(OC)c1-2

>  <Energy>  (9) 
105.59148327046904

>  <Genealogy>  (9) 
CCN(CC)CC[NH2+]c1ccc2c3c(nccc13)-c1cccc(OC)c1-2 (protonated)
CCN(CC)CC[NH2+]c1ccc2c3c(nccc13)-c1cccc(OC)c1-2 (3D coordinates assigned)
CCN(CC)CC[NH2+]c1ccc2c3c(nccc13)-c1cccc(OC)c1-2 (optimized conformer: 105.59148327046904 kcal/mol)

>  <smiles>  (9) 
CCN(CC)CCNc1ccc2c3c(nccc13)-c1cccc(OC)c1-2

>  <score_type>  (9) 
oracle

>  <origin>  (9) 
adg

>  <m_score__min__energy>  (9) 
-6.54

>  <m_primary>  (9) 
energy

$$$$
9:0
     RDKit          3D

 25 26  0  0  0  0  0  0  0  0999 V2000
   57.6060   32.1970   41.3340 C   0  0  0  0  0  0  0  0  0  0  0  0
   57.7150   32.0920   42.8270 C   0  0  0  0  0  0  0  0  0  0  0  0
   57.1790   30.9850   43.4950 C   0  0  0  0  0  0  0  0  0  0  0  0
   57.3000   30.8500   44.8830 C   0  0  0  0  0  0  0  0  0  0  0  0
   56.7250   29.7160   45.4650 O   0  0  0  0  0  0  0  0  0  0  0  0
   57.9890   31.8440   45.6270 C   0  0  0  0  0  0  0  0  0  0  0  0
   58.1540   31.7790   47.0270 C   0  0  0  0  0  0  0  0  0  0  0  0
   58.8170   32.7660   47.7030 N   0  0  0  0  0  0  0  0  0  0  0  0
   59.0010   32.6500   49.1520 C   0  0  0  0  0  0  0  0  0  0  0  0
   59.3710   33.8200   47.0380 C   0  0  0  0  0  0  0  0  0  0  0  0
   59.2400   33.9350   45.6570 C   0  0  0  0  0  0  0  0  0  0  0  0
   58.5460   32.9530   44.9420 C   0  0  0  0  0  0  0  0  0  0  0  0
   58.4110   33.0650   43.5510 C   0  0  0  0  0  0  0  0  0  0  0  0
   56.8363   32.9385   41.0738 H   0  0  0  0  0  0  0  0  0  0  0  0
   58.5740   32.5116   40.9169 H   0  0  0  0  0  0  0  0  0  0  0  0
   57.3278   31.2179   40.9169 H   0  0  0  0  0  0  0  0  0  0  0  0
   56.6540   30.2082   42.9197 H   0  0  0  0  0  0  0  0  0  0  0  0
   55.8740   29.7170   46.0080 H   0  0  0  0  0  0  0  0  0  0  0  0
   57.7437   30.9227   47.5823 H   0  0  0  0  0  0  0  0  0  0  0  0
   58.1795   33.1679   49.6686 H   0  0  0  0  0  0  0  0  0  0  0  0
   59.0019   31.5877   49.4376 H   0  0  0  0  0  0  0  0  0  0  0  0
   59.9598   33.1073   49.4376 H   0  0  0  0  0  0  0  0  0  0  0  0
   59.9266   34.5864   47.5983 H   0  0  0  0  0  0  0  0  0  0  0  0
   59.6803   34.7944   45.1301 H   0  0  0  0  0  0  0  0  0  0  0  0
   58.8553   33.9235   43.0260 H   0  0  0  0  0  0  0  0  0  0  0  0
  1  2  1  0
  2  3  2  0
  3  4  1  0
  4  5  1  0
  4  6  2  0
  6  7  1  0
  7  8  2  0
  8  9  1  0
  8 10  1  0
 10 11  2  0
 11 12  1  0
 12 13  2  0
 13  2  1  0
 12  6  1  0
  1 14  1  0
  1 15  1  0
  1 16  1  0
  3 17  1  0
  5 18  1  0
  7 19  1  0
  9 20  1  0
  9 21  1  0
  9 22  1  0
 10 23  1  0
 11 24  1  0
 13 25  1  0
M  CHG  1   8   1
M  END
>  <UniqueID>  (10) 
8

>  <SMILES>  (10) 
Cc1cc(O)c2c[n+](C)ccc2c1

>  <Energy>  (10) 
31.057407837534406

>  <Genealogy>  (10) 
Cc1cc(O)c2c[n+](C)ccc2c1 (3D coordinates assigned)
Cc1cc(O)c2c[n+](C)ccc2c1 (optimized conformer: 31.057407837534406 kcal/mol)

>  <smiles>  (10) 
Cc1cc(O)c2c[n+](C)ccc2c1

>  <score_type>  (10) 
oracle

>  <origin>  (10) 
adg

>  <m_score__min__energy>  (10) 
-4.4299999999999997

>  <m_primary>  (10) 
energy

$$$$
10:0
     RDKit          3D

 38 39  0  0  0  0  0  0  0  0999 V2000
   63.7630   33.1480   46.8290 C   0  0  0  0  0  0  0  0  0  0  0  0
   62.4490   32.8330   47.4800 C   0  0  0  0  0  0  0  0  0  0  0  0
   61.7230   33.8440   48.1190 C   0  0  0  0  0  0  0  0  0  0  0  0
   60.4740   33.5700   48.6730 C   0  0  0  0  0  0  0  0  0  0  0  0
   59.9190   32.2820   48.5960 C   0  0  0  0  0  0  0  0  0  0  0  0
   58.5500   32.0570   49.1830 C   0  0  0  0  0  0  0  0  0  0  0  0
   60.6280   31.2600   47.9090 C   0  0  0  0  0  0  0  0  0  0  0  0
   60.0590   29.8720   47.7110 C   0  0  0  0  0  0  0  0  0  0  0  0
   59.1510   29.7110   46.1260 S   0  0  0  0  0  0  0  0  0  0  0  0
   57.8860   28.4980   46.6670 C   0  0  0  0  0  0  0  0  0  0  0  0
   57.1350   27.8960   45.4810 C   0  0  0  0  0  0  0  0  0  0  0  0
   55.9060   28.6390   45.2220 N   0  0  0  0  0  0  0  0  0  0  0  0
   55.7510   29.6830   44.2510 C   0  0  0  0  0  0  0  0  0  0  0  0
   54.7570   29.6410   43.4800 O   0  0  0  0  0  0  0  0  0  0  0  0
   56.6720   30.8310   44.1460 C   0  0  0  0  0  0  0  0  0  0  0  0
   57.4320   31.2000   43.0490 C   0  0  0  0  0  0  0  0  0  0  0  0
   58.1190   32.3330   43.4300 C   0  0  0  0  0  0  0  0  0  0  0  0
   57.7290   32.5880   44.7280 C   0  0  0  0  0  0  0  0  0  0  0  0
   58.3460   34.0310   45.8080 Br  0  0  0  0  0  0  0  0  0  0  0  0
   56.8630   31.6850   45.1260 O   0  0  0  0  0  0  0  0  0  0  0  0
   61.8970   31.5500   47.3720 C   0  0  0  0  0  0  0  0  0  0  0  0
   64.5220   33.3299   47.6042 H   0  0  0  0  0  0  0  0  0  0  0  0
   64.0747   32.2991   46.2027 H   0  0  0  0  0  0  0  0  0  0  0  0
   63.6560   34.0459   46.2027 H   0  0  0  0  0  0  0  0  0  0  0  0
   62.1400   34.8598   48.1844 H   0  0  0  0  0  0  0  0  0  0  0  0
   59.9156   34.3726   49.1770 H   0  0  0  0  0  0  0  0  0  0  0  0
   58.6156   32.0678   50.2810 H   0  0  0  0  0  0  0  0  0  0  0  0
   57.8717   32.8557   48.8483 H   0  0  0  0  0  0  0  0  0  0  0  0
   58.1631   31.0832   48.8483 H   0  0  0  0  0  0  0  0  0  0  0  0
   60.8856   29.1463   47.7203 H   0  0  0  0  0  0  0  0  0  0  0  0
   59.3470   29.6808   48.5274 H   0  0  0  0  0  0  0  0  0  0  0  0
   58.3829   27.6886   47.2220 H   0  0  0  0  0  0  0  0  0  0  0  0
   57.1577   29.0232   47.3024 H   0  0  0  0  0  0  0  0  0  0  0  0
   57.7767   27.9360   44.5885 H   0  0  0  0  0  0  0  0  0  0  0  0
   56.8765   26.8531   45.7167 H   0  0  0  0  0  0  0  0  0  0  0  0
   57.4782   30.6932   42.0738 H   0  0  0  0  0  0  0  0  0  0  0  0
   58.8306   32.9132   42.8243 H   0  0  0  0  0  0  0  0  0  0  0  0
   62.4630   30.7577   46.8603 H   0  0  0  0  0  0  0  0  0  0  0  0
  1  2  1  0
  2  3  2  0
  3  4  1  0
  4  5  2  0
  5  6  1  0
  5  7  1  0
  7  8  1  0
  8  9  1  0
  9 10  1  0
 10 11  1  0
 11 12  1  0
 12 13  1  0
 13 14  2  0
 13 15  1  0
 15 16  2  0
 16 17  1  0
 17 18  2  0
 18 19  1  0
 18 20  1  0
  7 21  2  0
 21  2  1  0
 20 15  1  0
  1 22  1  0
  1 23  1  0
  1 24  1  0
  3 25  1  0
  4 26  1  0
  6 27  1  0
  6 28  1  0
  6 29  1  0
  8 30  1  0
  8 31  1  0
 10 32  1  0
 10 33  1  0
 11 34  1  0
 11 35  1  0
 16 36  1  0
 17 37  1  0
 21 38  1  0
M  CHG  1  12  -1
M  END
>  <UniqueID>  (11) 
9

>  <SMILES>  (11) 
Cc1ccc(C)c(CSCC[N-]C(=O)c2ccc(Br)o2)c1

>  <Energy>  (11) 
57.79589953543895

>  <Genealogy>  (11) 
Cc1ccc(C)c(CSCC[N-]C(=O)c2ccc(Br)o2)c1 (protonated)
Cc1ccc(C)c(CSCC[N-]C(=O)c2ccc(Br)o2)c1 (3D coordinates assigned)
Cc1ccc(C)c(CSCC[N-]C(=O)c2ccc(Br)o2)c1 (optimized conformer: 57.79589953543895 kcal/mol)

>  <smiles>  (11) 
Cc1ccc(C)c(CSCCNC(=O)c2ccc(Br)o2)c1

>  <score_type>  (11) 
oracle

>  <origin>  (11) 
adg

>  <m_score__min__energy>  (11) 
-9.5299999999999994

>  <m_primary>  (11) 
energy

$$$$
11:0
     RDKit          3D

 61 64  0  0  0  0  0  0  0  0999 V2000
   61.0900   31.3700   48.9949 H   0  0  0  0  0  0  0  0  0  0  0  0
   62.0350   31.8240   49.3280 C   0  0  0  0  0  0  0  0  0  0  0  0
   62.9160   31.2150   50.2530 C   0  0  0  0  0  0  0  0  0  0  0  0
   62.6450   29.8700   50.8680 C   0  0  0  0  0  0  0  0  0  0  0  0
   63.0079   29.8838   51.9063 H   0  0  0  0  0  0  0  0  0  0  0  0
   63.1662   29.1240   50.2501 H   0  0  0  0  0  0  0  0  0  0  0  0
   61.2110   29.4960   50.8790 N   0  0  0  0  0  0  0  0  0  0  0  0
   60.6950   29.0150   49.5740 C   0  0  0  0  0  0  0  0  0  0  0  0
   61.3139   29.4540   48.7776 H   0  0  0  0  0  0  0  0  0  0  0  0
   59.6410   29.3253   49.5222 H   0  0  0  0  0  0  0  0  0  0  0  0
   60.7080   27.4860   49.4040 C   0  0  0  0  0  0  0  0  0  0  0  0
   60.7121   27.0070   50.3942 H   0  0  0  0  0  0  0  0  0  0  0  0
   59.8125   27.1713   48.8481 H   0  0  0  0  0  0  0  0  0  0  0  0
   61.6087   27.1865   48.8481 H   0  0  0  0  0  0  0  0  0  0  0  0
   60.3080   30.4260   51.5930 C   0  0  0  0  0  0  0  0  0  0  0  0
   60.1113   30.0290   52.5998 H   0  0  0  0  0  0  0  0  0  0  0  0
   60.7999   31.4085   51.6454 H   0  0  0  0  0  0  0  0  0  0  0  0
   58.9780   30.5980   50.8600 C   0  0  0  0  0  0  0  0  0  0  0  0
   58.1656   30.7031   51.5942 H   0  0  0  0  0  0  0  0  0  0  0  0
   59.0207   31.4981   50.2291 H   0  0  0  0  0  0  0  0  0  0  0  0
   58.7904   29.7166   50.2291 H   0  0  0  0  0  0  0  0  0  0  0  0
   64.0310   31.9240   50.5770 N   0  0  0  0  0  0  0  0  0  0  0  0
   63.9310   33.3210   49.6850 S   0  0  0  0  0  0  0  0  0  0  0  0
   62.4960   33.0610   48.8860 C   0  0  0  0  0  0  0  0  0  0  0  0
   61.9040   33.9890   47.9620 N   0  0  0  0  0  0  0  0  0  0  0  0
   60.8220   33.8520   47.2510 C   0  0  0  0  0  0  0  0  0  0  0  0
   60.4780   32.6030   46.8160 N   0  0  0  0  0  0  0  0  0  0  0  0
   59.3540   32.4550   46.0710 C   0  0  0  0  0  0  0  0  0  0  0  0
   58.5560   33.5120   45.7630 C   0  0  0  0  0  0  0  0  0  0  0  0
   58.8860   34.7850   46.2030 C   0  0  0  0  0  0  0  0  0  0  0  0
   58.2530   35.6519   45.9629 H   0  0  0  0  0  0  0  0  0  0  0  0
   60.0230   34.9250   46.9440 N   0  0  0  0  0  0  0  0  0  0  0  0
   57.4850   33.0350   45.0450 C   0  0  0  0  0  0  0  0  0  0  0  0
   56.6393   33.6098   44.6395 H   0  0  0  0  0  0  0  0  0  0  0  0
   57.7070   31.6610   44.9440 C   0  0  0  0  0  0  0  0  0  0  0  0
   56.7850   30.7320   44.2680 C   0  0  0  0  0  0  0  0  0  0  0  0
   55.9510   30.0920   44.9630 O   0  0  0  0  0  0  0  0  0  0  0  0
   56.8010   30.5690   42.8370 N   0  0  0  0  0  0  0  0  0  0  0  0
   56.2680   29.3350   42.2520 C   0  0  0  0  0  0  0  0  0  0  0  0
   55.9706   28.6464   43.0566 H   0  0  0  0  0  0  0  0  0  0  0  0
   55.3922   29.5724   41.6302 H   0  0  0  0  0  0  0  0  0  0  0  0
   57.0413   28.8602   41.6302 H   0  0  0  0  0  0  0  0  0  0  0  0
   57.2430   31.6710   41.9750 C   0  0  0  0  0  0  0  0  0  0  0  0
   57.5803   32.5119   42.5988 H   0  0  0  0  0  0  0  0  0  0  0  0
   58.0736   31.3293   41.3400 H   0  0  0  0  0  0  0  0  0  0  0  0
   56.4065   31.9980   41.3400 H   0  0  0  0  0  0  0  0  0  0  0  0
   58.8570   31.2990   45.5810 N   0  0  0  0  0  0  0  0  0  0  0  0
   59.3470   29.9330   45.8430 C   0  0  0  0  0  0  0  0  0  0  0  0
   60.3263   30.0625   46.3269 H   0  0  0  0  0  0  0  0  0  0  0  0
   59.4820   29.1260   44.5480 C   0  0  0  0  0  0  0  0  0  0  0  0
   58.8826   29.5837   43.7473 H   0  0  0  0  0  0  0  0  0  0  0  0
   60.5239   29.0963   44.1964 H   0  0  0  0  0  0  0  0  0  0  0  0
   58.9610   27.7360   44.8700 C   0  0  0  0  0  0  0  0  0  0  0  0
   58.4965   27.2837   43.9814 H   0  0  0  0  0  0  0  0  0  0  0  0
   59.7684   27.0598   45.1874 H   0  0  0  0  0  0  0  0  0  0  0  0
   57.9300   27.9360   45.9640 C   0  0  0  0  0  0  0  0  0  0  0  0
   56.9394   28.1287   45.5264 H   0  0  0  0  0  0  0  0  0  0  0  0
   57.8350   27.0431   46.5994 H   0  0  0  0  0  0  0  0  0  0  0  0
   58.4020   29.1450   46.7620 C   0  0  0  0  0  0  0  0  0  0  0  0
   57.5432   29.7695   47.0492 H   0  0  0  0  0  0  0  0  0  0  0  0
   58.9122   28.8366   47.6865 H   0  0  0  0  0  0  0  0  0  0  0  0
  1  2  1  0
  2  3  1  0
  3  4  1  0
  4  5  1  0
  4  6  1  0
  4  7  1  0
  7  8  1  0
  8  9  1  0
  8 10  1  0
  8 11  1  0
 11 12  1  0
 11 13  1  0
 11 14  1  0
  7 15  1  0
 15 16  1  0
 15 17  1  0
 15 18  1  0
 18 19  1  0
 18 20  1  0
 18 21  1  0
  3 22  2  0
 22 23  1  0
 23 24  1  0
 24 25  1  0
 25 26  2  0
 26 27  1  0
 27 28  2  0
 28 29  1  0
 29 30  2  0
 30 31  1  0
 30 32  1  0
 29 33  1  0
 33 34  1  0
 33 35  2  0
 35 36  1  0
 36 37  2  0
 36 38  1  0
 38 39  1  0
 39 40  1  0
 39 41  1  0
 39 42  1  0
 38 43  1  0
 43 44  1  0
 43 45  1  0
 43 46  1  0
 35 47  1  0
 47 48  1  0
 48 49  1  0
 48 50  1  0
 50 51  1  0
 50 52  1  0
 50 53  1  0
 53 54  1  0
 53 55  1  0
 53 56  1  0
 56 57  1  0
 56 58  1  0
 56 59  1  0
 59 60  1  0
 59 61  1  0
 24  2  2  0
 32 26  1  0
 59 48  1  0
 47 28  1  0
M  CHG  1  32  -1
M  END
>  <UniqueID>  (12) 
10

>  <SMILES>  (12) 
CCN(CC)Cc1cc(/N=c2/nc3c(c[n-]2)cc(C(=O)N(C)C)n3C2CCCC2)sn1

>  <Energy>  (12) 
144.67385781228884

>  <Genealogy>  (12) 
CCN(CC)Cc1cc(N=c2nc3c(c[n-]2)cc(C(=O)N(C)C)n3C2CCCC2)sn1 (protonated)
CCN(CC)Cc1cc(/N=c2/nc3c(c[n-]2)cc(C(=O)N(C)C)n3C2CCCC2)sn1 (cis-trans isomerization)
CCN(CC)Cc1cc(/N=c2/nc3c(c[n-]2)cc(C(=O)N(C)C)n3C2CCCC2)sn1 (3D coordinates assigned)
CCN(CC)Cc1cc(/N=c2/nc3c(c[n-]2)cc(C(=O)N(C)C)n3C2CCCC2)sn1 (nonaromatic ring conformer: 144.67385781228884 kcal/mol)

>  <smiles>  (12) 
CCN(CC)Cc1cc(N=c2nc3c(c[nH]2)cc(C(=O)N(C)C)n3C2CCCC2)sn1

>  <score_type>  (12) 
oracle

>  <origin>  (12) 
adg

>  <m_score__min__energy>  (12) 
-9.5700000000000003

>  <m_primary>  (12) 
energy

$$$$
12:0
     RDKit          3D

 38 40  0  0  0  0  0  0  0  0999 V2000
   57.3970   32.3460   40.7290 C   0  0  0  0  0  0  0  0  0  0  0  0
   57.4510   31.9670   42.1790 C   0  0  0  0  0  0  0  0  0  0  0  0
   56.7480   30.8440   42.6400 C   0  0  0  0  0  0  0  0  0  0  0  0
   56.7760   30.4990   43.9980 C   0  0  0  0  0  0  0  0  0  0  0  0
   55.9950   29.3160   44.4910 C   0  0  0  0  0  0  0  0  0  0  0  0
   57.4750   31.3090   44.9060 C   0  0  0  0  0  0  0  0  0  0  0  0
   58.1690   32.4490   44.4620 C   0  0  0  0  0  0  0  0  0  0  0  0
   58.8890   33.2790   45.3970 N   0  0  0  0  0  0  0  0  0  0  0  0
   59.3350   34.5350   45.1790 C   0  0  0  0  0  0  0  0  0  0  0  0
   59.9660   35.0180   46.3080 C   0  0  0  0  0  0  0  0  0  0  0  0
   59.9110   34.0050   47.2480 C   0  0  0  0  0  0  0  0  0  0  0  0
   60.4250   34.0820   48.6310 C   0  0  0  0  0  0  0  0  0  0  0  0
   59.6390   34.4390   49.5510 O   0  0  0  0  0  0  0  0  0  0  0  0
   61.8240   33.7400   48.9750 C   0  0  0  0  0  0  0  0  0  0  0  0
   62.7310   33.3150   47.9860 C   0  0  0  0  0  0  0  0  0  0  0  0
   64.0530   33.0140   48.3230 C   0  0  0  0  0  0  0  0  0  0  0  0
   64.4880   33.1450   49.6450 C   0  0  0  0  0  0  0  0  0  0  0  0
   66.1490   32.7650   50.0650 Cl  0  0  0  0  0  0  0  0  0  0  0  0
   63.6000   33.5840   50.6310 C   0  0  0  0  0  0  0  0  0  0  0  0
   62.2760   33.8870   50.2970 C   0  0  0  0  0  0  0  0  0  0  0  0
   59.2320   32.9520   46.6620 C   0  0  0  0  0  0  0  0  0  0  0  0
   58.1460   32.7710   43.0930 C   0  0  0  0  0  0  0  0  0  0  0  0
   57.2424   33.4314   40.6392 H   0  0  0  0  0  0  0  0  0  0  0  0
   58.3437   32.0690   40.2421 H   0  0  0  0  0  0  0  0  0  0  0  0
   56.5654   31.8156   40.2421 H   0  0  0  0  0  0  0  0  0  0  0  0
   56.1716   30.2308   41.9317 H   0  0  0  0  0  0  0  0  0  0  0  0
   55.9919   29.3113   45.5910 H   0  0  0  0  0  0  0  0  0  0  0  0
   54.9608   29.3797   44.1217 H   0  0  0  0  0  0  0  0  0  0  0  0
   56.4599   28.3900   44.1217 H   0  0  0  0  0  0  0  0  0  0  0  0
   57.4802   31.0500   45.9751 H   0  0  0  0  0  0  0  0  0  0  0  0
   59.2132   35.0923   44.2385 H   0  0  0  0  0  0  0  0  0  0  0  0
   60.4218   36.0111   46.4347 H   0  0  0  0  0  0  0  0  0  0  0  0
   62.3971   33.2194   46.9423 H   0  0  0  0  0  0  0  0  0  0  0  0
   64.7533   32.6731   47.5462 H   0  0  0  0  0  0  0  0  0  0  0  0
   63.9427   33.6913   51.6707 H   0  0  0  0  0  0  0  0  0  0  0  0
   61.5841   34.2428   51.0746 H   0  0  0  0  0  0  0  0  0  0  0  0
   59.0056   31.9935   47.1519 H   0  0  0  0  0  0  0  0  0  0  0  0
   58.6796   33.6640   42.7355 H   0  0  0  0  0  0  0  0  0  0  0  0
  1  2  1  0
  2  3  2  0
  3  4  1  0
  4  5  1  0
  4  6  2  0
  6  7  1  0
  7  8  1  0
  8  9  1  0
  9 10  2  0
 10 11  1  0
 11 12  1  0
 12 13  2  0
 12 14  1  0
 14 15  2  0
 15 16  1  0
 16 17  2  0
 17 18  1  0
 17 19  1  0
 19 20  2  0
 11 21  2  0
  7 22  2  0
 22  2  1  0
 21  8  1  0
 20 14  1  0
  1 23  1  0
  1 24  1  0
  1 25  1  0
  3 26  1  0
  5 27  1  0
  5 28  1  0
  5 29  1  0
  6 30  1  0
  9 31  1  0
 10 32  1  0
 15 33  1  0
 16 34  1  0
 19 35  1  0
 20 36  1  0
 21 37  1  0
 22 38  1  0
M  END
>  <UniqueID>  (13) 
11

>  <SMILES>  (13) 
Cc1cc(C)cc(-n2ccc(C(=O)c3ccc(Cl)cc3)c2)c1

>  <Energy>  (13) 
72.54141970654737

>  <Genealogy>  (13) 
Cc1cc(C)cc(-n2ccc(C(=O)c3ccc(Cl)cc3)c2)c1 (3D coordinates assigned)
Cc1cc(C)cc(-n2ccc(C(=O)c3ccc(Cl)cc3)c2)c1 (optimized conformer: 72.54141970654737 kcal/mol)

>  <smiles>  (13) 
Cc1cc(C)cc(-n2ccc(C(=O)c3ccc(Cl)cc3)c2)c1

>  <score_type>  (13) 
oracle

>  <origin>  (13) 
adg

>  <m_score__min__energy>  (13) 
-8.5299999999999994

>  <m_primary>  (13) 
energy

$$$$
13:0
     RDKit          3D

 44 47  0  0  0  0  0  0  0  0999 V2000
   63.4110   33.0910   46.7670 C   0  0  0  0  0  0  0  0  0  0  0  0
   62.4690   34.1030   46.4300 O   0  0  0  0  0  0  0  0  0  0  0  0
   61.0890   34.0200   46.6740 C   0  0  0  0  0  0  0  0  0  0  0  0
   60.1460   33.9720   45.6290 C   0  0  0  0  0  0  0  0  0  0  0  0
   58.7750   33.8800   45.9090 C   0  0  0  0  0  0  0  0  0  0  0  0
   57.7730   33.8710   44.7880 C   0  0  0  0  0  0  0  0  0  0  0  0
   57.4740   32.4970   44.4020 N   0  0  0  0  0  0  0  0  0  0  0  0
   58.0400   31.7820   43.4170 C   0  0  0  0  0  0  0  0  0  0  0  0
   57.5410   30.5350   43.4520 N   0  0  0  0  0  0  0  0  0  0  0  0
   56.6870   30.4960   44.4640 N   0  0  0  0  0  0  0  0  0  0  0  0
   56.6510   31.6870   45.0460 N   0  0  0  0  0  0  0  0  0  0  0  0
   58.3440   33.8660   47.2400 C   0  0  0  0  0  0  0  0  0  0  0  0
   59.2710   33.9140   48.2830 C   0  0  0  0  0  0  0  0  0  0  0  0
   60.6500   33.9840   48.0070 C   0  0  0  0  0  0  0  0  0  0  0  0
   61.6170   34.0270   49.0260 O   0  0  0  0  0  0  0  0  0  0  0  0
   62.1370   32.8930   49.7220 C   0  0  0  0  0  0  0  0  0  0  0  0
   61.2750   31.6910   49.4880 C   0  0  0  0  0  0  0  0  0  0  0  0
   60.6910   30.9660   50.5230 C   0  0  0  0  0  0  0  0  0  0  0  0
   59.8290   29.7010   49.8320 S   0  0  0  0  0  0  0  0  0  0  0  0
   60.2300   30.1260   48.2510 C   0  0  0  0  0  0  0  0  0  0  0  0
   59.8040   29.4120   47.0250 C   0  0  0  0  0  0  0  0  0  0  0  0
   60.6660   29.3200   45.9200 C   0  0  0  0  0  0  0  0  0  0  0  0
   60.2600   28.6450   44.7680 C   0  0  0  0  0  0  0  0  0  0  0  0
   58.9930   28.0630   44.7250 C   0  0  0  0  0  0  0  0  0  0  0  0
   58.1670   28.1580   45.8000 N   0  0  0  0  0  0  0  0  0  0  0  0
   58.5360   28.8090   46.9340 C   0  0  0  0  0  0  0  0  0  0  0  0
   61.0160   31.2260   48.2360 N   0  0  0  0  0  0  0  0  0  0  0  0
   63.4864   33.0100   47.8614 H   0  0  0  0  0  0  0  0  0  0  0  0
   63.0800   32.1284   46.3500 H   0  0  0  0  0  0  0  0  0  0  0  0
   64.3948   33.3523   46.3500 H   0  0  0  0  0  0  0  0  0  0  0  0
   60.4879   34.0070   44.5841 H   0  0  0  0  0  0  0  0  0  0  0  0
   56.8487   34.3659   45.1207 H   0  0  0  0  0  0  0  0  0  0  0  0
   58.1911   34.4077   43.9236 H   0  0  0  0  0  0  0  0  0  0  0  0
   58.7873   32.1546   42.7010 H   0  0  0  0  0  0  0  0  0  0  0  0
   57.7740   29.7340   42.8240 H   0  0  0  0  0  0  0  0  0  0  0  0
   57.2686   33.8169   47.4661 H   0  0  0  0  0  0  0  0  0  0  0  0
   58.9221   33.8970   49.3261 H   0  0  0  0  0  0  0  0  0  0  0  0
   63.1551   32.6835   49.3622 H   0  0  0  0  0  0  0  0  0  0  0  0
   62.1526   33.1143   50.7994 H   0  0  0  0  0  0  0  0  0  0  0  0
   60.7782   31.1823   51.5980 H   0  0  0  0  0  0  0  0  0  0  0  0
   61.6637   29.7812   45.9627 H   0  0  0  0  0  0  0  0  0  0  0  0
   60.9334   28.5725   43.9012 H   0  0  0  0  0  0  0  0  0  0  0  0
   58.6630   27.5280   43.8223 H   0  0  0  0  0  0  0  0  0  0  0  0
   57.8406   28.8649   47.7845 H   0  0  0  0  0  0  0  0  0  0  0  0
  1  2  1  0
  2  3  1  0
  3  4  2  0
  4  5  1  0
  5  6  1  0
  6  7  1  0
  7  8  1  0
  8  9  2  0
  9 10  1  0
 10 11  2  0
  5 12  2  0
 12 13  1  0
 13 14  2  0
 14 15  1  0
 15 16  1  0
 16 17  1  0
 17 18  2  0
 18 19  1  0
 19 20  1  0
 20 21  1  0
 21 22  2  0
 22 23  1  0
 23 24  2  0
 24 25  1  0
 25 26  2  0
 20 27  2  0
 14  3  1  0
 27 17  1  0
 11  7  1  0
 26 21  1  0
  1 28  1  0
  1 29  1  0
  1 30  1  0
  4 31  1  0
  6 32  1  0
  6 33  1  0
  8 34  1  0
  9 35  1  0
 12 36  1  0
 13 37  1  0
 16 38  1  0
 16 39  1  0
 18 40  1  0
 22 41  1  0
 23 42  1  0
 24 43  1  0
 26 44  1  0
M  CHG  1   9   1
M  END
>  <UniqueID>  (14) 
12

>  <SMILES>  (14) 
COc1cc(Cn2c[nH+]nn2)ccc1OCc1csc(-c2cccnc2)n1

>  <Energy>  (14) 
117.05281241887764

>  <Genealogy>  (14) 
COc1cc(Cn2c[nH+]nn2)ccc1OCc1csc(-c2cccnc2)n1 (protonated)
COc1cc(Cn2c[nH+]nn2)ccc1OCc1csc(-c2cccnc2)n1 (3D coordinates assigned)
COc1cc(Cn2c[nH+]nn2)ccc1OCc1csc(-c2cccnc2)n1 (optimized conformer: 117.05281241887764 kcal/mol)

>  <smiles>  (14) 
COc1cc(Cn2cnnn2)ccc1OCc1csc(-c2cccnc2)n1

>  <score_type>  (14) 
oracle

>  <origin>  (14) 
adg

>  <m_score__min__energy>  (14) 
-7.4500000000000002

>  <m_primary>  (14) 
energy

$$$$
14:0
     RDKit          3D

 29 30  0  0  0  0  0  0  0  0999 V2000
   59.6530   35.0140   46.0870 C   0  0  0  0  0  0  0  0  0  0  0  0
   59.4340   34.3460   44.8480 O   0  0  0  0  0  0  0  0  0  0  0  0
   58.6020   33.2280   44.6900 C   0  0  0  0  0  0  0  0  0  0  0  0
   58.2240   32.8510   43.4000 C   0  0  0  0  0  0  0  0  0  0  0  0
   57.3940   31.7480   43.2030 C   0  0  0  0  0  0  0  0  0  0  0  0
   56.9320   31.0230   44.3110 C   0  0  0  0  0  0  0  0  0  0  0  0
   56.0430   29.8530   44.1130 C   0  0  0  0  0  0  0  0  0  0  0  0
   55.4930   29.6760   42.9940 O   0  0  0  0  0  0  0  0  0  0  0  0
   55.8270   28.8820   45.1460 N   0  0  0  0  0  0  0  0  0  0  0  0
   56.7720   27.9030   45.6010 C   0  0  0  0  0  0  0  0  0  0  0  0
   58.1440   28.1940   45.7140 C   0  0  0  0  0  0  0  0  0  0  0  0
   59.0340   27.2200   46.1760 C   0  0  0  0  0  0  0  0  0  0  0  0
   58.5620   25.9580   46.5440 C   0  0  0  0  0  0  0  0  0  0  0  0
   57.1970   25.6700   46.4580 C   0  0  0  0  0  0  0  0  0  0  0  0
   56.3050   26.6410   45.9940 C   0  0  0  0  0  0  0  0  0  0  0  0
   57.3240   31.3950   45.5660 N   0  0  0  0  0  0  0  0  0  0  0  0
   58.1330   32.4700   45.7760 C   0  0  0  0  0  0  0  0  0  0  0  0
   59.4284   34.3288   46.9177 H   0  0  0  0  0  0  0  0  0  0  0  0
   60.7033   35.3347   46.1500 H   0  0  0  0  0  0  0  0  0  0  0  0
   58.9964   35.8943   46.1500 H   0  0  0  0  0  0  0  0  0  0  0  0
   58.5828   33.4272   42.5344 H   0  0  0  0  0  0  0  0  0  0  0  0
   57.1035   31.4485   42.1852 H   0  0  0  0  0  0  0  0  0  0  0  0
   58.5175   29.1911   45.4379 H   0  0  0  0  0  0  0  0  0  0  0  0
   60.1076   27.4478   46.2498 H   0  0  0  0  0  0  0  0  0  0  0  0
   59.2645   25.1908   46.9015 H   0  0  0  0  0  0  0  0  0  0  0  0
   56.8245   24.6787   46.7556 H   0  0  0  0  0  0  0  0  0  0  0  0
   55.2303   26.4135   45.9369 H   0  0  0  0  0  0  0  0  0  0  0  0
   57.0190   30.8410   46.3980 H   0  0  0  0  0  0  0  0  0  0  0  0
   58.4208   32.7463   46.8011 H   0  0  0  0  0  0  0  0  0  0  0  0
  1  2  1  0
  2  3  1  0
  3  4  2  0
  4  5  1  0
  5  6  2  0
  6  7  1  0
  7  8  2  0
  7  9  1  0
  9 10  1  0
 10 11  2  0
 11 12  1  0
 12 13  2  0
 13 14  1  0
 14 15  2  0
  6 16  1  0
 16 17  2  0
 17  3  1  0
 15 10  1  0
  1 18  1  0
  1 19  1  0
  1 20  1  0
  4 21  1  0
  5 22  1  0
 11 23  1  0
 12 24  1  0
 13 25  1  0
 14 26  1  0
 15 27  1  0
 16 28  1  0
 17 29  1  0
M  CHG  2   9  -1  16   1
M  END
>  <UniqueID>  (15) 
13

>  <SMILES>  (15) 
COc1ccc(C(=O)[N-]c2ccccc2)[nH+]c1

>  <Energy>  (15) 
35.54840160100387

>  <Genealogy>  (15) 
COc1ccc(C(=O)[N-]c2ccccc2)[nH+]c1 (protonated)
COc1ccc(C(=O)[N-]c2ccccc2)[nH+]c1 (3D coordinates assigned)
COc1ccc(C(=O)[N-]c2ccccc2)[nH+]c1 (optimized conformer: 35.54840160100387 kcal/mol)

>  <smiles>  (15) 
COc1ccc(C(=O)Nc2ccccc2)nc1

>  <score_type>  (15) 
oracle

>  <origin>  (15) 
adg

>  <m_score__min__energy>  (15) 
-6.6500000000000004

>  <m_primary>  (15) 
energy

$$$$
15:0
     RDKit          3D

 39 41  0  0  0  0  0  0  0  0999 V2000
   59.7400   29.2410   46.8060 C   0  0  0  0  0  0  0  0  0  0  0  0
   58.5690   29.0090   45.9590 N   0  0  0  0  0  0  0  0  0  0  0  0
   57.7770   29.9170   45.3360 C   0  0  0  0  0  0  0  0  0  0  0  0
   57.9800   31.3810   45.3240 C   0  0  0  0  0  0  0  0  0  0  0  0
   58.1360   32.0720   46.5390 C   0  0  0  0  0  0  0  0  0  0  0  0
   58.3060   33.4590   46.5440 C   0  0  0  0  0  0  0  0  0  0  0  0
   58.3040   34.1710   45.3410 C   0  0  0  0  0  0  0  0  0  0  0  0
   58.1250   33.4950   44.1310 C   0  0  0  0  0  0  0  0  0  0  0  0
   57.9570   32.1070   44.1200 C   0  0  0  0  0  0  0  0  0  0  0  0
   56.7530   29.3190   44.6930 N   0  0  0  0  0  0  0  0  0  0  0  0
   56.9040   28.0180   44.8820 N   0  0  0  0  0  0  0  0  0  0  0  0
   58.0030   27.8260   45.6320 C   0  0  0  0  0  0  0  0  0  0  0  0
   58.5170   26.4670   46.0210 C   0  0  0  0  0  0  0  0  0  0  0  0
   57.7240   25.9070   47.1170 N   0  0  0  0  0  0  0  0  0  0  0  0
   56.2720   25.1470   46.5230 S   0  0  0  0  0  0  0  0  0  0  0  0
   55.5900   24.4380   47.6600 O   0  0  0  0  0  0  0  0  0  0  0  0
   55.3410   26.1990   45.9830 O   0  0  0  0  0  0  0  0  0  0  0  0
   56.6530   23.9690   45.2680 C   0  0  0  0  0  0  0  0  0  0  0  0
   55.8940   23.9060   44.0900 C   0  0  0  0  0  0  0  0  0  0  0  0
   56.2170   22.9750   43.0960 C   0  0  0  0  0  0  0  0  0  0  0  0
   57.2930   22.1020   43.2770 C   0  0  0  0  0  0  0  0  0  0  0  0
   58.0490   22.1570   44.4530 C   0  0  0  0  0  0  0  0  0  0  0  0
   57.7300   23.0860   45.4470 C   0  0  0  0  0  0  0  0  0  0  0  0
   59.4447   29.1825   47.8640 H   0  0  0  0  0  0  0  0  0  0  0  0
   60.5022   28.4764   46.5953 H   0  0  0  0  0  0  0  0  0  0  0  0
   60.1531   30.2385   46.5953 H   0  0  0  0  0  0  0  0  0  0  0  0
   58.1241   31.5183   47.4894 H   0  0  0  0  0  0  0  0  0  0  0  0
   58.4417   33.9918   47.4967 H   0  0  0  0  0  0  0  0  0  0  0  0
   58.4432   35.2621   45.3468 H   0  0  0  0  0  0  0  0  0  0  0  0
   58.1163   34.0563   43.1850 H   0  0  0  0  0  0  0  0  0  0  0  0
   57.8063   31.5809   43.1658 H   0  0  0  0  0  0  0  0  0  0  0  0
   56.2710   27.2840   44.4940 H   0  0  0  0  0  0  0  0  0  0  0  0
   58.4560   25.7957   45.1517 H   0  0  0  0  0  0  0  0  0  0  0  0
   59.5604   26.5662   46.3548 H   0  0  0  0  0  0  0  0  0  0  0  0
   55.0438   24.5892   43.9472 H   0  0  0  0  0  0  0  0  0  0  0  0
   55.6231   22.9305   42.1712 H   0  0  0  0  0  0  0  0  0  0  0  0
   57.5457   21.3713   42.4946 H   0  0  0  0  0  0  0  0  0  0  0  0
   58.8950   21.4685   44.5952 H   0  0  0  0  0  0  0  0  0  0  0  0
   58.3241   23.1256   46.3719 H   0  0  0  0  0  0  0  0  0  0  0  0
  1  2  1  0
  2  3  1  0
  3  4  1  0
  4  5  2  0
  5  6  1  0
  6  7  2  0
  7  8  1  0
  8  9  2  0
  3 10  2  0
 10 11  1  0
 11 12  2  0
 12 13  1  0
 13 14  1  0
 14 15  1  0
 15 16  2  0
 15 17  2  0
 15 18  1  0
 18 19  2  0
 19 20  1  0
 20 21  2  0
 21 22  1  0
 22 23  2  0
 12  2  1  0
 23 18  1  0
  9  4  1  0
  1 24  1  0
  1 25  1  0
  1 26  1  0
  5 27  1  0
  6 28  1  0
  7 29  1  0
  8 30  1  0
  9 31  1  0
 11 32  1  0
 13 33  1  0
 13 34  1  0
 19 35  1  0
 20 36  1  0
 21 37  1  0
 22 38  1  0
 23 39  1  0
M  CHG  2  11   1  14  -1
M  END
>  <UniqueID>  (16) 
14

>  <SMILES>  (16) 
Cn1c(-c2ccccc2)n[nH+]c1C[N-]S(=O)(=O)c1ccccc1

>  <Energy>  (16) 
79.08984575291643

>  <Genealogy>  (16) 
Cn1c(-c2ccccc2)n[nH+]c1C[N-]S(=O)(=O)c1ccccc1 (protonated)
Cn1c(-c2ccccc2)n[nH+]c1C[N-]S(=O)(=O)c1ccccc1 (3D coordinates assigned)
Cn1c(-c2ccccc2)n[nH+]c1C[N-]S(=O)(=O)c1ccccc1 (optimized conformer: 79.08984575291643 kcal/mol)

>  <smiles>  (16) 
Cn1c(CNS(=O)(=O)c2ccccc2)nnc1-c1ccccc1

>  <score_type>  (16) 
oracle

>  <origin>  (16) 
adg

>  <m_score__min__energy>  (16) 
-9.0999999999999996

>  <m_primary>  (16) 
energy

$$$$
16:0
     RDKit          3D

 51 54  0  0  0  0  0  0  0  0999 V2000
   57.3160   31.1960   43.1900 C   0  0  0  0  0  0  0  0  0  0  0  0
   58.0610   30.5740   44.2850 N   0  0  0  0  0  0  0  0  0  0  0  0
   58.7190   31.1720   45.3200 C   0  0  0  0  0  0  0  0  0  0  0  0
   58.8510   32.6680   45.5290 C   0  0  0  0  0  0  0  0  0  0  0  0
   59.7340   33.0560   46.6630 N   0  0  2  0  0  0  0  0  0  0  0  0
   58.9350   33.5320   47.8250 C   0  0  0  0  0  0  0  0  0  0  0  0
   59.5960   33.3720   49.2220 C   0  0  0  0  0  0  0  0  0  0  0  0
   61.0650   33.7860   49.3430 C   0  0  0  0  0  0  0  0  0  0  0  0
   61.8560   33.1490   48.2850 N   0  0  0  0  0  0  0  0  0  0  0  0
   62.6410   31.9750   48.5780 C   0  0  0  0  0  0  0  0  0  0  0  0
   62.3240   30.8760   48.0500 O   0  0  0  0  0  0  0  0  0  0  0  0
   63.8190   32.0410   49.4770 C   0  0  0  0  0  0  0  0  0  0  0  0
   64.7980   33.0300   49.2800 C   0  0  0  0  0  0  0  0  0  0  0  0
   65.9170   33.1020   50.1160 C   0  0  0  0  0  0  0  0  0  0  0  0
   66.0670   32.1900   51.1630 C   0  0  0  0  0  0  0  0  0  0  0  0
   65.0920   31.2100   51.3800 C   0  0  0  0  0  0  0  0  0  0  0  0
   63.9710   31.1340   50.5460 C   0  0  0  0  0  0  0  0  0  0  0  0
   63.0530   30.1610   50.7720 F   0  0  0  0  0  0  0  0  0  0  0  0
   62.0800   33.8680   47.0310 C   0  0  0  0  0  0  0  0  0  0  0  0
   60.7730   34.0310   46.2390 C   0  0  0  0  0  0  0  0  0  0  0  0
   59.3320   30.2800   46.1450 N   0  0  0  0  0  0  0  0  0  0  0  0
   59.0090   29.0900   45.6140 C   0  0  0  0  0  0  0  0  0  0  0  0
   59.3800   27.8270   46.0760 C   0  0  0  0  0  0  0  0  0  0  0  0
   58.9360   26.7080   45.3520 C   0  0  0  0  0  0  0  0  0  0  0  0
   58.1340   26.8750   44.2010 C   0  0  0  0  0  0  0  0  0  0  0  0
   57.7730   28.1650   43.7610 C   0  0  0  0  0  0  0  0  0  0  0  0
   58.2390   29.2570   44.5010 C   0  0  0  0  0  0  0  0  0  0  0  0
   56.5335   31.8493   43.6035 H   0  0  0  0  0  0  0  0  0  0  0  0
   58.0028   31.7926   42.5717 H   0  0  0  0  0  0  0  0  0  0  0  0
   56.8516   30.4137   42.5717 H   0  0  0  0  0  0  0  0  0  0  0  0
   59.2602   33.1090   44.6081 H   0  0  0  0  0  0  0  0  0  0  0  0
   57.8452   33.0403   45.7733 H   0  0  0  0  0  0  0  0  0  0  0  0
   60.1920   32.1580   46.9420 H   0  0  0  0  0  0  0  0  0  0  0  0
   58.7254   34.6011   47.6731 H   0  0  0  0  0  0  0  0  0  0  0  0
   58.0390   32.8944   47.8479 H   0  0  0  0  0  0  0  0  0  0  0  0
   59.0193   33.9801   49.9345 H   0  0  0  0  0  0  0  0  0  0  0  0
   59.5846   32.2906   49.4233 H   0  0  0  0  0  0  0  0  0  0  0  0
   61.1441   34.8791   49.2485 H   0  0  0  0  0  0  0  0  0  0  0  0
   61.4499   33.4666   50.3227 H   0  0  0  0  0  0  0  0  0  0  0  0
   64.6830   33.7545   48.4603 H   0  0  0  0  0  0  0  0  0  0  0  0
   66.6792   33.8773   49.9488 H   0  0  0  0  0  0  0  0  0  0  0  0
   66.9505   32.2420   51.8163 H   0  0  0  0  0  0  0  0  0  0  0  0
   65.2072   30.4967   52.2094 H   0  0  0  0  0  0  0  0  0  0  0  0
   62.4884   34.8640   47.2572 H   0  0  0  0  0  0  0  0  0  0  0  0
   62.7862   33.2872   46.4194 H   0  0  0  0  0  0  0  0  0  0  0  0
   60.3882   35.0495   46.3962 H   0  0  0  0  0  0  0  0  0  0  0  0
   60.9961   33.8466   45.1778 H   0  0  0  0  0  0  0  0  0  0  0  0
   59.9997   27.7112   46.9774 H   0  0  0  0  0  0  0  0  0  0  0  0
   59.2142   25.6965   45.6830 H   0  0  0  0  0  0  0  0  0  0  0  0
   57.7885   25.9918   43.6438 H   0  0  0  0  0  0  0  0  0  0  0  0
   57.1472   28.3077   42.8677 H   0  0  0  0  0  0  0  0  0  0  0  0
  1  2  1  0
  2  3  1  0
  3  4  1  0
  4  5  1  0
  5  6  1  0
  6  7  1  0
  7  8  1  0
  8  9  1  0
  9 10  1  0
 10 11  2  0
 10 12  1  0
 12 13  2  0
 13 14  1  0
 14 15  2  0
 15 16  1  0
 16 17  2  0
 17 18  1  0
  9 19  1  0
 19 20  1  0
  3 21  2  0
 21 22  1  0
 22 23  2  0
 23 24  1  0
 24 25  2  0
 25 26  1  0
 26 27  2  0
 27  2  1  0
 20  5  1  0
 27 22  1  0
 17 12  1  0
  1 28  1  0
  1 29  1  0
  1 30  1  0
  4 31  1  0
  4 32  1  0
  5 33  1  1
  6 34  1  0
  6 35  1  0
  7 36  1  0
  7 37  1  0
  8 38  1  0
  8 39  1  0
 13 40  1  0
 14 41  1  0
 15 42  1  0
 16 43  1  0
 19 44  1  0
 19 45  1  0
 20 46  1  0
 20 47  1  0
 23 48  1  0
 24 49  1  0
 25 50  1  0
 26 51  1  0
M  CHG  1   5   1
M  END
>  <UniqueID>  (17) 
15

>  <SMILES>  (17) 
Cn1c(C[N@@H+]2CCCN(C(=O)c3ccccc3F)CC2)nc2ccccc21

>  <Energy>  (17) 
110.432606493973

>  <Genealogy>  (17) 
Cn1c(C[NH+]2CCCN(C(=O)c3ccccc3F)CC2)nc2ccccc21 (protonated)
Cn1c(C[N@@H+]2CCCN(C(=O)c3ccccc3F)CC2)nc2ccccc21 (chirality)
Cn1c(C[N@@H+]2CCCN(C(=O)c3ccccc3F)CC2)nc2ccccc21 (3D coordinates assigned)
Cn1c(C[N@@H+]2CCCN(C(=O)c3ccccc3F)CC2)nc2ccccc21 (nonaromatic ring conformer: 110.432606493973 kcal/mol)

>  <smiles>  (17) 
Cn1c(CN2CCCN(C(=O)c3ccccc3F)CC2)nc2ccccc21

>  <score_type>  (17) 
oracle

>  <origin>  (17) 
adg

>  <m_score__min__energy>  (17) 
-4.6799999999999997

>  <m_primary>  (17) 
energy

$$$$
17:0
     RDKit          3D

 34 35  0  0  0  0  0  0  0  0999 V2000
   57.4130   34.1700   45.8900 C   0  0  0  0  0  0  0  0  0  0  0  0
   57.8110   32.7900   45.4570 C   0  0  0  0  0  0  0  0  0  0  0  0
   58.9020   32.1510   46.0590 C   0  0  0  0  0  0  0  0  0  0  0  0
   59.2540   30.8420   45.6960 C   0  0  0  0  0  0  0  0  0  0  0  0
   60.4290   30.1850   46.3700 C   0  0  0  0  0  0  0  0  0  0  0  0
   58.5170   30.1750   44.6910 C   0  0  0  0  0  0  0  0  0  0  0  0
   58.8780   28.8460   44.2830 N   0  0  0  0  0  0  0  0  0  0  0  0
   58.6720   27.6820   45.1030 C   0  0  0  0  0  0  0  0  0  0  0  0
   59.7240   27.1090   45.8430 C   0  0  0  0  0  0  0  0  0  0  0  0
   59.4980   25.9740   46.6270 C   0  0  0  0  0  0  0  0  0  0  0  0
   58.2280   25.3950   46.6760 C   0  0  0  0  0  0  0  0  0  0  0  0
   57.1760   25.9510   45.9370 C   0  0  0  0  0  0  0  0  0  0  0  0
   55.8680   25.3530   45.9840 C   0  0  0  0  0  0  0  0  0  0  0  0
   54.8150   24.8740   46.0210 N   0  0  0  0  0  0  0  0  0  0  0  0
   57.4000   27.0890   45.1500 C   0  0  0  0  0  0  0  0  0  0  0  0
   57.4010   30.8060   44.1050 C   0  0  0  0  0  0  0  0  0  0  0  0
   56.5820   30.0980   43.0590 C   0  0  0  0  0  0  0  0  0  0  0  0
   57.0500   32.1060   44.5010 C   0  0  0  0  0  0  0  0  0  0  0  0
   57.3987   34.2197   46.9888 H   0  0  0  0  0  0  0  0  0  0  0  0
   58.1372   34.9000   45.4994 H   0  0  0  0  0  0  0  0  0  0  0  0
   56.4113   34.4022   45.4994 H   0  0  0  0  0  0  0  0  0  0  0  0
   59.4889   32.6804   46.8240 H   0  0  0  0  0  0  0  0  0  0  0  0
   60.3099   30.2516   47.4615 H   0  0  0  0  0  0  0  0  0  0  0  0
   60.4795   29.1278   46.0705 H   0  0  0  0  0  0  0  0  0  0  0  0
   61.3561   30.6956   46.0705 H   0  0  0  0  0  0  0  0  0  0  0  0
   59.3780   28.7390   43.3710 H   0  0  0  0  0  0  0  0  0  0  0  0
   60.7281   27.5565   45.8040 H   0  0  0  0  0  0  0  0  0  0  0  0
   60.3232   25.5354   47.2073 H   0  0  0  0  0  0  0  0  0  0  0  0
   58.0539   24.5024   47.2949 H   0  0  0  0  0  0  0  0  0  0  0  0
   56.5740   27.5204   44.5654 H   0  0  0  0  0  0  0  0  0  0  0  0
   55.8374   29.4543   43.5501 H   0  0  0  0  0  0  0  0  0  0  0  0
   56.0677   30.8406   42.4313 H   0  0  0  0  0  0  0  0  0  0  0  0
   57.2425   29.4817   42.4313 H   0  0  0  0  0  0  0  0  0  0  0  0
   56.1690   32.5920   44.0563 H   0  0  0  0  0  0  0  0  0  0  0  0
  1  2  1  0
  2  3  2  0
  3  4  1  0
  4  5  1  0
  4  6  2  0
  6  7  1  0
  7  8  1  0
  8  9  2  0
  9 10  1  0
 10 11  2  0
 11 12  1  0
 12 13  1  0
 13 14  3  0
 12 15  2  0
  6 16  1  0
 16 17  1  0
 16 18  2  0
 18  2  1  0
 15  8  1  0
  1 19  1  0
  1 20  1  0
  1 21  1  0
  3 22  1  0
  5 23  1  0
  5 24  1  0
  5 25  1  0
  7 26  1  0
  9 27  1  0
 10 28  1  0
 11 29  1  0
 15 30  1  0
 17 31  1  0
 17 32  1  0
 17 33  1  0
 18 34  1  0
M  END
>  <UniqueID>  (18) 
16

>  <SMILES>  (18) 
Cc1cc(C)c(Nc2cccc(C#N)c2)c(C)c1

>  <Energy>  (18) 
39.45456790306703

>  <Genealogy>  (18) 
Cc1cc(C)c(Nc2cccc(C#N)c2)c(C)c1 (3D coordinates assigned)
Cc1cc(C)c(Nc2cccc(C#N)c2)c(C)c1 (optimized conformer: 39.45456790306703 kcal/mol)

>  <smiles>  (18) 
Cc1cc(C)c(Nc2cccc(C#N)c2)c(C)c1

>  <score_type>  (18) 
oracle

>  <origin>  (18) 
adg

>  <m_score__min__energy>  (18) 
-6.7599999999999998

>  <m_primary>  (18) 
energy

$$$$
18:0
     RDKit          3D

 54 57  0  0  0  0  0  0  0  0999 V2000
   51.1550   31.8610   52.4270 C   0  0  0  0  0  0  0  0  0  0  0  0
   51.7540   32.0340   51.0360 C   0  0  0  0  0  0  0  0  0  0  0  0
   52.8610   31.0880   50.8430 N   0  0  0  0  0  0  0  0  0  0  0  0
   53.1180   30.3510   52.0860 C   0  0  0  0  0  0  0  0  0  0  0  0
   54.5740   29.8810   52.1290 C   0  0  0  0  0  0  0  0  0  0  0  0
   55.4520   30.9080   51.5410 N   0  0  0  0  0  0  0  0  0  0  0  0
   56.5030   31.3540   52.4690 C   0  0  0  0  0  0  0  0  0  0  0  0
   57.7760   31.6700   51.7270 C   0  0  0  0  0  0  0  0  0  0  0  0
   58.2810   32.9780   51.7280 C   0  0  0  0  0  0  0  0  0  0  0  0
   59.4160   33.2960   50.9780 C   0  0  0  0  0  0  0  0  0  0  0  0
   60.0610   32.3080   50.2190 C   0  0  0  0  0  0  0  0  0  0  0  0
   61.2530   32.6470   49.4150 C   0  0  0  0  0  0  0  0  0  0  0  0
   61.2890   33.2570   48.1590 C   0  0  0  0  0  0  0  0  0  0  0  0
   60.1430   33.5900   47.2850 C   0  0  0  0  0  0  0  0  0  0  0  0
   58.9230   32.9110   47.4490 C   0  0  0  0  0  0  0  0  0  0  0  0
   57.8280   33.2190   46.6340 C   0  0  0  0  0  0  0  0  0  0  0  0
   57.9370   34.2130   45.6600 C   0  0  0  0  0  0  0  0  0  0  0  0
   59.1390   34.9080   45.5020 C   0  0  0  0  0  0  0  0  0  0  0  0
   59.2400   35.8840   44.5670 F   0  0  0  0  0  0  0  0  0  0  0  0
   60.2370   34.6040   46.3150 C   0  0  0  0  0  0  0  0  0  0  0  0
   62.5740   33.5110   47.8100 N   0  0  0  0  0  0  0  0  0  0  0  0
   63.2880   33.0480   48.8560 C   0  0  0  0  0  0  0  0  0  0  0  0
   64.6750   33.1070   48.9800 C   0  0  0  0  0  0  0  0  0  0  0  0
   65.2460   32.6140   50.1630 C   0  0  0  0  0  0  0  0  0  0  0  0
   64.4300   32.0930   51.1840 C   0  0  0  0  0  0  0  0  0  0  0  0
   63.0390   32.0600   51.0060 C   0  0  0  0  0  0  0  0  0  0  0  0
   62.5270   32.5270   49.8350 N   0  0  0  0  0  0  0  0  0  0  0  0
   59.5630   30.9970   50.2270 C   0  0  0  0  0  0  0  0  0  0  0  0
   58.4260   30.6800   50.9750 C   0  0  0  0  0  0  0  0  0  0  0  0
   51.9201   32.0820   53.1858 H   0  0  0  0  0  0  0  0  0  0  0  0
   50.3071   32.5510   52.5495 H   0  0  0  0  0  0  0  0  0  0  0  0
   50.8055   30.8252   52.5495 H   0  0  0  0  0  0  0  0  0  0  0  0
   50.9780   31.8455   50.2795 H   0  0  0  0  0  0  0  0  0  0  0  0
   52.1351   33.0607   50.9328 H   0  0  0  0  0  0  0  0  0  0  0  0
   53.7200   31.6440   50.6200 H   0  0  0  0  0  0  0  0  0  0  0  0
   52.9228   31.0088   52.9457 H   0  0  0  0  0  0  0  0  0  0  0  0
   52.4557   29.4737   52.1272 H   0  0  0  0  0  0  0  0  0  0  0  0
   54.8691   29.7041   53.1738 H   0  0  0  0  0  0  0  0  0  0  0  0
   54.6703   28.9497   51.5517 H   0  0  0  0  0  0  0  0  0  0  0  0
   54.8660   31.7470   51.3150 H   0  0  0  0  0  0  0  0  0  0  0  0
   56.1594   32.2566   52.9955 H   0  0  0  0  0  0  0  0  0  0  0  0
   56.7055   30.5449   53.1862 H   0  0  0  0  0  0  0  0  0  0  0  0
   57.7813   33.7574   52.3220 H   0  0  0  0  0  0  0  0  0  0  0  0
   59.8053   34.3248   50.9826 H   0  0  0  0  0  0  0  0  0  0  0  0
   58.8287   32.1338   48.2217 H   0  0  0  0  0  0  0  0  0  0  0  0
   56.8794   32.6767   46.7611 H   0  0  0  0  0  0  0  0  0  0  0  0
   57.0765   34.4493   45.0167 H   0  0  0  0  0  0  0  0  0  0  0  0
   61.1780   35.1609   46.1947 H   0  0  0  0  0  0  0  0  0  0  0  0
   65.3005   33.5257   48.1779 H   0  0  0  0  0  0  0  0  0  0  0  0
   66.3381   32.6349   50.2930 H   0  0  0  0  0  0  0  0  0  0  0  0
   64.8792   31.7147   52.1141 H   0  0  0  0  0  0  0  0  0  0  0  0
   62.3789   31.6666   51.7931 H   0  0  0  0  0  0  0  0  0  0  0  0
   60.0695   30.2151   49.6421 H   0  0  0  0  0  0  0  0  0  0  0  0
   58.0392   29.6503   50.9742 H   0  0  0  0  0  0  0  0  0  0  0  0
  1  2  1  0
  2  3  1  0
  3  4  1  0
  4  5  1  0
  5  6  1  0
  6  7  1  0
  7  8  1  0
  8  9  2  0
  9 10  1  0
 10 11  2  0
 11 12  1  0
 12 13  2  0
 13 14  1  0
 14 15  2  0
 15 16  1  0
 16 17  2  0
 17 18  1  0
 18 19  1  0
 18 20  2  0
 13 21  1  0
 21 22  2  0
 22 23  1  0
 23 24  2  0
 24 25  1  0
 25 26  2  0
 26 27  1  0
 11 28  1  0
 28 29  2  0
 29  8  1  0
 27 12  1  0
 20 14  1  0
 27 22  1  0
  1 30  1  0
  1 31  1  0
  1 32  1  0
  2 33  1  0
  2 34  1  0
  3 35  1  0
  4 36  1  0
  4 37  1  0
  5 38  1  0
  5 39  1  0
  6 40  1  0
  7 41  1  0
  7 42  1  0
  9 43  1  0
 10 44  1  0
 15 45  1  0
 16 46  1  0
 17 47  1  0
 20 48  1  0
 23 49  1  0
 24 50  1  0
 25 51  1  0
 26 52  1  0
 28 53  1  0
 29 54  1  0
M  END
>  <UniqueID>  (19) 
17

>  <SMILES>  (19) 
CCNCCNCc1ccc(-c2c(-c3cccc(F)c3)nc3ccccn23)cc1

>  <Energy>  (19) 
94.78988131756002

>  <Genealogy>  (19) 
CCNCCNCc1ccc(-c2c(-c3cccc(F)c3)nc3ccccn23)cc1 (3D coordinates assigned)
CCNCCNCc1ccc(-c2c(-c3cccc(F)c3)nc3ccccn23)cc1 (optimized conformer: 94.78988131756002 kcal/mol)

>  <smiles>  (19) 
CCNCCNCc1ccc(-c2c(-c3cccc(F)c3)nc3ccccn23)cc1

>  <score_type>  (19) 
oracle

>  <origin>  (19) 
adg

>  <m_score__min__energy>  (19) 
-8.2599999999999998

>  <m_primary>  (19) 
energy

$$$$
19:0
     RDKit          3D

 46 48  0  0  0  0  0  0  0  0999 V2000
   55.2540   30.0510   43.9340 C   0  0  0  0  0  0  0  0  0  0  0  0
   56.5850   29.5810   44.4460 C   0  0  0  0  0  0  0  0  0  0  0  0
   56.6540   28.3570   45.0400 N   0  0  0  0  0  0  0  0  0  0  0  0
   57.8140   27.8600   45.5430 C   0  0  0  0  0  0  0  0  0  0  0  0
   58.9860   28.6080   45.4630 C   0  0  0  0  0  0  0  0  0  0  0  0
   58.9540   29.8660   44.8640 C   0  0  0  0  0  0  0  0  0  0  0  0
   57.7520   30.3750   44.3430 C   0  0  0  0  0  0  0  0  0  0  0  0
   57.7390   31.7490   43.7140 C   0  0  0  0  0  0  0  0  0  0  0  0
   58.0740   32.7750   44.7240 N   0  0  0  0  0  0  0  0  0  0  0  0
   56.9460   33.1910   45.5830 C   0  0  0  0  0  0  0  0  0  0  0  0
   57.3040   33.4470   47.0700 C   0  0  0  0  0  0  0  0  0  0  0  0
   58.7650   33.6720   47.4150 C   0  0  0  0  0  0  0  0  0  0  0  0
   59.2640   33.1380   48.6120 C   0  0  0  0  0  0  0  0  0  0  0  0
   60.5650   33.3100   48.9560 N   0  0  0  0  0  0  0  0  0  0  0  0
   61.4190   33.9890   48.1480 C   0  0  0  0  0  0  0  0  0  0  0  0
   62.8560   34.1860   48.5510 C   0  0  0  0  0  0  0  0  0  0  0  0
   63.7840   33.3430   47.6700 C   0  0  0  0  0  0  0  0  0  0  0  0
   63.0480   33.8460   50.0320 C   0  0  0  0  0  0  0  0  0  0  0  0
   60.9700   34.5010   46.9740 N   0  0  0  0  0  0  0  0  0  0  0  0
   59.6770   34.3510   46.5790 C   0  0  0  0  0  0  0  0  0  0  0  0
   59.2550   34.9590   45.2780 C   0  0  0  0  0  0  0  0  0  0  0  0
   58.9330   33.8790   44.2300 C   0  0  0  0  0  0  0  0  0  0  0  0
   54.5955   30.2835   44.7839 H   0  0  0  0  0  0  0  0  0  0  0  0
   55.3948   30.9538   43.3215 H   0  0  0  0  0  0  0  0  0  0  0  0
   54.7966   29.2600   43.3215 H   0  0  0  0  0  0  0  0  0  0  0  0
   57.8275   26.8660   46.0138 H   0  0  0  0  0  0  0  0  0  0  0  0
   59.9278   28.2098   45.8686 H   0  0  0  0  0  0  0  0  0  0  0  0
   59.8749   30.4640   44.7986 H   0  0  0  0  0  0  0  0  0  0  0  0
   58.4793   31.7837   42.9012 H   0  0  0  0  0  0  0  0  0  0  0  0
   56.7342   31.9521   43.3151 H   0  0  0  0  0  0  0  0  0  0  0  0
   56.5287   34.1208   45.1691 H   0  0  0  0  0  0  0  0  0  0  0  0
   56.2367   32.3502   45.5815 H   0  0  0  0  0  0  0  0  0  0  0  0
   56.7489   34.3402   47.3926 H   0  0  0  0  0  0  0  0  0  0  0  0
   57.0372   32.5124   47.5852 H   0  0  0  0  0  0  0  0  0  0  0  0
   58.5942   32.5744   49.2782 H   0  0  0  0  0  0  0  0  0  0  0  0
   63.1181   35.2443   48.4053 H   0  0  0  0  0  0  0  0  0  0  0  0
   64.4474   32.7403   48.3077 H   0  0  0  0  0  0  0  0  0  0  0  0
   63.1815   32.6769   47.0349 H   0  0  0  0  0  0  0  0  0  0  0  0
   64.3893   34.0065   47.0349 H   0  0  0  0  0  0  0  0  0  0  0  0
   62.6009   34.6378   50.6509 H   0  0  0  0  0  0  0  0  0  0  0  0
   62.5585   32.8864   50.2544 H   0  0  0  0  0  0  0  0  0  0  0  0
   64.1226   33.7696   50.2544 H   0  0  0  0  0  0  0  0  0  0  0  0
   58.3584   35.5740   45.4448 H   0  0  0  0  0  0  0  0  0  0  0  0
   60.0851   35.5727   44.8980 H   0  0  0  0  0  0  0  0  0  0  0  0
   58.4189   34.3624   43.3862 H   0  0  0  0  0  0  0  0  0  0  0  0
   59.8934   33.4236   43.9468 H   0  0  0  0  0  0  0  0  0  0  0  0
  1  2  1  0
  2  3  2  0
  3  4  1  0
  4  5  2  0
  5  6  1  0
  6  7  2  0
  7  8  1  0
  8  9  1  0
  9 10  1  0
 10 11  1  0
 11 12  1  0
 12 13  2  0
 13 14  1  0
 14 15  2  0
 15 16  1  0
 16 17  1  0
 16 18  1  0
 15 19  1  0
 19 20  2  0
 20 21  1  0
 21 22  1  0
  7  2  1  0
 22  9  1  0
 20 12  1  0
  1 23  1  0
  1 24  1  0
  1 25  1  0
  4 26  1  0
  5 27  1  0
  6 28  1  0
  8 29  1  0
  8 30  1  0
 10 31  1  0
 10 32  1  0
 11 33  1  0
 11 34  1  0
 13 35  1  0
 16 36  1  0
 17 37  1  0
 17 38  1  0
 17 39  1  0
 18 40  1  0
 18 41  1  0
 18 42  1  0
 21 43  1  0
 21 44  1  0
 22 45  1  0
 22 46  1  0
M  END
>  <UniqueID>  (20) 
18

>  <SMILES>  (20) 
Cc1ncccc1CN1CCc2cnc(C(C)C)nc2CC1

>  <Energy>  (20) 
59.06665704960368

>  <Genealogy>  (20) 
Cc1ncccc1CN1CCc2cnc(C(C)C)nc2CC1 (3D coordinates assigned)
Cc1ncccc1CN1CCc2cnc(C(C)C)nc2CC1 (nonaromatic ring conformer: 59.06665704960368 kcal/mol)

>  <smiles>  (20) 
Cc1ncccc1CN1CCc2cnc(C(C)C)nc2CC1

>  <score_type>  (20) 
oracle

>  <origin>  (20) 
adg

>  <m_score__min__energy>  (20) 
-6.1100000000000003

>  <m_primary>  (20) 
energy

$$$$
20:0
     RDKit          3D

 54 56  0  0  0  0  0  0  0  0999 V2000
   57.3820   31.9090   42.3060 C   0  0  0  0  0  0  0  0  0  0  0  0
   57.4340   30.9190   43.4310 C   0  0  0  0  0  0  0  0  0  0  0  0
   56.3030   30.1530   43.7520 C   0  0  0  0  0  0  0  0  0  0  0  0
   56.3420   29.2550   44.8210 C   0  0  0  0  0  0  0  0  0  0  0  0
   57.5030   29.1230   45.5860 C   0  0  0  0  0  0  0  0  0  0  0  0
   58.6360   29.8980   45.2910 C   0  0  0  0  0  0  0  0  0  0  0  0
   59.8980   29.7480   46.1040 C   0  0  0  0  0  0  0  0  0  0  0  0
   59.6320   29.1110   47.4780 C   0  0  0  0  0  0  0  0  0  0  0  0
   58.8630   30.0150   48.4530 C   0  0  0  0  0  0  0  0  0  0  0  0
   59.4850   31.3420   48.5310 N   0  0  0  0  0  0  0  0  0  0  0  0
   58.4650   32.3940   48.5940 C   0  0  0  0  0  0  0  0  0  0  0  0
   58.4990   33.2060   47.3210 C   0  0  0  0  0  0  0  0  0  0  0  0
   57.3720   33.1780   46.4790 C   0  0  0  0  0  0  0  0  0  0  0  0
   57.3690   33.8740   45.2700 C   0  0  0  0  0  0  0  0  0  0  0  0
   58.4930   34.5970   44.8770 C   0  0  0  0  0  0  0  0  0  0  0  0
   59.6270   34.6250   45.6890 C   0  0  0  0  0  0  0  0  0  0  0  0
   59.6530   33.9290   46.9120 C   0  0  0  0  0  0  0  0  0  0  0  0
   60.9120   33.9850   47.7540 C   0  0  0  0  0  0  0  0  0  0  0  0
   61.7750   32.8120   47.4930 N   0  0  0  0  0  0  0  0  0  0  0  0
   62.2760   32.2310   48.7440 C   0  0  0  0  0  0  0  0  0  0  0  0
   63.6170   32.8780   49.0530 C   0  0  0  0  0  0  0  0  0  0  0  0
   64.1030   33.4420   47.7310 C   0  0  0  0  0  0  0  0  0  0  0  0
   62.9810   33.1810   46.7360 C   0  0  0  0  0  0  0  0  0  0  0  0
   58.5940   30.7980   44.2130 C   0  0  0  0  0  0  0  0  0  0  0  0
   57.3285   32.9281   42.7166 H   0  0  0  0  0  0  0  0  0  0  0  0
   58.2866   31.8097   41.6881 H   0  0  0  0  0  0  0  0  0  0  0  0
   56.4928   31.7155   41.6881 H   0  0  0  0  0  0  0  0  0  0  0  0
   55.3824   30.2601   43.1596 H   0  0  0  0  0  0  0  0  0  0  0  0
   55.4554   28.6498   45.0612 H   0  0  0  0  0  0  0  0  0  0  0  0
   57.5299   28.4093   46.4226 H   0  0  0  0  0  0  0  0  0  0  0  0
   60.6032   29.1117   45.5492 H   0  0  0  0  0  0  0  0  0  0  0  0
   60.3124   30.7529   46.2724 H   0  0  0  0  0  0  0  0  0  0  0  0
   59.0468   28.1923   47.3248 H   0  0  0  0  0  0  0  0  0  0  0  0
   60.6149   28.9193   47.9331 H   0  0  0  0  0  0  0  0  0  0  0  0
   57.8255   30.1226   48.1037 H   0  0  0  0  0  0  0  0  0  0  0  0
   58.8838   29.5556   49.4522 H   0  0  0  0  0  0  0  0  0  0  0  0
   60.0390   31.4970   47.6560 H   0  0  0  0  0  0  0  0  0  0  0  0
   57.4719   31.9352   48.7097 H   0  0  0  0  0  0  0  0  0  0  0  0
   58.6683   33.0505   49.4529 H   0  0  0  0  0  0  0  0  0  0  0  0
   56.4840   32.6013   46.7772 H   0  0  0  0  0  0  0  0  0  0  0  0
   56.4776   33.8519   44.6259 H   0  0  0  0  0  0  0  0  0  0  0  0
   58.4864   35.1470   43.9244 H   0  0  0  0  0  0  0  0  0  0  0  0
   60.5105   35.1973   45.3699 H   0  0  0  0  0  0  0  0  0  0  0  0
   61.4678   34.9023   47.5100 H   0  0  0  0  0  0  0  0  0  0  0  0
   60.6248   33.9804   48.8158 H   0  0  0  0  0  0  0  0  0  0  0  0
   61.5666   32.4320   49.5603 H   0  0  0  0  0  0  0  0  0  0  0  0
   62.3893   31.1415   48.6432 H   0  0  0  0  0  0  0  0  0  0  0  0
   63.4954   33.6822   49.7936 H   0  0  0  0  0  0  0  0  0  0  0  0
   64.3313   32.1582   49.4794 H   0  0  0  0  0  0  0  0  0  0  0  0
   64.2927   34.5218   47.8210 H   0  0  0  0  0  0  0  0  0  0  0  0
   65.0463   32.9747   47.4118 H   0  0  0  0  0  0  0  0  0  0  0  0
   62.7874   34.0889   46.1458 H   0  0  0  0  0  0  0  0  0  0  0  0
   63.2625   32.3696   46.0487 H   0  0  0  0  0  0  0  0  0  0  0  0
   59.4762   31.4123   43.9799 H   0  0  0  0  0  0  0  0  0  0  0  0
  1  2  1  0
  2  3  2  0
  3  4  1  0
  4  5  2  0
  5  6  1  0
  6  7  1  0
  7  8  1  0
  8  9  1  0
  9 10  1  0
 10 11  1  0
 11 12  1  0
 12 13  2  0
 13 14  1  0
 14 15  2  0
 15 16  1  0
 16 17  2  0
 17 18  1  0
 18 19  1  0
 19 20  1  0
 20 21  1  0
 21 22  1  0
 22 23  1  0
  6 24  2  0
 24  2  1  0
 17 12  1  0
 23 19  1  0
  1 25  1  0
  1 26  1  0
  1 27  1  0
  3 28  1  0
  4 29  1  0
  5 30  1  0
  7 31  1  0
  7 32  1  0
  8 33  1  0
  8 34  1  0
  9 35  1  0
  9 36  1  0
 10 37  1  0
 11 38  1  0
 11 39  1  0
 13 40  1  0
 14 41  1  0
 15 42  1  0
 16 43  1  0
 18 44  1  0
 18 45  1  0
 20 46  1  0
 20 47  1  0
 21 48  1  0
 21 49  1  0
 22 50  1  0
 22 51  1  0
 23 52  1  0
 23 53  1  0
 24 54  1  0
M  END
>  <UniqueID>  (21) 
19

>  <SMILES>  (21) 
Cc1cccc(CCCNCc2ccccc2CN2CCCC2)c1

>  <Energy>  (21) 
50.80147323640232

>  <Genealogy>  (21) 
Cc1cccc(CCCNCc2ccccc2CN2CCCC2)c1 (3D coordinates assigned)
Cc1cccc(CCCNCc2ccccc2CN2CCCC2)c1 (nonaromatic ring conformer: 50.80147323640232 kcal/mol)

>  <smiles>  (21) 
Cc1cccc(CCCNCc2ccccc2CN2CCCC2)c1

>  <score_type>  (21) 
oracle

>  <origin>  (21) 
adg

>  <m_score__min__energy>  (21) 
-7.8899999999999997

>  <m_primary>  (21) 
energy

$$$$
21:0
     RDKit          3D

 22 23  0  0  0  0  0  0  0  0999 V2000
   59.2970   33.2210   50.8590 C   0  0  0  0  0  0  0  0  0  0  0  0
   60.0410   34.2160   50.1620 O   0  0  0  0  0  0  0  0  0  0  0  0
   60.2730   34.2160   48.7760 C   0  0  0  0  0  0  0  0  0  0  0  0
   59.2670   34.5790   47.8590 C   0  0  0  0  0  0  0  0  0  0  0  0
   59.5210   34.5710   46.4850 C   0  0  0  0  0  0  0  0  0  0  0  0
   60.7770   34.2020   46.0030 C   0  0  0  0  0  0  0  0  0  0  0  0
   61.7920   33.8390   46.8960 C   0  0  0  0  0  0  0  0  0  0  0  0
   63.0610   33.4670   46.4260 C   0  0  0  0  0  0  0  0  0  0  0  0
   64.0390   33.1150   47.3030 N   0  0  0  0  0  0  0  0  0  0  0  0
   63.8260   33.1110   48.6470 C   0  0  0  0  0  0  0  0  0  0  0  0
   62.5810   33.4740   49.1640 C   0  0  0  0  0  0  0  0  0  0  0  0
   61.5440   33.8430   48.2900 C   0  0  0  0  0  0  0  0  0  0  0  0
   59.4094   33.3713   51.9429 H   0  0  0  0  0  0  0  0  0  0  0  0
   58.2343   33.2996   50.5862 H   0  0  0  0  0  0  0  0  0  0  0  0
   59.6729   32.2239   50.5862 H   0  0  0  0  0  0  0  0  0  0  0  0
   58.2728   34.8713   48.2279 H   0  0  0  0  0  0  0  0  0  0  0  0
   58.7266   34.8571   45.7799 H   0  0  0  0  0  0  0  0  0  0  0  0
   60.9700   34.1963   44.9201 H   0  0  0  0  0  0  0  0  0  0  0  0
   63.2652   33.4601   45.3451 H   0  0  0  0  0  0  0  0  0  0  0  0
   64.9780   32.8400   46.9360 H   0  0  0  0  0  0  0  0  0  0  0  0
   64.6385   32.8204   49.3292 H   0  0  0  0  0  0  0  0  0  0  0  0
   62.4123   33.4712   50.2510 H   0  0  0  0  0  0  0  0  0  0  0  0
  1  2  1  0
  2  3  1  0
  3  4  2  0
  4  5  1  0
  5  6  2  0
  6  7  1  0
  7  8  2  0
  8  9  1  0
  9 10  2  0
 10 11  1  0
 11 12  2  0
 12  3  1  0
 12  7  1  0
  1 13  1  0
  1 14  1  0
  1 15  1  0
  4 16  1  0
  5 17  1  0
  6 18  1  0
  8 19  1  0
  9 20  1  0
 10 21  1  0
 11 22  1  0
M  CHG  1   9   1
M  END
>  <UniqueID>  (22) 
20

>  <SMILES>  (22) 
COc1cccc2c[nH+]ccc12

>  <Energy>  (22) 
25.85035240671535

>  <Genealogy>  (22) 
COc1cccc2c[nH+]ccc12 (protonated)
COc1cccc2c[nH+]ccc12 (3D coordinates assigned)
COc1cccc2c[nH+]ccc12 (optimized conformer: 25.85035240671535 kcal/mol)

>  <smiles>  (22) 
COc1cccc2cnccc12

>  <score_type>  (22) 
oracle

>  <origin>  (22) 
adg

>  <m_score__min__energy>  (22) 
-3.46

>  <m_primary>  (22) 
energy

$$$$
22:0
     RDKit          3D

 48 50  0  0  0  0  0  0  0  0999 V2000
   58.1410   27.0800   42.8820 C   0  0  0  0  0  0  0  0  0  0  0  0
   58.1640   26.7960   44.3230 N   0  0  0  0  0  0  0  0  0  0  0  0
   57.7530   25.4650   44.7870 C   0  0  0  0  0  0  0  0  0  0  0  0
   58.5820   27.8140   45.2720 C   0  0  0  0  0  0  0  0  0  0  0  0
   59.3730   28.9080   44.8620 C   0  0  0  0  0  0  0  0  0  0  0  0
   59.7780   29.8820   45.7780 C   0  0  0  0  0  0  0  0  0  0  0  0
   59.3950   29.7940   47.1220 C   0  0  0  0  0  0  0  0  0  0  0  0
   59.7990   30.8110   48.0570 N   0  0  0  0  0  0  0  0  0  0  0  0
   61.0390   30.6420   48.8200 C   0  0  0  0  0  0  0  0  0  0  0  0
   62.0010   31.7460   48.4770 C   0  0  0  0  0  0  0  0  0  0  0  0
   62.7400   31.6960   47.2830 C   0  0  0  0  0  0  0  0  0  0  0  0
   63.5990   32.7450   46.9430 C   0  0  0  0  0  0  0  0  0  0  0  0
   63.7190   33.8530   47.7870 C   0  0  0  0  0  0  0  0  0  0  0  0
   62.9760   33.9170   48.9700 C   0  0  0  0  0  0  0  0  0  0  0  0
   62.1140   32.8700   49.3120 C   0  0  0  0  0  0  0  0  0  0  0  0
   58.9130   31.9530   48.3260 C   0  0  0  0  0  0  0  0  0  0  0  0
   58.8670   32.8580   47.1250 C   0  0  0  0  0  0  0  0  0  0  0  0
   57.8720   32.6830   46.1480 C   0  0  0  0  0  0  0  0  0  0  0  0
   57.7950   33.5570   45.0580 C   0  0  0  0  0  0  0  0  0  0  0  0
   58.6990   34.6180   44.9450 C   0  0  0  0  0  0  0  0  0  0  0  0
   59.6770   34.8090   45.9250 C   0  0  0  0  0  0  0  0  0  0  0  0
   59.7620   33.9350   47.0130 C   0  0  0  0  0  0  0  0  0  0  0  0
   58.6060   28.7160   47.5420 C   0  0  0  0  0  0  0  0  0  0  0  0
   58.2040   27.7360   46.6300 C   0  0  0  0  0  0  0  0  0  0  0  0
   58.0531   28.1650   42.7235 H   0  0  0  0  0  0  0  0  0  0  0  0
   59.0715   26.7164   42.4217 H   0  0  0  0  0  0  0  0  0  0  0  0
   57.2811   26.5713   42.4217 H   0  0  0  0  0  0  0  0  0  0  0  0
   57.7471   25.4458   45.8868 H   0  0  0  0  0  0  0  0  0  0  0  0
   56.7438   25.2410   44.4109 H   0  0  0  0  0  0  0  0  0  0  0  0
   58.4602   24.7110   44.4109 H   0  0  0  0  0  0  0  0  0  0  0  0
   59.6746   28.9951   43.8078 H   0  0  0  0  0  0  0  0  0  0  0  0
   60.4016   30.7233   45.4413 H   0  0  0  0  0  0  0  0  0  0  0  0
   60.8133   30.6751   49.8961 H   0  0  0  0  0  0  0  0  0  0  0  0
   61.4927   29.6724   48.5668 H   0  0  0  0  0  0  0  0  0  0  0  0
   62.6422   30.8286   46.6137 H   0  0  0  0  0  0  0  0  0  0  0  0
   64.1810   32.6987   46.0107 H   0  0  0  0  0  0  0  0  0  0  0  0
   64.3988   34.6756   47.5202 H   0  0  0  0  0  0  0  0  0  0  0  0
   63.0695   34.7908   49.6316 H   0  0  0  0  0  0  0  0  0  0  0  0
   61.5226   32.9269   50.2378 H   0  0  0  0  0  0  0  0  0  0  0  0
   57.8997   31.5851   48.5448 H   0  0  0  0  0  0  0  0  0  0  0  0
   59.2983   32.5154   49.1893 H   0  0  0  0  0  0  0  0  0  0  0  0
   57.1518   31.8567   46.2404 H   0  0  0  0  0  0  0  0  0  0  0  0
   57.0224   33.4093   44.2890 H   0  0  0  0  0  0  0  0  0  0  0  0
   58.6404   35.3018   44.0854 H   0  0  0  0  0  0  0  0  0  0  0  0
   60.3818   35.6493   45.8401 H   0  0  0  0  0  0  0  0  0  0  0  0
   60.5316   34.0911   47.7832 H   0  0  0  0  0  0  0  0  0  0  0  0
   58.3007   28.6400   48.5961 H   0  0  0  0  0  0  0  0  0  0  0  0
   57.5857   26.8939   46.9745 H   0  0  0  0  0  0  0  0  0  0  0  0
  1  2  1  0
  2  3  1  0
  2  4  1  0
  4  5  2  0
  5  6  1  0
  6  7  2  0
  7  8  1  0
  8  9  1  0
  9 10  1  0
 10 11  2  0
 11 12  1  0
 12 13  2  0
 13 14  1  0
 14 15  2  0
  8 16  1  0
 16 17  1  0
 17 18  2  0
 18 19  1  0
 19 20  2  0
 20 21  1  0
 21 22  2  0
  7 23  1  0
 23 24  2  0
 24  4  1  0
 15 10  1  0
 22 17  1  0
  1 25  1  0
  1 26  1  0
  1 27  1  0
  3 28  1  0
  3 29  1  0
  3 30  1  0
  5 31  1  0
  6 32  1  0
  9 33  1  0
  9 34  1  0
 11 35  1  0
 12 36  1  0
 13 37  1  0
 14 38  1  0
 15 39  1  0
 16 40  1  0
 16 41  1  0
 18 42  1  0
 19 43  1  0
 20 44  1  0
 21 45  1  0
 22 46  1  0
 23 47  1  0
 24 48  1  0
M  END
>  <UniqueID>  (23) 
21

>  <SMILES>  (23) 
CN(C)c1ccc(N(Cc2ccccc2)Cc2ccccc2)cc1

>  <Energy>  (23) 
51.98417067928751

>  <Genealogy>  (23) 
CN(C)c1ccc(N(Cc2ccccc2)Cc2ccccc2)cc1 (3D coordinates assigned)
CN(C)c1ccc(N(Cc2ccccc2)Cc2ccccc2)cc1 (optimized conformer: 51.98417067928751 kcal/mol)

>  <smiles>  (23) 
CN(C)c1ccc(N(Cc2ccccc2)Cc2ccccc2)cc1

>  <score_type>  (23) 
oracle

>  <origin>  (23) 
adg

>  <m_score__min__energy>  (23) 
-7.1699999999999999

>  <m_primary>  (23) 
energy

$$$$
23:0
     RDKit          3D

 61 64  0  0  0  0  0  0  0  0999 V2000
   61.8230   26.3090   51.6980 C   0  0  0  0  0  0  0  0  0  0  0  0
   61.2420   26.1390   50.4100 O   0  0  0  0  0  0  0  0  0  0  0  0
   60.8010   27.1920   49.5950 C   0  0  0  0  0  0  0  0  0  0  0  0
   60.3650   28.3710   50.2110 C   0  0  0  0  0  0  0  0  0  0  0  0
   59.9170   29.4490   49.4420 C   0  0  0  0  0  0  0  0  0  0  0  0
   59.9000   29.3600   48.0430 C   0  0  0  0  0  0  0  0  0  0  0  0
   59.4060   30.4950   47.2290 C   0  0  0  0  0  0  0  0  0  0  0  0
   58.2970   30.3250   46.3770 C   0  0  0  0  0  0  0  0  0  0  0  0
   57.4580   28.7360   46.2420 S   0  0  0  0  0  0  0  0  0  0  0  0
   58.3010   28.2870   44.6840 C   0  0  0  0  0  0  0  0  0  0  0  0
   57.4490   28.6670   43.4540 C   0  0  0  0  0  0  0  0  0  0  0  0
   56.6990   29.9390   43.5800 N   0  0  0  0  0  0  0  0  0  0  0  0
   57.0060   30.9050   42.5160 C   0  0  0  0  0  0  0  0  0  0  0  0
   55.2480   29.7410   43.7200 C   0  0  0  0  0  0  0  0  0  0  0  0
   57.8530   31.3600   45.6150 N   0  0  0  0  0  0  0  0  0  0  0  0
   58.4500   32.5840   45.6390 C   0  0  0  0  0  0  0  0  0  0  0  0
   57.9520   33.6210   44.8350 C   0  0  0  0  0  0  0  0  0  0  0  0
   58.5470   34.8840   44.8620 C   0  0  0  0  0  0  0  0  0  0  0  0
   59.6420   35.1220   45.6920 C   0  0  0  0  0  0  0  0  0  0  0  0
   60.1510   34.1000   46.4970 C   0  0  0  0  0  0  0  0  0  0  0  0
   59.5700   32.8130   46.4750 C   0  0  0  0  0  0  0  0  0  0  0  0
   60.0560   31.7520   47.2750 C   0  0  0  0  0  0  0  0  0  0  0  0
   61.2280   31.9400   48.1630 C   0  0  0  0  0  0  0  0  0  0  0  0
   62.5240   31.7200   47.6760 C   0  0  0  0  0  0  0  0  0  0  0  0
   63.6310   31.9330   48.5020 C   0  0  0  0  0  0  0  0  0  0  0  0
   63.4600   32.3700   49.8210 C   0  0  0  0  0  0  0  0  0  0  0  0
   64.6030   32.5710   50.6090 O   0  0  0  0  0  0  0  0  0  0  0  0
   65.1800   31.5820   51.4570 C   0  0  0  0  0  0  0  0  0  0  0  0
   62.1580   32.5920   50.3090 C   0  0  0  0  0  0  0  0  0  0  0  0
   61.0510   32.3800   49.4820 C   0  0  0  0  0  0  0  0  0  0  0  0
   60.3350   28.1810   47.4210 C   0  0  0  0  0  0  0  0  0  0  0  0
   60.7830   27.1030   48.1890 C   0  0  0  0  0  0  0  0  0  0  0  0
   61.0719   26.0892   52.4710 H   0  0  0  0  0  0  0  0  0  0  0  0
   62.6753   25.6226   51.8093 H   0  0  0  0  0  0  0  0  0  0  0  0
   62.1709   27.3466   51.8093 H   0  0  0  0  0  0  0  0  0  0  0  0
   60.3750   28.4498   51.3081 H   0  0  0  0  0  0  0  0  0  0  0  0
   59.5765   30.3707   49.9365 H   0  0  0  0  0  0  0  0  0  0  0  0
   59.2628   28.8182   44.6313 H   0  0  0  0  0  0  0  0  0  0  0  0
   58.4561   27.1980   44.6752 H   0  0  0  0  0  0  0  0  0  0  0  0
   58.1204   28.7513   42.5868 H   0  0  0  0  0  0  0  0  0  0  0  0
   56.6939   27.8744   43.3465 H   0  0  0  0  0  0  0  0  0  0  0  0
   57.3100   31.8617   42.9659 H   0  0  0  0  0  0  0  0  0  0  0  0
   57.8248   30.5162   41.8928 H   0  0  0  0  0  0  0  0  0  0  0  0
   56.1129   31.0602   41.8928 H   0  0  0  0  0  0  0  0  0  0  0  0
   54.9841   29.7050   44.7873 H   0  0  0  0  0  0  0  0  0  0  0  0
   54.7160   30.5749   43.2387 H   0  0  0  0  0  0  0  0  0  0  0  0
   54.9589   28.7951   43.2387 H   0  0  0  0  0  0  0  0  0  0  0  0
   57.0310   31.1990   44.9900 H   0  0  0  0  0  0  0  0  0  0  0  0
   57.0878   33.4377   44.1796 H   0  0  0  0  0  0  0  0  0  0  0  0
   58.1518   35.6916   44.2282 H   0  0  0  0  0  0  0  0  0  0  0  0
   60.1069   36.1187   45.7130 H   0  0  0  0  0  0  0  0  0  0  0  0
   61.0111   34.2993   47.1532 H   0  0  0  0  0  0  0  0  0  0  0  0
   62.6701   31.3787   46.6405 H   0  0  0  0  0  0  0  0  0  0  0  0
   64.6445   31.7559   48.1128 H   0  0  0  0  0  0  0  0  0  0  0  0
   65.0174   31.8606   52.5086 H   0  0  0  0  0  0  0  0  0  0  0  0
   64.7082   30.6083   51.2585 H   0  0  0  0  0  0  0  0  0  0  0  0
   66.2598   31.5135   51.2585 H   0  0  0  0  0  0  0  0  0  0  0  0
   62.0114   32.9334   51.3444 H   0  0  0  0  0  0  0  0  0  0  0  0
   60.0367   32.5593   49.8680 H   0  0  0  0  0  0  0  0  0  0  0  0
   60.3235   28.1044   46.3237 H   0  0  0  0  0  0  0  0  0  0  0  0
   61.1229   26.1814   47.6940 H   0  0  0  0  0  0  0  0  0  0  0  0
  1  2  1  0
  2  3  1  0
  3  4  2  0
  4  5  1  0
  5  6  2  0
  6  7  1  0
  7  8  2  0
  8  9  1  0
  9 10  1  0
 10 11  1  0
 11 12  1  0
 12 13  1  0
 12 14  1  0
  8 15  1  0
 15 16  2  0
 16 17  1  0
 17 18  2  0
 18 19  1  0
 19 20  2  0
 20 21  1  0
 21 22  2  0
 22 23  1  0
 23 24  2  0
 24 25  1  0
 25 26  2  0
 26 27  1  0
 27 28  1  0
 26 29  1  0
 29 30  2  0
  6 31  1  0
 31 32  2  0
 32  3  1  0
 22  7  1  0
 30 23  1  0
 21 16  1  0
  1 33  1  0
  1 34  1  0
  1 35  1  0
  4 36  1  0
  5 37  1  0
 10 38  1  0
 10 39  1  0
 11 40  1  0
 11 41  1  0
 13 42  1  0
 13 43  1  0
 13 44  1  0
 14 45  1  0
 14 46  1  0
 14 47  1  0
 15 48  1  0
 17 49  1  0
 18 50  1  0
 19 51  1  0
 20 52  1  0
 24 53  1  0
 25 54  1  0
 28 55  1  0
 28 56  1  0
 28 57  1  0
 29 58  1  0
 30 59  1  0
 31 60  1  0
 32 61  1  0
M  CHG  1  15   1
M  END
>  <UniqueID>  (24) 
22

>  <SMILES>  (24) 
COc1ccc(-c2c(SCCN(C)C)[nH+]c3ccccc3c2-c2ccc(OC)cc2)cc1

>  <Energy>  (24) 
81.73962070493941

>  <Genealogy>  (24) 
COc1ccc(-c2c(SCCN(C)C)[nH+]c3ccccc3c2-c2ccc(OC)cc2)cc1 (protonated)
COc1ccc(-c2c(SCCN(C)C)[nH+]c3ccccc3c2-c2ccc(OC)cc2)cc1 (3D coordinates assigned)
COc1ccc(-c2c(SCCN(C)C)[nH+]c3ccccc3c2-c2ccc(OC)cc2)cc1 (optimized conformer: 81.73962070493941 kcal/mol)

>  <smiles>  (24) 
COc1ccc(-c2c(SCCN(C)C)nc3ccccc3c2-c2ccc(OC)cc2)cc1

>  <score_type>  (24) 
oracle

>  <origin>  (24) 
adg

>  <m_score__min__energy>  (24) 
-6.54

>  <m_primary>  (24) 
energy

$$$$
24:0
     RDKit          3D

 41 44  0  0  0  0  0  0  0  0999 V2000
   57.5090   24.5440   44.8120 C   0  0  0  0  0  0  0  0  0  0  0  0
   57.8810   25.4400   45.8550 O   0  0  0  0  0  0  0  0  0  0  0  0
   58.0470   26.8230   45.6910 C   0  0  0  0  0  0  0  0  0  0  0  0
   59.3170   27.4270   45.6350 C   0  0  0  0  0  0  0  0  0  0  0  0
   59.4330   28.8100   45.4700 C   0  0  0  0  0  0  0  0  0  0  0  0
   58.2870   29.6160   45.3610 C   0  0  0  0  0  0  0  0  0  0  0  0
   58.4140   31.0860   45.1830 C   0  0  0  0  0  0  0  0  0  0  0  0
   57.9300   31.7140   44.0010 C   0  0  0  0  0  0  0  0  0  0  0  0
   58.0520   33.1040   43.8230 C   0  0  0  0  0  0  0  0  0  0  0  0
   58.6410   33.8390   44.8460 C   0  0  0  0  0  0  0  0  0  0  0  0
   58.8900   35.1570   44.8840 N   0  0  0  0  0  0  0  0  0  0  0  0
   59.4930   35.4410   46.0330 N   0  0  0  0  0  0  0  0  0  0  0  0
   59.6170   34.2920   46.7440 C   0  0  0  0  0  0  0  0  0  0  0  0
   60.2520   34.2260   48.0740 C   0  0  0  0  0  0  0  0  0  0  0  0
   59.5560   34.5010   49.0870 O   0  0  0  0  0  0  0  0  0  0  0  0
   61.6650   33.8230   48.2560 C   0  0  0  0  0  0  0  0  0  0  0  0
   62.2420   33.8400   49.5380 C   0  0  0  0  0  0  0  0  0  0  0  0
   63.5760   33.4600   49.7170 C   0  0  0  0  0  0  0  0  0  0  0  0
   64.3420   33.0510   48.6230 C   0  0  0  0  0  0  0  0  0  0  0  0
   63.7730   33.0120   47.3480 C   0  0  0  0  0  0  0  0  0  0  0  0
   62.4390   33.3870   47.1640 C   0  0  0  0  0  0  0  0  0  0  0  0
   59.0900   33.2520   45.9940 C   0  0  0  0  0  0  0  0  0  0  0  0
   59.0190   31.8730   46.1910 C   0  0  0  0  0  0  0  0  0  0  0  0
   57.0210   29.0080   45.4180 C   0  0  0  0  0  0  0  0  0  0  0  0
   56.9040   27.6250   45.5820 C   0  0  0  0  0  0  0  0  0  0  0  0
   55.6730   27.0590   45.6310 F   0  0  0  0  0  0  0  0  0  0  0  0
   57.1221   23.6120   45.2499 H   0  0  0  0  0  0  0  0  0  0  0  0
   56.7293   25.0084   44.1904 H   0  0  0  0  0  0  0  0  0  0  0  0
   58.3883   24.3196   44.1904 H   0  0  0  0  0  0  0  0  0  0  0  0
   60.2222   26.8079   45.7215 H   0  0  0  0  0  0  0  0  0  0  0  0
   60.4304   29.2718   45.4251 H   0  0  0  0  0  0  0  0  0  0  0  0
   57.4550   31.1053   43.2175 H   0  0  0  0  0  0  0  0  0  0  0  0
   57.6935   33.5932   42.9053 H   0  0  0  0  0  0  0  0  0  0  0  0
   58.6700   35.8570   44.1410 H   0  0  0  0  0  0  0  0  0  0  0  0
   61.6413   34.1537   50.4044 H   0  0  0  0  0  0  0  0  0  0  0  0
   64.0230   33.4833   50.7218 H   0  0  0  0  0  0  0  0  0  0  0  0
   65.3931   32.7597   48.7655 H   0  0  0  0  0  0  0  0  0  0  0  0
   64.3755   32.6857   46.4874 H   0  0  0  0  0  0  0  0  0  0  0  0
   61.9915   33.3411   46.1602 H   0  0  0  0  0  0  0  0  0  0  0  0
   59.4219   31.4106   47.1041 H   0  0  0  0  0  0  0  0  0  0  0  0
   56.1149   29.6258   45.3328 H   0  0  0  0  0  0  0  0  0  0  0  0
  1  2  1  0
  2  3  1  0
  3  4  2  0
  4  5  1  0
  5  6  2  0
  6  7  1  0
  7  8  2  0
  8  9  1  0
  9 10  2  0
 10 11  1  0
 11 12  1  0
 12 13  2  0
 13 14  1  0
 14 15  2  0
 14 16  1  0
 16 17  2  0
 17 18  1  0
 18 19  2  0
 19 20  1  0
 20 21  2  0
 13 22  1  0
 22 23  2  0
  6 24  1  0
 24 25  2  0
 25 26  1  0
 25  3  1  0
 23  7  1  0
 22 10  1  0
 21 16  1  0
  1 27  1  0
  1 28  1  0
  1 29  1  0
  4 30  1  0
  5 31  1  0
  8 32  1  0
  9 33  1  0
 11 34  1  0
 17 35  1  0
 18 36  1  0
 19 37  1  0
 20 38  1  0
 21 39  1  0
 23 40  1  0
 24 41  1  0
M  END
>  <UniqueID>  (25) 
23

>  <SMILES>  (25) 
COc1ccc(-c2ccc3[nH]nc(C(=O)c4ccccc4)c3c2)cc1F

>  <Energy>  (25) 
93.75471529970565

>  <Genealogy>  (25) 
COc1ccc(-c2ccc3[nH]nc(C(=O)c4ccccc4)c3c2)cc1F (3D coordinates assigned)
COc1ccc(-c2ccc3[nH]nc(C(=O)c4ccccc4)c3c2)cc1F (optimized conformer: 93.75471529970565 kcal/mol)

>  <smiles>  (25) 
COc1ccc(-c2ccc3[nH]nc(C(=O)c4ccccc4)c3c2)cc1F

>  <score_type>  (25) 
oracle

>  <origin>  (25) 
adg

>  <m_score__min__energy>  (25) 
-8.4299999999999997

>  <m_primary>  (25) 
energy

$$$$
25:0
     RDKit          3D

 50 52  0  0  0  0  0  0  0  0999 V2000
   58.9867   24.9520   46.3877 H   0  0  0  0  0  0  0  0  0  0  0  0
   58.8880   26.0440   46.2990 C   0  0  0  0  0  0  0  0  0  0  0  0
   59.5190   26.8830   47.2290 C   0  0  0  0  0  0  0  0  0  0  0  0
   60.3610   26.3880   48.2370 O   0  0  0  0  0  0  0  0  0  0  0  0
   60.7500   27.1220   49.3930 C   0  0  0  0  0  0  0  0  0  0  0  0
   60.4558   26.5669   50.2960 H   0  0  0  0  0  0  0  0  0  0  0  0
   61.8410   27.2626   49.3882 H   0  0  0  0  0  0  0  0  0  0  0  0
   60.2538   28.1037   49.3882 H   0  0  0  0  0  0  0  0  0  0  0  0
   59.3250   28.2660   47.1480 C   0  0  0  0  0  0  0  0  0  0  0  0
   59.8503   28.9235   47.8563 H   0  0  0  0  0  0  0  0  0  0  0  0
   58.4720   28.8390   46.1800 C   0  0  0  0  0  0  0  0  0  0  0  0
   58.1930   30.2390   46.0860 C   0  0  0  0  0  0  0  0  0  0  0  0
   58.2730   31.0960   47.0760 N   0  0  0  0  0  0  0  0  0  0  0  0
   59.3330   31.4920   48.0050 C   0  0  0  0  0  0  0  0  0  0  0  0
   59.2929   30.8445   48.8934 H   0  0  0  0  0  0  0  0  0  0  0  0
   60.3022   31.3880   47.4952 H   0  0  0  0  0  0  0  0  0  0  0  0
   59.1650   32.9550   48.4420 C   0  0  0  0  0  0  0  0  0  0  0  0
   58.4146   32.9880   49.2456 H   0  0  0  0  0  0  0  0  0  0  0  0
   60.1597   33.2984   48.7623 H   0  0  0  0  0  0  0  0  0  0  0  0
   58.7140   33.9150   47.3260 C   0  0  0  0  0  0  0  0  0  0  0  0
   57.7174   33.6061   46.9775 H   0  0  0  0  0  0  0  0  0  0  0  0
   58.7008   34.9311   47.7471 H   0  0  0  0  0  0  0  0  0  0  0  0
   59.6380   33.9220   46.1710 N   0  0  0  0  0  0  0  0  0  0  0  0
   61.0200   34.1280   46.6340 C   0  0  0  0  0  0  0  0  0  0  0  0
   61.0416   34.1312   47.7338 H   0  0  0  0  0  0  0  0  0  0  0  0
   61.6580   33.3150   46.2571 H   0  0  0  0  0  0  0  0  0  0  0  0
   61.3932   35.0917   46.2571 H   0  0  0  0  0  0  0  0  0  0  0  0
   59.2860   34.9790   45.2060 C   0  0  0  0  0  0  0  0  0  0  0  0
   58.9839   35.8862   45.7498 H   0  0  0  0  0  0  0  0  0  0  0  0
   60.1578   35.2036   44.5740 H   0  0  0  0  0  0  0  0  0  0  0  0
   58.4536   34.6361   44.5740 H   0  0  0  0  0  0  0  0  0  0  0  0
   57.6890   30.7350   44.8640 C   0  0  0  0  0  0  0  0  0  0  0  0
   57.2510   29.8430   43.8770 C   0  0  0  0  0  0  0  0  0  0  0  0
   57.3390   28.5020   44.0730 N   0  0  0  0  0  0  0  0  0  0  0  0
   56.9660   27.8580   43.3380 H   0  0  0  0  0  0  0  0  0  0  0  0
   57.9630   27.9810   45.1670 C   0  0  0  0  0  0  0  0  0  0  0  0
   58.1370   26.5930   45.2640 C   0  0  0  0  0  0  0  0  0  0  0  0
   57.6757   25.9322   44.5153 H   0  0  0  0  0  0  0  0  0  0  0  0
   56.5980   30.3960   42.6370 C   0  0  0  0  0  0  0  0  0  0  0  0
   55.5756   30.7208   42.8805 H   0  0  0  0  0  0  0  0  0  0  0  0
   56.5733   29.6103   41.8676 H   0  0  0  0  0  0  0  0  0  0  0  0
   57.3940   31.5940   42.0980 C   0  0  0  0  0  0  0  0  0  0  0  0
   56.7694   32.1199   41.3609 H   0  0  0  0  0  0  0  0  0  0  0  0
   58.3185   31.1887   41.6609 H   0  0  0  0  0  0  0  0  0  0  0  0
   57.8240   32.6120   43.1860 C   0  0  0  0  0  0  0  0  0  0  0  0
   57.3443   33.5763   42.9623 H   0  0  0  0  0  0  0  0  0  0  0  0
   58.9225   32.6582   43.1526 H   0  0  0  0  0  0  0  0  0  0  0  0
   57.4480   32.2110   44.6240 C   0  0  0  0  0  0  0  0  0  0  0  0
   56.3835   32.4322   44.7911 H   0  0  0  0  0  0  0  0  0  0  0  0
   58.0781   32.7837   45.3204 H   0  0  0  0  0  0  0  0  0  0  0  0
  1  2  1  0
  2  3  2  0
  3  4  1  0
  4  5  1  0
  5  6  1  0
  5  7  1  0
  5  8  1  0
  3  9  1  0
  9 10  1  0
  9 11  2  0
 11 12  1  0
 12 13  2  0
 13 14  1  0
 14 15  1  0
 14 16  1  0
 14 17  1  0
 17 18  1  0
 17 19  1  0
 17 20  1  0
 20 21  1  0
 20 22  1  0
 20 23  1  0
 23 24  1  0
 24 25  1  0
 24 26  1  0
 24 27  1  0
 23 28  1  0
 28 29  1  0
 28 30  1  0
 28 31  1  0
 12 32  1  0
 32 33  2  0
 33 34  1  0
 34 35  1  0
 34 36  1  0
 36 37  2  0
 37 38  1  0
 33 39  1  0
 39 40  1  0
 39 41  1  0
 39 42  1  0
 42 43  1  0
 42 44  1  0
 42 45  1  0
 45 46  1  0
 45 47  1  0
 45 48  1  0
 48 49  1  0
 48 50  1  0
 37  2  1  0
 36 11  1  0
 48 32  1  0
M  END
>  <UniqueID>  (26) 
24

>  <SMILES>  (26) 
COc1ccc2[nH]c3c(/c(=N/CCCN(C)C)c2c1)CCCC3

>  <Energy>  (26) 
76.80443332744869

>  <Genealogy>  (26) 
COc1ccc2[nH]c3c(/c(=N/CCCN(C)C)c2c1)CCCC3 (cis-trans isomerization)
COc1ccc2[nH]c3c(/c(=N/CCCN(C)C)c2c1)CCCC3 (3D coordinates assigned)
COc1ccc2[nH]c3c(/c(=N/CCCN(C)C)c2c1)CCCC3 (nonaromatic ring conformer: 76.80443332744869 kcal/mol)

>  <smiles>  (26) 
COc1ccc2[nH]c3c(c(=NCCCN(C)C)c2c1)CCCC3

>  <score_type>  (26) 
oracle

>  <origin>  (26) 
adg

>  <m_score__min__energy>  (26) 
-7.1799999999999997

>  <m_primary>  (26) 
energy

$$$$
26:0
     RDKit          3D

 40 43  0  0  0  0  0  0  0  0999 V2000
   53.7659   22.8729   44.0797 H   0  0  0  0  0  0  0  0  0  0  0  0
   54.7080   23.3590   44.3730 C   0  0  0  0  0  0  0  0  0  0  0  0
   55.9310   22.8740   43.8600 C   0  0  0  0  0  0  0  0  0  0  0  0
   55.8950   21.7780   42.9860 O   0  0  0  0  0  0  0  0  0  0  0  0
   56.8410   20.7140   42.9940 C   0  0  0  0  0  0  0  0  0  0  0  0
   57.0808   20.4443   44.0331 H   0  0  0  0  0  0  0  0  0  0  0  0
   56.4154   19.8410   42.4775 H   0  0  0  0  0  0  0  0  0  0  0  0
   57.7578   21.0346   42.4775 H   0  0  0  0  0  0  0  0  0  0  0  0
   57.1410   23.5000   44.2370 C   0  0  0  0  0  0  0  0  0  0  0  0
   58.1061   23.1398   43.8511 H   0  0  0  0  0  0  0  0  0  0  0  0
   57.0810   24.5840   45.1090 C   0  0  0  0  0  0  0  0  0  0  0  0
   58.3420   25.5040   45.7230 S   0  0  0  0  0  0  0  0  0  0  0  0
   57.2780   26.4910   46.6080 C   0  0  0  0  0  0  0  0  0  0  0  0
   57.6180   27.4610   47.4060 N   0  0  0  0  0  0  0  0  0  0  0  0
   58.8150   28.2510   47.3420 C   0  0  0  0  0  0  0  0  0  0  0  0
   59.3030   28.6980   48.4130 O   0  0  0  0  0  0  0  0  0  0  0  0
   59.4670   28.6060   46.0310 C   0  0  0  0  0  0  0  0  0  0  0  0
   60.3761   29.1926   46.2297 H   0  0  0  0  0  0  0  0  0  0  0  0
   59.7145   27.6740   45.5017 H   0  0  0  0  0  0  0  0  0  0  0  0
   58.5350   29.4200   45.1580 C   0  0  0  0  0  0  0  0  0  0  0  0
   57.7700   28.7450   44.1910 C   0  0  0  0  0  0  0  0  0  0  0  0
   57.8592   27.6529   44.0944 H   0  0  0  0  0  0  0  0  0  0  0  0
   56.8990   29.4410   43.3520 C   0  0  0  0  0  0  0  0  0  0  0  0
   56.3048   28.8947   42.6046 H   0  0  0  0  0  0  0  0  0  0  0  0
   56.7790   30.8240   43.4570 C   0  0  0  0  0  0  0  0  0  0  0  0
   56.0868   31.3652   42.7952 H   0  0  0  0  0  0  0  0  0  0  0  0
   57.5360   31.5300   44.4020 C   0  0  0  0  0  0  0  0  0  0  0  0
   57.4140   32.9260   44.4930 C   0  0  0  0  0  0  0  0  0  0  0  0
   56.7199   33.4595   43.8270 H   0  0  0  0  0  0  0  0  0  0  0  0
   58.1690   33.6390   45.4240 C   0  0  0  0  0  0  0  0  0  0  0  0
   58.0680   34.7323   45.4912 H   0  0  0  0  0  0  0  0  0  0  0  0
   59.0520   32.9680   46.2700 C   0  0  0  0  0  0  0  0  0  0  0  0
   59.6467   33.5353   47.0011 H   0  0  0  0  0  0  0  0  0  0  0  0
   59.1850   31.5810   46.1940 C   0  0  0  0  0  0  0  0  0  0  0  0
   59.8861   31.0637   46.8655 H   0  0  0  0  0  0  0  0  0  0  0  0
   58.4280   30.8340   45.2630 C   0  0  0  0  0  0  0  0  0  0  0  0
   55.9850   26.1190   46.4560 N   0  0  0  0  0  0  0  0  0  0  0  0
   55.8810   25.0590   45.6130 C   0  0  0  0  0  0  0  0  0  0  0  0
   54.6780   24.4540   45.2530 C   0  0  0  0  0  0  0  0  0  0  0  0
   53.7226   24.8270   45.6506 H   0  0  0  0  0  0  0  0  0  0  0  0
  1  2  1  0
  2  3  2  0
  3  4  1  0
  4  5  1  0
  5  6  1  0
  5  7  1  0
  5  8  1  0
  3  9  1  0
  9 10  1  0
  9 11  2  0
 11 12  1  0
 12 13  1  0
 13 14  2  0
 14 15  1  0
 15 16  2  0
 15 17  1  0
 17 18  1  0
 17 19  1  0
 17 20  1  0
 20 21  2  0
 21 22  1  0
 21 23  1  0
 23 24  1  0
 23 25  2  0
 25 26  1  0
 25 27  1  0
 27 28  2  0
 28 29  1  0
 28 30  1  0
 30 31  1  0
 30 32  2  0
 32 33  1  0
 32 34  1  0
 34 35  1  0
 34 36  2  0
 13 37  1  0
 37 38  1  0
 38 39  2  0
 39 40  1  0
 39  2  1  0
 38 11  1  0
 36 20  1  0
 36 27  1  0
M  CHG  1  37  -1
M  END
>  <UniqueID>  (27) 
25

>  <SMILES>  (27) 
COc1ccc2[n-]/c(=N/C(=O)Cc3cccc4ccccc34)sc2c1

>  <Energy>  (27) 
89.78373271419878

>  <Genealogy>  (27) 
COc1ccc2[n-]c(=NC(=O)Cc3cccc4ccccc34)sc2c1 (protonated)
COc1ccc2[n-]/c(=N/C(=O)Cc3cccc4ccccc34)sc2c1 (cis-trans isomerization)
COc1ccc2[n-]/c(=N/C(=O)Cc3cccc4ccccc34)sc2c1 (3D coordinates assigned)
COc1ccc2[n-]/c(=N/C(=O)Cc3cccc4ccccc34)sc2c1 (optimized conformer: 89.78373271419878 kcal/mol)

>  <smiles>  (27) 
COc1ccc2[nH]c(=NC(=O)Cc3cccc4ccccc34)sc2c1

>  <score_type>  (27) 
oracle

>  <origin>  (27) 
adg

>  <m_score__min__energy>  (27) 
-11.050000000000001

>  <m_primary>  (27) 
energy

$$$$
27:0
     RDKit          3D

 47 48  0  0  0  0  0  0  0  0999 V2000
   55.1540   25.3290   45.6220 C   0  0  0  0  0  0  0  0  0  0  0  0
   55.3880   26.7120   45.8760 O   0  0  0  0  0  0  0  0  0  0  0  0
   56.6380   27.3380   45.7590 C   0  0  0  0  0  0  0  0  0  0  0  0
   57.7380   26.7520   46.3900 C   0  0  0  0  0  0  0  0  0  0  0  0
   59.0040   27.3380   46.3040 C   0  0  0  0  0  0  0  0  0  0  0  0
   59.1910   28.5250   45.5710 C   0  0  0  0  0  0  0  0  0  0  0  0
   60.4410   29.1600   45.4900 O   0  0  0  0  0  0  0  0  0  0  0  0
   60.9170   30.1260   46.4190 C   0  0  0  0  0  0  0  0  0  0  0  0
   58.0900   29.1040   44.9130 C   0  0  0  0  0  0  0  0  0  0  0  0
   58.2380   30.3000   44.1370 N   0  0  0  0  0  0  0  0  0  0  0  0
   57.8410   31.5840   44.6370 C   0  0  0  0  0  0  0  0  0  0  0  0
   57.0460   31.6750   45.6100 O   0  0  0  0  0  0  0  0  0  0  0  0
   58.4620   32.8290   44.0750 C   0  0  0  0  0  0  0  0  0  0  0  0
   58.0760   34.0520   44.9170 C   0  0  0  0  0  0  0  0  0  0  0  0
   59.2230   34.5150   45.7290 N   0  0  0  0  0  0  0  0  0  0  0  0
   58.8430   34.8440   47.1260 C   0  0  0  0  0  0  0  0  0  0  0  0
   59.2720   33.7550   48.1250 C   0  0  0  0  0  0  0  0  0  0  0  0
   60.7330   33.4910   48.0830 N   0  0  0  0  0  0  0  0  0  0  0  0
   61.4390   34.1950   49.1660 C   0  0  0  0  0  0  0  0  0  0  0  0
   61.3540   33.7980   46.7750 C   0  0  0  0  0  0  0  0  0  0  0  0
   60.3650   33.5800   45.6260 C   0  0  0  0  0  0  0  0  0  0  0  0
   56.8200   28.5240   45.0260 C   0  0  0  0  0  0  0  0  0  0  0  0
   55.0630   24.7911   46.5772 H   0  0  0  0  0  0  0  0  0  0  0  0
   54.2237   25.2142   45.0464 H   0  0  0  0  0  0  0  0  0  0  0  0
   55.9948   24.9145   45.0464 H   0  0  0  0  0  0  0  0  0  0  0  0
   57.6065   25.8204   46.9600 H   0  0  0  0  0  0  0  0  0  0  0  0
   59.8593   26.8688   46.8122 H   0  0  0  0  0  0  0  0  0  0  0  0
   60.7403   29.7674   47.4438 H   0  0  0  0  0  0  0  0  0  0  0  0
   61.9951   30.2819   46.2659 H   0  0  0  0  0  0  0  0  0  0  0  0
   60.3838   31.0759   46.2659 H   0  0  0  0  0  0  0  0  0  0  0  0
   58.9140   30.2730   43.3400 H   0  0  0  0  0  0  0  0  0  0  0  0
   59.5566   32.7196   44.0768 H   0  0  0  0  0  0  0  0  0  0  0  0
   58.0961   32.9755   43.0480 H   0  0  0  0  0  0  0  0  0  0  0  0
   57.7570   34.8644   44.2475 H   0  0  0  0  0  0  0  0  0  0  0  0
   57.2565   33.7691   45.5940 H   0  0  0  0  0  0  0  0  0  0  0  0
   59.3246   35.7917   47.4088 H   0  0  0  0  0  0  0  0  0  0  0  0
   57.7464   34.9204   47.1651 H   0  0  0  0  0  0  0  0  0  0  0  0
   59.0010   34.0805   49.1402 H   0  0  0  0  0  0  0  0  0  0  0  0
   58.7552   32.8242   47.8484 H   0  0  0  0  0  0  0  0  0  0  0  0
   61.0746   33.8316   50.1382 H   0  0  0  0  0  0  0  0  0  0  0  0
   62.5192   34.0037   49.0846 H   0  0  0  0  0  0  0  0  0  0  0  0
   61.2508   35.2757   49.0846 H   0  0  0  0  0  0  0  0  0  0  0  0
   61.6820   34.8480   46.7714 H   0  0  0  0  0  0  0  0  0  0  0  0
   62.2103   33.1230   46.6296 H   0  0  0  0  0  0  0  0  0  0  0  0
   60.8818   33.7464   44.6693 H   0  0  0  0  0  0  0  0  0  0  0  0
   59.9826   32.5501   45.6815 H   0  0  0  0  0  0  0  0  0  0  0  0
   55.9575   29.0005   44.5370 H   0  0  0  0  0  0  0  0  0  0  0  0
  1  2  1  0
  2  3  1  0
  3  4  2  0
  4  5  1  0
  5  6  2  0
  6  7  1  0
  7  8  1  0
  6  9  1  0
  9 10  1  0
 10 11  1  0
 11 12  2  0
 11 13  1  0
 13 14  1  0
 14 15  1  0
 15 16  1  0
 16 17  1  0
 17 18  1  0
 18 19  1  0
 18 20  1  0
 20 21  1  0
  9 22  2  0
 22  3  1  0
 21 15  1  0
  1 23  1  0
  1 24  1  0
  1 25  1  0
  4 26  1  0
  5 27  1  0
  8 28  1  0
  8 29  1  0
  8 30  1  0
 10 31  1  0
 13 32  1  0
 13 33  1  0
 14 34  1  0
 14 35  1  0
 16 36  1  0
 16 37  1  0
 17 38  1  0
 17 39  1  0
 19 40  1  0
 19 41  1  0
 19 42  1  0
 20 43  1  0
 20 44  1  0
 21 45  1  0
 21 46  1  0
 22 47  1  0
M  END
>  <UniqueID>  (28) 
26

>  <SMILES>  (28) 
COc1ccc(OC)c(NC(=O)CCN2CCN(C)CC2)c1

>  <Energy>  (28) 
57.62637300228653

>  <Genealogy>  (28) 
COc1ccc(OC)c(NC(=O)CCN2CCN(C)CC2)c1 (3D coordinates assigned)
COc1ccc(OC)c(NC(=O)CCN2CCN(C)CC2)c1 (nonaromatic ring conformer: 57.62637300228653 kcal/mol)

>  <smiles>  (28) 
COc1ccc(OC)c(NC(=O)CCN2CCN(C)CC2)c1

>  <score_type>  (28) 
oracle

>  <origin>  (28) 
adg

>  <m_score__min__energy>  (28) 
-7.5

>  <m_primary>  (28) 
energy

$$$$
28:0
     RDKit          3D

 55 56  0  0  0  0  0  0  0  0999 V2000
   57.2490   33.4610   46.0960 C   0  0  0  0  0  0  0  0  0  0  0  0
   57.7220   33.6440   44.6570 C   0  0  0  0  0  0  0  0  0  0  0  0
   59.1620   34.1600   44.6090 C   0  0  0  0  0  0  0  0  0  0  0  0
   59.6410   34.8610   46.2260 S   0  0  0  0  0  0  0  0  0  0  0  0
   61.1960   33.9120   46.3960 C   0  0  0  0  0  0  0  0  0  0  0  0
   61.2090   33.1100   47.7000 C   0  0  0  0  0  0  0  0  0  0  0  0
   60.3080   33.7460   48.7660 C   0  0  0  0  0  0  0  0  0  0  0  0
   58.9370   33.0590   48.8220 C   0  0  0  0  0  0  0  0  0  0  0  0
   59.0280   31.6910   49.5050 C   0  0  0  0  0  0  0  0  0  0  0  0
   58.8680   30.6220   48.5100 N   0  0  0  0  0  0  0  0  0  0  0  0
   58.8080   29.3070   49.1560 C   0  0  0  0  0  0  0  0  0  0  0  0
   60.0030   28.4470   48.7440 C   0  0  0  0  0  0  0  0  0  0  0  0
   60.9320   29.2330   47.9160 N   0  0  0  0  0  0  0  0  0  0  0  0
   60.5700   29.2160   46.4890 C   0  0  0  0  0  0  0  0  0  0  0  0
   60.3230   27.7760   46.0280 C   0  0  0  0  0  0  0  0  0  0  0  0
   58.8560   27.4270   46.0680 C   0  0  0  0  0  0  0  0  0  0  0  0
   58.4390   26.1500   46.4920 C   0  0  0  0  0  0  0  0  0  0  0  0
   57.0760   25.7980   46.4760 C   0  0  0  0  0  0  0  0  0  0  0  0
   56.1100   26.7110   46.0250 C   0  0  0  0  0  0  0  0  0  0  0  0
   54.7650   26.3570   46.0040 O   0  0  0  0  0  0  0  0  0  0  0  0
   56.5220   27.9720   45.5940 C   0  0  0  0  0  0  0  0  0  0  0  0
   55.6840   28.9300   45.1210 N   0  0  0  0  0  0  0  0  0  0  0  0
   56.3760   30.0370   44.7680 C   0  0  0  0  0  0  0  0  0  0  0  0
   55.8250   31.0670   44.3050 O   0  0  0  0  0  0  0  0  0  0  0  0
   58.0390   29.8840   45.0160 S   0  0  0  0  0  0  0  0  0  0  0  0
   57.8690   28.3170   45.6160 C   0  0  0  0  0  0  0  0  0  0  0  0
   58.0476   33.7700   46.7865 H   0  0  0  0  0  0  0  0  0  0  0  0
   56.3551   34.0782   46.2695 H   0  0  0  0  0  0  0  0  0  0  0  0
   57.0033   32.4029   46.2695 H   0  0  0  0  0  0  0  0  0  0  0  0
   57.6701   32.6763   44.1365 H   0  0  0  0  0  0  0  0  0  0  0  0
   57.0707   34.3832   44.1677 H   0  0  0  0  0  0  0  0  0  0  0  0
   59.8371   33.3279   44.3603 H   0  0  0  0  0  0  0  0  0  0  0  0
   59.2339   34.9467   43.8435 H   0  0  0  0  0  0  0  0  0  0  0  0
   61.2895   33.2193   45.5466 H   0  0  0  0  0  0  0  0  0  0  0  0
   62.0385   34.6191   46.4108 H   0  0  0  0  0  0  0  0  0  0  0  0
   60.8528   32.0898   47.4946 H   0  0  0  0  0  0  0  0  0  0  0  0
   62.2394   33.0977   48.0848 H   0  0  0  0  0  0  0  0  0  0  0  0
   60.7951   33.6536   49.7479 H   0  0  0  0  0  0  0  0  0  0  0  0
   60.1551   34.8034   48.5043 H   0  0  0  0  0  0  0  0  0  0  0  0
   58.2398   33.6957   49.3864 H   0  0  0  0  0  0  0  0  0  0  0  0
   58.5808   32.9100   47.7920 H   0  0  0  0  0  0  0  0  0  0  0  0
   60.0092   31.5915   49.9923 H   0  0  0  0  0  0  0  0  0  0  0  0
   58.2288   31.6082   50.2562 H   0  0  0  0  0  0  0  0  0  0  0  0
   57.9680   30.7830   48.0000 H   0  0  0  0  0  0  0  0  0  0  0  0
   58.8185   29.4403   50.2478 H   0  0  0  0  0  0  0  0  0  0  0  0
   57.8832   28.8008   48.8420 H   0  0  0  0  0  0  0  0  0  0  0  0
   60.5269   28.0967   49.6456 H   0  0  0  0  0  0  0  0  0  0  0  0
   59.6426   27.5863   48.1615 H   0  0  0  0  0  0  0  0  0  0  0  0
   60.9190   30.2240   48.2560 H   0  0  0  0  0  0  0  0  0  0  0  0
   59.6557   29.8087   46.3381 H   0  0  0  0  0  0  0  0  0  0  0  0
   61.3948   29.6465   45.9022 H   0  0  0  0  0  0  0  0  0  0  0  0
   60.6894   27.6629   44.9970 H   0  0  0  0  0  0  0  0  0  0  0  0
   60.8578   27.0986   46.7100 H   0  0  0  0  0  0  0  0  0  0  0  0
   59.1857   25.4207   46.8390 H   0  0  0  0  0  0  0  0  0  0  0  0
   56.7658   24.8001   46.8195 H   0  0  0  0  0  0  0  0  0  0  0  0
  1  2  1  0
  2  3  1  0
  3  4  1  0
  4  5  1  0
  5  6  1  0
  6  7  1  0
  7  8  1  0
  8  9  1  0
  9 10  1  0
 10 11  1  0
 11 12  1  0
 12 13  1  0
 13 14  1  0
 14 15  1  0
 15 16  1  0
 16 17  2  0
 17 18  1  0
 18 19  2  0
 19 20  1  0
 19 21  1  0
 21 22  1  0
 22 23  1  0
 23 24  2  0
 23 25  1  0
 25 26  1  0
 26 16  1  0
 26 21  2  0
  1 27  1  0
  1 28  1  0
  1 29  1  0
  2 30  1  0
  2 31  1  0
  3 32  1  0
  3 33  1  0
  5 34  1  0
  5 35  1  0
  6 36  1  0
  6 37  1  0
  7 38  1  0
  7 39  1  0
  8 40  1  0
  8 41  1  0
  9 42  1  0
  9 43  1  0
 10 44  1  0
 11 45  1  0
 11 46  1  0
 12 47  1  0
 12 48  1  0
 13 49  1  0
 14 50  1  0
 14 51  1  0
 15 52  1  0
 15 53  1  0
 17 54  1  0
 18 55  1  0
M  CHG  2  20  -1  22  -1
M  END
>  <UniqueID>  (29) 
27

>  <SMILES>  (29) 
CCCSCCCCCNCCNCCc1ccc([O-])c2[n-]c(=O)sc12

>  <Energy>  (29) 
64.09912130056622

>  <Genealogy>  (29) 
CCCSCCCCCNCCNCCc1ccc([O-])c2[n-]c(=O)sc12 (protonated)
CCCSCCCCCNCCNCCc1ccc([O-])c2[n-]c(=O)sc12 (3D coordinates assigned)
CCCSCCCCCNCCNCCc1ccc([O-])c2[n-]c(=O)sc12 (optimized conformer: 64.09912130056622 kcal/mol)

>  <smiles>  (29) 
CCCSCCCCCNCCNCCc1ccc(O)c2[nH]c(=O)sc12

>  <score_type>  (29) 
oracle

>  <origin>  (29) 
adg

>  <m_score__min__energy>  (29) 
-13.76

>  <m_primary>  (29) 
energy

$$$$
29:0
     RDKit          3D

 48 50  0  0  0  0  0  0  0  0999 V2000
   58.4430   34.9440   44.8670 C   0  0  0  0  0  0  0  0  0  0  0  0
   58.1430   33.4820   44.7780 C   0  0  0  0  0  0  0  0  0  0  0  0
   57.4880   32.9380   43.7710 O   0  0  0  0  0  0  0  0  0  0  0  0
   57.4190   31.6480   43.9910 C   0  0  0  0  0  0  0  0  0  0  0  0
   56.8330   30.6900   43.1690 C   0  0  0  0  0  0  0  0  0  0  0  0
   56.8670   29.3500   43.5890 C   0  0  0  0  0  0  0  0  0  0  0  0
   57.4580   29.0020   44.8220 C   0  0  0  0  0  0  0  0  0  0  0  0
   58.0380   29.9900   45.6490 C   0  0  0  0  0  0  0  0  0  0  0  0
   58.5040   29.6650   46.9660 N   0  0  0  0  0  0  0  0  0  0  0  0
   58.9610   28.3310   47.3480 C   0  0  0  0  0  0  0  0  0  0  0  0
   59.8880   28.4300   48.5720 C   0  0  0  0  0  0  0  0  0  0  0  0
   59.9360   29.7730   49.1920 N   0  0  0  0  0  0  0  0  0  0  0  0
   61.2750   30.1280   49.6900 C   0  0  0  0  0  0  0  0  0  0  0  0
   58.9120   29.9590   50.2330 C   0  0  0  0  0  0  0  0  0  0  0  0
   58.0270   31.3150   45.1800 C   0  0  0  0  0  0  0  0  0  0  0  0
   58.5220   32.5050   45.6990 C   0  0  0  0  0  0  0  0  0  0  0  0
   59.3910   32.7000   46.8730 C   0  0  0  0  0  0  0  0  0  0  0  0
   59.0530   32.2150   47.9850 O   0  0  0  0  0  0  0  0  0  0  0  0
   60.5650   33.5200   46.7700 N   0  0  0  0  0  0  0  0  0  0  0  0
   61.7270   33.3830   47.6050 C   0  0  0  0  0  0  0  0  0  0  0  0
   62.6840   32.4040   47.2940 C   0  0  0  0  0  0  0  0  0  0  0  0
   63.7930   32.2050   48.1230 C   0  0  0  0  0  0  0  0  0  0  0  0
   63.9490   32.9740   49.2800 C   0  0  0  0  0  0  0  0  0  0  0  0
   65.4570   32.6940   50.4180 Br  0  0  0  0  0  0  0  0  0  0  0  0
   62.9940   33.9400   49.6080 C   0  0  0  0  0  0  0  0  0  0  0  0
   61.8860   34.1420   48.7810 C   0  0  0  0  0  0  0  0  0  0  0  0
   58.5042   35.2421   45.9241 H   0  0  0  0  0  0  0  0  0  0  0  0
   59.4026   35.1523   44.3712 H   0  0  0  0  0  0  0  0  0  0  0  0
   57.6430   35.5133   44.3712 H   0  0  0  0  0  0  0  0  0  0  0  0
   56.3573   30.9737   42.2186 H   0  0  0  0  0  0  0  0  0  0  0  0
   56.4299   28.5667   42.9523 H   0  0  0  0  0  0  0  0  0  0  0  0
   57.4673   27.9499   45.1430 H   0  0  0  0  0  0  0  0  0  0  0  0
   58.5140   30.4150   47.6930 H   0  0  0  0  0  0  0  0  0  0  0  0
   58.0919   27.7045   47.5975 H   0  0  0  0  0  0  0  0  0  0  0  0
   59.5126   27.8813   46.5092 H   0  0  0  0  0  0  0  0  0  0  0  0
   59.5369   27.7133   49.3290 H   0  0  0  0  0  0  0  0  0  0  0  0
   60.9053   28.2108   48.2155 H   0  0  0  0  0  0  0  0  0  0  0  0
   61.2694   30.1265   50.7900 H   0  0  0  0  0  0  0  0  0  0  0  0
   62.0083   29.3932   49.3261 H   0  0  0  0  0  0  0  0  0  0  0  0
   61.5479   31.1295   49.3261 H   0  0  0  0  0  0  0  0  0  0  0  0
   59.3785   29.8743   51.2256 H   0  0  0  0  0  0  0  0  0  0  0  0
   58.4566   30.9546   50.1257 H   0  0  0  0  0  0  0  0  0  0  0  0
   58.1356   29.1872   50.1257 H   0  0  0  0  0  0  0  0  0  0  0  0
   60.5760   34.2550   46.0270 H   0  0  0  0  0  0  0  0  0  0  0  0
   62.5607   31.7883   46.3909 H   0  0  0  0  0  0  0  0  0  0  0  0
   64.5429   31.4429   47.8643 H   0  0  0  0  0  0  0  0  0  0  0  0
   63.1149   34.5431   50.5199 H   0  0  0  0  0  0  0  0  0  0  0  0
   61.1336   34.8980   49.0498 H   0  0  0  0  0  0  0  0  0  0  0  0
  1  2  1  0
  2  3  1  0
  3  4  1  0
  4  5  2  0
  5  6  1  0
  6  7  2  0
  7  8  1  0
  8  9  1  0
  9 10  1  0
 10 11  1  0
 11 12  1  0
 12 13  1  0
 12 14  1  0
  8 15  2  0
 15 16  1  0
 16 17  1  0
 17 18  2  0
 17 19  1  0
 19 20  1  0
 20 21  2  0
 21 22  1  0
 22 23  2  0
 23 24  1  0
 23 25  1  0
 25 26  2  0
 16  2  2  0
 26 20  1  0
 15  4  1  0
  1 27  1  0
  1 28  1  0
  1 29  1  0
  5 30  1  0
  6 31  1  0
  7 32  1  0
  9 33  1  0
 10 34  1  0
 10 35  1  0
 11 36  1  0
 11 37  1  0
 13 38  1  0
 13 39  1  0
 13 40  1  0
 14 41  1  0
 14 42  1  0
 14 43  1  0
 19 44  1  0
 21 45  1  0
 22 46  1  0
 25 47  1  0
 26 48  1  0
M  END
>  <UniqueID>  (30) 
28

>  <SMILES>  (30) 
Cc1oc2cccc(NCCN(C)C)c2c1C(=O)Nc1ccc(Br)cc1

>  <Energy>  (30) 
92.09698441116963

>  <Genealogy>  (30) 
Cc1oc2cccc(NCCN(C)C)c2c1C(=O)Nc1ccc(Br)cc1 (3D coordinates assigned)
Cc1oc2cccc(NCCN(C)C)c2c1C(=O)Nc1ccc(Br)cc1 (optimized conformer: 92.09698441116963 kcal/mol)

>  <smiles>  (30) 
Cc1oc2cccc(NCCN(C)C)c2c1C(=O)Nc1ccc(Br)cc1

>  <score_type>  (30) 
oracle

>  <origin>  (30) 
adg

>  <m_score__min__energy>  (30) 
-7.8700000000000001

>  <m_primary>  (30) 
energy

$$$$
30:0
     RDKit          3D

 39 41  0  0  0  0  0  0  0  0999 V2000
   61.8090   34.1240   48.3010 C   0  0  0  0  0  0  0  0  0  0  0  0
   60.6170   34.1710   47.4650 N   0  0  0  0  0  0  0  0  0  0  0  0
   59.9600   35.2790   47.1370 N   0  0  0  0  0  0  0  0  0  0  0  0
   58.8960   34.9960   46.3860 N   0  0  0  0  0  0  0  0  0  0  0  0
   58.8940   33.6570   46.2470 C   0  0  0  0  0  0  0  0  0  0  0  0
   57.9910   32.8550   45.5640 C   0  0  0  0  0  0  0  0  0  0  0  0
   58.2110   31.4560   45.5680 C   0  0  0  0  0  0  0  0  0  0  0  0
   57.2750   30.6060   44.8020 C   0  0  0  0  0  0  0  0  0  0  0  0
   56.0440   30.8640   44.8630 O   0  0  0  0  0  0  0  0  0  0  0  0
   57.7670   29.4860   44.0370 N   0  0  0  0  0  0  0  0  0  0  0  0
   57.0900   28.7870   43.1600 C   0  0  0  0  0  0  0  0  0  0  0  0
   55.9050   29.3460   42.5840 N   0  0  0  0  0  0  0  0  0  0  0  0
   57.4660   27.4550   42.7900 N   0  0  0  0  0  0  0  0  0  0  0  0
   59.3210   30.9100   46.2950 C   0  0  0  0  0  0  0  0  0  0  0  0
   59.5130   29.4890   46.4100 N   0  0  0  0  0  0  0  0  0  0  0  0
   60.4890   28.7560   45.6230 C   0  0  0  0  0  0  0  0  0  0  0  0
   60.3520   27.3050   46.0600 C   0  0  0  0  0  0  0  0  0  0  0  0
   58.9870   27.1980   46.7350 C   0  0  0  0  0  0  0  0  0  0  0  0
   58.6050   28.6180   47.1370 C   0  0  0  0  0  0  0  0  0  0  0  0
   60.2120   31.7760   46.9720 C   0  0  0  0  0  0  0  0  0  0  0  0
   59.9570   33.1430   46.9130 C   0  0  0  0  0  0  0  0  0  0  0  0
   61.5143   34.1356   49.3607 H   0  0  0  0  0  0  0  0  0  0  0  0
   62.3710   33.2030   48.0868 H   0  0  0  0  0  0  0  0  0  0  0  0
   62.4418   34.9979   48.0868 H   0  0  0  0  0  0  0  0  0  0  0  0
   57.1309   33.2923   45.0358 H   0  0  0  0  0  0  0  0  0  0  0  0
   58.7530   29.1960   44.2150 H   0  0  0  0  0  0  0  0  0  0  0  0
   55.5910   30.3130   42.8230 H   0  0  0  0  0  0  0  0  0  0  0  0
   55.3370   28.7920   41.9050 H   0  0  0  0  0  0  0  0  0  0  0  0
   57.0290   27.0120   41.9520 H   0  0  0  0  0  0  0  0  0  0  0  0
   57.9820   26.8260   43.4410 H   0  0  0  0  0  0  0  0  0  0  0  0
   60.2718   28.8568   44.5494 H   0  0  0  0  0  0  0  0  0  0  0  0
   61.5094   29.1359   45.7793 H   0  0  0  0  0  0  0  0  0  0  0  0
   60.4009   26.6365   45.1878 H   0  0  0  0  0  0  0  0  0  0  0  0
   61.1636   27.0103   46.7415 H   0  0  0  0  0  0  0  0  0  0  0  0
   58.2454   26.7864   46.0346 H   0  0  0  0  0  0  0  0  0  0  0  0
   59.0197   26.5274   47.6063 H   0  0  0  0  0  0  0  0  0  0  0  0
   57.5628   28.8293   46.8555 H   0  0  0  0  0  0  0  0  0  0  0  0
   58.6817   28.7672   48.2241 H   0  0  0  0  0  0  0  0  0  0  0  0
   61.0768   31.3822   47.5261 H   0  0  0  0  0  0  0  0  0  0  0  0
  1  2  1  0
  2  3  1  0
  3  4  2  0
  4  5  1  0
  5  6  2  0
  6  7  1  0
  7  8  1  0
  8  9  2  0
  8 10  1  0
 10 11  2  3
 11 12  1  0
 11 13  1  0
  7 14  2  0
 14 15  1  0
 15 16  1  0
 16 17  1  0
 17 18  1  0
 18 19  1  0
 14 20  1  0
 20 21  2  0
 21  2  1  0
 21  5  1  0
 19 15  1  0
  1 22  1  0
  1 23  1  0
  1 24  1  0
  6 25  1  0
 10 26  1  0
 12 27  1  0
 12 28  1  0
 13 29  1  0
 13 30  1  0
 16 31  1  0
 16 32  1  0
 17 33  1  0
 17 34  1  0
 18 35  1  0
 18 36  1  0
 19 37  1  0
 19 38  1  0
 20 39  1  0
M  CHG  1  10   1
M  END
>  <UniqueID>  (31) 
29

>  <SMILES>  (31) 
Cn1nnc2cc(C(=O)[NH+]=C(N)N)c(N3CCCC3)cc21

>  <Energy>  (31) 
97.32740515490453

>  <Genealogy>  (31) 
Cn1nnc2cc(C(=O)[NH+]=C(N)N)c(N3CCCC3)cc21 (protonated)
Cn1nnc2cc(C(=O)[NH+]=C(N)N)c(N3CCCC3)cc21 (3D coordinates assigned)
Cn1nnc2cc(C(=O)[NH+]=C(N)N)c(N3CCCC3)cc21 (nonaromatic ring conformer: 97.32740515490453 kcal/mol)

>  <smiles>  (31) 
Cn1nnc2cc(C(=O)N=C(N)N)c(N3CCCC3)cc21

>  <score_type>  (31) 
oracle

>  <origin>  (31) 
adg

>  <m_score__min__energy>  (31) 
-5.7699999999999996

>  <m_primary>  (31) 
energy

$$$$
31:0
     RDKit          3D

 34 34  0  0  0  0  0  0  0  0999 V2000
   56.3290   29.7250   42.7180 C   0  0  0  0  0  0  0  0  0  0  0  0
   56.7510   29.5330   44.1710 C   0  0  0  0  0  0  0  0  0  0  0  0
   56.8650   30.8320   44.8520 N   0  0  0  0  0  0  0  0  0  0  0  0
   57.3940   31.8920   43.9770 C   0  0  0  0  0  0  0  0  0  0  0  0
   58.2450   32.9210   44.7620 C   0  0  0  0  0  0  0  0  0  0  0  0
   58.3000   32.6850   46.2220 N   0  0  0  0  0  0  0  0  0  0  0  0
   58.6870   33.8810   46.9820 C   0  0  0  0  0  0  0  0  0  0  0  0
   59.2870   31.3120   46.6750 S   0  0  0  0  0  0  0  0  0  0  0  0
   58.5210   30.4030   47.5980 O   0  0  0  0  0  0  0  0  0  0  0  0
   59.6400   30.5370   45.4370 O   0  0  0  0  0  0  0  0  0  0  0  0
   60.7850   31.8260   47.4520 C   0  0  0  0  0  0  0  0  0  0  0  0
   61.1680   31.2500   48.6720 C   0  0  0  0  0  0  0  0  0  0  0  0
   62.3710   31.6220   49.2800 C   0  0  0  0  0  0  0  0  0  0  0  0
   63.1960   32.5740   48.6730 C   0  0  0  0  0  0  0  0  0  0  0  0
   64.8460   33.0750   49.4960 Br  0  0  0  0  0  0  0  0  0  0  0  0
   62.8150   33.1580   47.4600 C   0  0  0  0  0  0  0  0  0  0  0  0
   61.6120   32.7880   46.8520 C   0  0  0  0  0  0  0  0  0  0  0  0
   55.3282   30.1803   42.6839 H   0  0  0  0  0  0  0  0  0  0  0  0
   57.0491   30.3841   42.2111 H   0  0  0  0  0  0  0  0  0  0  0  0
   56.3053   28.7491   42.2111 H   0  0  0  0  0  0  0  0  0  0  0  0
   55.9992   28.9184   44.6878 H   0  0  0  0  0  0  0  0  0  0  0  0
   57.7307   29.0333   44.1931 H   0  0  0  0  0  0  0  0  0  0  0  0
   57.4870   30.7270   45.6880 H   0  0  0  0  0  0  0  0  0  0  0  0
   58.0216   31.4310   43.2001 H   0  0  0  0  0  0  0  0  0  0  0  0
   56.5398   32.4248   43.5339 H   0  0  0  0  0  0  0  0  0  0  0  0
   59.2721   32.8881   44.3697 H   0  0  0  0  0  0  0  0  0  0  0  0
   57.7620   33.8992   44.6210 H   0  0  0  0  0  0  0  0  0  0  0  0
   58.6184   33.6690   48.0592 H   0  0  0  0  0  0  0  0  0  0  0  0
   59.7207   34.1583   46.7280 H   0  0  0  0  0  0  0  0  0  0  0  0
   58.0117   34.7113   46.7280 H   0  0  0  0  0  0  0  0  0  0  0  0
   60.5195   30.5026   49.1525 H   0  0  0  0  0  0  0  0  0  0  0  0
   62.6684   31.1658   50.2357 H   0  0  0  0  0  0  0  0  0  0  0  0
   63.4628   33.9091   46.9843 H   0  0  0  0  0  0  0  0  0  0  0  0
   61.3127   33.2521   45.9007 H   0  0  0  0  0  0  0  0  0  0  0  0
  1  2  1  0
  2  3  1  0
  3  4  1  0
  4  5  1  0
  5  6  1  0
  6  7  1  0
  6  8  1  0
  8  9  2  0
  8 10  2  0
  8 11  1  0
 11 12  2  0
 12 13  1  0
 13 14  2  0
 14 15  1  0
 14 16  1  0
 16 17  2  0
 17 11  1  0
  1 18  1  0
  1 19  1  0
  1 20  1  0
  2 21  1  0
  2 22  1  0
  3 23  1  0
  4 24  1  0
  4 25  1  0
  5 26  1  0
  5 27  1  0
  7 28  1  0
  7 29  1  0
  7 30  1  0
 12 31  1  0
 13 32  1  0
 16 33  1  0
 17 34  1  0
M  END
>  <UniqueID>  (32) 
30

>  <SMILES>  (32) 
CCNCCN(C)S(=O)(=O)c1ccc(Br)cc1

>  <Energy>  (32) 
29.699723573619135

>  <Genealogy>  (32) 
CCNCCN(C)S(=O)(=O)c1ccc(Br)cc1 (3D coordinates assigned)
CCNCCN(C)S(=O)(=O)c1ccc(Br)cc1 (optimized conformer: 29.699723573619135 kcal/mol)

>  <smiles>  (32) 
CCNCCN(C)S(=O)(=O)c1ccc(Br)cc1

>  <score_type>  (32) 
oracle

>  <origin>  (32) 
adg

>  <m_score__min__energy>  (32) 
-7.5800000000000001

>  <m_primary>  (32) 
energy

$$$$
32:0
     RDKit          3D

 37 38  0  0  0  0  0  0  0  0999 V2000
   60.9320   25.1090   46.0270 H   0  0  0  0  0  0  0  0  0  0  0  0
   60.6100   26.0430   46.2360 O   0  0  0  0  0  0  0  0  0  0  0  0
   59.3440   26.5190   45.8770 C   0  0  0  0  0  0  0  0  0  0  0  0
   59.2070   27.9080   45.6690 C   0  0  0  0  0  0  0  0  0  0  0  0
   60.4350   28.7890   45.7480 C   0  0  0  0  0  0  0  0  0  0  0  0
   60.6885   28.9709   46.8028 H   0  0  0  0  0  0  0  0  0  0  0  0
   61.2781   28.2885   45.2493 H   0  0  0  0  0  0  0  0  0  0  0  0
   60.2310   29.7480   45.2493 H   0  0  0  0  0  0  0  0  0  0  0  0
   57.9330   28.4540   45.3900 C   0  0  0  0  0  0  0  0  0  0  0  0
   57.7440   29.8960   45.1100 C   0  0  0  0  0  0  0  0  0  0  0  0
   57.3657   30.5302   45.9253 H   0  0  0  0  0  0  0  0  0  0  0  0
   58.0020   30.4830   43.9310 C   0  0  0  0  0  0  0  0  0  0  0  0
   58.3886   29.8442   43.1233 H   0  0  0  0  0  0  0  0  0  0  0  0
   57.8090   31.9220   43.6270 C   0  0  0  0  0  0  0  0  0  0  0  0
   57.8100   32.3190   42.3520 C   0  0  0  0  0  0  0  0  0  0  0  0
   57.9246   31.5795   41.5458 H   0  0  0  0  0  0  0  0  0  0  0  0
   57.6962   33.3855   42.1080 H   0  0  0  0  0  0  0  0  0  0  0  0
   57.6510   32.9480   44.7180 C   0  0  0  0  0  0  0  0  0  0  0  0
   57.7269   32.4552   45.6985 H   0  0  0  0  0  0  0  0  0  0  0  0
   58.4430   33.7058   44.6262 H   0  0  0  0  0  0  0  0  0  0  0  0
   56.6677   33.4324   44.6262 H   0  0  0  0  0  0  0  0  0  0  0  0
   56.7980   27.6340   45.4290 C   0  0  0  0  0  0  0  0  0  0  0  0
   55.5380   28.2020   45.2480 O   0  0  0  0  0  0  0  0  0  0  0  0
   56.9260   26.2470   45.6140 C   0  0  0  0  0  0  0  0  0  0  0  0
   55.7810   25.4330   45.6140 C   0  0  0  0  0  0  0  0  0  0  0  0
   54.7856   25.8929   45.5261 H   0  0  0  0  0  0  0  0  0  0  0  0
   55.8940   24.0530   45.7240 C   0  0  0  0  0  0  0  0  0  0  0  0
   54.9882   23.4298   45.7590 H   0  0  0  0  0  0  0  0  0  0  0  0
   57.1480   23.4570   45.7900 C   0  0  0  0  0  0  0  0  0  0  0  0
   57.2263   22.3616   45.8524 H   0  0  0  0  0  0  0  0  0  0  0  0
   58.3200   24.2390   45.7780 C   0  0  0  0  0  0  0  0  0  0  0  0
   59.5820   23.6230   45.7200 O   0  0  0  0  0  0  0  0  0  0  0  0
   59.8850   22.4420   44.9830 C   0  0  0  0  0  0  0  0  0  0  0  0
   60.0963   21.6184   45.6809 H   0  0  0  0  0  0  0  0  0  0  0  0
   59.0263   22.1747   44.3496 H   0  0  0  0  0  0  0  0  0  0  0  0
   60.7663   22.6211   44.3496 H   0  0  0  0  0  0  0  0  0  0  0  0
   58.2140   25.6600   45.7700 C   0  0  0  0  0  0  0  0  0  0  0  0
  1  2  1  0
  2  3  1  0
  3  4  2  0
  4  5  1  0
  5  6  1  0
  5  7  1  0
  5  8  1  0
  4  9  1  0
  9 10  1  0
 10 11  1  0
 10 12  2  0
 12 13  1  0
 12 14  1  0
 14 15  2  0
 15 16  1  0
 15 17  1  0
 14 18  1  0
 18 19  1  0
 18 20  1  0
 18 21  1  0
  9 22  2  0
 22 23  1  0
 22 24  1  0
 24 25  2  0
 25 26  1  0
 25 27  1  0
 27 28  1  0
 27 29  2  0
 29 30  1  0
 29 31  1  0
 31 32  1  0
 32 33  1  0
 33 34  1  0
 33 35  1  0
 33 36  1  0
 31 37  2  0
 37  3  1  0
 37 24  1  0
M  CHG  1  23  -1
M  END
>  <UniqueID>  (33) 
31

>  <SMILES>  (33) 
C=C(C)/C=C\c1c(C)c(O)c2c(OC)cccc2c1[O-]

>  <Energy>  (33) 
60.57532926285688

>  <Genealogy>  (33) 
C=C(C)C=Cc1c(C)c(O)c2c(OC)cccc2c1[O-] (protonated)
C=C(C)/C=C\c1c(C)c(O)c2c(OC)cccc2c1[O-] (cis-trans isomerization)
C=C(C)/C=C\c1c(C)c(O)c2c(OC)cccc2c1[O-] (3D coordinates assigned)
C=C(C)/C=C\c1c(C)c(O)c2c(OC)cccc2c1[O-] (optimized conformer: 60.57532926285688 kcal/mol)

>  <smiles>  (33) 
C=C(C)C=Cc1c(C)c(O)c2c(OC)cccc2c1O

>  <score_type>  (33) 
oracle

>  <origin>  (33) 
adg

>  <m_score__min__energy>  (33) 
-9.8300000000000001

>  <m_primary>  (33) 
energy

$$$$
33:0
     RDKit          3D

 49 52  0  0  0  0  0  0  0  0999 V2000
   58.9750   32.8870   53.4470 C   0  0  0  0  0  0  0  0  0  0  0  0
   59.8400   32.8860   52.2200 C   0  0  0  0  0  0  0  0  0  0  0  0
   59.6250   33.8280   51.2030 C   0  0  0  0  0  0  0  0  0  0  0  0
   60.4500   33.8480   50.0760 C   0  0  0  0  0  0  0  0  0  0  0  0
   61.5070   32.9320   49.9560 C   0  0  0  0  0  0  0  0  0  0  0  0
   62.3420   32.9440   48.7860 N   0  0  0  0  0  0  0  0  0  0  0  0
   61.9770   33.1530   47.5020 C   0  0  0  0  0  0  0  0  0  0  0  0
   60.6200   33.2380   47.0450 N   0  0  0  0  0  0  0  0  0  0  0  0
   59.6760   32.1780   47.4250 C   0  0  0  0  0  0  0  0  0  0  0  0
   58.2840   32.4440   46.8470 C   0  0  0  0  0  0  0  0  0  0  0  0
   58.4080   32.9120   45.4600 N   0  0  0  0  0  0  0  0  0  0  0  0
   57.7940   32.1890   44.3760 C   0  0  0  0  0  0  0  0  0  0  0  0
   57.9820   32.6070   43.0460 C   0  0  0  0  0  0  0  0  0  0  0  0
   57.4050   31.8920   41.9920 C   0  0  0  0  0  0  0  0  0  0  0  0
   56.6430   30.7510   42.2530 C   0  0  0  0  0  0  0  0  0  0  0  0
   56.4580   30.3220   43.5700 C   0  0  0  0  0  0  0  0  0  0  0  0
   57.0320   31.0330   44.6270 C   0  0  0  0  0  0  0  0  0  0  0  0
   59.2580   34.0760   45.1650 C   0  0  0  0  0  0  0  0  0  0  0  0
   60.1440   34.4490   46.3620 C   0  0  0  0  0  0  0  0  0  0  0  0
   63.0430   33.2540   46.6820 N   0  0  0  0  0  0  0  0  0  0  0  0
   64.1080   33.1030   47.4540 N   0  0  0  0  0  0  0  0  0  0  0  0
   63.6910   32.9290   48.7220 C   0  0  0  0  0  0  0  0  0  0  0  0
   64.6140   32.7690   49.8890 C   0  0  0  0  0  0  0  0  0  0  0  0
   61.7360   32.0050   50.9820 C   0  0  0  0  0  0  0  0  0  0  0  0
   60.9110   31.9860   52.1100 C   0  0  0  0  0  0  0  0  0  0  0  0
   59.6114   32.8863   54.3442 H   0  0  0  0  0  0  0  0  0  0  0  0
   58.3410   33.7859   53.4479 H   0  0  0  0  0  0  0  0  0  0  0  0
   58.3389   31.9896   53.4479 H   0  0  0  0  0  0  0  0  0  0  0  0
   58.8034   34.5538   51.2934 H   0  0  0  0  0  0  0  0  0  0  0  0
   60.2707   34.5847   49.2791 H   0  0  0  0  0  0  0  0  0  0  0  0
   60.0452   31.2148   47.0430 H   0  0  0  0  0  0  0  0  0  0  0  0
   59.5995   32.1562   48.5221 H   0  0  0  0  0  0  0  0  0  0  0  0
   57.6949   31.5153   46.8688 H   0  0  0  0  0  0  0  0  0  0  0  0
   57.7794   33.2141   47.4489 H   0  0  0  0  0  0  0  0  0  0  0  0
   58.5863   33.5014   42.8340 H   0  0  0  0  0  0  0  0  0  0  0  0
   57.5515   32.2288   40.9551 H   0  0  0  0  0  0  0  0  0  0  0  0
   56.1889   30.1905   41.4226 H   0  0  0  0  0  0  0  0  0  0  0  0
   55.8591   29.4224   43.7750 H   0  0  0  0  0  0  0  0  0  0  0  0
   56.8874   30.6871   45.6611 H   0  0  0  0  0  0  0  0  0  0  0  0
   59.9017   33.8388   44.3051 H   0  0  0  0  0  0  0  0  0  0  0  0
   58.6033   34.9316   44.9427 H   0  0  0  0  0  0  0  0  0  0  0  0
   61.0090   35.0279   46.0061 H   0  0  0  0  0  0  0  0  0  0  0  0
   59.5529   35.0485   47.0699 H   0  0  0  0  0  0  0  0  0  0  0  0
   65.0950   33.1380   47.1150 H   0  0  0  0  0  0  0  0  0  0  0  0
   64.0433   32.8679   50.8241 H   0  0  0  0  0  0  0  0  0  0  0  0
   65.0852   31.7758   49.8503 H   0  0  0  0  0  0  0  0  0  0  0  0
   65.3920   33.5457   49.8503 H   0  0  0  0  0  0  0  0  0  0  0  0
   62.5678   31.2900   50.8992 H   0  0  0  0  0  0  0  0  0  0  0  0
   61.1022   31.2619   52.9157 H   0  0  0  0  0  0  0  0  0  0  0  0
  1  2  1  0
  2  3  2  0
  3  4  1  0
  4  5  2  0
  5  6  1  0
  6  7  1  0
  7  8  1  0
  8  9  1  0
  9 10  1  0
 10 11  1  0
 11 12  1  0
 12 13  2  0
 13 14  1  0
 14 15  2  0
 15 16  1  0
 16 17  2  0
 11 18  1  0
 18 19  1  0
  7 20  2  0
 20 21  1  0
 21 22  2  0
 22 23  1  0
  5 24  1  0
 24 25  2  0
 25  2  1  0
 22  6  1  0
 19  8  1  0
 17 12  1  0
  1 26  1  0
  1 27  1  0
  1 28  1  0
  3 29  1  0
  4 30  1  0
  9 31  1  0
  9 32  1  0
 10 33  1  0
 10 34  1  0
 13 35  1  0
 14 36  1  0
 15 37  1  0
 16 38  1  0
 17 39  1  0
 18 40  1  0
 18 41  1  0
 19 42  1  0
 19 43  1  0
 21 44  1  0
 23 45  1  0
 23 46  1  0
 23 47  1  0
 24 48  1  0
 25 49  1  0
M  CHG  1  21   1
M  END
>  <UniqueID>  (34) 
32

>  <SMILES>  (34) 
Cc1ccc(-n2c(N3CCN(c4ccccc4)CC3)n[nH+]c2C)cc1

>  <Energy>  (34) 
97.91064426312794

>  <Genealogy>  (34) 
Cc1ccc(-n2c(N3CCN(c4ccccc4)CC3)n[nH+]c2C)cc1 (protonated)
Cc1ccc(-n2c(N3CCN(c4ccccc4)CC3)n[nH+]c2C)cc1 (3D coordinates assigned)
Cc1ccc(-n2c(N3CCN(c4ccccc4)CC3)n[nH+]c2C)cc1 (nonaromatic ring conformer: 97.91064426312794 kcal/mol)

>  <smiles>  (34) 
Cc1ccc(-n2c(C)nnc2N2CCN(c3ccccc3)CC2)cc1

>  <score_type>  (34) 
oracle

>  <origin>  (34) 
adg

>  <m_score__min__energy>  (34) 
-7.1100000000000003

>  <m_primary>  (34) 
energy

$$$$
34:0
     RDKit          3D

 46 48  0  0  0  0  0  0  0  0999 V2000
   56.6980   20.6850   46.1430 C   0  0  0  0  0  0  0  0  0  0  0  0
   57.8290   21.3880   45.6380 O   0  0  0  0  0  0  0  0  0  0  0  0
   57.8250   22.7400   45.2620 C   0  0  0  0  0  0  0  0  0  0  0  0
   58.5160   23.7220   45.9970 C   0  0  0  0  0  0  0  0  0  0  0  0
   58.5000   25.0640   45.5930 C   0  0  0  0  0  0  0  0  0  0  0  0
   57.7520   25.4400   44.4590 C   0  0  0  0  0  0  0  0  0  0  0  0
   57.0780   24.4600   43.7180 C   0  0  0  0  0  0  0  0  0  0  0  0
   57.1050   23.1100   44.1170 C   0  0  0  0  0  0  0  0  0  0  0  0
   56.4320   22.1070   43.4010 O   0  0  0  0  0  0  0  0  0  0  0  0
   57.0730   21.0310   42.7220 C   0  0  0  0  0  0  0  0  0  0  0  0
   57.7630   26.8680   43.9660 C   0  0  0  0  0  0  0  0  0  0  0  0
   58.0980   27.8180   45.0490 N   0  0  2  0  0  0  0  0  0  0  0  0
   58.1180   29.2240   44.5750 C   0  0  0  0  0  0  0  0  0  0  0  0
   56.8340   29.9810   44.8480 C   0  0  0  0  0  0  0  0  0  0  0  0
   55.8120   29.3390   45.2050 O   0  0  0  0  0  0  0  0  0  0  0  0
   56.7140   31.3920   44.6160 N   0  0  0  0  0  0  0  0  0  0  0  0
   57.5710   32.4070   45.1470 C   0  0  0  0  0  0  0  0  0  0  0  0
   57.8300   33.5510   44.3810 C   0  0  0  0  0  0  0  0  0  0  0  0
   58.6430   34.5690   44.8870 C   0  0  0  0  0  0  0  0  0  0  0  0
   59.1850   34.4600   46.1710 C   0  0  0  0  0  0  0  0  0  0  0  0
   58.9060   33.3360   46.9540 C   0  0  0  0  0  0  0  0  0  0  0  0
   59.6230   33.1990   48.7190 Br  0  0  0  0  0  0  0  0  0  0  0  0
   58.0910   32.3160   46.4490 C   0  0  0  0  0  0  0  0  0  0  0  0
   59.3640   27.4320   45.7070 C   0  0  0  0  0  0  0  0  0  0  0  0
   59.2040   26.0940   46.4390 C   0  0  0  0  0  0  0  0  0  0  0  0
   56.7191   20.6981   47.2427 H   0  0  0  0  0  0  0  0  0  0  0  0
   55.7765   21.1697   45.7882 H   0  0  0  0  0  0  0  0  0  0  0  0
   56.7248   19.6441   45.7882 H   0  0  0  0  0  0  0  0  0  0  0  0
   59.0751   23.4326   46.8990 H   0  0  0  0  0  0  0  0  0  0  0  0
   56.5214   24.7488   42.8142 H   0  0  0  0  0  0  0  0  0  0  0  0
   57.4909   20.3294   43.4590 H   0  0  0  0  0  0  0  0  0  0  0  0
   56.3399   20.5067   42.0914 H   0  0  0  0  0  0  0  0  0  0  0  0
   57.8831   21.4261   42.0914 H   0  0  0  0  0  0  0  0  0  0  0  0
   58.5107   26.9628   43.1647 H   0  0  0  0  0  0  0  0  0  0  0  0
   56.7559   27.1109   43.5961 H   0  0  0  0  0  0  0  0  0  0  0  0
   57.3330   27.7660   45.7650 H   0  0  0  0  0  0  0  0  0  0  0  0
   58.9432   29.7481   45.0793 H   0  0  0  0  0  0  0  0  0  0  0  0
   58.2441   29.1915   43.4827 H   0  0  0  0  0  0  0  0  0  0  0  0
   57.3916   33.6485   43.3769 H   0  0  0  0  0  0  0  0  0  0  0  0
   58.8567   35.4571   44.2741 H   0  0  0  0  0  0  0  0  0  0  0  0
   59.8309   35.2585   46.5651 H   0  0  0  0  0  0  0  0  0  0  0  0
   57.8571   31.4410   47.0732 H   0  0  0  0  0  0  0  0  0  0  0  0
   60.1526   27.3361   44.9461 H   0  0  0  0  0  0  0  0  0  0  0  0
   59.6347   28.2072   46.4389 H   0  0  0  0  0  0  0  0  0  0  0  0
   60.2015   25.7134   46.7039 H   0  0  0  0  0  0  0  0  0  0  0  0
   58.5922   26.2703   47.3360 H   0  0  0  0  0  0  0  0  0  0  0  0
  1  2  1  0
  2  3  1  0
  3  4  2  0
  4  5  1  0
  5  6  2  0
  6  7  1  0
  7  8  2  0
  8  9  1  0
  9 10  1  0
  6 11  1  0
 11 12  1  0
 12 13  1  0
 13 14  1  0
 14 15  2  0
 14 16  1  0
 16 17  1  0
 17 18  2  0
 18 19  1  0
 19 20  2  0
 20 21  1  0
 21 22  1  0
 21 23  2  0
 12 24  1  0
 24 25  1  0
  8  3  1  0
 23 17  1  0
 25  5  1  0
  1 26  1  0
  1 27  1  0
  1 28  1  0
  4 29  1  0
  7 30  1  0
 10 31  1  0
 10 32  1  0
 10 33  1  0
 11 34  1  0
 11 35  1  0
 12 36  1  1
 13 37  1  0
 13 38  1  0
 18 39  1  0
 19 40  1  0
 20 41  1  0
 23 42  1  0
 24 43  1  0
 24 44  1  0
 25 45  1  0
 25 46  1  0
M  CHG  2  12   1  16  -1
M  END
>  <UniqueID>  (35) 
33

>  <SMILES>  (35) 
COc1cc2c(cc1OC)C[N@H+](CC(=O)[N-]c1cccc(Br)c1)CC2

>  <Energy>  (35) 
57.034901147122234

>  <Genealogy>  (35) 
COc1cc2c(cc1OC)C[NH+](CC(=O)[N-]c1cccc(Br)c1)CC2 (protonated)
COc1cc2c(cc1OC)C[N@H+](CC(=O)[N-]c1cccc(Br)c1)CC2 (chirality)
COc1cc2c(cc1OC)C[N@H+](CC(=O)[N-]c1cccc(Br)c1)CC2 (3D coordinates assigned)
COc1cc2c(cc1OC)C[N@H+](CC(=O)[N-]c1cccc(Br)c1)CC2 (nonaromatic ring conformer: 57.034901147122234 kcal/mol)

>  <smiles>  (35) 
COc1cc2c(cc1OC)CN(CC(=O)Nc1cccc(Br)c1)CC2

>  <score_type>  (35) 
oracle

>  <origin>  (35) 
adg

>  <m_score__min__energy>  (35) 
-7.5199999999999996

>  <m_primary>  (35) 
energy

$$$$
35:0
     RDKit          3D

 37 40  0  0  0  0  0  0  0  0999 V2000
   58.9180   33.8740   44.1350 C   0  0  0  0  0  0  0  0  0  0  0  0
   58.3650   33.0100   43.1470 O   0  0  0  0  0  0  0  0  0  0  0  0
   57.7790   31.7660   43.4220 C   0  0  0  0  0  0  0  0  0  0  0  0
   57.0120   31.0670   42.4730 C   0  0  0  0  0  0  0  0  0  0  0  0
   56.4490   29.8290   42.7970 C   0  0  0  0  0  0  0  0  0  0  0  0
   56.6440   29.2780   44.0650 C   0  0  0  0  0  0  0  0  0  0  0  0
   57.4070   29.9630   45.0270 C   0  0  0  0  0  0  0  0  0  0  0  0
   57.6160   29.3590   46.3990 C   0  0  2  0  0  0  0  0  0  0  0  0
   58.8380   29.9600   47.0720 C   0  0  0  0  0  0  0  0  0  0  0  0
   58.7730   31.2870   47.5290 C   0  0  0  0  0  0  0  0  0  0  0  0
   59.8770   31.8810   48.1420 C   0  0  0  0  0  0  0  0  0  0  0  0
   61.0600   31.1620   48.3040 C   0  0  0  0  0  0  0  0  0  0  0  0
   61.1470   29.8430   47.8560 C   0  0  0  0  0  0  0  0  0  0  0  0
   60.0460   29.2150   47.2490 C   0  0  0  0  0  0  0  0  0  0  0  0
   60.2040   27.8560   46.7610 N   0  0  0  0  0  0  0  0  0  0  0  0
   58.9450   27.2180   46.5010 C   0  0  0  0  0  0  0  0  0  0  0  0
   58.7140   25.8820   46.2370 C   0  0  0  0  0  0  0  0  0  0  0  0
   57.4460   25.7260   45.9130 O   0  0  0  0  0  0  0  0  0  0  0  0
   56.8610   26.9050   45.9390 C   0  0  0  0  0  0  0  0  0  0  0  0
   55.5240   27.1180   45.6310 O   0  0  0  0  0  0  0  0  0  0  0  0
   57.7670   27.8760   46.2980 C   0  0  0  0  0  0  0  0  0  0  0  0
   57.9710   31.2080   44.6920 C   0  0  0  0  0  0  0  0  0  0  0  0
   58.6725   33.4905   45.1363 H   0  0  0  0  0  0  0  0  0  0  0  0
   60.0108   33.9152   44.0159 H   0  0  0  0  0  0  0  0  0  0  0  0
   58.4978   34.8836   44.0159 H   0  0  0  0  0  0  0  0  0  0  0  0
   56.8545   31.4957   41.4723 H   0  0  0  0  0  0  0  0  0  0  0  0
   55.8502   29.2870   42.0502 H   0  0  0  0  0  0  0  0  0  0  0  0
   56.1985   28.3032   44.3126 H   0  0  0  0  0  0  0  0  0  0  0  0
   56.7311   29.5872   47.0113 H   0  0  0  0  0  0  0  0  0  0  0  0
   57.8441   31.8625   47.4025 H   0  0  0  0  0  0  0  0  0  0  0  0
   59.8134   32.9197   48.4984 H   0  0  0  0  0  0  0  0  0  0  0  0
   61.9278   31.6356   48.7864 H   0  0  0  0  0  0  0  0  0  0  0  0
   62.0888   29.2883   47.9795 H   0  0  0  0  0  0  0  0  0  0  0  0
   60.7530   27.8810   45.8710 H   0  0  0  0  0  0  0  0  0  0  0  0
   60.7190   27.2860   47.4710 H   0  0  0  0  0  0  0  0  0  0  0  0
   59.4650   25.0799   46.2887 H   0  0  0  0  0  0  0  0  0  0  0  0
   58.5708   31.7502   45.4378 H   0  0  0  0  0  0  0  0  0  0  0  0
  1  2  1  0
  2  3  1  0
  3  4  2  0
  4  5  1  0
  5  6  2  0
  6  7  1  0
  7  8  1  0
  8  9  1  0
  9 10  2  0
 10 11  1  0
 11 12  2  0
 12 13  1  0
 13 14  2  0
 14 15  1  0
 15 16  1  0
 16 17  2  0
 17 18  1  0
 18 19  1  0
 19 20  1  0
 19 21  2  0
  7 22  2  0
 22  3  1  0
 21  8  1  0
 14  9  1  0
 21 16  1  0
  1 23  1  0
  1 24  1  0
  1 25  1  0
  4 26  1  0
  5 27  1  0
  6 28  1  0
  8 29  1  1
 10 30  1  0
 11 31  1  0
 12 32  1  0
 13 33  1  0
 15 34  1  0
 15 35  1  0
 17 36  1  0
 22 37  1  0
M  CHG  2  15   1  20  -1
M  END
>  <UniqueID>  (36) 
34

>  <SMILES>  (36) 
COc1cccc([C@@H]2c3ccccc3[NH2+]c3coc([O-])c32)c1

>  <Energy>  (36) 
78.10475313940478

>  <Genealogy>  (36) 
COc1cccc(C2c3ccccc3[NH2+]c3coc([O-])c32)c1 (protonated)
COc1cccc([C@@H]2c3ccccc3[NH2+]c3coc([O-])c32)c1 (chirality)
COc1cccc([C@@H]2c3ccccc3[NH2+]c3coc([O-])c32)c1 (3D coordinates assigned)
COc1cccc([C@@H]2c3ccccc3[NH2+]c3coc([O-])c32)c1 (nonaromatic ring conformer: 78.10475313940478 kcal/mol)

>  <smiles>  (36) 
COc1cccc(C2c3ccccc3Nc3coc(O)c32)c1

>  <score_type>  (36) 
oracle

>  <origin>  (36) 
adg

>  <m_score__min__energy>  (36) 
-6.9900000000000002

>  <m_primary>  (36) 
energy

$$$$
36:0
     RDKit          3D

 30 30  0  0  0  0  0  0  0  0999 V2000
   60.4430   28.9040   45.0210 C   0  0  0  0  0  0  0  0  0  0  0  0
   58.9790   28.4710   45.1970 C   0  0  0  0  0  0  0  0  0  0  0  0
   58.1870   28.4560   43.9440 N   0  0  0  0  0  0  0  0  0  0  0  0
   58.1450   27.1310   43.3070 C   0  0  0  0  0  0  0  0  0  0  0  0
   56.8390   29.0470   44.0910 C   0  0  0  0  0  0  0  0  0  0  0  0
   56.9150   30.5660   43.9630 C   0  0  0  0  0  0  0  0  0  0  0  0
   57.1420   31.1390   45.2480 O   0  0  0  0  0  0  0  0  0  0  0  0
   57.8660   32.3190   45.4760 C   0  0  0  0  0  0  0  0  0  0  0  0
   57.7500   33.4450   44.6350 C   0  0  0  0  0  0  0  0  0  0  0  0
   58.4900   34.6010   44.8980 C   0  0  0  0  0  0  0  0  0  0  0  0
   59.3490   34.6490   45.9990 C   0  0  0  0  0  0  0  0  0  0  0  0
   59.4710   33.5390   46.8380 C   0  0  0  0  0  0  0  0  0  0  0  0
   58.7330   32.3780   46.5800 C   0  0  0  0  0  0  0  0  0  0  0  0
   58.9050   30.9960   47.6510 Cl  0  0  0  0  0  0  0  0  0  0  0  0
   60.9062   29.0410   46.0093 H   0  0  0  0  0  0  0  0  0  0  0  0
   60.9901   28.1292   44.4639 H   0  0  0  0  0  0  0  0  0  0  0  0
   60.4806   29.8517   44.4639 H   0  0  0  0  0  0  0  0  0  0  0  0
   58.9696   27.4562   45.6214 H   0  0  0  0  0  0  0  0  0  0  0  0
   58.5093   29.2171   45.8548 H   0  0  0  0  0  0  0  0  0  0  0  0
   58.1203   26.3517   44.0830 H   0  0  0  0  0  0  0  0  0  0  0  0
   57.2440   27.0536   42.6808 H   0  0  0  0  0  0  0  0  0  0  0  0
   59.0393   26.9967   42.6808 H   0  0  0  0  0  0  0  0  0  0  0  0
   56.1795   28.6484   43.3061 H   0  0  0  0  0  0  0  0  0  0  0  0
   56.4392   28.7890   45.0828 H   0  0  0  0  0  0  0  0  0  0  0  0
   57.7415   30.8366   43.2894 H   0  0  0  0  0  0  0  0  0  0  0  0
   55.9685   30.9478   43.5527 H   0  0  0  0  0  0  0  0  0  0  0  0
   57.0739   33.4133   43.7679 H   0  0  0  0  0  0  0  0  0  0  0  0
   58.3960   35.4750   44.2368 H   0  0  0  0  0  0  0  0  0  0  0  0
   59.9290   35.5607   46.2049 H   0  0  0  0  0  0  0  0  0  0  0  0
   60.1487   33.5773   47.7036 H   0  0  0  0  0  0  0  0  0  0  0  0
  1  2  1  0
  2  3  1  0
  3  4  1  0
  3  5  1  0
  5  6  1  0
  6  7  1  0
  7  8  1  0
  8  9  2  0
  9 10  1  0
 10 11  2  0
 11 12  1  0
 12 13  2  0
 13 14  1  0
 13  8  1  0
  1 15  1  0
  1 16  1  0
  1 17  1  0
  2 18  1  0
  2 19  1  0
  4 20  1  0
  4 21  1  0
  4 22  1  0
  5 23  1  0
  5 24  1  0
  6 25  1  0
  6 26  1  0
  9 27  1  0
 10 28  1  0
 11 29  1  0
 12 30  1  0
M  END
>  <UniqueID>  (37) 
35

>  <SMILES>  (37) 
CCN(C)CCOc1ccccc1Cl

>  <Energy>  (37) 
28.80485872100028

>  <Genealogy>  (37) 
CCN(C)CCOc1ccccc1Cl (3D coordinates assigned)
CCN(C)CCOc1ccccc1Cl (optimized conformer: 28.80485872100028 kcal/mol)

>  <smiles>  (37) 
CCN(C)CCOc1ccccc1Cl

>  <score_type>  (37) 
oracle

>  <origin>  (37) 
adg

>  <m_score__min__energy>  (37) 
-5.1299999999999999

>  <m_primary>  (37) 
energy

$$$$
37:0
     RDKit          3D

 48 50  0  0  0  0  0  0  0  0999 V2000
   60.0170   26.4300   46.0500 C   0  0  0  0  0  0  0  0  0  0  0  0
   59.3950   27.7820   46.2410 C   0  0  0  0  0  0  0  0  0  0  0  0
   60.0160   28.7320   47.0650 C   0  0  0  0  0  0  0  0  0  0  0  0
   59.4590   30.0120   47.2150 C   0  0  0  0  0  0  0  0  0  0  0  0
   60.0470   30.9950   48.0800 N   0  0  0  0  0  0  0  0  0  0  0  0
   61.3030   31.6570   47.8770 C   0  0  0  0  0  0  0  0  0  0  0  0
   62.3280   30.9770   47.5980 O   0  0  0  0  0  0  0  0  0  0  0  0
   61.3860   33.0990   47.9400 N   0  0  0  0  0  0  0  0  0  0  0  0
   62.6810   33.7790   47.7680 C   0  0  0  0  0  0  0  0  0  0  0  0
   63.5180   33.6680   49.0180 C   0  0  0  0  0  0  0  0  0  0  0  0
   63.0910   34.2670   50.2160 C   0  0  0  0  0  0  0  0  0  0  0  0
   63.8420   34.1200   51.3850 C   0  0  0  0  0  0  0  0  0  0  0  0
   65.0260   33.3790   51.3680 C   0  0  0  0  0  0  0  0  0  0  0  0
   65.4660   32.7920   50.1800 C   0  0  0  0  0  0  0  0  0  0  0  0
   64.7180   32.9370   49.0080 C   0  0  0  0  0  0  0  0  0  0  0  0
   60.1990   33.9030   48.2810 C   0  0  0  0  0  0  0  0  0  0  0  0
   59.2410   33.9720   47.1180 C   0  0  0  0  0  0  0  0  0  0  0  0
   59.6470   34.5240   45.8920 C   0  0  0  0  0  0  0  0  0  0  0  0
   58.7710   34.5410   44.8010 C   0  0  0  0  0  0  0  0  0  0  0  0
   57.4830   34.0170   44.9290 C   0  0  0  0  0  0  0  0  0  0  0  0
   57.0650   33.4800   46.1480 C   0  0  0  0  0  0  0  0  0  0  0  0
   57.9360   33.4600   47.2410 C   0  0  0  0  0  0  0  0  0  0  0  0
   58.2640   30.3260   46.5580 C   0  0  0  0  0  0  0  0  0  0  0  0
   57.6400   29.3930   45.7130 C   0  0  0  0  0  0  0  0  0  0  0  0
   56.4230   29.7350   45.0240 N   0  0  0  0  0  0  0  0  0  0  0  0
   55.5090   28.8950   44.8880 O   0  0  0  0  0  0  0  0  0  0  0  0
   56.2470   30.9960   44.5010 O   0  0  0  0  0  0  0  0  0  0  0  0
   58.2230   28.1230   45.5510 C   0  0  0  0  0  0  0  0  0  0  0  0
   60.2242   25.9797   47.0320 H   0  0  0  0  0  0  0  0  0  0  0  0
   59.3255   25.7842   45.4890 H   0  0  0  0  0  0  0  0  0  0  0  0
   60.9573   26.5349   45.4890 H   0  0  0  0  0  0  0  0  0  0  0  0
   60.9438   28.4730   47.5962 H   0  0  0  0  0  0  0  0  0  0  0  0
   63.2224   33.3159   46.9299 H   0  0  0  0  0  0  0  0  0  0  0  0
   62.4943   34.8436   47.5637 H   0  0  0  0  0  0  0  0  0  0  0  0
   62.1611   34.8543   50.2331 H   0  0  0  0  0  0  0  0  0  0  0  0
   63.5005   34.5884   52.3199 H   0  0  0  0  0  0  0  0  0  0  0  0
   65.6120   33.2579   52.2910 H   0  0  0  0  0  0  0  0  0  0  0  0
   66.4023   32.2148   50.1663 H   0  0  0  0  0  0  0  0  0  0  0  0
   65.0706   32.4766   48.0733 H   0  0  0  0  0  0  0  0  0  0  0  0
   59.6887   33.4444   49.1408 H   0  0  0  0  0  0  0  0  0  0  0  0
   60.5260   34.9241   48.5269 H   0  0  0  0  0  0  0  0  0  0  0  0
   60.6581   34.9448   45.7890 H   0  0  0  0  0  0  0  0  0  0  0  0
   59.0974   34.9678   43.8411 H   0  0  0  0  0  0  0  0  0  0  0  0
   56.7974   34.0273   44.0689 H   0  0  0  0  0  0  0  0  0  0  0  0
   56.0484   33.0719   46.2485 H   0  0  0  0  0  0  0  0  0  0  0  0
   57.5999   33.0422   48.2015 H   0  0  0  0  0  0  0  0  0  0  0  0
   57.8074   31.3159   46.7050 H   0  0  0  0  0  0  0  0  0  0  0  0
   57.7550   27.3906   44.8767 H   0  0  0  0  0  0  0  0  0  0  0  0
  1  2  1  0
  2  3  2  0
  3  4  1  0
  4  5  1  0
  5  6  1  0
  6  7  2  0
  6  8  1  0
  8  9  1  0
  9 10  1  0
 10 11  2  0
 11 12  1  0
 12 13  2  0
 13 14  1  0
 14 15  2  0
  8 16  1  0
 16 17  1  0
 17 18  2  0
 18 19  1  0
 19 20  2  0
 20 21  1  0
 21 22  2  0
  4 23  2  0
 23 24  1  0
 24 25  1  0
 25 26  2  0
 25 27  1  0
 24 28  2  0
 28  2  1  0
 15 10  1  0
 22 17  1  0
  1 29  1  0
  1 30  1  0
  1 31  1  0
  3 32  1  0
  9 33  1  0
  9 34  1  0
 11 35  1  0
 12 36  1  0
 13 37  1  0
 14 38  1  0
 15 39  1  0
 16 40  1  0
 16 41  1  0
 18 42  1  0
 19 43  1  0
 20 44  1  0
 21 45  1  0
 22 46  1  0
 23 47  1  0
 28 48  1  0
M  CHG  3   5  -1  25   1  27  -1
M  END
>  <UniqueID>  (38) 
36

>  <SMILES>  (38) 
Cc1cc([N-]C(=O)N(Cc2ccccc2)Cc2ccccc2)cc([N+](=O)[O-])c1

>  <Energy>  (38) 
50.26311561488824

>  <Genealogy>  (38) 
Cc1cc([N-]C(=O)N(Cc2ccccc2)Cc2ccccc2)cc([N+](=O)[O-])c1 (protonated)
Cc1cc([N-]C(=O)N(Cc2ccccc2)Cc2ccccc2)cc([N+](=O)[O-])c1 (3D coordinates assigned)
Cc1cc([N-]C(=O)N(Cc2ccccc2)Cc2ccccc2)cc([N+](=O)[O-])c1 (optimized conformer: 50.26311561488824 kcal/mol)

>  <smiles>  (38) 
Cc1cc(NC(=O)N(Cc2ccccc2)Cc2ccccc2)cc([N+](=O)[O-])c1

>  <score_type>  (38) 
oracle

>  <origin>  (38) 
adg

>  <m_score__min__energy>  (38) 
-10.220000000000001

>  <m_primary>  (38) 
energy

$$$$
38:0
     RDKit          3D

 35 38  0  0  0  0  0  0  0  0999 V2000
   57.1450   28.6050   45.0280 C   0  0  0  0  0  0  0  0  0  0  0  0
   58.4400   29.0870   44.8300 C   0  0  0  0  0  0  0  0  0  0  0  0
   58.6370   30.4190   44.4600 C   0  0  0  0  0  0  0  0  0  0  0  0
   57.5250   31.2570   44.2940 C   0  0  0  0  0  0  0  0  0  0  0  0
   57.6980   32.6800   43.8520 C   0  0  0  0  0  0  0  0  0  0  0  0
   57.0260   33.8400   45.0960 S   0  0  0  0  0  0  0  0  0  0  0  0
   58.5160   33.8760   46.0980 C   0  0  0  0  0  0  0  0  0  0  0  0
   59.7840   33.9540   45.4770 C   0  0  0  0  0  0  0  0  0  0  0  0
   60.9580   33.9650   46.2520 C   0  0  0  0  0  0  0  0  0  0  0  0
   60.8210   33.9030   47.6410 C   0  0  0  0  0  0  0  0  0  0  0  0
   59.5970   33.8370   48.2390 C   0  0  0  0  0  0  0  0  0  0  0  0
   58.4160   33.8270   47.5030 C   0  0  0  0  0  0  0  0  0  0  0  0
   59.7250   33.7810   49.5750 N   0  0  0  0  0  0  0  0  0  0  0  0
   61.0710   33.8170   49.7560 C   0  0  0  0  0  0  0  0  0  0  0  0
   61.7730   33.8920   48.5910 N   0  0  0  0  0  0  0  0  0  0  0  0
   63.2290   33.9460   48.3770 C   0  0  0  0  0  0  0  0  0  0  0  0
   63.7610   33.0090   47.3010 C   0  0  0  0  0  0  0  0  0  0  0  0
   63.9900   32.6890   48.7740 C   0  0  0  0  0  0  0  0  0  0  0  0
   56.2720   30.7610   44.4910 N   0  0  0  0  0  0  0  0  0  0  0  0
   56.0610   29.4670   44.8530 C   0  0  0  0  0  0  0  0  0  0  0  0
   56.9804   27.5570   45.3189 H   0  0  0  0  0  0  0  0  0  0  0  0
   59.3034   28.4190   44.9651 H   0  0  0  0  0  0  0  0  0  0  0  0
   59.6539   30.8069   44.3004 H   0  0  0  0  0  0  0  0  0  0  0  0
   58.7695   32.8850   43.7110 H   0  0  0  0  0  0  0  0  0  0  0  0
   57.1506   32.8226   42.9086 H   0  0  0  0  0  0  0  0  0  0  0  0
   59.8529   34.0064   44.3804 H   0  0  0  0  0  0  0  0  0  0  0  0
   61.9502   34.0205   45.7804 H   0  0  0  0  0  0  0  0  0  0  0  0
   57.4365   33.7823   48.0015 H   0  0  0  0  0  0  0  0  0  0  0  0
   61.5476   33.7884   50.7470 H   0  0  0  0  0  0  0  0  0  0  0  0
   63.3302   35.0194   48.5952 H   0  0  0  0  0  0  0  0  0  0  0  0
   63.0631   32.3999   46.7077 H   0  0  0  0  0  0  0  0  0  0  0  0
   64.4092   33.1243   46.4198 H   0  0  0  0  0  0  0  0  0  0  0  0
   63.4575   31.8488   49.2436 H   0  0  0  0  0  0  0  0  0  0  0  0
   64.8721   32.4775   49.3962 H   0  0  0  0  0  0  0  0  0  0  0  0
   55.0358   29.0996   45.0079 H   0  0  0  0  0  0  0  0  0  0  0  0
  1  2  2  0
  2  3  1  0
  3  4  2  0
  4  5  1  0
  5  6  1  0
  6  7  1  0
  7  8  2  0
  8  9  1  0
  9 10  2  0
 10 11  1  0
 11 12  2  0
 11 13  1  0
 13 14  2  0
 14 15  1  0
 15 16  1  0
 16 17  1  0
 17 18  1  0
  4 19  1  0
 19 20  2  0
 20  1  1  0
 12  7  1  0
 18 16  1  0
 15 10  1  0
  1 21  1  0
  2 22  1  0
  3 23  1  0
  5 24  1  0
  5 25  1  0
  8 26  1  0
  9 27  1  0
 12 28  1  0
 14 29  1  0
 16 30  1  0
 17 31  1  0
 17 32  1  0
 18 33  1  0
 18 34  1  0
 20 35  1  0
M  END
>  <UniqueID>  (39) 
37

>  <SMILES>  (39) 
c1ccc(CSc2ccc3c(c2)ncn3C2CC2)nc1

>  <Energy>  (39) 
338.65385904264895

>  <Genealogy>  (39) 
c1ccc(CSc2ccc3c(c2)ncn3C2CC2)nc1 (3D coordinates assigned)
c1ccc(CSc2ccc3c(c2)ncn3C2CC2)nc1 (nonaromatic ring conformer: 338.65385904264895 kcal/mol)

>  <smiles>  (39) 
c1ccc(CSc2ccc3c(c2)ncn3C2CC2)nc1

>  <score_type>  (39) 
oracle

>  <origin>  (39) 
adg

>  <m_score__min__energy>  (39) 
-7.7000000000000002

>  <m_primary>  (39) 
energy

$$$$
39:0
     RDKit          3D

 50 53  0  0  0  0  0  0  0  0999 V2000
   55.8950   29.4600   44.6860 C   0  0  0  0  0  0  0  0  0  0  0  0
   56.6540   30.5930   44.0630 C   0  0  0  0  0  0  0  0  0  0  0  0
   56.9530   30.5880   42.6910 C   0  0  0  0  0  0  0  0  0  0  0  0
   57.6680   31.6450   42.1240 C   0  0  0  0  0  0  0  0  0  0  0  0
   58.1080   32.7040   42.9220 C   0  0  0  0  0  0  0  0  0  0  0  0
   57.8350   32.7130   44.2980 C   0  0  0  0  0  0  0  0  0  0  0  0
   58.3990   33.7980   45.1720 C   0  0  0  0  0  0  0  0  0  0  0  0
   58.0110   33.5320   46.9370 S   0  0  0  0  0  0  0  0  0  0  0  0
   59.7180   33.5390   47.5070 C   0  0  0  0  0  0  0  0  0  0  0  0
   60.1600   34.3990   48.4520 N   0  0  0  0  0  0  0  0  0  0  0  0
   61.3950   33.9710   48.7420 C   0  0  0  0  0  0  0  0  0  0  0  0
   62.2640   34.4750   49.7080 C   0  0  0  0  0  0  0  0  0  0  0  0
   63.4820   33.8050   49.9060 C   0  0  0  0  0  0  0  0  0  0  0  0
   63.7890   32.6490   49.1580 C   0  0  0  0  0  0  0  0  0  0  0  0
   62.8840   32.1550   48.2000 C   0  0  0  0  0  0  0  0  0  0  0  0
   61.6880   32.8590   47.9960 C   0  0  0  0  0  0  0  0  0  0  0  0
   60.6380   32.5880   47.1780 N   0  0  0  0  0  0  0  0  0  0  0  0
   60.3540   31.3910   46.3660 C   0  0  0  0  0  0  0  0  0  0  0  0
   59.4860   30.3810   47.0620 C   0  0  0  0  0  0  0  0  0  0  0  0
   59.0710   30.6410   48.2240 O   0  0  0  0  0  0  0  0  0  0  0  0
   59.1100   29.1420   46.4370 N   0  0  0  0  0  0  0  0  0  0  0  0
   58.3260   28.1250   47.1170 C   0  0  0  0  0  0  0  0  0  0  0  0
   57.9660   27.0990   46.0520 C   0  0  0  0  0  0  0  0  0  0  0  0
   58.8870   27.3780   44.8670 C   0  0  0  0  0  0  0  0  0  0  0  0
   59.4060   28.7980   45.0590 C   0  0  0  0  0  0  0  0  0  0  0  0
   57.1010   31.6560   44.8630 C   0  0  0  0  0  0  0  0  0  0  0  0
   55.9492   29.5409   45.7817 H   0  0  0  0  0  0  0  0  0  0  0  0
   54.8433   29.5038   44.3667 H   0  0  0  0  0  0  0  0  0  0  0  0
   56.3356   28.5040   44.3667 H   0  0  0  0  0  0  0  0  0  0  0  0
   56.6230   29.7489   42.0610 H   0  0  0  0  0  0  0  0  0  0  0  0
   57.8855   31.6438   41.0457 H   0  0  0  0  0  0  0  0  0  0  0  0
   58.6707   33.5339   42.4696 H   0  0  0  0  0  0  0  0  0  0  0  0
   59.4918   33.8202   45.0488 H   0  0  0  0  0  0  0  0  0  0  0  0
   57.9426   34.7507   44.8653 H   0  0  0  0  0  0  0  0  0  0  0  0
   59.6330   35.1790   48.9060 H   0  0  0  0  0  0  0  0  0  0  0  0
   62.0044   35.3679   50.2957 H   0  0  0  0  0  0  0  0  0  0  0  0
   64.2004   34.1834   50.6481 H   0  0  0  0  0  0  0  0  0  0  0  0
   64.7440   32.1292   49.3249 H   0  0  0  0  0  0  0  0  0  0  0  0
   63.1082   31.2428   47.6275 H   0  0  0  0  0  0  0  0  0  0  0  0
   59.8454   31.7094   45.4441 H   0  0  0  0  0  0  0  0  0  0  0  0
   61.3188   30.9021   46.1657 H   0  0  0  0  0  0  0  0  0  0  0  0
   58.9180   27.6557   47.9165 H   0  0  0  0  0  0  0  0  0  0  0  0
   57.4283   28.5527   47.5874 H   0  0  0  0  0  0  0  0  0  0  0  0
   58.1311   26.0801   46.4322 H   0  0  0  0  0  0  0  0  0  0  0  0
   56.9069   27.1733   45.7641 H   0  0  0  0  0  0  0  0  0  0  0  0
   59.7237   26.6639   44.8576 H   0  0  0  0  0  0  0  0  0  0  0  0
   58.3542   27.2712   43.9106 H   0  0  0  0  0  0  0  0  0  0  0  0
   60.4903   28.8376   44.8784 H   0  0  0  0  0  0  0  0  0  0  0  0
   58.9354   29.5005   44.3554 H   0  0  0  0  0  0  0  0  0  0  0  0
   56.8753   31.6619   45.9396 H   0  0  0  0  0  0  0  0  0  0  0  0
  1  2  1  0
  2  3  2  0
  3  4  1  0
  4  5  2  0
  5  6  1  0
  6  7  1  0
  7  8  1  0
  8  9  1  0
  9 10  2  0
 10 11  1  0
 11 12  2  0
 12 13  1  0
 13 14  2  0
 14 15  1  0
 15 16  2  0
 16 17  1  0
 17 18  1  0
 18 19  1  0
 19 20  2  0
 19 21  1  0
 21 22  1  0
 22 23  1  0
 23 24  1  0
 24 25  1  0
  6 26  2  0
 26  2  1  0
 17  9  1  0
 25 21  1  0
 16 11  1  0
  1 27  1  0
  1 28  1  0
  1 29  1  0
  3 30  1  0
  4 31  1  0
  5 32  1  0
  7 33  1  0
  7 34  1  0
 10 35  1  0
 12 36  1  0
 13 37  1  0
 14 38  1  0
 15 39  1  0
 18 40  1  0
 18 41  1  0
 22 42  1  0
 22 43  1  0
 23 44  1  0
 23 45  1  0
 24 46  1  0
 24 47  1  0
 25 48  1  0
 25 49  1  0
 26 50  1  0
M  CHG  1  10   1
M  END
>  <UniqueID>  (40) 
38

>  <SMILES>  (40) 
Cc1cccc(CSc2[nH+]c3ccccc3n2CC(=O)N2CCCC2)c1

>  <Energy>  (40) 
85.2501606290485

>  <Genealogy>  (40) 
Cc1cccc(CSc2[nH+]c3ccccc3n2CC(=O)N2CCCC2)c1 (protonated)
Cc1cccc(CSc2[nH+]c3ccccc3n2CC(=O)N2CCCC2)c1 (3D coordinates assigned)
Cc1cccc(CSc2[nH+]c3ccccc3n2CC(=O)N2CCCC2)c1 (nonaromatic ring conformer: 85.2501606290485 kcal/mol)

>  <smiles>  (40) 
Cc1cccc(CSc2nc3ccccc3n2CC(=O)N2CCCC2)c1

>  <score_type>  (40) 
oracle

>  <origin>  (40) 
adg

>  <m_score__min__energy>  (40) 
-6.8300000000000001

>  <m_primary>  (40) 
energy

$$$$
40:0
     RDKit          3D

 54 57  0  0  0  0  0  0  0  0999 V2000
   54.9140   24.7790   45.6250 C   0  0  0  0  0  0  0  0  0  0  0  0
   55.3360   26.0860   45.9940 O   0  0  0  0  0  0  0  0  0  0  0  0
   56.6680   26.5290   45.9700 C   0  0  0  0  0  0  0  0  0  0  0  0
   57.6820   25.5740   45.8450 C   0  0  0  0  0  0  0  0  0  0  0  0
   59.0210   25.9650   45.8040 C   0  0  0  0  0  0  0  0  0  0  0  0
   59.3610   27.3160   45.8970 C   0  0  0  0  0  0  0  0  0  0  0  0
   58.3630   28.2950   46.0420 C   0  0  0  0  0  0  0  0  0  0  0  0
   58.7460   29.7260   46.1460 C   0  0  0  0  0  0  0  0  0  0  0  0
   59.8930   30.1320   46.8480 C   0  0  0  0  0  0  0  0  0  0  0  0
   60.2290   31.4910   46.9280 C   0  0  0  0  0  0  0  0  0  0  0  0
   61.4270   31.8720   47.7080 C   0  0  0  0  0  0  0  0  0  0  0  0
   62.5450   31.9060   47.1250 O   0  0  0  0  0  0  0  0  0  0  0  0
   61.3400   32.1660   49.1170 N   0  0  0  0  0  0  0  0  0  0  0  0
   62.4020   32.9430   49.7660 C   0  0  0  0  0  0  0  0  0  0  0  0
   61.8470   33.8380   50.8960 C   0  0  0  0  0  0  0  0  0  0  0  0
   60.5600   33.3590   51.4680 N   0  0  0  0  0  0  0  0  0  0  0  0
   60.3710   33.8360   52.8560 C   0  0  0  0  0  0  0  0  0  0  0  0
   58.8840   34.0040   53.1870 C   0  0  0  0  0  0  0  0  0  0  0  0
   58.2320   34.6040   52.1010 O   0  0  0  0  0  0  0  0  0  0  0  0
   60.4550   31.8910   51.4080 C   0  0  0  0  0  0  0  0  0  0  0  0
   60.3490   31.4630   49.9440 C   0  0  0  0  0  0  0  0  0  0  0  0
   59.4240   32.4430   46.2600 C   0  0  0  0  0  0  0  0  0  0  0  0
   59.7310   33.8210   46.2410 C   0  0  0  0  0  0  0  0  0  0  0  0
   58.8990   34.7210   45.5690 C   0  0  0  0  0  0  0  0  0  0  0  0
   57.7630   34.2620   44.8990 C   0  0  0  0  0  0  0  0  0  0  0  0
   57.4560   32.9010   44.8910 C   0  0  0  0  0  0  0  0  0  0  0  0
   58.2810   31.9890   45.5600 C   0  0  0  0  0  0  0  0  0  0  0  0
   57.9820   30.6650   45.5250 N   0  0  0  0  0  0  0  0  0  0  0  0
   57.0120   27.8920   46.0650 C   0  0  0  0  0  0  0  0  0  0  0  0
   54.7225   24.1859   46.5314 H   0  0  0  0  0  0  0  0  0  0  0  0
   53.9918   24.8460   45.0291 H   0  0  0  0  0  0  0  0  0  0  0  0
   55.7012   24.2941   45.0291 H   0  0  0  0  0  0  0  0  0  0  0  0
   57.4223   24.5072   45.7785 H   0  0  0  0  0  0  0  0  0  0  0  0
   59.8108   25.2067   45.6981 H   0  0  0  0  0  0  0  0  0  0  0  0
   60.4184   27.6166   45.8565 H   0  0  0  0  0  0  0  0  0  0  0  0
   60.5303   29.3806   47.3371 H   0  0  0  0  0  0  0  0  0  0  0  0
   63.1418   32.2491   50.1918 H   0  0  0  0  0  0  0  0  0  0  0  0
   62.8621   33.5940   49.0081 H   0  0  0  0  0  0  0  0  0  0  0  0
   62.5920   33.8769   51.7044 H   0  0  0  0  0  0  0  0  0  0  0  0
   61.6514   34.8259   50.4536 H   0  0  0  0  0  0  0  0  0  0  0  0
   60.8126   33.1054   53.5497 H   0  0  0  0  0  0  0  0  0  0  0  0
   60.8631   34.8145   52.9580 H   0  0  0  0  0  0  0  0  0  0  0  0
   58.4379   33.0180   53.3842 H   0  0  0  0  0  0  0  0  0  0  0  0
   58.7747   34.6389   54.0786 H   0  0  0  0  0  0  0  0  0  0  0  0
   58.9450   34.8520   51.4560 H   0  0  0  0  0  0  0  0  0  0  0  0
   61.3487   31.4378   51.8617 H   0  0  0  0  0  0  0  0  0  0  0  0
   59.5638   31.5576   51.9599 H   0  0  0  0  0  0  0  0  0  0  0  0
   60.5243   30.3794   49.8723 H   0  0  0  0  0  0  0  0  0  0  0  0
   59.3433   31.7156   49.5768 H   0  0  0  0  0  0  0  0  0  0  0  0
   60.6298   34.1883   46.7579 H   0  0  0  0  0  0  0  0  0  0  0  0
   59.1399   35.7943   45.5679 H   0  0  0  0  0  0  0  0  0  0  0  0
   57.1086   34.9752   44.3763 H   0  0  0  0  0  0  0  0  0  0  0  0
   56.5630   32.5435   44.3574 H   0  0  0  0  0  0  0  0  0  0  0  0
   56.2192   28.6488   46.1580 H   0  0  0  0  0  0  0  0  0  0  0  0
  1  2  1  0
  2  3  1  0
  3  4  2  0
  4  5  1  0
  5  6  2  0
  6  7  1  0
  7  8  1  0
  8  9  2  0
  9 10  1  0
 10 11  1  0
 11 12  2  0
 11 13  1  0
 13 14  1  0
 14 15  1  0
 15 16  1  0
 16 17  1  0
 17 18  1  0
 18 19  1  0
 16 20  1  0
 20 21  1  0
 10 22  2  0
 22 23  1  0
 23 24  2  0
 24 25  1  0
 25 26  2  0
 26 27  1  0
 27 28  2  0
  7 29  2  0
 29  3  1  0
 28  8  1  0
 21 13  1  0
 27 22  1  0
  1 30  1  0
  1 31  1  0
  1 32  1  0
  4 33  1  0
  5 34  1  0
  6 35  1  0
  9 36  1  0
 14 37  1  0
 14 38  1  0
 15 39  1  0
 15 40  1  0
 17 41  1  0
 17 42  1  0
 18 43  1  0
 18 44  1  0
 19 45  1  0
 20 46  1  0
 20 47  1  0
 21 48  1  0
 21 49  1  0
 23 50  1  0
 24 51  1  0
 25 52  1  0
 26 53  1  0
 29 54  1  0
M  END
>  <UniqueID>  (41) 
39

>  <SMILES>  (41) 
COc1cccc(-c2cc(C(=O)N3CCN(CCO)CC3)c3ccccc3n2)c1

>  <Energy>  (41) 
74.86258510155419

>  <Genealogy>  (41) 
COc1cccc(-c2cc(C(=O)N3CCN(CCO)CC3)c3ccccc3n2)c1 (3D coordinates assigned)
COc1cccc(-c2cc(C(=O)N3CCN(CCO)CC3)c3ccccc3n2)c1 (nonaromatic ring conformer: 74.86258510155419 kcal/mol)

>  <smiles>  (41) 
COc1cccc(-c2cc(C(=O)N3CCN(CCO)CC3)c3ccccc3n2)c1

>  <score_type>  (41) 
oracle

>  <origin>  (41) 
adg

>  <m_score__min__energy>  (41) 
-9.3900000000000006

>  <m_primary>  (41) 
energy

$$$$
41:0
     RDKit          3D

 64 68  0  0  0  0  0  0  0  0999 V2000
   53.3130   22.5260   46.6610 C   0  0  0  0  0  0  0  0  0  0  0  0
   52.6750   23.4150   45.5950 C   0  0  0  0  0  0  0  0  0  0  0  0
   53.6180   23.6850   44.4120 C   0  0  0  0  0  0  0  0  0  0  0  0
   54.9670   24.0770   44.8730 N   0  0  0  0  0  0  0  0  0  0  0  0
   55.1370   25.2190   45.6240 C   0  0  0  0  0  0  0  0  0  0  0  0
   54.1640   25.9640   45.9240 O   0  0  0  0  0  0  0  0  0  0  0  0
   56.4100   25.5350   46.0610 C   0  0  0  0  0  0  0  0  0  0  0  0
   56.8050   26.5630   46.8250 N   0  0  0  0  0  0  0  0  0  0  0  0
   58.1400   26.3330   46.9480 C   0  0  0  0  0  0  0  0  0  0  0  0
   59.0270   27.2000   47.7340 C   0  0  0  0  0  0  0  0  0  0  0  0
   60.1920   26.8000   48.3800 C   0  0  0  0  0  0  0  0  0  0  0  0
   60.8580   27.8510   49.0210 C   0  0  0  0  0  0  0  0  0  0  0  0
   60.2130   29.0720   48.8770 C   0  0  0  0  0  0  0  0  0  0  0  0
   60.7920   30.6030   49.5120 S   0  0  0  0  0  0  0  0  0  0  0  0
   62.1840   30.4080   50.0420 O   0  0  0  0  0  0  0  0  0  0  0  0
   60.8230   31.6120   48.3990 O   0  0  0  0  0  0  0  0  0  0  0  0
   59.7490   31.1770   50.7940 N   0  0  0  0  0  0  0  0  0  0  0  0
   58.5070   31.7380   50.2110 C   0  0  0  0  0  0  0  0  0  0  0  0
   57.3810   31.7730   51.2480 C   0  0  0  0  0  0  0  0  0  0  0  0
   57.0090   30.4070   51.6890 N   0  0  0  0  0  0  0  0  0  0  0  0
   56.3700   30.4450   53.0200 C   0  0  0  0  0  0  0  0  0  0  0  0
   54.8700   30.5160   52.8880 C   0  0  0  0  0  0  0  0  0  0  0  0
   54.2890   30.8220   51.6460 C   0  0  0  0  0  0  0  0  0  0  0  0
   52.8980   30.8850   51.5150 C   0  0  0  0  0  0  0  0  0  0  0  0
   52.0780   30.6360   52.6200 C   0  0  0  0  0  0  0  0  0  0  0  0
   50.7310   30.6940   52.4880 F   0  0  0  0  0  0  0  0  0  0  0  0
   52.6490   30.3290   53.8590 C   0  0  0  0  0  0  0  0  0  0  0  0
   54.0400   30.2700   53.9960 C   0  0  0  0  0  0  0  0  0  0  0  0
   58.1300   29.4360   51.6260 C   0  0  0  0  0  0  0  0  0  0  0  0
   59.5010   30.1120   51.8020 C   0  0  0  0  0  0  0  0  0  0  0  0
   58.8200   28.8550   47.9580 S   0  0  0  0  0  0  0  0  0  0  0  0
   58.5840   25.2200   46.3060 N   0  0  0  0  0  0  0  0  0  0  0  0
   57.4560   24.7430   45.7530 C   0  0  0  0  0  0  0  0  0  0  0  0
   57.3230   23.6180   45.0000 N   0  0  0  0  0  0  0  0  0  0  0  0
   58.4800   22.7570   44.7190 C   0  0  0  0  0  0  0  0  0  0  0  0
   56.0580   23.2740   44.5730 C   0  0  0  0  0  0  0  0  0  0  0  0
   55.8930   22.2140   43.9060 O   0  0  0  0  0  0  0  0  0  0  0  0
   53.0442   22.9006   47.6597 H   0  0  0  0  0  0  0  0  0  0  0  0
   52.9474   21.4950   46.5454 H   0  0  0  0  0  0  0  0  0  0  0  0
   54.4068   22.5423   46.5454 H   0  0  0  0  0  0  0  0  0  0  0  0
   51.7690   22.9183   45.2176 H   0  0  0  0  0  0  0  0  0  0  0  0
   52.4409   24.3825   46.0632 H   0  0  0  0  0  0  0  0  0  0  0  0
   53.6993   22.7719   43.8041 H   0  0  0  0  0  0  0  0  0  0  0  0
   53.2011   24.5134   43.8204 H   0  0  0  0  0  0  0  0  0  0  0  0
   60.5539   25.7612   48.3865 H   0  0  0  0  0  0  0  0  0  0  0  0
   61.7959   27.7228   49.5812 H   0  0  0  0  0  0  0  0  0  0  0  0
   60.2580   31.9600   51.2690 H   0  0  0  0  0  0  0  0  0  0  0  0
   58.7048   32.7616   49.8601 H   0  0  0  0  0  0  0  0  0  0  0  0
   58.1925   31.0976   49.3738 H   0  0  0  0  0  0  0  0  0  0  0  0
   57.7164   32.3520   52.1211 H   0  0  0  0  0  0  0  0  0  0  0  0
   56.4988   32.2398   50.7855 H   0  0  0  0  0  0  0  0  0  0  0  0
   56.6410   29.5360   53.5770 H   0  0  0  0  0  0  0  0  0  0  0  0
   56.7210   31.3392   53.5559 H   0  0  0  0  0  0  0  0  0  0  0  0
   54.9307   31.0128   50.7731 H   0  0  0  0  0  0  0  0  0  0  0  0
   52.4485   31.1307   50.5416 H   0  0  0  0  0  0  0  0  0  0  0  0
   52.0031   30.1335   54.7277 H   0  0  0  0  0  0  0  0  0  0  0  0
   54.4855   30.0306   54.9728 H   0  0  0  0  0  0  0  0  0  0  0  0
   57.9979   28.6914   52.4248 H   0  0  0  0  0  0  0  0  0  0  0  0
   58.1122   28.9667   50.6313 H   0  0  0  0  0  0  0  0  0  0  0  0
   59.5464   30.5599   52.8057 H   0  0  0  0  0  0  0  0  0  0  0  0
   60.2724   29.3396   51.6662 H   0  0  0  0  0  0  0  0  0  0  0  0
   58.9278   22.4237   45.6668 H   0  0  0  0  0  0  0  0  0  0  0  0
   58.1530   21.8808   44.1399 H   0  0  0  0  0  0  0  0  0  0  0  0
   59.2254   23.3219   44.1399 H   0  0  0  0  0  0  0  0  0  0  0  0
  1  2  1  0
  2  3  1  0
  3  4  1  0
  4  5  1  0
  5  6  2  0
  5  7  1  0
  7  8  1  0
  8  9  2  0
  9 10  1  0
 10 11  2  0
 11 12  1  0
 12 13  2  0
 13 14  1  0
 14 15  2  0
 14 16  2  0
 14 17  1  0
 17 18  1  0
 18 19  1  0
 19 20  1  0
 20 21  1  0
 21 22  1  0
 22 23  2  0
 23 24  1  0
 24 25  2  0
 25 26  1  0
 25 27  1  0
 27 28  2  0
 20 29  1  0
 29 30  1  0
 13 31  1  0
  9 32  1  0
 32 33  1  0
 33 34  1  0
 34 35  1  0
 34 36  1  0
 36 37  2  0
 36  4  1  0
 33  7  2  0
 31 10  1  0
 30 17  1  0
 28 22  1  0
  1 38  1  0
  1 39  1  0
  1 40  1  0
  2 41  1  0
  2 42  1  0
  3 43  1  0
  3 44  1  0
 11 45  1  0
 12 46  1  0
 17 47  1  0
 18 48  1  0
 18 49  1  0
 19 50  1  0
 19 51  1  0
 21 52  1  0
 21 53  1  0
 23 54  1  0
 24 55  1  0
 27 56  1  0
 28 57  1  0
 29 58  1  0
 29 59  1  0
 30 60  1  0
 30 61  1  0
 35 62  1  0
 35 63  1  0
 35 64  1  0
M  CHG  2  17   1  32  -1
M  END
>  <UniqueID>  (42) 
40

>  <SMILES>  (42) 
CCCn1c(=O)c2nc(-c3ccc(S(=O)(=O)[NH+]4CCN(Cc5ccc(F)cc5)CC4)s3)[n-]c2n(C)c1=O

>  <Energy>  (42) 
143.405527987083

>  <Genealogy>  (42) 
CCCn1c(=O)c2nc(-c3ccc(S(=O)(=O)[NH+]4CCN(Cc5ccc(F)cc5)CC4)s3)[n-]c2n(C)c1=O (protonated)
CCCn1c(=O)c2nc(-c3ccc(S(=O)(=O)[NH+]4CCN(Cc5ccc(F)cc5)CC4)s3)[n-]c2n(C)c1=O (3D coordinates assigned)
CCCn1c(=O)c2nc(-c3ccc(S(=O)(=O)[NH+]4CCN(Cc5ccc(F)cc5)CC4)s3)[n-]c2n(C)c1=O (nonaromatic ring conformer: 143.405527987083 kcal/mol)

>  <smiles>  (42) 
CCCn1c(=O)c2nc(-c3ccc(S(=O)(=O)N4CCN(Cc5ccc(F)cc5)CC4)s3)[nH]c2n(C)c1=O

>  <score_type>  (42) 
oracle

>  <origin>  (42) 
adg

>  <m_score__min__energy>  (42) 
-9.0999999999999996

>  <m_primary>  (42) 
energy

$$$$
42:0
     RDKit          3D

 50 53  0  0  0  0  0  0  0  0999 V2000
   56.7570   20.7090   42.9860 C   0  0  0  0  0  0  0  0  0  0  0  0
   55.9250   21.8000   43.3670 O   0  0  0  0  0  0  0  0  0  0  0  0
   56.3620   22.9120   44.1010 C   0  0  0  0  0  0  0  0  0  0  0  0
   55.4780   23.8990   44.5740 C   0  0  0  0  0  0  0  0  0  0  0  0
   55.9630   24.9900   45.3020 C   0  0  0  0  0  0  0  0  0  0  0  0
   57.3380   25.1220   45.5640 C   0  0  0  0  0  0  0  0  0  0  0  0
   57.8300   26.2830   46.3430 C   0  0  0  0  0  0  0  0  0  0  0  0
   57.0170   27.1970   46.6510 O   0  0  0  0  0  0  0  0  0  0  0  0
   59.2070   26.3780   46.7540 N   0  0  0  0  0  0  0  0  0  0  0  0
   59.7650   27.5220   47.4230 C   0  0  0  0  0  0  0  0  0  0  0  0
   60.0290   27.5050   48.8150 C   0  0  0  0  0  0  0  0  0  0  0  0
   60.5500   28.6390   49.4610 C   0  0  0  0  0  0  0  0  0  0  0  0
   60.7900   29.7880   48.7110 C   0  0  0  0  0  0  0  0  0  0  0  0
   61.2850   30.9460   49.2180 N   0  0  0  0  0  0  0  0  0  0  0  0
   61.4020   31.8830   48.2470 C   0  0  0  0  0  0  0  0  0  0  0  0
   62.0050   33.5410   48.5510 S   0  0  0  0  0  0  0  0  0  0  0  0
   60.4190   34.1730   49.2040 C   0  0  0  0  0  0  0  0  0  0  0  0
   59.2550   33.4720   48.5650 C   0  0  0  0  0  0  0  0  0  0  0  0
   58.5710   32.6740   49.2610 O   0  0  0  0  0  0  0  0  0  0  0  0
   58.8920   33.7120   47.1930 N   0  0  0  0  0  0  0  0  0  0  0  0
   59.6490   34.5470   46.2750 C   0  0  0  0  0  0  0  0  0  0  0  0
   58.8200   34.6090   44.9980 C   0  0  0  0  0  0  0  0  0  0  0  0
   57.8200   33.4590   45.0930 C   0  0  0  0  0  0  0  0  0  0  0  0
   57.7260   33.1070   46.5720 C   0  0  0  0  0  0  0  0  0  0  0  0
   60.8850   31.3240   46.7350 S   0  0  0  0  0  0  0  0  0  0  0  0
   60.5100   29.8090   47.3540 C   0  0  0  0  0  0  0  0  0  0  0  0
   59.9920   28.7020   46.6890 C   0  0  0  0  0  0  0  0  0  0  0  0
   58.2160   24.1250   45.0990 C   0  0  0  0  0  0  0  0  0  0  0  0
   57.7280   23.0340   44.3730 C   0  0  0  0  0  0  0  0  0  0  0  0
   57.1395   20.2074   43.8872 H   0  0  0  0  0  0  0  0  0  0  0  0
   56.1729   19.9938   42.3883 H   0  0  0  0  0  0  0  0  0  0  0  0
   57.6013   21.0830   42.3883 H   0  0  0  0  0  0  0  0  0  0  0  0
   54.4005   23.8121   44.3703 H   0  0  0  0  0  0  0  0  0  0  0  0
   55.2621   25.7522   45.6732 H   0  0  0  0  0  0  0  0  0  0  0  0
   59.8390   25.5590   46.6170 H   0  0  0  0  0  0  0  0  0  0  0  0
   59.8238   26.5940   49.3964 H   0  0  0  0  0  0  0  0  0  0  0  0
   60.7645   28.6197   50.5397 H   0  0  0  0  0  0  0  0  0  0  0  0
   60.3860   34.0070   50.2909 H   0  0  0  0  0  0  0  0  0  0  0  0
   60.3494   35.2467   48.9752 H   0  0  0  0  0  0  0  0  0  0  0  0
   59.7834   35.5549   46.6947 H   0  0  0  0  0  0  0  0  0  0  0  0
   60.6535   34.1394   46.0885 H   0  0  0  0  0  0  0  0  0  0  0  0
   58.2914   35.5714   44.9312 H   0  0  0  0  0  0  0  0  0  0  0  0
   59.4515   34.5225   44.1015 H   0  0  0  0  0  0  0  0  0  0  0  0
   56.8375   33.7741   44.7117 H   0  0  0  0  0  0  0  0  0  0  0  0
   58.1406   32.5950   44.4923 H   0  0  0  0  0  0  0  0  0  0  0  0
   56.8029   33.5181   47.0065 H   0  0  0  0  0  0  0  0  0  0  0  0
   57.6994   32.0188   46.7303 H   0  0  0  0  0  0  0  0  0  0  0  0
   59.7649   28.7477   45.6137 H   0  0  0  0  0  0  0  0  0  0  0  0
   59.2930   24.2045   45.3080 H   0  0  0  0  0  0  0  0  0  0  0  0
   58.4259   22.2640   44.0123 H   0  0  0  0  0  0  0  0  0  0  0  0
  1  2  1  0
  2  3  1  0
  3  4  2  0
  4  5  1  0
  5  6  2  0
  6  7  1  0
  7  8  2  0
  7  9  1  0
  9 10  1  0
 10 11  2  0
 11 12  1  0
 12 13  2  0
 13 14  1  0
 14 15  2  0
 15 16  1  0
 16 17  1  0
 17 18  1  0
 18 19  2  0
 18 20  1  0
 20 21  1  0
 21 22  1  0
 22 23  1  0
 23 24  1  0
 15 25  1  0
 25 26  1  0
 26 27  2  0
  6 28  1  0
 28 29  2  0
 29  3  1  0
 27 10  1  0
 26 13  1  0
 24 20  1  0
  1 30  1  0
  1 31  1  0
  1 32  1  0
  4 33  1  0
  5 34  1  0
  9 35  1  0
 11 36  1  0
 12 37  1  0
 17 38  1  0
 17 39  1  0
 21 40  1  0
 21 41  1  0
 22 42  1  0
 22 43  1  0
 23 44  1  0
 23 45  1  0
 24 46  1  0
 24 47  1  0
 27 48  1  0
 28 49  1  0
 29 50  1  0
M  END
>  <UniqueID>  (43) 
41

>  <SMILES>  (43) 
COc1ccc(C(=O)Nc2ccc3nc(SCC(=O)N4CCCC4)sc3c2)cc1

>  <Energy>  (43) 
87.90851612789962

>  <Genealogy>  (43) 
COc1ccc(C(=O)Nc2ccc3nc(SCC(=O)N4CCCC4)sc3c2)cc1 (3D coordinates assigned)
COc1ccc(C(=O)Nc2ccc3nc(SCC(=O)N4CCCC4)sc3c2)cc1 (nonaromatic ring conformer: 87.90851612789962 kcal/mol)

>  <smiles>  (43) 
COc1ccc(C(=O)Nc2ccc3nc(SCC(=O)N4CCCC4)sc3c2)cc1

>  <score_type>  (43) 
oracle

>  <origin>  (43) 
adg

>  <m_score__min__energy>  (43) 
-9.3000000000000007

>  <m_primary>  (43) 
energy

$$$$
43:0
     RDKit          3D

 40 42  0  0  0  0  0  0  0  0999 V2000
   56.6170   31.9720   52.3710 C   0  0  0  0  0  0  0  0  0  0  0  0
   57.6790   31.4120   51.4790 C   0  0  0  0  0  0  0  0  0  0  0  0
   58.4680   32.2620   50.7010 C   0  0  0  0  0  0  0  0  0  0  0  0
   59.4570   31.7050   49.8720 C   0  0  0  0  0  0  0  0  0  0  0  0
   60.3180   32.5750   48.9680 C   0  0  0  0  0  0  0  0  0  0  0  0
   60.8100   31.7780   47.7380 C   0  0  0  0  0  0  0  0  0  0  0  0
   59.7260   31.6340   46.6570 C   0  0  0  0  0  0  0  0  0  0  0  0
   58.9850   32.8900   46.4590 N   0  0  0  0  0  0  0  0  0  0  0  0
   57.6610   32.8540   45.8900 C   0  0  0  0  0  0  0  0  0  0  0  0
   56.7360   33.5230   46.4250 O   0  0  0  0  0  0  0  0  0  0  0  0
   57.3480   32.0260   44.7100 C   0  0  0  0  0  0  0  0  0  0  0  0
   57.7620   32.4040   43.4230 C   0  0  0  0  0  0  0  0  0  0  0  0
   57.4280   31.5980   42.3320 C   0  0  0  0  0  0  0  0  0  0  0  0
   56.6790   30.4380   42.5270 C   0  0  0  0  0  0  0  0  0  0  0  0
   56.2640   30.1030   43.8180 C   0  0  0  0  0  0  0  0  0  0  0  0
   56.6000   30.8980   44.8680 N   0  0  0  0  0  0  0  0  0  0  0  0
   59.4800   34.1230   47.0810 C   0  0  0  0  0  0  0  0  0  0  0  0
   59.6370   33.9260   48.5930 C   0  0  0  0  0  0  0  0  0  0  0  0
   59.5980   30.3470   49.8360 N   0  0  0  0  0  0  0  0  0  0  0  0
   58.8190   29.5370   50.6000 C   0  0  0  0  0  0  0  0  0  0  0  0
   57.8700   30.0690   51.4110 N   0  0  0  0  0  0  0  0  0  0  0  0
   56.9038   31.8208   53.4221 H   0  0  0  0  0  0  0  0  0  0  0  0
   56.5020   33.0480   52.1734 H   0  0  0  0  0  0  0  0  0  0  0  0
   55.6642   31.4591   52.1734 H   0  0  0  0  0  0  0  0  0  0  0  0
   58.3177   33.3511   50.7364 H   0  0  0  0  0  0  0  0  0  0  0  0
   61.2099   32.8624   49.5441 H   0  0  0  0  0  0  0  0  0  0  0  0
   61.6751   32.2997   47.3027 H   0  0  0  0  0  0  0  0  0  0  0  0
   61.0771   30.7672   48.0800 H   0  0  0  0  0  0  0  0  0  0  0  0
   60.2042   31.3488   45.7083 H   0  0  0  0  0  0  0  0  0  0  0  0
   59.0133   30.8635   46.9863 H   0  0  0  0  0  0  0  0  0  0  0  0
   58.3437   33.3258   43.2751 H   0  0  0  0  0  0  0  0  0  0  0  0
   57.7555   31.8781   41.3199 H   0  0  0  0  0  0  0  0  0  0  0  0
   56.4180   29.7943   41.6741 H   0  0  0  0  0  0  0  0  0  0  0  0
   55.6651   29.1956   43.9849 H   0  0  0  0  0  0  0  0  0  0  0  0
   60.4557   34.3837   46.6451 H   0  0  0  0  0  0  0  0  0  0  0  0
   58.7586   34.9328   46.8972 H   0  0  0  0  0  0  0  0  0  0  0  0
   60.2492   34.7486   48.9912 H   0  0  0  0  0  0  0  0  0  0  0  0
   58.6268   33.9151   49.0282 H   0  0  0  0  0  0  0  0  0  0  0  0
   60.3110   29.9060   49.2110 H   0  0  0  0  0  0  0  0  0  0  0  0
   58.9582   28.4465   50.5609 H   0  0  0  0  0  0  0  0  0  0  0  0
  1  2  1  0
  2  3  2  0
  3  4  1  0
  4  5  1  0
  5  6  1  0
  6  7  1  0
  7  8  1  0
  8  9  1  0
  9 10  2  0
  9 11  1  0
 11 12  2  0
 12 13  1  0
 13 14  2  0
 14 15  1  0
 15 16  2  0
  8 17  1  0
 17 18  1  0
  4 19  2  0
 19 20  1  0
 20 21  2  0
 21  2  1  0
 18  5  1  0
 16 11  1  0
  1 22  1  0
  1 23  1  0
  1 24  1  0
  3 25  1  0
  5 26  1  0
  6 27  1  0
  6 28  1  0
  7 29  1  0
  7 30  1  0
 12 31  1  0
 13 32  1  0
 14 33  1  0
 15 34  1  0
 17 35  1  0
 17 36  1  0
 18 37  1  0
 18 38  1  0
 19 39  1  0
 20 40  1  0
M  CHG  1  19   1
M  END
>  <UniqueID>  (44) 
42

>  <SMILES>  (44) 
Cc1cc(C2CCN(C(=O)c3ccccn3)CC2)[nH+]cn1

>  <Energy>  (44) 
50.21082483245641

>  <Genealogy>  (44) 
Cc1cc(C2CCN(C(=O)c3ccccn3)CC2)[nH+]cn1 (protonated)
Cc1cc(C2CCN(C(=O)c3ccccn3)CC2)[nH+]cn1 (3D coordinates assigned)
Cc1cc(C2CCN(C(=O)c3ccccn3)CC2)[nH+]cn1 (nonaromatic ring conformer: 50.21082483245641 kcal/mol)

>  <smiles>  (44) 
Cc1cc(C2CCN(C(=O)c3ccccn3)CC2)ncn1

>  <score_type>  (44) 
oracle

>  <origin>  (44) 
adg

>  <m_score__min__energy>  (44) 
-6.6600000000000001

>  <m_primary>  (44) 
energy

$$$$
44:0
     RDKit          3D

 73 76  0  0  0  0  0  0  0  0999 V2000
   59.0210   31.3110   49.1740 C   0  0  0  0  0  0  0  0  0  0  0  0
   60.5320   31.5330   49.0750 C   0  0  0  0  0  0  0  0  0  0  0  0
   60.9210   32.9350   49.3630 N   0  0  0  0  0  0  0  0  0  0  0  0
   62.2750   33.2570   48.8390 C   0  0  0  0  0  0  0  0  0  0  0  0
   62.7090   32.2050   47.8210 C   0  0  0  0  0  0  0  0  0  0  0  0
   59.8910   33.8640   48.8320 C   0  0  0  0  0  0  0  0  0  0  0  0
   60.4000   34.6160   47.5880 C   0  0  0  0  0  0  0  0  0  0  0  0
   59.3050   35.3010   46.7520 C   0  0  0  0  0  0  0  0  0  0  0  0
   59.0590   34.6080   45.4860 N   0  0  0  0  0  0  0  0  0  0  0  0
   58.5840   33.2520   45.3700 C   0  0  0  0  0  0  0  0  0  0  0  0
   57.3010   32.9550   44.8810 C   0  0  0  0  0  0  0  0  0  0  0  0
   56.8500   31.6340   44.8350 C   0  0  0  0  0  0  0  0  0  0  0  0
   57.6780   30.5820   45.2590 C   0  0  0  0  0  0  0  0  0  0  0  0
   58.9870   30.8650   45.7000 C   0  0  0  0  0  0  0  0  0  0  0  0
   59.4270   32.1990   45.7540 C   0  0  0  0  0  0  0  0  0  0  0  0
   59.8860   29.7580   46.1030 C   0  0  0  0  0  0  0  0  0  0  0  0
   61.0640   30.0080   46.4780 O   0  0  0  0  0  0  0  0  0  0  0  0
   59.4040   28.3580   46.0660 C   0  0  0  0  0  0  0  0  0  0  0  0
   60.2580   27.2980   46.4160 C   0  0  0  0  0  0  0  0  0  0  0  0
   59.8000   25.9810   46.3950 C   0  0  0  0  0  0  0  0  0  0  0  0
   58.4690   25.6960   46.0530 C   0  0  0  0  0  0  0  0  0  0  0  0
   57.9690   24.3460   46.0200 N   0  0  0  0  0  0  0  0  0  0  0  0
   56.6750   23.9440   46.4970 C   0  0  0  0  0  0  0  0  0  0  0  0
   55.7940   24.8070   46.7540 O   0  0  0  0  0  0  0  0  0  0  0  0
   56.3410   22.4750   46.6410 C   0  0  0  0  0  0  0  0  0  0  0  0
   55.9750   21.8000   45.3560 N   0  0  0  0  0  0  0  0  0  0  0  0
   55.1470   20.5990   45.6470 C   0  0  0  0  0  0  0  0  0  0  0  0
   57.2110   21.3910   44.6100 C   0  0  0  0  0  0  0  0  0  0  0  0
   57.0130   21.4600   43.0840 C   0  0  0  0  0  0  0  0  0  0  0  0
   56.7250   22.7700   42.6150 O   0  0  0  0  0  0  0  0  0  0  0  0
   56.0150   23.5670   43.5570 C   0  0  0  0  0  0  0  0  0  0  0  0
   55.1500   22.7460   44.5330 C   0  0  0  0  0  0  0  0  0  0  0  0
   57.6250   26.7480   45.6710 C   0  0  0  0  0  0  0  0  0  0  0  0
   58.0810   28.0790   45.6700 C   0  0  0  0  0  0  0  0  0  0  0  0
   57.1890   29.1830   45.2480 C   0  0  0  0  0  0  0  0  0  0  0  0
   56.0090   28.9330   44.8820 O   0  0  0  0  0  0  0  0  0  0  0  0
   58.7254   31.2676   50.2326 H   0  0  0  0  0  0  0  0  0  0  0  0
   58.4952   32.1415   48.6803 H   0  0  0  0  0  0  0  0  0  0  0  0
   58.7564   30.3643   48.6803 H   0  0  0  0  0  0  0  0  0  0  0  0
   61.0335   30.8724   49.7975 H   0  0  0  0  0  0  0  0  0  0  0  0
   60.8356   31.3078   48.0420 H   0  0  0  0  0  0  0  0  0  0  0  0
   62.2520   34.2442   48.3543 H   0  0  0  0  0  0  0  0  0  0  0  0
   62.9909   33.2659   49.6741 H   0  0  0  0  0  0  0  0  0  0  0  0
   63.0769   31.3132   48.3495 H   0  0  0  0  0  0  0  0  0  0  0  0
   61.8511   31.9294   47.1901 H   0  0  0  0  0  0  0  0  0  0  0  0
   63.5116   32.6145   47.1901 H   0  0  0  0  0  0  0  0  0  0  0  0
   58.9950   33.2870   48.5596 H   0  0  0  0  0  0  0  0  0  0  0  0
   59.6570   34.6036   49.6119 H   0  0  0  0  0  0  0  0  0  0  0  0
   61.1085   35.3884   47.9218 H   0  0  0  0  0  0  0  0  0  0  0  0
   60.8577   33.8581   46.9352 H   0  0  0  0  0  0  0  0  0  0  0  0
   58.3721   35.3157   47.3346 H   0  0  0  0  0  0  0  0  0  0  0  0
   59.6476   36.3197   46.5176 H   0  0  0  0  0  0  0  0  0  0  0  0
   59.3030   35.1200   44.6100 H   0  0  0  0  0  0  0  0  0  0  0  0
   56.6474   33.7681   44.5321 H   0  0  0  0  0  0  0  0  0  0  0  0
   55.8379   31.4158   44.4636 H   0  0  0  0  0  0  0  0  0  0  0  0
   60.4467   32.4201   46.1023 H   0  0  0  0  0  0  0  0  0  0  0  0
   61.2970   27.5091   46.7091 H   0  0  0  0  0  0  0  0  0  0  0  0
   60.4867   25.1598   46.6482 H   0  0  0  0  0  0  0  0  0  0  0  0
   58.5580   23.6180   45.5560 H   0  0  0  0  0  0  0  0  0  0  0  0
   57.2177   21.9617   47.0628 H   0  0  0  0  0  0  0  0  0  0  0  0
   55.4570   22.4143   47.2928 H   0  0  0  0  0  0  0  0  0  0  0  0
   55.0581   20.4700   46.7358 H   0  0  0  0  0  0  0  0  0  0  0  0
   54.1459   20.7292   45.2102 H   0  0  0  0  0  0  0  0  0  0  0  0
   55.6248   19.7096   45.2102 H   0  0  0  0  0  0  0  0  0  0  0  0
   58.0348   22.0631   44.8920 H   0  0  0  0  0  0  0  0  0  0  0  0
   57.4393   20.3484   44.8763 H   0  0  0  0  0  0  0  0  0  0  0  0
   57.9340   21.1086   42.5958 H   0  0  0  0  0  0  0  0  0  0  0  0
   56.1474   20.8274   42.8380 H   0  0  0  0  0  0  0  0  0  0  0  0
   56.7445   24.1464   44.1420 H   0  0  0  0  0  0  0  0  0  0  0  0
   55.3316   24.2110   42.9841 H   0  0  0  0  0  0  0  0  0  0  0  0
   54.6229   23.4367   45.2076 H   0  0  0  0  0  0  0  0  0  0  0  0
   54.4406   22.1504   43.9398 H   0  0  0  0  0  0  0  0  0  0  0  0
   56.5905   26.5296   45.3674 H   0  0  0  0  0  0  0  0  0  0  0  0
  1  2  1  0
  2  3  1  0
  3  4  1  0
  4  5  1  0
  3  6  1  0
  6  7  1  0
  7  8  1  0
  8  9  1  0
  9 10  1  0
 10 11  2  0
 11 12  1  0
 12 13  2  0
 13 14  1  0
 14 15  2  0
 14 16  1  0
 16 17  2  0
 16 18  1  0
 18 19  2  0
 19 20  1  0
 20 21  2  0
 21 22  1  0
 22 23  1  0
 23 24  2  0
 23 25  1  0
 25 26  1  0
 26 27  1  0
 26 28  1  0
 28 29  1  0
 29 30  1  0
 30 31  1  0
 31 32  1  0
 21 33  1  0
 33 34  2  0
 34 35  1  0
 35 36  2  0
 15 10  1  0
 34 18  1  0
 35 13  1  0
 32 26  1  0
  1 37  1  0
  1 38  1  0
  1 39  1  0
  2 40  1  0
  2 41  1  0
  4 42  1  0
  4 43  1  0
  5 44  1  0
  5 45  1  0
  5 46  1  0
  6 47  1  0
  6 48  1  0
  7 49  1  0
  7 50  1  0
  8 51  1  0
  8 52  1  0
  9 53  1  0
 11 54  1  0
 12 55  1  0
 15 56  1  0
 19 57  1  0
 20 58  1  0
 22 59  1  0
 25 60  1  0
 25 61  1  0
 27 62  1  0
 27 63  1  0
 27 64  1  0
 28 65  1  0
 28 66  1  0
 29 67  1  0
 29 68  1  0
 31 69  1  0
 31 70  1  0
 32 71  1  0
 32 72  1  0
 33 73  1  0
M  CHG  1  26   1
M  END
>  <UniqueID>  (45) 
43

>  <SMILES>  (45) 
CCN(CC)CCCNc1ccc2c(c1)C(=O)c1ccc(NC(=O)C[N+]3(C)CCOCC3)cc1C2=O

>  <Energy>  (45) 
104.95633978580736

>  <Genealogy>  (45) 
CCN(CC)CCCNc1ccc2c(c1)C(=O)c1ccc(NC(=O)C[N+]3(C)CCOCC3)cc1C2=O (3D coordinates assigned)
CCN(CC)CCCNc1ccc2c(c1)C(=O)c1ccc(NC(=O)C[N+]3(C)CCOCC3)cc1C2=O (nonaromatic ring conformer: 104.95633978580736 kcal/mol)

>  <smiles>  (45) 
CCN(CC)CCCNc1ccc2c(c1)C(=O)c1ccc(NC(=O)C[N+]3(C)CCOCC3)cc1C2=O

>  <score_type>  (45) 
oracle

>  <origin>  (45) 
adg

>  <m_score__min__energy>  (45) 
-7.5099999999999998

>  <m_primary>  (45) 
energy

$$$$
45:0
     RDKit          3D

 43 46  0  0  0  0  0  0  0  0999 V2000
   56.9120   30.5750   42.5330 O   0  0  0  0  0  0  0  0  0  0  0  0
   56.5990   30.2650   43.9700 S   0  0  0  0  0  0  0  0  0  0  0  0
   55.1250   30.4520   44.1920 O   0  0  0  0  0  0  0  0  0  0  0  0
   57.0690   28.6070   44.3320 C   0  0  0  0  0  0  0  0  0  0  0  0
   56.7530   28.0500   45.5800 C   0  0  0  0  0  0  0  0  0  0  0  0
   57.1330   26.7390   45.8820 C   0  0  0  0  0  0  0  0  0  0  0  0
   57.8340   25.9790   44.9410 C   0  0  0  0  0  0  0  0  0  0  0  0
   58.1540   26.5300   43.6980 C   0  0  0  0  0  0  0  0  0  0  0  0
   57.7730   27.8410   43.3910 C   0  0  0  0  0  0  0  0  0  0  0  0
   57.4680   31.3700   45.0150 C   0  0  0  0  0  0  0  0  0  0  0  0
   57.7720   31.0010   46.2860 N   0  0  0  0  0  0  0  0  0  0  0  0
   58.4600   31.8240   47.1200 C   0  0  0  0  0  0  0  0  0  0  0  0
   58.8260   31.2310   48.7790 S   0  0  0  0  0  0  0  0  0  0  0  0
   60.5150   30.6640   48.3700 C   0  0  0  0  0  0  0  0  0  0  0  0
   60.4910   29.3000   47.7350 C   0  0  0  0  0  0  0  0  0  0  0  0
   60.5560   29.1710   46.3380 C   0  0  0  0  0  0  0  0  0  0  0  0
   60.5500   27.9030   45.7470 C   0  0  0  0  0  0  0  0  0  0  0  0
   60.4790   26.7590   46.5450 C   0  0  0  0  0  0  0  0  0  0  0  0
   60.4630   25.5310   45.9690 F   0  0  0  0  0  0  0  0  0  0  0  0
   60.4190   26.8790   47.9360 C   0  0  0  0  0  0  0  0  0  0  0  0
   60.4300   28.1440   48.5320 C   0  0  0  0  0  0  0  0  0  0  0  0
   58.8630   33.0950   46.6650 C   0  0  0  0  0  0  0  0  0  0  0  0
   59.5750   34.0070   47.4670 C   0  0  0  0  0  0  0  0  0  0  0  0
   59.9520   35.2500   46.9510 C   0  0  0  0  0  0  0  0  0  0  0  0
   59.6260   35.5960   45.6370 C   0  0  0  0  0  0  0  0  0  0  0  0
   58.9180   34.7000   44.8310 C   0  0  0  0  0  0  0  0  0  0  0  0
   58.5360   33.4530   45.3370 C   0  0  0  0  0  0  0  0  0  0  0  0
   57.8500   32.5860   44.5500 N   0  0  0  0  0  0  0  0  0  0  0  0
   56.2043   28.6468   46.3235 H   0  0  0  0  0  0  0  0  0  0  0  0
   56.8803   26.3051   46.8607 H   0  0  0  0  0  0  0  0  0  0  0  0
   58.1334   24.9477   45.1793 H   0  0  0  0  0  0  0  0  0  0  0  0
   58.7068   25.9319   42.9587 H   0  0  0  0  0  0  0  0  0  0  0  0
   58.0258   28.2714   42.4108 H   0  0  0  0  0  0  0  0  0  0  0  0
   60.9737   31.3779   47.6700 H   0  0  0  0  0  0  0  0  0  0  0  0
   61.0982   30.6052   49.3008 H   0  0  0  0  0  0  0  0  0  0  0  0
   60.6118   30.0699   45.7065 H   0  0  0  0  0  0  0  0  0  0  0  0
   60.6013   27.8069   44.6524 H   0  0  0  0  0  0  0  0  0  0  0  0
   60.3630   25.9770   48.5631 H   0  0  0  0  0  0  0  0  0  0  0  0
   60.3908   28.2345   49.6276 H   0  0  0  0  0  0  0  0  0  0  0  0
   59.8352   33.7407   48.5021 H   0  0  0  0  0  0  0  0  0  0  0  0
   60.5078   35.9591   47.5821 H   0  0  0  0  0  0  0  0  0  0  0  0
   59.9271   36.5752   45.2362 H   0  0  0  0  0  0  0  0  0  0  0  0
   58.6609   34.9757   43.7976 H   0  0  0  0  0  0  0  0  0  0  0  0
  1  2  2  0
  2  3  2  0
  2  4  1  0
  4  5  2  0
  5  6  1  0
  6  7  2  0
  7  8  1  0
  8  9  2  0
  2 10  1  0
 10 11  2  0
 11 12  1  0
 12 13  1  0
 13 14  1  0
 14 15  1  0
 15 16  2  0
 16 17  1  0
 17 18  2  0
 18 19  1  0
 18 20  1  0
 20 21  2  0
 12 22  2  0
 22 23  1  0
 23 24  2  0
 24 25  1  0
 25 26  2  0
 26 27  1  0
 27 28  2  0
  9  4  1  0
 28 10  1  0
 21 15  1  0
 27 22  1  0
  5 29  1  0
  6 30  1  0
  7 31  1  0
  8 32  1  0
  9 33  1  0
 14 34  1  0
 14 35  1  0
 16 36  1  0
 17 37  1  0
 20 38  1  0
 21 39  1  0
 23 40  1  0
 24 41  1  0
 25 42  1  0
 26 43  1  0
M  END
>  <UniqueID>  (46) 
44

>  <SMILES>  (46) 
O=S(=O)(c1ccccc1)c1nc(SCc2ccc(F)cc2)c2ccccc2n1

>  <Energy>  (46) 
45.92375907911622

>  <Genealogy>  (46) 
O=S(=O)(c1ccccc1)c1nc(SCc2ccc(F)cc2)c2ccccc2n1 (3D coordinates assigned)
O=S(=O)(c1ccccc1)c1nc(SCc2ccc(F)cc2)c2ccccc2n1 (optimized conformer: 45.92375907911622 kcal/mol)

>  <smiles>  (46) 
O=S(=O)(c1ccccc1)c1nc(SCc2ccc(F)cc2)c2ccccc2n1

>  <score_type>  (46) 
oracle

>  <origin>  (46) 
adg

>  <m_score__min__energy>  (46) 
-9.2599999999999998

>  <m_primary>  (46) 
energy

$$$$
46:0
     RDKit          3D

 45 45  0  0  0  0  0  0  0  0999 V2000
   59.5430   29.2570   45.6260 C   0  0  0  0  0  0  0  0  0  0  0  0
   58.2330   29.3270   46.4020 C   0  0  0  0  0  0  0  0  0  0  0  0
   57.4240   30.4030   45.9290 O   0  0  0  0  0  0  0  0  0  0  0  0
   57.4030   30.9050   44.6150 C   0  0  0  0  0  0  0  0  0  0  0  0
   56.6720   30.2750   43.5880 C   0  0  0  0  0  0  0  0  0  0  0  0
   56.6690   30.8020   42.2950 C   0  0  0  0  0  0  0  0  0  0  0  0
   57.3890   31.9610   42.0090 C   0  0  0  0  0  0  0  0  0  0  0  0
   58.1160   32.5970   43.0140 C   0  0  0  0  0  0  0  0  0  0  0  0
   58.1340   32.0810   44.3240 C   0  0  0  0  0  0  0  0  0  0  0  0
   58.9160   32.7470   45.3440 N   0  0  0  0  0  0  0  0  0  0  0  0
   58.6210   34.1910   45.4080 C   0  0  0  0  0  0  0  0  0  0  0  0
   58.8800   34.8150   46.7980 C   0  0  0  0  0  0  0  0  0  0  0  0
   59.4080   33.8120   47.8410 C   0  0  0  0  0  0  0  0  0  0  0  0
   60.4870   32.9690   47.2750 N   0  0  0  0  0  0  0  0  0  0  0  0
   61.7450   33.7370   47.1280 C   0  0  0  0  0  0  0  0  0  0  0  0
   62.9510   32.8020   47.1710 C   0  0  0  0  0  0  0  0  0  0  0  0
   60.7020   31.7500   48.0890 C   0  0  0  0  0  0  0  0  0  0  0  0
   59.4420   31.4180   48.8810 C   0  0  0  0  0  0  0  0  0  0  0  0
   60.3854   29.2120   46.3319 H   0  0  0  0  0  0  0  0  0  0  0  0
   59.5466   28.3574   44.9930 H   0  0  0  0  0  0  0  0  0  0  0  0
   59.6424   30.1511   44.9930 H   0  0  0  0  0  0  0  0  0  0  0  0
   57.6865   28.3810   46.2742 H   0  0  0  0  0  0  0  0  0  0  0  0
   58.4600   29.4957   47.4650 H   0  0  0  0  0  0  0  0  0  0  0  0
   56.0996   29.3614   43.8066 H   0  0  0  0  0  0  0  0  0  0  0  0
   56.0970   30.3013   41.4999 H   0  0  0  0  0  0  0  0  0  0  0  0
   57.3834   32.3739   40.9895 H   0  0  0  0  0  0  0  0  0  0  0  0
   58.6815   33.5114   42.7813 H   0  0  0  0  0  0  0  0  0  0  0  0
   58.6760   32.3250   46.2700 H   0  0  0  0  0  0  0  0  0  0  0  0
   59.9390   32.5850   45.2100 H   0  0  0  0  0  0  0  0  0  0  0  0
   59.2536   34.7080   44.6715 H   0  0  0  0  0  0  0  0  0  0  0  0
   57.5483   34.3105   45.1958 H   0  0  0  0  0  0  0  0  0  0  0  0
   59.6214   35.6196   46.6843 H   0  0  0  0  0  0  0  0  0  0  0  0
   57.9123   35.1836   47.1691 H   0  0  0  0  0  0  0  0  0  0  0  0
   59.8021   34.3670   48.7051 H   0  0  0  0  0  0  0  0  0  0  0  0
   58.5783   33.1575   48.1462 H   0  0  0  0  0  0  0  0  0  0  0  0
   61.7338   34.2691   46.1653 H   0  0  0  0  0  0  0  0  0  0  0  0
   61.8221   34.4551   47.9577 H   0  0  0  0  0  0  0  0  0  0  0  0
   63.2176   32.5953   48.2180 H   0  0  0  0  0  0  0  0  0  0  0  0
   62.7019   31.8587   46.6630 H   0  0  0  0  0  0  0  0  0  0  0  0
   63.8025   33.2783   46.6630 H   0  0  0  0  0  0  0  0  0  0  0  0
   60.9464   30.9078   47.4249 H   0  0  0  0  0  0  0  0  0  0  0  0
   61.5308   31.9276   48.7901 H   0  0  0  0  0  0  0  0  0  0  0  0
   59.6599   31.4754   49.9577 H   0  0  0  0  0  0  0  0  0  0  0  0
   58.6497   32.1380   48.6283 H   0  0  0  0  0  0  0  0  0  0  0  0
   59.1074   30.4010   48.6283 H   0  0  0  0  0  0  0  0  0  0  0  0
  1  2  1  0
  2  3  1  0
  3  4  1  0
  4  5  2  0
  5  6  1  0
  6  7  2  0
  7  8  1  0
  8  9  2  0
  9 10  1  0
 10 11  1  0
 11 12  1  0
 12 13  1  0
 13 14  1  0
 14 15  1  0
 15 16  1  0
 14 17  1  0
 17 18  1  0
  9  4  1  0
  1 19  1  0
  1 20  1  0
  1 21  1  0
  2 22  1  0
  2 23  1  0
  5 24  1  0
  6 25  1  0
  7 26  1  0
  8 27  1  0
 10 28  1  0
 10 29  1  0
 11 30  1  0
 11 31  1  0
 12 32  1  0
 12 33  1  0
 13 34  1  0
 13 35  1  0
 15 36  1  0
 15 37  1  0
 16 38  1  0
 16 39  1  0
 16 40  1  0
 17 41  1  0
 17 42  1  0
 18 43  1  0
 18 44  1  0
 18 45  1  0
M  CHG  1  10   1
M  END
>  <UniqueID>  (47) 
45

>  <SMILES>  (47) 
CCOc1ccccc1[NH2+]CCCN(CC)CC

>  <Energy>  (47) 
37.188076372898955

>  <Genealogy>  (47) 
CCOc1ccccc1[NH2+]CCCN(CC)CC (protonated)
CCOc1ccccc1[NH2+]CCCN(CC)CC (3D coordinates assigned)
CCOc1ccccc1[NH2+]CCCN(CC)CC (optimized conformer: 37.188076372898955 kcal/mol)

>  <smiles>  (47) 
CCOc1ccccc1NCCCN(CC)CC

>  <score_type>  (47) 
oracle

>  <origin>  (47) 
adg

>  <m_score__min__energy>  (47) 
-4.4100000000000001

>  <m_primary>  (47) 
energy

$$$$
47:0
     RDKit          3D

 66 69  0  0  1  0  0  0  0  0999 V2000
   58.1340   26.9130   42.9760 C   0  0  0  0  0  0  0  0  0  0  0  0
   57.8670   26.1390   44.2690 C   0  0  0  0  0  0  0  0  0  0  0  0
   57.2070   26.9660   45.2410 N   0  0  0  0  0  0  0  0  0  0  0  0
   56.1770   26.3210   46.0610 C   0  0  0  0  0  0  0  0  0  0  0  0
   56.7050   25.0870   46.7420 C   0  0  0  0  0  0  0  0  0  0  0  0
   57.4820   28.3320   45.4730 C   0  0  0  0  0  0  0  0  0  0  0  0
   57.0490   29.3320   44.6550 C   0  0  0  0  0  0  0  0  0  0  0  0
   57.5390   30.4900   45.1790 C   0  0  0  0  0  0  0  0  0  0  0  0
   57.3640   31.7410   44.7180 N   0  0  0  0  0  0  0  0  0  0  0  0
   57.9050   32.7930   45.3440 C   0  0  0  0  0  0  0  0  0  0  0  0
   58.6490   32.5130   46.4740 C   0  0  0  0  0  0  0  0  0  0  0  0
   58.8020   31.2010   46.9070 C   0  0  0  0  0  0  0  0  0  0  0  0
   59.5740   30.9570   47.8020 N   0  0  0  0  0  0  0  0  0  0  0  0
   60.8030   30.7610   48.1990 C   0  0  0  0  0  0  0  0  0  0  0  0
   60.8820   31.9300   49.3120 C   0  0  0  0  0  0  0  0  0  0  0  0
   62.2620   31.9720   49.8530 C   0  0  0  0  0  0  0  0  0  0  0  0
   63.2400   32.2480   48.8550 N   0  0  0  0  0  0  0  0  0  0  0  0
   63.7310   33.5880   48.8090 C   0  0  0  0  0  0  0  0  0  0  0  0
   63.0860   31.5870   47.6060 C   0  0  0  0  0  0  0  0  0  0  0  0
   61.6970   31.5150   47.0990 C   0  0  0  0  0  0  0  0  0  0  0  0
   58.2430   30.1570   46.2750 N   0  0  0  0  0  0  0  0  0  0  0  0
   58.2620   28.8800   46.5420 C   0  0  0  0  0  0  0  0  0  0  0  0
   58.7110   27.9190   47.5430 C   0  0  0  0  0  0  0  0  0  0  0  0
   60.0300   27.6070   47.6050 O   0  0  0  0  0  0  0  0  0  0  0  0
   60.4710   27.1620   46.3730 C   0  0  0  0  0  0  0  0  0  0  0  0
   59.2550   33.6720   47.1720 C   0  0  0  0  0  0  0  0  0  0  0  0
   59.8170   34.6890   46.2310 C   0  0  0  0  0  0  0  0  0  0  0  0
   58.9460   35.0410   45.0770 C   0  0  0  0  0  0  0  0  0  0  0  0
   57.7410   34.1850   44.8770 C   0  0  0  0  0  0  0  0  0  0  0  0
   58.4837   27.9267   43.2211 H   0  0  0  0  0  0  0  0  0  0  0  0
   58.9042   26.3914   42.3888 H   0  0  0  0  0  0  0  0  0  0  0  0
   57.2061   26.9772   42.3888 H   0  0  0  0  0  0  0  0  0  0  0  0
   57.2293   25.2717   44.0431 H   0  0  0  0  0  0  0  0  0  0  0  0
   58.8312   25.8124   44.6857 H   0  0  0  0  0  0  0  0  0  0  0  0
   55.8329   27.0319   46.8266 H   0  0  0  0  0  0  0  0  0  0  0  0
   55.3484   26.0229   45.4018 H   0  0  0  0  0  0  0  0  0  0  0  0
   56.6490   25.2178   47.8328 H   0  0  0  0  0  0  0  0  0  0  0  0
   56.1002   24.2174   46.4455 H   0  0  0  0  0  0  0  0  0  0  0  0
   57.7517   24.9240   46.4455 H   0  0  0  0  0  0  0  0  0  0  0  0
   56.4286   29.2256   43.7529 H   0  0  0  0  0  0  0  0  0  0  0  0
   56.8010   31.9440   43.8580 H   0  0  0  0  0  0  0  0  0  0  0  0
   61.0632   29.7180   48.4322 H   0  0  0  0  0  0  0  0  0  0  0  0
   60.6342   32.8979   48.8518 H   0  0  0  0  0  0  0  0  0  0  0  0
   60.1656   31.7283   50.1220 H   0  0  0  0  0  0  0  0  0  0  0  0
   62.3139   32.7569   50.6219 H   0  0  0  0  0  0  0  0  0  0  0  0
   62.4846   30.9777   50.2676 H   0  0  0  0  0  0  0  0  0  0  0  0
   63.8686   33.9635   49.8337 H   0  0  0  0  0  0  0  0  0  0  0  0
   64.6947   33.6074   48.2789 H   0  0  0  0  0  0  0  0  0  0  0  0
   63.0080   34.2254   48.2789 H   0  0  0  0  0  0  0  0  0  0  0  0
   63.6932   32.1216   46.8607 H   0  0  0  0  0  0  0  0  0  0  0  0
   63.4062   30.5473   47.7689 H   0  0  0  0  0  0  0  0  0  0  0  0
   61.3072   32.5303   46.9340 H   0  0  0  0  0  0  0  0  0  0  0  0
   61.6675   30.9690   46.1445 H   0  0  0  0  0  0  0  0  0  0  0  0
   58.4274   28.3209   48.5269 H   0  0  0  0  0  0  0  0  0  0  0  0
   58.2290   26.9771   47.2420 H   0  0  0  0  0  0  0  0  0  0  0  0
   61.2387   26.3873   46.5163 H   0  0  0  0  0  0  0  0  0  0  0  0
   59.6247   26.7400   45.8111 H   0  0  0  0  0  0  0  0  0  0  0  0
   60.9006   28.0045   45.8111 H   0  0  0  0  0  0  0  0  0  0  0  0
   58.4820   34.1538   47.7887 H   0  0  0  0  0  0  0  0  0  0  0  0
   60.0873   33.2915   47.7824 H   0  0  0  0  0  0  0  0  0  0  0  0
   60.0118   35.6087   46.8021 H   0  0  0  0  0  0  0  0  0  0  0  0
   60.7222   34.2359   45.8004 H   0  0  0  0  0  0  0  0  0  0  0  0
   58.6025   36.0763   45.2191 H   0  0  0  0  0  0  0  0  0  0  0  0
   59.5671   34.8892   44.1819 H   0  0  0  0  0  0  0  0  0  0  0  0
   56.9015   34.6367   45.4258 H   0  0  0  0  0  0  0  0  0  0  0  0
   57.5631   34.1366   43.7926 H   0  0  0  0  0  0  0  0  0  0  0  0
  1  2  1  0
  2  3  1  0
  3  4  1  0
  4  5  1  0
  3  6  1  0
  6  7  1  0
  7  8  2  0
  8  9  1  0
  9 10  1  0
 10 11  2  0
 11 12  1  0
 12 13  2  0
 13 14  1  0
 14 15  1  0
 15 16  1  0
 16 17  1  0
 17 18  1  0
 17 19  1  0
 19 20  1  0
 12 21  1  0
 21 22  1  0
 22 23  1  0
 23 24  1  0
 24 25  1  0
 11 26  1  0
 26 27  1  0
 27 28  1  0
 28 29  1  0
 22  6  2  0
 21  8  1  0
 29 10  1  0
 20 14  1  0
  1 30  1  0
  1 31  1  0
  1 32  1  0
  2 33  1  0
  2 34  1  0
  4 35  1  0
  4 36  1  0
  5 37  1  0
  5 38  1  0
  5 39  1  0
  7 40  1  0
  9 41  1  0
 14 42  1  0
 15 43  1  0
 15 44  1  0
 16 45  1  0
 16 46  1  0
 18 47  1  0
 18 48  1  0
 18 49  1  0
 19 50  1  0
 19 51  1  0
 20 52  1  0
 20 53  1  0
 23 54  1  0
 23 55  1  0
 25 56  1  0
 25 57  1  0
 25 58  1  0
 26 59  1  0
 26 60  1  0
 27 61  1  0
 27 62  1  0
 28 63  1  0
 28 64  1  0
 29 65  1  0
 29 66  1  0
M  END
>  <smiles>  (48) 
CCN(CC)c1cc2[nH]c3c(c(=NC4CCN(C)CC4)n2c1COC)CCCC3

>  <score_type>  (48) 
oracle

>  <origin>  (48) 
adg

>  <m_score__min__energy>  (48) 
-7.6100000000000003

>  <m_primary>  (48) 
energy

$$$$
48:0
     RDKit          3D

 44 45  0  0  0  0  0  0  0  0999 V2000
   63.1740   33.8110   46.7030 C   0  0  0  0  0  0  0  0  0  0  0  0
   62.1310   32.9420   47.2680 N   0  0  0  0  0  0  0  0  0  0  0  0
   62.6450   31.5900   47.5430 C   0  0  0  0  0  0  0  0  0  0  0  0
   61.4070   33.5490   48.4090 C   0  0  0  0  0  0  0  0  0  0  0  0
   60.1350   34.3470   48.0410 C   0  0  0  0  0  0  0  0  0  0  0  0
   59.9050   34.3800   46.5900 N   0  0  0  0  0  0  0  0  0  0  0  0
   58.4750   34.4620   46.2670 C   0  0  0  0  0  0  0  0  0  0  0  0
   58.0160   33.1530   45.6200 C   0  0  0  0  0  0  0  0  0  0  0  0
   58.2280   33.1770   44.1040 C   0  0  0  0  0  0  0  0  0  0  0  0
   58.3790   31.8520   43.5970 O   0  0  0  0  0  0  0  0  0  0  0  0
   57.6890   30.7640   44.1410 C   0  0  0  0  0  0  0  0  0  0  0  0
   56.3770   30.5250   43.7340 C   0  0  0  0  0  0  0  0  0  0  0  0
   55.6810   29.4320   44.2470 C   0  0  0  0  0  0  0  0  0  0  0  0
   56.2650   28.5990   45.1500 N   0  0  0  0  0  0  0  0  0  0  0  0
   55.5330   27.5310   45.6210 O   0  0  0  0  0  0  0  0  0  0  0  0
   57.5440   28.8150   45.5910 C   0  0  0  0  0  0  0  0  0  0  0  0
   58.1370   27.9580   46.5380 C   0  0  0  0  0  0  0  0  0  0  0  0
   59.4360   28.1970   46.9960 C   0  0  0  0  0  0  0  0  0  0  0  0
   60.1620   27.1240   48.1780 Cl  0  0  0  0  0  0  0  0  0  0  0  0
   60.1560   29.2960   46.5180 C   0  0  0  0  0  0  0  0  0  0  0  0
   59.5850   30.1540   45.5770 C   0  0  0  0  0  0  0  0  0  0  0  0
   58.2850   29.9190   45.0960 C   0  0  0  0  0  0  0  0  0  0  0  0
   63.7402   34.2828   47.5196 H   0  0  0  0  0  0  0  0  0  0  0  0
   63.8559   33.2101   46.0834 H   0  0  0  0  0  0  0  0  0  0  0  0
   62.7061   34.5902   46.0834 H   0  0  0  0  0  0  0  0  0  0  0  0
   62.7042   31.4344   48.6303 H   0  0  0  0  0  0  0  0  0  0  0  0
   61.9679   30.8436   47.1021 H   0  0  0  0  0  0  0  0  0  0  0  0
   63.6469   31.4819   47.1021 H   0  0  0  0  0  0  0  0  0  0  0  0
   61.1131   32.7394   49.0933 H   0  0  0  0  0  0  0  0  0  0  0  0
   62.1014   34.2762   48.8551 H   0  0  0  0  0  0  0  0  0  0  0  0
   59.2677   33.8764   48.5272 H   0  0  0  0  0  0  0  0  0  0  0  0
   60.2723   35.3823   48.3864 H   0  0  0  0  0  0  0  0  0  0  0  0
   60.2700   33.4830   46.1880 H   0  0  0  0  0  0  0  0  0  0  0  0
   57.9012   34.6348   47.1894 H   0  0  0  0  0  0  0  0  0  0  0  0
   58.3071   35.2931   45.5662 H   0  0  0  0  0  0  0  0  0  0  0  0
   58.5921   32.3200   46.0491 H   0  0  0  0  0  0  0  0  0  0  0  0
   56.9415   33.0261   45.8181 H   0  0  0  0  0  0  0  0  0  0  0  0
   57.3584   33.6505   43.6248 H   0  0  0  0  0  0  0  0  0  0  0  0
   59.1420   33.7476   43.8827 H   0  0  0  0  0  0  0  0  0  0  0  0
   55.8928   31.1971   43.0102 H   0  0  0  0  0  0  0  0  0  0  0  0
   54.6488   29.2409   43.9183 H   0  0  0  0  0  0  0  0  0  0  0  0
   57.5738   27.0939   46.9203 H   0  0  0  0  0  0  0  0  0  0  0  0
   61.1757   29.4850   46.8847 H   0  0  0  0  0  0  0  0  0  0  0  0
   60.1556   31.0196   45.2093 H   0  0  0  0  0  0  0  0  0  0  0  0
  1  2  1  0
  2  3  1  0
  2  4  1  0
  4  5  1  0
  5  6  1  0
  6  7  1  0
  7  8  1  0
  8  9  1  0
  9 10  1  0
 10 11  1  0
 11 12  2  0
 12 13  1  0
 13 14  2  0
 14 15  1  0
 14 16  1  0
 16 17  2  0
 17 18  1  0
 18 19  1  0
 18 20  2  0
 20 21  1  0
 21 22  2  0
 22 11  1  0
 22 16  1  0
  1 23  1  0
  1 24  1  0
  1 25  1  0
  3 26  1  0
  3 27  1  0
  3 28  1  0
  4 29  1  0
  4 30  1  0
  5 31  1  0
  5 32  1  0
  6 33  1  0
  7 34  1  0
  7 35  1  0
  8 36  1  0
  8 37  1  0
  9 38  1  0
  9 39  1  0
 12 40  1  0
 13 41  1  0
 17 42  1  0
 20 43  1  0
 21 44  1  0
M  CHG  2  14   1  15  -1
M  END
>  <UniqueID>  (49) 
46

>  <SMILES>  (49) 
CN(C)CCNCCCOc1cc[n+]([O-])c2cc(Cl)ccc12

>  <Energy>  (49) 
53.25356457300014

>  <Genealogy>  (49) 
CN(C)CCNCCCOc1cc[n+]([O-])c2cc(Cl)ccc12 (3D coordinates assigned)
CN(C)CCNCCCOc1cc[n+]([O-])c2cc(Cl)ccc12 (optimized conformer: 53.25356457300014 kcal/mol)

>  <smiles>  (49) 
CN(C)CCNCCCOc1cc[n+]([O-])c2cc(Cl)ccc12

>  <score_type>  (49) 
oracle

>  <origin>  (49) 
adg

>  <m_score__min__energy>  (49) 
-6.71

>  <m_primary>  (49) 
energy

$$$$
