0:0
     RDKit          3D

 51 52  0  0  0  0  0  0  0  0999 V2000
   63.6570   32.6050   46.7560 C   0  0  0  0  0  0  0  0  0  0  0  0
   63.4450   33.8800   47.5900 C   0  0  0  0  0  0  0  0  0  0  0  0
   63.6080   33.6930   49.0520 N   0  0  0  0  0  0  0  0  0  0  0  0
   63.8240   32.2970   49.4920 C   0  0  0  0  0  0  0  0  0  0  0  0
   65.2030   32.1140   50.1240 C   0  0  0  0  0  0  0  0  0  0  0  0
   62.7070   34.5130   49.8980 C   0  0  0  0  0  0  0  0  0  0  0  0
   61.8990   33.7190   50.9350 C   0  0  0  0  0  0  0  0  0  0  0  0
   60.6100   33.4020   50.4140 O   0  0  0  0  0  0  0  0  0  0  0  0
   60.3800   32.5860   49.2970 C   0  0  0  0  0  0  0  0  0  0  0  0
   60.8330   31.2680   49.3400 C   0  0  0  0  0  0  0  0  0  0  0  0
   60.6250   30.4130   48.2590 C   0  0  0  0  0  0  0  0  0  0  0  0
   59.9590   30.8640   47.1080 C   0  0  0  0  0  0  0  0  0  0  0  0
   59.4700   32.1910   47.0580 C   0  0  0  0  0  0  0  0  0  0  0  0
   59.7090   33.0460   48.1510 C   0  0  0  0  0  0  0  0  0  0  0  0
   58.7350   32.7630   45.8560 C   0  0  0  0  0  0  0  0  0  0  0  0
   57.4410   32.0440   45.3850 C   0  0  0  0  0  0  0  0  0  0  0  0
   57.6280   30.7130   44.7580 N   0  0  2  0  0  0  0  0  0  0  0  0
   56.4400   30.2510   44.0500 C   0  0  0  0  0  0  0  0  0  0  0  0
   56.4800   30.0010   42.5690 C   0  0  0  0  0  0  0  0  0  0  0  0
   55.3860   30.0610   44.6400 O   0  0  0  0  0  0  0  0  0  0  0  0
   58.2350   29.7040   45.6760 C   0  0  0  0  0  0  0  0  0  0  0  0
   59.7350   29.9070   45.9730 C   0  0  0  0  0  0  0  0  0  0  0  0
   63.7998   31.7464   47.4286 H   0  0  0  0  0  0  0  0  0  0  0  0
   62.7754   32.4311   46.1215 H   0  0  0  0  0  0  0  0  0  0  0  0
   64.5474   32.7257   46.1215 H   0  0  0  0  0  0  0  0  0  0  0  0
   64.1737   34.6336   47.2567 H   0  0  0  0  0  0  0  0  0  0  0  0
   62.4018   34.1893   47.4287 H   0  0  0  0  0  0  0  0  0  0  0  0
   63.0542   32.0327   50.2319 H   0  0  0  0  0  0  0  0  0  0  0  0
   63.7605   31.6440   48.6091 H   0  0  0  0  0  0  0  0  0  0  0  0
   65.1087   32.1265   51.2199 H   0  0  0  0  0  0  0  0  0  0  0  0
   65.6284   31.1515   49.8036 H   0  0  0  0  0  0  0  0  0  0  0  0
   65.8647   32.9322   49.8036 H   0  0  0  0  0  0  0  0  0  0  0  0
   63.3200   35.2521   50.4346 H   0  0  0  0  0  0  0  0  0  0  0  0
   61.9736   34.9700   49.2174 H   0  0  0  0  0  0  0  0  0  0  0  0
   62.4327   32.7880   51.1768 H   0  0  0  0  0  0  0  0  0  0  0  0
   61.7803   34.3290   51.8426 H   0  0  0  0  0  0  0  0  0  0  0  0
   61.3584   30.9002   50.2337 H   0  0  0  0  0  0  0  0  0  0  0  0
   60.9860   29.3751   48.3080 H   0  0  0  0  0  0  0  0  0  0  0  0
   59.3652   34.0900   48.1072 H   0  0  0  0  0  0  0  0  0  0  0  0
   58.4625   33.8000   46.1018 H   0  0  0  0  0  0  0  0  0  0  0  0
   59.4384   32.6409   45.0191 H   0  0  0  0  0  0  0  0  0  0  0  0
   56.7898   31.9143   46.2620 H   0  0  0  0  0  0  0  0  0  0  0  0
   57.0152   32.6848   44.5989 H   0  0  0  0  0  0  0  0  0  0  0  0
   58.3470   30.8530   44.0070 H   0  0  0  0  0  0  0  0  0  0  0  0
   56.6513   28.9306   42.3823 H   0  0  0  0  0  0  0  0  0  0  0  0
   55.5221   30.3028   42.1202 H   0  0  0  0  0  0  0  0  0  0  0  0
   57.2959   30.5866   42.1202 H   0  0  0  0  0  0  0  0  0  0  0  0
   57.6906   29.7414   46.6311 H   0  0  0  0  0  0  0  0  0  0  0  0
   58.1533   28.7348   45.1623 H   0  0  0  0  0  0  0  0  0  0  0  0
   60.1799   28.9356   46.2345 H   0  0  0  0  0  0  0  0  0  0  0  0
   60.2053   30.3307   45.0734 H   0  0  0  0  0  0  0  0  0  0  0  0
  1  2  1  0
  2  3  1  0
  3  4  1  0
  4  5  1  0
  3  6  1  0
  6  7  1  0
  7  8  1  0
  8  9  1  0
  9 10  2  0
 10 11  1  0
 11 12  2  0
 12 13  1  0
 13 14  2  0
 13 15  1  0
 15 16  1  0
 16 17  1  0
 17 18  1  0
 18 19  1  0
 18 20  2  0
 17 21  1  0
 21 22  1  0
 14  9  1  0
 22 12  1  0
  1 23  1  0
  1 24  1  0
  1 25  1  0
  2 26  1  0
  2 27  1  0
  4 28  1  0
  4 29  1  0
  5 30  1  0
  5 31  1  0
  5 32  1  0
  6 33  1  0
  6 34  1  0
  7 35  1  0
  7 36  1  0
 10 37  1  0
 11 38  1  0
 14 39  1  0
 15 40  1  0
 15 41  1  0
 16 42  1  0
 16 43  1  0
 17 44  1  6
 19 45  1  0
 19 46  1  0
 19 47  1  0
 21 48  1  0
 21 49  1  0
 22 50  1  0
 22 51  1  0
M  CHG  1  17   1
M  END
>  <UniqueID>  (1) 
1

>  <SMILES>  (1) 
CCN(CC)CCOc1ccc2c(c1)CC[N@H+](C(C)=O)CC2

>  <Energy>  (1) 
72.43390259099866

>  <Genealogy>  (1) 
CCN(CC)CCOc1ccc2c(c1)CC[NH+](C(C)=O)CC2 (protonated)
CCN(CC)CCOc1ccc2c(c1)CC[N@H+](C(C)=O)CC2 (chirality)
CCN(CC)CCOc1ccc2c(c1)CC[N@H+](C(C)=O)CC2 (3D coordinates assigned)
CCN(CC)CCOc1ccc2c(c1)CC[N@H+](C(C)=O)CC2 (nonaromatic ring conformer: 72.43390259099866 kcal/mol)

>  <smiles>  (1) 
CCN(CC)CCOc1ccc2c(c1)CCN(C(C)=O)CC2

>  <score_type>  (1) 
oracle

>  <origin>  (1) 
adg

>  <m_score__min__energy>  (1) 
-4.0599999999999996

>  <m_primary>  (1) 
energy

$$$$
1:0
     RDKit          3D

 55 57  0  0  0  0  0  0  0  0999 V2000
   60.4550   29.8620   47.7340 C   0  0  0  0  0  0  0  0  0  0  0  0
   61.0970   30.6660   48.7170 O   0  0  0  0  0  0  0  0  0  0  0  0
   62.1040   31.6090   48.4440 C   0  0  0  0  0  0  0  0  0  0  0  0
   62.5090   31.9020   47.1260 C   0  0  0  0  0  0  0  0  0  0  0  0
   63.4990   32.8590   46.8870 C   0  0  0  0  0  0  0  0  0  0  0  0
   64.0910   33.5340   47.9540 C   0  0  0  0  0  0  0  0  0  0  0  0
   63.7020   33.2520   49.2640 C   0  0  0  0  0  0  0  0  0  0  0  0
   62.7210   32.2810   49.5210 C   0  0  0  0  0  0  0  0  0  0  0  0
   62.2910   32.0090   50.9430 C   0  0  0  0  0  0  0  0  0  0  0  0
   60.8420   31.7510   51.0060 N   0  0  0  0  0  0  0  0  0  0  0  0
   60.1310   32.7640   51.8150 C   0  0  0  0  0  0  0  0  0  0  0  0
   59.5220   33.8760   50.9490 C   0  0  0  0  0  0  0  0  0  0  0  0
   60.1750   33.9310   49.6840 O   0  0  0  0  0  0  0  0  0  0  0  0
   59.5460   33.7150   48.4510 C   0  0  0  0  0  0  0  0  0  0  0  0
   58.5380   32.7490   48.3830 C   0  0  0  0  0  0  0  0  0  0  0  0
   57.8840   32.4890   47.1760 C   0  0  0  0  0  0  0  0  0  0  0  0
   58.2160   33.2070   46.0160 C   0  0  0  0  0  0  0  0  0  0  0  0
   57.4860   32.9330   44.7180 C   0  0  0  0  0  0  0  0  0  0  0  0
   57.9420   31.7120   44.0130 N   0  0  0  0  0  0  0  0  0  0  0  0
   57.0230   31.2000   42.9780 C   0  0  0  0  0  0  0  0  0  0  0  0
   56.0020   30.1810   43.5340 C   0  0  0  0  0  0  0  0  0  0  0  0
   56.2290   29.8550   44.8910 O   0  0  0  0  0  0  0  0  0  0  0  0
   57.5720   29.4620   45.0650 C   0  0  0  0  0  0  0  0  0  0  0  0
   58.5190   30.6590   44.8770 C   0  0  0  0  0  0  0  0  0  0  0  0
   59.2430   34.1680   46.0800 C   0  0  0  0  0  0  0  0  0  0  0  0
   59.6190   34.8570   44.9720 F   0  0  0  0  0  0  0  0  0  0  0  0
   59.8970   34.4250   47.2880 C   0  0  0  0  0  0  0  0  0  0  0  0
   59.8425   29.0950   48.2306 H   0  0  0  0  0  0  0  0  0  0  0  0
   59.8112   30.4952   47.1058 H   0  0  0  0  0  0  0  0  0  0  0  0
   61.2149   29.3743   47.1058 H   0  0  0  0  0  0  0  0  0  0  0  0
   62.0431   31.3743   46.2807 H   0  0  0  0  0  0  0  0  0  0  0  0
   63.8117   33.0801   45.8558 H   0  0  0  0  0  0  0  0  0  0  0  0
   64.8664   34.2904   47.7625 H   0  0  0  0  0  0  0  0  0  0  0  0
   64.1669   33.7939   50.1008 H   0  0  0  0  0  0  0  0  0  0  0  0
   62.8317   31.1293   51.3222 H   0  0  0  0  0  0  0  0  0  0  0  0
   62.5212   32.8914   51.5581 H   0  0  0  0  0  0  0  0  0  0  0  0
   60.4650   31.7830   50.0290 H   0  0  0  0  0  0  0  0  0  0  0  0
   60.6590   30.7900   51.3820 H   0  0  0  0  0  0  0  0  0  0  0  0
   59.3236   32.2680   52.3736 H   0  0  0  0  0  0  0  0  0  0  0  0
   60.8621   33.2273   52.4938 H   0  0  0  0  0  0  0  0  0  0  0  0
   58.4519   33.6722   50.7964 H   0  0  0  0  0  0  0  0  0  0  0  0
   59.6525   34.8406   51.4614 H   0  0  0  0  0  0  0  0  0  0  0  0
   58.2573   32.1889   49.2872 H   0  0  0  0  0  0  0  0  0  0  0  0
   57.1028   31.7157   47.1342 H   0  0  0  0  0  0  0  0  0  0  0  0
   56.4144   32.8232   44.9409 H   0  0  0  0  0  0  0  0  0  0  0  0
   57.6966   33.7817   44.0506 H   0  0  0  0  0  0  0  0  0  0  0  0
   56.4726   32.0487   42.5458 H   0  0  0  0  0  0  0  0  0  0  0  0
   57.6312   30.6807   42.2228 H   0  0  0  0  0  0  0  0  0  0  0  0
   54.9931   30.6092   43.4405 H   0  0  0  0  0  0  0  0  0  0  0  0
   56.1109   29.2548   42.9507 H   0  0  0  0  0  0  0  0  0  0  0  0
   57.7006   29.0560   46.0792 H   0  0  0  0  0  0  0  0  0  0  0  0
   57.8162   28.6972   44.3131 H   0  0  0  0  0  0  0  0  0  0  0  0
   58.7373   31.0936   45.8636 H   0  0  0  0  0  0  0  0  0  0  0  0
   59.4306   30.2880   44.3857 H   0  0  0  0  0  0  0  0  0  0  0  0
   60.6901   35.1861   47.3298 H   0  0  0  0  0  0  0  0  0  0  0  0
  1  2  1  0
  2  3  1  0
  3  4  2  0
  4  5  1  0
  5  6  2  0
  6  7  1  0
  7  8  2  0
  8  9  1  0
  9 10  1  0
 10 11  1  0
 11 12  1  0
 12 13  1  0
 13 14  1  0
 14 15  2  0
 15 16  1  0
 16 17  2  0
 17 18  1  0
 18 19  1  0
 19 20  1  0
 20 21  1  0
 21 22  1  0
 22 23  1  0
 23 24  1  0
 17 25  1  0
 25 26  1  0
 25 27  2  0
  8  3  1  0
 27 14  1  0
 24 19  1  0
  1 28  1  0
  1 29  1  0
  1 30  1  0
  4 31  1  0
  5 32  1  0
  6 33  1  0
  7 34  1  0
  9 35  1  0
  9 36  1  0
 10 37  1  0
 10 38  1  0
 11 39  1  0
 11 40  1  0
 12 41  1  0
 12 42  1  0
 15 43  1  0
 16 44  1  0
 18 45  1  0
 18 46  1  0
 20 47  1  0
 20 48  1  0
 21 49  1  0
 21 50  1  0
 23 51  1  0
 23 52  1  0
 24 53  1  0
 24 54  1  0
 27 55  1  0
M  CHG  1  10   1
M  END
>  <UniqueID>  (2) 
2

>  <SMILES>  (2) 
COc1ccccc1C[NH2+]CCOc1ccc(CN2CCOCC2)c(F)c1

>  <Energy>  (2) 
68.39082901167932

>  <Genealogy>  (2) 
COc1ccccc1C[NH2+]CCOc1ccc(CN2CCOCC2)c(F)c1 (protonated)
COc1ccccc1C[NH2+]CCOc1ccc(CN2CCOCC2)c(F)c1 (3D coordinates assigned)
COc1ccccc1C[NH2+]CCOc1ccc(CN2CCOCC2)c(F)c1 (nonaromatic ring conformer: 68.39082901167932 kcal/mol)

>  <smiles>  (2) 
COc1ccccc1CNCCOc1ccc(CN2CCOCC2)c(F)c1

>  <score_type>  (2) 
oracle

>  <origin>  (2) 
adg

>  <m_score__min__energy>  (2) 
-5.3600000000000003

>  <m_primary>  (2) 
energy

$$$$
2:0
     RDKit          3D

 47 48  0  0  0  0  0  0  0  0999 V2000
   61.9500   31.3040   47.1370 C   0  0  0  0  0  0  0  0  0  0  0  0
   62.9700   31.5440   48.2470 C   0  0  0  0  0  0  0  0  0  0  0  0
   63.6490   32.8370   48.0630 N   0  0  0  0  0  0  0  0  0  0  0  0
   63.9800   33.4790   49.3490 C   0  0  0  0  0  0  0  0  0  0  0  0
   62.8050   34.2600   49.9660 C   0  0  0  0  0  0  0  0  0  0  0  0
   61.8180   34.5740   48.9820 O   0  0  0  0  0  0  0  0  0  0  0  0
   60.6230   33.8740   48.7390 C   0  0  0  0  0  0  0  0  0  0  0  0
   60.0250   32.9930   49.6730 C   0  0  0  0  0  0  0  0  0  0  0  0
   58.8160   32.3420   49.3630 C   0  0  0  0  0  0  0  0  0  0  0  0
   58.1970   32.5460   48.1220 C   0  0  0  0  0  0  0  0  0  0  0  0
   58.8150   33.4000   47.2060 C   0  0  0  0  0  0  0  0  0  0  0  0
   59.9830   34.0480   47.5080 C   0  0  0  0  0  0  0  0  0  0  0  0
   60.3940   34.9310   46.3790 C   0  0  0  0  0  0  0  0  0  0  0  0
   59.2560   34.7520   45.3450 C   0  0  0  0  0  0  0  0  0  0  0  0
   58.3530   33.7520   45.9130 N   0  0  0  0  0  0  0  0  0  0  0  0
   57.1190   33.2930   45.2730 C   0  0  0  0  0  0  0  0  0  0  0  0
   57.4070   32.2480   44.1880 C   0  0  0  0  0  0  0  0  0  0  0  0
   57.4990   30.8280   44.7590 C   0  0  0  0  0  0  0  0  0  0  0  0
   56.2080   30.2500   44.8280 O   0  0  0  0  0  0  0  0  0  0  0  0
   55.8280   29.7370   43.5700 C   0  0  0  0  0  0  0  0  0  0  0  0
   60.9709   31.0736   47.5823 H   0  0  0  0  0  0  0  0  0  0  0  0
   61.8663   32.2070   46.5144 H   0  0  0  0  0  0  0  0  0  0  0  0
   62.2777   30.4584   46.5144 H   0  0  0  0  0  0  0  0  0  0  0  0
   62.4531   31.5432   49.2180 H   0  0  0  0  0  0  0  0  0  0  0  0
   63.7228   30.7427   48.2130 H   0  0  0  0  0  0  0  0  0  0  0  0
   64.5070   32.7240   47.4790 H   0  0  0  0  0  0  0  0  0  0  0  0
   62.9990   33.4760   47.5450 H   0  0  0  0  0  0  0  0  0  0  0  0
   64.2896   32.6977   50.0587 H   0  0  0  0  0  0  0  0  0  0  0  0
   64.7826   34.2048   49.1512 H   0  0  0  0  0  0  0  0  0  0  0  0
   62.3429   33.6484   50.7549 H   0  0  0  0  0  0  0  0  0  0  0  0
   63.1934   35.2015   50.3816 H   0  0  0  0  0  0  0  0  0  0  0  0
   60.5078   32.8166   50.6455 H   0  0  0  0  0  0  0  0  0  0  0  0
   58.3538   31.6685   50.0997 H   0  0  0  0  0  0  0  0  0  0  0  0
   57.2486   32.0461   47.8759 H   0  0  0  0  0  0  0  0  0  0  0  0
   60.4665   35.9788   46.7060 H   0  0  0  0  0  0  0  0  0  0  0  0
   61.3841   34.6746   45.9740 H   0  0  0  0  0  0  0  0  0  0  0  0
   58.7255   35.7033   45.1912 H   0  0  0  0  0  0  0  0  0  0  0  0
   59.6454   34.4353   44.3662 H   0  0  0  0  0  0  0  0  0  0  0  0
   56.4649   32.8458   46.0360 H   0  0  0  0  0  0  0  0  0  0  0  0
   56.6317   34.1582   44.7999 H   0  0  0  0  0  0  0  0  0  0  0  0
   56.5977   32.2784   43.4436 H   0  0  0  0  0  0  0  0  0  0  0  0
   58.3788   32.4924   43.7343 H   0  0  0  0  0  0  0  0  0  0  0  0
   58.1388   30.2142   44.1080 H   0  0  0  0  0  0  0  0  0  0  0  0
   57.9297   30.8722   45.7702 H   0  0  0  0  0  0  0  0  0  0  0  0
   55.1788   28.8605   43.7124 H   0  0  0  0  0  0  0  0  0  0  0  0
   55.2828   30.5098   43.0084 H   0  0  0  0  0  0  0  0  0  0  0  0
   56.7262   29.4406   43.0084 H   0  0  0  0  0  0  0  0  0  0  0  0
  1  2  1  0
  2  3  1  0
  3  4  1  0
  4  5  1  0
  5  6  1  0
  6  7  1  0
  7  8  2  0
  8  9  1  0
  9 10  2  0
 10 11  1  0
 11 12  2  0
 12 13  1  0
 13 14  1  0
 14 15  1  0
 15 16  1  0
 16 17  1  0
 17 18  1  0
 18 19  1  0
 19 20  1  0
 12  7  1  0
 15 11  1  0
  1 21  1  0
  1 22  1  0
  1 23  1  0
  2 24  1  0
  2 25  1  0
  3 26  1  0
  3 27  1  0
  4 28  1  0
  4 29  1  0
  5 30  1  0
  5 31  1  0
  8 32  1  0
  9 33  1  0
 10 34  1  0
 13 35  1  0
 13 36  1  0
 14 37  1  0
 14 38  1  0
 16 39  1  0
 16 40  1  0
 17 41  1  0
 17 42  1  0
 18 43  1  0
 18 44  1  0
 20 45  1  0
 20 46  1  0
 20 47  1  0
M  CHG  1   3   1
M  END
>  <UniqueID>  (3) 
3

>  <SMILES>  (3) 
CC[NH2+]CCOc1cccc2c1CCN2CCCOC

>  <Energy>  (3) 
54.13137105981216

>  <Genealogy>  (3) 
CC[NH2+]CCOc1cccc2c1CCN2CCCOC (protonated)
CC[NH2+]CCOc1cccc2c1CCN2CCCOC (3D coordinates assigned)
CC[NH2+]CCOc1cccc2c1CCN2CCCOC (nonaromatic ring conformer: 54.13137105981216 kcal/mol)

>  <smiles>  (3) 
CCNCCOc1cccc2c1CCN2CCCOC

>  <score_type>  (3) 
oracle

>  <origin>  (3) 
adg

>  <m_score__min__energy>  (3) 
-4.8899999999999997

>  <m_primary>  (3) 
energy

$$$$
3:0
     RDKit          3D

 51 53  0  0  0  0  0  0  0  0999 V2000
   57.0350   24.4620   44.0270 C   0  0  0  0  0  0  0  0  0  0  0  0
   58.0470   24.4910   45.1690 C   0  0  0  0  0  0  0  0  0  0  0  0
   57.5620   25.3550   46.2690 N   0  0  0  0  0  0  0  0  0  0  0  0
   57.1130   24.5460   47.4160 C   0  0  0  0  0  0  0  0  0  0  0  0
   58.5750   26.3520   46.6870 C   0  0  0  0  0  0  0  0  0  0  0  0
   57.8980   27.5480   47.3680 C   0  0  0  0  0  0  0  0  0  0  0  0
   57.3490   28.4930   46.3890 N   0  0  0  0  0  0  0  0  0  0  0  0
   56.2970   28.2460   45.5780 C   0  0  0  0  0  0  0  0  0  0  0  0
   55.5320   27.0870   45.6210 O   0  0  0  0  0  0  0  0  0  0  0  0
   56.1150   29.2820   44.6950 C   0  0  0  0  0  0  0  0  0  0  0  0
   55.1350   29.3680   43.7100 O   0  0  0  0  0  0  0  0  0  0  0  0
   57.0950   30.2180   44.9550 C   0  0  0  0  0  0  0  0  0  0  0  0
   57.3230   31.4570   44.1840 C   0  0  0  0  0  0  0  0  0  0  0  0
   57.0140   31.4820   42.9630 O   0  0  0  0  0  0  0  0  0  0  0  0
   57.8940   32.6680   44.8000 C   0  0  0  0  0  0  0  0  0  0  0  0
   58.8970   33.4570   44.2500 C   0  0  0  0  0  0  0  0  0  0  0  0
   59.2280   34.5630   45.0410 C   0  0  0  0  0  0  0  0  0  0  0  0
   58.4800   34.6610   46.2060 C   0  0  0  0  0  0  0  0  0  0  0  0
   57.4050   33.3690   46.2510 S   0  0  0  0  0  0  0  0  0  0  0  0
   57.8590   29.6950   46.0030 C   0  0  0  0  0  0  0  0  0  0  0  0
   59.1380   30.2640   46.4900 C   0  0  0  0  0  0  0  0  0  0  0  0
   60.3620   29.8390   45.9510 C   0  0  0  0  0  0  0  0  0  0  0  0
   61.5640   30.3460   46.4500 C   0  0  0  0  0  0  0  0  0  0  0  0
   61.5560   31.2700   47.4960 C   0  0  0  0  0  0  0  0  0  0  0  0
   60.3460   31.6990   48.0540 C   0  0  0  0  0  0  0  0  0  0  0  0
   60.3900   32.6120   49.1170 O   0  0  0  0  0  0  0  0  0  0  0  0
   60.1410   34.0080   48.9880 C   0  0  0  0  0  0  0  0  0  0  0  0
   59.1350   31.1980   47.5390 C   0  0  0  0  0  0  0  0  0  0  0  0
   56.0161   24.4328   44.4406 H   0  0  0  0  0  0  0  0  0  0  0  0
   57.1540   25.3639   43.4086 H   0  0  0  0  0  0  0  0  0  0  0  0
   57.2054   23.5684   43.4086 H   0  0  0  0  0  0  0  0  0  0  0  0
   58.1936   23.4692   45.5489 H   0  0  0  0  0  0  0  0  0  0  0  0
   58.9980   24.8951   44.7918 H   0  0  0  0  0  0  0  0  0  0  0  0
   57.3930   25.0505   48.3525 H   0  0  0  0  0  0  0  0  0  0  0  0
   56.0201   24.4277   47.3758 H   0  0  0  0  0  0  0  0  0  0  0  0
   57.5907   23.5560   47.3758 H   0  0  0  0  0  0  0  0  0  0  0  0
   59.2763   25.8824   47.3924 H   0  0  0  0  0  0  0  0  0  0  0  0
   59.1153   26.7067   45.7969 H   0  0  0  0  0  0  0  0  0  0  0  0
   57.0801   27.1793   48.0045 H   0  0  0  0  0  0  0  0  0  0  0  0
   58.6562   28.0759   47.9651 H   0  0  0  0  0  0  0  0  0  0  0  0
   55.3270   29.8110   42.8200 H   0  0  0  0  0  0  0  0  0  0  0  0
   59.3826   33.2343   43.2884 H   0  0  0  0  0  0  0  0  0  0  0  0
   60.0085   35.2874   44.7651 H   0  0  0  0  0  0  0  0  0  0  0  0
   58.5742   35.4483   46.9685 H   0  0  0  0  0  0  0  0  0  0  0  0
   60.3748   29.1040   45.1327 H   0  0  0  0  0  0  0  0  0  0  0  0
   62.5199   30.0160   46.0172 H   0  0  0  0  0  0  0  0  0  0  0  0
   62.5068   31.6637   47.8845 H   0  0  0  0  0  0  0  0  0  0  0  0
   60.0604   34.4600   49.9876 H   0  0  0  0  0  0  0  0  0  0  0  0
   60.9693   34.4789   48.4384 H   0  0  0  0  0  0  0  0  0  0  0  0
   59.2009   34.1635   48.4384 H   0  0  0  0  0  0  0  0  0  0  0  0
   58.1790   31.5408   47.9616 H   0  0  0  0  0  0  0  0  0  0  0  0
  1  2  1  0
  2  3  1  0
  3  4  1  0
  3  5  1  0
  5  6  1  0
  6  7  1  0
  7  8  1  0
  8  9  1  0
  8 10  2  0
 10 11  1  0
 10 12  1  0
 12 13  1  0
 13 14  2  0
 13 15  1  0
 15 16  2  0
 16 17  1  0
 17 18  2  0
 18 19  1  0
 12 20  2  0
 20 21  1  0
 21 22  2  0
 22 23  1  0
 23 24  2  0
 24 25  1  0
 25 26  1  0
 26 27  1  0
 25 28  2  0
 20  7  1  0
 28 21  1  0
 19 15  1  0
  1 29  1  0
  1 30  1  0
  1 31  1  0
  2 32  1  0
  2 33  1  0
  4 34  1  0
  4 35  1  0
  4 36  1  0
  5 37  1  0
  5 38  1  0
  6 39  1  0
  6 40  1  0
 11 41  1  0
 16 42  1  0
 17 43  1  0
 18 44  1  0
 22 45  1  0
 23 46  1  0
 24 47  1  0
 27 48  1  0
 27 49  1  0
 27 50  1  0
 28 51  1  0
M  CHG  1   9  -1
M  END
>  <UniqueID>  (4) 
4

>  <SMILES>  (4) 
CCN(C)CCn1c([O-])c(O)c(C(=O)c2cccs2)c1-c1cccc(OC)c1

>  <Energy>  (4) 
112.14856699871567

>  <Genealogy>  (4) 
CCN(C)CCn1c([O-])c(O)c(C(=O)c2cccs2)c1-c1cccc(OC)c1 (protonated)
CCN(C)CCn1c([O-])c(O)c(C(=O)c2cccs2)c1-c1cccc(OC)c1 (3D coordinates assigned)
CCN(C)CCn1c([O-])c(O)c(C(=O)c2cccs2)c1-c1cccc(OC)c1 (optimized conformer: 112.14856699871567 kcal/mol)

>  <smiles>  (4) 
CCN(C)CCn1c(O)c(O)c(C(=O)c2cccs2)c1-c1cccc(OC)c1

>  <score_type>  (4) 
oracle

>  <origin>  (4) 
adg

>  <m_score__min__energy>  (4) 
-9.4000000000000004

>  <m_primary>  (4) 
energy

$$$$
4:0
     RDKit          3D

 37 38  0  0  0  0  0  0  0  0999 V2000
   60.5090   28.9320   44.8630 C   0  0  0  0  0  0  0  0  0  0  0  0
   60.4110   29.0360   46.3760 C   0  0  0  0  0  0  0  0  0  0  0  0
   60.4190   27.7310   46.9440 O   0  0  0  0  0  0  0  0  0  0  0  0
   59.3070   26.8870   46.9090 C   0  0  0  0  0  0  0  0  0  0  0  0
   59.4460   25.6400   46.7740 O   0  0  0  0  0  0  0  0  0  0  0  0
   57.9330   27.4780   46.9860 C   0  0  0  0  0  0  0  0  0  0  0  0
   56.9830   26.7940   45.9990 C   0  0  0  0  0  0  0  0  0  0  0  0
   55.8980   27.6910   45.6070 N   0  0  0  0  0  0  0  0  0  0  0  0
   56.0470   28.9060   44.8620 C   0  0  0  0  0  0  0  0  0  0  0  0
   55.1730   29.8030   44.9860 O   0  0  0  0  0  0  0  0  0  0  0  0
   57.2400   29.1680   43.9860 C   0  0  0  0  0  0  0  0  0  0  0  0
   57.0040   30.6900   43.0050 S   0  0  0  0  0  0  0  0  0  0  0  0
   57.6960   31.7840   44.2440 C   0  0  0  0  0  0  0  0  0  0  0  0
   58.1590   33.0750   44.0050 C   0  0  0  0  0  0  0  0  0  0  0  0
   58.6550   33.6770   45.1660 C   0  0  0  0  0  0  0  0  0  0  0  0
   59.1840   34.9660   45.2650 C   0  0  0  0  0  0  0  0  0  0  0  0
   59.6420   35.4150   46.5150 C   0  0  0  0  0  0  0  0  0  0  0  0
   59.5660   34.5780   47.6460 C   0  0  0  0  0  0  0  0  0  0  0  0
   59.0340   33.2850   47.5360 C   0  0  0  0  0  0  0  0  0  0  0  0
   58.5860   32.8610   46.2870 C   0  0  0  0  0  0  0  0  0  0  0  0
   57.9110   31.3810   45.8710 S   0  0  0  0  0  0  0  0  0  0  0  0
   61.2407   28.1555   44.5955 H   0  0  0  0  0  0  0  0  0  0  0  0
   59.5249   28.6667   44.4492 H   0  0  0  0  0  0  0  0  0  0  0  0
   60.8323   29.8986   44.4492 H   0  0  0  0  0  0  0  0  0  0  0  0
   61.2683   29.6081   46.7603 H   0  0  0  0  0  0  0  0  0  0  0  0
   59.4762   29.5479   46.6480 H   0  0  0  0  0  0  0  0  0  0  0  0
   57.5436   27.3502   48.0068 H   0  0  0  0  0  0  0  0  0  0  0  0
   57.9966   28.5453   46.7274 H   0  0  0  0  0  0  0  0  0  0  0  0
   57.5476   26.4994   45.1021 H   0  0  0  0  0  0  0  0  0  0  0  0
   56.5470   25.9105   46.4883 H   0  0  0  0  0  0  0  0  0  0  0  0
   58.1332   29.2813   44.6179 H   0  0  0  0  0  0  0  0  0  0  0  0
   57.3634   28.3201   43.2962 H   0  0  0  0  0  0  0  0  0  0  0  0
   58.1373   33.5637   43.0198 H   0  0  0  0  0  0  0  0  0  0  0  0
   59.2409   35.6175   44.3805 H   0  0  0  0  0  0  0  0  0  0  0  0
   60.0628   36.4268   46.6114 H   0  0  0  0  0  0  0  0  0  0  0  0
   59.9258   34.9406   48.6202 H   0  0  0  0  0  0  0  0  0  0  0  0
   58.9722   32.6234   48.4126 H   0  0  0  0  0  0  0  0  0  0  0  0
  1  2  1  0
  2  3  1  0
  3  4  1  0
  4  5  2  0
  4  6  1  0
  6  7  1  0
  7  8  1  0
  8  9  1  0
  9 10  2  0
  9 11  1  0
 11 12  1  0
 12 13  1  0
 13 14  2  0
 14 15  1  0
 15 16  2  0
 16 17  1  0
 17 18  2  0
 18 19  1  0
 19 20  2  0
 20 21  1  0
 21 13  1  0
 20 15  1  0
  1 22  1  0
  1 23  1  0
  1 24  1  0
  2 25  1  0
  2 26  1  0
  6 27  1  0
  6 28  1  0
  7 29  1  0
  7 30  1  0
 11 31  1  0
 11 32  1  0
 14 33  1  0
 16 34  1  0
 17 35  1  0
 18 36  1  0
 19 37  1  0
M  CHG  1   8  -1
M  END
>  <UniqueID>  (5) 
5

>  <SMILES>  (5) 
CCOC(=O)CC[N-]C(=O)CSc1cc2ccccc2s1

>  <Energy>  (5) 
53.9347556698766

>  <Genealogy>  (5) 
CCOC(=O)CC[N-]C(=O)CSc1cc2ccccc2s1 (protonated)
CCOC(=O)CC[N-]C(=O)CSc1cc2ccccc2s1 (3D coordinates assigned)
CCOC(=O)CC[N-]C(=O)CSc1cc2ccccc2s1 (optimized conformer: 53.9347556698766 kcal/mol)

>  <smiles>  (5) 
CCOC(=O)CCNC(=O)CSc1cc2ccccc2s1

>  <score_type>  (5) 
oracle

>  <origin>  (5) 
adg

>  <m_score__min__energy>  (5) 
-9.8900000000000006

>  <m_primary>  (5) 
energy

$$$$
5:0
     RDKit          3D

 45 46  0  0  0  0  0  0  0  0999 V2000
   58.4320   34.1930   45.6750 C   0  0  0  0  0  0  0  0  0  0  0  0
   58.7130   33.7780   44.2300 C   0  0  0  0  0  0  0  0  0  0  0  0
   57.7470   32.7520   43.7740 N   0  0  0  0  0  0  0  0  0  0  0  0
   58.0360   32.3720   42.3760 C   0  0  0  0  0  0  0  0  0  0  0  0
   57.7860   31.5580   44.6570 C   0  0  0  0  0  0  0  0  0  0  0  0
   57.1960   30.3150   43.9640 C   0  0  0  0  0  0  0  0  0  0  0  0
   56.3870   29.4560   44.8890 C   0  0  0  0  0  0  0  0  0  0  0  0
   55.1450   29.3240   44.6960 O   0  0  0  0  0  0  0  0  0  0  0  0
   57.0290   28.8150   46.0000 N   0  0  0  0  0  0  0  0  0  0  0  0
   57.6210   27.5070   46.0030 C   0  0  0  0  0  0  0  0  0  0  0  0
   56.9300   26.3840   45.5090 C   0  0  0  0  0  0  0  0  0  0  0  0
   57.5480   25.1300   45.4840 C   0  0  0  0  0  0  0  0  0  0  0  0
   58.8630   24.9860   45.9320 C   0  0  0  0  0  0  0  0  0  0  0  0
   59.5670   26.0970   46.4000 C   0  0  0  0  0  0  0  0  0  0  0  0
   58.9520   27.3590   46.4370 C   0  0  0  0  0  0  0  0  0  0  0  0
   59.6740   28.4890   46.9430 N   0  0  0  0  0  0  0  0  0  0  0  0
   60.1560   28.4650   48.3240 C   0  0  0  0  0  0  0  0  0  0  0  0
   60.3350   29.9020   48.8260 C   0  0  0  0  0  0  0  0  0  0  0  0
   61.1400   30.6490   47.9320 O   0  0  0  0  0  0  0  0  0  0  0  0
   60.4800   30.7860   46.6860 C   0  0  0  0  0  0  0  0  0  0  0  0
   60.3060   29.4220   46.0090 C   0  0  0  0  0  0  0  0  0  0  0  0
   58.9140   33.4812   46.3613 H   0  0  0  0  0  0  0  0  0  0  0  0
   58.8336   35.2017   45.8515 H   0  0  0  0  0  0  0  0  0  0  0  0
   57.3463   34.1946   45.8515 H   0  0  0  0  0  0  0  0  0  0  0  0
   58.6325   34.6617   43.5800 H   0  0  0  0  0  0  0  0  0  0  0  0
   59.7260   33.3523   44.1788 H   0  0  0  0  0  0  0  0  0  0  0  0
   58.7018   31.4965   42.3642 H   0  0  0  0  0  0  0  0  0  0  0  0
   57.0958   32.1246   41.8614 H   0  0  0  0  0  0  0  0  0  0  0  0
   58.5256   33.2120   41.8614 H   0  0  0  0  0  0  0  0  0  0  0  0
   58.8313   31.3510   44.9301 H   0  0  0  0  0  0  0  0  0  0  0  0
   57.1795   31.7724   45.5493 H   0  0  0  0  0  0  0  0  0  0  0  0
   56.5488   30.6478   43.1392 H   0  0  0  0  0  0  0  0  0  0  0  0
   58.0398   29.7074   43.6050 H   0  0  0  0  0  0  0  0  0  0  0  0
   55.8992   26.4937   45.1410 H   0  0  0  0  0  0  0  0  0  0  0  0
   56.9969   24.2544   45.1104 H   0  0  0  0  0  0  0  0  0  0  0  0
   59.3441   23.9969   45.9161 H   0  0  0  0  0  0  0  0  0  0  0  0
   60.6067   25.9836   46.7408 H   0  0  0  0  0  0  0  0  0  0  0  0
   59.4249   27.9429   48.9588 H   0  0  0  0  0  0  0  0  0  0  0  0
   61.1205   27.9379   48.3673 H   0  0  0  0  0  0  0  0  0  0  0  0
   59.3482   30.3808   48.9091 H   0  0  0  0  0  0  0  0  0  0  0  0
   60.8301   29.8740   49.8079 H   0  0  0  0  0  0  0  0  0  0  0  0
   59.4898   31.2361   46.8501 H   0  0  0  0  0  0  0  0  0  0  0  0
   61.0893   31.4283   46.0332 H   0  0  0  0  0  0  0  0  0  0  0  0
   59.6716   29.5338   45.1173 H   0  0  0  0  0  0  0  0  0  0  0  0
   61.2910   29.0322   45.7127 H   0  0  0  0  0  0  0  0  0  0  0  0
  1  2  1  0
  2  3  1  0
  3  4  1  0
  3  5  1  0
  5  6  1  0
  6  7  1  0
  7  8  2  0
  7  9  1  0
  9 10  1  0
 10 11  2  0
 11 12  1  0
 12 13  2  0
 13 14  1  0
 14 15  2  0
 15 16  1  0
 16 17  1  0
 17 18  1  0
 18 19  1  0
 19 20  1  0
 20 21  1  0
 15 10  1  0
 21 16  1  0
  1 22  1  0
  1 23  1  0
  1 24  1  0
  2 25  1  0
  2 26  1  0
  4 27  1  0
  4 28  1  0
  4 29  1  0
  5 30  1  0
  5 31  1  0
  6 32  1  0
  6 33  1  0
 11 34  1  0
 12 35  1  0
 13 36  1  0
 14 37  1  0
 17 38  1  0
 17 39  1  0
 18 40  1  0
 18 41  1  0
 20 42  1  0
 20 43  1  0
 21 44  1  0
 21 45  1  0
M  CHG  1   9  -1
M  END
>  <UniqueID>  (6) 
6

>  <SMILES>  (6) 
CCN(C)CCC(=O)[N-]c1ccccc1N1CCOCC1

>  <Energy>  (6) 
51.91194006387972

>  <Genealogy>  (6) 
CCN(C)CCC(=O)[N-]c1ccccc1N1CCOCC1 (protonated)
CCN(C)CCC(=O)[N-]c1ccccc1N1CCOCC1 (3D coordinates assigned)
CCN(C)CCC(=O)[N-]c1ccccc1N1CCOCC1 (nonaromatic ring conformer: 51.91194006387972 kcal/mol)

>  <smiles>  (6) 
CCN(C)CCC(=O)Nc1ccccc1N1CCOCC1

>  <score_type>  (6) 
oracle

>  <origin>  (6) 
adg

>  <m_score__min__energy>  (6) 
-8.1699999999999999

>  <m_primary>  (6) 
energy

$$$$
6:0
     RDKit          3D

 43 45  0  0  0  0  0  0  0  0999 V2000
   62.9220   34.0210   49.2900 C   0  0  0  0  0  0  0  0  0  0  0  0
   63.3610   32.6490   48.9210 N   0  0  0  0  0  0  0  0  0  0  0  0
   64.7480   32.4860   49.4330 C   0  0  0  0  0  0  0  0  0  0  0  0
   63.3920   32.5080   47.4330 C   0  0  0  0  0  0  0  0  0  0  0  0
   63.3230   33.8250   46.6340 C   0  0  0  0  0  0  0  0  0  0  0  0
   62.0090   34.1740   46.3760 F   0  0  0  0  0  0  0  0  0  0  0  0
   62.4480   31.6700   49.6000 C   0  0  0  0  0  0  0  0  0  0  0  0
   60.9970   32.1540   49.8880 C   0  0  0  0  0  0  0  0  0  0  0  0
   60.1530   32.1440   48.6780 N   0  0  0  0  0  0  0  0  0  0  0  0
   59.6960   30.9090   48.0930 C   0  0  0  0  0  0  0  0  0  0  0  0
   59.8470   29.8180   48.7090 O   0  0  0  0  0  0  0  0  0  0  0  0
   59.0360   30.9210   46.7680 C   0  0  0  0  0  0  0  0  0  0  0  0
   58.7150   29.7180   46.1170 C   0  0  0  0  0  0  0  0  0  0  0  0
   58.0980   29.7310   44.8660 C   0  0  0  0  0  0  0  0  0  0  0  0
   57.7900   30.9410   44.2450 C   0  0  0  0  0  0  0  0  0  0  0  0
   58.0980   32.1550   44.8750 C   0  0  0  0  0  0  0  0  0  0  0  0
   57.7800   33.3730   44.2570 C   0  0  0  0  0  0  0  0  0  0  0  0
   58.0780   34.5800   44.8890 C   0  0  0  0  0  0  0  0  0  0  0  0
   58.6970   34.5870   46.1400 C   0  0  0  0  0  0  0  0  0  0  0  0
   59.0300   33.3790   46.7780 C   0  0  0  0  0  0  0  0  0  0  0  0
   58.7290   32.1520   46.1450 C   0  0  0  0  0  0  0  0  0  0  0  0
   59.6990   33.3840   48.0980 C   0  0  0  0  0  0  0  0  0  0  0  0
   59.8700   34.4720   48.7140 O   0  0  0  0  0  0  0  0  0  0  0  0
   62.8922   34.1142   50.3856 H   0  0  0  0  0  0  0  0  0  0  0  0
   63.6300   34.7556   48.8787 H   0  0  0  0  0  0  0  0  0  0  0  0
   61.9191   34.2081   48.8787 H   0  0  0  0  0  0  0  0  0  0  0  0
   64.7354   32.4875   50.5329 H   0  0  0  0  0  0  0  0  0  0  0  0
   65.1624   31.5330   49.0724 H   0  0  0  0  0  0  0  0  0  0  0  0
   65.3720   33.3170   49.0724 H   0  0  0  0  0  0  0  0  0  0  0  0
   64.3274   31.9969   47.1616 H   0  0  0  0  0  0  0  0  0  0  0  0
   62.4835   31.9481   47.1663 H   0  0  0  0  0  0  0  0  0  0  0  0
   63.8013   34.6260   47.2167 H   0  0  0  0  0  0  0  0  0  0  0  0
   63.8455   33.6846   45.6762 H   0  0  0  0  0  0  0  0  0  0  0  0
   62.3813   30.7773   48.9608 H   0  0  0  0  0  0  0  0  0  0  0  0
   62.8963   31.4933   50.5888 H   0  0  0  0  0  0  0  0  0  0  0  0
   60.5453   31.4902   50.6399 H   0  0  0  0  0  0  0  0  0  0  0  0
   61.0538   33.1911   50.2502 H   0  0  0  0  0  0  0  0  0  0  0  0
   58.9523   28.7576   46.5980 H   0  0  0  0  0  0  0  0  0  0  0  0
   57.8531   28.7819   44.3668 H   0  0  0  0  0  0  0  0  0  0  0  0
   57.3041   30.9430   43.2582 H   0  0  0  0  0  0  0  0  0  0  0  0
   57.2938   33.3764   43.2703 H   0  0  0  0  0  0  0  0  0  0  0  0
   57.8239   35.5315   44.3990 H   0  0  0  0  0  0  0  0  0  0  0  0
   58.9260   35.5446   46.6304 H   0  0  0  0  0  0  0  0  0  0  0  0
  1  2  1  0
  2  3  1  0
  2  4  1  0
  4  5  1  0
  5  6  1  0
  2  7  1  0
  7  8  1  0
  8  9  1  0
  9 10  1  0
 10 11  2  0
 10 12  1  0
 12 13  1  0
 13 14  2  0
 14 15  1  0
 15 16  2  0
 16 17  1  0
 17 18  2  0
 18 19  1  0
 19 20  2  0
 20 21  1  0
 20 22  1  0
 22 23  2  0
 22  9  1  0
 21 12  2  0
 21 16  1  0
  1 24  1  0
  1 25  1  0
  1 26  1  0
  3 27  1  0
  3 28  1  0
  3 29  1  0
  4 30  1  0
  4 31  1  0
  5 32  1  0
  5 33  1  0
  7 34  1  0
  7 35  1  0
  8 36  1  0
  8 37  1  0
 13 38  1  0
 14 39  1  0
 15 40  1  0
 17 41  1  0
 18 42  1  0
 19 43  1  0
M  CHG  1   2   1
M  END
>  <UniqueID>  (7) 
7

>  <SMILES>  (7) 
C[N+](C)(CCF)CCN1C(=O)c2cccc3cccc(c23)C1=O

>  <Energy>  (7) 
62.9124431910335

>  <Genealogy>  (7) 
C[N+](C)(CCF)CCN1C(=O)c2cccc3cccc(c23)C1=O (3D coordinates assigned)
C[N+](C)(CCF)CCN1C(=O)c2cccc3cccc(c23)C1=O (nonaromatic ring conformer: 62.9124431910335 kcal/mol)

>  <smiles>  (7) 
C[N+](C)(CCF)CCN1C(=O)c2cccc3cccc(c23)C1=O

>  <score_type>  (7) 
oracle

>  <origin>  (7) 
adg

>  <m_score__min__energy>  (7) 
-5.4199999999999999

>  <m_primary>  (7) 
energy

$$$$
7:0
     RDKit          3D

 50 52  0  0  0  0  0  0  0  0999 V2000
   58.7650   31.6280   50.5000 C   0  0  0  0  0  0  0  0  0  0  0  0
   58.9610   30.3610   49.6560 C   0  0  0  0  0  0  0  0  0  0  0  0
   60.2430   30.2850   48.9130 N   0  0  1  0  0  0  0  0  0  0  0  0
   61.4440   30.6110   49.7200 C   0  0  0  0  0  0  0  0  0  0  0  0
   62.3020   31.6390   49.0400 C   0  0  0  0  0  0  0  0  0  0  0  0
   63.5200   32.1040   49.5030 C   0  0  0  0  0  0  0  0  0  0  0  0
   63.9630   32.9990   48.5530 C   0  0  0  0  0  0  0  0  0  0  0  0
   62.9900   33.0130   47.5710 C   0  0  0  0  0  0  0  0  0  0  0  0
   63.0180   33.8450   46.3340 C   0  0  0  0  0  0  0  0  0  0  0  0
   62.0090   32.1970   47.8880 O   0  0  0  0  0  0  0  0  0  0  0  0
   60.4030   29.0020   48.2480 C   0  0  0  0  0  0  0  0  0  0  0  0
   60.6360   27.9930   48.9020 O   0  0  0  0  0  0  0  0  0  0  0  0
   60.2610   28.8720   46.7490 C   0  0  0  0  0  0  0  0  0  0  0  0
   59.7970   30.0770   46.1420 O   0  0  0  0  0  0  0  0  0  0  0  0
   58.7110   30.1880   45.2550 C   0  0  0  0  0  0  0  0  0  0  0  0
   58.1900   29.0740   44.5710 C   0  0  0  0  0  0  0  0  0  0  0  0
   57.1170   29.2190   43.6870 C   0  0  0  0  0  0  0  0  0  0  0  0
   56.5410   30.4740   43.4860 C   0  0  0  0  0  0  0  0  0  0  0  0
   57.0310   31.5840   44.1730 C   0  0  0  0  0  0  0  0  0  0  0  0
   58.1190   31.4580   45.0540 C   0  0  0  0  0  0  0  0  0  0  0  0
   58.6190   32.6560   45.7690 C   0  0  0  0  0  0  0  0  0  0  0  0
   59.0990   33.7620   45.0440 C   0  0  0  0  0  0  0  0  0  0  0  0
   59.5760   34.8910   45.7130 C   0  0  0  0  0  0  0  0  0  0  0  0
   59.5770   34.9280   47.1110 C   0  0  0  0  0  0  0  0  0  0  0  0
   59.1160   33.8300   47.8400 C   0  0  0  0  0  0  0  0  0  0  0  0
   58.6440   32.6940   47.1740 C   0  0  0  0  0  0  0  0  0  0  0  0
   58.8054   31.3671   51.5679 H   0  0  0  0  0  0  0  0  0  0  0  0
   59.5622   32.3497   50.2685 H   0  0  0  0  0  0  0  0  0  0  0  0
   57.7870   32.0751   50.2685 H   0  0  0  0  0  0  0  0  0  0  0  0
   58.9066   29.4927   50.3291 H   0  0  0  0  0  0  0  0  0  0  0  0
   58.1685   30.3785   48.8933 H   0  0  0  0  0  0  0  0  0  0  0  0
   60.1730   31.0190   48.1710 H   0  0  0  0  0  0  0  0  0  0  0  0
   61.1229   31.0028   50.6964 H   0  0  0  0  0  0  0  0  0  0  0  0
   62.0372   29.6927   49.8422 H   0  0  0  0  0  0  0  0  0  0  0  0
   64.0290   31.8187   50.4355 H   0  0  0  0  0  0  0  0  0  0  0  0
   64.8963   33.5809   48.5722 H   0  0  0  0  0  0  0  0  0  0  0  0
   63.0538   34.9095   46.6088 H   0  0  0  0  0  0  0  0  0  0  0  0
   63.9081   33.5894   45.7403 H   0  0  0  0  0  0  0  0  0  0  0  0
   62.1128   33.6499   45.7403 H   0  0  0  0  0  0  0  0  0  0  0  0
   61.2417   28.6157   46.3218 H   0  0  0  0  0  0  0  0  0  0  0  0
   59.5175   28.0865   46.5485 H   0  0  0  0  0  0  0  0  0  0  0  0
   58.6314   28.0796   44.7336 H   0  0  0  0  0  0  0  0  0  0  0  0
   56.7262   28.3427   43.1491 H   0  0  0  0  0  0  0  0  0  0  0  0
   55.7004   30.5876   42.7856 H   0  0  0  0  0  0  0  0  0  0  0  0
   56.5617   32.5676   44.0241 H   0  0  0  0  0  0  0  0  0  0  0  0
   59.0985   33.7372   43.9443 H   0  0  0  0  0  0  0  0  0  0  0  0
   59.9512   35.7518   45.1401 H   0  0  0  0  0  0  0  0  0  0  0  0
   59.9413   35.8229   47.6368 H   0  0  0  0  0  0  0  0  0  0  0  0
   59.1240   33.8583   48.9396 H   0  0  0  0  0  0  0  0  0  0  0  0
   58.2911   31.8271   47.7519 H   0  0  0  0  0  0  0  0  0  0  0  0
  1  2  1  0
  2  3  1  0
  3  4  1  0
  4  5  1  0
  5  6  2  0
  6  7  1  0
  7  8  2  0
  8  9  1  0
  8 10  1  0
  3 11  1  0
 11 12  2  0
 11 13  1  0
 13 14  1  0
 14 15  1  0
 15 16  2  0
 16 17  1  0
 17 18  2  0
 18 19  1  0
 19 20  2  0
 20 21  1  0
 21 22  2  0
 22 23  1  0
 23 24  2  0
 24 25  1  0
 25 26  2  0
 10  5  1  0
 20 15  1  0
 26 21  1  0
  1 27  1  0
  1 28  1  0
  1 29  1  0
  2 30  1  0
  2 31  1  0
  3 32  1  6
  4 33  1  0
  4 34  1  0
  6 35  1  0
  7 36  1  0
  9 37  1  0
  9 38  1  0
  9 39  1  0
 13 40  1  0
 13 41  1  0
 16 42  1  0
 17 43  1  0
 18 44  1  0
 19 45  1  0
 22 46  1  0
 23 47  1  0
 24 48  1  0
 25 49  1  0
 26 50  1  0
M  CHG  1   3   1
M  END
>  <UniqueID>  (8) 
8

>  <SMILES>  (8) 
CC[N@@H+](Cc1ccc(C)o1)C(=O)COc1ccccc1-c1ccccc1

>  <Energy>  (8) 
83.87303879337864

>  <Genealogy>  (8) 
CC[NH+](Cc1ccc(C)o1)C(=O)COc1ccccc1-c1ccccc1 (protonated)
CC[N@@H+](Cc1ccc(C)o1)C(=O)COc1ccccc1-c1ccccc1 (chirality)
CC[N@@H+](Cc1ccc(C)o1)C(=O)COc1ccccc1-c1ccccc1 (3D coordinates assigned)
CC[N@@H+](Cc1ccc(C)o1)C(=O)COc1ccccc1-c1ccccc1 (optimized conformer: 83.87303879337864 kcal/mol)

>  <smiles>  (8) 
CCN(Cc1ccc(C)o1)C(=O)COc1ccccc1-c1ccccc1

>  <score_type>  (8) 
oracle

>  <origin>  (8) 
adg

>  <m_score__min__energy>  (8) 
-5.7699999999999996

>  <m_primary>  (8) 
energy

$$$$
8:0
     RDKit          3D

 39 42  0  0  0  0  0  0  0  0999 V2000
   63.5470   30.8320   50.1050 F   0  0  0  0  0  0  0  0  0  0  0  0
   63.9140   32.1620   49.9910 C   0  0  0  0  0  0  0  0  0  0  0  0
   63.9870   32.7010   51.2640 F   0  0  0  0  0  0  0  0  0  0  0  0
   65.1600   32.2370   49.3970 F   0  0  0  0  0  0  0  0  0  0  0  0
   62.9160   32.9170   49.1500 C   0  0  0  0  0  0  0  0  0  0  0  0
   61.8550   33.6120   49.7480 C   0  0  0  0  0  0  0  0  0  0  0  0
   60.9090   34.2670   48.9570 C   0  0  0  0  0  0  0  0  0  0  0  0
   61.0240   34.2150   47.5620 C   0  0  0  0  0  0  0  0  0  0  0  0
   60.0020   34.8700   46.6820 C   0  0  0  0  0  0  0  0  0  0  0  0
   59.1650   33.8230   45.9970 C   0  0  0  0  0  0  0  0  0  0  0  0
   58.1110   34.2110   45.1660 C   0  0  0  0  0  0  0  0  0  0  0  0
   57.3670   33.2430   44.5030 C   0  0  0  0  0  0  0  0  0  0  0  0
   57.6800   31.8890   44.6610 C   0  0  0  0  0  0  0  0  0  0  0  0
   56.9270   30.9210   43.9890 C   0  0  0  0  0  0  0  0  0  0  0  0
   57.2290   29.5720   44.1300 C   0  0  0  0  0  0  0  0  0  0  0  0
   58.2890   29.1610   44.9440 C   0  0  0  0  0  0  0  0  0  0  0  0
   58.5700   27.7910   45.0660 C   0  0  0  0  0  0  0  0  0  0  0  0
   59.6200   27.3550   45.8700 C   0  0  0  0  0  0  0  0  0  0  0  0
   60.3990   28.2780   46.5610 C   0  0  0  0  0  0  0  0  0  0  0  0
   60.1360   29.6470   46.4550 C   0  0  0  0  0  0  0  0  0  0  0  0
   59.0750   30.1220   45.6430 C   0  0  0  0  0  0  0  0  0  0  0  0
   58.7640   31.5110   45.4990 C   0  0  0  0  0  0  0  0  0  0  0  0
   59.4740   32.5000   46.1370 N   0  0  0  0  0  0  0  0  0  0  0  0
   62.0380   33.5040   46.9970 N   0  0  0  0  0  0  0  0  0  0  0  0
   62.9720   32.8610   47.7470 C   0  0  0  0  0  0  0  0  0  0  0  0
   61.7677   33.6413   50.8441 H   0  0  0  0  0  0  0  0  0  0  0  0
   60.0807   34.8190   49.4253 H   0  0  0  0  0  0  0  0  0  0  0  0
   59.3522   35.5125   47.2943 H   0  0  0  0  0  0  0  0  0  0  0  0
   60.5159   35.4759   45.9212 H   0  0  0  0  0  0  0  0  0  0  0  0
   57.8716   35.2769   45.0374 H   0  0  0  0  0  0  0  0  0  0  0  0
   56.5311   33.5417   43.8533 H   0  0  0  0  0  0  0  0  0  0  0  0
   56.0904   31.2294   43.3448 H   0  0  0  0  0  0  0  0  0  0  0  0
   56.6286   28.8205   43.5963 H   0  0  0  0  0  0  0  0  0  0  0  0
   57.9566   27.0570   44.5228 H   0  0  0  0  0  0  0  0  0  0  0  0
   59.8339   26.2797   45.9590 H   0  0  0  0  0  0  0  0  0  0  0  0
   61.2272   27.9282   47.1948 H   0  0  0  0  0  0  0  0  0  0  0  0
   60.7598   30.3645   47.0083 H   0  0  0  0  0  0  0  0  0  0  0  0
   60.2810   32.2780   46.7520 H   0  0  0  0  0  0  0  0  0  0  0  0
   63.7752   32.2943   47.2533 H   0  0  0  0  0  0  0  0  0  0  0  0
  1  2  1  0
  2  3  1  0
  2  4  1  0
  2  5  1  0
  5  6  2  0
  6  7  1  0
  7  8  2  0
  8  9  1  0
  9 10  1  0
 10 11  2  0
 11 12  1  0
 12 13  2  0
 13 14  1  0
 14 15  2  0
 15 16  1  0
 16 17  2  0
 17 18  1  0
 18 19  2  0
 19 20  1  0
 20 21  2  0
 21 22  1  0
 22 23  2  0
  8 24  1  0
 24 25  2  0
 25  5  1  0
 23 10  1  0
 22 13  1  0
 21 16  1  0
  6 26  1  0
  7 27  1  0
  9 28  1  0
  9 29  1  0
 11 30  1  0
 12 31  1  0
 14 32  1  0
 15 33  1  0
 17 34  1  0
 18 35  1  0
 19 36  1  0
 20 37  1  0
 23 38  1  0
 25 39  1  0
M  CHG  1  23   1
M  END
>  <UniqueID>  (9) 
9

>  <SMILES>  (9) 
FC(F)(F)c1ccc(Cc2ccc3ccc4ccccc4c3[nH+]2)nc1

>  <Energy>  (9) 
54.099501258096055

>  <Genealogy>  (9) 
FC(F)(F)c1ccc(Cc2ccc3ccc4ccccc4c3[nH+]2)nc1 (protonated)
FC(F)(F)c1ccc(Cc2ccc3ccc4ccccc4c3[nH+]2)nc1 (3D coordinates assigned)
FC(F)(F)c1ccc(Cc2ccc3ccc4ccccc4c3[nH+]2)nc1 (optimized conformer: 54.099501258096055 kcal/mol)

>  <smiles>  (9) 
FC(F)(F)c1ccc(Cc2ccc3ccc4ccccc4c3n2)nc1

>  <score_type>  (9) 
oracle

>  <origin>  (9) 
adg

>  <m_score__min__energy>  (9) 
-6.2000000000000002

>  <m_primary>  (9) 
energy

$$$$
9:0
     RDKit          3D

 48 50  0  0  0  0  0  0  0  0999 V2000
   57.7480   27.8910   44.8870 C   0  0  0  0  0  0  0  0  0  0  0  0
   58.9370   28.6600   44.4530 N   0  0  0  0  0  0  0  0  0  0  0  0
   60.1300   27.9100   44.9090 C   0  0  0  0  0  0  0  0  0  0  0  0
   58.9870   30.0900   44.9360 C   0  0  2  0  0  0  0  0  0  0  0  0
   59.5040   30.2400   46.4040 C   0  0  0  0  0  0  0  0  0  0  0  0
   59.2440   31.6340   47.0020 C   0  0  0  0  0  0  0  0  0  0  0  0
   59.0420   32.6240   45.9310 N   0  0  0  0  0  0  0  0  0  0  0  0
   59.0200   34.0000   46.4680 C   0  0  0  0  0  0  0  0  0  0  0  0
   59.9490   34.1160   47.6390 C   0  0  0  0  0  0  0  0  0  0  0  0
   59.5820   34.5860   48.8550 N   0  0  0  0  0  0  0  0  0  0  0  0
   60.6470   34.5860   49.6150 O   0  0  0  0  0  0  0  0  0  0  0  0
   61.6820   34.1440   48.9430 C   0  0  0  0  0  0  0  0  0  0  0  0
   62.9970   33.9930   49.3740 C   0  0  0  0  0  0  0  0  0  0  0  0
   63.9350   33.5040   48.4440 C   0  0  0  0  0  0  0  0  0  0  0  0
   63.5370   33.1840   47.1250 C   0  0  0  0  0  0  0  0  0  0  0  0
   62.1970   33.3480   46.7230 C   0  0  0  0  0  0  0  0  0  0  0  0
   61.2970   33.8300   47.6730 C   0  0  0  0  0  0  0  0  0  0  0  0
   57.7880   32.3400   45.1960 C   0  0  0  0  0  0  0  0  0  0  0  0
   57.5990   30.8260   44.8650 C   0  0  1  0  0  0  0  0  0  0  0  0
   56.8140   30.6560   43.5350 C   0  0  0  0  0  0  0  0  0  0  0  0
   55.3880   30.1160   43.7340 C   0  0  0  0  0  0  0  0  0  0  0  0
   55.2900   29.4090   44.9390 O   0  0  0  0  0  0  0  0  0  0  0  0
   57.7088   27.8657   45.9860 H   0  0  0  0  0  0  0  0  0  0  0  0
   56.8383   28.3722   44.4987 H   0  0  0  0  0  0  0  0  0  0  0  0
   57.8138   26.8639   44.4987 H   0  0  0  0  0  0  0  0  0  0  0  0
   58.9170   28.6460   43.4070 H   0  0  0  0  0  0  0  0  0  0  0  0
   60.1550   27.8943   46.0086 H   0  0  0  0  0  0  0  0  0  0  0  0
   60.0825   26.8790   44.5285 H   0  0  0  0  0  0  0  0  0  0  0  0
   61.0385   28.3997   44.5285 H   0  0  0  0  0  0  0  0  0  0  0  0
   59.6984   30.5557   44.2381 H   0  0  0  0  0  0  0  0  0  0  0  0
   58.9974   29.4913   47.0307 H   0  0  0  0  0  0  0  0  0  0  0  0
   60.5940   30.0933   46.3819 H   0  0  0  0  0  0  0  0  0  0  0  0
   58.3443   31.5951   47.6336 H   0  0  0  0  0  0  0  0  0  0  0  0
   60.1159   31.9321   47.6028 H   0  0  0  0  0  0  0  0  0  0  0  0
   59.3372   34.7014   45.6822 H   0  0  0  0  0  0  0  0  0  0  0  0
   57.9980   34.2397   46.7967 H   0  0  0  0  0  0  0  0  0  0  0  0
   63.2926   34.2462   50.4028 H   0  0  0  0  0  0  0  0  0  0  0  0
   64.9843   33.3700   48.7456 H   0  0  0  0  0  0  0  0  0  0  0  0
   64.2795   32.8042   46.4077 H   0  0  0  0  0  0  0  0  0  0  0  0
   61.8732   33.1055   45.7001 H   0  0  0  0  0  0  0  0  0  0  0  0
   56.9390   32.6720   45.8116 H   0  0  0  0  0  0  0  0  0  0  0  0
   57.8403   32.8799   44.2391 H   0  0  0  0  0  0  0  0  0  0  0  0
   56.9705   30.3313   45.6202 H   0  0  0  0  0  0  0  0  0  0  0  0
   56.7500   31.6362   43.0398 H   0  0  0  0  0  0  0  0  0  0  0  0
   57.3592   29.9188   42.9273 H   0  0  0  0  0  0  0  0  0  0  0  0
   54.6818   30.9592   43.7516 H   0  0  0  0  0  0  0  0  0  0  0  0
   55.1487   29.4350   42.9040 H   0  0  0  0  0  0  0  0  0  0  0  0
   55.1240   30.0870   45.6440 H   0  0  0  0  0  0  0  0  0  0  0  0
  1  2  1  0
  2  3  1  0
  2  4  1  0
  4  5  1  0
  5  6  1  0
  6  7  1  0
  7  8  1  0
  8  9  1  0
  9 10  2  0
 10 11  1  0
 11 12  1  0
 12 13  2  0
 13 14  1  0
 14 15  2  0
 15 16  1  0
 16 17  2  0
  7 18  1  0
 18 19  1  0
 19 20  1  0
 20 21  1  0
 21 22  1  0
 19  4  1  0
 17  9  1  0
 17 12  1  0
  1 23  1  0
  1 24  1  0
  1 25  1  0
  2 26  1  0
  3 27  1  0
  3 28  1  0
  3 29  1  0
  4 30  1  6
  5 31  1  0
  5 32  1  0
  6 33  1  0
  6 34  1  0
  8 35  1  0
  8 36  1  0
 13 37  1  0
 14 38  1  0
 15 39  1  0
 16 40  1  0
 18 41  1  0
 18 42  1  0
 19 43  1  1
 20 44  1  0
 20 45  1  0
 21 46  1  0
 21 47  1  0
 22 48  1  0
M  CHG  1   2   1
M  END
>  <UniqueID>  (10) 
10

>  <SMILES>  (10) 
C[NH+](C)[C@@H]1CCN(Cc2noc3ccccc23)C[C@H]1CCO

>  <Energy>  (10) 
107.14988264573242

>  <Genealogy>  (10) 
C[NH+](C)C1CCN(Cc2noc3ccccc23)CC1CCO (protonated)
C[NH+](C)[C@@H]1CCN(Cc2noc3ccccc23)C[C@H]1CCO (chirality)
C[NH+](C)[C@@H]1CCN(Cc2noc3ccccc23)C[C@H]1CCO (3D coordinates assigned)
C[NH+](C)[C@@H]1CCN(Cc2noc3ccccc23)C[C@H]1CCO (nonaromatic ring conformer: 107.14988264573242 kcal/mol)

>  <smiles>  (10) 
CN(C)C1CCN(Cc2noc3ccccc23)CC1CCO

>  <score_type>  (10) 
oracle

>  <origin>  (10) 
adg

>  <m_score__min__energy>  (10) 
-7.1399999999999997

>  <m_primary>  (10) 
energy

$$$$
10:0
     RDKit          3D

 25 25  0  0  0  0  0  0  0  0999 V2000
   57.6472   34.2569   43.7084 H   0  0  0  0  0  0  0  0  0  0  0  0
   57.7620   33.2910   44.2220 C   0  0  0  0  0  0  0  0  0  0  0  0
   57.5890   32.1740   43.4910 C   0  0  0  0  0  0  0  0  0  0  0  0
   57.7210   32.2680   42.0580 C   0  0  0  0  0  0  0  0  0  0  0  0
   57.8270   32.3430   40.9080 N   0  0  0  0  0  0  0  0  0  0  0  0
   57.1820   30.8730   44.0710 C   0  0  0  0  0  0  0  0  0  0  0  0
   56.1760   30.8130   44.8280 O   0  0  0  0  0  0  0  0  0  0  0  0
   57.9010   29.6760   43.7380 N   0  0  0  0  0  0  0  0  0  0  0  0
   58.6920   29.7230   43.0580 H   0  0  0  0  0  0  0  0  0  0  0  0
   57.5580   28.3720   44.3040 C   0  0  0  0  0  0  0  0  0  0  0  0
   56.4635   28.2654   44.3291 H   0  0  0  0  0  0  0  0  0  0  0  0
   57.9700   28.3077   45.3219 H   0  0  0  0  0  0  0  0  0  0  0  0
   58.1520   27.2480   43.4610 C   0  0  0  0  0  0  0  0  0  0  0  0
   58.5626   26.4711   44.1227 H   0  0  0  0  0  0  0  0  0  0  0  0
   57.3668   26.8115   42.8262 H   0  0  0  0  0  0  0  0  0  0  0  0
   58.9550   27.6508   42.8262 H   0  0  0  0  0  0  0  0  0  0  0  0
   58.0940   33.3190   45.6600 C   0  0  0  0  0  0  0  0  0  0  0  0
   59.0020   34.1880   46.2350 C   0  0  0  0  0  0  0  0  0  0  0  0
   59.5431   35.0041   45.7337 H   0  0  0  0  0  0  0  0  0  0  0  0
   59.0940   33.8270   47.5640 C   0  0  0  0  0  0  0  0  0  0  0  0
   59.7132   34.3095   48.3345 H   0  0  0  0  0  0  0  0  0  0  0  0
   58.2580   32.7430   47.7380 C   0  0  0  0  0  0  0  0  0  0  0  0
   58.1041   32.2123   48.6891 H   0  0  0  0  0  0  0  0  0  0  0  0
   57.6590   32.4300   46.5760 N   0  0  0  0  0  0  0  0  0  0  0  0
   57.0210   31.6190   46.4180 H   0  0  0  0  0  0  0  0  0  0  0  0
  1  2  1  0
  2  3  2  0
  3  4  1  0
  4  5  3  0
  3  6  1  0
  6  7  2  0
  6  8  1  0
  8  9  1  0
  8 10  1  0
 10 11  1  0
 10 12  1  0
 10 13  1  0
 13 14  1  0
 13 15  1  0
 13 16  1  0
  2 17  1  0
 17 18  2  0
 18 19  1  0
 18 20  1  0
 20 21  1  0
 20 22  2  0
 22 23  1  0
 22 24  1  0
 24 25  1  0
 24 17  1  0
M  END
>  <UniqueID>  (11) 
11

>  <SMILES>  (11) 
CCNC(=O)/C(C#N)=C\c1ccc[nH]1

>  <Energy>  (11) 
49.12275697102453

>  <Genealogy>  (11) 
CCNC(=O)/C(C#N)=C\c1ccc[nH]1 (cis-trans isomerization)
CCNC(=O)/C(C#N)=C\c1ccc[nH]1 (3D coordinates assigned)
CCNC(=O)/C(C#N)=C\c1ccc[nH]1 (optimized conformer: 49.12275697102453 kcal/mol)

>  <smiles>  (11) 
CCNC(=O)C(C#N)=Cc1ccc[nH]1

>  <score_type>  (11) 
oracle

>  <origin>  (11) 
adg

>  <m_score__min__energy>  (11) 
-5.71

>  <m_primary>  (11) 
energy

$$$$
11:0
     RDKit          3D

 48 51  0  0  0  0  0  0  0  0999 V2000
   53.2660   24.4820   45.5030 C   0  0  0  0  0  0  0  0  0  0  0  0
   54.6360   24.8610   45.6010 O   0  0  0  0  0  0  0  0  0  0  0  0
   55.7110   24.0970   45.1170 C   0  0  0  0  0  0  0  0  0  0  0  0
   55.5600   23.2000   44.0410 C   0  0  0  0  0  0  0  0  0  0  0  0
   56.6630   22.4950   43.5510 C   0  0  0  0  0  0  0  0  0  0  0  0
   57.9220   22.6780   44.1220 C   0  0  0  0  0  0  0  0  0  0  0  0
   58.0820   23.5580   45.1940 C   0  0  0  0  0  0  0  0  0  0  0  0
   56.9820   24.2520   45.7140 C   0  0  0  0  0  0  0  0  0  0  0  0
   57.1910   25.1200   46.7950 O   0  0  0  0  0  0  0  0  0  0  0  0
   57.6240   26.4500   46.6870 C   0  0  0  0  0  0  0  0  0  0  0  0
   57.0060   27.3680   45.8210 C   0  0  0  0  0  0  0  0  0  0  0  0
   57.4610   28.6870   45.7470 C   0  0  0  0  0  0  0  0  0  0  0  0
   58.5310   29.1190   46.5530 C   0  0  0  0  0  0  0  0  0  0  0  0
   59.0340   30.5130   46.4810 C   0  0  0  0  0  0  0  0  0  0  0  0
   58.2870   31.4580   45.8500 N   0  0  0  0  0  0  0  0  0  0  0  0
   58.7000   32.7480   45.7520 C   0  0  0  0  0  0  0  0  0  0  0  0
   57.8390   33.7640   45.0610 C   0  0  0  0  0  0  0  0  0  0  0  0
   58.5330   34.9500   44.8850 F   0  0  0  0  0  0  0  0  0  0  0  0
   57.4550   33.2820   43.8240 F   0  0  0  0  0  0  0  0  0  0  0  0
   56.7130   34.0150   45.8230 F   0  0  0  0  0  0  0  0  0  0  0  0
   59.9220   33.1200   46.3160 C   0  0  0  0  0  0  0  0  0  0  0  0
   60.6990   32.1460   46.9560 C   0  0  0  0  0  0  0  0  0  0  0  0
   62.0070   32.5050   47.5620 C   0  0  0  0  0  0  0  0  0  0  0  0
   62.4810   31.8250   48.6950 C   0  0  0  0  0  0  0  0  0  0  0  0
   63.7120   32.1690   49.2580 C   0  0  0  0  0  0  0  0  0  0  0  0
   64.4660   33.1910   48.6790 C   0  0  0  0  0  0  0  0  0  0  0  0
   64.0000   33.8420   47.5810 N   0  0  0  0  0  0  0  0  0  0  0  0
   62.8040   33.5280   47.0160 C   0  0  0  0  0  0  0  0  0  0  0  0
   60.2400   30.8610   47.0210 N   0  0  0  0  0  0  0  0  0  0  0  0
   59.1390   28.1970   47.4230 C   0  0  0  0  0  0  0  0  0  0  0  0
   58.6810   26.8790   47.4950 C   0  0  0  0  0  0  0  0  0  0  0  0
   52.8447   24.3655   46.5124 H   0  0  0  0  0  0  0  0  0  0  0  0
   52.7083   25.2596   44.9605 H   0  0  0  0  0  0  0  0  0  0  0  0
   53.1873   23.5283   44.9605 H   0  0  0  0  0  0  0  0  0  0  0  0
   54.5699   23.0539   43.5846 H   0  0  0  0  0  0  0  0  0  0  0  0
   56.5376   21.7939   42.7127 H   0  0  0  0  0  0  0  0  0  0  0  0
   58.7896   22.1287   43.7276 H   0  0  0  0  0  0  0  0  0  0  0  0
   59.0793   23.7074   45.6335 H   0  0  0  0  0  0  0  0  0  0  0  0
   56.1588   27.0462   45.1975 H   0  0  0  0  0  0  0  0  0  0  0  0
   56.9796   29.3927   45.0540 H   0  0  0  0  0  0  0  0  0  0  0  0
   60.2692   34.1622   46.2586 H   0  0  0  0  0  0  0  0  0  0  0  0
   61.8807   31.0183   49.1410 H   0  0  0  0  0  0  0  0  0  0  0  0
   64.0833   31.6402   50.1482 H   0  0  0  0  0  0  0  0  0  0  0  0
   65.4381   33.4696   49.1118 H   0  0  0  0  0  0  0  0  0  0  0  0
   62.4576   34.0764   46.1276 H   0  0  0  0  0  0  0  0  0  0  0  0
   60.8470   30.1270   47.4480 H   0  0  0  0  0  0  0  0  0  0  0  0
   59.9827   28.5161   48.0525 H   0  0  0  0  0  0  0  0  0  0  0  0
   59.1558   26.1735   48.1928 H   0  0  0  0  0  0  0  0  0  0  0  0
  1  2  1  0
  2  3  1  0
  3  4  2  0
  4  5  1  0
  5  6  2  0
  6  7  1  0
  7  8  2  0
  8  9  1  0
  9 10  1  0
 10 11  2  0
 11 12  1  0
 12 13  2  0
 13 14  1  0
 14 15  2  0
 15 16  1  0
 16 17  1  0
 17 18  1  0
 17 19  1  0
 17 20  1  0
 16 21  2  0
 21 22  1  0
 22 23  1  0
 23 24  2  0
 24 25  1  0
 25 26  2  0
 26 27  1  0
 27 28  2  0
 22 29  2  0
 13 30  1  0
 30 31  2  0
  8  3  1  0
 31 10  1  0
 29 14  1  0
 28 23  1  0
  1 32  1  0
  1 33  1  0
  1 34  1  0
  4 35  1  0
  5 36  1  0
  6 37  1  0
  7 38  1  0
 11 39  1  0
 12 40  1  0
 21 41  1  0
 24 42  1  0
 25 43  1  0
 26 44  1  0
 28 45  1  0
 29 46  1  0
 30 47  1  0
 31 48  1  0
M  CHG  1  29   1
M  END
>  <UniqueID>  (12) 
12

>  <SMILES>  (12) 
COc1ccccc1Oc1ccc(-c2nc(C(F)(F)F)cc(-c3cccnc3)[nH+]2)cc1

>  <Energy>  (12) 
68.66936500439702

>  <Genealogy>  (12) 
COc1ccccc1Oc1ccc(-c2nc(C(F)(F)F)cc(-c3cccnc3)[nH+]2)cc1 (protonated)
COc1ccccc1Oc1ccc(-c2nc(C(F)(F)F)cc(-c3cccnc3)[nH+]2)cc1 (3D coordinates assigned)
COc1ccccc1Oc1ccc(-c2nc(C(F)(F)F)cc(-c3cccnc3)[nH+]2)cc1 (optimized conformer: 68.66936500439702 kcal/mol)

>  <smiles>  (12) 
COc1ccccc1Oc1ccc(-c2nc(-c3cccnc3)cc(C(F)(F)F)n2)cc1

>  <score_type>  (12) 
oracle

>  <origin>  (12) 
adg

>  <m_score__min__energy>  (12) 
-6.3600000000000003

>  <m_primary>  (12) 
energy

$$$$
12:0
     RDKit          3D

 41 41  0  0  0  0  0  0  0  0999 V2000
   59.4910   29.6920   45.2640 C   0  0  0  0  0  0  0  0  0  0  0  0
   58.2990   30.5700   45.6720 C   0  0  0  0  0  0  0  0  0  0  0  0
   58.0060   31.6750   44.7260 N   0  0  0  0  0  0  0  0  0  0  0  0
   57.6540   31.2220   43.3600 C   0  0  0  0  0  0  0  0  0  0  0  0
   56.5130   30.2070   43.3770 C   0  0  0  0  0  0  0  0  0  0  0  0
   57.0040   32.6240   45.2630 C   0  0  0  0  0  0  0  0  0  0  0  0
   57.5530   34.0560   45.2130 C   0  0  0  0  0  0  0  0  0  0  0  0
   59.0020   34.0520   44.9600 N   0  0  0  0  0  0  0  0  0  0  0  0
   59.6500   35.1830   45.6420 C   0  0  0  0  0  0  0  0  0  0  0  0
   59.8240   34.8890   47.1380 C   0  0  0  0  0  0  0  0  0  0  0  0
   60.7560   33.7200   47.3480 C   0  0  0  0  0  0  0  0  0  0  0  0
   62.0890   33.8210   46.9130 C   0  0  0  0  0  0  0  0  0  0  0  0
   62.9840   32.7670   47.1180 C   0  0  0  0  0  0  0  0  0  0  0  0
   62.5620   31.6070   47.7670 C   0  0  0  0  0  0  0  0  0  0  0  0
   61.2440   31.4990   48.2180 C   0  0  0  0  0  0  0  0  0  0  0  0
   60.3390   32.5480   48.0180 C   0  0  0  0  0  0  0  0  0  0  0  0
   58.6970   32.3590   48.6280 Cl  0  0  0  0  0  0  0  0  0  0  0  0
   59.9975   29.3189   46.1664 H   0  0  0  0  0  0  0  0  0  0  0  0
   59.1320   28.8409   44.6667 H   0  0  0  0  0  0  0  0  0  0  0  0
   60.1973   30.2872   44.6667 H   0  0  0  0  0  0  0  0  0  0  0  0
   57.4071   29.9300   45.7420 H   0  0  0  0  0  0  0  0  0  0  0  0
   58.5643   31.0373   46.6318 H   0  0  0  0  0  0  0  0  0  0  0  0
   57.3466   32.0937   42.7637 H   0  0  0  0  0  0  0  0  0  0  0  0
   58.5382   30.7360   42.9218 H   0  0  0  0  0  0  0  0  0  0  0  0
   56.2477   29.9710   44.4181 H   0  0  0  0  0  0  0  0  0  0  0  0
   55.6378   30.6305   42.8626 H   0  0  0  0  0  0  0  0  0  0  0  0
   56.8317   29.2884   42.8626 H   0  0  0  0  0  0  0  0  0  0  0  0
   56.0867   32.5649   44.6588 H   0  0  0  0  0  0  0  0  0  0  0  0
   56.7822   32.3601   46.3076 H   0  0  0  0  0  0  0  0  0  0  0  0
   57.0478   34.6079   44.4067 H   0  0  0  0  0  0  0  0  0  0  0  0
   57.3661   34.5390   46.1834 H   0  0  0  0  0  0  0  0  0  0  0  0
   59.1730   34.1290   43.9290 H   0  0  0  0  0  0  0  0  0  0  0  0
   59.4100   33.1560   45.3150 H   0  0  0  0  0  0  0  0  0  0  0  0
   60.6381   35.3579   45.1914 H   0  0  0  0  0  0  0  0  0  0  0  0
   59.0150   36.0740   45.5290 H   0  0  0  0  0  0  0  0  0  0  0  0
   60.2418   35.7774   47.6342 H   0  0  0  0  0  0  0  0  0  0  0  0
   58.8418   34.6390   47.5655 H   0  0  0  0  0  0  0  0  0  0  0  0
   62.4303   34.7364   46.4075 H   0  0  0  0  0  0  0  0  0  0  0  0
   64.0229   32.8527   46.7668 H   0  0  0  0  0  0  0  0  0  0  0  0
   63.2668   30.7771   47.9238 H   0  0  0  0  0  0  0  0  0  0  0  0
   60.9156   30.5843   48.7332 H   0  0  0  0  0  0  0  0  0  0  0  0
  1  2  1  0
  2  3  1  0
  3  4  1  0
  4  5  1  0
  3  6  1  0
  6  7  1  0
  7  8  1  0
  8  9  1  0
  9 10  1  0
 10 11  1  0
 11 12  2  0
 12 13  1  0
 13 14  2  0
 14 15  1  0
 15 16  2  0
 16 17  1  0
 16 11  1  0
  1 18  1  0
  1 19  1  0
  1 20  1  0
  2 21  1  0
  2 22  1  0
  4 23  1  0
  4 24  1  0
  5 25  1  0
  5 26  1  0
  5 27  1  0
  6 28  1  0
  6 29  1  0
  7 30  1  0
  7 31  1  0
  8 32  1  0
  8 33  1  0
  9 34  1  0
  9 35  1  0
 10 36  1  0
 10 37  1  0
 12 38  1  0
 13 39  1  0
 14 40  1  0
 15 41  1  0
M  CHG  1   8   1
M  END
>  <UniqueID>  (13) 
13

>  <SMILES>  (13) 
CCN(CC)CC[NH2+]CCc1ccccc1Cl

>  <Energy>  (13) 
36.0291145209001

>  <Genealogy>  (13) 
CCN(CC)CC[NH2+]CCc1ccccc1Cl (protonated)
CCN(CC)CC[NH2+]CCc1ccccc1Cl (3D coordinates assigned)
CCN(CC)CC[NH2+]CCc1ccccc1Cl (optimized conformer: 36.0291145209001 kcal/mol)

>  <smiles>  (13) 
CCN(CC)CCNCCc1ccccc1Cl

>  <score_type>  (13) 
oracle

>  <origin>  (13) 
adg

>  <m_score__min__energy>  (13) 
-4.3399999999999999

>  <m_primary>  (13) 
energy

$$$$
13:0
     RDKit          3D

 72 74  0  0  0  0  0  0  0  0999 V2000
   57.7760   26.1500   42.8840 C   0  0  0  0  0  0  0  0  0  0  0  0
   58.1850   27.5060   43.4790 C   0  0  0  0  0  0  0  0  0  0  0  0
   58.2320   27.5320   44.9640 N   0  0  0  0  0  0  0  0  0  0  0  0
   57.0070   28.0730   45.6010 C   0  0  0  0  0  0  0  0  0  0  0  0
   56.4590   29.2790   44.8420 C   0  0  0  0  0  0  0  0  0  0  0  0
   58.6390   26.2290   45.5440 C   0  0  0  0  0  0  0  0  0  0  0  0
   58.4030   26.2160   47.0610 C   0  0  0  0  0  0  0  0  0  0  0  0
   59.5540   26.8670   47.8380 C   0  0  0  0  0  0  0  0  0  0  0  0
   60.0050   28.0980   47.1850 N   0  0  0  0  0  0  0  0  0  0  0  0
   60.3590   29.3170   47.8790 C   0  0  0  0  0  0  0  0  0  0  0  0
   61.0140   29.2350   49.1140 C   0  0  0  0  0  0  0  0  0  0  0  0
   61.2130   30.3600   49.8950 C   0  0  0  0  0  0  0  0  0  0  0  0
   60.7120   31.6090   49.5110 C   0  0  0  0  0  0  0  0  0  0  0  0
   60.9880   32.7560   50.3460 N   0  0  0  0  0  0  0  0  0  0  0  0
   62.3280   33.2930   50.6010 C   0  0  0  0  0  0  0  0  0  0  0  0
   62.9010   34.0470   49.3920 C   0  0  0  0  0  0  0  0  0  0  0  0
   63.9160   33.2200   48.6910 N   0  0  0  0  0  0  0  0  0  0  0  0
   63.3950   32.7200   47.3950 C   0  0  0  0  0  0  0  0  0  0  0  0
   62.5680   33.7990   46.7020 C   0  0  0  0  0  0  0  0  0  0  0  0
   64.3740   32.1010   49.5450 C   0  0  0  0  0  0  0  0  0  0  0  0
   65.7540   32.3930   50.1390 C   0  0  0  0  0  0  0  0  0  0  0  0
   60.0140   31.7270   48.2680 C   0  0  0  0  0  0  0  0  0  0  0  0
   59.3690   32.9300   47.8740 C   0  0  0  0  0  0  0  0  0  0  0  0
   59.2750   34.0120   48.7460 O   0  0  0  0  0  0  0  0  0  0  0  0
   58.7620   33.0410   46.6110 C   0  0  0  0  0  0  0  0  0  0  0  0
   58.1060   34.2350   46.2390 C   0  0  0  0  0  0  0  0  0  0  0  0
   57.4970   34.3540   44.9920 C   0  0  0  0  0  0  0  0  0  0  0  0
   57.5270   33.2880   44.0990 C   0  0  0  0  0  0  0  0  0  0  0  0
   58.1730   32.1000   44.4430 C   0  0  0  0  0  0  0  0  0  0  0  0
   58.8120   31.9610   45.6980 C   0  0  0  0  0  0  0  0  0  0  0  0
   59.4650   30.7640   46.0740 C   0  0  0  0  0  0  0  0  0  0  0  0
   59.7280   29.7630   45.1280 O   0  0  0  0  0  0  0  0  0  0  0  0
   59.9320   30.5920   47.4030 C   0  0  0  0  0  0  0  0  0  0  0  0
   57.5624   25.4418   43.6981 H   0  0  0  0  0  0  0  0  0  0  0  0
   56.8765   26.2780   42.2639 H   0  0  0  0  0  0  0  0  0  0  0  0
   58.5963   25.7593   42.2639 H   0  0  0  0  0  0  0  0  0  0  0  0
   59.1846   27.7622   43.0980 H   0  0  0  0  0  0  0  0  0  0  0  0
   57.4139   28.2292   43.1751 H   0  0  0  0  0  0  0  0  0  0  0  0
   56.2388   27.2859   45.6213 H   0  0  0  0  0  0  0  0  0  0  0  0
   57.2662   28.3986   46.6192 H   0  0  0  0  0  0  0  0  0  0  0  0
   56.1141   30.0380   45.5596 H   0  0  0  0  0  0  0  0  0  0  0  0
   57.2517   29.7055   44.2098 H   0  0  0  0  0  0  0  0  0  0  0  0
   55.6163   28.9624   44.2098 H   0  0  0  0  0  0  0  0  0  0  0  0
   58.0481   25.4260   45.0792 H   0  0  0  0  0  0  0  0  0  0  0  0
   59.7106   26.0736   45.3503 H   0  0  0  0  0  0  0  0  0  0  0  0
   57.4750   26.7650   47.2787 H   0  0  0  0  0  0  0  0  0  0  0  0
   58.3348   25.1656   47.3806 H   0  0  0  0  0  0  0  0  0  0  0  0
   59.2102   27.1058   48.8553 H   0  0  0  0  0  0  0  0  0  0  0  0
   60.3966   26.1605   47.8689 H   0  0  0  0  0  0  0  0  0  0  0  0
   59.9300   28.1220   46.1430 H   0  0  0  0  0  0  0  0  0  0  0  0
   61.3767   28.2593   49.4696 H   0  0  0  0  0  0  0  0  0  0  0  0
   61.7759   30.2707   50.8358 H   0  0  0  0  0  0  0  0  0  0  0  0
   60.1920   33.3680   50.6280 H   0  0  0  0  0  0  0  0  0  0  0  0
   62.2739   33.9848   51.4545 H   0  0  0  0  0  0  0  0  0  0  0  0
   62.9939   32.4427   50.8100 H   0  0  0  0  0  0  0  0  0  0  0  0
   62.0844   34.2846   48.6944 H   0  0  0  0  0  0  0  0  0  0  0  0
   63.3810   34.9711   49.7464 H   0  0  0  0  0  0  0  0  0  0  0  0
   64.2398   32.4398   46.7486 H   0  0  0  0  0  0  0  0  0  0  0  0
   62.7552   31.8449   47.5815 H   0  0  0  0  0  0  0  0  0  0  0  0
   62.0828   34.4321   47.4594 H   0  0  0  0  0  0  0  0  0  0  0  0
   63.2254   34.4177   46.0735 H   0  0  0  0  0  0  0  0  0  0  0  0
   61.7997   33.3250   46.0735 H   0  0  0  0  0  0  0  0  0  0  0  0
   63.6537   31.9551   50.3635 H   0  0  0  0  0  0  0  0  0  0  0  0
   64.4437   31.1941   48.9264 H   0  0  0  0  0  0  0  0  0  0  0  0
   65.6908   32.3796   51.2371 H   0  0  0  0  0  0  0  0  0  0  0  0
   66.4674   31.6259   49.8034 H   0  0  0  0  0  0  0  0  0  0  0  0
   66.0956   33.3833   49.8034 H   0  0  0  0  0  0  0  0  0  0  0  0
   58.0756   35.0805   46.9419 H   0  0  0  0  0  0  0  0  0  0  0  0
   56.9924   35.2909   44.7134 H   0  0  0  0  0  0  0  0  0  0  0  0
   57.0394   33.3819   43.1175 H   0  0  0  0  0  0  0  0  0  0  0  0
   58.1857   31.2620   43.7306 H   0  0  0  0  0  0  0  0  0  0  0  0
   59.0710   29.4490   44.4310 H   0  0  0  0  0  0  0  0  0  0  0  0
  1  2  1  0
  2  3  1  0
  3  4  1  0
  4  5  1  0
  3  6  1  0
  6  7  1  0
  7  8  1  0
  8  9  1  0
  9 10  1  0
 10 11  2  0
 11 12  1  0
 12 13  2  0
 13 14  1  0
 14 15  1  0
 15 16  1  0
 16 17  1  0
 17 18  1  0
 18 19  1  0
 17 20  1  0
 20 21  1  0
 13 22  1  0
 22 23  2  0
 23 24  1  0
 23 25  1  0
 25 26  2  0
 26 27  1  0
 27 28  2  0
 28 29  1  0
 29 30  2  0
 30 31  1  0
 31 32  1  0
 31 33  2  0
 33 10  1  0
 33 22  1  0
 30 25  1  0
  1 34  1  0
  1 35  1  0
  1 36  1  0
  2 37  1  0
  2 38  1  0
  4 39  1  0
  4 40  1  0
  5 41  1  0
  5 42  1  0
  5 43  1  0
  6 44  1  0
  6 45  1  0
  7 46  1  0
  7 47  1  0
  8 48  1  0
  8 49  1  0
  9 50  1  0
 11 51  1  0
 12 52  1  0
 14 53  1  0
 15 54  1  0
 15 55  1  0
 16 56  1  0
 16 57  1  0
 18 58  1  0
 18 59  1  0
 19 60  1  0
 19 61  1  0
 19 62  1  0
 20 63  1  0
 20 64  1  0
 21 65  1  0
 21 66  1  0
 21 67  1  0
 26 68  1  0
 27 69  1  0
 28 70  1  0
 29 71  1  0
 32 72  1  0
M  CHG  1  24  -1
M  END
>  <UniqueID>  (14) 
14

>  <SMILES>  (14) 
CCN(CC)CCCNc1ccc(NCCN(CC)CC)c2c([O-])c3ccccc3c(O)c12

>  <Energy>  (14) 
99.55738868422097

>  <Genealogy>  (14) 
CCN(CC)CCCNc1ccc(NCCN(CC)CC)c2c([O-])c3ccccc3c(O)c12 (protonated)
CCN(CC)CCCNc1ccc(NCCN(CC)CC)c2c([O-])c3ccccc3c(O)c12 (3D coordinates assigned)
CCN(CC)CCCNc1ccc(NCCN(CC)CC)c2c([O-])c3ccccc3c(O)c12 (optimized conformer: 99.55738868422097 kcal/mol)

>  <smiles>  (14) 
CCN(CC)CCCNc1ccc(NCCN(CC)CC)c2c(O)c3ccccc3c(O)c12

>  <score_type>  (14) 
oracle

>  <origin>  (14) 
adg

>  <m_score__min__energy>  (14) 
-10.08

>  <m_primary>  (14) 
energy

$$$$
14:0
     RDKit          3D

 41 43  0  0  0  0  0  0  0  0999 V2000
   54.9370   24.8270   45.6770 C   0  0  0  0  0  0  0  0  0  0  0  0
   55.1840   26.1720   46.0680 O   0  0  0  0  0  0  0  0  0  0  0  0
   56.4480   26.7620   45.9850 C   0  0  0  0  0  0  0  0  0  0  0  0
   57.5760   26.0340   46.3690 C   0  0  0  0  0  0  0  0  0  0  0  0
   58.8350   26.6280   46.2840 C   0  0  0  0  0  0  0  0  0  0  0  0
   58.9600   27.9390   45.8190 C   0  0  0  0  0  0  0  0  0  0  0  0
   57.8080   28.6500   45.4370 C   0  0  0  0  0  0  0  0  0  0  0  0
   57.8680   30.0400   44.9350 C   0  0  0  0  0  0  0  0  0  0  0  0
   57.9590   30.4060   43.6340 N   0  0  0  0  0  0  0  0  0  0  0  0
   57.9940   31.7590   43.4600 C   0  0  0  0  0  0  0  0  0  0  0  0
   58.0830   32.3660   42.0920 C   0  0  0  0  0  0  0  0  0  0  0  0
   57.9330   32.4970   44.6520 C   0  0  0  0  0  0  0  0  0  0  0  0
   57.9450   33.9610   44.8280 C   0  0  0  0  0  0  0  0  0  0  0  0
   56.8540   34.5920   44.8280 O   0  0  0  0  0  0  0  0  0  0  0  0
   59.1770   34.6700   45.0020 N   0  0  0  0  0  0  0  0  0  0  0  0
   59.6470   35.1740   46.2860 C   0  0  0  0  0  0  0  0  0  0  0  0
   60.0830   34.0300   47.1650 C   0  0  0  0  0  0  0  0  0  0  0  0
   59.2080   33.5440   48.1510 C   0  0  0  0  0  0  0  0  0  0  0  0
   59.5860   32.4710   48.9630 C   0  0  0  0  0  0  0  0  0  0  0  0
   60.8370   31.8720   48.7960 C   0  0  0  0  0  0  0  0  0  0  0  0
   61.7120   32.3460   47.8160 C   0  0  0  0  0  0  0  0  0  0  0  0
   61.3420   33.4200   46.9990 C   0  0  0  0  0  0  0  0  0  0  0  0
   62.2080   33.8570   46.0510 F   0  0  0  0  0  0  0  0  0  0  0  0
   57.8280   31.4000   45.9250 S   0  0  0  0  0  0  0  0  0  0  0  0
   56.5930   28.0400   45.5330 N   0  0  0  0  0  0  0  0  0  0  0  0
   54.8218   24.1998   46.5733 H   0  0  0  0  0  0  0  0  0  0  0  0
   54.0157   24.7827   45.0776 H   0  0  0  0  0  0  0  0  0  0  0  0
   55.7824   24.4582   45.0776 H   0  0  0  0  0  0  0  0  0  0  0  0
   57.4726   25.0019   46.7350 H   0  0  0  0  0  0  0  0  0  0  0  0
   59.7303   26.0634   46.5835 H   0  0  0  0  0  0  0  0  0  0  0  0
   59.9510   28.4116   45.7521 H   0  0  0  0  0  0  0  0  0  0  0  0
   57.9950   29.7380   42.8350 H   0  0  0  0  0  0  0  0  0  0  0  0
   58.2420   33.4507   42.1818 H   0  0  0  0  0  0  0  0  0  0  0  0
   58.9248   31.9160   41.5452 H   0  0  0  0  0  0  0  0  0  0  0  0
   57.1475   32.1766   41.5452 H   0  0  0  0  0  0  0  0  0  0  0  0
   60.4983   35.8508   46.1213 H   0  0  0  0  0  0  0  0  0  0  0  0
   58.8276   35.7156   46.7812 H   0  0  0  0  0  0  0  0  0  0  0  0
   58.2207   34.0102   48.2846 H   0  0  0  0  0  0  0  0  0  0  0  0
   58.8972   32.0975   49.7350 H   0  0  0  0  0  0  0  0  0  0  0  0
   61.1327   31.0276   49.4359 H   0  0  0  0  0  0  0  0  0  0  0  0
   62.6965   31.8729   47.6859 H   0  0  0  0  0  0  0  0  0  0  0  0
  1  2  1  0
  2  3  1  0
  3  4  2  0
  4  5  1  0
  5  6  2  0
  6  7  1  0
  7  8  1  0
  8  9  2  0
  9 10  1  0
 10 11  1  0
 10 12  2  0
 12 13  1  0
 13 14  2  0
 13 15  1  0
 15 16  1  0
 16 17  1  0
 17 18  2  0
 18 19  1  0
 19 20  2  0
 20 21  1  0
 21 22  2  0
 22 23  1  0
 12 24  1  0
  7 25  2  0
 25  3  1  0
 24  8  1  0
 22 17  1  0
  1 26  1  0
  1 27  1  0
  1 28  1  0
  4 29  1  0
  5 30  1  0
  6 31  1  0
  9 32  1  0
 11 33  1  0
 11 34  1  0
 11 35  1  0
 16 36  1  0
 16 37  1  0
 18 38  1  0
 19 39  1  0
 20 40  1  0
 21 41  1  0
M  CHG  2   9   1  15  -1
M  END
>  <UniqueID>  (15) 
15

>  <SMILES>  (15) 
COc1cccc(-c2[nH+]c(C)c(C(=O)[N-]Cc3ccccc3F)s2)n1

>  <Energy>  (15) 
69.80016567250975

>  <Genealogy>  (15) 
COc1cccc(-c2[nH+]c(C)c(C(=O)[N-]Cc3ccccc3F)s2)n1 (protonated)
COc1cccc(-c2[nH+]c(C)c(C(=O)[N-]Cc3ccccc3F)s2)n1 (3D coordinates assigned)
COc1cccc(-c2[nH+]c(C)c(C(=O)[N-]Cc3ccccc3F)s2)n1 (optimized conformer: 69.80016567250975 kcal/mol)

>  <smiles>  (15) 
COc1cccc(-c2nc(C)c(C(=O)NCc3ccccc3F)s2)n1

>  <score_type>  (15) 
oracle

>  <origin>  (15) 
adg

>  <m_score__min__energy>  (15) 
-8.3599999999999994

>  <m_primary>  (15) 
energy

$$$$
15:0
     RDKit          3D

 48 49  0  0  0  0  0  0  0  0999 V2000
   59.5030   27.3450   46.1480 C   0  0  0  0  0  0  0  0  0  0  0  0
   58.1250   27.4540   45.4770 C   0  0  0  0  0  0  0  0  0  0  0  0
   58.1310   28.0440   44.1180 N   0  0  0  0  0  0  0  0  0  0  0  0
   58.1050   27.0630   43.0250 C   0  0  0  0  0  0  0  0  0  0  0  0
   56.9060   29.2740   43.9050 S   0  0  0  0  0  0  0  0  0  0  0  0
   55.7400   28.9800   44.8060 O   0  0  0  0  0  0  0  0  0  0  0  0
   56.4120   29.2350   42.4860 O   0  0  0  0  0  0  0  0  0  0  0  0
   57.5050   30.8940   44.2640 C   0  0  0  0  0  0  0  0  0  0  0  0
   57.7320   31.2850   45.5900 C   0  0  0  0  0  0  0  0  0  0  0  0
   58.1890   32.5750   45.8750 C   0  0  0  0  0  0  0  0  0  0  0  0
   58.4380   33.4840   44.8340 C   0  0  0  0  0  0  0  0  0  0  0  0
   58.8890   34.8860   45.1450 C   0  0  0  0  0  0  0  0  0  0  0  0
   59.9370   34.8760   46.2710 C   0  0  0  0  0  0  0  0  0  0  0  0
   59.3230   34.9710   47.6080 N   0  0  0  0  0  0  0  0  0  0  0  0
   60.1360   34.3150   48.6450 C   0  0  0  0  0  0  0  0  0  0  0  0
   60.3130   32.8520   48.3280 C   0  0  0  0  0  0  0  0  0  0  0  0
   61.4650   32.4080   47.6590 C   0  0  0  0  0  0  0  0  0  0  0  0
   61.6460   31.0460   47.3970 C   0  0  0  0  0  0  0  0  0  0  0  0
   60.6840   30.1190   47.8090 C   0  0  0  0  0  0  0  0  0  0  0  0
   59.5420   30.5520   48.4880 C   0  0  0  0  0  0  0  0  0  0  0  0
   58.6130   29.6520   48.8950 F   0  0  0  0  0  0  0  0  0  0  0  0
   59.3570   31.9130   48.7530 C   0  0  0  0  0  0  0  0  0  0  0  0
   58.2050   33.0900   43.5080 C   0  0  0  0  0  0  0  0  0  0  0  0
   57.7470   31.8000   43.2240 C   0  0  0  0  0  0  0  0  0  0  0  0
   59.3803   27.3547   47.2411 H   0  0  0  0  0  0  0  0  0  0  0  0
   59.9867   26.4058   45.8416 H   0  0  0  0  0  0  0  0  0  0  0  0
   60.1284   28.1965   45.8416 H   0  0  0  0  0  0  0  0  0  0  0  0
   57.6994   26.4421   45.4070 H   0  0  0  0  0  0  0  0  0  0  0  0
   57.5329   28.1368   46.1040 H   0  0  0  0  0  0  0  0  0  0  0  0
   58.0781   26.0467   43.4450 H   0  0  0  0  0  0  0  0  0  0  0  0
   57.2109   27.2276   42.4057 H   0  0  0  0  0  0  0  0  0  0  0  0
   59.0066   27.1800   42.4057 H   0  0  0  0  0  0  0  0  0  0  0  0
   57.5500   30.5744   46.4097 H   0  0  0  0  0  0  0  0  0  0  0  0
   58.3542   32.8793   46.9191 H   0  0  0  0  0  0  0  0  0  0  0  0
   59.3313   35.3329   44.2424 H   0  0  0  0  0  0  0  0  0  0  0  0
   58.0199   35.4756   45.4723 H   0  0  0  0  0  0  0  0  0  0  0  0
   60.5114   33.9398   46.2113 H   0  0  0  0  0  0  0  0  0  0  0  0
   60.5851   35.7544   46.1352 H   0  0  0  0  0  0  0  0  0  0  0  0
   59.1650   35.9760   47.8600 H   0  0  0  0  0  0  0  0  0  0  0  0
   58.3890   34.4980   47.5670 H   0  0  0  0  0  0  0  0  0  0  0  0
   61.1233   34.7978   48.6906 H   0  0  0  0  0  0  0  0  0  0  0  0
   59.6230   34.4103   49.6134 H   0  0  0  0  0  0  0  0  0  0  0  0
   62.2276   33.1337   47.3399 H   0  0  0  0  0  0  0  0  0  0  0  0
   62.5465   30.7038   46.8660 H   0  0  0  0  0  0  0  0  0  0  0  0
   60.8261   29.0487   47.5986 H   0  0  0  0  0  0  0  0  0  0  0  0
   58.4611   32.2494   49.2954 H   0  0  0  0  0  0  0  0  0  0  0  0
   58.3837   33.8000   42.6871 H   0  0  0  0  0  0  0  0  0  0  0  0
   57.5763   31.4959   42.1808 H   0  0  0  0  0  0  0  0  0  0  0  0
  1  2  1  0
  2  3  1  0
  3  4  1  0
  3  5  1  0
  5  6  2  0
  5  7  2  0
  5  8  1  0
  8  9  2  0
  9 10  1  0
 10 11  2  0
 11 12  1  0
 12 13  1  0
 13 14  1  0
 14 15  1  0
 15 16  1  0
 16 17  2  0
 17 18  1  0
 18 19  2  0
 19 20  1  0
 20 21  1  0
 20 22  2  0
 11 23  1  0
 23 24  2  0
 24  8  1  0
 22 16  1  0
  1 25  1  0
  1 26  1  0
  1 27  1  0
  2 28  1  0
  2 29  1  0
  4 30  1  0
  4 31  1  0
  4 32  1  0
  9 33  1  0
 10 34  1  0
 12 35  1  0
 12 36  1  0
 13 37  1  0
 13 38  1  0
 14 39  1  0
 14 40  1  0
 15 41  1  0
 15 42  1  0
 17 43  1  0
 18 44  1  0
 19 45  1  0
 22 46  1  0
 23 47  1  0
 24 48  1  0
M  CHG  1  14   1
M  END
>  <UniqueID>  (16) 
16

>  <SMILES>  (16) 
CCN(C)S(=O)(=O)c1ccc(CC[NH2+]Cc2cccc(F)c2)cc1

>  <Energy>  (16) 
46.92633757092998

>  <Genealogy>  (16) 
CCN(C)S(=O)(=O)c1ccc(CC[NH2+]Cc2cccc(F)c2)cc1 (protonated)
CCN(C)S(=O)(=O)c1ccc(CC[NH2+]Cc2cccc(F)c2)cc1 (3D coordinates assigned)
CCN(C)S(=O)(=O)c1ccc(CC[NH2+]Cc2cccc(F)c2)cc1 (optimized conformer: 46.92633757092998 kcal/mol)

>  <smiles>  (16) 
CCN(C)S(=O)(=O)c1ccc(CCNCc2cccc(F)c2)cc1

>  <score_type>  (16) 
oracle

>  <origin>  (16) 
adg

>  <m_score__min__energy>  (16) 
-6.3499999999999996

>  <m_primary>  (16) 
energy

$$$$
16:0
     RDKit          3D

 70 74  0  0  0  0  0  0  0  0999 V2000
   55.5590   29.3500   44.5000 C   0  0  0  0  0  0  0  0  0  0  0  0
   56.0950   30.4830   43.6330 C   0  0  0  0  0  0  0  0  0  0  0  0
   57.5130   30.7390   43.9800 N   0  0  0  0  0  0  0  0  0  0  0  0
   58.1470   31.7500   43.1030 C   0  0  0  0  0  0  0  0  0  0  0  0
   57.4140   31.9600   41.7680 C   0  0  0  0  0  0  0  0  0  0  0  0
   58.3170   29.5060   44.1110 C   0  0  0  0  0  0  0  0  0  0  0  0
   58.6390   29.2240   45.5820 C   0  0  0  0  0  0  0  0  0  0  0  0
   58.1220   30.3020   46.4230 N   0  0  0  0  0  0  0  0  0  0  0  0
   59.0130   31.0850   47.2330 C   0  0  0  0  0  0  0  0  0  0  0  0
   59.2090   32.4630   47.0130 C   0  0  0  0  0  0  0  0  0  0  0  0
   58.6440   33.1090   45.8960 C   0  0  0  0  0  0  0  0  0  0  0  0
   58.8210   34.4780   45.7030 C   0  0  0  0  0  0  0  0  0  0  0  0
   59.5690   35.2200   46.6120 C   0  0  0  0  0  0  0  0  0  0  0  0
   60.1540   34.6010   47.7180 C   0  0  0  0  0  0  0  0  0  0  0  0
   59.9930   33.2140   47.9430 C   0  0  0  0  0  0  0  0  0  0  0  0
   60.5640   32.5890   49.0410 N   0  0  0  0  0  0  0  0  0  0  0  0
   60.8950   33.3990   50.2290 C   0  0  0  0  0  0  0  0  0  0  0  0
   60.5790   31.2120   49.0900 C   0  0  0  0  0  0  0  0  0  0  0  0
   59.7290   30.4860   48.2620 C   0  0  0  0  0  0  0  0  0  0  0  0
   59.6810   28.8720   48.7250 S   0  0  0  0  0  0  0  0  0  0  0  0
   60.8280   29.0420   49.9470 C   0  0  0  0  0  0  0  0  0  0  0  0
   61.3500   28.0330   50.7660 C   0  0  0  0  0  0  0  0  0  0  0  0
   60.8440   26.7210   50.7560 C   0  0  0  0  0  0  0  0  0  0  0  0
   61.3900   25.7540   51.6040 C   0  0  0  0  0  0  0  0  0  0  0  0
   62.4410   26.0830   52.4630 C   0  0  0  0  0  0  0  0  0  0  0  0
   62.9610   27.3810   52.4750 C   0  0  0  0  0  0  0  0  0  0  0  0
   62.4220   28.3640   51.6290 C   0  0  0  0  0  0  0  0  0  0  0  0
   62.9760   29.6570   51.5960 C   0  0  0  0  0  0  0  0  0  0  0  0
   62.4640   30.6480   50.7290 C   0  0  0  0  0  0  0  0  0  0  0  0
   63.1410   31.8600   50.5260 O   0  0  0  0  0  0  0  0  0  0  0  0
   64.5530   32.0240   50.3900 C   0  0  0  0  0  0  0  0  0  0  0  0
   64.8960   33.1040   49.3540 C   0  0  0  0  0  0  0  0  0  0  0  0
   63.8460   33.2090   48.2400 C   0  0  0  0  0  0  0  0  0  0  0  0
   63.5590   31.8980   47.6640 N   0  0  0  0  0  0  0  0  0  0  0  0
   61.2920   30.3640   49.9910 C   0  0  0  0  0  0  0  0  0  0  0  0
   55.6823   29.6107   45.5615 H   0  0  0  0  0  0  0  0  0  0  0  0
   54.4920   29.1948   44.2821 H   0  0  0  0  0  0  0  0  0  0  0  0
   56.1158   28.4267   44.2821 H   0  0  0  0  0  0  0  0  0  0  0  0
   56.0219   30.1999   42.5726 H   0  0  0  0  0  0  0  0  0  0  0  0
   55.5030   31.3931   43.8100 H   0  0  0  0  0  0  0  0  0  0  0  0
   58.1706   32.7095   43.6404 H   0  0  0  0  0  0  0  0  0  0  0  0
   59.1536   31.3783   42.8610 H   0  0  0  0  0  0  0  0  0  0  0  0
   56.3735   32.2581   41.9640 H   0  0  0  0  0  0  0  0  0  0  0  0
   57.9194   32.7495   41.1924 H   0  0  0  0  0  0  0  0  0  0  0  0
   57.4247   31.0227   41.1924 H   0  0  0  0  0  0  0  0  0  0  0  0
   57.7500   28.6593   43.6966 H   0  0  0  0  0  0  0  0  0  0  0  0
   59.2605   29.6386   43.5613 H   0  0  0  0  0  0  0  0  0  0  0  0
   58.1731   28.2735   45.8810 H   0  0  0  0  0  0  0  0  0  0  0  0
   59.7300   29.1605   45.7068 H   0  0  0  0  0  0  0  0  0  0  0  0
   57.2220   30.7410   46.1270 H   0  0  0  0  0  0  0  0  0  0  0  0
   58.0576   32.5276   45.1693 H   0  0  0  0  0  0  0  0  0  0  0  0
   58.3687   34.9726   44.8308 H   0  0  0  0  0  0  0  0  0  0  0  0
   59.7002   36.3012   46.4580 H   0  0  0  0  0  0  0  0  0  0  0  0
   60.7481   35.1999   48.4239 H   0  0  0  0  0  0  0  0  0  0  0  0
   60.6614   32.8273   51.1393 H   0  0  0  0  0  0  0  0  0  0  0  0
   61.9666   33.6470   50.2167 H   0  0  0  0  0  0  0  0  0  0  0  0
   60.3038   34.3265   50.2167 H   0  0  0  0  0  0  0  0  0  0  0  0
   60.0177   26.4558   50.0801 H   0  0  0  0  0  0  0  0  0  0  0  0
   60.9904   24.7292   51.5950 H   0  0  0  0  0  0  0  0  0  0  0  0
   62.8613   25.3182   53.1326 H   0  0  0  0  0  0  0  0  0  0  0  0
   63.7937   27.6326   53.1483 H   0  0  0  0  0  0  0  0  0  0  0  0
   63.8216   29.9002   52.2561 H   0  0  0  0  0  0  0  0  0  0  0  0
   64.9745   32.3154   51.3633 H   0  0  0  0  0  0  0  0  0  0  0  0
   64.9804   31.0696   50.0486 H   0  0  0  0  0  0  0  0  0  0  0  0
   64.9638   34.0749   49.8667 H   0  0  0  0  0  0  0  0  0  0  0  0
   65.8512   32.8244   48.8857 H   0  0  0  0  0  0  0  0  0  0  0  0
   62.9191   33.6286   48.6581 H   0  0  0  0  0  0  0  0  0  0  0  0
   64.2415   33.8606   47.4469 H   0  0  0  0  0  0  0  0  0  0  0  0
   63.3700   31.2300   48.4460 H   0  0  0  0  0  0  0  0  0  0  0  0
   64.4270   31.5620   47.1870 H   0  0  0  0  0  0  0  0  0  0  0  0
  1  2  1  0
  2  3  1  0
  3  4  1  0
  4  5  1  0
  3  6  1  0
  6  7  1  0
  7  8  1  0
  8  9  1  0
  9 10  2  0
 10 11  1  0
 11 12  2  0
 12 13  1  0
 13 14  2  0
 14 15  1  0
 15 16  2  0
 16 17  1  0
 16 18  1  0
 18 19  2  0
 19 20  1  0
 20 21  1  0
 21 22  2  0
 22 23  1  0
 23 24  2  0
 24 25  1  0
 25 26  2  0
 26 27  1  0
 27 28  2  0
 28 29  1  0
 29 30  1  0
 30 31  1  0
 31 32  1  0
 32 33  1  0
 33 34  1  0
 29 35  2  0
 19  9  1  0
 35 21  1  0
 15 10  1  0
 35 18  1  0
 27 22  1  0
  1 36  1  0
  1 37  1  0
  1 38  1  0
  2 39  1  0
  2 40  1  0
  4 41  1  0
  4 42  1  0
  5 43  1  0
  5 44  1  0
  5 45  1  0
  6 46  1  0
  6 47  1  0
  7 48  1  0
  7 49  1  0
  8 50  1  0
 11 51  1  0
 12 52  1  0
 13 53  1  0
 14 54  1  0
 17 55  1  0
 17 56  1  0
 17 57  1  0
 23 58  1  0
 24 59  1  0
 25 60  1  0
 26 61  1  0
 28 62  1  0
 31 63  1  0
 31 64  1  0
 32 65  1  0
 32 66  1  0
 33 67  1  0
 33 68  1  0
 34 69  1  0
 34 70  1  0
M  CHG  1  16   1
M  END
>  <UniqueID>  (17) 
17

>  <SMILES>  (17) 
CCN(CC)CCNc1c2ccccc2[n+](C)c2c1sc1c3ccccc3cc(OCCCN)c12

>  <Energy>  (17) 
138.0351802186648

>  <Genealogy>  (17) 
CCN(CC)CCNc1c2ccccc2[n+](C)c2c1sc1c3ccccc3cc(OCCCN)c12 (3D coordinates assigned)
CCN(CC)CCNc1c2ccccc2[n+](C)c2c1sc1c3ccccc3cc(OCCCN)c12 (optimized conformer: 138.0351802186648 kcal/mol)

>  <smiles>  (17) 
CCN(CC)CCNc1c2ccccc2[n+](C)c2c1sc1c3ccccc3cc(OCCCN)c12

>  <score_type>  (17) 
oracle

>  <origin>  (17) 
adg

>  <m_score__min__energy>  (17) 
-7.2000000000000002

>  <m_primary>  (17) 
energy

$$$$
17:0
     RDKit          3D

 48 50  0  0  0  0  0  0  0  0999 V2000
   53.7080   30.6160   51.7830 C   0  0  0  0  0  0  0  0  0  0  0  0
   55.1000   30.5030   52.4130 C   0  0  0  0  0  0  0  0  0  0  0  0
   56.1740   30.8910   51.4800 N   0  0  0  0  0  0  0  0  0  0  0  0
   57.4130   31.2670   52.1830 C   0  0  0  0  0  0  0  0  0  0  0  0
   58.6500   30.7630   51.4360 C   0  0  0  0  0  0  0  0  0  0  0  0
   58.2570   29.8600   50.4210 O   0  0  0  0  0  0  0  0  0  0  0  0
   59.3830   29.1860   49.8910 C   0  0  0  0  0  0  0  0  0  0  0  0
   59.7310   29.7480   48.5110 C   0  0  0  0  0  0  0  0  0  0  0  0
   58.9470   30.9500   48.2240 N   0  0  0  0  0  0  0  0  0  0  0  0
   58.6910   31.3350   46.8690 C   0  0  0  0  0  0  0  0  0  0  0  0
   58.9210   32.6470   46.4070 C   0  0  0  0  0  0  0  0  0  0  0  0
   59.3510   33.6560   47.2900 C   0  0  0  0  0  0  0  0  0  0  0  0
   59.5420   34.9590   46.8390 C   0  0  0  0  0  0  0  0  0  0  0  0
   59.2900   35.2830   45.5090 C   0  0  0  0  0  0  0  0  0  0  0  0
   58.8540   34.3060   44.6160 C   0  0  0  0  0  0  0  0  0  0  0  0
   58.6740   32.9620   45.0310 C   0  0  0  0  0  0  0  0  0  0  0  0
   58.2480   31.9760   44.1500 N   0  0  0  0  0  0  0  0  0  0  0  0
   58.1190   32.2530   42.7050 C   0  0  0  0  0  0  0  0  0  0  0  0
   57.9320   30.7320   44.6480 C   0  0  0  0  0  0  0  0  0  0  0  0
   57.3610   29.6560   43.9350 C   0  0  0  0  0  0  0  0  0  0  0  0
   57.1810   28.5160   44.7110 C   0  0  0  0  0  0  0  0  0  0  0  0
   57.7100   28.8280   46.2800 S   0  0  0  0  0  0  0  0  0  0  0  0
   58.1630   30.4180   45.9770 C   0  0  0  0  0  0  0  0  0  0  0  0
   52.9498   30.6775   52.5776 H   0  0  0  0  0  0  0  0  0  0  0  0
   53.6601   31.5210   51.1595 H   0  0  0  0  0  0  0  0  0  0  0  0
   53.5147   29.7306   51.1595 H   0  0  0  0  0  0  0  0  0  0  0  0
   55.1432   31.1603   53.2939 H   0  0  0  0  0  0  0  0  0  0  0  0
   55.2589   29.4496   52.6870 H   0  0  0  0  0  0  0  0  0  0  0  0
   56.3720   30.0680   50.8630 H   0  0  0  0  0  0  0  0  0  0  0  0
   55.8480   31.6810   50.8750 H   0  0  0  0  0  0  0  0  0  0  0  0
   57.4628   32.3632   52.2603 H   0  0  0  0  0  0  0  0  0  0  0  0
   57.3990   30.8071   53.1821 H   0  0  0  0  0  0  0  0  0  0  0  0
   59.1768   31.6159   50.9831 H   0  0  0  0  0  0  0  0  0  0  0  0
   59.3189   30.2495   52.1424 H   0  0  0  0  0  0  0  0  0  0  0  0
   60.2403   29.3232   50.5664 H   0  0  0  0  0  0  0  0  0  0  0  0
   59.1495   28.1154   49.7952 H   0  0  0  0  0  0  0  0  0  0  0  0
   60.8011   30.0011   48.4846 H   0  0  0  0  0  0  0  0  0  0  0  0
   59.4976   28.9866   47.7522 H   0  0  0  0  0  0  0  0  0  0  0  0
   58.3790   31.3970   48.9790 H   0  0  0  0  0  0  0  0  0  0  0  0
   59.5378   33.4123   48.3463 H   0  0  0  0  0  0  0  0  0  0  0  0
   59.8930   35.7347   47.5355 H   0  0  0  0  0  0  0  0  0  0  0  0
   59.4358   36.3162   45.1608 H   0  0  0  0  0  0  0  0  0  0  0  0
   58.6460   34.5820   43.5717 H   0  0  0  0  0  0  0  0  0  0  0  0
   57.6586   33.2416   42.5608 H   0  0  0  0  0  0  0  0  0  0  0  0
   59.1153   32.2410   42.2390 H   0  0  0  0  0  0  0  0  0  0  0  0
   57.4870   31.4827   42.2390 H   0  0  0  0  0  0  0  0  0  0  0  0
   57.0858   29.7134   42.8715 H   0  0  0  0  0  0  0  0  0  0  0  0
   56.7606   27.5631   44.3571 H   0  0  0  0  0  0  0  0  0  0  0  0
  1  2  1  0
  2  3  1  0
  3  4  1  0
  4  5  1  0
  5  6  1  0
  6  7  1  0
  7  8  1  0
  8  9  1  0
  9 10  1  0
 10 11  2  0
 11 12  1  0
 12 13  2  0
 13 14  1  0
 14 15  2  0
 15 16  1  0
 16 17  2  0
 17 18  1  0
 17 19  1  0
 19 20  1  0
 20 21  2  0
 21 22  1  0
 22 23  1  0
 23 10  1  0
 16 11  1  0
 23 19  2  0
  1 24  1  0
  1 25  1  0
  1 26  1  0
  2 27  1  0
  2 28  1  0
  3 29  1  0
  3 30  1  0
  4 31  1  0
  4 32  1  0
  5 33  1  0
  5 34  1  0
  7 35  1  0
  7 36  1  0
  8 37  1  0
  8 38  1  0
  9 39  1  0
 12 40  1  0
 13 41  1  0
 14 42  1  0
 15 43  1  0
 18 44  1  0
 18 45  1  0
 18 46  1  0
 20 47  1  0
 21 48  1  0
M  CHG  2   3   1  17   1
M  END
>  <UniqueID>  (18) 
18

>  <SMILES>  (18) 
CC[NH2+]CCOCCNc1c2ccccc2[n+](C)c2ccsc12

>  <Energy>  (18) 
94.18073244015854

>  <Genealogy>  (18) 
CC[NH2+]CCOCCNc1c2ccccc2[n+](C)c2ccsc12 (protonated)
CC[NH2+]CCOCCNc1c2ccccc2[n+](C)c2ccsc12 (3D coordinates assigned)
CC[NH2+]CCOCCNc1c2ccccc2[n+](C)c2ccsc12 (optimized conformer: 94.18073244015854 kcal/mol)

>  <smiles>  (18) 
CCNCCOCCNc1c2ccccc2[n+](C)c2ccsc12

>  <score_type>  (18) 
oracle

>  <origin>  (18) 
adg

>  <m_score__min__energy>  (18) 
-3.6099999999999999

>  <m_primary>  (18) 
energy

$$$$
18:0
     RDKit          3D

 41 43  0  0  0  0  0  0  0  0999 V2000
   60.3880   29.8760   47.1660 C   0  0  0  0  0  0  0  0  0  0  0  0
   59.1820   29.0760   47.6560 C   0  0  0  0  0  0  0  0  0  0  0  0
   58.8930   27.9210   46.7790 N   0  0  0  0  0  0  0  0  0  0  0  0
   59.6080   28.0470   45.4980 C   0  0  0  0  0  0  0  0  0  0  0  0
   57.4510   27.6290   46.5890 C   0  0  0  0  0  0  0  0  0  0  0  0
   56.8860   28.0450   45.2140 C   0  0  0  0  0  0  0  0  0  0  0  0
   56.4280   29.4350   45.2530 N   0  0  0  0  0  0  0  0  0  0  0  0
   56.8750   30.4730   44.3540 C   0  0  0  0  0  0  0  0  0  0  0  0
   56.6130   30.4100   42.9720 C   0  0  0  0  0  0  0  0  0  0  0  0
   57.0530   31.4330   42.1300 C   0  0  0  0  0  0  0  0  0  0  0  0
   57.7310   32.4950   42.6360 N   0  0  0  0  0  0  0  0  0  0  0  0
   58.0000   32.5990   43.9640 C   0  0  0  0  0  0  0  0  0  0  0  0
   58.6990   33.7030   44.4570 C   0  0  0  0  0  0  0  0  0  0  0  0
   58.9740   33.7970   45.8270 C   0  0  0  0  0  0  0  0  0  0  0  0
   59.6740   34.8930   46.3550 C   0  0  0  0  0  0  0  0  0  0  0  0
   59.9350   34.9590   47.7270 C   0  0  0  0  0  0  0  0  0  0  0  0
   59.4990   33.9360   48.5770 C   0  0  0  0  0  0  0  0  0  0  0  0
   58.8010   32.8410   48.0600 C   0  0  0  0  0  0  0  0  0  0  0  0
   58.5350   32.7660   46.6880 C   0  0  0  0  0  0  0  0  0  0  0  0
   57.8560   31.7010   46.1820 N   0  0  0  0  0  0  0  0  0  0  0  0
   57.5750   31.5880   44.8540 C   0  0  0  0  0  0  0  0  0  0  0  0
   60.9546   30.2518   48.0307 H   0  0  0  0  0  0  0  0  0  0  0  0
   61.0353   29.2276   46.5573 H   0  0  0  0  0  0  0  0  0  0  0  0
   60.0424   30.7245   46.5573 H   0  0  0  0  0  0  0  0  0  0  0  0
   59.3883   28.7082   48.6720 H   0  0  0  0  0  0  0  0  0  0  0  0
   58.3052   29.7401   47.6450 H   0  0  0  0  0  0  0  0  0  0  0  0
   60.6746   28.2350   45.6904 H   0  0  0  0  0  0  0  0  0  0  0  0
   59.4976   27.1156   44.9233 H   0  0  0  0  0  0  0  0  0  0  0  0
   59.1859   28.8846   44.9233 H   0  0  0  0  0  0  0  0  0  0  0  0
   57.3020   26.5456   46.7075 H   0  0  0  0  0  0  0  0  0  0  0  0
   56.9112   28.2240   47.3404 H   0  0  0  0  0  0  0  0  0  0  0  0
   57.6731   27.9434   44.4523 H   0  0  0  0  0  0  0  0  0  0  0  0
   56.0348   27.3943   44.9649 H   0  0  0  0  0  0  0  0  0  0  0  0
   55.7410   29.6790   46.0030 H   0  0  0  0  0  0  0  0  0  0  0  0
   56.0613   29.5543   42.5555 H   0  0  0  0  0  0  0  0  0  0  0  0
   56.8492   31.3783   41.0504 H   0  0  0  0  0  0  0  0  0  0  0  0
   59.0324   34.4961   43.7715 H   0  0  0  0  0  0  0  0  0  0  0  0
   60.0170   35.6993   45.6900 H   0  0  0  0  0  0  0  0  0  0  0  0
   60.4848   35.8177   48.1398 H   0  0  0  0  0  0  0  0  0  0  0  0
   59.7064   33.9940   49.6557 H   0  0  0  0  0  0  0  0  0  0  0  0
   58.4609   32.0386   48.7311 H   0  0  0  0  0  0  0  0  0  0  0  0
  1  2  1  0
  2  3  1  0
  3  4  1  0
  3  5  1  0
  5  6  1  0
  6  7  1  0
  7  8  1  0
  8  9  2  0
  9 10  1  0
 10 11  2  0
 11 12  1  0
 12 13  2  0
 13 14  1  0
 14 15  2  0
 15 16  1  0
 16 17  2  0
 17 18  1  0
 18 19  2  0
 19 20  1  0
 20 21  2  0
 21  8  1  0
 21 12  1  0
 19 14  1  0
  1 22  1  0
  1 23  1  0
  1 24  1  0
  2 25  1  0
  2 26  1  0
  4 27  1  0
  4 28  1  0
  4 29  1  0
  5 30  1  0
  5 31  1  0
  6 32  1  0
  6 33  1  0
  7 34  1  0
  9 35  1  0
 10 36  1  0
 13 37  1  0
 15 38  1  0
 16 39  1  0
 17 40  1  0
 18 41  1  0
M  END
>  <UniqueID>  (19) 
19

>  <SMILES>  (19) 
CCN(C)CCNc1ccnc2cc3ccccc3nc12

>  <Energy>  (19) 
50.55654207060844

>  <Genealogy>  (19) 
CCN(C)CCNc1ccnc2cc3ccccc3nc12 (3D coordinates assigned)
CCN(C)CCNc1ccnc2cc3ccccc3nc12 (optimized conformer: 50.55654207060844 kcal/mol)

>  <smiles>  (19) 
CCN(C)CCNc1ccnc2cc3ccccc3nc12

>  <score_type>  (19) 
oracle

>  <origin>  (19) 
adg

>  <m_score__min__energy>  (19) 
-7.3799999999999999

>  <m_primary>  (19) 
energy

$$$$
19:0
     RDKit          3D

 38 39  0  0  0  0  0  0  0  0999 V2000
   56.9510   33.8750   45.2390 C   0  0  0  0  0  0  0  0  0  0  0  0
   57.9160   33.7820   46.4310 C   0  0  0  0  0  0  0  0  0  0  0  0
   59.3320   34.0560   46.0940 N   0  0  0  0  0  0  0  0  0  0  0  0
   59.5020   35.2030   45.1880 C   0  0  0  0  0  0  0  0  0  0  0  0
   60.2170   34.1370   47.2770 C   0  0  0  0  0  0  0  0  0  0  0  0
   60.3350   32.7700   47.9690 C   0  0  0  0  0  0  0  0  0  0  0  0
   60.7840   31.6540   47.0090 C   0  0  0  0  0  0  0  0  0  0  0  0
   59.7110   31.2650   46.0890 N   0  0  0  0  0  0  0  0  0  0  0  0
   59.0360   29.9980   46.1660 C   0  0  0  0  0  0  0  0  0  0  0  0
   59.6190   28.8580   46.7690 C   0  0  0  0  0  0  0  0  0  0  0  0
   58.9210   27.6300   46.8180 C   0  0  0  0  0  0  0  0  0  0  0  0
   57.6220   27.5050   46.2710 C   0  0  0  0  0  0  0  0  0  0  0  0
   56.9190   26.2500   46.3370 N   0  0  0  0  0  0  0  0  0  0  0  0
   55.6910   26.1860   46.1240 O   0  0  0  0  0  0  0  0  0  0  0  0
   57.5830   25.1040   46.7090 O   0  0  0  0  0  0  0  0  0  0  0  0
   57.0780   28.6590   45.6800 C   0  0  0  0  0  0  0  0  0  0  0  0
   55.9050   28.8540   45.0560 N   0  0  0  0  0  0  0  0  0  0  0  0
   55.9060   30.1020   44.6720 O   0  0  0  0  0  0  0  0  0  0  0  0
   56.9970   30.7490   44.9920 N   0  0  0  0  0  0  0  0  0  0  0  0
   57.7530   29.8410   45.6350 C   0  0  0  0  0  0  0  0  0  0  0  0
   55.9198   33.9744   45.6089 H   0  0  0  0  0  0  0  0  0  0  0  0
   57.2073   34.7526   44.6273 H   0  0  0  0  0  0  0  0  0  0  0  0
   57.0350   32.9646   44.6273 H   0  0  0  0  0  0  0  0  0  0  0  0
   57.5959   34.5104   47.1906 H   0  0  0  0  0  0  0  0  0  0  0  0
   57.8737   32.7428   46.7891 H   0  0  0  0  0  0  0  0  0  0  0  0
   59.6380   36.1204   45.7795 H   0  0  0  0  0  0  0  0  0  0  0  0
   60.3860   35.0413   44.5536 H   0  0  0  0  0  0  0  0  0  0  0  0
   58.6091   35.3047   44.5536 H   0  0  0  0  0  0  0  0  0  0  0  0
   61.2167   34.4660   46.9569 H   0  0  0  0  0  0  0  0  0  0  0  0
   59.7857   34.8553   47.9897 H   0  0  0  0  0  0  0  0  0  0  0  0
   61.0701   32.8503   48.7833 H   0  0  0  0  0  0  0  0  0  0  0  0
   59.3371   32.5017   48.3461 H   0  0  0  0  0  0  0  0  0  0  0  0
   61.6433   32.0123   46.4231 H   0  0  0  0  0  0  0  0  0  0  0  0
   61.0558   30.7738   47.6101 H   0  0  0  0  0  0  0  0  0  0  0  0
   59.4190   31.9310   45.3380 H   0  0  0  0  0  0  0  0  0  0  0  0
   60.6267   28.9285   47.2044 H   0  0  0  0  0  0  0  0  0  0  0  0
   59.3956   26.7567   47.2893 H   0  0  0  0  0  0  0  0  0  0  0  0
   55.1330   28.1780   44.8760 H   0  0  0  0  0  0  0  0  0  0  0  0
  1  2  1  0
  2  3  1  0
  3  4  1  0
  3  5  1  0
  5  6  1  0
  6  7  1  0
  7  8  1  0
  8  9  1  0
  9 10  2  0
 10 11  1  0
 11 12  2  0
 12 13  1  0
 13 14  2  0
 13 15  1  0
 12 16  1  0
 16 17  2  0
 17 18  1  0
 18 19  1  0
 19 20  2  0
 20  9  1  0
 20 16  1  0
  1 21  1  0
  1 22  1  0
  1 23  1  0
  2 24  1  0
  2 25  1  0
  4 26  1  0
  4 27  1  0
  4 28  1  0
  5 29  1  0
  5 30  1  0
  6 31  1  0
  6 32  1  0
  7 33  1  0
  7 34  1  0
  8 35  1  0
 10 36  1  0
 11 37  1  0
 17 38  1  0
M  CHG  3  13   1  15  -1  17   1
M  END
>  <UniqueID>  (20) 
20

>  <SMILES>  (20) 
CCN(C)CCCNc1ccc([N+](=O)[O-])c2[nH+]onc12

>  <Energy>  (20) 
83.823503352049

>  <Genealogy>  (20) 
CCN(C)CCCNc1ccc([N+](=O)[O-])c2[nH+]onc12 (protonated)
CCN(C)CCCNc1ccc([N+](=O)[O-])c2[nH+]onc12 (3D coordinates assigned)
CCN(C)CCCNc1ccc([N+](=O)[O-])c2[nH+]onc12 (optimized conformer: 83.823503352049 kcal/mol)

>  <smiles>  (20) 
CCN(C)CCCNc1ccc([N+](=O)[O-])c2nonc12

>  <score_type>  (20) 
oracle

>  <origin>  (20) 
adg

>  <m_score__min__energy>  (20) 
-5.7400000000000002

>  <m_primary>  (20) 
energy

$$$$
20:0
     RDKit          3D

 37 38  0  0  0  0  0  0  0  0999 V2000
   63.4270   33.4580   46.8270 C   0  0  0  0  0  0  0  0  0  0  0  0
   62.0540   33.7880   47.3880 C   0  0  0  0  0  0  0  0  0  0  0  0
   61.2060   34.2420   46.3370 O   0  0  0  0  0  0  0  0  0  0  0  0
   59.8220   34.0490   46.3500 C   0  0  0  0  0  0  0  0  0  0  0  0
   59.0750   34.8240   47.0080 O   0  0  0  0  0  0  0  0  0  0  0  0
   59.2390   32.8640   45.6180 C   0  0  2  0  0  0  0  0  0  0  0  0
   57.7300   32.9400   45.4280 C   0  0  0  0  0  0  0  0  0  0  0  0
   57.0130   34.2490   45.2560 C   0  0  0  0  0  0  0  0  0  0  0  0
   57.0560   31.8470   45.2200 N   0  0  0  0  0  0  0  0  0  0  0  0
   57.6410   30.5360   45.2430 C   0  0  0  0  0  0  0  0  0  0  0  0
   56.6440   29.1580   44.6560 S   0  0  0  0  0  0  0  0  0  0  0  0
   56.4560   29.8530   42.9860 C   0  0  0  0  0  0  0  0  0  0  0  0
   58.9000   30.3610   45.6920 C   0  0  0  0  0  0  0  0  0  0  0  0
   59.5110   29.0520   45.7210 C   0  0  0  0  0  0  0  0  0  0  0  0
   60.0000   28.0040   45.7450 N   0  0  0  0  0  0  0  0  0  0  0  0
   59.6510   31.5260   46.2930 C   0  0  2  0  0  0  0  0  0  0  0  0
   59.4480   31.5330   47.7920 C   0  0  0  0  0  0  0  0  0  0  0  0
   60.2760   30.9100   48.7180 C   0  0  0  0  0  0  0  0  0  0  0  0
   59.8790   31.1190   50.0450 C   0  0  0  0  0  0  0  0  0  0  0  0
   58.7460   31.9120   50.1710 C   0  0  0  0  0  0  0  0  0  0  0  0
   58.2380   32.3540   48.6320 S   0  0  0  0  0  0  0  0  0  0  0  0
   64.1306   33.2889   47.6554 H   0  0  0  0  0  0  0  0  0  0  0  0
   63.3623   32.5498   46.2097 H   0  0  0  0  0  0  0  0  0  0  0  0
   63.7821   34.2964   46.2097 H   0  0  0  0  0  0  0  0  0  0  0  0
   61.6194   32.8873   47.8462 H   0  0  0  0  0  0  0  0  0  0  0  0
   62.1495   34.5776   48.1479 H   0  0  0  0  0  0  0  0  0  0  0  0
   59.6714   32.8973   44.6071 H   0  0  0  0  0  0  0  0  0  0  0  0
   56.7810   34.6726   46.2443 H   0  0  0  0  0  0  0  0  0  0  0  0
   57.6542   34.9479   44.6989 H   0  0  0  0  0  0  0  0  0  0  0  0
   56.0788   34.0849   44.6989 H   0  0  0  0  0  0  0  0  0  0  0  0
   56.1694   30.9124   43.0599 H   0  0  0  0  0  0  0  0  0  0  0  0
   57.4094   29.7680   42.4440 H   0  0  0  0  0  0  0  0  0  0  0  0
   55.6754   29.2989   42.4440 H   0  0  0  0  0  0  0  0  0  0  0  0
   60.7284   31.4126   46.1021 H   0  0  0  0  0  0  0  0  0  0  0  0
   61.1556   30.3122   48.4369 H   0  0  0  0  0  0  0  0  0  0  0  0
   60.4148   30.6946   50.9069 H   0  0  0  0  0  0  0  0  0  0  0  0
   58.2638   32.2012   51.1165 H   0  0  0  0  0  0  0  0  0  0  0  0
  1  2  1  0
  2  3  1  0
  3  4  1  0
  4  5  2  0
  4  6  1  0
  6  7  1  0
  7  8  1  0
  7  9  2  0
  9 10  1  0
 10 11  1  0
 11 12  1  0
 10 13  2  0
 13 14  1  0
 14 15  3  0
 13 16  1  0
 16 17  1  0
 17 18  2  0
 18 19  1  0
 19 20  2  0
 20 21  1  0
 16  6  1  0
 21 17  1  0
  1 22  1  0
  1 23  1  0
  1 24  1  0
  2 25  1  0
  2 26  1  0
  6 27  1  6
  8 28  1  0
  8 29  1  0
  8 30  1  0
 12 31  1  0
 12 32  1  0
 12 33  1  0
 16 34  1  1
 18 35  1  0
 19 36  1  0
 20 37  1  0
M  END
>  <UniqueID>  (21) 
21

>  <SMILES>  (21) 
CCOC(=O)[C@@H]1C(C)=NC(SC)=C(C#N)[C@@H]1c1cccs1

>  <Energy>  (21) 
55.02577653892258

>  <Genealogy>  (21) 
CCOC(=O)[C@@H]1C(C)=NC(SC)=C(C#N)[C@@H]1c1cccs1 (chirality)
CCOC(=O)[C@@H]1C(C)=NC(SC)=C(C#N)[C@@H]1c1cccs1 (3D coordinates assigned)
CCOC(=O)[C@@H]1C(C)=NC(SC)=C(C#N)[C@@H]1c1cccs1 (nonaromatic ring conformer: 55.02577653892258 kcal/mol)

>  <smiles>  (21) 
CCOC(=O)C1C(C)=NC(SC)=C(C#N)C1c1cccs1

>  <score_type>  (21) 
oracle

>  <origin>  (21) 
adg

>  <m_score__min__energy>  (21) 
-6.5700000000000003

>  <m_primary>  (21) 
energy

$$$$
21:0
     RDKit          3D

 40 42  0  0  0  0  0  0  0  0999 V2000
   61.1090   33.8300   49.0500 C   0  0  0  0  0  0  0  0  0  0  0  0
   59.6440   34.1070   48.7380 C   0  0  0  0  0  0  0  0  0  0  0  0
   59.4620   34.3090   47.3020 N   0  0  0  0  0  0  0  0  0  0  0  0
   59.7930   35.4300   46.6690 N   0  0  0  0  0  0  0  0  0  0  0  0
   59.4180   35.3130   45.3700 C   0  0  0  0  0  0  0  0  0  0  0  0
   58.8240   34.0810   45.2000 C   0  0  0  0  0  0  0  0  0  0  0  0
   58.2610   33.4660   44.0880 C   0  0  0  0  0  0  0  0  0  0  0  0
   57.7120   32.1830   44.2630 C   0  0  0  0  0  0  0  0  0  0  0  0
   57.7190   31.5560   45.5340 C   0  0  0  0  0  0  0  0  0  0  0  0
   57.1450   30.2470   45.6500 N   0  0  0  0  0  0  0  0  0  0  0  0
   56.3750   29.5530   44.6600 C   0  0  0  0  0  0  0  0  0  0  0  0
   55.1480   29.3240   44.8350 O   0  0  0  0  0  0  0  0  0  0  0  0
   57.0130   29.2030   43.3500 C   0  0  0  0  0  0  0  0  0  0  0  0
   57.7680   27.8700   43.4320 C   0  0  0  0  0  0  0  0  0  0  0  0
   58.5870   27.7630   44.6940 C   0  0  0  0  0  0  0  0  0  0  0  0
   59.6950   28.6040   44.8970 C   0  0  0  0  0  0  0  0  0  0  0  0
   60.4210   28.5390   46.0910 C   0  0  0  0  0  0  0  0  0  0  0  0
   60.0480   27.6310   47.0880 C   0  0  0  0  0  0  0  0  0  0  0  0
   58.9450   26.7950   46.8950 C   0  0  0  0  0  0  0  0  0  0  0  0
   58.2130   26.8610   45.7060 C   0  0  0  0  0  0  0  0  0  0  0  0
   58.3200   32.2110   46.6370 C   0  0  0  0  0  0  0  0  0  0  0  0
   58.8610   33.4800   46.4250 C   0  0  0  0  0  0  0  0  0  0  0  0
   61.2529   33.8028   50.1402 H   0  0  0  0  0  0  0  0  0  0  0  0
   61.3991   32.8611   48.6176 H   0  0  0  0  0  0  0  0  0  0  0  0
   61.7329   34.6261   48.6176 H   0  0  0  0  0  0  0  0  0  0  0  0
   59.0351   33.2510   49.0643 H   0  0  0  0  0  0  0  0  0  0  0  0
   59.3300   35.0168   49.2706 H   0  0  0  0  0  0  0  0  0  0  0  0
   59.5633   36.0716   44.5868 H   0  0  0  0  0  0  0  0  0  0  0  0
   58.2454   33.9642   43.1074 H   0  0  0  0  0  0  0  0  0  0  0  0
   57.2713   31.6592   43.4019 H   0  0  0  0  0  0  0  0  0  0  0  0
   56.2305   29.1241   42.5809 H   0  0  0  0  0  0  0  0  0  0  0  0
   57.7341   29.9935   43.0946 H   0  0  0  0  0  0  0  0  0  0  0  0
   57.0389   27.0466   43.4106 H   0  0  0  0  0  0  0  0  0  0  0  0
   58.4549   27.8145   42.5746 H   0  0  0  0  0  0  0  0  0  0  0  0
   59.9925   29.3164   44.1134 H   0  0  0  0  0  0  0  0  0  0  0  0
   61.2851   29.2018   46.2460 H   0  0  0  0  0  0  0  0  0  0  0  0
   60.6231   27.5752   48.0240 H   0  0  0  0  0  0  0  0  0  0  0  0
   58.6520   26.0832   47.6808 H   0  0  0  0  0  0  0  0  0  0  0  0
   57.3417   26.2053   45.5615 H   0  0  0  0  0  0  0  0  0  0  0  0
   58.3590   31.7351   47.6280 H   0  0  0  0  0  0  0  0  0  0  0  0
  1  2  1  0
  2  3  1  0
  3  4  1  0
  4  5  2  0
  5  6  1  0
  6  7  2  0
  7  8  1  0
  8  9  2  0
  9 10  1  0
 10 11  1  0
 11 12  2  0
 11 13  1  0
 13 14  1  0
 14 15  1  0
 15 16  2  0
 16 17  1  0
 17 18  2  0
 18 19  1  0
 19 20  2  0
  9 21  1  0
 21 22  2  0
 22  3  1  0
 22  6  1  0
 20 15  1  0
  1 23  1  0
  1 24  1  0
  1 25  1  0
  2 26  1  0
  2 27  1  0
  5 28  1  0
  7 29  1  0
  8 30  1  0
 13 31  1  0
 13 32  1  0
 14 33  1  0
 14 34  1  0
 16 35  1  0
 17 36  1  0
 18 37  1  0
 19 38  1  0
 20 39  1  0
 21 40  1  0
M  CHG  1  10  -1
M  END
>  <UniqueID>  (22) 
22

>  <SMILES>  (22) 
CCn1ncc2ccc([N-]C(=O)CCc3ccccc3)cc21

>  <Energy>  (22) 
76.06570770669772

>  <Genealogy>  (22) 
CCn1ncc2ccc([N-]C(=O)CCc3ccccc3)cc21 (protonated)
CCn1ncc2ccc([N-]C(=O)CCc3ccccc3)cc21 (3D coordinates assigned)
CCn1ncc2ccc([N-]C(=O)CCc3ccccc3)cc21 (optimized conformer: 76.06570770669772 kcal/mol)

>  <smiles>  (22) 
CCn1ncc2ccc(NC(=O)CCc3ccccc3)cc21

>  <score_type>  (22) 
oracle

>  <origin>  (22) 
adg

>  <m_score__min__energy>  (22) 
-9.6099999999999994

>  <m_primary>  (22) 
energy

$$$$
22:0
     RDKit          3D

 51 51  0  0  0  0  0  0  0  0999 V2000
   63.4030   34.0260   46.3720 C   0  0  0  0  0  0  0  0  0  0  0  0
   63.3940   32.7020   47.1380 C   0  0  0  0  0  0  0  0  0  0  0  0
   62.0360   32.1550   47.3070 N   0  0  0  0  0  0  0  0  0  0  0  0
   61.9470   31.1300   48.3730 C   0  0  0  0  0  0  0  0  0  0  0  0
   60.6830   30.2620   48.2290 C   0  0  0  0  0  0  0  0  0  0  0  0
   59.8900   30.6870   47.0530 N   0  0  0  0  0  0  0  0  0  0  0  0
   59.4720   29.5360   46.2100 C   0  0  0  0  0  0  0  0  0  0  0  0
   58.3500   29.8490   45.2390 C   0  0  0  0  0  0  0  0  0  0  0  0
   58.5160   30.8260   44.2400 C   0  0  0  0  0  0  0  0  0  0  0  0
   57.4770   31.1050   43.3470 C   0  0  0  0  0  0  0  0  0  0  0  0
   56.2630   30.4210   43.4470 C   0  0  0  0  0  0  0  0  0  0  0  0
   56.0830   29.4600   44.4450 C   0  0  0  0  0  0  0  0  0  0  0  0
   57.1180   29.1790   45.3410 C   0  0  0  0  0  0  0  0  0  0  0  0
   58.7850   31.6070   47.4270 C   0  0  0  0  0  0  0  0  0  0  0  0
   58.9700   33.0560   46.8820 C   0  0  0  0  0  0  0  0  0  0  0  0
   60.0090   33.0720   45.9310 O   0  0  0  0  0  0  0  0  0  0  0  0
   59.2750   34.0630   48.0390 C   0  0  0  0  0  0  0  0  0  0  0  0
   59.6500   33.4260   49.3840 C   0  0  0  0  0  0  0  0  0  0  0  0
   57.6460   33.5120   46.1900 C   0  0  0  0  0  0  0  0  0  0  0  0
   57.8480   34.2440   44.8580 C   0  0  0  0  0  0  0  0  0  0  0  0
   63.4087   34.8627   47.0861 H   0  0  0  0  0  0  0  0  0  0  0  0
   64.3015   34.0776   45.7395 H   0  0  0  0  0  0  0  0  0  0  0  0
   62.5053   34.0898   45.7395 H   0  0  0  0  0  0  0  0  0  0  0  0
   64.0022   31.9709   46.5852 H   0  0  0  0  0  0  0  0  0  0  0  0
   63.8033   32.8941   48.1408 H   0  0  0  0  0  0  0  0  0  0  0  0
   61.4120   32.9550   47.5710 H   0  0  0  0  0  0  0  0  0  0  0  0
   61.6850   31.7930   46.3890 H   0  0  0  0  0  0  0  0  0  0  0  0
   62.8330   30.4805   48.3171 H   0  0  0  0  0  0  0  0  0  0  0  0
   61.8967   31.6484   49.3419 H   0  0  0  0  0  0  0  0  0  0  0  0
   60.9792   29.2100   48.1042 H   0  0  0  0  0  0  0  0  0  0  0  0
   60.0674   30.3794   49.1330 H   0  0  0  0  0  0  0  0  0  0  0  0
   60.3443   29.1981   45.6313 H   0  0  0  0  0  0  0  0  0  0  0  0
   59.0896   28.7656   46.8957 H   0  0  0  0  0  0  0  0  0  0  0  0
   59.4673   31.3726   44.1613 H   0  0  0  0  0  0  0  0  0  0  0  0
   57.6158   31.8649   42.5638 H   0  0  0  0  0  0  0  0  0  0  0  0
   55.4489   30.6390   42.7401 H   0  0  0  0  0  0  0  0  0  0  0  0
   55.1258   28.9241   44.5256 H   0  0  0  0  0  0  0  0  0  0  0  0
   56.9679   28.4287   46.1313 H   0  0  0  0  0  0  0  0  0  0  0  0
   57.8441   31.2019   47.0263 H   0  0  0  0  0  0  0  0  0  0  0  0
   58.7770   31.6731   48.5250 H   0  0  0  0  0  0  0  0  0  0  0  0
   60.0460   32.1760   45.5020 H   0  0  0  0  0  0  0  0  0  0  0  0
   60.1120   34.7020   47.7210 H   0  0  0  0  0  0  0  0  0  0  0  0
   58.3398   34.6148   48.2151 H   0  0  0  0  0  0  0  0  0  0  0  0
   59.2785   34.0570   50.2048 H   0  0  0  0  0  0  0  0  0  0  0  0
   59.1962   32.4266   49.4556 H   0  0  0  0  0  0  0  0  0  0  0  0
   60.7441   33.3378   49.4556 H   0  0  0  0  0  0  0  0  0  0  0  0
   57.0306   32.6197   46.0025 H   0  0  0  0  0  0  0  0  0  0  0  0
   57.1652   34.2283   46.8725 H   0  0  0  0  0  0  0  0  0  0  0  0
   58.1360   35.2876   45.0531 H   0  0  0  0  0  0  0  0  0  0  0  0
   58.6423   33.7459   44.2826 H   0  0  0  0  0  0  0  0  0  0  0  0
   56.9107   34.2237   44.2826 H   0  0  0  0  0  0  0  0  0  0  0  0
  1  2  1  0
  2  3  1  0
  3  4  1  0
  4  5  1  0
  5  6  1  0
  6  7  1  0
  7  8  1  0
  8  9  2  0
  9 10  1  0
 10 11  2  0
 11 12  1  0
 12 13  2  0
  6 14  1  0
 14 15  1  0
 15 16  1  0
 15 17  1  0
 17 18  1  0
 15 19  1  0
 19 20  1  0
 13  8  1  0
  1 21  1  0
  1 22  1  0
  1 23  1  0
  2 24  1  0
  2 25  1  0
  3 26  1  0
  3 27  1  0
  4 28  1  0
  4 29  1  0
  5 30  1  0
  5 31  1  0
  7 32  1  0
  7 33  1  0
  9 34  1  0
 10 35  1  0
 11 36  1  0
 12 37  1  0
 13 38  1  0
 14 39  1  0
 14 40  1  0
 16 41  1  0
 17 42  1  0
 17 43  1  0
 18 44  1  0
 18 45  1  0
 18 46  1  0
 19 47  1  0
 19 48  1  0
 20 49  1  0
 20 50  1  0
 20 51  1  0
M  CHG  1   3   1
M  END
>  <UniqueID>  (23) 
23

>  <SMILES>  (23) 
CC[NH2+]CCN(Cc1ccccc1)CC(O)(CC)CC

>  <Energy>  (23) 
51.22120032308858

>  <Genealogy>  (23) 
CC[NH2+]CCN(Cc1ccccc1)CC(O)(CC)CC (protonated)
CC[NH2+]CCN(Cc1ccccc1)CC(O)(CC)CC (3D coordinates assigned)
CC[NH2+]CCN(Cc1ccccc1)CC(O)(CC)CC (optimized conformer: 51.22120032308858 kcal/mol)

>  <smiles>  (23) 
CCNCCN(Cc1ccccc1)CC(O)(CC)CC

>  <score_type>  (23) 
oracle

>  <origin>  (23) 
adg

>  <m_score__min__energy>  (23) 
-3.8199999999999998

>  <m_primary>  (23) 
energy

$$$$
23:0
     RDKit          3D

 41 44  0  0  0  0  0  0  0  0999 V2000
   57.8770   31.7800   51.3090 C   0  0  0  0  0  0  0  0  0  0  0  0
   59.1840   31.4920   50.5420 C   0  0  1  0  0  0  0  0  0  0  0  0
   58.8890   31.4260   49.0150 C   0  0  0  0  0  0  0  0  0  0  0  0
   59.0960   32.7160   48.3690 N   0  0  0  0  0  0  0  0  0  0  0  0
   59.6470   33.8090   48.9310 C   0  0  0  0  0  0  0  0  0  0  0  0
   59.8010   34.8510   48.0720 N   0  0  0  0  0  0  0  0  0  0  0  0
   59.3350   34.3440   46.9130 C   0  0  0  0  0  0  0  0  0  0  0  0
   59.2880   34.9680   45.6690 C   0  0  0  0  0  0  0  0  0  0  0  0
   58.7920   34.2250   44.5810 C   0  0  0  0  0  0  0  0  0  0  0  0
   58.3660   32.8890   44.7610 C   0  0  0  0  0  0  0  0  0  0  0  0
   58.4290   32.2840   46.0300 C   0  0  0  0  0  0  0  0  0  0  0  0
   58.9170   33.0540   47.0850 C   0  0  0  0  0  0  0  0  0  0  0  0
   60.0420   33.8430   50.3680 C   0  0  0  0  0  0  0  0  0  0  0  0
   60.2520   32.4770   50.9160 N   0  0  2  0  0  0  0  0  0  0  0  0
   61.6430   31.9700   50.7440 C   0  0  0  0  0  0  0  0  0  0  0  0
   62.3170   32.3440   49.4410 C   0  0  0  0  0  0  0  0  0  0  0  0
   62.2230   31.4940   48.3250 C   0  0  0  0  0  0  0  0  0  0  0  0
   62.8470   31.8350   47.1210 C   0  0  0  0  0  0  0  0  0  0  0  0
   63.5950   33.0120   47.0290 C   0  0  0  0  0  0  0  0  0  0  0  0
   63.7330   33.8390   48.1440 C   0  0  0  0  0  0  0  0  0  0  0  0
   63.1130   33.5010   49.3500 C   0  0  0  0  0  0  0  0  0  0  0  0
   58.0699   31.7375   52.3911 H   0  0  0  0  0  0  0  0  0  0  0  0
   57.5078   32.7810   51.0414 H   0  0  0  0  0  0  0  0  0  0  0  0
   57.1213   31.0268   51.0414 H   0  0  0  0  0  0  0  0  0  0  0  0
   59.5831   30.5082   50.8300 H   0  0  0  0  0  0  0  0  0  0  0  0
   59.5590   30.6852   48.5543 H   0  0  0  0  0  0  0  0  0  0  0  0
   57.8349   31.1414   48.8817 H   0  0  0  0  0  0  0  0  0  0  0  0
   59.6270   36.0066   45.5408 H   0  0  0  0  0  0  0  0  0  0  0  0
   58.7355   34.6869   43.5843 H   0  0  0  0  0  0  0  0  0  0  0  0
   57.9824   32.3181   43.9026 H   0  0  0  0  0  0  0  0  0  0  0  0
   58.1058   31.2439   46.1837 H   0  0  0  0  0  0  0  0  0  0  0  0
   60.9772   34.4137   50.4667 H   0  0  0  0  0  0  0  0  0  0  0  0
   59.2274   34.3171   50.9351 H   0  0  0  0  0  0  0  0  0  0  0  0
   60.1810   32.6000   51.9550 H   0  0  0  0  0  0  0  0  0  0  0  0
   62.2532   32.3688   51.5678 H   0  0  0  0  0  0  0  0  0  0  0  0
   61.5659   30.8727   50.7398 H   0  0  0  0  0  0  0  0  0  0  0  0
   61.6551   30.5549   48.3995 H   0  0  0  0  0  0  0  0  0  0  0  0
   62.7491   31.1763   46.2455 H   0  0  0  0  0  0  0  0  0  0  0  0
   64.0747   33.2862   46.0778 H   0  0  0  0  0  0  0  0  0  0  0  0
   64.3313   34.7594   48.0738 H   0  0  0  0  0  0  0  0  0  0  0  0
   63.2479   34.1429   50.2330 H   0  0  0  0  0  0  0  0  0  0  0  0
  1  2  1  0
  2  3  1  0
  3  4  1  0
  4  5  1  0
  5  6  2  0
  6  7  1  0
  7  8  2  0
  8  9  1  0
  9 10  2  0
 10 11  1  0
 11 12  2  0
  5 13  1  0
 13 14  1  0
 14 15  1  0
 15 16  1  0
 16 17  2  0
 17 18  1  0
 18 19  2  0
 19 20  1  0
 20 21  2  0
 14  2  1  0
 21 16  1  0
 12  4  1  0
 12  7  1  0
  1 22  1  0
  1 23  1  0
  1 24  1  0
  2 25  1  1
  3 26  1  0
  3 27  1  0
  8 28  1  0
  9 29  1  0
 10 30  1  0
 11 31  1  0
 13 32  1  0
 13 33  1  0
 14 34  1  1
 15 35  1  0
 15 36  1  0
 17 37  1  0
 18 38  1  0
 19 39  1  0
 20 40  1  0
 21 41  1  0
M  CHG  1  14   1
M  END
>  <UniqueID>  (24) 
24

>  <SMILES>  (24) 
C[C@H]1Cn2c(nc3ccccc32)C[N@@H+]1Cc1ccccc1

>  <Energy>  (24) 
92.60185116752159

>  <Genealogy>  (24) 
CC1Cn2c(nc3ccccc32)C[NH+]1Cc1ccccc1 (protonated)
C[C@H]1Cn2c(nc3ccccc32)C[N@@H+]1Cc1ccccc1 (chirality)
C[C@H]1Cn2c(nc3ccccc32)C[N@@H+]1Cc1ccccc1 (3D coordinates assigned)
C[C@H]1Cn2c(nc3ccccc32)C[N@@H+]1Cc1ccccc1 (nonaromatic ring conformer: 92.60185116752159 kcal/mol)

>  <smiles>  (24) 
CC1Cn2c(nc3ccccc32)CN1Cc1ccccc1

>  <score_type>  (24) 
oracle

>  <origin>  (24) 
adg

>  <m_score__min__energy>  (24) 
-6.0800000000000001

>  <m_primary>  (24) 
energy

$$$$
24:0
     RDKit          3D

 36 36  0  0  0  0  0  0  0  0999 V2000
   55.3660   25.0980   45.6570 C   0  0  0  0  0  0  0  0  0  0  0  0
   55.4480   26.4820   45.9830 O   0  0  0  0  0  0  0  0  0  0  0  0
   56.6410   27.2200   46.0260 C   0  0  0  0  0  0  0  0  0  0  0  0
   57.8100   26.7170   46.6270 C   0  0  0  0  0  0  0  0  0  0  0  0
   58.9840   27.4760   46.6520 C   0  0  0  0  0  0  0  0  0  0  0  0
   60.5250   26.7080   47.5030 Br  0  0  0  0  0  0  0  0  0  0  0  0
   59.0040   28.7620   46.0750 C   0  0  0  0  0  0  0  0  0  0  0  0
   60.2630   29.6070   46.0550 C   0  0  0  0  0  0  0  0  0  0  0  0
   60.0120   31.0020   46.4660 N   0  0  0  0  0  0  0  0  0  0  0  0
   61.1580   31.6560   47.1280 C   0  0  0  0  0  0  0  0  0  0  0  0
   60.9220   33.1530   47.3820 C   0  0  0  0  0  0  0  0  0  0  0  0
   59.1500   33.5590   47.1980 S   0  0  0  0  0  0  0  0  0  0  0  0
   59.3420   34.5820   45.7020 C   0  0  0  0  0  0  0  0  0  0  0  0
   57.8350   29.2630   45.4810 C   0  0  0  0  0  0  0  0  0  0  0  0
   56.6550   28.4980   45.4500 C   0  0  0  0  0  0  0  0  0  0  0  0
   55.4750   28.9720   44.8530 O   0  0  0  0  0  0  0  0  0  0  0  0
   55.4280   29.7310   43.6480 C   0  0  0  0  0  0  0  0  0  0  0  0
   55.3309   24.5047   46.5826 H   0  0  0  0  0  0  0  0  0  0  0  0
   54.4553   24.9133   45.0683 H   0  0  0  0  0  0  0  0  0  0  0  0
   56.2485   24.8071   45.0683 H   0  0  0  0  0  0  0  0  0  0  0  0
   57.8000   25.7156   47.0821 H   0  0  0  0  0  0  0  0  0  0  0  0
   60.9973   29.1629   46.7432 H   0  0  0  0  0  0  0  0  0  0  0  0
   60.6381   29.6248   45.0211 H   0  0  0  0  0  0  0  0  0  0  0  0
   59.1980   31.0250   47.1220 H   0  0  0  0  0  0  0  0  0  0  0  0
   59.7410   31.5570   45.6200 H   0  0  0  0  0  0  0  0  0  0  0  0
   61.3370   31.1594   48.0931 H   0  0  0  0  0  0  0  0  0  0  0  0
   62.0247   31.5659   46.4567 H   0  0  0  0  0  0  0  0  0  0  0  0
   61.2470   33.4030   48.4027 H   0  0  0  0  0  0  0  0  0  0  0  0
   61.4993   33.7347   46.6482 H   0  0  0  0  0  0  0  0  0  0  0  0
   59.5377   35.6245   45.9933 H   0  0  0  0  0  0  0  0  0  0  0  0
   60.1848   34.2038   45.1049 H   0  0  0  0  0  0  0  0  0  0  0  0
   58.4194   34.5351   45.1049 H   0  0  0  0  0  0  0  0  0  0  0  0
   57.8418   30.2678   45.0335 H   0  0  0  0  0  0  0  0  0  0  0  0
   55.3617   30.8017   43.8914 H   0  0  0  0  0  0  0  0  0  0  0  0
   56.3394   29.5441   43.0612 H   0  0  0  0  0  0  0  0  0  0  0  0
   54.5466   29.4331   43.0612 H   0  0  0  0  0  0  0  0  0  0  0  0
  1  2  1  0
  2  3  1  0
  3  4  2  0
  4  5  1  0
  5  6  1  0
  5  7  2  0
  7  8  1  0
  8  9  1  0
  9 10  1  0
 10 11  1  0
 11 12  1  0
 12 13  1  0
  7 14  1  0
 14 15  2  0
 15 16  1  0
 16 17  1  0
 15  3  1  0
  1 18  1  0
  1 19  1  0
  1 20  1  0
  4 21  1  0
  8 22  1  0
  8 23  1  0
  9 24  1  0
  9 25  1  0
 10 26  1  0
 10 27  1  0
 11 28  1  0
 11 29  1  0
 13 30  1  0
 13 31  1  0
 13 32  1  0
 14 33  1  0
 17 34  1  0
 17 35  1  0
 17 36  1  0
M  CHG  1   9   1
M  END
>  <UniqueID>  (25) 
25

>  <SMILES>  (25) 
COc1cc(Br)c(C[NH2+]CCSC)cc1OC

>  <Energy>  (25) 
30.02067677439268

>  <Genealogy>  (25) 
COc1cc(Br)c(C[NH2+]CCSC)cc1OC (protonated)
COc1cc(Br)c(C[NH2+]CCSC)cc1OC (3D coordinates assigned)
COc1cc(Br)c(C[NH2+]CCSC)cc1OC (optimized conformer: 30.02067677439268 kcal/mol)

>  <smiles>  (25) 
COc1cc(Br)c(CNCCSC)cc1OC

>  <score_type>  (25) 
oracle

>  <origin>  (25) 
adg

>  <m_score__min__energy>  (25) 
-4.4299999999999997

>  <m_primary>  (25) 
energy

$$$$
25:0
     RDKit          3D

 46 49  0  0  0  0  0  0  0  0999 V2000
   55.9310   29.5630   42.6140 N   0  0  0  0  0  0  0  0  0  0  0  0
   56.5420   30.0260   43.4820 C   0  0  0  0  0  0  0  0  0  0  0  0
   57.3010   30.6020   44.5590 C   0  0  0  0  0  0  0  0  0  0  0  0
   57.4100   31.9510   44.8610 C   0  0  0  0  0  0  0  0  0  0  0  0
   58.2080   32.1230   45.9430 N   0  0  0  0  0  0  0  0  0  0  0  0
   58.5560   33.4050   46.5580 C   0  0  0  0  0  0  0  0  0  0  0  0
   59.9040   33.8880   46.0860 C   0  0  0  0  0  0  0  0  0  0  0  0
   60.0220   34.2680   44.8900 O   0  0  0  0  0  0  0  0  0  0  0  0
   61.0550   33.9080   46.9590 N   0  0  0  0  0  0  0  0  0  0  0  0
   62.4070   33.9370   46.3790 C   0  0  0  0  0  0  0  0  0  0  0  0
   63.3520   33.0320   47.1780 C   0  0  0  0  0  0  0  0  0  0  0  0
   63.1820   33.2160   48.6260 N   0  0  0  0  0  0  0  0  0  0  0  0
   63.9660   32.4280   49.5370 C   0  0  0  0  0  0  0  0  0  0  0  0
   65.3230   32.7270   49.7410 C   0  0  0  0  0  0  0  0  0  0  0  0
   66.0900   31.9580   50.6230 C   0  0  0  0  0  0  0  0  0  0  0  0
   65.5090   30.8850   51.3030 C   0  0  0  0  0  0  0  0  0  0  0  0
   64.1610   30.5770   51.1020 C   0  0  0  0  0  0  0  0  0  0  0  0
   63.3890   31.3430   50.2220 C   0  0  0  0  0  0  0  0  0  0  0  0
   62.0900   31.0110   50.0150 F   0  0  0  0  0  0  0  0  0  0  0  0
   62.2260   34.2040   49.1340 C   0  0  0  0  0  0  0  0  0  0  0  0
   60.8820   34.0440   48.4160 C   0  0  0  0  0  0  0  0  0  0  0  0
   58.5870   30.8850   46.3330 C   0  0  0  0  0  0  0  0  0  0  0  0
   59.3840   30.5280   47.4270 C   0  0  0  0  0  0  0  0  0  0  0  0
   59.6360   29.1610   47.6400 C   0  0  0  0  0  0  0  0  0  0  0  0
   59.0910   28.1870   46.7760 C   0  0  0  0  0  0  0  0  0  0  0  0
   58.2840   28.5700   45.6910 C   0  0  0  0  0  0  0  0  0  0  0  0
   58.0520   29.9330   45.5020 C   0  0  0  0  0  0  0  0  0  0  0  0
   56.9202   32.7631   44.3037 H   0  0  0  0  0  0  0  0  0  0  0  0
   57.7933   34.1507   46.2892 H   0  0  0  0  0  0  0  0  0  0  0  0
   58.5973   33.2683   47.6487 H   0  0  0  0  0  0  0  0  0  0  0  0
   62.3622   33.5847   45.3379 H   0  0  0  0  0  0  0  0  0  0  0  0
   62.7875   34.9685   46.4135 H   0  0  0  0  0  0  0  0  0  0  0  0
   63.1407   31.9827   46.9243 H   0  0  0  0  0  0  0  0  0  0  0  0
   64.3866   33.2989   46.9165 H   0  0  0  0  0  0  0  0  0  0  0  0
   65.7848   33.5693   49.2051 H   0  0  0  0  0  0  0  0  0  0  0  0
   67.1516   32.1986   50.7811 H   0  0  0  0  0  0  0  0  0  0  0  0
   66.1130   30.2822   51.9971 H   0  0  0  0  0  0  0  0  0  0  0  0
   63.7058   29.7304   51.6369 H   0  0  0  0  0  0  0  0  0  0  0  0
   62.0832   34.0520   50.2140 H   0  0  0  0  0  0  0  0  0  0  0  0
   62.6174   35.2154   48.9501 H   0  0  0  0  0  0  0  0  0  0  0  0
   60.3773   33.1454   48.8004 H   0  0  0  0  0  0  0  0  0  0  0  0
   60.2817   34.9457   48.6072 H   0  0  0  0  0  0  0  0  0  0  0  0
   59.8002   31.2929   48.0991 H   0  0  0  0  0  0  0  0  0  0  0  0
   60.2635   28.8480   48.4875 H   0  0  0  0  0  0  0  0  0  0  0  0
   59.2992   27.1215   46.9530 H   0  0  0  0  0  0  0  0  0  0  0  0
   57.8497   27.8203   45.0133 H   0  0  0  0  0  0  0  0  0  0  0  0
  1  2  3  0
  2  3  1  0
  3  4  2  0
  4  5  1  0
  5  6  1  0
  6  7  1  0
  7  8  2  0
  7  9  1  0
  9 10  1  0
 10 11  1  0
 11 12  1  0
 12 13  1  0
 13 14  2  0
 14 15  1  0
 15 16  2  0
 16 17  1  0
 17 18  2  0
 18 19  1  0
 12 20  1  0
 20 21  1  0
  5 22  1  0
 22 23  2  0
 23 24  1  0
 24 25  2  0
 25 26  1  0
 26 27  2  0
 27  3  1  0
 21  9  1  0
 27 22  1  0
 18 13  1  0
  4 28  1  0
  6 29  1  0
  6 30  1  0
 10 31  1  0
 10 32  1  0
 11 33  1  0
 11 34  1  0
 14 35  1  0
 15 36  1  0
 16 37  1  0
 17 38  1  0
 20 39  1  0
 20 40  1  0
 21 41  1  0
 21 42  1  0
 23 43  1  0
 24 44  1  0
 25 45  1  0
 26 46  1  0
M  END
>  <UniqueID>  (26) 
26

>  <SMILES>  (26) 
N#Cc1cn(CC(=O)N2CCN(c3ccccc3F)CC2)c2ccccc12

>  <Energy>  (26) 
87.74277654898998

>  <Genealogy>  (26) 
N#Cc1cn(CC(=O)N2CCN(c3ccccc3F)CC2)c2ccccc12 (3D coordinates assigned)
N#Cc1cn(CC(=O)N2CCN(c3ccccc3F)CC2)c2ccccc12 (nonaromatic ring conformer: 87.74277654898998 kcal/mol)

>  <smiles>  (26) 
N#Cc1cn(CC(=O)N2CCN(c3ccccc3F)CC2)c2ccccc12

>  <score_type>  (26) 
oracle

>  <origin>  (26) 
adg

>  <m_score__min__energy>  (26) 
-7.6799999999999997

>  <m_primary>  (26) 
energy

$$$$
26:0
     RDKit          3D

 54 56  0  0  0  0  0  0  0  0999 V2000
   55.6570   24.6430   45.3850 C   0  0  0  0  0  0  0  0  0  0  0  0
   55.7820   25.6440   46.3720 O   0  0  0  0  0  0  0  0  0  0  0  0
   57.1390   25.8090   46.7410 C   0  0  0  0  0  0  0  0  0  0  0  0
   58.0140   25.9230   45.4880 C   0  0  0  0  0  0  0  0  0  0  0  0
   57.7920   27.2230   44.8200 N   0  0  0  0  0  0  0  0  0  0  0  0
   59.0770   27.8280   44.4000 C   0  0  0  0  0  0  0  0  0  0  0  0
   58.9220   29.3340   44.1540 C   0  0  0  0  0  0  0  0  0  0  0  0
   58.5710   30.0560   45.4060 N   0  0  0  0  0  0  0  0  0  0  0  0
   57.8810   31.3290   45.0750 C   0  0  0  0  0  0  0  0  0  0  0  0
   58.6960   32.5530   45.4580 C   0  0  0  0  0  0  0  0  0  0  0  0
   58.2870   33.8020   44.9570 C   0  0  0  0  0  0  0  0  0  0  0  0
   58.9310   34.9730   45.3440 C   0  0  0  0  0  0  0  0  0  0  0  0
   59.9960   34.9240   46.2390 C   0  0  0  0  0  0  0  0  0  0  0  0
   60.4440   33.6940   46.7430 C   0  0  0  0  0  0  0  0  0  0  0  0
   61.5920   33.6770   47.6800 C   0  0  0  0  0  0  0  0  0  0  0  0
   61.4580   34.1740   48.9880 C   0  0  0  0  0  0  0  0  0  0  0  0
   62.5430   34.1470   49.8680 C   0  0  0  0  0  0  0  0  0  0  0  0
   63.7690   33.6210   49.4530 C   0  0  0  0  0  0  0  0  0  0  0  0
   63.9100   33.1150   48.1580 C   0  0  0  0  0  0  0  0  0  0  0  0
   62.8260   33.1390   47.2750 C   0  0  0  0  0  0  0  0  0  0  0  0
   59.8060   32.4960   46.3480 C   0  0  0  0  0  0  0  0  0  0  0  0
   60.2700   31.2910   46.9000 O   0  0  0  0  0  0  0  0  0  0  0  0
   60.0760   30.9080   48.2560 C   0  0  0  0  0  0  0  0  0  0  0  0
   57.7750   29.2200   46.3500 C   0  0  0  0  0  0  0  0  0  0  0  0
   56.9480   28.1420   45.6290 C   0  0  0  0  0  0  0  0  0  0  0  0
   55.5347   23.6632   45.8699 H   0  0  0  0  0  0  0  0  0  0  0  0
   54.7782   24.8541   44.7579 H   0  0  0  0  0  0  0  0  0  0  0  0
   56.5607   24.6315   44.7579 H   0  0  0  0  0  0  0  0  0  0  0  0
   57.2440   26.7238   47.3428 H   0  0  0  0  0  0  0  0  0  0  0  0
   57.4617   24.9365   47.3280 H   0  0  0  0  0  0  0  0  0  0  0  0
   59.0723   25.8399   45.7763 H   0  0  0  0  0  0  0  0  0  0  0  0
   57.7468   25.1143   44.7919 H   0  0  0  0  0  0  0  0  0  0  0  0
   59.8251   27.6679   45.1903 H   0  0  0  0  0  0  0  0  0  0  0  0
   59.3985   27.3513   43.4622 H   0  0  0  0  0  0  0  0  0  0  0  0
   59.8707   29.7325   43.7653 H   0  0  0  0  0  0  0  0  0  0  0  0
   58.1087   29.4840   43.4287 H   0  0  0  0  0  0  0  0  0  0  0  0
   59.4760   30.2840   45.8830 H   0  0  0  0  0  0  0  0  0  0  0  0
   57.6927   31.3562   43.9916 H   0  0  0  0  0  0  0  0  0  0  0  0
   56.9442   31.3593   45.6508 H   0  0  0  0  0  0  0  0  0  0  0  0
   57.4464   33.8537   44.2494 H   0  0  0  0  0  0  0  0  0  0  0  0
   58.5974   35.9408   44.9414 H   0  0  0  0  0  0  0  0  0  0  0  0
   60.4894   35.8557   46.5530 H   0  0  0  0  0  0  0  0  0  0  0  0
   60.4939   34.5863   49.3205 H   0  0  0  0  0  0  0  0  0  0  0  0
   62.4317   34.5405   50.8892 H   0  0  0  0  0  0  0  0  0  0  0  0
   64.6234   33.6051   50.1457 H   0  0  0  0  0  0  0  0  0  0  0  0
   64.8744   32.6975   47.8330 H   0  0  0  0  0  0  0  0  0  0  0  0
   62.9394   32.7348   46.2583 H   0  0  0  0  0  0  0  0  0  0  0  0
   60.4728   31.6913   48.9186 H   0  0  0  0  0  0  0  0  0  0  0  0
   59.0014   30.7741   48.4490 H   0  0  0  0  0  0  0  0  0  0  0  0
   60.6038   29.9624   48.4490 H   0  0  0  0  0  0  0  0  0  0  0  0
   58.4642   28.7259   47.0507 H   0  0  0  0  0  0  0  0  0  0  0  0
   57.0727   29.8848   46.8743 H   0  0  0  0  0  0  0  0  0  0  0  0
   56.4052   27.5516   46.3818 H   0  0  0  0  0  0  0  0  0  0  0  0
   56.2581   28.6539   44.9420 H   0  0  0  0  0  0  0  0  0  0  0  0
  1  2  1  0
  2  3  1  0
  3  4  1  0
  4  5  1  0
  5  6  1  0
  6  7  1  0
  7  8  1  0
  8  9  1  0
  9 10  1  0
 10 11  2  0
 11 12  1  0
 12 13  2  0
 13 14  1  0
 14 15  1  0
 15 16  2  0
 16 17  1  0
 17 18  2  0
 18 19  1  0
 19 20  2  0
 14 21  2  0
 21 22  1  0
 22 23  1  0
  8 24  1  0
 24 25  1  0
 25  5  1  0
 21 10  1  0
 20 15  1  0
  1 26  1  0
  1 27  1  0
  1 28  1  0
  3 29  1  0
  3 30  1  0
  4 31  1  0
  4 32  1  0
  6 33  1  0
  6 34  1  0
  7 35  1  0
  7 36  1  0
  8 37  1  0
  9 38  1  0
  9 39  1  0
 11 40  1  0
 12 41  1  0
 13 42  1  0
 16 43  1  0
 17 44  1  0
 18 45  1  0
 19 46  1  0
 20 47  1  0
 23 48  1  0
 23 49  1  0
 23 50  1  0
 24 51  1  0
 24 52  1  0
 25 53  1  0
 25 54  1  0
M  CHG  1   8   1
M  END
>  <UniqueID>  (27) 
27

>  <SMILES>  (27) 
COCCN1CC[NH+](Cc2cccc(-c3ccccc3)c2OC)CC1

>  <Energy>  (27) 
84.67707446540638

>  <Genealogy>  (27) 
COCCN1CC[NH+](Cc2cccc(-c3ccccc3)c2OC)CC1 (protonated)
COCCN1CC[NH+](Cc2cccc(-c3ccccc3)c2OC)CC1 (3D coordinates assigned)
COCCN1CC[NH+](Cc2cccc(-c3ccccc3)c2OC)CC1 (nonaromatic ring conformer: 84.67707446540638 kcal/mol)

>  <smiles>  (27) 
COCCN1CCN(Cc2cccc(-c3ccccc3)c2OC)CC1

>  <score_type>  (27) 
oracle

>  <origin>  (27) 
adg

>  <m_score__min__energy>  (27) 
-5.3700000000000001

>  <m_primary>  (27) 
energy

$$$$
27:0
     RDKit          3D

 42 44  0  0  0  0  0  0  0  0999 V2000
   58.1090   21.9390   44.4420 C   0  0  0  0  0  0  0  0  0  0  0  0
   57.1510   21.5490   43.3290 C   0  0  0  0  0  0  0  0  0  0  0  0
   55.8960   22.1520   43.5650 O   0  0  0  0  0  0  0  0  0  0  0  0
   55.6550   22.2090   44.9560 C   0  0  0  0  0  0  0  0  0  0  0  0
   54.7410   23.3630   45.2520 C   0  0  0  0  0  0  0  0  0  0  0  0
   53.5430   23.3110   44.8670 O   0  0  0  0  0  0  0  0  0  0  0  0
   55.1800   24.5120   45.9900 N   0  0  0  0  0  0  0  0  0  0  0  0
   56.1880   25.4520   45.5920 C   0  0  0  0  0  0  0  0  0  0  0  0
   57.0210   25.2160   44.4870 C   0  0  0  0  0  0  0  0  0  0  0  0
   57.9740   26.1660   44.1060 C   0  0  0  0  0  0  0  0  0  0  0  0
   58.0890   27.3790   44.8130 C   0  0  0  0  0  0  0  0  0  0  0  0
   59.0330   28.3590   44.4700 O   0  0  0  0  0  0  0  0  0  0  0  0
   59.0780   29.6380   45.0330 C   0  0  0  0  0  0  0  0  0  0  0  0
   60.0390   29.9030   46.0110 C   0  0  0  0  0  0  0  0  0  0  0  0
   60.1320   31.1670   46.5910 C   0  0  0  0  0  0  0  0  0  0  0  0
   59.2510   32.1870   46.2040 C   0  0  0  0  0  0  0  0  0  0  0  0
   59.3510   33.4590   46.7880 C   0  0  0  0  0  0  0  0  0  0  0  0
   58.4730   34.4760   46.4120 C   0  0  0  0  0  0  0  0  0  0  0  0
   57.4900   34.2320   45.4530 C   0  0  0  0  0  0  0  0  0  0  0  0
   57.3770   32.9710   44.8620 C   0  0  0  0  0  0  0  0  0  0  0  0
   58.2540   31.9290   45.2270 C   0  0  0  0  0  0  0  0  0  0  0  0
   58.1650   30.6410   44.6460 C   0  0  0  0  0  0  0  0  0  0  0  0
   56.7850   30.1980   43.3750 Br  0  0  0  0  0  0  0  0  0  0  0  0
   57.2420   27.6170   45.9010 C   0  0  0  0  0  0  0  0  0  0  0  0
   56.2900   26.6660   46.2810 C   0  0  0  0  0  0  0  0  0  0  0  0
   57.6366   21.7467   45.4166 H   0  0  0  0  0  0  0  0  0  0  0  0
   59.0306   21.3445   44.3576 H   0  0  0  0  0  0  0  0  0  0  0  0
   58.3533   23.0082   44.3576 H   0  0  0  0  0  0  0  0  0  0  0  0
   57.5491   21.8936   42.3632 H   0  0  0  0  0  0  0  0  0  0  0  0
   57.0372   20.4552   43.3053 H   0  0  0  0  0  0  0  0  0  0  0  0
   55.1831   21.2719   45.2863 H   0  0  0  0  0  0  0  0  0  0  0  0
   56.6067   22.3448   45.4906 H   0  0  0  0  0  0  0  0  0  0  0  0
   56.9237   24.2795   43.9182 H   0  0  0  0  0  0  0  0  0  0  0  0
   58.6363   25.9653   43.2510 H   0  0  0  0  0  0  0  0  0  0  0  0
   60.7291   29.1067   46.3266 H   0  0  0  0  0  0  0  0  0  0  0  0
   60.8987   31.3650   47.3545 H   0  0  0  0  0  0  0  0  0  0  0  0
   60.1245   33.6550   47.5451 H   0  0  0  0  0  0  0  0  0  0  0  0
   58.5561   35.4715   46.8724 H   0  0  0  0  0  0  0  0  0  0  0  0
   56.7998   35.0369   45.1603 H   0  0  0  0  0  0  0  0  0  0  0  0
   56.5983   32.7898   44.1065 H   0  0  0  0  0  0  0  0  0  0  0  0
   57.3257   28.5596   46.4618 H   0  0  0  0  0  0  0  0  0  0  0  0
   55.6173   26.8732   47.1263 H   0  0  0  0  0  0  0  0  0  0  0  0
  1  2  1  0
  2  3  1  0
  3  4  1  0
  4  5  1  0
  5  6  2  0
  5  7  1  0
  7  8  1  0
  8  9  2  0
  9 10  1  0
 10 11  2  0
 11 12  1  0
 12 13  1  0
 13 14  2  0
 14 15  1  0
 15 16  2  0
 16 17  1  0
 17 18  2  0
 18 19  1  0
 19 20  2  0
 20 21  1  0
 21 22  2  0
 22 23  1  0
 11 24  1  0
 24 25  2  0
 25  8  1  0
 22 13  1  0
 21 16  1  0
  1 26  1  0
  1 27  1  0
  1 28  1  0
  2 29  1  0
  2 30  1  0
  4 31  1  0
  4 32  1  0
  9 33  1  0
 10 34  1  0
 14 35  1  0
 15 36  1  0
 17 37  1  0
 18 38  1  0
 19 39  1  0
 20 40  1  0
 24 41  1  0
 25 42  1  0
M  CHG  1   7  -1
M  END
>  <UniqueID>  (28) 
28

>  <SMILES>  (28) 
CCOCC(=O)[N-]c1ccc(Oc2ccc3ccccc3c2Br)cc1

>  <Energy>  (28) 
60.5020888394166

>  <Genealogy>  (28) 
CCOCC(=O)[N-]c1ccc(Oc2ccc3ccccc3c2Br)cc1 (protonated)
CCOCC(=O)[N-]c1ccc(Oc2ccc3ccccc3c2Br)cc1 (3D coordinates assigned)
CCOCC(=O)[N-]c1ccc(Oc2ccc3ccccc3c2Br)cc1 (optimized conformer: 60.5020888394166 kcal/mol)

>  <smiles>  (28) 
CCOCC(=O)Nc1ccc(Oc2ccc3ccccc3c2Br)cc1

>  <score_type>  (28) 
oracle

>  <origin>  (28) 
adg

>  <m_score__min__energy>  (28) 
-9.9399999999999995

>  <m_primary>  (28) 
energy

$$$$
28:0
     RDKit          3D

 47 49  0  0  0  0  0  0  0  0999 V2000
   54.4750   24.0710   44.9070 C   0  0  0  0  0  0  0  0  0  0  0  0
   55.2540   24.3680   46.0620 O   0  0  0  0  0  0  0  0  0  0  0  0
   56.5280   24.9540   46.0280 C   0  0  0  0  0  0  0  0  0  0  0  0
   57.7080   24.1860   46.0170 C   0  0  0  0  0  0  0  0  0  0  0  0
   58.9550   24.8130   45.9840 C   0  0  0  0  0  0  0  0  0  0  0  0
   59.0410   26.2060   45.9570 C   0  0  0  0  0  0  0  0  0  0  0  0
   57.8750   26.9880   45.9590 C   0  0  0  0  0  0  0  0  0  0  0  0
   57.9710   28.4640   45.9460 C   0  0  0  0  0  0  0  0  0  0  0  0
   58.5030   29.2700   46.9480 C   0  0  0  0  0  0  0  0  0  0  0  0
   58.4560   30.5360   46.5840 O   0  0  0  0  0  0  0  0  0  0  0  0
   57.9120   30.6010   45.3920 C   0  0  0  0  0  0  0  0  0  0  0  0
   57.6650   31.7450   44.6180 C   0  0  0  0  0  0  0  0  0  0  0  0
   58.0130   33.1070   45.0860 C   0  0  0  0  0  0  0  0  0  0  0  0
   57.6250   34.1050   44.4210 O   0  0  0  0  0  0  0  0  0  0  0  0
   58.7650   33.3060   46.2910 N   0  0  0  0  0  0  0  0  0  0  0  0
   59.3010   34.6220   46.6440 C   0  0  0  0  0  0  0  0  0  0  0  0
   59.9750   34.6180   48.0360 C   0  0  0  0  0  0  0  0  0  0  0  0
   59.9230   33.3230   48.7560 N   0  0  0  0  0  0  0  0  0  0  0  0
   59.7130   33.4730   50.2040 C   0  0  0  0  0  0  0  0  0  0  0  0
   61.0680   32.4480   48.4710 C   0  0  0  0  0  0  0  0  0  0  0  0
   57.0830   31.5500   43.3450 C   0  0  0  0  0  0  0  0  0  0  0  0
   56.7410   30.2550   42.8990 C   0  0  0  0  0  0  0  0  0  0  0  0
   56.9890   29.1330   43.7070 C   0  0  0  0  0  0  0  0  0  0  0  0
   57.5960   29.3420   44.9450 C   0  0  0  0  0  0  0  0  0  0  0  0
   56.6200   26.3530   46.0030 C   0  0  0  0  0  0  0  0  0  0  0  0
   55.4770   27.0880   45.9900 F   0  0  0  0  0  0  0  0  0  0  0  0
   53.4887   23.6950   45.2167 H   0  0  0  0  0  0  0  0  0  0  0  0
   54.3474   24.9836   44.3062 H   0  0  0  0  0  0  0  0  0  0  0  0
   54.9873   23.3051   44.3062 H   0  0  0  0  0  0  0  0  0  0  0  0
   57.6472   23.0878   46.0345 H   0  0  0  0  0  0  0  0  0  0  0  0
   59.8731   24.2071   45.9793 H   0  0  0  0  0  0  0  0  0  0  0  0
   60.0269   26.6933   45.9341 H   0  0  0  0  0  0  0  0  0  0  0  0
   58.9043   28.9039   47.9045 H   0  0  0  0  0  0  0  0  0  0  0  0
   58.8650   32.5110   46.9610 H   0  0  0  0  0  0  0  0  0  0  0  0
   60.0455   34.9164   45.8896 H   0  0  0  0  0  0  0  0  0  0  0  0
   58.4628   35.3336   46.6741 H   0  0  0  0  0  0  0  0  0  0  0  0
   61.0320   34.8921   47.9036 H   0  0  0  0  0  0  0  0  0  0  0  0
   59.4107   35.3338   48.6517 H   0  0  0  0  0  0  0  0  0  0  0  0
   60.4915   32.9170   50.7469 H   0  0  0  0  0  0  0  0  0  0  0  0
   59.7673   34.5380   50.4740 H   0  0  0  0  0  0  0  0  0  0  0  0
   58.7232   33.0763   50.4740 H   0  0  0  0  0  0  0  0  0  0  0  0
   61.5137   32.1074   49.4172 H   0  0  0  0  0  0  0  0  0  0  0  0
   60.7285   31.5771   47.8912 H   0  0  0  0  0  0  0  0  0  0  0  0
   61.8192   33.0043   47.8912 H   0  0  0  0  0  0  0  0  0  0  0  0
   56.8944   32.4168   42.6945 H   0  0  0  0  0  0  0  0  0  0  0  0
   56.2765   30.1235   41.9106 H   0  0  0  0  0  0  0  0  0  0  0  0
   56.7132   28.1216   43.3738 H   0  0  0  0  0  0  0  0  0  0  0  0
  1  2  1  0
  2  3  1  0
  3  4  2  0
  4  5  1  0
  5  6  2  0
  6  7  1  0
  7  8  1  0
  8  9  2  0
  9 10  1  0
 10 11  1  0
 11 12  2  0
 12 13  1  0
 13 14  2  0
 13 15  1  0
 15 16  1  0
 16 17  1  0
 17 18  1  0
 18 19  1  0
 18 20  1  0
 12 21  1  0
 21 22  2  0
 22 23  1  0
 23 24  2  0
  7 25  2  0
 25 26  1  0
 25  3  1  0
 24  8  1  0
 24 11  1  0
  1 27  1  0
  1 28  1  0
  1 29  1  0
  4 30  1  0
  5 31  1  0
  6 32  1  0
  9 33  1  0
 15 34  1  0
 16 35  1  0
 16 36  1  0
 17 37  1  0
 17 38  1  0
 19 39  1  0
 19 40  1  0
 19 41  1  0
 20 42  1  0
 20 43  1  0
 20 44  1  0
 21 45  1  0
 22 46  1  0
 23 47  1  0
M  END
>  <UniqueID>  (29) 
29

>  <SMILES>  (29) 
COc1cccc(-c2coc3c(C(=O)NCCN(C)C)cccc23)c1F

>  <Energy>  (29) 
90.90074209462385

>  <Genealogy>  (29) 
COc1cccc(-c2coc3c(C(=O)NCCN(C)C)cccc23)c1F (3D coordinates assigned)
COc1cccc(-c2coc3c(C(=O)NCCN(C)C)cccc23)c1F (optimized conformer: 90.90074209462385 kcal/mol)

>  <smiles>  (29) 
COc1cccc(-c2coc3c(C(=O)NCCN(C)C)cccc23)c1F

>  <score_type>  (29) 
oracle

>  <origin>  (29) 
adg

>  <m_score__min__energy>  (29) 
-7.3099999999999996

>  <m_primary>  (29) 
energy

$$$$
29:0
     RDKit          3D

 40 41  0  0  0  0  0  0  0  0999 V2000
   60.3140   29.2280   48.6440 C   0  0  0  0  0  0  0  0  0  0  0  0
   58.9390   28.5880   48.4900 C   0  0  0  0  0  0  0  0  0  0  0  0
   59.0420   27.3350   47.8190 O   0  0  0  0  0  0  0  0  0  0  0  0
   58.7670   27.1630   46.4570 C   0  0  0  0  0  0  0  0  0  0  0  0
   59.1900   26.1420   45.8470 O   0  0  0  0  0  0  0  0  0  0  0  0
   57.9780   28.1850   45.7370 C   0  0  0  0  0  0  0  0  0  0  0  0
   56.6070   28.0630   45.4810 C   0  0  0  0  0  0  0  0  0  0  0  0
   55.7210   27.0390   45.9480 N   0  0  0  0  0  0  0  0  0  0  0  0
   55.9870   25.6350   45.8800 C   0  0  0  0  0  0  0  0  0  0  0  0
   56.7530   25.0840   44.7270 C   0  0  0  0  0  0  0  0  0  0  0  0
   55.5210   24.8500   46.7490 O   0  0  0  0  0  0  0  0  0  0  0  0
   56.1000   29.3440   44.5320 S   0  0  0  0  0  0  0  0  0  0  0  0
   57.5960   30.1020   44.4300 C   0  0  0  0  0  0  0  0  0  0  0  0
   57.8030   31.4260   43.7490 C   0  0  0  0  0  0  0  0  0  0  0  0
   58.1510   32.4880   44.7580 C   0  0  0  0  0  0  0  0  0  0  0  0
   57.7860   32.3270   46.1060 C   0  0  0  0  0  0  0  0  0  0  0  0
   58.1250   33.3020   47.0490 C   0  0  0  0  0  0  0  0  0  0  0  0
   58.8320   34.4410   46.6560 C   0  0  0  0  0  0  0  0  0  0  0  0
   59.2050   34.6040   45.3200 C   0  0  0  0  0  0  0  0  0  0  0  0
   58.8670   33.6320   44.3730 C   0  0  0  0  0  0  0  0  0  0  0  0
   58.5370   29.3450   45.1440 C   0  0  0  0  0  0  0  0  0  0  0  0
   59.9890   29.7200   45.2680 C   0  0  0  0  0  0  0  0  0  0  0  0
   60.5497   29.3377   49.7128 H   0  0  0  0  0  0  0  0  0  0  0  0
   61.0712   28.5898   48.1651 H   0  0  0  0  0  0  0  0  0  0  0  0
   60.3132   30.2183   48.1651 H   0  0  0  0  0  0  0  0  0  0  0  0
   58.5001   28.4298   49.4862 H   0  0  0  0  0  0  0  0  0  0  0  0
   58.3004   29.2577   47.8953 H   0  0  0  0  0  0  0  0  0  0  0  0
   57.5930   24.4797   45.1001 H   0  0  0  0  0  0  0  0  0  0  0  0
   56.0913   24.4536   44.1148 H   0  0  0  0  0  0  0  0  0  0  0  0
   57.1402   25.9118   44.1148 H   0  0  0  0  0  0  0  0  0  0  0  0
   58.6231   31.3349   43.0216 H   0  0  0  0  0  0  0  0  0  0  0  0
   56.8726   31.7125   43.2368 H   0  0  0  0  0  0  0  0  0  0  0  0
   57.2315   31.4304   46.4201 H   0  0  0  0  0  0  0  0  0  0  0  0
   57.8346   33.1720   48.1020 H   0  0  0  0  0  0  0  0  0  0  0  0
   59.0948   35.2090   47.3984 H   0  0  0  0  0  0  0  0  0  0  0  0
   59.7658   35.4988   45.0120 H   0  0  0  0  0  0  0  0  0  0  0  0
   59.1636   33.7647   43.3221 H   0  0  0  0  0  0  0  0  0  0  0  0
   60.2601   29.7900   46.3318 H   0  0  0  0  0  0  0  0  0  0  0  0
   60.6088   28.9525   44.7814 H   0  0  0  0  0  0  0  0  0  0  0  0
   60.1596   30.6917   44.7814 H   0  0  0  0  0  0  0  0  0  0  0  0
  1  2  1  0
  2  3  1  0
  3  4  1  0
  4  5  2  0
  4  6  1  0
  6  7  2  0
  7  8  1  0
  8  9  1  0
  9 10  1  0
  9 11  2  0
  7 12  1  0
 12 13  1  0
 13 14  1  0
 14 15  1  0
 15 16  2  0
 16 17  1  0
 17 18  2  0
 18 19  1  0
 19 20  2  0
 13 21  2  0
 21 22  1  0
 21  6  1  0
 20 15  1  0
  1 23  1  0
  1 24  1  0
  1 25  1  0
  2 26  1  0
  2 27  1  0
 10 28  1  0
 10 29  1  0
 10 30  1  0
 14 31  1  0
 14 32  1  0
 16 33  1  0
 17 34  1  0
 18 35  1  0
 19 36  1  0
 20 37  1  0
 22 38  1  0
 22 39  1  0
 22 40  1  0
M  CHG  1   8  -1
M  END
>  <UniqueID>  (30) 
30

>  <SMILES>  (30) 
CCOC(=O)c1c([N-]C(C)=O)sc(Cc2ccccc2)c1C

>  <Energy>  (30) 
66.91320390678385

>  <Genealogy>  (30) 
CCOC(=O)c1c([N-]C(C)=O)sc(Cc2ccccc2)c1C (protonated)
CCOC(=O)c1c([N-]C(C)=O)sc(Cc2ccccc2)c1C (3D coordinates assigned)
CCOC(=O)c1c([N-]C(C)=O)sc(Cc2ccccc2)c1C (optimized conformer: 66.91320390678385 kcal/mol)

>  <smiles>  (30) 
CCOC(=O)c1c(NC(C)=O)sc(Cc2ccccc2)c1C

>  <score_type>  (30) 
oracle

>  <origin>  (30) 
adg

>  <m_score__min__energy>  (30) 
-9.4000000000000004

>  <m_primary>  (30) 
energy

$$$$
30:0
     RDKit          3D

 53 56  0  0  0  0  0  0  0  0999 V2000
   55.3320   30.6000   52.0230 C   0  0  0  0  0  0  0  0  0  0  0  0
   56.7440   30.4610   52.5690 C   0  0  0  0  0  0  0  0  0  0  0  0
   57.5720   29.8350   51.5920 O   0  0  0  0  0  0  0  0  0  0  0  0
   58.1440   30.4970   50.4950 C   0  0  0  0  0  0  0  0  0  0  0  0
   58.7200   29.8060   49.4120 C   0  0  0  0  0  0  0  0  0  0  0  0
   59.2770   30.5120   48.3430 C   0  0  0  0  0  0  0  0  0  0  0  0
   59.2710   31.9130   48.3360 C   0  0  0  0  0  0  0  0  0  0  0  0
   59.8450   32.6460   47.2390 N   0  0  0  0  0  0  0  0  0  0  0  0
   61.0910   33.1780   47.1490 C   0  0  0  0  0  0  0  0  0  0  0  0
   62.2390   32.8400   48.0200 C   0  0  0  0  0  0  0  0  0  0  0  0
   63.2830   33.7600   48.1960 C   0  0  0  0  0  0  0  0  0  0  0  0
   64.3710   33.4380   49.0090 C   0  0  0  0  0  0  0  0  0  0  0  0
   64.4150   32.1890   49.6310 C   0  0  0  0  0  0  0  0  0  0  0  0
   63.4080   31.2970   49.4360 N   0  0  0  0  0  0  0  0  0  0  0  0
   62.3360   31.5880   48.6510 C   0  0  0  0  0  0  0  0  0  0  0  0
   61.1730   34.0790   46.1480 N   0  0  0  0  0  0  0  0  0  0  0  0
   59.9740   34.1280   45.5930 N   0  0  0  0  0  0  0  0  0  0  0  0
   59.1760   33.2640   46.2420 C   0  0  0  0  0  0  0  0  0  0  0  0
   57.4250   33.0650   45.8850 S   0  0  0  0  0  0  0  0  0  0  0  0
   57.6590   32.6400   44.1210 C   0  0  0  0  0  0  0  0  0  0  0  0
   57.0320   31.2920   43.7680 C   0  0  0  0  0  0  0  0  0  0  0  0
   56.9680   30.4540   44.9220 O   0  0  0  0  0  0  0  0  0  0  0  0
   57.9590   29.5430   45.3200 C   0  0  0  0  0  0  0  0  0  0  0  0
   59.2860   29.8060   44.9520 C   0  0  0  0  0  0  0  0  0  0  0  0
   60.3120   28.9320   45.3210 C   0  0  0  0  0  0  0  0  0  0  0  0
   60.0220   27.7840   46.0620 C   0  0  0  0  0  0  0  0  0  0  0  0
   58.7030   27.5070   46.4320 C   0  0  0  0  0  0  0  0  0  0  0  0
   57.6730   28.3790   46.0640 C   0  0  0  0  0  0  0  0  0  0  0  0
   58.6940   32.6010   49.4160 C   0  0  0  0  0  0  0  0  0  0  0  0
   58.1370   31.8960   50.4850 C   0  0  0  0  0  0  0  0  0  0  0  0
   54.6208   30.6700   52.8592 H   0  0  0  0  0  0  0  0  0  0  0  0
   55.2648   31.5091   51.4074 H   0  0  0  0  0  0  0  0  0  0  0  0
   55.0888   29.7215   51.4074 H   0  0  0  0  0  0  0  0  0  0  0  0
   57.1453   31.4575   52.8056 H   0  0  0  0  0  0  0  0  0  0  0  0
   56.7254   29.8470   53.4815 H   0  0  0  0  0  0  0  0  0  0  0  0
   58.7315   28.7061   49.4076 H   0  0  0  0  0  0  0  0  0  0  0  0
   59.7237   29.9638   47.5004 H   0  0  0  0  0  0  0  0  0  0  0  0
   63.2443   34.7372   47.6924 H   0  0  0  0  0  0  0  0  0  0  0  0
   65.1860   34.1616   49.1582 H   0  0  0  0  0  0  0  0  0  0  0  0
   65.2644   31.9267   50.2788 H   0  0  0  0  0  0  0  0  0  0  0  0
   61.5417   30.8403   48.5095 H   0  0  0  0  0  0  0  0  0  0  0  0
   59.7120   34.7510   44.7970 H   0  0  0  0  0  0  0  0  0  0  0  0
   57.1926   33.4212   43.5028 H   0  0  0  0  0  0  0  0  0  0  0  0
   58.7399   32.5723   43.9287 H   0  0  0  0  0  0  0  0  0  0  0  0
   56.0149   31.4555   43.3823 H   0  0  0  0  0  0  0  0  0  0  0  0
   57.6520   30.7998   43.0043 H   0  0  0  0  0  0  0  0  0  0  0  0
   59.5215   30.7079   44.3679 H   0  0  0  0  0  0  0  0  0  0  0  0
   61.3498   29.1484   45.0274 H   0  0  0  0  0  0  0  0  0  0  0  0
   60.8311   27.0985   46.3541 H   0  0  0  0  0  0  0  0  0  0  0  0
   58.4745   26.6017   47.0136 H   0  0  0  0  0  0  0  0  0  0  0  0
   56.6361   28.1563   46.3558 H   0  0  0  0  0  0  0  0  0  0  0  0
   58.6808   33.7009   49.4198 H   0  0  0  0  0  0  0  0  0  0  0  0
   57.6890   32.4452   51.3262 H   0  0  0  0  0  0  0  0  0  0  0  0
  1  2  1  0
  2  3  1  0
  3  4  1  0
  4  5  2  0
  5  6  1  0
  6  7  2  0
  7  8  1  0
  8  9  1  0
  9 10  1  0
 10 11  2  0
 11 12  1  0
 12 13  2  0
 13 14  1  0
 14 15  2  0
  9 16  2  0
 16 17  1  0
 17 18  2  0
 18 19  1  0
 19 20  1  0
 20 21  1  0
 21 22  1  0
 22 23  1  0
 23 24  2  0
 24 25  1  0
 25 26  2  0
 26 27  1  0
 27 28  2  0
  7 29  1  0
 29 30  2  0
 30  4  1  0
 18  8  1  0
 28 23  1  0
 15 10  1  0
  1 31  1  0
  1 32  1  0
  1 33  1  0
  2 34  1  0
  2 35  1  0
  5 36  1  0
  6 37  1  0
 11 38  1  0
 12 39  1  0
 13 40  1  0
 15 41  1  0
 17 42  1  0
 20 43  1  0
 20 44  1  0
 21 45  1  0
 21 46  1  0
 24 47  1  0
 25 48  1  0
 26 49  1  0
 27 50  1  0
 28 51  1  0
 29 52  1  0
 30 53  1  0
M  CHG  1  17   1
M  END
>  <UniqueID>  (31) 
31

>  <SMILES>  (31) 
CCOc1ccc(-n2c(-c3cccnc3)n[nH+]c2SCCOc2ccccc2)cc1

>  <Energy>  (31) 
95.2353674743386

>  <Genealogy>  (31) 
CCOc1ccc(-n2c(-c3cccnc3)n[nH+]c2SCCOc2ccccc2)cc1 (protonated)
CCOc1ccc(-n2c(-c3cccnc3)n[nH+]c2SCCOc2ccccc2)cc1 (3D coordinates assigned)
CCOc1ccc(-n2c(-c3cccnc3)n[nH+]c2SCCOc2ccccc2)cc1 (optimized conformer: 95.2353674743386 kcal/mol)

>  <smiles>  (31) 
CCOc1ccc(-n2c(SCCOc3ccccc3)nnc2-c2cccnc2)cc1

>  <score_type>  (31) 
oracle

>  <origin>  (31) 
adg

>  <m_score__min__energy>  (31) 
-6.9900000000000002

>  <m_primary>  (31) 
energy

$$$$
31:0
     RDKit          3D

 45 47  0  0  0  0  0  0  0  0999 V2000
   58.9740   30.9170   48.9930 C   0  0  0  0  0  0  0  0  0  0  0  0
   58.8210   32.4230   48.8100 C   0  0  0  0  0  0  0  0  0  0  0  0
   59.7510   32.9100   47.7900 N   0  0  0  0  0  0  0  0  0  0  0  0
   59.4620   33.5580   46.6300 C   0  0  0  0  0  0  0  0  0  0  0  0
   57.7960   33.8110   46.0070 S   0  0  0  0  0  0  0  0  0  0  0  0
   58.2060   33.3840   44.2760 C   0  0  0  0  0  0  0  0  0  0  0  0
   57.4390   32.1530   43.7690 C   0  0  0  0  0  0  0  0  0  0  0  0
   57.1020   31.2120   44.8640 N   0  0  0  0  0  0  0  0  0  0  0  0
   58.3040   30.7270   45.5720 C   0  0  0  0  0  0  0  0  0  0  0  0
   59.0870   29.6920   44.7460 C   0  0  0  0  0  0  0  0  0  0  0  0
   58.2440   28.5610   44.3130 N   0  0  0  0  0  0  0  0  0  0  0  0
   57.9640   27.6160   45.4070 C   0  0  0  0  0  0  0  0  0  0  0  0
   57.0170   29.0170   43.6340 C   0  0  0  0  0  0  0  0  0  0  0  0
   56.2480   30.0810   44.4430 C   0  0  0  0  0  0  0  0  0  0  0  0
   60.5600   34.0230   45.9730 N   0  0  0  0  0  0  0  0  0  0  0  0
   61.5700   33.6360   46.7730 C   0  0  0  0  0  0  0  0  0  0  0  0
   62.9320   33.8600   46.6130 C   0  0  0  0  0  0  0  0  0  0  0  0
   63.7880   33.3810   47.6200 C   0  0  0  0  0  0  0  0  0  0  0  0
   63.2480   32.7080   48.7410 C   0  0  0  0  0  0  0  0  0  0  0  0
   61.8970   32.5160   48.8530 N   0  0  0  0  0  0  0  0  0  0  0  0
   61.0890   32.9780   47.8610 C   0  0  0  0  0  0  0  0  0  0  0  0
   58.9982   30.6787   50.0666 H   0  0  0  0  0  0  0  0  0  0  0  0
   58.1235   30.4022   48.5222 H   0  0  0  0  0  0  0  0  0  0  0  0
   59.9106   30.5837   48.5222 H   0  0  0  0  0  0  0  0  0  0  0  0
   57.7904   32.6473   48.4976 H   0  0  0  0  0  0  0  0  0  0  0  0
   59.0440   32.9229   49.7641 H   0  0  0  0  0  0  0  0  0  0  0  0
   57.9575   34.2420   43.6340 H   0  0  0  0  0  0  0  0  0  0  0  0
   59.2789   33.1442   44.2392 H   0  0  0  0  0  0  0  0  0  0  0  0
   56.5068   32.4887   43.2911 H   0  0  0  0  0  0  0  0  0  0  0  0
   58.0866   31.6223   43.0555 H   0  0  0  0  0  0  0  0  0  0  0  0
   58.9615   31.5836   45.7816 H   0  0  0  0  0  0  0  0  0  0  0  0
   57.9746   30.2384   46.5009 H   0  0  0  0  0  0  0  0  0  0  0  0
   59.4962   30.1889   43.8540 H   0  0  0  0  0  0  0  0  0  0  0  0
   59.8856   29.2883   45.3858 H   0  0  0  0  0  0  0  0  0  0  0  0
   58.1132   28.1195   46.3736 H   0  0  0  0  0  0  0  0  0  0  0  0
   56.9237   27.2665   45.3323 H   0  0  0  0  0  0  0  0  0  0  0  0
   58.6460   26.7562   45.3323 H   0  0  0  0  0  0  0  0  0  0  0  0
   57.2932   29.4474   42.6601 H   0  0  0  0  0  0  0  0  0  0  0  0
   56.3565   28.1446   43.5213 H   0  0  0  0  0  0  0  0  0  0  0  0
   55.4298   30.4718   43.8203 H   0  0  0  0  0  0  0  0  0  0  0  0
   55.8718   29.5942   45.3549 H   0  0  0  0  0  0  0  0  0  0  0  0
   63.3248   34.3910   45.7334 H   0  0  0  0  0  0  0  0  0  0  0  0
   64.8748   33.5291   47.5365 H   0  0  0  0  0  0  0  0  0  0  0  0
   63.9190   32.3359   49.5292 H   0  0  0  0  0  0  0  0  0  0  0  0
   61.5060   32.0230   49.6850 H   0  0  0  0  0  0  0  0  0  0  0  0
  1  2  1  0
  2  3  1  0
  3  4  1  0
  4  5  1  0
  5  6  1  0
  6  7  1  0
  7  8  1  0
  8  9  1  0
  9 10  1  0
 10 11  1  0
 11 12  1  0
 11 13  1  0
 13 14  1  0
  4 15  2  0
 15 16  1  0
 16 17  2  0
 17 18  1  0
 18 19  2  0
 19 20  1  0
 20 21  2  0
 21  3  1  0
 14  8  1  0
 21 16  1  0
  1 22  1  0
  1 23  1  0
  1 24  1  0
  2 25  1  0
  2 26  1  0
  6 27  1  0
  6 28  1  0
  7 29  1  0
  7 30  1  0
  9 31  1  0
  9 32  1  0
 10 33  1  0
 10 34  1  0
 12 35  1  0
 12 36  1  0
 12 37  1  0
 13 38  1  0
 13 39  1  0
 14 40  1  0
 14 41  1  0
 17 42  1  0
 18 43  1  0
 19 44  1  0
 20 45  1  0
M  CHG  1  20   1
M  END
>  <UniqueID>  (32) 
32

>  <SMILES>  (32) 
CCn1c(SCCN2CCN(C)CC2)nc2ccc[nH+]c21

>  <Energy>  (32) 
83.3315383688682

>  <Genealogy>  (32) 
CCn1c(SCCN2CCN(C)CC2)nc2ccc[nH+]c21 (protonated)
CCn1c(SCCN2CCN(C)CC2)nc2ccc[nH+]c21 (3D coordinates assigned)
CCn1c(SCCN2CCN(C)CC2)nc2ccc[nH+]c21 (nonaromatic ring conformer: 83.3315383688682 kcal/mol)

>  <smiles>  (32) 
CCn1c(SCCN2CCN(C)CC2)nc2cccnc21

>  <score_type>  (32) 
oracle

>  <origin>  (32) 
adg

>  <m_score__min__energy>  (32) 
-5.6500000000000004

>  <m_primary>  (32) 
energy

$$$$
32:0
     RDKit          3D

 59 61  0  0  0  0  0  0  0  0999 V2000
   57.3890   33.8070   44.8370 C   0  0  0  0  0  0  0  0  0  0  0  0
   58.9000   33.6070   44.8220 C   0  0  0  0  0  0  0  0  0  0  0  0
   59.5660   34.2440   45.9720 N   0  0  0  0  0  0  0  0  0  0  0  0
   59.6670   35.7070   46.0170 C   0  0  0  0  0  0  0  0  0  0  0  0
   60.5570   33.4740   46.6880 C   0  0  0  0  0  0  0  0  0  0  0  0
   61.8790   33.7940   46.5350 N   0  0  0  0  0  0  0  0  0  0  0  0
   62.8500   33.1510   47.2280 C   0  0  0  0  0  0  0  0  0  0  0  0
   62.5280   32.1730   48.1050 N   0  0  0  0  0  0  0  0  0  0  0  0
   61.2380   31.8120   48.3100 C   0  0  0  0  0  0  0  0  0  0  0  0
   60.9450   30.8570   49.3410 N   0  0  0  0  0  0  0  0  0  0  0  0
   60.7840   29.4410   48.9950 C   0  0  0  0  0  0  0  0  0  0  0  0
   59.3670   28.9860   49.3620 C   0  0  0  0  0  0  0  0  0  0  0  0
   58.9270   29.4180   50.7910 C   0  0  0  0  0  0  0  0  0  0  0  0
   57.7720   30.2390   50.6830 O   0  0  0  0  0  0  0  0  0  0  0  0
   57.4400   30.8050   51.9340 C   0  0  0  0  0  0  0  0  0  0  0  0
   60.0340   30.1920   51.5470 C   0  0  0  0  0  0  0  0  0  0  0  0
   60.5990   31.3320   50.6880 C   0  0  0  0  0  0  0  0  0  0  0  0
   60.1990   32.4180   47.5650 C   0  0  0  0  0  0  0  0  0  0  0  0
   58.7760   31.9290   47.7920 C   0  0  0  0  0  0  0  0  0  0  0  0
   58.1090   31.4790   46.6130 O   0  0  0  0  0  0  0  0  0  0  0  0
   58.4740   30.3280   45.8800 C   0  0  0  0  0  0  0  0  0  0  0  0
   59.8130   29.9080   45.9660 C   0  0  0  0  0  0  0  0  0  0  0  0
   60.2620   28.7680   45.2950 C   0  0  0  0  0  0  0  0  0  0  0  0
   59.3760   28.0180   44.5270 C   0  0  0  0  0  0  0  0  0  0  0  0
   58.0400   28.4010   44.4300 C   0  0  0  0  0  0  0  0  0  0  0  0
   57.5710   29.5630   45.0880 C   0  0  0  0  0  0  0  0  0  0  0  0
   56.2360   29.9730   44.9480 O   0  0  0  0  0  0  0  0  0  0  0  0
   55.5350   30.0630   43.7140 C   0  0  0  0  0  0  0  0  0  0  0  0
   57.0356   33.8538   45.8777 H   0  0  0  0  0  0  0  0  0  0  0  0
   57.1383   34.7462   44.3221 H   0  0  0  0  0  0  0  0  0  0  0  0
   56.9026   32.9654   44.3221 H   0  0  0  0  0  0  0  0  0  0  0  0
   59.1131   32.5281   44.8444 H   0  0  0  0  0  0  0  0  0  0  0  0
   59.2900   34.0779   43.9076 H   0  0  0  0  0  0  0  0  0  0  0  0
   59.6900   36.0409   47.0648 H   0  0  0  0  0  0  0  0  0  0  0  0
   60.5893   36.0266   45.5099 H   0  0  0  0  0  0  0  0  0  0  0  0
   58.7973   36.1503   45.5099 H   0  0  0  0  0  0  0  0  0  0  0  0
   62.1580   34.5820   45.9100 H   0  0  0  0  0  0  0  0  0  0  0  0
   63.9044   33.4256   47.0766 H   0  0  0  0  0  0  0  0  0  0  0  0
   60.9447   29.3063   47.9152 H   0  0  0  0  0  0  0  0  0  0  0  0
   61.5188   28.8406   49.5515 H   0  0  0  0  0  0  0  0  0  0  0  0
   58.6633   29.4183   48.6354 H   0  0  0  0  0  0  0  0  0  0  0  0
   59.3647   27.8862   49.3413 H   0  0  0  0  0  0  0  0  0  0  0  0
   58.7158   28.5055   51.3678 H   0  0  0  0  0  0  0  0  0  0  0  0
   57.8185   30.1597   52.7404 H   0  0  0  0  0  0  0  0  0  0  0  0
   57.8962   31.8024   52.0178 H   0  0  0  0  0  0  0  0  0  0  0  0
   56.3468   30.8936   52.0178 H   0  0  0  0  0  0  0  0  0  0  0  0
   59.6102   30.6143   52.4701 H   0  0  0  0  0  0  0  0  0  0  0  0
   60.8510   29.4932   51.7799 H   0  0  0  0  0  0  0  0  0  0  0  0
   59.8442   32.1279   50.6056 H   0  0  0  0  0  0  0  0  0  0  0  0
   61.5115   31.7134   51.1694 H   0  0  0  0  0  0  0  0  0  0  0  0
   58.8098   31.0941   48.5074 H   0  0  0  0  0  0  0  0  0  0  0  0
   58.2046   32.7920   48.1643 H   0  0  0  0  0  0  0  0  0  0  0  0
   60.5217   30.4891   46.5743 H   0  0  0  0  0  0  0  0  0  0  0  0
   61.3159   28.4630   45.3736 H   0  0  0  0  0  0  0  0  0  0  0  0
   59.7309   27.1222   43.9963 H   0  0  0  0  0  0  0  0  0  0  0  0
   57.3419   27.7935   43.8354 H   0  0  0  0  0  0  0  0  0  0  0  0
   54.4616   30.2008   43.9113 H   0  0  0  0  0  0  0  0  0  0  0  0
   55.9149   30.9197   43.1381 H   0  0  0  0  0  0  0  0  0  0  0  0
   55.6862   29.1381   43.1381 H   0  0  0  0  0  0  0  0  0  0  0  0
  1  2  1  0
  2  3  1  0
  3  4  1  0
  3  5  1  0
  5  6  2  0
  6  7  1  0
  7  8  2  0
  8  9  1  0
  9 10  1  0
 10 11  1  0
 11 12  1  0
 12 13  1  0
 13 14  1  0
 14 15  1  0
 13 16  1  0
 16 17  1  0
  9 18  2  0
 18 19  1  0
 19 20  1  0
 20 21  1  0
 21 22  2  0
 22 23  1  0
 23 24  2  0
 24 25  1  0
 25 26  2  0
 26 27  1  0
 27 28  1  0
 18  5  1  0
 26 21  1  0
 17 10  1  0
  1 29  1  0
  1 30  1  0
  1 31  1  0
  2 32  1  0
  2 33  1  0
  4 34  1  0
  4 35  1  0
  4 36  1  0
  6 37  1  0
  7 38  1  0
 11 39  1  0
 11 40  1  0
 12 41  1  0
 12 42  1  0
 13 43  1  0
 15 44  1  0
 15 45  1  0
 15 46  1  0
 16 47  1  0
 16 48  1  0
 17 49  1  0
 17 50  1  0
 19 51  1  0
 19 52  1  0
 22 53  1  0
 23 54  1  0
 24 55  1  0
 25 56  1  0
 28 57  1  0
 28 58  1  0
 28 59  1  0
M  CHG  1   6   1
M  END
>  <UniqueID>  (33) 
33

>  <SMILES>  (33) 
CCN(C)c1[nH+]cnc(N2CCC(OC)CC2)c1COc1ccccc1OC

>  <Energy>  (33) 
79.42321961786234

>  <Genealogy>  (33) 
CCN(C)c1[nH+]cnc(N2CCC(OC)CC2)c1COc1ccccc1OC (protonated)
CCN(C)c1[nH+]cnc(N2CCC(OC)CC2)c1COc1ccccc1OC (3D coordinates assigned)
CCN(C)c1[nH+]cnc(N2CCC(OC)CC2)c1COc1ccccc1OC (nonaromatic ring conformer: 79.42321961786234 kcal/mol)

>  <smiles>  (33) 
CCN(C)c1ncnc(N2CCC(OC)CC2)c1COc1ccccc1OC

>  <score_type>  (33) 
oracle

>  <origin>  (33) 
adg

>  <m_score__min__energy>  (33) 
-5.5

>  <m_primary>  (33) 
energy

$$$$
33:0
     RDKit          3D

 50 52  0  0  0  0  0  0  0  0999 V2000
   54.6310   24.6610   45.6030 C   0  0  0  0  0  0  0  0  0  0  0  0
   55.1650   25.8110   46.2510 O   0  0  0  0  0  0  0  0  0  0  0  0
   56.5290   26.1380   46.2870 C   0  0  0  0  0  0  0  0  0  0  0  0
   57.2700   25.7760   47.4160 C   0  0  0  0  0  0  0  0  0  0  0  0
   58.6280   26.0860   47.5020 C   0  0  0  0  0  0  0  0  0  0  0  0
   59.2620   26.7520   46.4520 C   0  0  0  0  0  0  0  0  0  0  0  0
   58.5450   27.1060   45.2970 C   0  0  0  0  0  0  0  0  0  0  0  0
   59.2410   27.8230   44.1560 C   0  0  0  0  0  0  0  0  0  0  0  0
   58.7800   29.2150   43.9510 N   0  0  0  0  0  0  0  0  0  0  0  0
   59.1860   30.1660   45.0150 C   0  0  0  0  0  0  0  0  0  0  0  0
   57.9950   30.6070   45.8810 C   0  0  0  0  0  0  0  0  0  0  0  0
   56.9090   31.2070   45.0690 N   0  0  0  0  0  0  0  0  0  0  0  0
   56.7420   32.6690   45.2410 C   0  0  0  0  0  0  0  0  0  0  0  0
   57.9390   33.3530   45.8730 C   0  0  0  0  0  0  0  0  0  0  0  0
   58.8770   34.0220   45.0700 C   0  0  0  0  0  0  0  0  0  0  0  0
   59.9830   34.6490   45.6490 C   0  0  0  0  0  0  0  0  0  0  0  0
   60.1570   34.6300   47.0340 C   0  0  0  0  0  0  0  0  0  0  0  0
   59.2120   33.9880   47.8560 C   0  0  0  0  0  0  0  0  0  0  0  0
   59.3330   33.9530   49.2540 O   0  0  0  0  0  0  0  0  0  0  0  0
   60.5140   33.5650   49.9490 C   0  0  0  0  0  0  0  0  0  0  0  0
   58.1060   33.3620   47.2690 C   0  0  0  0  0  0  0  0  0  0  0  0
   56.8700   30.7640   43.6570 C   0  0  0  0  0  0  0  0  0  0  0  0
   57.3640   29.3210   43.5320 C   0  0  0  0  0  0  0  0  0  0  0  0
   57.1700   26.8150   45.2300 C   0  0  0  0  0  0  0  0  0  0  0  0
   54.2947   23.9368   46.3596 H   0  0  0  0  0  0  0  0  0  0  0  0
   53.7783   24.9572   44.9744 H   0  0  0  0  0  0  0  0  0  0  0  0
   55.4075   24.2006   44.9744 H   0  0  0  0  0  0  0  0  0  0  0  0
   56.7787   25.2426   48.2431 H   0  0  0  0  0  0  0  0  0  0  0  0
   59.1996   25.8050   48.3988 H   0  0  0  0  0  0  0  0  0  0  0  0
   60.3305   27.0014   46.5294 H   0  0  0  0  0  0  0  0  0  0  0  0
   60.3204   27.8433   44.3670 H   0  0  0  0  0  0  0  0  0  0  0  0
   59.0003   27.2687   43.2369 H   0  0  0  0  0  0  0  0  0  0  0  0
   59.9326   29.6793   45.6598 H   0  0  0  0  0  0  0  0  0  0  0  0
   59.6015   31.0611   44.5290 H   0  0  0  0  0  0  0  0  0  0  0  0
   57.5978   29.7293   46.4119 H   0  0  0  0  0  0  0  0  0  0  0  0
   58.3529   31.3710   46.5868 H   0  0  0  0  0  0  0  0  0  0  0  0
   56.5695   33.1169   44.2512 H   0  0  0  0  0  0  0  0  0  0  0  0
   55.8924   32.8156   45.9241 H   0  0  0  0  0  0  0  0  0  0  0  0
   58.7401   34.0525   43.9790 H   0  0  0  0  0  0  0  0  0  0  0  0
   60.7195   35.1596   45.0112 H   0  0  0  0  0  0  0  0  0  0  0  0
   61.0344   35.1178   47.4838 H   0  0  0  0  0  0  0  0  0  0  0  0
   60.3372   33.6231   51.0332 H   0  0  0  0  0  0  0  0  0  0  0  0
   60.7781   32.5328   49.6753 H   0  0  0  0  0  0  0  0  0  0  0  0
   61.3388   34.2394   49.6753 H   0  0  0  0  0  0  0  0  0  0  0  0
   57.3578   32.8707   47.9083 H   0  0  0  0  0  0  0  0  0  0  0  0
   55.8359   30.8255   43.2871 H   0  0  0  0  0  0  0  0  0  0  0  0
   57.5260   31.4165   43.0621 H   0  0  0  0  0  0  0  0  0  0  0  0
   56.7484   28.6718   44.1720 H   0  0  0  0  0  0  0  0  0  0  0  0
   57.2818   29.0087   42.4805 H   0  0  0  0  0  0  0  0  0  0  0  0
   56.5906   27.1183   44.3455 H   0  0  0  0  0  0  0  0  0  0  0  0
  1  2  1  0
  2  3  1  0
  3  4  2  0
  4  5  1  0
  5  6  2  0
  6  7  1  0
  7  8  1  0
  8  9  1  0
  9 10  1  0
 10 11  1  0
 11 12  1  0
 12 13  1  0
 13 14  1  0
 14 15  2  0
 15 16  1  0
 16 17  2  0
 17 18  1  0
 18 19  1  0
 19 20  1  0
 18 21  2  0
 12 22  1  0
 22 23  1  0
  7 24  2  0
 24  3  1  0
 23  9  1  0
 21 14  1  0
  1 25  1  0
  1 26  1  0
  1 27  1  0
  4 28  1  0
  5 29  1  0
  6 30  1  0
  8 31  1  0
  8 32  1  0
 10 33  1  0
 10 34  1  0
 11 35  1  0
 11 36  1  0
 13 37  1  0
 13 38  1  0
 15 39  1  0
 16 40  1  0
 17 41  1  0
 20 42  1  0
 20 43  1  0
 20 44  1  0
 21 45  1  0
 22 46  1  0
 22 47  1  0
 23 48  1  0
 23 49  1  0
 24 50  1  0
M  END
>  <UniqueID>  (34) 
34

>  <SMILES>  (34) 
COc1cccc(CN2CCN(Cc3cccc(OC)c3)CC2)c1

>  <Energy>  (34) 
67.37909374429056

>  <Genealogy>  (34) 
COc1cccc(CN2CCN(Cc3cccc(OC)c3)CC2)c1 (3D coordinates assigned)
COc1cccc(CN2CCN(Cc3cccc(OC)c3)CC2)c1 (nonaromatic ring conformer: 67.37909374429056 kcal/mol)

>  <smiles>  (34) 
COc1cccc(CN2CCN(Cc3cccc(OC)c3)CC2)c1

>  <score_type>  (34) 
oracle

>  <origin>  (34) 
adg

>  <m_score__min__energy>  (34) 
-7.8300000000000001

>  <m_primary>  (34) 
energy

$$$$
34:0
     RDKit          3D

 37 38  0  0  0  0  0  0  0  0999 V2000
   57.4330   26.2360   44.8670 C   0  0  0  0  0  0  0  0  0  0  0  0
   56.7220   27.1080   45.8950 C   0  0  0  0  0  0  0  0  0  0  0  0
   55.8970   28.0760   45.2490 O   0  0  0  0  0  0  0  0  0  0  0  0
   56.3720   29.3050   44.7810 C   0  0  0  0  0  0  0  0  0  0  0  0
   55.5910   30.2820   44.6210 O   0  0  0  0  0  0  0  0  0  0  0  0
   57.8350   29.4750   44.5260 C   0  0  0  0  0  0  0  0  0  0  0  0
   58.1870   30.9020   44.5780 N   0  0  0  0  0  0  0  0  0  0  0  0
   58.8530   31.3650   45.6450 N   0  0  0  0  0  0  0  0  0  0  0  0
   59.1930   32.6800   45.7760 C   0  0  0  0  0  0  0  0  0  0  0  0
   59.9480   33.1070   46.9760 C   0  0  0  0  0  0  0  0  0  0  0  0
   61.3520   33.0910   46.9610 C   0  0  0  0  0  0  0  0  0  0  0  0
   62.0740   33.5100   48.0830 C   0  0  0  0  0  0  0  0  0  0  0  0
   61.4000   33.9560   49.2240 C   0  0  0  0  0  0  0  0  0  0  0  0
   62.1000   34.3630   50.3100 F   0  0  0  0  0  0  0  0  0  0  0  0
   60.0010   33.9910   49.2410 C   0  0  0  0  0  0  0  0  0  0  0  0
   59.2770   33.5730   48.1200 C   0  0  0  0  0  0  0  0  0  0  0  0
   58.7960   33.5960   44.7800 C   0  0  0  0  0  0  0  0  0  0  0  0
   59.0950   35.0700   44.8720 C   0  0  0  0  0  0  0  0  0  0  0  0
   58.1070   33.1090   43.6680 C   0  0  0  0  0  0  0  0  0  0  0  0
   57.7970   31.7550   43.5810 C   0  0  0  0  0  0  0  0  0  0  0  0
   57.1510   31.3340   42.5820 O   0  0  0  0  0  0  0  0  0  0  0  0
   58.0461   25.4840   45.3853 H   0  0  0  0  0  0  0  0  0  0  0  0
   56.6869   25.7297   44.2369 H   0  0  0  0  0  0  0  0  0  0  0  0
   58.0791   26.8649   44.2369 H   0  0  0  0  0  0  0  0  0  0  0  0
   56.0964   26.4714   46.5380 H   0  0  0  0  0  0  0  0  0  0  0  0
   57.4778   27.6326   46.4979 H   0  0  0  0  0  0  0  0  0  0  0  0
   58.4051   28.9300   45.2928 H   0  0  0  0  0  0  0  0  0  0  0  0
   58.0789   29.0767   43.5301 H   0  0  0  0  0  0  0  0  0  0  0  0
   59.1360   30.7000   46.4010 H   0  0  0  0  0  0  0  0  0  0  0  0
   61.8862   32.7474   46.0629 H   0  0  0  0  0  0  0  0  0  0  0  0
   63.1737   33.4887   48.0679 H   0  0  0  0  0  0  0  0  0  0  0  0
   59.4708   34.3474   50.1364 H   0  0  0  0  0  0  0  0  0  0  0  0
   58.1777   33.6090   48.1334 H   0  0  0  0  0  0  0  0  0  0  0  0
   59.1552   35.3666   45.9295 H   0  0  0  0  0  0  0  0  0  0  0  0
   60.0543   35.2812   44.3768 H   0  0  0  0  0  0  0  0  0  0  0  0
   58.2938   35.6383   44.3768 H   0  0  0  0  0  0  0  0  0  0  0  0
   57.8093   33.7948   42.8611 H   0  0  0  0  0  0  0  0  0  0  0  0
  1  2  1  0
  2  3  1  0
  3  4  1  0
  4  5  2  0
  4  6  1  0
  6  7  1  0
  7  8  1  0
  8  9  2  0
  9 10  1  0
 10 11  2  0
 11 12  1  0
 12 13  2  0
 13 14  1  0
 13 15  1  0
 15 16  2  0
  9 17  1  0
 17 18  1  0
 17 19  2  0
 19 20  1  0
 20 21  2  0
 20  7  1  0
 16 10  1  0
  1 22  1  0
  1 23  1  0
  1 24  1  0
  2 25  1  0
  2 26  1  0
  6 27  1  0
  6 28  1  0
  8 29  1  0
 11 30  1  0
 12 31  1  0
 15 32  1  0
 16 33  1  0
 18 34  1  0
 18 35  1  0
 18 36  1  0
 19 37  1  0
M  CHG  1   8   1
M  END
>  <UniqueID>  (35) 
35

>  <SMILES>  (35) 
CCOC(=O)Cn1[nH+]c(-c2ccc(F)cc2)c(C)cc1=O

>  <Energy>  (35) 
40.394054886370824

>  <Genealogy>  (35) 
CCOC(=O)Cn1[nH+]c(-c2ccc(F)cc2)c(C)cc1=O (protonated)
CCOC(=O)Cn1[nH+]c(-c2ccc(F)cc2)c(C)cc1=O (3D coordinates assigned)
CCOC(=O)Cn1[nH+]c(-c2ccc(F)cc2)c(C)cc1=O (optimized conformer: 40.394054886370824 kcal/mol)

>  <smiles>  (35) 
CCOC(=O)Cn1nc(-c2ccc(F)cc2)c(C)cc1=O

>  <score_type>  (35) 
oracle

>  <origin>  (35) 
adg

>  <m_score__min__energy>  (35) 
-5.6900000000000004

>  <m_primary>  (35) 
energy

$$$$
35:0
     RDKit          3D

 32 32  0  0  0  0  0  0  0  0999 V2000
   63.1770   33.8440   50.0670 C   0  0  0  0  0  0  0  0  0  0  0  0
   63.9940   32.6690   49.5190 C   0  0  0  0  0  0  0  0  0  0  0  0
   63.7940   32.4490   48.0650 N   0  0  1  0  0  0  0  0  0  0  0  0
   62.6380   31.5610   47.8410 C   0  0  0  0  0  0  0  0  0  0  0  0
   63.7120   33.6910   47.2480 C   0  0  0  0  0  0  0  0  0  0  0  0
   62.4510   33.8330   46.3670 C   0  0  0  0  0  0  0  0  0  0  0  0
   61.2810   34.2140   47.1590 N   0  0  0  0  0  0  0  0  0  0  0  0
   59.9350   34.0740   46.6720 C   0  0  0  0  0  0  0  0  0  0  0  0
   59.6010   34.4860   45.3690 C   0  0  0  0  0  0  0  0  0  0  0  0
   58.2890   34.3720   44.9020 C   0  0  0  0  0  0  0  0  0  0  0  0
   57.2930   33.8560   45.7330 C   0  0  0  0  0  0  0  0  0  0  0  0
   57.6070   33.4550   47.0320 C   0  0  0  0  0  0  0  0  0  0  0  0
   58.9180   33.5650   47.5100 C   0  0  0  0  0  0  0  0  0  0  0  0
   59.2600   33.0210   49.1480 Cl  0  0  0  0  0  0  0  0  0  0  0  0
   63.1932   33.8207   51.1666 H   0  0  0  0  0  0  0  0  0  0  0  0
   63.6131   34.7901   49.7139 H   0  0  0  0  0  0  0  0  0  0  0  0
   62.1383   33.7647   49.7139 H   0  0  0  0  0  0  0  0  0  0  0  0
   65.0604   32.8698   49.6993 H   0  0  0  0  0  0  0  0  0  0  0  0
   63.6523   31.7614   50.0382 H   0  0  0  0  0  0  0  0  0  0  0  0
   64.6330   31.9240   47.7170 H   0  0  0  0  0  0  0  0  0  0  0  0
   62.2257   31.2443   48.8104 H   0  0  0  0  0  0  0  0  0  0  0  0
   61.8659   32.1005   47.2728 H   0  0  0  0  0  0  0  0  0  0  0  0
   62.9602   30.6759   47.2728 H   0  0  0  0  0  0  0  0  0  0  0  0
   63.7425   34.5496   47.9349 H   0  0  0  0  0  0  0  0  0  0  0  0
   64.5611   33.6466   46.5501 H   0  0  0  0  0  0  0  0  0  0  0  0
   62.6330   34.6050   45.6049 H   0  0  0  0  0  0  0  0  0  0  0  0
   62.2471   32.8589   45.8984 H   0  0  0  0  0  0  0  0  0  0  0  0
   61.4260   34.3220   48.1890 H   0  0  0  0  0  0  0  0  0  0  0  0
   60.3794   34.9015   44.7121 H   0  0  0  0  0  0  0  0  0  0  0  0
   58.0407   34.6892   43.8784 H   0  0  0  0  0  0  0  0  0  0  0  0
   56.2608   33.7656   45.3637 H   0  0  0  0  0  0  0  0  0  0  0  0
   56.8195   33.0499   47.6845 H   0  0  0  0  0  0  0  0  0  0  0  0
  1  2  1  0
  2  3  1  0
  3  4  1  0
  3  5  1  0
  5  6  1  0
  6  7  1  0
  7  8  1  0
  8  9  2  0
  9 10  1  0
 10 11  2  0
 11 12  1  0
 12 13  2  0
 13 14  1  0
 13  8  1  0
  1 15  1  0
  1 16  1  0
  1 17  1  0
  2 18  1  0
  2 19  1  0
  3 20  1  6
  4 21  1  0
  4 22  1  0
  4 23  1  0
  5 24  1  0
  5 25  1  0
  6 26  1  0
  6 27  1  0
  7 28  1  0
  9 29  1  0
 10 30  1  0
 11 31  1  0
 12 32  1  0
M  CHG  1   3   1
M  END
>  <UniqueID>  (36) 
36

>  <SMILES>  (36) 
CC[N@@H+](C)CCNc1ccccc1Cl

>  <Energy>  (36) 
35.66844449921305

>  <Genealogy>  (36) 
CC[NH+](C)CCNc1ccccc1Cl (protonated)
CC[N@@H+](C)CCNc1ccccc1Cl (chirality)
CC[N@@H+](C)CCNc1ccccc1Cl (3D coordinates assigned)
CC[N@@H+](C)CCNc1ccccc1Cl (optimized conformer: 35.66844449921305 kcal/mol)

>  <smiles>  (36) 
CCN(C)CCNc1ccccc1Cl

>  <score_type>  (36) 
oracle

>  <origin>  (36) 
adg

>  <m_score__min__energy>  (36) 
-3.7400000000000002

>  <m_primary>  (36) 
energy

$$$$
36:0
     RDKit          3D

 47 48  0  0  0  0  0  0  0  0999 V2000
   56.9590   30.8980   42.6340 C   0  0  0  0  0  0  0  0  0  0  0  0
   55.9380   30.1580   43.4900 C   0  0  0  0  0  0  0  0  0  0  0  0
   56.3380   30.1500   44.8600 O   0  0  0  0  0  0  0  0  0  0  0  0
   57.2330   29.2410   45.4530 C   0  0  0  0  0  0  0  0  0  0  0  0
   56.8970   27.8900   45.6630 C   0  0  0  0  0  0  0  0  0  0  0  0
   57.8060   27.0190   46.2680 C   0  0  0  0  0  0  0  0  0  0  0  0
   59.0680   27.4750   46.6790 C   0  0  0  0  0  0  0  0  0  0  0  0
   60.0590   26.5410   47.3500 C   0  0  0  0  0  0  0  0  0  0  0  0
   60.6260   27.1650   48.6310 C   0  0  0  0  0  0  0  0  0  0  0  0
   61.1820   26.1440   46.3860 C   0  0  0  0  0  0  0  0  0  0  0  0
   59.4070   28.8210   46.4660 C   0  0  0  0  0  0  0  0  0  0  0  0
   58.5080   29.7010   45.8410 C   0  0  0  0  0  0  0  0  0  0  0  0
   58.8890   31.1520   45.6680 C   0  0  0  0  0  0  0  0  0  0  0  0
   57.6980   32.0220   45.7760 N   0  0  0  0  0  0  0  0  0  0  0  0
   57.9580   33.3950   46.2750 C   0  0  0  0  0  0  0  0  0  0  0  0
   58.8250   33.4270   47.5450 C   0  0  0  0  0  0  0  0  0  0  0  0
   60.0600   34.2440   47.1970 C   0  0  0  0  0  0  0  0  0  0  0  0
   59.6550   35.1250   46.0290 C   0  0  0  0  0  0  0  0  0  0  0  0
   58.6300   34.3200   45.2470 C   0  0  0  0  0  0  0  0  0  0  0  0
   57.6763   31.4179   43.2861 H   0  0  0  0  0  0  0  0  0  0  0  0
   57.4959   30.1779   41.9990 H   0  0  0  0  0  0  0  0  0  0  0  0
   56.4417   31.6323   41.9990 H   0  0  0  0  0  0  0  0  0  0  0  0
   54.9625   30.6586   43.4018 H   0  0  0  0  0  0  0  0  0  0  0  0
   55.8676   29.1187   43.1365 H   0  0  0  0  0  0  0  0  0  0  0  0
   55.9110   27.5175   45.3482 H   0  0  0  0  0  0  0  0  0  0  0  0
   57.5301   25.9656   46.4238 H   0  0  0  0  0  0  0  0  0  0  0  0
   59.5192   25.6253   47.6330 H   0  0  0  0  0  0  0  0  0  0  0  0
   60.1790   26.6731   49.5075 H   0  0  0  0  0  0  0  0  0  0  0  0
   61.7176   27.0308   48.6522 H   0  0  0  0  0  0  0  0  0  0  0  0
   60.3881   28.2388   48.6522 H   0  0  0  0  0  0  0  0  0  0  0  0
   62.0658   25.8315   46.9615 H   0  0  0  0  0  0  0  0  0  0  0  0
   60.8438   25.3109   45.7523 H   0  0  0  0  0  0  0  0  0  0  0  0
   61.4425   27.0045   45.7523 H   0  0  0  0  0  0  0  0  0  0  0  0
   60.3898   29.1913   46.7930 H   0  0  0  0  0  0  0  0  0  0  0  0
   59.6119   31.4310   46.4488 H   0  0  0  0  0  0  0  0  0  0  0  0
   59.3340   31.2841   44.6708 H   0  0  0  0  0  0  0  0  0  0  0  0
   57.2500   32.0930   44.8330 H   0  0  0  0  0  0  0  0  0  0  0  0
   56.9950   31.5840   46.4180 H   0  0  0  0  0  0  0  0  0  0  0  0
   56.9461   33.7663   46.4946 H   0  0  0  0  0  0  0  0  0  0  0  0
   58.2743   33.9016   48.3705 H   0  0  0  0  0  0  0  0  0  0  0  0
   59.0954   32.4117   47.8707 H   0  0  0  0  0  0  0  0  0  0  0  0
   60.3657   34.8611   48.0548 H   0  0  0  0  0  0  0  0  0  0  0  0
   60.9141   33.5995   46.9419 H   0  0  0  0  0  0  0  0  0  0  0  0
   59.2107   36.0636   46.3918 H   0  0  0  0  0  0  0  0  0  0  0  0
   60.5194   35.3985   45.4061 H   0  0  0  0  0  0  0  0  0  0  0  0
   57.8864   34.9880   44.7879 H   0  0  0  0  0  0  0  0  0  0  0  0
   59.0975   33.7495   44.4309 H   0  0  0  0  0  0  0  0  0  0  0  0
  1  2  1  0
  2  3  1  0
  3  4  1  0
  4  5  2  0
  5  6  1  0
  6  7  2  0
  7  8  1  0
  8  9  1  0
  8 10  1  0
  7 11  1  0
 11 12  2  0
 12 13  1  0
 13 14  1  0
 14 15  1  0
 15 16  1  0
 16 17  1  0
 17 18  1  0
 18 19  1  0
 12  4  1  0
 19 15  1  0
  1 20  1  0
  1 21  1  0
  1 22  1  0
  2 23  1  0
  2 24  1  0
  5 25  1  0
  6 26  1  0
  8 27  1  0
  9 28  1  0
  9 29  1  0
  9 30  1  0
 10 31  1  0
 10 32  1  0
 10 33  1  0
 11 34  1  0
 13 35  1  0
 13 36  1  0
 14 37  1  0
 14 38  1  0
 15 39  1  0
 16 40  1  0
 16 41  1  0
 17 42  1  0
 17 43  1  0
 18 44  1  0
 18 45  1  0
 19 46  1  0
 19 47  1  0
M  CHG  1  14   1
M  END
>  <UniqueID>  (37) 
37

>  <SMILES>  (37) 
CCOc1ccc(C(C)C)cc1C[NH2+]C1CCCC1

>  <Energy>  (37) 
44.66995087275625

>  <Genealogy>  (37) 
CCOc1ccc(C(C)C)cc1C[NH2+]C1CCCC1 (protonated)
CCOc1ccc(C(C)C)cc1C[NH2+]C1CCCC1 (3D coordinates assigned)
CCOc1ccc(C(C)C)cc1C[NH2+]C1CCCC1 (nonaromatic ring conformer: 44.66995087275625 kcal/mol)

>  <smiles>  (37) 
CCOc1ccc(C(C)C)cc1CNC1CCCC1

>  <score_type>  (37) 
oracle

>  <origin>  (37) 
adg

>  <m_score__min__energy>  (37) 
-5.2300000000000004

>  <m_primary>  (37) 
energy

$$$$
37:0
     RDKit          3D

 49 51  0  0  1  0  0  0  0  0999 V2000
   55.7590   24.0050   44.2810 C   0  0  0  0  0  0  0  0  0  0  0  0
   56.2120   23.2650   43.0080 C   0  0  0  0  0  0  0  0  0  0  0  0
   56.0090   21.9280   43.2100 O   0  0  0  0  0  0  0  0  0  0  0  0
   56.3860   21.5580   44.4840 C   0  0  0  0  0  0  0  0  0  0  0  0
   57.8220   21.0910   44.5610 C   0  0  0  0  0  0  0  0  0  0  0  0
   58.5320   21.7560   45.5470 O   0  0  0  0  0  0  0  0  0  0  0  0
   59.0420   22.9680   45.0220 C   0  0  0  0  0  0  0  0  0  0  0  0
   58.6550   24.0360   45.9920 C   0  0  0  0  0  0  0  0  0  0  0  0
   59.3690   25.1940   46.0070 O   0  0  0  0  0  0  0  0  0  0  0  0
   58.9540   26.5000   45.9210 C   0  0  0  0  0  0  0  0  0  0  0  0
   59.3790   27.3130   46.9450 C   0  0  0  0  0  0  0  0  0  0  0  0
   58.9970   28.6600   46.9350 C   0  0  0  0  0  0  0  0  0  0  0  0
   58.2230   29.0840   45.9040 C   0  0  0  0  0  0  0  0  0  0  0  0
   57.8210   30.3920   45.8470 C   0  0  0  0  0  0  0  0  0  0  0  0
   58.1300   31.2270   46.7000 N   0  0  0  0  0  0  0  0  0  0  0  0
   58.8980   32.3330   46.6790 C   0  0  0  0  0  0  0  0  0  0  0  0
   58.3300   33.5650   46.2630 C   0  0  0  0  0  0  0  0  0  0  0  0
   59.1210   34.6860   46.1230 C   0  0  0  0  0  0  0  0  0  0  0  0
   60.4810   34.6410   46.3820 C   0  0  0  0  0  0  0  0  0  0  0  0
   61.0350   33.4440   46.7870 C   0  0  0  0  0  0  0  0  0  0  0  0
   62.9260   33.4570   47.1280 Br  0  0  0  0  0  0  0  0  0  0  0  0
   60.2900   32.2870   46.9450 C   0  0  0  0  0  0  0  0  0  0  0  0
   57.0400   30.8350   44.8110 N   0  0  0  0  0  0  0  0  0  0  0  0
   56.6780   29.9720   43.8660 C   0  0  0  0  0  0  0  0  0  0  0  0
   57.0360   28.6800   43.8620 N   0  0  0  0  0  0  0  0  0  0  0  0
   57.8060   28.2630   44.8890 C   0  0  0  0  0  0  0  0  0  0  0  0
   58.1780   26.9450   44.8970 C   0  0  0  0  0  0  0  0  0  0  0  0
   56.0986   23.4502   45.1681 H   0  0  0  0  0  0  0  0  0  0  0  0
   56.1935   25.0155   44.2919 H   0  0  0  0  0  0  0  0  0  0  0  0
   54.6615   24.0776   44.2919 H   0  0  0  0  0  0  0  0  0  0  0  0
   55.6216   23.6075   42.1454 H   0  0  0  0  0  0  0  0  0  0  0  0
   57.2736   23.4668   42.8022 H   0  0  0  0  0  0  0  0  0  0  0  0
   56.2621   22.4233   45.1518 H   0  0  0  0  0  0  0  0  0  0  0  0
   55.7481   20.7138   44.7847 H   0  0  0  0  0  0  0  0  0  0  0  0
   57.8336   20.0132   44.7807 H   0  0  0  0  0  0  0  0  0  0  0  0
   58.3011   21.3053   43.5943 H   0  0  0  0  0  0  0  0  0  0  0  0
   60.1369   22.9137   44.9310 H   0  0  0  0  0  0  0  0  0  0  0  0
   58.6395   23.1718   44.0188 H   0  0  0  0  0  0  0  0  0  0  0  0
   57.6092   24.3030   45.7796 H   0  0  0  0  0  0  0  0  0  0  0  0
   58.8526   23.5873   46.9767 H   0  0  0  0  0  0  0  0  0  0  0  0
   60.0063   26.9134   47.7555 H   0  0  0  0  0  0  0  0  0  0  0  0
   59.3124   29.3486   47.7327 H   0  0  0  0  0  0  0  0  0  0  0  0
   57.2524   33.6263   46.0509 H   0  0  0  0  0  0  0  0  0  0  0  0
   58.6637   35.6328   45.7999 H   0  0  0  0  0  0  0  0  0  0  0  0
   61.1053   35.5394   46.2674 H   0  0  0  0  0  0  0  0  0  0  0  0
   60.7685   31.3515   47.2702 H   0  0  0  0  0  0  0  0  0  0  0  0
   56.0495   30.3390   43.0412 H   0  0  0  0  0  0  0  0  0  0  0  0
   56.7180   28.0580   43.0900 H   0  0  0  0  0  0  0  0  0  0  0  0
   57.8571   26.2636   44.0953 H   0  0  0  0  0  0  0  0  0  0  0  0
  1  2  1  0
  2  3  1  0
  3  4  1  0
  4  5  1  0
  5  6  1  0
  6  7  1  0
  7  8  1  0
  8  9  1  0
  9 10  1  0
 10 11  2  0
 11 12  1  0
 12 13  2  0
 13 14  1  0
 14 15  2  0
 15 16  1  0
 16 17  2  0
 17 18  1  0
 18 19  2  0
 19 20  1  0
 20 21  1  0
 20 22  2  0
 14 23  1  0
 23 24  2  0
 24 25  1  0
 25 26  1  0
 26 27  2  0
 27 10  1  0
 26 13  1  0
 22 16  1  0
  1 28  1  0
  1 29  1  0
  1 30  1  0
  2 31  1  0
  2 32  1  0
  4 33  1  0
  4 34  1  0
  5 35  1  0
  5 36  1  0
  7 37  1  0
  7 38  1  0
  8 39  1  0
  8 40  1  0
 11 41  1  0
 12 42  1  0
 17 43  1  0
 18 44  1  0
 19 45  1  0
 22 46  1  0
 24 47  1  0
 25 48  1  0
 27 49  1  0
M  END
>  <smiles>  (38) 
CCOCCOCCOc1ccc2c(=Nc3cccc(Br)c3)nc[nH]c2c1

>  <score_type>  (38) 
oracle

>  <origin>  (38) 
adg

>  <m_score__min__energy>  (38) 
-8.1799999999999997

>  <m_primary>  (38) 
energy

$$$$
