0:0
     RDKit          3D

 47 49  0  0  0  0  0  0  0  0999 V2000
   57.7810   26.6370   45.8670 C   0  0  0  0  0  0  0  0  0  0  0  0
   58.9220   26.9290   44.9820 N   0  0  0  0  0  0  0  0  0  0  0  0
   58.4280   27.5090   43.7230 C   0  0  0  0  0  0  0  0  0  0  0  0
   59.8770   27.8550   45.6310 C   0  0  0  0  0  0  0  0  0  0  0  0
   59.4380   29.3190   45.4770 C   0  0  0  0  0  0  0  0  0  0  0  0
   58.4220   29.7300   46.5500 C   0  0  0  0  0  0  0  0  0  0  0  0
   57.3900   30.5340   45.9800 O   0  0  0  0  0  0  0  0  0  0  0  0
   57.3540   31.0190   44.6610 C   0  0  0  0  0  0  0  0  0  0  0  0
   56.7080   30.3090   43.6280 C   0  0  0  0  0  0  0  0  0  0  0  0
   56.7340   30.7840   42.3150 C   0  0  0  0  0  0  0  0  0  0  0  0
   57.4060   31.9660   42.0120 C   0  0  0  0  0  0  0  0  0  0  0  0
   58.0450   32.6850   43.0220 C   0  0  0  0  0  0  0  0  0  0  0  0
   58.0130   32.2350   44.3530 C   0  0  0  0  0  0  0  0  0  0  0  0
   58.6910   33.0510   45.3880 C   0  0  0  0  0  0  0  0  0  0  0  0
   58.2800   34.2710   45.8980 C   0  0  0  0  0  0  0  0  0  0  0  0
   59.2440   34.6470   46.8080 C   0  0  0  0  0  0  0  0  0  0  0  0
   60.1920   33.6370   46.7980 C   0  0  0  0  0  0  0  0  0  0  0  0
   61.4350   33.5690   47.6030 C   0  0  0  0  0  0  0  0  0  0  0  0
   62.6560   33.1510   47.0380 C   0  0  0  0  0  0  0  0  0  0  0  0
   63.8140   33.0950   47.8200 C   0  0  0  0  0  0  0  0  0  0  0  0
   63.7690   33.4550   49.1680 C   0  0  0  0  0  0  0  0  0  0  0  0
   64.8940   33.4000   49.9240 F   0  0  0  0  0  0  0  0  0  0  0  0
   62.5630   33.8710   49.7390 C   0  0  0  0  0  0  0  0  0  0  0  0
   61.4020   33.9280   48.9620 C   0  0  0  0  0  0  0  0  0  0  0  0
   59.8340   32.7080   45.9410 O   0  0  0  0  0  0  0  0  0  0  0  0
   58.1006   26.7188   46.9164 H   0  0  0  0  0  0  0  0  0  0  0  0
   56.9726   27.3572   45.6727 H   0  0  0  0  0  0  0  0  0  0  0  0
   57.4179   25.6170   45.6727 H   0  0  0  0  0  0  0  0  0  0  0  0
   57.7296   28.3290   43.9462 H   0  0  0  0  0  0  0  0  0  0  0  0
   59.2763   27.8981   43.1408 H   0  0  0  0  0  0  0  0  0  0  0  0
   57.9088   26.7334   43.1408 H   0  0  0  0  0  0  0  0  0  0  0  0
   59.9387   27.6115   46.7019 H   0  0  0  0  0  0  0  0  0  0  0  0
   60.8563   27.7363   45.1443 H   0  0  0  0  0  0  0  0  0  0  0  0
   60.3237   29.9660   45.5602 H   0  0  0  0  0  0  0  0  0  0  0  0
   58.9567   29.4278   44.4939 H   0  0  0  0  0  0  0  0  0  0  0  0
   57.9752   28.8264   46.9904 H   0  0  0  0  0  0  0  0  0  0  0  0
   58.9401   30.3136   47.3252 H   0  0  0  0  0  0  0  0  0  0  0  0
   56.1788   29.3726   43.8585 H   0  0  0  0  0  0  0  0  0  0  0  0
   56.2228   30.2236   41.5184 H   0  0  0  0  0  0  0  0  0  0  0  0
   57.4327   32.3327   40.9752 H   0  0  0  0  0  0  0  0  0  0  0  0
   58.5795   33.6139   42.7742 H   0  0  0  0  0  0  0  0  0  0  0  0
   57.3692   34.8270   45.6310 H   0  0  0  0  0  0  0  0  0  0  0  0
   59.2579   35.5623   47.4179 H   0  0  0  0  0  0  0  0  0  0  0  0
   62.6987   32.8672   45.9761 H   0  0  0  0  0  0  0  0  0  0  0  0
   64.7631   32.7663   47.3716 H   0  0  0  0  0  0  0  0  0  0  0  0
   62.5272   34.1540   50.8014 H   0  0  0  0  0  0  0  0  0  0  0  0
   60.4559   34.2561   49.4172 H   0  0  0  0  0  0  0  0  0  0  0  0
  1  2  1  0
  2  3  1  0
  2  4  1  0
  4  5  1  0
  5  6  1  0
  6  7  1  0
  7  8  1  0
  8  9  2  0
  9 10  1  0
 10 11  2  0
 11 12  1  0
 12 13  2  0
 13 14  1  0
 14 15  2  0
 15 16  1  0
 16 17  2  0
 17 18  1  0
 18 19  2  0
 19 20  1  0
 20 21  2  0
 21 22  1  0
 21 23  1  0
 23 24  2  0
 17 25  1  0
 13  8  1  0
 25 14  1  0
 24 18  1  0
  1 26  1  0
  1 27  1  0
  1 28  1  0
  3 29  1  0
  3 30  1  0
  3 31  1  0
  4 32  1  0
  4 33  1  0
  5 34  1  0
  5 35  1  0
  6 36  1  0
  6 37  1  0
  9 38  1  0
 10 39  1  0
 11 40  1  0
 12 41  1  0
 15 42  1  0
 16 43  1  0
 19 44  1  0
 20 45  1  0
 23 46  1  0
 24 47  1  0
M  END
>  <UniqueID>  (1) 
1

>  <SMILES>  (1) 
CN(C)CCCOc1ccccc1-c1ccc(-c2ccc(F)cc2)o1

>  <Energy>  (1) 
77.43067227563391

>  <Genealogy>  (1) 
CN(C)CCCOc1ccccc1-c1ccc(-c2ccc(F)cc2)o1 (3D coordinates assigned)
CN(C)CCCOc1ccccc1-c1ccc(-c2ccc(F)cc2)o1 (optimized conformer: 77.43067227563391 kcal/mol)

>  <smiles>  (1) 
CN(C)CCCOc1ccccc1-c1ccc(-c2ccc(F)cc2)o1

>  <score_type>  (1) 
oracle

>  <origin>  (1) 
adg

>  <m_score__min__energy>  (1) 
-7.6200000000000001

>  <m_primary>  (1) 
energy

$$$$
1:0
     RDKit          3D

 51 54  0  0  0  0  0  0  0  0999 V2000
   60.0290   21.8400   44.1120 C   0  0  0  0  0  0  0  0  0  0  0  0
   59.4020   22.3050   45.3030 O   0  0  0  0  0  0  0  0  0  0  0  0
   58.1360   22.9130   45.3530 C   0  0  0  0  0  0  0  0  0  0  0  0
   57.9710   24.2640   45.7070 C   0  0  0  0  0  0  0  0  0  0  0  0
   56.6920   24.8540   45.7370 C   0  0  0  0  0  0  0  0  0  0  0  0
   56.4920   26.2140   46.0770 C   0  0  0  0  0  0  0  0  0  0  0  0
   57.6200   27.1590   46.4070 C   0  0  0  0  0  0  0  0  0  0  0  0
   57.5880   28.3670   45.5130 C   0  0  0  0  0  0  0  0  0  0  0  0
   57.0840   28.2850   44.2090 C   0  0  0  0  0  0  0  0  0  0  0  0
   57.0840   29.4230   43.4030 C   0  0  0  0  0  0  0  0  0  0  0  0
   57.5860   30.6300   43.8950 C   0  0  0  0  0  0  0  0  0  0  0  0
   57.6190   31.7120   43.0780 F   0  0  0  0  0  0  0  0  0  0  0  0
   58.0840   30.6860   45.2120 C   0  0  0  0  0  0  0  0  0  0  0  0
   58.6130   31.9050   45.7720 N   0  0  0  0  0  0  0  0  0  0  0  0
   59.7290   31.8240   46.7260 C   0  0  0  0  0  0  0  0  0  0  0  0
   60.4920   33.1510   46.7800 C   0  0  0  0  0  0  0  0  0  0  0  0
   59.5750   34.3370   47.1340 C   0  0  0  0  0  0  0  0  0  0  0  0
   58.1040   34.1240   46.7320 C   0  0  0  0  0  0  0  0  0  0  0  0
   57.9600   33.2000   45.5210 C   0  0  0  0  0  0  0  0  0  0  0  0
   58.0800   29.5520   45.9680 N   0  0  0  0  0  0  0  0  0  0  0  0
   55.2270   26.7150   46.0690 N   0  0  0  0  0  0  0  0  0  0  0  0
   54.1690   25.9670   45.7630 N   0  0  0  0  0  0  0  0  0  0  0  0
   54.2910   24.6580   45.4350 C   0  0  0  0  0  0  0  0  0  0  0  0
   53.2570   23.9940   45.1530 O   0  0  0  0  0  0  0  0  0  0  0  0
   55.5640   24.0650   45.4110 C   0  0  0  0  0  0  0  0  0  0  0  0
   55.7350   22.7120   45.0650 C   0  0  0  0  0  0  0  0  0  0  0  0
   57.0160   22.1340   45.0340 C   0  0  0  0  0  0  0  0  0  0  0  0
   57.2190   20.7880   44.6880 O   0  0  0  0  0  0  0  0  0  0  0  0
   56.5880   19.6840   45.3280 C   0  0  0  0  0  0  0  0  0  0  0  0
   60.8871   21.2036   44.3738 H   0  0  0  0  0  0  0  0  0  0  0  0
   59.3071   21.2572   43.5211 H   0  0  0  0  0  0  0  0  0  0  0  0
   60.3771   22.7000   43.5211 H   0  0  0  0  0  0  0  0  0  0  0  0
   58.8532   24.8687   45.9641 H   0  0  0  0  0  0  0  0  0  0  0  0
   57.5235   27.4832   47.4537 H   0  0  0  0  0  0  0  0  0  0  0  0
   58.5742   26.6338   46.2534 H   0  0  0  0  0  0  0  0  0  0  0  0
   56.6919   27.3320   43.8242 H   0  0  0  0  0  0  0  0  0  0  0  0
   56.6880   29.3700   42.3781 H   0  0  0  0  0  0  0  0  0  0  0  0
   59.3331   31.5941   47.7262 H   0  0  0  0  0  0  0  0  0  0  0  0
   60.4186   31.0325   46.3974 H   0  0  0  0  0  0  0  0  0  0  0  0
   61.2818   33.0745   47.5418 H   0  0  0  0  0  0  0  0  0  0  0  0
   60.9145   33.3378   45.7817 H   0  0  0  0  0  0  0  0  0  0  0  0
   59.6181   34.4967   48.2215 H   0  0  0  0  0  0  0  0  0  0  0  0
   59.9404   35.2060   46.5672 H   0  0  0  0  0  0  0  0  0  0  0  0
   57.5660   33.6792   47.5821 H   0  0  0  0  0  0  0  0  0  0  0  0
   57.6849   35.1037   46.4590 H   0  0  0  0  0  0  0  0  0  0  0  0
   56.8916   33.0324   45.3201 H   0  0  0  0  0  0  0  0  0  0  0  0
   58.4420   33.6762   44.6545 H   0  0  0  0  0  0  0  0  0  0  0  0
   54.8560   22.0994   44.8158 H   0  0  0  0  0  0  0  0  0  0  0  0
   56.6568   19.8044   46.4192 H   0  0  0  0  0  0  0  0  0  0  0  0
   55.5300   19.6429   45.0297 H   0  0  0  0  0  0  0  0  0  0  0  0
   57.0896   18.7516   45.0297 H   0  0  0  0  0  0  0  0  0  0  0  0
  1  2  1  0
  2  3  1  0
  3  4  2  0
  4  5  1  0
  5  6  1  0
  6  7  1  0
  7  8  1  0
  8  9  2  0
  9 10  1  0
 10 11  2  0
 11 12  1  0
 11 13  1  0
 13 14  1  0
 14 15  1  0
 15 16  1  0
 16 17  1  0
 17 18  1  0
 18 19  1  0
 13 20  2  0
  6 21  2  0
 21 22  1  0
 22 23  1  0
 23 24  2  0
 23 25  1  0
 25 26  1  0
 26 27  2  0
 27 28  1  0
 28 29  1  0
 27  3  1  0
 25  5  2  0
 20  8  1  0
 19 14  1  0
  1 30  1  0
  1 31  1  0
  1 32  1  0
  4 33  1  0
  7 34  1  0
  7 35  1  0
  9 36  1  0
 10 37  1  0
 15 38  1  0
 15 39  1  0
 16 40  1  0
 16 41  1  0
 17 42  1  0
 17 43  1  0
 18 44  1  0
 18 45  1  0
 19 46  1  0
 19 47  1  0
 26 48  1  0
 29 49  1  0
 29 50  1  0
 29 51  1  0
M  CHG  1  22  -1
M  END
>  <UniqueID>  (2) 
2

>  <SMILES>  (2) 
COc1cc2c(Cc3ccc(F)c(N4CCCCC4)n3)n[n-]c(=O)c2cc1OC

>  <Energy>  (2) 
63.6259525010366

>  <Genealogy>  (2) 
COc1cc2c(Cc3ccc(F)c(N4CCCCC4)n3)n[n-]c(=O)c2cc1OC (protonated)
COc1cc2c(Cc3ccc(F)c(N4CCCCC4)n3)n[n-]c(=O)c2cc1OC (3D coordinates assigned)
COc1cc2c(Cc3ccc(F)c(N4CCCCC4)n3)n[n-]c(=O)c2cc1OC (nonaromatic ring conformer: 63.6259525010366 kcal/mol)

>  <smiles>  (2) 
COc1cc2c(Cc3ccc(F)c(N4CCCCC4)n3)n[nH]c(=O)c2cc1OC

>  <score_type>  (2) 
oracle

>  <origin>  (2) 
adg

>  <m_score__min__energy>  (2) 
-10.609999999999999

>  <m_primary>  (2) 
energy

$$$$
2:0
     RDKit          3D

 27 28  0  0  0  0  0  0  0  0999 V2000
   56.3290   27.4780   45.6260 C   0  0  0  0  0  0  0  0  0  0  0  0
   55.5450   28.6110   45.1550 N   0  0  0  0  0  0  0  0  0  0  0  0
   56.0820   29.7200   44.4220 C   0  0  0  0  0  0  0  0  0  0  0  0
   55.5230   30.8440   44.5240 O   0  0  0  0  0  0  0  0  0  0  0  0
   57.3200   29.5930   43.5790 C   0  0  0  0  0  0  0  0  0  0  0  0
   58.5340   29.3730   44.4360 C   0  0  0  0  0  0  0  0  0  0  0  0
   59.2310   28.2590   44.4580 O   0  0  0  0  0  0  0  0  0  0  0  0
   60.1860   28.4440   45.3370 C   0  0  0  0  0  0  0  0  0  0  0  0
   61.0480   27.5730   45.6270 O   0  0  0  0  0  0  0  0  0  0  0  0
   60.1450   29.6360   45.8830 O   0  0  0  0  0  0  0  0  0  0  0  0
   59.1270   30.2580   45.3320 C   0  0  0  0  0  0  0  0  0  0  0  0
   58.7370   31.6420   45.6740 C   0  0  0  0  0  0  0  0  0  0  0  0
   58.9330   32.1080   46.9850 C   0  0  0  0  0  0  0  0  0  0  0  0
   58.5860   33.4170   47.3300 C   0  0  0  0  0  0  0  0  0  0  0  0
   58.0530   34.2780   46.3670 C   0  0  0  0  0  0  0  0  0  0  0  0
   57.8750   33.8320   45.0560 C   0  0  0  0  0  0  0  0  0  0  0  0
   58.2200   32.5230   44.7060 C   0  0  0  0  0  0  0  0  0  0  0  0
   56.3355   27.4686   46.7259 H   0  0  0  0  0  0  0  0  0  0  0  0
   55.8833   26.5437   45.2539 H   0  0  0  0  0  0  0  0  0  0  0  0
   57.3604   27.5658   45.2539 H   0  0  0  0  0  0  0  0  0  0  0  0
   57.2033   28.7398   42.8946 H   0  0  0  0  0  0  0  0  0  0  0  0
   57.4554   30.5258   43.0120 H   0  0  0  0  0  0  0  0  0  0  0  0
   59.3623   31.4382   47.7446 H   0  0  0  0  0  0  0  0  0  0  0  0
   58.7327   33.7702   48.3614 H   0  0  0  0  0  0  0  0  0  0  0  0
   57.7740   35.3060   46.6415 H   0  0  0  0  0  0  0  0  0  0  0  0
   57.4622   34.5122   44.2964 H   0  0  0  0  0  0  0  0  0  0  0  0
   58.0867   32.1803   43.6693 H   0  0  0  0  0  0  0  0  0  0  0  0
  1  2  1  0
  2  3  1  0
  3  4  2  0
  3  5  1  0
  5  6  1  0
  6  7  1  0
  7  8  1  0
  8  9  2  0
  8 10  1  0
 10 11  1  0
 11 12  1  0
 12 13  2  0
 13 14  1  0
 14 15  2  0
 15 16  1  0
 16 17  2  0
 11  6  2  0
 17 12  1  0
  1 18  1  0
  1 19  1  0
  1 20  1  0
  5 21  1  0
  5 22  1  0
 13 23  1  0
 14 24  1  0
 15 25  1  0
 16 26  1  0
 17 27  1  0
M  CHG  1   2  -1
M  END
>  <UniqueID>  (3) 
3

>  <SMILES>  (3) 
C[N-]C(=O)Cc1oc(=O)oc1-c1ccccc1

>  <Energy>  (3) 
60.661046178745565

>  <Genealogy>  (3) 
C[N-]C(=O)Cc1oc(=O)oc1-c1ccccc1 (protonated)
C[N-]C(=O)Cc1oc(=O)oc1-c1ccccc1 (3D coordinates assigned)
C[N-]C(=O)Cc1oc(=O)oc1-c1ccccc1 (optimized conformer: 60.661046178745565 kcal/mol)

>  <smiles>  (3) 
CNC(=O)Cc1oc(=O)oc1-c1ccccc1

>  <score_type>  (3) 
oracle

>  <origin>  (3) 
adg

>  <m_score__min__energy>  (3) 
-8.6999999999999993

>  <m_primary>  (3) 
energy

$$$$
3:0
     RDKit          3D

 36 38  0  0  0  0  0  0  0  0999 V2000
   57.3490   34.6640   44.8740 O   0  0  0  0  0  0  0  0  0  0  0  0
   58.2560   33.8030   45.0400 C   0  0  0  0  0  0  0  0  0  0  0  0
   59.6140   34.2200   45.2400 N   0  0  0  0  0  0  0  0  0  0  0  0
   60.3790   34.0960   46.4480 C   0  0  0  0  0  0  0  0  0  0  0  0
   59.7390   34.3180   47.6750 C   0  0  0  0  0  0  0  0  0  0  0  0
   60.4530   34.2290   48.8730 C   0  0  0  0  0  0  0  0  0  0  0  0
   61.8190   33.9330   48.8530 C   0  0  0  0  0  0  0  0  0  0  0  0
   62.4720   33.7350   47.6340 C   0  0  0  0  0  0  0  0  0  0  0  0
   61.7600   33.8220   46.4330 C   0  0  0  0  0  0  0  0  0  0  0  0
   57.9250   32.3590   44.9760 C   0  0  0  0  0  0  0  0  0  0  0  0
   58.1640   31.5200   46.0770 C   0  0  0  0  0  0  0  0  0  0  0  0
   57.8500   30.1590   46.0130 C   0  0  0  0  0  0  0  0  0  0  0  0
   57.2780   29.6130   44.8560 C   0  0  0  0  0  0  0  0  0  0  0  0
   56.9850   28.2050   44.8100 N   0  0  0  0  0  0  0  0  0  0  0  0
   57.0680   27.3330   45.9490 C   0  0  0  0  0  0  0  0  0  0  0  0
   57.7120   27.6880   46.9730 O   0  0  0  0  0  0  0  0  0  0  0  0
   56.4480   25.9990   45.9280 C   0  0  0  0  0  0  0  0  0  0  0  0
   57.1020   24.7840   45.8360 C   0  0  0  0  0  0  0  0  0  0  0  0
   56.1110   23.8260   45.8450 C   0  0  0  0  0  0  0  0  0  0  0  0
   54.9170   24.5100   45.9390 C   0  0  0  0  0  0  0  0  0  0  0  0
   55.1500   25.8020   45.9860 O   0  0  0  0  0  0  0  0  0  0  0  0
   57.0570   30.4450   43.7460 C   0  0  0  0  0  0  0  0  0  0  0  0
   57.3710   31.8060   43.8080 C   0  0  0  0  0  0  0  0  0  0  0  0
   58.6671   34.5640   47.6951 H   0  0  0  0  0  0  0  0  0  0  0  0
   59.9398   34.3920   49.8322 H   0  0  0  0  0  0  0  0  0  0  0  0
   62.3794   33.8560   49.7964 H   0  0  0  0  0  0  0  0  0  0  0  0
   63.5487   33.5101   47.6185 H   0  0  0  0  0  0  0  0  0  0  0  0
   62.2802   33.6760   45.4748 H   0  0  0  0  0  0  0  0  0  0  0  0
   58.6014   31.9368   46.9962 H   0  0  0  0  0  0  0  0  0  0  0  0
   58.0537   29.5112   46.8784 H   0  0  0  0  0  0  0  0  0  0  0  0
   56.7980   27.7790   43.8740 H   0  0  0  0  0  0  0  0  0  0  0  0
   58.1872   24.6169   45.7695 H   0  0  0  0  0  0  0  0  0  0  0  0
   56.2453   22.7357   45.7886 H   0  0  0  0  0  0  0  0  0  0  0  0
   53.9209   24.0444   45.9699 H   0  0  0  0  0  0  0  0  0  0  0  0
   56.6343   30.0231   42.8222 H   0  0  0  0  0  0  0  0  0  0  0  0
   57.1831   32.4494   42.9358 H   0  0  0  0  0  0  0  0  0  0  0  0
  1  2  2  0
  2  3  1  0
  3  4  1  0
  4  5  2  0
  5  6  1  0
  6  7  2  0
  7  8  1  0
  8  9  2  0
  2 10  1  0
 10 11  2  0
 11 12  1  0
 12 13  2  0
 13 14  1  0
 14 15  1  0
 15 16  2  0
 15 17  1  0
 17 18  2  0
 18 19  1  0
 19 20  2  0
 20 21  1  0
 13 22  1  0
 22 23  2  0
  9  4  1  0
 23 10  1  0
 21 17  1  0
  5 24  1  0
  6 25  1  0
  7 26  1  0
  8 27  1  0
  9 28  1  0
 11 29  1  0
 12 30  1  0
 14 31  1  0
 18 32  1  0
 19 33  1  0
 20 34  1  0
 22 35  1  0
 23 36  1  0
M  CHG  1   3  -1
M  END
>  <UniqueID>  (4) 
4

>  <SMILES>  (4) 
O=C([N-]c1ccccc1)c1ccc(NC(=O)c2ccco2)cc1

>  <Energy>  (4) 
72.03995577720396

>  <Genealogy>  (4) 
O=C([N-]c1ccccc1)c1ccc(NC(=O)c2ccco2)cc1 (protonated)
O=C([N-]c1ccccc1)c1ccc(NC(=O)c2ccco2)cc1 (3D coordinates assigned)
O=C([N-]c1ccccc1)c1ccc(NC(=O)c2ccco2)cc1 (optimized conformer: 72.03995577720396 kcal/mol)

>  <smiles>  (4) 
O=C(Nc1ccccc1)c1ccc(NC(=O)c2ccco2)cc1

>  <score_type>  (4) 
oracle

>  <origin>  (4) 
adg

>  <m_score__min__energy>  (4) 
-8.9100000000000001

>  <m_primary>  (4) 
energy

$$$$
4:0
     RDKit          3D

 49 52  0  0  0  0  0  0  0  0999 V2000
   61.0470   34.2420   49.4450 C   0  0  0  0  0  0  0  0  0  0  0  0
   59.9870   33.5940   50.0840 C   0  0  0  0  0  0  0  0  0  0  0  0
   58.9670   33.0080   49.3300 C   0  0  0  0  0  0  0  0  0  0  0  0
   59.0020   33.0580   47.9270 C   0  0  0  0  0  0  0  0  0  0  0  0
   60.0630   33.7390   47.2790 C   0  0  0  0  0  0  0  0  0  0  0  0
   61.0880   34.3100   48.0500 C   0  0  0  0  0  0  0  0  0  0  0  0
   60.1770   33.7740   45.7710 C   0  0  0  0  0  0  0  0  0  0  0  0
   58.8420   33.4780   45.0830 C   0  0  0  0  0  0  0  0  0  0  0  0
   58.2220   32.3230   45.7300 N   0  0  0  0  0  0  0  0  0  0  0  0
   58.2060   31.0400   45.0790 C   0  0  0  0  0  0  0  0  0  0  0  0
   57.0360   30.5690   44.4600 C   0  0  0  0  0  0  0  0  0  0  0  0
   57.0230   29.3170   43.8380 C   0  0  0  0  0  0  0  0  0  0  0  0
   58.1810   28.5230   43.8160 C   0  0  0  0  0  0  0  0  0  0  0  0
   58.1530   27.1580   43.1800 C   0  0  0  0  0  0  0  0  0  0  0  0
   57.3980   26.2150   44.0210 N   0  0  0  0  0  0  0  0  0  0  0  0
   58.2810   25.4190   44.8890 C   0  0  0  0  0  0  0  0  0  0  0  0
   58.8350   26.2360   46.0320 C   0  0  0  0  0  0  0  0  0  0  0  0
   58.0040   27.1000   46.7600 C   0  0  0  0  0  0  0  0  0  0  0  0
   58.5450   27.8630   47.7980 C   0  0  0  0  0  0  0  0  0  0  0  0
   59.8680   27.7660   48.0970 N   0  0  0  0  0  0  0  0  0  0  0  0
   60.6970   26.9390   47.4070 C   0  0  0  0  0  0  0  0  0  0  0  0
   60.1970   26.1600   46.3600 C   0  0  0  0  0  0  0  0  0  0  0  0
   59.3430   28.9870   44.4500 C   0  0  0  0  0  0  0  0  0  0  0  0
   59.3570   30.2380   45.0740 C   0  0  0  0  0  0  0  0  0  0  0  0
   57.8570   32.4680   47.1420 C   0  0  0  0  0  0  0  0  0  0  0  0
   61.8505   34.6994   50.0410 H   0  0  0  0  0  0  0  0  0  0  0  0
   59.9554   33.5451   51.1825 H   0  0  0  0  0  0  0  0  0  0  0  0
   58.1316   32.5045   49.8384 H   0  0  0  0  0  0  0  0  0  0  0  0
   61.9293   34.8145   47.5523 H   0  0  0  0  0  0  0  0  0  0  0  0
   60.5194   34.7735   45.4648 H   0  0  0  0  0  0  0  0  0  0  0  0
   60.8927   32.9954   45.4684 H   0  0  0  0  0  0  0  0  0  0  0  0
   58.1790   34.3512   45.1721 H   0  0  0  0  0  0  0  0  0  0  0  0
   59.0114   33.2622   44.0178 H   0  0  0  0  0  0  0  0  0  0  0  0
   56.1266   31.1878   44.4648 H   0  0  0  0  0  0  0  0  0  0  0  0
   56.1004   28.9518   43.3631 H   0  0  0  0  0  0  0  0  0  0  0  0
   57.6726   27.2279   42.1929 H   0  0  0  0  0  0  0  0  0  0  0  0
   59.1852   26.7931   43.0733 H   0  0  0  0  0  0  0  0  0  0  0  0
   56.8250   25.5790   43.4160 H   0  0  0  0  0  0  0  0  0  0  0  0
   56.7450   26.7570   44.6340 H   0  0  0  0  0  0  0  0  0  0  0  0
   57.7080   24.5750   45.3005 H   0  0  0  0  0  0  0  0  0  0  0  0
   59.1273   25.0660   44.2814 H   0  0  0  0  0  0  0  0  0  0  0  0
   56.9342   27.1764   46.5156 H   0  0  0  0  0  0  0  0  0  0  0  0
   57.9000   28.5429   48.3739 H   0  0  0  0  0  0  0  0  0  0  0  0
   61.7629   26.8828   47.6730 H   0  0  0  0  0  0  0  0  0  0  0  0
   60.8662   25.4924   45.7974 H   0  0  0  0  0  0  0  0  0  0  0  0
   60.2487   28.3628   44.4563 H   0  0  0  0  0  0  0  0  0  0  0  0
   60.2751   30.5952   45.5635 H   0  0  0  0  0  0  0  0  0  0  0  0
   56.9830   33.1309   47.2235 H   0  0  0  0  0  0  0  0  0  0  0  0
   57.6200   31.4749   47.5514 H   0  0  0  0  0  0  0  0  0  0  0  0
  1  2  2  0
  2  3  1  0
  3  4  2  0
  4  5  1  0
  5  6  2  0
  5  7  1  0
  7  8  1  0
  8  9  1  0
  9 10  1  0
 10 11  2  0
 11 12  1  0
 12 13  2  0
 13 14  1  0
 14 15  1  0
 15 16  1  0
 16 17  1  0
 17 18  2  0
 18 19  1  0
 19 20  2  0
 20 21  1  0
 21 22  2  0
 13 23  1  0
 23 24  2  0
  9 25  1  0
  6  1  1  0
 24 10  1  0
 25  4  1  0
 22 17  1  0
  1 26  1  0
  2 27  1  0
  3 28  1  0
  6 29  1  0
  7 30  1  0
  7 31  1  0
  8 32  1  0
  8 33  1  0
 11 34  1  0
 12 35  1  0
 14 36  1  0
 14 37  1  0
 15 38  1  0
 15 39  1  0
 16 40  1  0
 16 41  1  0
 18 42  1  0
 19 43  1  0
 21 44  1  0
 22 45  1  0
 23 46  1  0
 24 47  1  0
 25 48  1  0
 25 49  1  0
M  CHG  1  15   1
M  END
>  <UniqueID>  (5) 
5

>  <SMILES>  (5) 
c1ccc2c(c1)CCN(c1ccc(C[NH2+]Cc3ccncc3)cc1)C2

>  <Energy>  (5) 
59.35974244673729

>  <Genealogy>  (5) 
c1ccc2c(c1)CCN(c1ccc(C[NH2+]Cc3ccncc3)cc1)C2 (protonated)
c1ccc2c(c1)CCN(c1ccc(C[NH2+]Cc3ccncc3)cc1)C2 (3D coordinates assigned)
c1ccc2c(c1)CCN(c1ccc(C[NH2+]Cc3ccncc3)cc1)C2 (nonaromatic ring conformer: 59.35974244673729 kcal/mol)

>  <smiles>  (5) 
c1ccc2c(c1)CCN(c1ccc(CNCc3ccncc3)cc1)C2

>  <score_type>  (5) 
oracle

>  <origin>  (5) 
adg

>  <m_score__min__energy>  (5) 
-6.7999999999999998

>  <m_primary>  (5) 
energy

$$$$
5:0
     RDKit          3D

 37 38  0  0  0  0  0  0  0  0999 V2000
   63.7400   33.4280   49.8640 C   0  0  0  0  0  0  0  0  0  0  0  0
   62.3990   33.9070   49.8980 O   0  0  0  0  0  0  0  0  0  0  0  0
   61.5590   33.9870   48.7780 C   0  0  0  0  0  0  0  0  0  0  0  0
   60.1820   34.2560   48.8840 C   0  0  0  0  0  0  0  0  0  0  0  0
   59.3870   34.3260   47.7360 C   0  0  0  0  0  0  0  0  0  0  0  0
   59.9510   34.1380   46.4630 C   0  0  0  0  0  0  0  0  0  0  0  0
   59.0900   34.2190   45.2580 C   0  0  0  0  0  0  0  0  0  0  0  0
   59.6310   34.3460   44.1260 O   0  0  0  0  0  0  0  0  0  0  0  0
   57.5820   34.1910   45.3500 C   0  0  0  0  0  0  0  0  0  0  0  0
   57.0010   32.7650   45.2470 C   0  0  0  0  0  0  0  0  0  0  0  0
   57.9510   31.8200   44.6070 N   0  0  0  0  0  0  0  0  0  0  0  0
   57.4590   31.2700   43.3260 C   0  0  0  0  0  0  0  0  0  0  0  0
   56.2830   30.2870   43.5330 C   0  0  0  0  0  0  0  0  0  0  0  0
   56.1670   29.8310   44.8700 O   0  0  0  0  0  0  0  0  0  0  0  0
   57.4370   29.4740   45.3730 C   0  0  0  0  0  0  0  0  0  0  0  0
   58.3390   30.7180   45.5200 C   0  0  0  0  0  0  0  0  0  0  0  0
   61.3250   33.8580   46.3630 C   0  0  0  0  0  0  0  0  0  0  0  0
   62.1190   33.7870   47.5110 C   0  0  0  0  0  0  0  0  0  0  0  0
   64.1085   33.2964   50.8920 H   0  0  0  0  0  0  0  0  0  0  0  0
   63.7714   32.4631   49.3368 H   0  0  0  0  0  0  0  0  0  0  0  0
   64.3757   34.1547   49.3368 H   0  0  0  0  0  0  0  0  0  0  0  0
   59.7290   34.4119   49.8742 H   0  0  0  0  0  0  0  0  0  0  0  0
   58.3102   34.5301   47.8303 H   0  0  0  0  0  0  0  0  0  0  0  0
   57.2811   34.6238   46.3154 H   0  0  0  0  0  0  0  0  0  0  0  0
   57.1885   34.7701   44.5016 H   0  0  0  0  0  0  0  0  0  0  0  0
   56.7681   32.4028   46.2592 H   0  0  0  0  0  0  0  0  0  0  0  0
   56.0969   32.8117   44.6222 H   0  0  0  0  0  0  0  0  0  0  0  0
   57.1201   32.1006   42.6893 H   0  0  0  0  0  0  0  0  0  0  0  0
   58.2847   30.7183   42.8528 H   0  0  0  0  0  0  0  0  0  0  0  0
   55.3484   30.7959   43.2546 H   0  0  0  0  0  0  0  0  0  0  0  0
   56.4770   29.4068   42.9024 H   0  0  0  0  0  0  0  0  0  0  0  0
   57.3143   28.9994   46.3577 H   0  0  0  0  0  0  0  0  0  0  0  0
   57.9117   28.7762   44.6675 H   0  0  0  0  0  0  0  0  0  0  0  0
   58.2720   31.0802   46.5565 H   0  0  0  0  0  0  0  0  0  0  0  0
   59.3641   30.4166   45.2586 H   0  0  0  0  0  0  0  0  0  0  0  0
   61.7784   33.6936   45.3743 H   0  0  0  0  0  0  0  0  0  0  0  0
   63.1938   33.5720   47.4179 H   0  0  0  0  0  0  0  0  0  0  0  0
  1  2  1  0
  2  3  1  0
  3  4  2  0
  4  5  1  0
  5  6  2  0
  6  7  1  0
  7  8  2  0
  7  9  1  0
  9 10  1  0
 10 11  1  0
 11 12  1  0
 12 13  1  0
 13 14  1  0
 14 15  1  0
 15 16  1  0
  6 17  1  0
 17 18  2  0
 18  3  1  0
 16 11  1  0
  1 19  1  0
  1 20  1  0
  1 21  1  0
  4 22  1  0
  5 23  1  0
  9 24  1  0
  9 25  1  0
 10 26  1  0
 10 27  1  0
 12 28  1  0
 12 29  1  0
 13 30  1  0
 13 31  1  0
 15 32  1  0
 15 33  1  0
 16 34  1  0
 16 35  1  0
 17 36  1  0
 18 37  1  0
M  END
>  <UniqueID>  (6) 
6

>  <SMILES>  (6) 
COc1ccc(C(=O)CCN2CCOCC2)cc1

>  <Energy>  (6) 
51.21673133023121

>  <Genealogy>  (6) 
COc1ccc(C(=O)CCN2CCOCC2)cc1 (3D coordinates assigned)
COc1ccc(C(=O)CCN2CCOCC2)cc1 (nonaromatic ring conformer: 51.21673133023121 kcal/mol)

>  <smiles>  (6) 
COc1ccc(C(=O)CCN2CCOCC2)cc1

>  <score_type>  (6) 
oracle

>  <origin>  (6) 
adg

>  <m_score__min__energy>  (6) 
-6.5099999999999998

>  <m_primary>  (6) 
energy

$$$$
6:0
     RDKit          3D

 66 69  0  0  0  0  0  0  0  0999 V2000
   60.3820   28.0700   48.5260 C   0  0  0  0  0  0  0  0  0  0  0  0
   58.9840   28.6590   48.6830 C   0  0  0  0  0  0  0  0  0  0  0  0
   59.0130   30.1100   48.4490 N   0  0  0  0  0  0  0  0  0  0  0  0
   58.9610   30.8890   49.6980 C   0  0  0  0  0  0  0  0  0  0  0  0
   59.1640   32.3950   49.4520 C   0  0  0  0  0  0  0  0  0  0  0  0
   60.6480   32.7240   49.2600 C   0  0  0  0  0  0  0  0  0  0  0  0
   61.2560   31.8130   48.2420 C   0  0  0  0  0  0  0  0  0  0  0  0
   62.0150   30.8800   48.6160 O   0  0  0  0  0  0  0  0  0  0  0  0
   60.9730   32.0190   46.8510 N   0  0  0  0  0  0  0  0  0  0  0  0
   59.7490   32.5220   46.2980 C   0  0  0  0  0  0  0  0  0  0  0  0
   59.3960   33.8910   46.3470 C   0  0  0  0  0  0  0  0  0  0  0  0
   58.1760   34.3390   45.7980 C   0  0  0  0  0  0  0  0  0  0  0  0
   57.2980   33.4380   45.1770 C   0  0  0  0  0  0  0  0  0  0  0  0
   57.6830   32.1030   45.0910 C   0  0  0  0  0  0  0  0  0  0  0  0
   58.8770   31.6530   45.6360 C   0  0  0  0  0  0  0  0  0  0  0  0
   58.9260   30.1940   45.4750 C   0  0  0  0  0  0  0  0  0  0  0  0
   59.7840   29.4120   45.9630 O   0  0  0  0  0  0  0  0  0  0  0  0
   57.7090   29.8260   44.7520 C   0  0  0  0  0  0  0  0  0  0  0  0
   56.9700   30.9510   44.5520 C   0  0  0  0  0  0  0  0  0  0  0  0
   55.6580   30.6800   44.6500 N   0  0  0  0  0  0  0  0  0  0  0  0
   55.5400   29.3710   44.8530 N   0  0  0  0  0  0  0  0  0  0  0  0
   56.7770   28.8260   44.9540 C   0  0  0  0  0  0  0  0  0  0  0  0
   57.0330   27.4240   45.3450 C   0  0  0  0  0  0  0  0  0  0  0  0
   56.0340   26.6770   45.9900 C   0  0  0  0  0  0  0  0  0  0  0  0
   56.2630   25.3460   46.3480 C   0  0  0  0  0  0  0  0  0  0  0  0
   57.4950   24.7350   46.0710 C   0  0  0  0  0  0  0  0  0  0  0  0
   57.6890   23.3530   46.4190 N   0  0  0  0  0  0  0  0  0  0  0  0
   58.5630   22.4580   45.7140 C   0  0  0  0  0  0  0  0  0  0  0  0
   59.3980   22.8980   44.8780 O   0  0  0  0  0  0  0  0  0  0  0  0
   58.5350   20.9880   46.0190 C   0  0  0  0  0  0  0  0  0  0  0  0
   57.3110   20.2900   45.3930 C   0  0  0  0  0  0  0  0  0  0  0  0
   57.0270   20.7370   44.0170 N   0  0  0  0  0  0  0  0  0  0  0  0
   56.0840   21.8640   43.9630 C   0  0  0  0  0  0  0  0  0  0  0  0
   56.6040   22.9420   43.0190 C   0  0  0  0  0  0  0  0  0  0  0  0
   58.4840   25.4710   45.3950 C   0  0  0  0  0  0  0  0  0  0  0  0
   58.2560   26.8030   45.0400 C   0  0  0  0  0  0  0  0  0  0  0  0
   60.8165   27.8869   49.5198 H   0  0  0  0  0  0  0  0  0  0  0  0
   60.3202   27.1214   47.9725 H   0  0  0  0  0  0  0  0  0  0  0  0
   61.0176   28.7768   47.9725 H   0  0  0  0  0  0  0  0  0  0  0  0
   58.3076   28.1874   47.9550 H   0  0  0  0  0  0  0  0  0  0  0  0
   58.6280   28.4684   49.7062 H   0  0  0  0  0  0  0  0  0  0  0  0
   59.8810   30.3550   47.9170 H   0  0  0  0  0  0  0  0  0  0  0  0
   57.9794   30.7362   50.1703 H   0  0  0  0  0  0  0  0  0  0  0  0
   59.7765   30.5398   50.3484 H   0  0  0  0  0  0  0  0  0  0  0  0
   58.6102   32.6899   48.5485 H   0  0  0  0  0  0  0  0  0  0  0  0
   58.7929   32.9467   50.3283 H   0  0  0  0  0  0  0  0  0  0  0  0
   60.7474   33.7654   48.9199 H   0  0  0  0  0  0  0  0  0  0  0  0
   61.1707   32.5880   50.2183 H   0  0  0  0  0  0  0  0  0  0  0  0
   60.0793   34.6132   46.8177 H   0  0  0  0  0  0  0  0  0  0  0  0
   57.9107   35.4049   45.8574 H   0  0  0  0  0  0  0  0  0  0  0  0
   56.3337   33.7765   44.7700 H   0  0  0  0  0  0  0  0  0  0  0  0
   55.0636   27.1434   46.2152 H   0  0  0  0  0  0  0  0  0  0  0  0
   55.4707   24.7725   46.8512 H   0  0  0  0  0  0  0  0  0  0  0  0
   57.2300   23.0000   47.2890 H   0  0  0  0  0  0  0  0  0  0  0  0
   59.4498   20.5253   45.6202 H   0  0  0  0  0  0  0  0  0  0  0  0
   58.4716   20.8693   47.1107 H   0  0  0  0  0  0  0  0  0  0  0  0
   57.4973   19.2060   45.3768 H   0  0  0  0  0  0  0  0  0  0  0  0
   56.4368   20.5504   46.0078 H   0  0  0  0  0  0  0  0  0  0  0  0
   56.6510   19.9420   43.4490 H   0  0  0  0  0  0  0  0  0  0  0  0
   55.1090   21.5047   43.6021 H   0  0  0  0  0  0  0  0  0  0  0  0
   55.9777   22.2911   44.9711 H   0  0  0  0  0  0  0  0  0  0  0  0
   57.0081   23.7798   43.6062 H   0  0  0  0  0  0  0  0  0  0  0  0
   57.3985   22.5219   42.3848 H   0  0  0  0  0  0  0  0  0  0  0  0
   55.7806   23.3023   42.3848 H   0  0  0  0  0  0  0  0  0  0  0  0
   59.4434   24.9951   45.1440 H   0  0  0  0  0  0  0  0  0  0  0  0
   59.0404   27.3702   44.5174 H   0  0  0  0  0  0  0  0  0  0  0  0
  1  2  1  0
  2  3  1  0
  3  4  1  0
  4  5  1  0
  5  6  1  0
  6  7  1  0
  7  8  2  0
  7  9  1  0
  9 10  1  0
 10 11  2  0
 11 12  1  0
 12 13  2  0
 13 14  1  0
 14 15  2  0
 15 16  1  0
 16 17  2  0
 16 18  1  0
 18 19  1  0
 19 20  2  0
 20 21  1  0
 21 22  1  0
 22 23  1  0
 23 24  2  0
 24 25  1  0
 25 26  2  0
 26 27  1  0
 27 28  1  0
 28 29  2  0
 28 30  1  0
 30 31  1  0
 31 32  1  0
 32 33  1  0
 33 34  1  0
 26 35  1  0
 35 36  2  0
 15 10  1  0
 22 18  2  0
 36 23  1  0
 19 14  1  0
  1 37  1  0
  1 38  1  0
  1 39  1  0
  2 40  1  0
  2 41  1  0
  3 42  1  0
  4 43  1  0
  4 44  1  0
  5 45  1  0
  5 46  1  0
  6 47  1  0
  6 48  1  0
 11 49  1  0
 12 50  1  0
 13 51  1  0
 24 52  1  0
 25 53  1  0
 27 54  1  0
 30 55  1  0
 30 56  1  0
 31 57  1  0
 31 58  1  0
 32 59  1  0
 33 60  1  0
 33 61  1  0
 34 62  1  0
 34 63  1  0
 34 64  1  0
 35 65  1  0
 36 66  1  0
M  CHG  2   9  -1  21  -1
M  END
>  <UniqueID>  (7) 
7

>  <SMILES>  (7) 
CCNCCCC(=O)[N-]c1cccc2c1C(=O)c1c-2n[n-]c1-c1ccc(NC(=O)CCNCC)cc1

>  <Energy>  (7) 
152.54850493634063

>  <Genealogy>  (7) 
CCNCCCC(=O)[N-]c1cccc2c1C(=O)c1c-2n[n-]c1-c1ccc(NC(=O)CCNCC)cc1 (protonated)
CCNCCCC(=O)[N-]c1cccc2c1C(=O)c1c-2n[n-]c1-c1ccc(NC(=O)CCNCC)cc1 (3D coordinates assigned)
CCNCCCC(=O)[N-]c1cccc2c1C(=O)c1c-2n[n-]c1-c1ccc(NC(=O)CCNCC)cc1 (nonaromatic ring conformer: 152.54850493634063 kcal/mol)

>  <smiles>  (7) 
CCNCCCC(=O)Nc1cccc2c1C(=O)c1c-2n[nH]c1-c1ccc(NC(=O)CCNCC)cc1

>  <score_type>  (7) 
oracle

>  <origin>  (7) 
adg

>  <m_score__min__energy>  (7) 
-11.279999999999999

>  <m_primary>  (7) 
energy

$$$$
7:0
     RDKit          3D

 44 46  0  0  0  0  0  0  0  0999 V2000
   59.6980   34.4370   47.1270 C   0  0  0  0  0  0  0  0  0  0  0  0
   60.0550   34.0440   45.8210 O   0  0  0  0  0  0  0  0  0  0  0  0
   59.1630   34.6040   44.8740 C   0  0  0  0  0  0  0  0  0  0  0  0
   58.3660   33.4960   44.1830 C   0  0  0  0  0  0  0  0  0  0  0  0
   58.5940   32.2120   44.8450 N   0  0  0  0  0  0  0  0  0  0  0  0
   57.5420   31.2540   45.0510 C   0  0  0  0  0  0  0  0  0  0  0  0
   56.4010   31.4670   44.5580 O   0  0  0  0  0  0  0  0  0  0  0  0
   57.7760   30.0110   45.8230 C   0  0  0  0  0  0  0  0  0  0  0  0
   58.7650   29.9830   46.8240 C   0  0  0  0  0  0  0  0  0  0  0  0
   58.9930   28.8200   47.5640 C   0  0  0  0  0  0  0  0  0  0  0  0
   58.2530   27.6660   47.3020 C   0  0  0  0  0  0  0  0  0  0  0  0
   57.2940   27.6620   46.2830 C   0  0  0  0  0  0  0  0  0  0  0  0
   56.5110   26.4450   46.0210 C   0  0  0  0  0  0  0  0  0  0  0  0
   55.1560   26.4430   45.9960 N   0  0  0  0  0  0  0  0  0  0  0  0
   54.7260   25.2400   45.6290 N   0  0  0  0  0  0  0  0  0  0  0  0
   55.8130   24.4780   45.4190 C   0  0  0  0  0  0  0  0  0  0  0  0
   55.8690   23.1550   45.0230 C   0  0  0  0  0  0  0  0  0  0  0  0
   54.8040   22.5120   44.8130 O   0  0  0  0  0  0  0  0  0  0  0  0
   57.1040   22.5730   44.8630 N   0  0  0  0  0  0  0  0  0  0  0  0
   57.2010   21.1660   44.4420 C   0  0  0  0  0  0  0  0  0  0  0  0
   58.2540   23.2820   45.1740 C   0  0  0  0  0  0  0  0  0  0  0  0
   59.3800   22.7180   45.0640 O   0  0  0  0  0  0  0  0  0  0  0  0
   58.1850   24.5910   45.6080 N   0  0  0  0  0  0  0  0  0  0  0  0
   59.4040   25.3100   46.0100 C   0  0  0  0  0  0  0  0  0  0  0  0
   56.9500   25.1760   45.6610 C   0  0  0  0  0  0  0  0  0  0  0  0
   57.0420   28.8390   45.5610 C   0  0  0  0  0  0  0  0  0  0  0  0
   60.2511   33.8281   47.8572 H   0  0  0  0  0  0  0  0  0  0  0  0
   59.9470   35.4987   47.2714 H   0  0  0  0  0  0  0  0  0  0  0  0
   58.6174   34.2909   47.2714 H   0  0  0  0  0  0  0  0  0  0  0  0
   58.4687   35.2858   45.3870 H   0  0  0  0  0  0  0  0  0  0  0  0
   59.7406   35.1567   44.1184 H   0  0  0  0  0  0  0  0  0  0  0  0
   57.2943   33.7402   44.2260 H   0  0  0  0  0  0  0  0  0  0  0  0
   58.6959   33.4202   43.1364 H   0  0  0  0  0  0  0  0  0  0  0  0
   59.5680   31.9930   45.1480 H   0  0  0  0  0  0  0  0  0  0  0  0
   59.3632   30.8839   47.0253 H   0  0  0  0  0  0  0  0  0  0  0  0
   59.7575   28.8139   48.3549 H   0  0  0  0  0  0  0  0  0  0  0  0
   58.4241   26.7574   47.8980 H   0  0  0  0  0  0  0  0  0  0  0  0
   57.2456   20.5195   45.3309 H   0  0  0  0  0  0  0  0  0  0  0  0
   56.3189   20.9017   43.8402 H   0  0  0  0  0  0  0  0  0  0  0  0
   58.1110   21.0252   43.8402 H   0  0  0  0  0  0  0  0  0  0  0  0
   59.4637   25.3452   47.1078 H   0  0  0  0  0  0  0  0  0  0  0  0
   60.2861   24.7876   45.6114 H   0  0  0  0  0  0  0  0  0  0  0  0
   59.3736   26.3348   45.6114 H   0  0  0  0  0  0  0  0  0  0  0  0
   56.2639   28.8455   44.7835 H   0  0  0  0  0  0  0  0  0  0  0  0
  1  2  1  0
  2  3  1  0
  3  4  1  0
  4  5  1  0
  5  6  1  0
  6  7  2  0
  6  8  1  0
  8  9  2  0
  9 10  1  0
 10 11  2  0
 11 12  1  0
 12 13  1  0
 13 14  1  0
 14 15  1  0
 15 16  2  0
 16 17  1  0
 17 18  2  0
 17 19  1  0
 19 20  1  0
 19 21  1  0
 21 22  2  0
 21 23  1  0
 23 24  1  0
 23 25  1  0
 12 26  2  0
 26  8  1  0
 25 13  2  0
 25 16  1  0
  1 27  1  0
  1 28  1  0
  1 29  1  0
  3 30  1  0
  3 31  1  0
  4 32  1  0
  4 33  1  0
  5 34  1  0
  9 35  1  0
 10 36  1  0
 11 37  1  0
 20 38  1  0
 20 39  1  0
 20 40  1  0
 24 41  1  0
 24 42  1  0
 24 43  1  0
 26 44  1  0
M  CHG  1  14  -1
M  END
>  <UniqueID>  (8) 
8

>  <SMILES>  (8) 
COCCNC(=O)c1cccc(-c2[n-]nc3c(=O)n(C)c(=O)n(C)c23)c1

>  <Energy>  (8) 
101.9810537465077

>  <Genealogy>  (8) 
COCCNC(=O)c1cccc(-c2[n-]nc3c(=O)n(C)c(=O)n(C)c23)c1 (protonated)
COCCNC(=O)c1cccc(-c2[n-]nc3c(=O)n(C)c(=O)n(C)c23)c1 (3D coordinates assigned)
COCCNC(=O)c1cccc(-c2[n-]nc3c(=O)n(C)c(=O)n(C)c23)c1 (optimized conformer: 101.9810537465077 kcal/mol)

>  <smiles>  (8) 
COCCNC(=O)c1cccc(-c2[nH]nc3c(=O)n(C)c(=O)n(C)c23)c1

>  <score_type>  (8) 
oracle

>  <origin>  (8) 
adg

>  <m_score__min__energy>  (8) 
-10.27

>  <m_primary>  (8) 
energy

$$$$
8:0
     RDKit          3D

 41 42  0  0  0  0  0  0  0  0999 V2000
   60.0808   30.1348   45.5659 H   0  0  0  0  0  0  0  0  0  0  0  0
   59.3240   29.3420   45.6590 C   0  0  0  0  0  0  0  0  0  0  0  0
   59.4210   27.9930   46.6590 S   0  0  0  0  0  0  0  0  0  0  0  0
   57.9230   27.3820   46.1760 C   0  0  0  0  0  0  0  0  0  0  0  0
   57.3610   26.2760   46.5750 N   0  0  0  0  0  0  0  0  0  0  0  0
   56.0130   25.8360   46.3520 C   0  0  0  0  0  0  0  0  0  0  0  0
   55.1520   26.6840   45.9990 O   0  0  0  0  0  0  0  0  0  0  0  0
   55.6320   24.4690   46.5420 N   0  0  0  0  0  0  0  0  0  0  0  0
   55.5760   23.4730   45.4740 C   0  0  0  0  0  0  0  0  0  0  0  0
   54.5702   23.4844   45.0288 H   0  0  0  0  0  0  0  0  0  0  0  0
   55.8035   22.4895   45.9110 H   0  0  0  0  0  0  0  0  0  0  0  0
   56.6140   23.7590   44.3700 C   0  0  0  0  0  0  0  0  0  0  0  0
   56.5880   24.8436   44.1886 H   0  0  0  0  0  0  0  0  0  0  0  0
   56.2530   23.0460   43.0600 C   0  0  0  0  0  0  0  0  0  0  0  0
   55.7668   22.0858   43.2871 H   0  0  0  0  0  0  0  0  0  0  0  0
   55.5654   23.6763   42.4769 H   0  0  0  0  0  0  0  0  0  0  0  0
   57.1680   22.8649   42.4769 H   0  0  0  0  0  0  0  0  0  0  0  0
   58.0400   23.4010   44.8080 C   0  0  0  0  0  0  0  0  0  0  0  0
   58.0936   23.3875   45.9066 H   0  0  0  0  0  0  0  0  0  0  0  0
   58.3057   22.4083   44.4157 H   0  0  0  0  0  0  0  0  0  0  0  0
   58.7431   24.1505   44.4157 H   0  0  0  0  0  0  0  0  0  0  0  0
   57.3500   28.1870   45.2580 N   0  0  0  0  0  0  0  0  0  0  0  0
   56.4320   27.9840   44.8010 H   0  0  0  0  0  0  0  0  0  0  0  0
   58.1140   29.2770   44.9690 C   0  0  0  0  0  0  0  0  0  0  0  0
   57.7250   30.2660   43.9080 C   0  0  0  0  0  0  0  0  0  0  0  0
   58.6374   30.6950   43.4681 H   0  0  0  0  0  0  0  0  0  0  0  0
   57.1323   29.7383   43.1463 H   0  0  0  0  0  0  0  0  0  0  0  0
   56.8670   31.4020   44.4820 C   0  0  0  0  0  0  0  0  0  0  0  0
   56.2703   31.8433   43.6701 H   0  0  0  0  0  0  0  0  0  0  0  0
   56.2180   30.9803   45.2637 H   0  0  0  0  0  0  0  0  0  0  0  0
   57.7160   32.4810   45.1070 C   0  0  0  0  0  0  0  0  0  0  0  0
   57.8440   32.5630   46.5030 C   0  0  0  0  0  0  0  0  0  0  0  0
   57.3578   31.8116   47.1425 H   0  0  0  0  0  0  0  0  0  0  0  0
   58.5870   33.5960   47.0840 C   0  0  0  0  0  0  0  0  0  0  0  0
   58.6887   33.6518   48.1779 H   0  0  0  0  0  0  0  0  0  0  0  0
   59.2000   34.5570   46.2760 C   0  0  0  0  0  0  0  0  0  0  0  0
   59.7851   35.3682   46.7339 H   0  0  0  0  0  0  0  0  0  0  0  0
   59.0700   34.4880   44.8860 C   0  0  0  0  0  0  0  0  0  0  0  0
   59.5506   35.2468   44.2510 H   0  0  0  0  0  0  0  0  0  0  0  0
   58.3300   33.4560   44.3020 C   0  0  0  0  0  0  0  0  0  0  0  0
   58.2277   33.4067   43.2079 H   0  0  0  0  0  0  0  0  0  0  0  0
  1  2  1  0
  2  3  1  0
  3  4  1  0
  4  5  2  0
  5  6  1  0
  6  7  2  0
  6  8  1  0
  8  9  1  0
  9 10  1  0
  9 11  1  0
  9 12  1  0
 12 13  1  0
 12 14  1  0
 14 15  1  0
 14 16  1  0
 14 17  1  0
 12 18  1  0
 18 19  1  0
 18 20  1  0
 18 21  1  0
  4 22  1  0
 22 23  1  0
 22 24  1  0
 24 25  1  0
 25 26  1  0
 25 27  1  0
 25 28  1  0
 28 29  1  0
 28 30  1  0
 28 31  1  0
 31 32  2  0
 32 33  1  0
 32 34  1  0
 34 35  1  0
 34 36  2  0
 36 37  1  0
 36 38  1  0
 38 39  1  0
 38 40  2  0
 40 41  1  0
 24  2  2  0
 40 31  1  0
M  CHG  1   8  -1
M  END
>  <UniqueID>  (9) 
9

>  <SMILES>  (9) 
CC(C)C[N-]C(=O)/N=c1/[nH]c(CCc2ccccc2)cs1

>  <Energy>  (9) 
62.71283208544796

>  <Genealogy>  (9) 
CC(C)C[N-]C(=O)N=c1[nH]c(CCc2ccccc2)cs1 (protonated)
CC(C)C[N-]C(=O)/N=c1/[nH]c(CCc2ccccc2)cs1 (cis-trans isomerization)
CC(C)C[N-]C(=O)/N=c1/[nH]c(CCc2ccccc2)cs1 (3D coordinates assigned)
CC(C)C[N-]C(=O)/N=c1/[nH]c(CCc2ccccc2)cs1 (optimized conformer: 62.71283208544796 kcal/mol)

>  <smiles>  (9) 
CC(C)CNC(=O)N=c1[nH]c(CCc2ccccc2)cs1

>  <score_type>  (9) 
oracle

>  <origin>  (9) 
adg

>  <m_score__min__energy>  (9) 
-9.1899999999999995

>  <m_primary>  (9) 
energy

$$$$
9:0
     RDKit          3D

 35 35  0  0  0  0  0  0  0  0999 V2000
   57.7340   25.5540   44.4170 C   0  0  0  0  0  0  0  0  0  0  0  0
   57.9310   26.8740   43.7890 N   0  0  0  0  0  0  0  0  0  0  0  0
   58.1320   26.7060   42.3380 C   0  0  0  0  0  0  0  0  0  0  0  0
   59.0740   27.5660   44.4320 C   0  0  0  0  0  0  0  0  0  0  0  0
   58.6510   28.4940   45.5850 C   0  0  0  0  0  0  0  0  0  0  0  0
   57.1930   28.5790   45.6560 N   0  0  0  0  0  0  0  0  0  0  0  0
   56.6120   29.7570   44.5190 S   0  0  0  0  0  0  0  0  0  0  0  0
   56.8580   29.2590   43.1240 O   0  0  0  0  0  0  0  0  0  0  0  0
   55.1330   29.9440   44.7130 O   0  0  0  0  0  0  0  0  0  0  0  0
   57.4620   31.2910   44.7370 C   0  0  0  0  0  0  0  0  0  0  0  0
   57.8490   31.7000   46.0220 C   0  0  0  0  0  0  0  0  0  0  0  0
   58.5270   32.9070   46.2030 C   0  0  0  0  0  0  0  0  0  0  0  0
   58.8260   33.7130   45.1040 C   0  0  0  0  0  0  0  0  0  0  0  0
   58.4450   33.3160   43.8200 C   0  0  0  0  0  0  0  0  0  0  0  0
   57.7580   32.1010   43.6230 C   0  0  0  0  0  0  0  0  0  0  0  0
   57.3610   31.6690   42.3460 O   0  0  0  0  0  0  0  0  0  0  0  0
   57.7240   32.3000   41.1220 C   0  0  0  0  0  0  0  0  0  0  0  0
   56.6840   33.1110   40.7080 F   0  0  0  0  0  0  0  0  0  0  0  0
   58.8530   33.0770   41.3080 F   0  0  0  0  0  0  0  0  0  0  0  0
   57.7502   25.6626   45.5115 H   0  0  0  0  0  0  0  0  0  0  0  0
   56.7641   25.1401   44.1039 H   0  0  0  0  0  0  0  0  0  0  0  0
   58.5407   24.8749   44.1039 H   0  0  0  0  0  0  0  0  0  0  0  0
   57.0570   27.4310   43.9440 H   0  0  0  0  0  0  0  0  0  0  0  0
   58.9651   26.0097   42.1614 H   0  0  0  0  0  0  0  0  0  0  0  0
   57.2145   26.3024   41.8850 H   0  0  0  0  0  0  0  0  0  0  0  0
   58.3664   27.6806   41.8850 H   0  0  0  0  0  0  0  0  0  0  0  0
   59.7635   26.8067   44.8295 H   0  0  0  0  0  0  0  0  0  0  0  0
   59.5491   28.1945   43.6643 H   0  0  0  0  0  0  0  0  0  0  0  0
   59.0383   28.0943   46.5338 H   0  0  0  0  0  0  0  0  0  0  0  0
   59.0608   29.4989   45.4056 H   0  0  0  0  0  0  0  0  0  0  0  0
   57.6172   31.0667   46.8910 H   0  0  0  0  0  0  0  0  0  0  0  0
   58.8259   33.2230   47.2134 H   0  0  0  0  0  0  0  0  0  0  0  0
   59.3625   34.6623   45.2489 H   0  0  0  0  0  0  0  0  0  0  0  0
   58.6826   33.9556   42.9572 H   0  0  0  0  0  0  0  0  0  0  0  0
   57.9324   31.5303   40.3643 H   0  0  0  0  0  0  0  0  0  0  0  0
  1  2  1  0
  2  3  1  0
  2  4  1  0
  4  5  1  0
  5  6  1  0
  6  7  1  0
  7  8  2  0
  7  9  2  0
  7 10  1  0
 10 11  2  0
 11 12  1  0
 12 13  2  0
 13 14  1  0
 14 15  2  0
 15 16  1  0
 16 17  1  0
 17 18  1  0
 17 19  1  0
 15 10  1  0
  1 20  1  0
  1 21  1  0
  1 22  1  0
  2 23  1  0
  3 24  1  0
  3 25  1  0
  3 26  1  0
  4 27  1  0
  4 28  1  0
  5 29  1  0
  5 30  1  0
 11 31  1  0
 12 32  1  0
 13 33  1  0
 14 34  1  0
 17 35  1  0
M  CHG  2   2   1   6  -1
M  END
>  <UniqueID>  (10) 
10

>  <SMILES>  (10) 
C[NH+](C)CC[N-]S(=O)(=O)c1ccccc1OC(F)F

>  <Energy>  (10) 
31.40872160234185

>  <Genealogy>  (10) 
C[NH+](C)CC[N-]S(=O)(=O)c1ccccc1OC(F)F (protonated)
C[NH+](C)CC[N-]S(=O)(=O)c1ccccc1OC(F)F (3D coordinates assigned)
C[NH+](C)CC[N-]S(=O)(=O)c1ccccc1OC(F)F (optimized conformer: 31.40872160234185 kcal/mol)

>  <smiles>  (10) 
CN(C)CCNS(=O)(=O)c1ccccc1OC(F)F

>  <score_type>  (10) 
oracle

>  <origin>  (10) 
adg

>  <m_score__min__energy>  (10) 
-5.3600000000000003

>  <m_primary>  (10) 
energy

$$$$
10:0
     RDKit          3D

 60 63  0  0  0  0  0  0  0  0999 V2000
   57.2190   33.6230   46.2380 C   0  0  0  0  0  0  0  0  0  0  0  0
   57.4970   32.8820   44.9350 C   0  0  0  0  0  0  0  0  0  0  0  0
   56.9580   31.5770   44.9940 O   0  0  0  0  0  0  0  0  0  0  0  0
   56.8260   31.0320   43.6980 C   0  0  0  0  0  0  0  0  0  0  0  0
   56.1440   29.6610   43.8000 C   0  0  0  0  0  0  0  0  0  0  0  0
   55.9410   29.2460   45.2010 N   0  0  0  0  0  0  0  0  0  0  0  0
   57.1000   28.5560   45.7170 C   0  0  0  0  0  0  0  0  0  0  0  0
   57.3400   27.2110   45.3880 C   0  0  0  0  0  0  0  0  0  0  0  0
   58.4610   26.5490   45.8960 C   0  0  0  0  0  0  0  0  0  0  0  0
   59.3570   27.2210   46.7320 C   0  0  0  0  0  0  0  0  0  0  0  0
   60.4360   26.5600   47.2220 F   0  0  0  0  0  0  0  0  0  0  0  0
   59.1330   28.5670   47.0640 C   0  0  0  0  0  0  0  0  0  0  0  0
   60.0730   29.2960   47.9440 C   0  0  0  0  0  0  0  0  0  0  0  0
   60.5320   28.6560   49.1050 C   0  0  0  0  0  0  0  0  0  0  0  0
   61.4070   29.3180   49.9630 C   0  0  0  0  0  0  0  0  0  0  0  0
   61.8140   30.5820   49.6820 N   0  0  0  0  0  0  0  0  0  0  0  0
   61.3970   31.2470   48.5700 C   0  0  0  0  0  0  0  0  0  0  0  0
   61.8340   32.5650   48.3320 C   0  0  0  0  0  0  0  0  0  0  0  0
   62.7460   33.2110   49.2380 N   0  0  0  0  0  0  0  0  0  0  0  0
   62.2610   33.7250   50.5210 C   0  0  0  0  0  0  0  0  0  0  0  0
   63.4360   34.1380   51.4210 C   0  0  0  0  0  0  0  0  0  0  0  0
   64.5570   33.1800   51.3330 N   0  0  0  0  0  0  0  0  0  0  0  0
   64.2170   31.8810   51.9390 C   0  0  0  0  0  0  0  0  0  0  0  0
   65.1010   33.0230   49.9570 C   0  0  0  0  0  0  0  0  0  0  0  0
   64.1330   33.4650   48.8430 C   0  0  0  0  0  0  0  0  0  0  0  0
   61.3600   33.2580   47.2090 C   0  0  0  0  0  0  0  0  0  0  0  0
   60.4690   32.6480   46.3270 C   0  0  0  0  0  0  0  0  0  0  0  0
   60.0370   31.3410   46.5500 C   0  0  0  0  0  0  0  0  0  0  0  0
   60.4990   30.6180   47.6690 C   0  0  0  0  0  0  0  0  0  0  0  0
   58.0000   29.2240   46.5660 C   0  0  0  0  0  0  0  0  0  0  0  0
   57.4635   32.9713   47.0898 H   0  0  0  0  0  0  0  0  0  0  0  0
   57.8374   34.5317   46.2822 H   0  0  0  0  0  0  0  0  0  0  0  0
   56.1555   33.9007   46.2822 H   0  0  0  0  0  0  0  0  0  0  0  0
   57.0352   33.4289   44.0998 H   0  0  0  0  0  0  0  0  0  0  0  0
   58.5845   32.8159   44.7834 H   0  0  0  0  0  0  0  0  0  0  0  0
   56.2147   31.7027   43.0763 H   0  0  0  0  0  0  0  0  0  0  0  0
   57.8193   30.9199   43.2389 H   0  0  0  0  0  0  0  0  0  0  0  0
   55.1656   29.7133   43.3001 H   0  0  0  0  0  0  0  0  0  0  0  0
   56.7987   28.9199   43.3183 H   0  0  0  0  0  0  0  0  0  0  0  0
   55.7050   30.0710   45.8010 H   0  0  0  0  0  0  0  0  0  0  0  0
   55.1190   28.5980   45.2420 H   0  0  0  0  0  0  0  0  0  0  0  0
   56.6418   26.6765   44.7271 H   0  0  0  0  0  0  0  0  0  0  0  0
   58.6389   25.4949   45.6369 H   0  0  0  0  0  0  0  0  0  0  0  0
   60.2014   27.6329   49.3374 H   0  0  0  0  0  0  0  0  0  0  0  0
   61.7694   28.8147   50.8715 H   0  0  0  0  0  0  0  0  0  0  0  0
   61.6200   34.6004   50.3400 H   0  0  0  0  0  0  0  0  0  0  0  0
   61.6908   32.9317   51.0265 H   0  0  0  0  0  0  0  0  0  0  0  0
   63.7912   35.1314   51.1095 H   0  0  0  0  0  0  0  0  0  0  0  0
   63.0805   34.1539   52.4619 H   0  0  0  0  0  0  0  0  0  0  0  0
   64.2404   31.9704   53.0351 H   0  0  0  0  0  0  0  0  0  0  0  0
   63.2095   31.5787   51.6172 H   0  0  0  0  0  0  0  0  0  0  0  0
   64.9472   31.1239   51.6172 H   0  0  0  0  0  0  0  0  0  0  0  0
   66.0177   33.6258   49.8772 H   0  0  0  0  0  0  0  0  0  0  0  0
   65.2845   31.9485   49.8095 H   0  0  0  0  0  0  0  0  0  0  0  0
   64.2646   34.5408   48.6549 H   0  0  0  0  0  0  0  0  0  0  0  0
   64.3540   32.8907   47.9312 H   0  0  0  0  0  0  0  0  0  0  0  0
   61.6933   34.2896   47.0227 H   0  0  0  0  0  0  0  0  0  0  0  0
   60.1043   33.2015   45.4492 H   0  0  0  0  0  0  0  0  0  0  0  0
   59.3316   30.8712   45.8488 H   0  0  0  0  0  0  0  0  0  0  0  0
   57.8129   30.2723   46.8419 H   0  0  0  0  0  0  0  0  0  0  0  0
  1  2  1  0
  2  3  1  0
  3  4  1  0
  4  5  1  0
  5  6  1  0
  6  7  1  0
  7  8  2  0
  8  9  1  0
  9 10  2  0
 10 11  1  0
 10 12  1  0
 12 13  1  0
 13 14  2  0
 14 15  1  0
 15 16  2  0
 16 17  1  0
 17 18  2  0
 18 19  1  0
 19 20  1  0
 20 21  1  0
 21 22  1  0
 22 23  1  0
 22 24  1  0
 24 25  1  0
 18 26  1  0
 26 27  2  0
 27 28  1  0
 28 29  2  0
 12 30  2  0
 30  7  1  0
 29 13  1  0
 29 17  1  0
 25 19  1  0
  1 31  1  0
  1 32  1  0
  1 33  1  0
  2 34  1  0
  2 35  1  0
  4 36  1  0
  4 37  1  0
  5 38  1  0
  5 39  1  0
  6 40  1  0
  6 41  1  0
  8 42  1  0
  9 43  1  0
 14 44  1  0
 15 45  1  0
 20 46  1  0
 20 47  1  0
 21 48  1  0
 21 49  1  0
 23 50  1  0
 23 51  1  0
 23 52  1  0
 24 53  1  0
 24 54  1  0
 25 55  1  0
 25 56  1  0
 26 57  1  0
 27 58  1  0
 28 59  1  0
 30 60  1  0
M  CHG  1   6   1
M  END
>  <UniqueID>  (11) 
11

>  <SMILES>  (11) 
CCOCC[NH2+]c1ccc(F)c(-c2ccnc3c(N4CCN(C)CC4)cccc23)c1

>  <Energy>  (11) 
86.43520267775429

>  <Genealogy>  (11) 
CCOCC[NH2+]c1ccc(F)c(-c2ccnc3c(N4CCN(C)CC4)cccc23)c1 (protonated)
CCOCC[NH2+]c1ccc(F)c(-c2ccnc3c(N4CCN(C)CC4)cccc23)c1 (3D coordinates assigned)
CCOCC[NH2+]c1ccc(F)c(-c2ccnc3c(N4CCN(C)CC4)cccc23)c1 (nonaromatic ring conformer: 86.43520267775429 kcal/mol)

>  <smiles>  (11) 
CCOCCNc1ccc(F)c(-c2ccnc3c(N4CCN(C)CC4)cccc23)c1

>  <score_type>  (11) 
oracle

>  <origin>  (11) 
adg

>  <m_score__min__energy>  (11) 
-6.9100000000000001

>  <m_primary>  (11) 
energy

$$$$
11:0
     RDKit          3D

 49 51  0  0  0  0  0  0  0  0999 V2000
   60.0086   26.4517   48.1039 H   0  0  0  0  0  0  0  0  0  0  0  0
   59.8360   27.5110   47.8630 C   0  0  0  0  0  0  0  0  0  0  0  0
   59.2600   27.8730   46.6590 C   0  0  0  0  0  0  0  0  0  0  0  0
   58.9425   27.1001   45.9436 H   0  0  0  0  0  0  0  0  0  0  0  0
   59.0840   29.2200   46.3570 C   0  0  0  0  0  0  0  0  0  0  0  0
   58.4630   29.5460   45.1980 N   0  0  0  0  0  0  0  0  0  0  0  0
   58.2560   30.8360   44.8640 C   0  0  0  0  0  0  0  0  0  0  0  0
   57.5710   31.1770   43.6380 N   0  0  0  0  0  0  0  0  0  0  0  0
   56.6560   30.2110   43.0100 C   0  0  0  0  0  0  0  0  0  0  0  0
   57.2287   29.3291   42.6869 H   0  0  0  0  0  0  0  0  0  0  0  0
   56.1740   30.6917   42.1459 H   0  0  0  0  0  0  0  0  0  0  0  0
   55.5750   29.7730   43.9920 C   0  0  0  0  0  0  0  0  0  0  0  0
   55.9341   29.9185   45.0215 H   0  0  0  0  0  0  0  0  0  0  0  0
   54.6682   30.3747   43.8315 H   0  0  0  0  0  0  0  0  0  0  0  0
   55.3428   28.7098   43.8315 H   0  0  0  0  0  0  0  0  0  0  0  0
   57.8450   32.4620   42.9730 C   0  0  0  0  0  0  0  0  0  0  0  0
   57.1131   33.2086   43.3148 H   0  0  0  0  0  0  0  0  0  0  0  0
   58.8655   32.7823   43.2297 H   0  0  0  0  0  0  0  0  0  0  0  0
   57.7430   32.3180   41.4570 C   0  0  0  0  0  0  0  0  0  0  0  0
   57.1231   31.4428   41.2127 H   0  0  0  0  0  0  0  0  0  0  0  0
   57.2833   33.2229   41.0328 H   0  0  0  0  0  0  0  0  0  0  0  0
   58.7491   32.1846   41.0328 H   0  0  0  0  0  0  0  0  0  0  0  0
   58.7130   31.8050   45.6890 N   0  0  0  0  0  0  0  0  0  0  0  0
   59.3620   31.5270   46.8490 C   0  0  0  0  0  0  0  0  0  0  0  0
   59.8560   32.5730   47.4700 N   0  0  0  0  0  0  0  0  0  0  0  0
   61.1490   33.2340   47.6880 C   0  0  0  0  0  0  0  0  0  0  0  0
   60.9873   34.1434   48.2853 H   0  0  0  0  0  0  0  0  0  0  0  0
   61.7470   33.8330   46.3870 C   0  0  0  0  0  0  0  0  0  0  0  0
   61.3949   33.2364   45.5325 H   0  0  0  0  0  0  0  0  0  0  0  0
   61.4133   34.8792   46.3233 H   0  0  0  0  0  0  0  0  0  0  0  0
   63.2820   33.8400   46.3790 C   0  0  0  0  0  0  0  0  0  0  0  0
   63.6409   32.9327   45.8711 H   0  0  0  0  0  0  0  0  0  0  0  0
   63.6201   34.7440   45.8513 H   0  0  0  0  0  0  0  0  0  0  0  0
   63.8070   33.8700   47.6910 O   0  0  0  0  0  0  0  0  0  0  0  0
   63.5750   32.6230   48.3110 C   0  0  0  0  0  0  0  0  0  0  0  0
   63.9265   31.8222   47.6438 H   0  0  0  0  0  0  0  0  0  0  0  0
   64.1206   32.6079   49.2660 H   0  0  0  0  0  0  0  0  0  0  0  0
   62.0820   32.4050   48.6080 C   0  0  0  0  0  0  0  0  0  0  0  0
   61.8504   31.3384   48.4711 H   0  0  0  0  0  0  0  0  0  0  0  0
   61.9022   32.7375   49.6410 H   0  0  0  0  0  0  0  0  0  0  0  0
   59.5110   30.1980   47.2340 N   0  0  0  0  0  0  0  0  0  0  0  0
   60.0020   29.8170   48.4270 N   0  0  0  0  0  0  0  0  0  0  0  0
   60.2250   30.4910   49.1690 H   0  0  0  0  0  0  0  0  0  0  0  0
   60.1950   28.5120   48.7680 C   0  0  0  0  0  0  0  0  0  0  0  0
   60.7430   28.2180   50.0270 O   0  0  0  0  0  0  0  0  0  0  0  0
   61.0880   26.9100   50.4710 C   0  0  0  0  0  0  0  0  0  0  0  0
   61.0944   26.8859   51.5707 H   0  0  0  0  0  0  0  0  0  0  0  0
   60.3497   26.1877   50.0927 H   0  0  0  0  0  0  0  0  0  0  0  0
   62.0865   26.6458   50.0927 H   0  0  0  0  0  0  0  0  0  0  0  0
  1  2  1  0
  2  3  2  0
  3  4  1  0
  3  5  1  0
  5  6  2  0
  6  7  1  0
  7  8  1  0
  8  9  1  0
  9 10  1  0
  9 11  1  0
  9 12  1  0
 12 13  1  0
 12 14  1  0
 12 15  1  0
  8 16  1  0
 16 17  1  0
 16 18  1  0
 16 19  1  0
 19 20  1  0
 19 21  1  0
 19 22  1  0
  7 23  2  0
 23 24  1  0
 24 25  2  0
 25 26  1  0
 26 27  1  0
 26 28  1  0
 28 29  1  0
 28 30  1  0
 28 31  1  0
 31 32  1  0
 31 33  1  0
 31 34  1  0
 34 35  1  0
 35 36  1  0
 35 37  1  0
 35 38  1  0
 38 39  1  0
 38 40  1  0
 24 41  1  0
 41 42  1  0
 42 43  1  0
 42 44  2  0
 44 45  1  0
 45 46  1  0
 46 47  1  0
 46 48  1  0
 46 49  1  0
 44  2  1  0
 41  5  1  0
 38 26  1  0
M  CHG  1  42   1
M  END
>  <UniqueID>  (12) 
12

>  <SMILES>  (12) 
CCN(CC)c1n/c(=N/C2CCOCC2)n2[nH+]c(OC)ccc2n1

>  <Energy>  (12) 
79.16150191988332

>  <Genealogy>  (12) 
CCN(CC)c1nc(=NC2CCOCC2)n2[nH+]c(OC)ccc2n1 (protonated)
CCN(CC)c1n/c(=N/C2CCOCC2)n2[nH+]c(OC)ccc2n1 (cis-trans isomerization)
CCN(CC)c1n/c(=N/C2CCOCC2)n2[nH+]c(OC)ccc2n1 (3D coordinates assigned)
CCN(CC)c1n/c(=N/C2CCOCC2)n2[nH+]c(OC)ccc2n1 (nonaromatic ring conformer: 79.16150191988332 kcal/mol)

>  <smiles>  (12) 
CCN(CC)c1nc(=NC2CCOCC2)n2nc(OC)ccc2n1

>  <score_type>  (12) 
oracle

>  <origin>  (12) 
adg

>  <m_score__min__energy>  (12) 
-5.1200000000000001

>  <m_primary>  (12) 
energy

$$$$
12:0
     RDKit          3D

 55 56  0  0  0  0  0  0  0  0999 V2000
   61.6060   30.8540   48.7310 C   0  0  0  0  0  0  0  0  0  0  0  0
   62.1600   31.6830   47.5750 C   0  0  0  0  0  0  0  0  0  0  0  0
   62.8670   32.8860   48.0720 N   0  0  0  0  0  0  0  0  0  0  0  0
   63.7180   33.4600   47.0150 C   0  0  0  0  0  0  0  0  0  0  0  0
   61.9010   33.9050   48.5410 C   0  0  0  0  0  0  0  0  0  0  0  0
   60.6510   33.8670   47.7010 C   0  0  0  0  0  0  0  0  0  0  0  0
   59.4320   33.4360   48.2470 C   0  0  0  0  0  0  0  0  0  0  0  0
   58.2790   33.4000   47.4580 C   0  0  0  0  0  0  0  0  0  0  0  0
   58.3280   33.7920   46.1110 C   0  0  0  0  0  0  0  0  0  0  0  0
   57.0820   33.7390   45.2680 C   0  0  0  0  0  0  0  0  0  0  0  0
   56.6510   32.3420   45.0910 N   0  0  0  0  0  0  0  0  0  0  0  0
   57.3990   31.6520   44.0290 C   0  0  0  0  0  0  0  0  0  0  0  0
   58.1630   30.4720   44.5720 C   0  0  0  0  0  0  0  0  0  0  0  0
   57.9040   29.1760   44.0980 C   0  0  0  0  0  0  0  0  0  0  0  0
   58.6180   28.0850   44.5980 C   0  0  0  0  0  0  0  0  0  0  0  0
   59.6050   28.2740   45.5790 C   0  0  0  0  0  0  0  0  0  0  0  0
   60.3720   27.0990   46.1290 C   0  0  0  0  0  0  0  0  0  0  0  0
   59.8260   26.6910   47.4400 N   0  0  0  0  0  0  0  0  0  0  0  0
   60.3600   27.5400   48.5190 C   0  0  0  0  0  0  0  0  0  0  0  0
   58.3570   26.7860   47.4270 C   0  0  0  0  0  0  0  0  0  0  0  0
   59.8590   29.5690   46.0570 C   0  0  0  0  0  0  0  0  0  0  0  0
   59.1480   30.6600   45.5530 C   0  0  0  0  0  0  0  0  0  0  0  0
   59.5470   34.2270   45.5660 C   0  0  0  0  0  0  0  0  0  0  0  0
   60.6980   34.2670   46.3570 C   0  0  0  0  0  0  0  0  0  0  0  0
   61.9093   31.3078   49.6860 H   0  0  0  0  0  0  0  0  0  0  0  0
   60.5080   30.8274   48.6700 H   0  0  0  0  0  0  0  0  0  0  0  0
   62.0015   29.8294   48.6700 H   0  0  0  0  0  0  0  0  0  0  0  0
   62.8633   31.0667   46.9957 H   0  0  0  0  0  0  0  0  0  0  0  0
   61.3196   32.0076   46.9438 H   0  0  0  0  0  0  0  0  0  0  0  0
   64.5466   34.0189   47.4745 H   0  0  0  0  0  0  0  0  0  0  0  0
   64.1236   32.6502   46.3907 H   0  0  0  0  0  0  0  0  0  0  0  0
   63.1191   34.1394   46.3907 H   0  0  0  0  0  0  0  0  0  0  0  0
   61.6395   33.7014   49.5899 H   0  0  0  0  0  0  0  0  0  0  0  0
   62.3606   34.9005   48.4533 H   0  0  0  0  0  0  0  0  0  0  0  0
   59.3839   33.1250   49.3010 H   0  0  0  0  0  0  0  0  0  0  0  0
   57.3276   33.0625   47.8951 H   0  0  0  0  0  0  0  0  0  0  0  0
   56.2817   34.3066   45.7652 H   0  0  0  0  0  0  0  0  0  0  0  0
   57.2948   34.1782   44.2822 H   0  0  0  0  0  0  0  0  0  0  0  0
   56.8440   31.8310   45.9830 H   0  0  0  0  0  0  0  0  0  0  0  0
   56.6914   31.2990   43.2643 H   0  0  0  0  0  0  0  0  0  0  0  0
   58.1197   32.3615   43.5963 H   0  0  0  0  0  0  0  0  0  0  0  0
   57.1341   29.0191   43.3282 H   0  0  0  0  0  0  0  0  0  0  0  0
   58.4064   27.0732   44.2218 H   0  0  0  0  0  0  0  0  0  0  0  0
   60.2948   26.2559   45.4267 H   0  0  0  0  0  0  0  0  0  0  0  0
   61.4247   27.3908   46.2579 H   0  0  0  0  0  0  0  0  0  0  0  0
   60.0885   27.1083   49.4936 H   0  0  0  0  0  0  0  0  0  0  0  0
   61.4554   27.5946   48.4345 H   0  0  0  0  0  0  0  0  0  0  0  0
   59.9349   28.5510   48.4345 H   0  0  0  0  0  0  0  0  0  0  0  0
   57.9820   26.8103   48.4608 H   0  0  0  0  0  0  0  0  0  0  0  0
   58.0536   27.7056   46.9052 H   0  0  0  0  0  0  0  0  0  0  0  0
   57.9377   25.9131   46.9052 H   0  0  0  0  0  0  0  0  0  0  0  0
   60.6226   29.7254   46.8332 H   0  0  0  0  0  0  0  0  0  0  0  0
   59.3614   31.6722   45.9272 H   0  0  0  0  0  0  0  0  0  0  0  0
   59.5958   34.5376   44.5119 H   0  0  0  0  0  0  0  0  0  0  0  0
   61.6473   34.6144   45.9232 H   0  0  0  0  0  0  0  0  0  0  0  0
  1  2  1  0
  2  3  1  0
  3  4  1  0
  3  5  1  0
  5  6  1  0
  6  7  2  0
  7  8  1  0
  8  9  2  0
  9 10  1  0
 10 11  1  0
 11 12  1  0
 12 13  1  0
 13 14  2  0
 14 15  1  0
 15 16  2  0
 16 17  1  0
 17 18  1  0
 18 19  1  0
 18 20  1  0
 16 21  1  0
 21 22  2  0
  9 23  1  0
 23 24  2  0
 24  6  1  0
 22 13  1  0
  1 25  1  0
  1 26  1  0
  1 27  1  0
  2 28  1  0
  2 29  1  0
  4 30  1  0
  4 31  1  0
  4 32  1  0
  5 33  1  0
  5 34  1  0
  7 35  1  0
  8 36  1  0
 10 37  1  0
 10 38  1  0
 11 39  1  0
 12 40  1  0
 12 41  1  0
 14 42  1  0
 15 43  1  0
 17 44  1  0
 17 45  1  0
 19 46  1  0
 19 47  1  0
 19 48  1  0
 20 49  1  0
 20 50  1  0
 20 51  1  0
 21 52  1  0
 22 53  1  0
 23 54  1  0
 24 55  1  0
M  END
>  <UniqueID>  (13) 
13

>  <SMILES>  (13) 
CCN(C)Cc1ccc(CNCc2ccc(CN(C)C)cc2)cc1

>  <Energy>  (13) 
45.742923293603646

>  <Genealogy>  (13) 
CCN(C)Cc1ccc(CNCc2ccc(CN(C)C)cc2)cc1 (3D coordinates assigned)
CCN(C)Cc1ccc(CNCc2ccc(CN(C)C)cc2)cc1 (optimized conformer: 45.742923293603646 kcal/mol)

>  <smiles>  (13) 
CCN(C)Cc1ccc(CNCc2ccc(CN(C)C)cc2)cc1

>  <score_type>  (13) 
oracle

>  <origin>  (13) 
adg

>  <m_score__min__energy>  (13) 
-7.25

>  <m_primary>  (13) 
energy

$$$$
13:0
     RDKit          3D

 39 41  0  0  0  0  0  0  0  0999 V2000
   59.1910   35.0506   47.5691 H   0  0  0  0  0  0  0  0  0  0  0  0
   58.8630   34.3190   46.8160 C   0  0  0  0  0  0  0  0  0  0  0  0
   58.3880   33.0670   47.2180 C   0  0  0  0  0  0  0  0  0  0  0  0
   58.3442   32.8134   48.2875 H   0  0  0  0  0  0  0  0  0  0  0  0
   57.9690   32.1380   46.2630 C   0  0  0  0  0  0  0  0  0  0  0  0
   57.6012   31.1520   46.5831 H   0  0  0  0  0  0  0  0  0  0  0  0
   58.0150   32.4570   44.8940 C   0  0  0  0  0  0  0  0  0  0  0  0
   57.6460   31.4270   43.8630 C   0  0  0  0  0  0  0  0  0  0  0  0
   58.4888   31.2815   43.1713 H   0  0  0  0  0  0  0  0  0  0  0  0
   56.7658   31.7696   43.2992 H   0  0  0  0  0  0  0  0  0  0  0  0
   57.3310   30.1340   44.5450 C   0  0  0  0  0  0  0  0  0  0  0  0
   58.4500   28.9110   44.8420 S   0  0  0  0  0  0  0  0  0  0  0  0
   57.2600   27.8020   45.2930 C   0  0  0  0  0  0  0  0  0  0  0  0
   57.4500   26.5550   45.6170 N   0  0  0  0  0  0  0  0  0  0  0  0
   56.4530   25.5210   45.6610 C   0  0  0  0  0  0  0  0  0  0  0  0
   55.3530   25.7730   46.2200 O   0  0  0  0  0  0  0  0  0  0  0  0
   56.6490   24.1920   45.0250 C   0  0  0  0  0  0  0  0  0  0  0  0
   56.4000   24.0540   43.6470 C   0  0  0  0  0  0  0  0  0  0  0  0
   56.0914   24.9306   43.0585 H   0  0  0  0  0  0  0  0  0  0  0  0
   56.5410   22.8150   43.0200 C   0  0  0  0  0  0  0  0  0  0  0  0
   56.3367   22.7181   41.9435 H   0  0  0  0  0  0  0  0  0  0  0  0
   56.9400   21.7010   43.7550 C   0  0  0  0  0  0  0  0  0  0  0  0
   57.0416   20.7243   43.2593 H   0  0  0  0  0  0  0  0  0  0  0  0
   57.2110   21.8210   45.1180 C   0  0  0  0  0  0  0  0  0  0  0  0
   57.5269   20.9372   45.6917 H   0  0  0  0  0  0  0  0  0  0  0  0
   57.0830   23.0670   45.7660 C   0  0  0  0  0  0  0  0  0  0  0  0
   57.3820   23.2160   47.1320 O   0  0  0  0  0  0  0  0  0  0  0  0
   56.4300   23.1040   48.1850 C   0  0  0  0  0  0  0  0  0  0  0  0
   56.9465   23.1648   49.1543 H   0  0  0  0  0  0  0  0  0  0  0  0
   55.6991   23.9223   48.1071 H   0  0  0  0  0  0  0  0  0  0  0  0
   55.9090   22.1384   48.1071 H   0  0  0  0  0  0  0  0  0  0  0  0
   56.0290   28.3560   45.2460 N   0  0  0  0  0  0  0  0  0  0  0  0
   55.1470   27.8420   45.4700 H   0  0  0  0  0  0  0  0  0  0  0  0
   56.0560   29.6430   44.8110 C   0  0  0  0  0  0  0  0  0  0  0  0
   55.1459   30.2467   44.6800 H   0  0  0  0  0  0  0  0  0  0  0  0
   58.5060   33.7120   44.4980 C   0  0  0  0  0  0  0  0  0  0  0  0
   58.5643   33.9650   43.4291 H   0  0  0  0  0  0  0  0  0  0  0  0
   58.9210   34.6410   45.4570 C   0  0  0  0  0  0  0  0  0  0  0  0
   59.2937   35.6267   45.1416 H   0  0  0  0  0  0  0  0  0  0  0  0
  1  2  1  0
  2  3  2  0
  3  4  1  0
  3  5  1  0
  5  6  1  0
  5  7  2  0
  7  8  1  0
  8  9  1  0
  8 10  1  0
  8 11  1  0
 11 12  1  0
 12 13  1  0
 13 14  2  0
 14 15  1  0
 15 16  2  0
 15 17  1  0
 17 18  2  0
 18 19  1  0
 18 20  1  0
 20 21  1  0
 20 22  2  0
 22 23  1  0
 22 24  1  0
 24 25  1  0
 24 26  2  0
 26 27  1  0
 27 28  1  0
 28 29  1  0
 28 30  1  0
 28 31  1  0
 13 32  1  0
 32 33  1  0
 32 34  1  0
 34 35  1  0
  7 36  1  0
 36 37  1  0
 36 38  2  0
 38 39  1  0
 38  2  1  0
 34 11  2  0
 26 17  1  0
M  END
>  <UniqueID>  (14) 
14

>  <SMILES>  (14) 
COc1ccccc1C(=O)/N=c1/[nH]cc(Cc2ccccc2)s1

>  <Energy>  (14) 
76.9695275706342

>  <Genealogy>  (14) 
COc1ccccc1C(=O)/N=c1/[nH]cc(Cc2ccccc2)s1 (cis-trans isomerization)
COc1ccccc1C(=O)/N=c1/[nH]cc(Cc2ccccc2)s1 (3D coordinates assigned)
COc1ccccc1C(=O)/N=c1/[nH]cc(Cc2ccccc2)s1 (optimized conformer: 76.9695275706342 kcal/mol)

>  <smiles>  (14) 
COc1ccccc1C(=O)N=c1[nH]cc(Cc2ccccc2)s1

>  <score_type>  (14) 
oracle

>  <origin>  (14) 
adg

>  <m_score__min__energy>  (14) 
-8.8399999999999999

>  <m_primary>  (14) 
energy

$$$$
14:0
     RDKit          3D

 49 50  0  0  0  0  0  0  0  0999 V2000
   55.2400   24.2810   45.2240 C   0  0  0  0  0  0  0  0  0  0  0  0
   55.5210   25.4540   45.9820 O   0  0  0  0  0  0  0  0  0  0  0  0
   56.6780   26.2330   45.8370 C   0  0  0  0  0  0  0  0  0  0  0  0
   57.4870   26.1750   44.6880 C   0  0  0  0  0  0  0  0  0  0  0  0
   58.6280   26.9720   44.5900 C   0  0  0  0  0  0  0  0  0  0  0  0
   58.9860   27.8380   45.6390 C   0  0  0  0  0  0  0  0  0  0  0  0
   60.1270   28.6530   45.5760 O   0  0  0  0  0  0  0  0  0  0  0  0
   61.0930   28.6080   44.5320 C   0  0  0  0  0  0  0  0  0  0  0  0
   58.1890   27.8970   46.7930 C   0  0  0  0  0  0  0  0  0  0  0  0
   58.5770   28.7730   47.8210 O   0  0  0  0  0  0  0  0  0  0  0  0
   59.6480   28.5620   48.7410 C   0  0  0  0  0  0  0  0  0  0  0  0
   60.7410   29.6350   48.5830 C   0  0  0  0  0  0  0  0  0  0  0  0
   60.6770   30.3170   47.2750 N   0  0  0  0  0  0  0  0  0  0  0  0
   60.6410   31.7940   47.3930 C   0  0  0  0  0  0  0  0  0  0  0  0
   59.2170   32.3850   47.3070 C   0  0  2  0  0  0  0  0  0  0  0  0
   58.3990   31.8070   48.2940 O   0  0  0  0  0  0  0  0  0  0  0  0
   58.6220   32.2190   45.9220 C   0  0  0  0  0  0  0  0  0  0  0  0
   58.7670   33.2130   44.9390 C   0  0  0  0  0  0  0  0  0  0  0  0
   58.1690   33.0600   43.6870 C   0  0  0  0  0  0  0  0  0  0  0  0
   57.4160   31.9190   43.4020 C   0  0  0  0  0  0  0  0  0  0  0  0
   57.2490   30.9160   44.3720 C   0  0  0  0  0  0  0  0  0  0  0  0
   56.4630   29.7460   44.0800 N   0  0  0  0  0  0  0  0  0  0  0  0
   56.7070   29.0480   43.0730 O   0  0  0  0  0  0  0  0  0  0  0  0
   55.4250   29.3770   44.9050 O   0  0  0  0  0  0  0  0  0  0  0  0
   57.8540   31.0780   45.6320 C   0  0  0  0  0  0  0  0  0  0  0  0
   57.0340   27.0940   46.8810 C   0  0  0  0  0  0  0  0  0  0  0  0
   55.0391   23.4425   45.9070 H   0  0  0  0  0  0  0  0  0  0  0  0
   54.3585   24.4566   44.5899 H   0  0  0  0  0  0  0  0  0  0  0  0
   56.1054   24.0382   44.5899 H   0  0  0  0  0  0  0  0  0  0  0  0
   57.2190   25.4984   43.8631 H   0  0  0  0  0  0  0  0  0  0  0  0
   59.2523   26.9227   43.6856 H   0  0  0  0  0  0  0  0  0  0  0  0
   62.1019   28.5610   44.9678 H   0  0  0  0  0  0  0  0  0  0  0  0
   60.9201   27.7169   43.9106 H   0  0  0  0  0  0  0  0  0  0  0  0
   61.0037   29.5113   43.9106 H   0  0  0  0  0  0  0  0  0  0  0  0
   59.2524   28.6018   49.7666 H   0  0  0  0  0  0  0  0  0  0  0  0
   60.0947   27.5783   48.5340 H   0  0  0  0  0  0  0  0  0  0  0  0
   60.6174   30.3847   49.3784 H   0  0  0  0  0  0  0  0  0  0  0  0
   61.7167   29.1316   48.6508 H   0  0  0  0  0  0  0  0  0  0  0  0
   59.8270   29.9960   46.7560 H   0  0  0  0  0  0  0  0  0  0  0  0
   61.4950   30.0120   46.7000 H   0  0  0  0  0  0  0  0  0  0  0  0
   61.0771   32.0764   48.3626 H   0  0  0  0  0  0  0  0  0  0  0  0
   61.2113   32.2000   46.5445 H   0  0  0  0  0  0  0  0  0  0  0  0
   59.2792   33.4673   47.4936 H   0  0  0  0  0  0  0  0  0  0  0  0
   58.4310   30.8250   48.1540 H   0  0  0  0  0  0  0  0  0  0  0  0
   59.3550   34.1166   45.1575 H   0  0  0  0  0  0  0  0  0  0  0  0
   58.2913   33.8410   42.9221 H   0  0  0  0  0  0  0  0  0  0  0  0
   56.9506   31.8046   42.4119 H   0  0  0  0  0  0  0  0  0  0  0  0
   57.7242   30.3015   46.4002 H   0  0  0  0  0  0  0  0  0  0  0  0
   56.4046   27.1448   47.7817 H   0  0  0  0  0  0  0  0  0  0  0  0
  1  2  1  0
  2  3  1  0
  3  4  2  0
  4  5  1  0
  5  6  2  0
  6  7  1  0
  7  8  1  0
  6  9  1  0
  9 10  1  0
 10 11  1  0
 11 12  1  0
 12 13  1  0
 13 14  1  0
 14 15  1  0
 15 16  1  0
 15 17  1  0
 17 18  2  0
 18 19  1  0
 19 20  2  0
 20 21  1  0
 21 22  1  0
 22 23  2  0
 22 24  1  0
 21 25  2  0
  9 26  2  0
 26  3  1  0
 25 17  1  0
  1 27  1  0
  1 28  1  0
  1 29  1  0
  4 30  1  0
  5 31  1  0
  8 32  1  0
  8 33  1  0
  8 34  1  0
 11 35  1  0
 11 36  1  0
 12 37  1  0
 12 38  1  0
 13 39  1  0
 13 40  1  0
 14 41  1  0
 14 42  1  0
 15 43  1  1
 16 44  1  0
 18 45  1  0
 19 46  1  0
 20 47  1  0
 25 48  1  0
 26 49  1  0
M  CHG  3  13   1  22   1  24  -1
M  END
>  <UniqueID>  (15) 
15

>  <SMILES>  (15) 
COc1ccc(OC)c(OCC[NH2+]C[C@H](O)c2cccc([N+](=O)[O-])c2)c1

>  <Energy>  (15) 
50.76333951430513

>  <Genealogy>  (15) 
COc1ccc(OC)c(OCC[NH2+]CC(O)c2cccc([N+](=O)[O-])c2)c1 (protonated)
COc1ccc(OC)c(OCC[NH2+]C[C@H](O)c2cccc([N+](=O)[O-])c2)c1 (chirality)
COc1ccc(OC)c(OCC[NH2+]C[C@H](O)c2cccc([N+](=O)[O-])c2)c1 (3D coordinates assigned)
COc1ccc(OC)c(OCC[NH2+]C[C@H](O)c2cccc([N+](=O)[O-])c2)c1 (optimized conformer: 50.76333951430513 kcal/mol)

>  <smiles>  (15) 
COc1ccc(OC)c(OCCNCC(O)c2cccc([N+](=O)[O-])c2)c1

>  <score_type>  (15) 
oracle

>  <origin>  (15) 
adg

>  <m_score__min__energy>  (15) 
-4.6200000000000001

>  <m_primary>  (15) 
energy

$$$$
15:0
     RDKit          3D

 38 40  0  0  0  0  0  0  0  0999 V2000
   62.6630   33.8430   45.9240 O   0  0  0  0  0  0  0  0  0  0  0  0
   61.8060   33.3470   47.0560 S   0  0  0  0  0  0  0  0  0  0  0  0
   61.3840   31.9340   46.7600 O   0  0  0  0  0  0  0  0  0  0  0  0
   62.7330   33.3540   48.5540 C   0  0  0  0  0  0  0  0  0  0  0  0
   62.3330   34.1790   49.6130 C   0  0  0  0  0  0  0  0  0  0  0  0
   63.0680   34.2040   50.8030 C   0  0  0  0  0  0  0  0  0  0  0  0
   64.2100   33.4080   50.9360 C   0  0  0  0  0  0  0  0  0  0  0  0
   64.9240   33.4340   52.0890 F   0  0  0  0  0  0  0  0  0  0  0  0
   64.6170   32.5880   49.8800 C   0  0  0  0  0  0  0  0  0  0  0  0
   63.8830   32.5610   48.6900 C   0  0  0  0  0  0  0  0  0  0  0  0
   60.4020   34.3760   47.2530 N   0  0  0  0  0  0  0  0  0  0  0  0
   59.8190   34.7590   45.9430 C   0  0  0  0  0  0  0  0  0  0  0  0
   58.4870   34.0560   45.6210 C   0  0  0  0  0  0  0  0  0  0  0  0
   58.4770   32.7050   46.1880 N   0  0  0  0  0  0  0  0  0  0  0  0
   58.0980   31.5600   45.4020 C   0  0  0  0  0  0  0  0  0  0  0  0
   56.8460   31.4920   44.8710 N   0  0  0  0  0  0  0  0  0  0  0  0
   56.4490   30.4210   44.1390 C   0  0  0  0  0  0  0  0  0  0  0  0
   57.3270   29.3620   43.9270 C   0  0  0  0  0  0  0  0  0  0  0  0
   58.6000   29.4320   44.4900 C   0  0  0  0  0  0  0  0  0  0  0  0
   58.9640   30.5200   45.2190 N   0  0  0  0  0  0  0  0  0  0  0  0
   58.7420   32.5430   47.6210 C   0  0  0  0  0  0  0  0  0  0  0  0
   59.4260   33.7940   48.1960 C   0  0  0  0  0  0  0  0  0  0  0  0
   61.4377   34.8095   49.5085 H   0  0  0  0  0  0  0  0  0  0  0  0
   62.7477   34.8497   51.6340 H   0  0  0  0  0  0  0  0  0  0  0  0
   65.5160   31.9629   49.9851 H   0  0  0  0  0  0  0  0  0  0  0  0
   64.2075   31.9172   47.8592 H   0  0  0  0  0  0  0  0  0  0  0  0
   59.6451   35.8452   45.9460 H   0  0  0  0  0  0  0  0  0  0  0  0
   60.5382   34.4475   45.1711 H   0  0  0  0  0  0  0  0  0  0  0  0
   57.6570   34.6363   46.0504 H   0  0  0  0  0  0  0  0  0  0  0  0
   58.3725   33.9875   44.5291 H   0  0  0  0  0  0  0  0  0  0  0  0
   55.4350   30.3896   43.7138 H   0  0  0  0  0  0  0  0  0  0  0  0
   57.0232   28.4901   43.3290 H   0  0  0  0  0  0  0  0  0  0  0  0
   59.3112   28.6056   44.3442 H   0  0  0  0  0  0  0  0  0  0  0  0
   59.9080   30.5280   45.6640 H   0  0  0  0  0  0  0  0  0  0  0  0
   57.7901   32.3787   48.1472 H   0  0  0  0  0  0  0  0  0  0  0  0
   59.4109   31.6809   47.7600 H   0  0  0  0  0  0  0  0  0  0  0  0
   58.6566   34.5475   48.4203 H   0  0  0  0  0  0  0  0  0  0  0  0
   59.9692   33.4957   49.1048 H   0  0  0  0  0  0  0  0  0  0  0  0
  1  2  2  0
  2  3  2  0
  2  4  1  0
  4  5  2  0
  5  6  1  0
  6  7  2  0
  7  8  1  0
  7  9  1  0
  9 10  2  0
  2 11  1  0
 11 12  1  0
 12 13  1  0
 13 14  1  0
 14 15  1  0
 15 16  2  0
 16 17  1  0
 17 18  2  0
 18 19  1  0
 19 20  2  0
 14 21  1  0
 21 22  1  0
 10  4  1  0
 22 11  1  0
 20 15  1  0
  5 23  1  0
  6 24  1  0
  9 25  1  0
 10 26  1  0
 12 27  1  0
 12 28  1  0
 13 29  1  0
 13 30  1  0
 17 31  1  0
 18 32  1  0
 19 33  1  0
 20 34  1  0
 21 35  1  0
 21 36  1  0
 22 37  1  0
 22 38  1  0
M  CHG  1  20   1
M  END
>  <UniqueID>  (16) 
16

>  <SMILES>  (16) 
O=S(=O)(c1ccc(F)cc1)N1CCN(c2nccc[nH+]2)CC1

>  <Energy>  (16) 
49.52300530406173

>  <Genealogy>  (16) 
O=S(=O)(c1ccc(F)cc1)N1CCN(c2nccc[nH+]2)CC1 (protonated)
O=S(=O)(c1ccc(F)cc1)N1CCN(c2nccc[nH+]2)CC1 (3D coordinates assigned)
O=S(=O)(c1ccc(F)cc1)N1CCN(c2nccc[nH+]2)CC1 (nonaromatic ring conformer: 49.52300530406173 kcal/mol)

>  <smiles>  (16) 
O=S(=O)(c1ccc(F)cc1)N1CCN(c2ncccn2)CC1

>  <score_type>  (16) 
oracle

>  <origin>  (16) 
adg

>  <m_score__min__energy>  (16) 
-5.6799999999999997

>  <m_primary>  (16) 
energy

$$$$
16:0
     RDKit          3D

 45 47  0  0  0  0  0  0  0  0999 V2000
   58.9135   34.8211   47.2586 H   0  0  0  0  0  0  0  0  0  0  0  0
   58.5840   34.0980   46.4980 C   0  0  0  0  0  0  0  0  0  0  0  0
   58.3470   34.5230   45.1870 C   0  0  0  0  0  0  0  0  0  0  0  0
   58.4927   35.5799   44.9191 H   0  0  0  0  0  0  0  0  0  0  0  0
   57.9260   33.6110   44.2160 C   0  0  0  0  0  0  0  0  0  0  0  0
   57.7434   33.9515   43.1861 H   0  0  0  0  0  0  0  0  0  0  0  0
   57.7350   32.2580   44.5520 C   0  0  0  0  0  0  0  0  0  0  0  0
   57.2930   31.3150   43.6030 C   0  0  0  0  0  0  0  0  0  0  0  0
   57.0460   31.7300   42.2850 O   0  0  0  0  0  0  0  0  0  0  0  0
   58.0160   32.3280   41.4300 C   0  0  0  0  0  0  0  0  0  0  0  0
   58.7955   32.8085   42.0395 H   0  0  0  0  0  0  0  0  0  0  0  0
   58.4721   31.5541   40.7952 H   0  0  0  0  0  0  0  0  0  0  0  0
   57.5294   33.0831   40.7952 H   0  0  0  0  0  0  0  0  0  0  0  0
   57.0970   29.9810   44.0090 C   0  0  0  0  0  0  0  0  0  0  0  0
   56.7714   29.2262   43.2780 H   0  0  0  0  0  0  0  0  0  0  0  0
   55.2890   25.2150   45.5880 C   0  0  0  0  0  0  0  0  0  0  0  0
   55.9080   26.0570   46.3630 N   0  0  0  0  0  0  0  0  0  0  0  0
   57.3550   26.1030   46.5820 C   0  0  0  0  0  0  0  0  0  0  0  0
   57.5818   25.6667   47.5659 H   0  0  0  0  0  0  0  0  0  0  0  0
   57.8444   25.5324   45.7790 H   0  0  0  0  0  0  0  0  0  0  0  0
   57.8840   27.5450   46.5410 C   0  0  0  0  0  0  0  0  0  0  0  0
   57.9200   27.9422   47.5662 H   0  0  0  0  0  0  0  0  0  0  0  0
   58.8878   27.5326   46.0914 H   0  0  0  0  0  0  0  0  0  0  0  0
   57.0260   28.4060   45.7270 N   0  0  0  0  0  0  0  0  0  0  0  0
   57.3160   29.6150   45.3410 C   0  0  0  0  0  0  0  0  0  0  0  0
   53.9480   25.0160   45.6950 N   0  0  0  0  0  0  0  0  0  0  0  0
   53.3320   24.0730   44.9380 C   0  0  0  0  0  0  0  0  0  0  0  0
   51.8640   23.8440   45.0730 C   0  0  0  0  0  0  0  0  0  0  0  0
   51.5959   23.8022   46.1390 H   0  0  0  0  0  0  0  0  0  0  0  0
   51.3184   24.6679   44.5898 H   0  0  0  0  0  0  0  0  0  0  0  0
   51.5953   22.8931   44.5898 H   0  0  0  0  0  0  0  0  0  0  0  0
   54.0570   23.3330   44.0620 N   0  0  0  0  0  0  0  0  0  0  0  0
   55.3950   23.5290   43.9480 C   0  0  0  0  0  0  0  0  0  0  0  0
   56.1910   22.7170   42.9740 C   0  0  0  0  0  0  0  0  0  0  0  0
   56.6294   23.3860   42.2189 H   0  0  0  0  0  0  0  0  0  0  0  0
   55.5241   21.9859   42.4936 H   0  0  0  0  0  0  0  0  0  0  0  0
   57.3090   21.9670   43.6880 C   0  0  0  0  0  0  0  0  0  0  0  0
   57.1745   22.0572   44.7760 H   0  0  0  0  0  0  0  0  0  0  0  0
   57.2794   20.9053   43.4017 H   0  0  0  0  0  0  0  0  0  0  0  0
   58.2801   22.3970   43.4017 H   0  0  0  0  0  0  0  0  0  0  0  0
   56.0060   24.4770   44.7030 N   0  0  0  0  0  0  0  0  0  0  0  0
   57.7660   30.5420   46.2300 N   0  0  0  0  0  0  0  0  0  0  0  0
   57.9790   31.8360   45.8790 C   0  0  0  0  0  0  0  0  0  0  0  0
   58.4030   32.7570   46.8430 C   0  0  0  0  0  0  0  0  0  0  0  0
   58.5940   32.4244   47.8740 H   0  0  0  0  0  0  0  0  0  0  0  0
  1  2  1  0
  2  3  2  0
  3  4  1  0
  3  5  1  0
  5  6  1  0
  5  7  2  0
  7  8  1  0
  8  9  1  0
  9 10  1  0
 10 11  1  0
 10 12  1  0
 10 13  1  0
  8 14  2  0
 14 15  1  0
 14 16  1  0
 16 17  2  0
 17 18  1  0
 18 19  1  0
 18 20  1  0
 18 21  1  0
 21 22  1  0
 21 23  1  0
 21 24  1  0
 24 25  2  0
 25 26  1  0
 26 27  2  0
 27 28  1  0
 28 29  1  0
 28 30  1  0
 28 31  1  0
 27 32  1  0
 32 33  1  0
 33 34  1  0
 34 35  1  0
 34 36  1  0
 34 37  1  0
 37 38  1  0
 37 39  1  0
 37 40  1  0
 33 41  2  0
 16 42  1  0
 42 43  1  0
 43 44  2  0
 44 45  1  0
 44  2  1  0
 43  7  1  0
 41 25  1  0
M  CHG  2  32  -1  42  -1
M  END
>  <UniqueID>  (17) 
17

>  <SMILES>  (17) 
CCc1n/c(=N/CC/N=c2/cc(OC)c3ccccc3[n-]2)nc(C)[n-]1

>  <Energy>  (17) 
40.569280247562936

>  <Genealogy>  (17) 
CCc1nc(=NCCN=c2cc(OC)c3ccccc3[n-]2)nc(C)[n-]1 (protonated)
CCc1n/c(=N/CC/N=c2/cc(OC)c3ccccc3[n-]2)nc(C)[n-]1 (cis-trans isomerization)
CCc1n/c(=N/CC/N=c2/cc(OC)c3ccccc3[n-]2)nc(C)[n-]1 (3D coordinates assigned)
CCc1n/c(=N/CC/N=c2/cc(OC)c3ccccc3[n-]2)nc(C)[n-]1 (optimized conformer: 40.569280247562936 kcal/mol)

>  <smiles>  (17) 
CCc1nc(=NCCN=c2cc(OC)c3ccccc3[nH]2)nc(C)[nH]1

>  <score_type>  (17) 
oracle

>  <origin>  (17) 
adg

>  <m_score__min__energy>  (17) 
-11.16

>  <m_primary>  (17) 
energy

$$$$
17:0
     RDKit          3D

 34 36  0  0  0  0  0  0  0  0999 V2000
   56.8900   27.7550   45.6560 C   0  0  0  0  0  0  0  0  0  0  0  0
   56.1420   28.8900   45.2320 O   0  0  0  0  0  0  0  0  0  0  0  0
   56.6750   29.9630   44.5030 C   0  0  0  0  0  0  0  0  0  0  0  0
   56.4870   30.1000   43.1160 C   0  0  0  0  0  0  0  0  0  0  0  0
   57.0290   31.1930   42.4390 C   0  0  0  0  0  0  0  0  0  0  0  0
   57.7670   32.1550   43.1310 C   0  0  0  0  0  0  0  0  0  0  0  0
   57.9800   32.0310   44.5160 C   0  0  0  0  0  0  0  0  0  0  0  0
   58.7630   33.0670   45.2360 C   0  0  0  0  0  0  0  0  0  0  0  0
   58.4360   34.4320   45.1720 C   0  0  0  0  0  0  0  0  0  0  0  0
   59.1780   35.3320   45.8650 N   0  0  0  0  0  0  0  0  0  0  0  0
   60.2420   34.9480   46.6180 C   0  0  0  0  0  0  0  0  0  0  0  0
   60.5830   33.5880   46.6930 C   0  0  0  0  0  0  0  0  0  0  0  0
   61.7220   33.1020   47.5120 C   0  0  0  0  0  0  0  0  0  0  0  0
   61.4870   32.5340   48.7760 C   0  0  0  0  0  0  0  0  0  0  0  0
   62.5530   32.0690   49.5480 C   0  0  0  0  0  0  0  0  0  0  0  0
   63.8520   32.1660   49.0490 C   0  0  0  0  0  0  0  0  0  0  0  0
   64.0740   32.7050   47.8210 N   0  0  0  0  0  0  0  0  0  0  0  0
   63.0510   33.1670   47.0500 C   0  0  0  0  0  0  0  0  0  0  0  0
   59.8230   32.6920   46.0040 N   0  0  0  0  0  0  0  0  0  0  0  0
   57.4190   30.9300   45.1930 C   0  0  0  0  0  0  0  0  0  0  0  0
   56.9127   27.7206   46.7552 H   0  0  0  0  0  0  0  0  0  0  0  0
   56.4177   26.8396   45.2702 H   0  0  0  0  0  0  0  0  0  0  0  0
   57.9175   27.8280   45.2702 H   0  0  0  0  0  0  0  0  0  0  0  0
   55.9110   29.3432   42.5633 H   0  0  0  0  0  0  0  0  0  0  0  0
   56.8741   31.2972   41.3550 H   0  0  0  0  0  0  0  0  0  0  0  0
   58.1850   33.0163   42.5893 H   0  0  0  0  0  0  0  0  0  0  0  0
   57.5836   34.7689   44.5638 H   0  0  0  0  0  0  0  0  0  0  0  0
   60.8323   35.6977   47.1652 H   0  0  0  0  0  0  0  0  0  0  0  0
   60.4586   32.4556   49.1585 H   0  0  0  0  0  0  0  0  0  0  0  0
   62.3705   31.6304   50.5401 H   0  0  0  0  0  0  0  0  0  0  0  0
   64.6991   31.8053   49.6509 H   0  0  0  0  0  0  0  0  0  0  0  0
   65.0510   32.7610   47.4580 H   0  0  0  0  0  0  0  0  0  0  0  0
   63.2641   33.5941   46.0590 H   0  0  0  0  0  0  0  0  0  0  0  0
   57.5670   30.8279   46.2782 H   0  0  0  0  0  0  0  0  0  0  0  0
  1  2  1  0
  2  3  1  0
  3  4  2  0
  4  5  1  0
  5  6  2  0
  6  7  1  0
  7  8  1  0
  8  9  2  0
  9 10  1  0
 10 11  2  0
 11 12  1  0
 12 13  1  0
 13 14  2  0
 14 15  1  0
 15 16  2  0
 16 17  1  0
 17 18  2  0
 12 19  2  0
  7 20  2  0
 20  3  1  0
 19  8  1  0
 18 13  1  0
  1 21  1  0
  1 22  1  0
  1 23  1  0
  4 24  1  0
  5 25  1  0
  6 26  1  0
  9 27  1  0
 11 28  1  0
 14 29  1  0
 15 30  1  0
 16 31  1  0
 17 32  1  0
 18 33  1  0
 20 34  1  0
M  CHG  1  17   1
M  END
>  <UniqueID>  (18) 
18

>  <SMILES>  (18) 
COc1cccc(-c2cncc(-c3ccc[nH+]c3)n2)c1

>  <Energy>  (18) 
45.52940480632269

>  <Genealogy>  (18) 
COc1cccc(-c2cncc(-c3ccc[nH+]c3)n2)c1 (protonated)
COc1cccc(-c2cncc(-c3ccc[nH+]c3)n2)c1 (3D coordinates assigned)
COc1cccc(-c2cncc(-c3ccc[nH+]c3)n2)c1 (optimized conformer: 45.52940480632269 kcal/mol)

>  <smiles>  (18) 
COc1cccc(-c2cncc(-c3cccnc3)n2)c1

>  <score_type>  (18) 
oracle

>  <origin>  (18) 
adg

>  <m_score__min__energy>  (18) 
-6.4400000000000004

>  <m_primary>  (18) 
energy

$$$$
18:0
     RDKit          3D

 33 35  0  0  1  0  0  0  0  0999 V2000
   58.5420   32.9370   45.2750 C   0  0  0  0  0  0  0  0  0  0  0  0
   57.7170   33.0350   44.0350 C   0  0  0  0  0  0  0  0  0  0  0  0
   57.8010   31.7770   43.1960 C   0  0  0  0  0  0  0  0  0  0  0  0
   56.6610   30.8570   43.6010 C   0  0  0  0  0  0  0  0  0  0  0  0
   56.8240   30.2780   44.9010 N   0  0  0  0  0  0  0  0  0  0  0  0
   57.6820   29.3600   45.1310 C   0  0  0  0  0  0  0  0  0  0  0  0
   59.0040   29.5820   45.0720 N   0  0  0  0  0  0  0  0  0  0  0  0
   59.9120   28.6190   45.3140 C   0  0  0  0  0  0  0  0  0  0  0  0
   59.5510   27.3540   45.6350 N   0  0  0  0  0  0  0  0  0  0  0  0
   58.2430   27.0860   45.7070 C   0  0  0  0  0  0  0  0  0  0  0  0
   57.2870   28.0710   45.4590 C   0  0  0  0  0  0  0  0  0  0  0  0
   56.0740   27.4940   45.6080 N   0  0  0  0  0  0  0  0  0  0  0  0
   56.2390   26.1910   45.9370 C   0  0  0  0  0  0  0  0  0  0  0  0
   55.3950   25.1700   46.1990 N   0  0  0  0  0  0  0  0  0  0  0  0
   55.8390   23.9370   46.5090 C   0  0  0  0  0  0  0  0  0  0  0  0
   57.1830   23.6190   46.5870 C   0  0  0  0  0  0  0  0  0  0  0  0
   58.0720   24.6550   46.3230 C   0  0  0  0  0  0  0  0  0  0  0  0
   57.5900   25.9030   46.0070 C   0  0  0  0  0  0  0  0  0  0  0  0
   57.8891   33.0146   46.1569 H   0  0  0  0  0  0  0  0  0  0  0  0
   59.0665   31.9702   45.2910 H   0  0  0  0  0  0  0  0  0  0  0  0
   59.2784   33.7540   45.2910 H   0  0  0  0  0  0  0  0  0  0  0  0
   56.6677   33.2028   44.3191 H   0  0  0  0  0  0  0  0  0  0  0  0
   58.1054   33.8704   43.4340 H   0  0  0  0  0  0  0  0  0  0  0  0
   57.7111   32.0339   42.1302 H   0  0  0  0  0  0  0  0  0  0  0  0
   58.7674   31.2772   43.3577 H   0  0  0  0  0  0  0  0  0  0  0  0
   55.7267   31.4375   43.5938 H   0  0  0  0  0  0  0  0  0  0  0  0
   56.6445   30.0275   42.8788 H   0  0  0  0  0  0  0  0  0  0  0  0
   59.3340   30.5370   44.8290 H   0  0  0  0  0  0  0  0  0  0  0  0
   60.9816   28.8672   45.2490 H   0  0  0  0  0  0  0  0  0  0  0  0
   55.1470   27.9590   45.4920 H   0  0  0  0  0  0  0  0  0  0  0  0
   55.0998   23.1473   46.7092 H   0  0  0  0  0  0  0  0  0  0  0  0
   57.5281   22.6063   46.8428 H   0  0  0  0  0  0  0  0  0  0  0  0
   59.1566   24.4767   46.3668 H   0  0  0  0  0  0  0  0  0  0  0  0
  1  2  1  0
  2  3  1  0
  3  4  1  0
  4  5  1  0
  5  6  2  0
  6  7  1  0
  7  8  1  0
  8  9  2  0
  9 10  1  0
 10 11  2  0
 11 12  1  0
 12 13  1  0
 13 14  2  0
 14 15  1  0
 15 16  2  0
 16 17  1  0
 17 18  2  0
 11  6  1  0
 18 13  1  0
 18 10  1  0
  1 19  1  0
  1 20  1  0
  1 21  1  0
  2 22  1  0
  2 23  1  0
  3 24  1  0
  3 25  1  0
  4 26  1  0
  4 27  1  0
  7 28  1  0
  8 29  1  0
 12 30  1  0
 15 31  1  0
 16 32  1  0
 17 33  1  0
M  END
>  <smiles>  (19) 
CCCCN=c1[nH]cnc2c1[nH]c1ncccc12

>  <score_type>  (19) 
oracle

>  <origin>  (19) 
adg

>  <m_score__min__energy>  (19) 
-6.79

>  <m_primary>  (19) 
energy

$$$$
19:0
     RDKit          3D

 36 38  0  0  0  0  0  0  0  0999 V2000
   58.3571   26.1608   43.5837 H   0  0  0  0  0  0  0  0  0  0  0  0
   58.3850   27.0200   44.2700 C   0  0  0  0  0  0  0  0  0  0  0  0
   59.3620   28.0070   44.1140 C   0  0  0  0  0  0  0  0  0  0  0  0
   60.1010   27.9253   43.3034 H   0  0  0  0  0  0  0  0  0  0  0  0
   59.4010   29.0990   44.9880 C   0  0  0  0  0  0  0  0  0  0  0  0
   60.1683   29.8766   44.8594 H   0  0  0  0  0  0  0  0  0  0  0  0
   58.4640   29.2060   46.0290 C   0  0  0  0  0  0  0  0  0  0  0  0
   58.4770   30.4010   46.9430 C   0  0  0  0  0  0  0  0  0  0  0  0
   59.4564   30.4689   47.4391 H   0  0  0  0  0  0  0  0  0  0  0  0
   57.6832   30.2870   47.6959 H   0  0  0  0  0  0  0  0  0  0  0  0
   58.2370   31.6250   46.1750 N   0  0  0  0  0  0  0  0  0  0  0  0
   57.3740   31.7950   45.1380 C   0  0  0  0  0  0  0  0  0  0  0  0
   56.5750   30.8530   44.7250 N   0  0  0  0  0  0  0  0  0  0  0  0
   56.6030   30.2370   43.4000 C   0  0  0  0  0  0  0  0  0  0  0  0
   55.5999   29.8560   43.1579 H   0  0  0  0  0  0  0  0  0  0  0  0
   57.3327   29.4139   43.4085 H   0  0  0  0  0  0  0  0  0  0  0  0
   57.0220   31.2520   42.3410 C   0  0  0  0  0  0  0  0  0  0  0  0
   57.3974   32.1614   42.8330 H   0  0  0  0  0  0  0  0  0  0  0  0
   57.8155   30.8205   41.7132 H   0  0  0  0  0  0  0  0  0  0  0  0
   56.1552   31.5059   41.7132 H   0  0  0  0  0  0  0  0  0  0  0  0
   57.4500   33.0320   44.5790 N   0  0  0  0  0  0  0  0  0  0  0  0
   56.9170   33.4240   43.7720 H   0  0  0  0  0  0  0  0  0  0  0  0
   58.4050   33.6500   45.2940 C   0  0  0  0  0  0  0  0  0  0  0  0
   58.8960   34.9430   45.1320 C   0  0  0  0  0  0  0  0  0  0  0  0
   58.4991   35.6088   44.3515 H   0  0  0  0  0  0  0  0  0  0  0  0
   59.9170   35.3680   46.0010 C   0  0  0  0  0  0  0  0  0  0  0  0
   60.3293   36.3832   45.9043 H   0  0  0  0  0  0  0  0  0  0  0  0
   60.4170   34.4990   46.9980 C   0  0  0  0  0  0  0  0  0  0  0  0
   61.2158   34.8429   47.6715 H   0  0  0  0  0  0  0  0  0  0  0  0
   59.9000   33.1970   47.1350 C   0  0  0  0  0  0  0  0  0  0  0  0
   60.2807   32.5123   47.9071 H   0  0  0  0  0  0  0  0  0  0  0  0
   58.8870   32.8040   46.2570 C   0  0  0  0  0  0  0  0  0  0  0  0
   57.4790   28.2140   46.1730 C   0  0  0  0  0  0  0  0  0  0  0  0
   56.7332   28.2954   46.9775 H   0  0  0  0  0  0  0  0  0  0  0  0
   57.4430   27.1240   45.2980 C   0  0  0  0  0  0  0  0  0  0  0  0
   56.6730   26.3477   45.4185 H   0  0  0  0  0  0  0  0  0  0  0  0
  1  2  1  0
  2  3  2  0
  3  4  1  0
  3  5  1  0
  5  6  1  0
  5  7  2  0
  7  8  1  0
  8  9  1  0
  8 10  1  0
  8 11  1  0
 11 12  1  0
 12 13  2  0
 13 14  1  0
 14 15  1  0
 14 16  1  0
 14 17  1  0
 17 18  1  0
 17 19  1  0
 17 20  1  0
 12 21  1  0
 21 22  1  0
 21 23  1  0
 23 24  2  0
 24 25  1  0
 24 26  1  0
 26 27  1  0
 26 28  2  0
 28 29  1  0
 28 30  1  0
 30 31  1  0
 30 32  2  0
  7 33  1  0
 33 34  1  0
 33 35  2  0
 35 36  1  0
 35  2  1  0
 32 11  1  0
 32 23  1  0
M  END
>  <UniqueID>  (20) 
19

>  <SMILES>  (20) 
CC/N=c1\[nH]c2ccccc2n1Cc1ccccc1

>  <Energy>  (20) 
73.71964795938366

>  <Genealogy>  (20) 
CC/N=c1\[nH]c2ccccc2n1Cc1ccccc1 (cis-trans isomerization)
CC/N=c1\[nH]c2ccccc2n1Cc1ccccc1 (3D coordinates assigned)
CC/N=c1\[nH]c2ccccc2n1Cc1ccccc1 (optimized conformer: 73.71964795938366 kcal/mol)

>  <smiles>  (20) 
CCN=c1[nH]c2ccccc2n1Cc1ccccc1

>  <score_type>  (20) 
oracle

>  <origin>  (20) 
adg

>  <m_score__min__energy>  (20) 
-6.9400000000000004

>  <m_primary>  (20) 
energy

$$$$
20:0
     RDKit          3D

 40 42  0  0  0  0  0  0  0  0999 V2000
   57.4880   31.6080   42.9020 C   0  0  0  0  0  0  0  0  0  0  0  0
   57.2650   31.2520   44.2490 O   0  0  0  0  0  0  0  0  0  0  0  0
   58.3180   31.1360   45.1710 C   0  0  0  0  0  0  0  0  0  0  0  0
   59.0390   29.9640   45.2730 C   0  0  0  0  0  0  0  0  0  0  0  0
   58.6940   28.8230   44.3970 C   0  0  0  0  0  0  0  0  0  0  0  0
   57.9320   27.7660   45.1000 C   0  0  0  0  0  0  0  0  0  0  0  0
   58.5180   26.6250   45.6140 C   0  0  0  0  0  0  0  0  0  0  0  0
   57.7380   25.7290   46.2310 N   0  0  0  0  0  0  0  0  0  0  0  0
   56.4130   25.8670   46.3840 C   0  0  0  0  0  0  0  0  0  0  0  0
   55.6650   25.0000   46.9790 N   0  0  0  0  0  0  0  0  0  0  0  0
   55.8200   26.9850   45.8840 N   0  0  0  0  0  0  0  0  0  0  0  0
   56.5650   27.9290   45.2470 C   0  0  0  0  0  0  0  0  0  0  0  0
   55.9350   28.9720   44.7950 N   0  0  0  0  0  0  0  0  0  0  0  0
   60.0600   29.9280   46.2040 C   0  0  0  0  0  0  0  0  0  0  0  0
   60.3640   30.9870   46.9990 C   0  0  0  0  0  0  0  0  0  0  0  0
   61.4870   30.8370   47.9700 C   0  0  0  0  0  0  0  0  0  0  0  0
   59.6590   32.1540   46.9100 C   0  0  0  0  0  0  0  0  0  0  0  0
   59.9460   33.2420   47.7040 C   0  0  0  0  0  0  0  0  0  0  0  0
   59.2450   34.4270   47.6260 C   0  0  0  0  0  0  0  0  0  0  0  0
   58.2130   34.5100   46.7080 C   0  0  0  0  0  0  0  0  0  0  0  0
   57.9260   33.4150   45.9120 C   0  0  0  0  0  0  0  0  0  0  0  0
   58.6270   32.2300   45.9880 C   0  0  0  0  0  0  0  0  0  0  0  0
   58.0715   32.5396   42.8607 H   0  0  0  0  0  0  0  0  0  0  0  0
   58.0443   30.8042   42.3976 H   0  0  0  0  0  0  0  0  0  0  0  0
   56.5220   31.7578   42.3976 H   0  0  0  0  0  0  0  0  0  0  0  0
   58.0864   29.1952   43.5590 H   0  0  0  0  0  0  0  0  0  0  0  0
   59.6375   28.3752   44.0517 H   0  0  0  0  0  0  0  0  0  0  0  0
   59.6008   26.4568   45.5183 H   0  0  0  0  0  0  0  0  0  0  0  0
   58.1640   24.8420   46.6360 H   0  0  0  0  0  0  0  0  0  0  0  0
   54.6880   24.8270   46.7240 H   0  0  0  0  0  0  0  0  0  0  0  0
   54.7710   27.1080   45.9980 H   0  0  0  0  0  0  0  0  0  0  0  0
   56.2500   29.3820   43.9090 H   0  0  0  0  0  0  0  0  0  0  0  0
   60.6500   29.0051   46.3053 H   0  0  0  0  0  0  0  0  0  0  0  0
   61.0940   30.8895   48.9961 H   0  0  0  0  0  0  0  0  0  0  0  0
   61.9785   29.8652   47.8149 H   0  0  0  0  0  0  0  0  0  0  0  0
   62.2163   31.6457   47.8149 H   0  0  0  0  0  0  0  0  0  0  0  0
   60.7683   33.1625   48.4303 H   0  0  0  0  0  0  0  0  0  0  0  0
   59.4983   35.2796   48.2733 H   0  0  0  0  0  0  0  0  0  0  0  0
   57.6272   35.4361   46.6120 H   0  0  0  0  0  0  0  0  0  0  0  0
   57.1026   33.4933   45.1869 H   0  0  0  0  0  0  0  0  0  0  0  0
  1  2  1  0
  2  3  1  0
  3  4  2  0
  4  5  1  0
  5  6  1  0
  6  7  2  0
  7  8  1  0
  8  9  1  0
  9 10  2  3
  9 11  1  0
 11 12  1  0
 12 13  2  3
  4 14  1  0
 14 15  2  0
 15 16  1  0
 15 17  1  0
 17 18  2  0
 18 19  1  0
 19 20  2  0
 20 21  1  0
 21 22  2  0
 22  3  1  0
 12  6  1  0
 22 17  1  0
  1 23  1  0
  1 24  1  0
  1 25  1  0
  5 26  1  0
  5 27  1  0
  7 28  1  0
  8 29  1  0
 10 30  1  0
 11 31  1  0
 13 32  1  0
 14 33  1  0
 16 34  1  0
 16 35  1  0
 16 36  1  0
 18 37  1  0
 19 38  1  0
 20 39  1  0
 21 40  1  0
M  END
>  <smiles>  (21) 
COc1c(Cc2c[nH]c(=N)[nH]c2=N)cc(C)c2ccccc12

>  <score_type>  (21) 
oracle

>  <origin>  (21) 
adg

>  <m_score__min__energy>  (21) 
-7.3899999999999997

>  <m_primary>  (21) 
energy

$$$$
21:0
     RDKit          3D

 48 51  0  0  0  0  0  0  0  0999 V2000
   63.7520   33.8630   50.0840 C   0  0  0  0  0  0  0  0  0  0  0  0
   64.0380   32.9020   49.0070 N   0  0  0  0  0  0  0  0  0  0  0  0
   63.7390   33.4640   47.6730 C   0  0  0  0  0  0  0  0  0  0  0  0
   62.2270   33.6200   47.4210 C   0  0  0  0  0  0  0  0  0  0  0  0
   61.4040   32.4380   47.9850 C   0  0  0  0  0  0  0  0  0  0  0  0
   60.2480   32.0730   47.0840 C   0  0  0  0  0  0  0  0  0  0  0  0
   59.8100   30.7780   46.8180 C   0  0  0  0  0  0  0  0  0  0  0  0
   58.7780   30.7980   45.9430 N   0  0  0  0  0  0  0  0  0  0  0  0
   58.0820   29.6410   45.4610 C   0  0  0  0  0  0  0  0  0  0  0  0
   56.8400   29.7120   45.2540 O   0  0  0  0  0  0  0  0  0  0  0  0
   58.7980   28.4220   45.1960 N   0  0  0  0  0  0  0  0  0  0  0  0
   58.1800   27.2030   44.7520 C   0  0  0  0  0  0  0  0  0  0  0  0
   57.6540   26.3150   45.7020 C   0  0  0  0  0  0  0  0  0  0  0  0
   57.0690   25.1110   45.2990 C   0  0  0  0  0  0  0  0  0  0  0  0
   57.0190   24.7750   43.9430 C   0  0  0  0  0  0  0  0  0  0  0  0
   56.2880   23.2630   43.4380 Cl  0  0  0  0  0  0  0  0  0  0  0  0
   57.5650   25.6410   42.9900 C   0  0  0  0  0  0  0  0  0  0  0  0
   58.1490   26.8480   43.3910 C   0  0  0  0  0  0  0  0  0  0  0  0
   58.5710   32.0940   45.6260 C   0  0  0  0  0  0  0  0  0  0  0  0
   57.6760   32.6240   44.6880 C   0  0  0  0  0  0  0  0  0  0  0  0
   57.6630   34.0170   44.4980 C   0  0  0  0  0  0  0  0  0  0  0  0
   58.5440   34.8450   45.2240 C   0  0  0  0  0  0  0  0  0  0  0  0
   59.4560   34.2900   46.1360 C   0  0  0  0  0  0  0  0  0  0  0  0
   59.4500   32.9030   46.3090 C   0  0  0  0  0  0  0  0  0  0  0  0
   62.2810   31.2130   48.2790 C   0  0  0  0  0  0  0  0  0  0  0  0
   63.4160   31.5740   49.2570 C   0  0  0  0  0  0  0  0  0  0  0  0
   63.8973   33.3749   51.0590 H   0  0  0  0  0  0  0  0  0  0  0  0
   64.4333   34.7224   49.9990 H   0  0  0  0  0  0  0  0  0  0  0  0
   62.7116   34.2100   49.9990 H   0  0  0  0  0  0  0  0  0  0  0  0
   64.2134   34.4532   47.5931 H   0  0  0  0  0  0  0  0  0  0  0  0
   64.1316   32.7638   46.9209 H   0  0  0  0  0  0  0  0  0  0  0  0
   61.8840   34.5485   47.9007 H   0  0  0  0  0  0  0  0  0  0  0  0
   62.0718   33.6440   46.3323 H   0  0  0  0  0  0  0  0  0  0  0  0
   60.9836   32.7806   48.9420 H   0  0  0  0  0  0  0  0  0  0  0  0
   60.2422   29.8669   47.2575 H   0  0  0  0  0  0  0  0  0  0  0  0
   59.8220   28.3980   45.3990 H   0  0  0  0  0  0  0  0  0  0  0  0
   57.7022   26.5678   46.7715 H   0  0  0  0  0  0  0  0  0  0  0  0
   56.6473   24.4269   46.0501 H   0  0  0  0  0  0  0  0  0  0  0  0
   57.5353   25.3730   41.9236 H   0  0  0  0  0  0  0  0  0  0  0  0
   58.5855   27.5218   42.6390 H   0  0  0  0  0  0  0  0  0  0  0  0
   57.0023   31.9689   44.1162 H   0  0  0  0  0  0  0  0  0  0  0  0
   56.9612   34.4639   43.7785 H   0  0  0  0  0  0  0  0  0  0  0  0
   58.5165   35.9345   45.0746 H   0  0  0  0  0  0  0  0  0  0  0  0
   60.1544   34.9278   46.6976 H   0  0  0  0  0  0  0  0  0  0  0  0
   61.6589   30.4228   48.7245 H   0  0  0  0  0  0  0  0  0  0  0  0
   62.7264   30.8639   47.3357 H   0  0  0  0  0  0  0  0  0  0  0  0
   63.0054   31.5721   50.2775 H   0  0  0  0  0  0  0  0  0  0  0  0
   64.2069   30.8229   49.1140 H   0  0  0  0  0  0  0  0  0  0  0  0
  1  2  1  0
  2  3  1  0
  3  4  1  0
  4  5  1  0
  5  6  1  0
  6  7  2  0
  7  8  1  0
  8  9  1  0
  9 10  2  0
  9 11  1  0
 11 12  1  0
 12 13  2  0
 13 14  1  0
 14 15  2  0
 15 16  1  0
 15 17  1  0
 17 18  2  0
  8 19  1  0
 19 20  2  0
 20 21  1  0
 21 22  2  0
 22 23  1  0
 23 24  2  0
  5 25  1  0
 25 26  1  0
 26  2  1  0
 24  6  1  0
 18 12  1  0
 24 19  1  0
  1 27  1  0
  1 28  1  0
  1 29  1  0
  3 30  1  0
  3 31  1  0
  4 32  1  0
  4 33  1  0
  5 34  1  0
  7 35  1  0
 11 36  1  0
 13 37  1  0
 14 38  1  0
 17 39  1  0
 18 40  1  0
 20 41  1  0
 21 42  1  0
 22 43  1  0
 23 44  1  0
 25 45  1  0
 25 46  1  0
 26 47  1  0
 26 48  1  0
M  END
>  <UniqueID>  (22) 
20

>  <SMILES>  (22) 
CN1CCC(c2cn(C(=O)Nc3ccc(Cl)cc3)c3ccccc23)CC1

>  <Energy>  (22) 
101.76958754223247

>  <Genealogy>  (22) 
CN1CCC(c2cn(C(=O)Nc3ccc(Cl)cc3)c3ccccc23)CC1 (3D coordinates assigned)
CN1CCC(c2cn(C(=O)Nc3ccc(Cl)cc3)c3ccccc23)CC1 (nonaromatic ring conformer: 101.76958754223247 kcal/mol)

>  <smiles>  (22) 
CN1CCC(c2cn(C(=O)Nc3ccc(Cl)cc3)c3ccccc23)CC1

>  <score_type>  (22) 
oracle

>  <origin>  (22) 
adg

>  <m_score__min__energy>  (22) 
-8.9100000000000001

>  <m_primary>  (22) 
energy

$$$$
22:0
     RDKit          3D

 33 33  0  0  0  0  0  0  0  0999 V2000
   59.5250   26.4470   46.6750 C   0  0  0  0  0  0  0  0  0  0  0  0
   58.2190   25.8090   46.2410 C   0  0  0  0  0  0  0  0  0  0  0  0
   57.3150   26.9020   45.8120 C   0  0  0  0  0  0  0  0  0  0  0  0
   56.1240   26.8780   46.1870 O   0  0  0  0  0  0  0  0  0  0  0  0
   57.8250   27.9340   44.9960 N   0  0  0  0  0  0  0  0  0  0  0  0
   57.0100   29.0030   44.5550 C   0  0  0  0  0  0  0  0  0  0  0  0
   55.7910   29.1890   44.8040 N   0  0  0  0  0  0  0  0  0  0  0  0
   57.6680   29.9890   43.7270 N   0  0  0  0  0  0  0  0  0  0  0  0
   57.0890   31.2620   43.4230 C   0  0  0  0  0  0  0  0  0  0  0  0
   57.9280   32.4070   43.8990 C   0  0  0  0  0  0  0  0  0  0  0  0
   57.1880   33.3080   44.8780 C   0  0  0  0  0  0  0  0  0  0  0  0
   58.2090   33.9320   45.7620 C   0  0  0  0  0  0  0  0  0  0  0  0
   59.2460   34.7410   45.2910 C   0  0  0  0  0  0  0  0  0  0  0  0
   59.9650   35.1220   46.3840 N   0  0  0  0  0  0  0  0  0  0  0  0
   59.4020   34.5730   47.4950 C   0  0  0  0  0  0  0  0  0  0  0  0
   58.3370   33.8540   47.1030 N   0  0  0  0  0  0  0  0  0  0  0  0
   59.5741   26.4710   47.7736 H   0  0  0  0  0  0  0  0  0  0  0  0
   60.3682   25.8593   46.2830 H   0  0  0  0  0  0  0  0  0  0  0  0
   59.5798   27.4733   46.2830 H   0  0  0  0  0  0  0  0  0  0  0  0
   58.3976   25.1180   45.4040 H   0  0  0  0  0  0  0  0  0  0  0  0
   57.7723   25.2362   47.0671 H   0  0  0  0  0  0  0  0  0  0  0  0
   58.8510   27.8730   44.7250 H   0  0  0  0  0  0  0  0  0  0  0  0
   55.1360   28.5650   45.2440 H   0  0  0  0  0  0  0  0  0  0  0  0
   58.6080   29.7730   43.3270 H   0  0  0  0  0  0  0  0  0  0  0  0
   56.9695   31.3428   42.3325 H   0  0  0  0  0  0  0  0  0  0  0  0
   56.1218   31.3199   43.9437 H   0  0  0  0  0  0  0  0  0  0  0  0
   58.8225   32.0050   44.3973 H   0  0  0  0  0  0  0  0  0  0  0  0
   58.1913   33.0147   43.0207 H   0  0  0  0  0  0  0  0  0  0  0  0
   56.6373   34.0870   44.3304 H   0  0  0  0  0  0  0  0  0  0  0  0
   56.4625   32.7292   45.4685 H   0  0  0  0  0  0  0  0  0  0  0  0
   59.4432   35.0161   44.2444 H   0  0  0  0  0  0  0  0  0  0  0  0
   60.8150   35.7350   46.4010 H   0  0  0  0  0  0  0  0  0  0  0  0
   59.7559   34.6961   48.5292 H   0  0  0  0  0  0  0  0  0  0  0  0
  1  2  1  0
  2  3  1  0
  3  4  2  0
  3  5  1  0
  5  6  1  0
  6  7  2  3
  6  8  1  0
  8  9  1  0
  9 10  1  0
 10 11  1  0
 11 12  1  0
 12 13  2  0
 13 14  1  0
 14 15  1  0
 15 16  2  0
 16 12  1  0
  1 17  1  0
  1 18  1  0
  1 19  1  0
  2 20  1  0
  2 21  1  0
  5 22  1  0
  7 23  1  0
  8 24  1  0
  9 25  1  0
  9 26  1  0
 10 27  1  0
 10 28  1  0
 11 29  1  0
 11 30  1  0
 13 31  1  0
 14 32  1  0
 15 33  1  0
M  END
>  <smiles>  (23) 
CCC(=O)NC(=N)NCCCc1c[nH]cn1

>  <score_type>  (23) 
oracle

>  <origin>  (23) 
adg

>  <m_score__min__energy>  (23) 
-6.0599999999999996

>  <m_primary>  (23) 
energy

$$$$
23:0
     RDKit          3D

 44 47  0  0  0  0  0  0  0  0999 V2000
   56.3970   23.1140   48.1980 C   0  0  0  0  0  0  0  0  0  0  0  0
   56.6930   24.3660   47.4270 C   0  0  0  0  0  0  0  0  0  0  0  0
   55.9010   24.7200   46.3270 C   0  0  0  0  0  0  0  0  0  0  0  0
   56.2030   25.8600   45.5800 C   0  0  0  0  0  0  0  0  0  0  0  0
   57.3120   26.6500   45.9020 C   0  0  0  0  0  0  0  0  0  0  0  0
   57.5870   27.7990   45.0910 N   0  0  0  0  0  0  0  0  0  0  0  0
   56.8660   29.0330   45.1770 C   0  0  0  0  0  0  0  0  0  0  0  0
   55.6290   29.0650   44.9370 O   0  0  0  0  0  0  0  0  0  0  0  0
   57.5620   30.2600   45.5790 C   0  0  0  0  0  0  0  0  0  0  0  0
   58.8460   30.3480   46.0560 C   0  0  0  0  0  0  0  0  0  0  0  0
   59.1260   31.6440   46.3060 N   0  0  0  0  0  0  0  0  0  0  0  0
   57.9890   32.3160   45.9600 C   0  0  0  0  0  0  0  0  0  0  0  0
   57.0170   31.4880   45.5180 N   0  0  0  0  0  0  0  0  0  0  0  0
   57.7140   33.8000   46.0490 C   0  0  0  0  0  0  0  0  0  0  0  0
   58.8910   34.7170   46.3850 C   0  0  0  0  0  0  0  0  0  0  0  0
   60.1590   34.3440   45.6190 C   0  0  0  0  0  0  0  0  0  0  0  0
   60.9440   33.3640   46.4280 C   0  0  0  0  0  0  0  0  0  0  0  0
   62.1780   33.7300   46.8730 N   0  0  0  0  0  0  0  0  0  0  0  0
   62.9280   32.9300   47.6740 C   0  0  0  0  0  0  0  0  0  0  0  0
   62.4310   31.6960   48.0820 C   0  0  0  0  0  0  0  0  0  0  0  0
   61.1700   31.2910   47.6490 C   0  0  0  0  0  0  0  0  0  0  0  0
   60.4000   32.1160   46.8050 C   0  0  0  0  0  0  0  0  0  0  0  0
   58.0990   26.3230   47.0330 C   0  0  0  0  0  0  0  0  0  0  0  0
   59.2540   27.1810   47.4740 C   0  0  0  0  0  0  0  0  0  0  0  0
   57.7980   25.1620   47.7650 C   0  0  0  0  0  0  0  0  0  0  0  0
   56.4473   23.3267   49.2761 H   0  0  0  0  0  0  0  0  0  0  0  0
   55.3893   22.7552   47.9417 H   0  0  0  0  0  0  0  0  0  0  0  0
   57.1374   22.3419   47.9417 H   0  0  0  0  0  0  0  0  0  0  0  0
   55.0375   24.0970   46.0507 H   0  0  0  0  0  0  0  0  0  0  0  0
   55.5630   26.1398   44.7302 H   0  0  0  0  0  0  0  0  0  0  0  0
   59.5327   29.5024   46.2090 H   0  0  0  0  0  0  0  0  0  0  0  0
   57.3143   34.1201   45.0754 H   0  0  0  0  0  0  0  0  0  0  0  0
   57.0238   33.9068   46.8989 H   0  0  0  0  0  0  0  0  0  0  0  0
   58.6164   35.7514   46.1307 H   0  0  0  0  0  0  0  0  0  0  0  0
   59.1043   34.6081   47.4586 H   0  0  0  0  0  0  0  0  0  0  0  0
   59.8874   33.8920   44.6536 H   0  0  0  0  0  0  0  0  0  0  0  0
   60.7630   35.2453   45.4378 H   0  0  0  0  0  0  0  0  0  0  0  0
   63.9265   33.2569   47.9997 H   0  0  0  0  0  0  0  0  0  0  0  0
   63.0276   31.0468   48.7397 H   0  0  0  0  0  0  0  0  0  0  0  0
   60.7714   30.3171   47.9693 H   0  0  0  0  0  0  0  0  0  0  0  0
   59.2915   27.2088   48.5730 H   0  0  0  0  0  0  0  0  0  0  0  0
   60.1930   26.7597   47.0857 H   0  0  0  0  0  0  0  0  0  0  0  0
   59.1218   28.2017   47.0857 H   0  0  0  0  0  0  0  0  0  0  0  0
   58.4363   24.8737   48.6132 H   0  0  0  0  0  0  0  0  0  0  0  0
  1  2  1  0
  2  3  2  0
  3  4  1  0
  4  5  2  0
  5  6  1  0
  6  7  1  0
  7  8  2  0
  7  9  1  0
  9 10  2  0
 10 11  1  0
 11 12  1  0
 12 13  2  0
 12 14  1  0
 14 15  1  0
 15 16  1  0
 16 17  1  0
 17 18  2  0
 18 19  1  0
 19 20  2  0
 20 21  1  0
 21 22  2  0
  5 23  1  0
 23 24  1  0
 23 25  2  0
 25  2  1  0
 13  9  1  0
 22 17  1  0
 22 11  1  0
  1 26  1  0
  1 27  1  0
  1 28  1  0
  3 29  1  0
  4 30  1  0
 10 31  1  0
 14 32  1  0
 14 33  1  0
 15 34  1  0
 15 35  1  0
 16 36  1  0
 16 37  1  0
 19 38  1  0
 20 39  1  0
 21 40  1  0
 24 41  1  0
 24 42  1  0
 24 43  1  0
 25 44  1  0
M  CHG  1   6  -1
M  END
>  <UniqueID>  (24) 
21

>  <SMILES>  (24) 
Cc1ccc([N-]C(=O)c2cn3c(n2)CCCc2ncccc2-3)c(C)c1

>  <Energy>  (24) 
93.65271453618526

>  <Genealogy>  (24) 
Cc1ccc([N-]C(=O)c2cn3c(n2)CCCc2ncccc2-3)c(C)c1 (protonated)
Cc1ccc([N-]C(=O)c2cn3c(n2)CCCc2ncccc2-3)c(C)c1 (3D coordinates assigned)
Cc1ccc([N-]C(=O)c2cn3c(n2)CCCc2ncccc2-3)c(C)c1 (nonaromatic ring conformer: 93.65271453618526 kcal/mol)

>  <smiles>  (24) 
Cc1ccc(NC(=O)c2cn3c(n2)CCCc2ncccc2-3)c(C)c1

>  <score_type>  (24) 
oracle

>  <origin>  (24) 
adg

>  <m_score__min__energy>  (24) 
-8.2599999999999998

>  <m_primary>  (24) 
energy

$$$$
24:0
     RDKit          3D

 43 45  0  0  0  0  0  0  0  0999 V2000
   55.5360   29.7650   43.9630 C   0  0  0  0  0  0  0  0  0  0  0  0
   56.9170   30.3020   43.5980 C   0  0  0  0  0  0  0  0  0  0  0  0
   57.3220   31.4620   44.5190 C   0  0  0  0  0  0  0  0  0  0  0  0
   58.3150   32.3390   43.8610 N   0  0  0  0  0  0  0  0  0  0  0  0
   58.1030   32.4200   42.4030 C   0  0  0  0  0  0  0  0  0  0  0  0
   58.3830   33.6820   44.4840 C   0  0  0  0  0  0  0  0  0  0  0  0
   59.0680   33.6920   45.8360 C   0  0  0  0  0  0  0  0  0  0  0  0
   58.3260   33.9170   47.0090 C   0  0  0  0  0  0  0  0  0  0  0  0
   58.9560   33.9400   48.2550 C   0  0  0  0  0  0  0  0  0  0  0  0
   60.3390   33.7320   48.3470 C   0  0  0  0  0  0  0  0  0  0  0  0
   60.9970   33.7520   49.5840 C   0  0  0  0  0  0  0  0  0  0  0  0
   62.3820   33.5500   49.6430 C   0  0  0  0  0  0  0  0  0  0  0  0
   63.0870   33.2960   48.4510 C   0  0  0  0  0  0  0  0  0  0  0  0
   62.4300   33.2840   47.2590 N   0  0  0  0  0  0  0  0  0  0  0  0
   61.0890   33.4940   47.1760 C   0  0  0  0  0  0  0  0  0  0  0  0
   60.4530   33.4720   45.9300 C   0  0  0  0  0  0  0  0  0  0  0  0
   64.5030   33.0800   48.4850 N   0  0  0  0  0  0  0  0  0  0  0  0
   65.2230   32.9500   49.7510 C   0  0  0  0  0  0  0  0  0  0  0  0
   64.5880   33.8450   50.8190 C   0  0  0  0  0  0  0  0  0  0  0  0
   63.0940   33.5270   50.9730 C   0  0  0  0  0  0  0  0  0  0  0  0
   55.4354   29.7259   45.0577 H   0  0  0  0  0  0  0  0  0  0  0  0
   54.7631   30.4281   43.5472 H   0  0  0  0  0  0  0  0  0  0  0  0
   55.4141   28.7539   43.5472 H   0  0  0  0  0  0  0  0  0  0  0  0
   57.6545   29.4918   43.6957 H   0  0  0  0  0  0  0  0  0  0  0  0
   56.8843   30.6735   42.5631 H   0  0  0  0  0  0  0  0  0  0  0  0
   56.4282   32.0533   44.7671 H   0  0  0  0  0  0  0  0  0  0  0  0
   57.7730   31.0444   45.4312 H   0  0  0  0  0  0  0  0  0  0  0  0
   57.0931   32.8059   42.2002 H   0  0  0  0  0  0  0  0  0  0  0  0
   58.8495   33.0963   41.9609 H   0  0  0  0  0  0  0  0  0  0  0  0
   58.2084   31.4183   41.9609 H   0  0  0  0  0  0  0  0  0  0  0  0
   58.9373   34.3505   43.8088 H   0  0  0  0  0  0  0  0  0  0  0  0
   57.3470   34.0143   44.6459 H   0  0  0  0  0  0  0  0  0  0  0  0
   57.2395   34.0763   46.9445 H   0  0  0  0  0  0  0  0  0  0  0  0
   58.3661   34.1216   49.1655 H   0  0  0  0  0  0  0  0  0  0  0  0
   60.4264   33.9262   50.5081 H   0  0  0  0  0  0  0  0  0  0  0  0
   61.0399   33.2816   45.0193 H   0  0  0  0  0  0  0  0  0  0  0  0
   65.0210   32.9290   47.5900 H   0  0  0  0  0  0  0  0  0  0  0  0
   65.1832   31.9027   50.0850 H   0  0  0  0  0  0  0  0  0  0  0  0
   66.2681   33.2588   49.6011 H   0  0  0  0  0  0  0  0  0  0  0  0
   65.0946   33.6753   51.7805 H   0  0  0  0  0  0  0  0  0  0  0  0
   64.6968   34.8955   50.5114 H   0  0  0  0  0  0  0  0  0  0  0  0
   62.9858   32.5272   51.4187 H   0  0  0  0  0  0  0  0  0  0  0  0
   62.6431   34.2953   51.6183 H   0  0  0  0  0  0  0  0  0  0  0  0
  1  2  1  0
  2  3  1  0
  3  4  1  0
  4  5  1  0
  4  6  1  0
  6  7  1  0
  7  8  2  0
  8  9  1  0
  9 10  2  0
 10 11  1  0
 11 12  2  0
 12 13  1  0
 13 14  2  0
 14 15  1  0
 15 16  2  0
 13 17  1  0
 17 18  1  0
 18 19  1  0
 19 20  1  0
 16  7  1  0
 15 10  1  0
 20 12  1  0
  1 21  1  0
  1 22  1  0
  1 23  1  0
  2 24  1  0
  2 25  1  0
  3 26  1  0
  3 27  1  0
  5 28  1  0
  5 29  1  0
  5 30  1  0
  6 31  1  0
  6 32  1  0
  8 33  1  0
  9 34  1  0
 11 35  1  0
 16 36  1  0
 17 37  1  0
 18 38  1  0
 18 39  1  0
 19 40  1  0
 19 41  1  0
 20 42  1  0
 20 43  1  0
M  END
>  <UniqueID>  (25) 
22

>  <SMILES>  (25) 
CCCN(C)Cc1ccc2cc3c(nc2c1)NCCC3

>  <Energy>  (25) 
44.038382726217456

>  <Genealogy>  (25) 
CCCN(C)Cc1ccc2cc3c(nc2c1)NCCC3 (3D coordinates assigned)
CCCN(C)Cc1ccc2cc3c(nc2c1)NCCC3 (nonaromatic ring conformer: 44.038382726217456 kcal/mol)

>  <smiles>  (25) 
CCCN(C)Cc1ccc2cc3c(nc2c1)NCCC3

>  <score_type>  (25) 
oracle

>  <origin>  (25) 
adg

>  <m_score__min__energy>  (25) 
-7.1299999999999999

>  <m_primary>  (25) 
energy

$$$$
25:0
     RDKit          3D

 28 29  0  0  0  0  0  0  0  0999 V2000
   58.9970   24.1730   45.4390 H   0  0  0  0  0  0  0  0  0  0  0  0
   58.0190   23.8570   45.2550 N   0  0  0  0  0  0  0  0  0  0  0  0
   56.9860   24.6130   45.4670 C   0  0  0  0  0  0  0  0  0  0  0  0
   55.6920   24.0790   45.3760 C   0  0  0  0  0  0  0  0  0  0  0  0
   55.5472   23.0211   45.1115 H   0  0  0  0  0  0  0  0  0  0  0  0
   54.5900   24.8980   45.6230 C   0  0  0  0  0  0  0  0  0  0  0  0
   53.5727   24.4866   45.5469 H   0  0  0  0  0  0  0  0  0  0  0  0
   54.7700   26.2010   45.9570 N   0  0  0  0  0  0  0  0  0  0  0  0
   56.0100   26.7490   46.0540 C   0  0  0  0  0  0  0  0  0  0  0  0
   56.1192   27.8083   46.3297 H   0  0  0  0  0  0  0  0  0  0  0  0
   57.1510   25.9730   45.8050 C   0  0  0  0  0  0  0  0  0  0  0  0
   58.7500   26.7140   45.9810 S   0  0  0  0  0  0  0  0  0  0  0  0
   59.7790   25.6370   46.1840 O   0  0  0  0  0  0  0  0  0  0  0  0
   58.7770   27.6230   47.1780 O   0  0  0  0  0  0  0  0  0  0  0  0
   59.1620   27.6380   44.5100 C   0  0  0  0  0  0  0  0  0  0  0  0
   60.2356   27.8773   44.5222 H   0  0  0  0  0  0  0  0  0  0  0  0
   58.9182   27.0277   43.6279 H   0  0  0  0  0  0  0  0  0  0  0  0
   58.3720   28.9150   44.4490 C   0  0  0  0  0  0  0  0  0  0  0  0
   57.1590   28.9660   43.7420 C   0  0  0  0  0  0  0  0  0  0  0  0
   56.8075   28.0802   43.1926 H   0  0  0  0  0  0  0  0  0  0  0  0
   56.3970   30.1380   43.7340 C   0  0  0  0  0  0  0  0  0  0  0  0
   55.4492   30.1732   43.1769 H   0  0  0  0  0  0  0  0  0  0  0  0
   56.8380   31.2650   44.4330 C   0  0  0  0  0  0  0  0  0  0  0  0
   56.2379   32.1869   44.4247 H   0  0  0  0  0  0  0  0  0  0  0  0
   58.0420   31.2210   45.1430 C   0  0  0  0  0  0  0  0  0  0  0  0
   58.3884   32.1086   45.6927 H   0  0  0  0  0  0  0  0  0  0  0  0
   58.8060   30.0500   45.1550 C   0  0  0  0  0  0  0  0  0  0  0  0
   59.7499   30.0171   45.7189 H   0  0  0  0  0  0  0  0  0  0  0  0
  1  2  1  0
  2  3  2  0
  3  4  1  0
  4  5  1  0
  4  6  2  0
  6  7  1  0
  6  8  1  0
  8  9  1  0
  9 10  1  0
  9 11  2  0
 11 12  1  0
 12 13  2  0
 12 14  2  0
 12 15  1  0
 15 16  1  0
 15 17  1  0
 15 18  1  0
 18 19  2  0
 19 20  1  0
 19 21  1  0
 21 22  1  0
 21 23  2  0
 23 24  1  0
 23 25  1  0
 25 26  1  0
 25 27  2  0
 27 28  1  0
 11  3  1  0
 27 18  1  0
M  CHG  1   8  -1
M  END
>  <UniqueID>  (26) 
23

>  <SMILES>  (26) 
[H]/N=c1\cc[n-]cc1S(=O)(=O)Cc1ccccc1

>  <Energy>  (26) 
26.682491403786127

>  <Genealogy>  (26) 
N=c1cc[n-]cc1S(=O)(=O)Cc1ccccc1 (protonated)
[H]/N=c1\cc[n-]cc1S(=O)(=O)Cc1ccccc1 (cis-trans isomerization)
[H]/N=c1\cc[n-]cc1S(=O)(=O)Cc1ccccc1 (3D coordinates assigned)
[H]/N=c1\cc[n-]cc1S(=O)(=O)Cc1ccccc1 (optimized conformer: 26.682491403786127 kcal/mol)

>  <smiles>  (26) 
N=c1cc[nH]cc1S(=O)(=O)Cc1ccccc1

>  <score_type>  (26) 
oracle

>  <origin>  (26) 
adg

>  <m_score__min__energy>  (26) 
-7.8899999999999997

>  <m_primary>  (26) 
energy

$$$$
26:0
     RDKit          3D

 33 34  0  0  0  0  0  0  0  0999 V2000
   56.6350   29.3460   42.9220 C   0  0  0  0  0  0  0  0  0  0  0  0
   55.6080   29.9750   43.8550 C   0  0  0  0  0  0  0  0  0  0  0  0
   56.2820   30.8700   44.8060 N   0  0  0  0  0  0  0  0  0  0  0  0
   57.2460   31.7450   44.1260 C   0  0  0  0  0  0  0  0  0  0  0  0
   58.1240   32.4680   45.1260 C   0  0  0  0  0  0  0  0  0  0  0  0
   58.1100   33.8740   45.1550 C   0  0  0  0  0  0  0  0  0  0  0  0
   58.9380   34.5780   46.0320 C   0  0  0  0  0  0  0  0  0  0  0  0
   59.7940   33.8880   46.8900 C   0  0  0  0  0  0  0  0  0  0  0  0
   59.8210   32.4930   46.8790 C   0  0  0  0  0  0  0  0  0  0  0  0
   58.9860   31.7700   46.0120 C   0  0  0  0  0  0  0  0  0  0  0  0
   59.0520   30.2940   46.0350 C   0  0  0  0  0  0  0  0  0  0  0  0
   59.6230   29.6010   44.9550 C   0  0  0  0  0  0  0  0  0  0  0  0
   59.6820   28.2040   44.9690 C   0  0  0  0  0  0  0  0  0  0  0  0
   59.1790   27.4930   46.0620 C   0  0  0  0  0  0  0  0  0  0  0  0
   58.6200   28.1780   47.1450 C   0  0  0  0  0  0  0  0  0  0  0  0
   58.5580   29.5750   47.1340 C   0  0  0  0  0  0  0  0  0  0  0  0
   57.4238   28.8629   43.5173 H   0  0  0  0  0  0  0  0  0  0  0  0
   56.1423   28.5946   42.2875 H   0  0  0  0  0  0  0  0  0  0  0  0
   57.0805   30.1264   42.2875 H   0  0  0  0  0  0  0  0  0  0  0  0
   54.8815   30.5512   43.2632 H   0  0  0  0  0  0  0  0  0  0  0  0
   55.0871   29.1810   44.4101 H   0  0  0  0  0  0  0  0  0  0  0  0
   55.5520   31.4840   45.2390 H   0  0  0  0  0  0  0  0  0  0  0  0
   57.8802   31.1360   43.4650 H   0  0  0  0  0  0  0  0  0  0  0  0
   56.6888   32.4938   43.5439 H   0  0  0  0  0  0  0  0  0  0  0  0
   57.4394   34.4253   44.4794 H   0  0  0  0  0  0  0  0  0  0  0  0
   58.9150   35.6777   46.0461 H   0  0  0  0  0  0  0  0  0  0  0  0
   60.4490   34.4445   47.5766 H   0  0  0  0  0  0  0  0  0  0  0  0
   60.5020   31.9552   47.5551 H   0  0  0  0  0  0  0  0  0  0  0  0
   60.0248   30.1586   44.0961 H   0  0  0  0  0  0  0  0  0  0  0  0
   60.1247   27.6642   44.1190 H   0  0  0  0  0  0  0  0  0  0  0  0
   59.2229   26.3939   46.0702 H   0  0  0  0  0  0  0  0  0  0  0  0
   58.2285   27.6175   48.0067 H   0  0  0  0  0  0  0  0  0  0  0  0
   58.1209   30.1115   47.9890 H   0  0  0  0  0  0  0  0  0  0  0  0
  1  2  1  0
  2  3  1  0
  3  4  1  0
  4  5  1  0
  5  6  2  0
  6  7  1  0
  7  8  2  0
  8  9  1  0
  9 10  2  0
 10 11  1  0
 11 12  2  0
 12 13  1  0
 13 14  2  0
 14 15  1  0
 15 16  2  0
 10  5  1  0
 16 11  1  0
  1 17  1  0
  1 18  1  0
  1 19  1  0
  2 20  1  0
  2 21  1  0
  3 22  1  0
  4 23  1  0
  4 24  1  0
  6 25  1  0
  7 26  1  0
  8 27  1  0
  9 28  1  0
 12 29  1  0
 13 30  1  0
 14 31  1  0
 15 32  1  0
 16 33  1  0
M  END
>  <UniqueID>  (27) 
24

>  <SMILES>  (27) 
CCNCc1ccccc1-c1ccccc1

>  <Energy>  (27) 
36.661128845116714

>  <Genealogy>  (27) 
CCNCc1ccccc1-c1ccccc1 (3D coordinates assigned)
CCNCc1ccccc1-c1ccccc1 (optimized conformer: 36.661128845116714 kcal/mol)

>  <smiles>  (27) 
CCNCc1ccccc1-c1ccccc1

>  <score_type>  (27) 
oracle

>  <origin>  (27) 
adg

>  <m_score__min__energy>  (27) 
-6.29

>  <m_primary>  (27) 
energy

$$$$
27:0
     RDKit          3D

 32 33  0  0  0  0  0  0  0  0999 V2000
   60.6671   35.4830   45.6201 H   0  0  0  0  0  0  0  0  0  0  0  0
   60.3940   34.6910   46.3330 C   0  0  0  0  0  0  0  0  0  0  0  0
   59.0960   34.3700   46.4570 C   0  0  0  0  0  0  0  0  0  0  0  0
   58.4394   35.0650   47.0009 H   0  0  0  0  0  0  0  0  0  0  0  0
   58.4970   33.1310   45.9020 C   0  0  0  0  0  0  0  0  0  0  0  0
   57.7290   33.1230   44.7210 C   0  0  0  0  0  0  0  0  0  0  0  0
   57.5632   34.0608   44.1705 H   0  0  0  0  0  0  0  0  0  0  0  0
   57.1760   31.9300   44.2440 C   0  0  0  0  0  0  0  0  0  0  0  0
   56.5853   31.9360   43.3161 H   0  0  0  0  0  0  0  0  0  0  0  0
   57.3680   30.7240   44.9390 C   0  0  0  0  0  0  0  0  0  0  0  0
   56.7990   29.4950   44.4500 N   0  0  0  0  0  0  0  0  0  0  0  0
   57.4250   28.7810   43.6390 O   0  0  0  0  0  0  0  0  0  0  0  0
   55.5550   29.0840   44.8720 O   0  0  0  0  0  0  0  0  0  0  0  0
   58.1180   30.7370   46.1260 C   0  0  0  0  0  0  0  0  0  0  0  0
   58.2707   29.8020   46.6850 H   0  0  0  0  0  0  0  0  0  0  0  0
   58.6720   31.9280   46.6030 C   0  0  0  0  0  0  0  0  0  0  0  0
   59.2515   31.9224   47.5380 H   0  0  0  0  0  0  0  0  0  0  0  0
   61.4810   34.0370   47.1040 C   0  0  0  0  0  0  0  0  0  0  0  0
   61.3300   33.6490   48.4510 C   0  0  0  0  0  0  0  0  0  0  0  0
   60.3796   33.8385   48.9714 H   0  0  0  0  0  0  0  0  0  0  0  0
   62.3810   33.0250   49.1290 C   0  0  0  0  0  0  0  0  0  0  0  0
   62.2533   32.7355   50.1825 H   0  0  0  0  0  0  0  0  0  0  0  0
   63.5930   32.7650   48.4820 C   0  0  0  0  0  0  0  0  0  0  0  0
   64.6160   32.1390   49.2080 O   0  0  0  0  0  0  0  0  0  0  0  0
   65.4920   32.8100   50.1080 C   0  0  0  0  0  0  0  0  0  0  0  0
   65.1972   32.5842   51.1434 H   0  0  0  0  0  0  0  0  0  0  0  0
   66.5239   32.4691   49.9379 H   0  0  0  0  0  0  0  0  0  0  0  0
   65.4316   33.8951   49.9379 H   0  0  0  0  0  0  0  0  0  0  0  0
   63.7430   33.1360   47.1330 C   0  0  0  0  0  0  0  0  0  0  0  0
   64.6904   32.9343   46.6118 H   0  0  0  0  0  0  0  0  0  0  0  0
   62.6930   33.7600   46.4520 C   0  0  0  0  0  0  0  0  0  0  0  0
   62.8180   34.0366   45.3947 H   0  0  0  0  0  0  0  0  0  0  0  0
  1  2  1  0
  2  3  2  0
  3  4  1  0
  3  5  1  0
  5  6  2  0
  6  7  1  0
  6  8  1  0
  8  9  1  0
  8 10  2  0
 10 11  1  0
 11 12  2  0
 11 13  1  0
 10 14  1  0
 14 15  1  0
 14 16  2  0
 16 17  1  0
  2 18  1  0
 18 19  2  0
 19 20  1  0
 19 21  1  0
 21 22  1  0
 21 23  2  0
 23 24  1  0
 24 25  1  0
 25 26  1  0
 25 27  1  0
 25 28  1  0
 23 29  1  0
 29 30  1  0
 29 31  2  0
 31 32  1  0
 16  5  1  0
 31 18  1  0
M  CHG  2  11   1  13  -1
M  END
>  <UniqueID>  (28) 
25

>  <SMILES>  (28) 
COc1ccc(/C=C/c2ccc([N+](=O)[O-])cc2)cc1

>  <Energy>  (28) 
38.30465717273581

>  <Genealogy>  (28) 
COc1ccc(/C=C/c2ccc([N+](=O)[O-])cc2)cc1 (cis-trans isomerization)
COc1ccc(/C=C/c2ccc([N+](=O)[O-])cc2)cc1 (3D coordinates assigned)
COc1ccc(/C=C/c2ccc([N+](=O)[O-])cc2)cc1 (optimized conformer: 38.30465717273581 kcal/mol)

>  <smiles>  (28) 
COc1ccc(C=Cc2ccc([N+](=O)[O-])cc2)cc1

>  <score_type>  (28) 
oracle

>  <origin>  (28) 
adg

>  <m_score__min__energy>  (28) 
-7.21

>  <m_primary>  (28) 
energy

$$$$
28:0
     RDKit          3D

 37 39  0  0  0  0  0  0  0  0999 V2000
   59.6650   35.1110   46.2790 C   0  0  0  0  0  0  0  0  0  0  0  0
   58.7550   34.2300   47.1250 C   0  0  0  0  0  0  0  0  0  0  0  0
   58.1570   33.1790   46.3020 N   0  0  0  0  0  0  0  0  0  0  0  0
   57.0030   33.2580   45.5950 C   0  0  0  0  0  0  0  0  0  0  0  0
   56.7410   32.1370   44.8720 N   0  0  0  0  0  0  0  0  0  0  0  0
   57.7950   31.3450   45.1460 C   0  0  0  0  0  0  0  0  0  0  0  0
   58.0440   30.0670   44.6550 C   0  0  0  0  0  0  0  0  0  0  0  0
   59.2340   29.4180   45.0610 C   0  0  0  0  0  0  0  0  0  0  0  0
   59.5240   28.0820   44.6050 N   0  0  0  0  0  0  0  0  0  0  0  0
   59.6800   27.1810   45.7550 C   0  0  0  0  0  0  0  0  0  0  0  0
   58.4510   26.3270   45.9260 C   0  0  0  0  0  0  0  0  0  0  0  0
   58.5750   24.9530   46.1870 C   0  0  0  0  0  0  0  0  0  0  0  0
   57.4330   24.1670   46.3800 C   0  0  0  0  0  0  0  0  0  0  0  0
   56.1650   24.7500   46.3260 C   0  0  0  0  0  0  0  0  0  0  0  0
   56.0340   26.1210   46.0830 C   0  0  0  0  0  0  0  0  0  0  0  0
   54.7720   26.7010   46.0380 O   0  0  0  0  0  0  0  0  0  0  0  0
   57.1730   26.9090   45.8890 C   0  0  0  0  0  0  0  0  0  0  0  0
   60.1200   30.0750   45.9570 C   0  0  0  0  0  0  0  0  0  0  0  0
   59.8360   31.3680   46.4330 C   0  0  0  0  0  0  0  0  0  0  0  0
   58.6530   31.9680   46.0020 C   0  0  0  0  0  0  0  0  0  0  0  0
   60.2979   35.7237   46.9378 H   0  0  0  0  0  0  0  0  0  0  0  0
   60.3019   34.4775   45.6441 H   0  0  0  0  0  0  0  0  0  0  0  0
   59.0524   35.7680   45.6441 H   0  0  0  0  0  0  0  0  0  0  0  0
   59.3441   33.7684   47.9312 H   0  0  0  0  0  0  0  0  0  0  0  0
   57.9528   34.8500   47.5517 H   0  0  0  0  0  0  0  0  0  0  0  0
   56.3454   34.1397   45.6053 H   0  0  0  0  0  0  0  0  0  0  0  0
   57.3363   29.5756   43.9711 H   0  0  0  0  0  0  0  0  0  0  0  0
   58.7440   27.7420   43.9930 H   0  0  0  0  0  0  0  0  0  0  0  0
   60.4030   28.0860   44.0360 H   0  0  0  0  0  0  0  0  0  0  0  0
   60.5523   26.5314   45.5903 H   0  0  0  0  0  0  0  0  0  0  0  0
   59.8232   27.7847   46.6633 H   0  0  0  0  0  0  0  0  0  0  0  0
   59.5727   24.4928   46.2400 H   0  0  0  0  0  0  0  0  0  0  0  0
   57.5343   23.0891   46.5744 H   0  0  0  0  0  0  0  0  0  0  0  0
   55.2685   24.1302   46.4747 H   0  0  0  0  0  0  0  0  0  0  0  0
   57.0677   27.9887   45.7067 H   0  0  0  0  0  0  0  0  0  0  0  0
   61.0394   29.5662   46.2824 H   0  0  0  0  0  0  0  0  0  0  0  0
   60.5214   31.8865   47.1195 H   0  0  0  0  0  0  0  0  0  0  0  0
  1  2  1  0
  2  3  1  0
  3  4  1  0
  4  5  2  0
  5  6  1  0
  6  7  2  0
  7  8  1  0
  8  9  1  0
  9 10  1  0
 10 11  1  0
 11 12  2  0
 12 13  1  0
 13 14  2  0
 14 15  1  0
 15 16  1  0
 15 17  2  0
  8 18  2  0
 18 19  1  0
 19 20  2  0
 20  3  1  0
 20  6  1  0
 17 11  1  0
  1 21  1  0
  1 22  1  0
  1 23  1  0
  2 24  1  0
  2 25  1  0
  4 26  1  0
  7 27  1  0
  9 28  1  0
  9 29  1  0
 10 30  1  0
 10 31  1  0
 12 32  1  0
 13 33  1  0
 14 34  1  0
 17 35  1  0
 18 36  1  0
 19 37  1  0
M  CHG  2   9   1  16  -1
M  END
>  <UniqueID>  (29) 
26

>  <SMILES>  (29) 
CCn1cnc2cc([NH2+]Cc3cccc([O-])c3)ccc21

>  <Energy>  (29) 
72.9478012761258

>  <Genealogy>  (29) 
CCn1cnc2cc([NH2+]Cc3cccc([O-])c3)ccc21 (protonated)
CCn1cnc2cc([NH2+]Cc3cccc([O-])c3)ccc21 (3D coordinates assigned)
CCn1cnc2cc([NH2+]Cc3cccc([O-])c3)ccc21 (optimized conformer: 72.9478012761258 kcal/mol)

>  <smiles>  (29) 
CCn1cnc2cc(NCc3cccc(O)c3)ccc21

>  <score_type>  (29) 
oracle

>  <origin>  (29) 
adg

>  <m_score__min__energy>  (29) 
-9.3399999999999999

>  <m_primary>  (29) 
energy

$$$$
29:0
     RDKit          3D

 37 40  0  0  0  0  0  0  0  0999 V2000
   57.1050   34.2350   44.9460 C   0  0  0  0  0  0  0  0  0  0  0  0
   58.4380   33.9930   45.5770 C   0  0  0  0  0  0  0  0  0  0  0  0
   59.2390   34.9860   46.0100 N   0  0  0  0  0  0  0  0  0  0  0  0
   60.3220   34.4320   46.4720 O   0  0  0  0  0  0  0  0  0  0  0  0
   60.2750   33.1240   46.3680 C   0  0  0  0  0  0  0  0  0  0  0  0
   59.0640   32.7760   45.8010 C   0  0  0  0  0  0  0  0  0  0  0  0
   58.5940   31.4050   45.4970 C   0  0  0  0  0  0  0  0  0  0  0  0
   58.3060   31.0340   44.1560 C   0  0  0  0  0  0  0  0  0  0  0  0
   57.8820   29.7700   43.8550 N   0  0  0  0  0  0  0  0  0  0  0  0
   57.7430   28.8640   44.8550 C   0  0  0  0  0  0  0  0  0  0  0  0
   57.3560   27.5860   44.7220 N   0  0  0  0  0  0  0  0  0  0  0  0
   57.3830   27.0740   45.9780 C   0  0  0  0  0  0  0  0  0  0  0  0
   57.0790   25.6310   46.3160 C   0  0  2  0  0  0  0  0  0  0  0  0
   57.4770   24.7060   45.1750 C   0  0  0  0  0  0  0  0  0  0  0  0
   56.1980   24.4840   44.4030 C   0  0  0  0  0  0  0  0  0  0  0  0
   55.0840   24.7320   45.4100 C   0  0  0  0  0  0  0  0  0  0  0  0
   55.6500   25.4130   46.5770 N   0  0  0  0  0  0  0  0  0  0  0  0
   57.8020   28.0340   46.9010 C   0  0  0  0  0  0  0  0  0  0  0  0
   58.0180   29.1710   46.1550 C   0  0  0  0  0  0  0  0  0  0  0  0
   58.4560   30.4380   46.5190 C   0  0  0  0  0  0  0  0  0  0  0  0
   56.3471   34.3726   45.7313 H   0  0  0  0  0  0  0  0  0  0  0  0
   57.1538   35.1390   44.3211 H   0  0  0  0  0  0  0  0  0  0  0  0
   56.8329   33.3716   44.3211 H   0  0  0  0  0  0  0  0  0  0  0  0
   61.0649   32.4246   46.6792 H   0  0  0  0  0  0  0  0  0  0  0  0
   58.4257   31.7731   43.3502 H   0  0  0  0  0  0  0  0  0  0  0  0
   57.6710   29.5060   42.8660 H   0  0  0  0  0  0  0  0  0  0  0  0
   57.1020   27.0960   43.8360 H   0  0  0  0  0  0  0  0  0  0  0  0
   57.6604   25.4059   47.2223 H   0  0  0  0  0  0  0  0  0  0  0  0
   58.2382   25.1800   44.5379 H   0  0  0  0  0  0  0  0  0  0  0  0
   57.9168   23.7641   45.5347 H   0  0  0  0  0  0  0  0  0  0  0  0
   56.1251   25.1910   43.5635 H   0  0  0  0  0  0  0  0  0  0  0  0
   56.1464   23.4745   43.9690 H   0  0  0  0  0  0  0  0  0  0  0  0
   54.3065   25.3627   44.9542 H   0  0  0  0  0  0  0  0  0  0  0  0
   54.6344   23.7756   45.7152 H   0  0  0  0  0  0  0  0  0  0  0  0
   55.1430   26.3150   46.7450 H   0  0  0  0  0  0  0  0  0  0  0  0
   57.9312   27.9094   47.9863 H   0  0  0  0  0  0  0  0  0  0  0  0
   58.6875   30.6806   47.5666 H   0  0  0  0  0  0  0  0  0  0  0  0
  1  2  1  0
  2  3  2  0
  3  4  1  0
  4  5  1  0
  5  6  2  0
  6  7  1  0
  7  8  2  0
  8  9  1  0
  9 10  2  0
 10 11  1  0
 11 12  1  0
 12 13  1  0
 13 14  1  0
 14 15  1  0
 15 16  1  0
 16 17  1  0
 12 18  2  0
 18 19  1  0
 19 20  2  0
  6  2  1  0
 20  7  1  0
 19 10  1  0
 17 13  1  0
  1 21  1  0
  1 22  1  0
  1 23  1  0
  5 24  1  0
  8 25  1  0
  9 26  1  0
 11 27  1  0
 13 28  1  1
 14 29  1  0
 14 30  1  0
 15 31  1  0
 15 32  1  0
 16 33  1  0
 16 34  1  0
 17 35  1  0
 18 36  1  0
 20 37  1  0
M  CHG  1   9   1
M  END
>  <UniqueID>  (30) 
27

>  <SMILES>  (30) 
Cc1nocc1-c1c[nH+]c2[nH]c([C@@H]3CCCN3)cc2c1

>  <Energy>  (30) 
108.35632413812915

>  <Genealogy>  (30) 
Cc1nocc1-c1c[nH+]c2[nH]c(C3CCCN3)cc2c1 (protonated)
Cc1nocc1-c1c[nH+]c2[nH]c([C@@H]3CCCN3)cc2c1 (chirality)
Cc1nocc1-c1c[nH+]c2[nH]c([C@@H]3CCCN3)cc2c1 (3D coordinates assigned)
Cc1nocc1-c1c[nH+]c2[nH]c([C@@H]3CCCN3)cc2c1 (nonaromatic ring conformer: 108.35632413812915 kcal/mol)

>  <smiles>  (30) 
Cc1nocc1-c1cnc2[nH]c(C3CCCN3)cc2c1

>  <score_type>  (30) 
oracle

>  <origin>  (30) 
adg

>  <m_score__min__energy>  (30) 
-6.3499999999999996

>  <m_primary>  (30) 
energy

$$$$
30:0
     RDKit          3D

 38 39  0  0  0  0  0  0  0  0999 V2000
   58.5112   35.0563   44.4123 H   0  0  0  0  0  0  0  0  0  0  0  0
   58.4160   34.0620   44.8730 C   0  0  0  0  0  0  0  0  0  0  0  0
   57.8110   33.0220   44.1620 C   0  0  0  0  0  0  0  0  0  0  0  0
   57.4305   33.2009   43.1455 H   0  0  0  0  0  0  0  0  0  0  0  0
   57.6880   31.7520   44.7410 C   0  0  0  0  0  0  0  0  0  0  0  0
   56.9320   30.4360   43.8480 S   0  0  0  0  0  0  0  0  0  0  0  0
   55.6370   30.0770   44.5200 O   0  0  0  0  0  0  0  0  0  0  0  0
   56.6480   30.8500   42.4310 O   0  0  0  0  0  0  0  0  0  0  0  0
   57.9690   29.0420   43.8370 N   0  0  0  0  0  0  0  0  0  0  0  0
   58.0360   28.1130   44.7500 C   0  0  0  0  0  0  0  0  0  0  0  0
   59.2650   27.6300   45.2460 C   0  0  0  0  0  0  0  0  0  0  0  0
   60.2136   28.0318   44.8605 H   0  0  0  0  0  0  0  0  0  0  0  0
   59.2700   26.6390   46.2290 C   0  0  0  0  0  0  0  0  0  0  0  0
   60.2241   26.2574   46.6216 H   0  0  0  0  0  0  0  0  0  0  0  0
   58.0650   26.1340   46.7120 C   0  0  0  0  0  0  0  0  0  0  0  0
   58.0604   25.3531   47.4867 H   0  0  0  0  0  0  0  0  0  0  0  0
   56.8640   26.6290   46.2030 C   0  0  0  0  0  0  0  0  0  0  0  0
   55.9068   26.2374   46.5778 H   0  0  0  0  0  0  0  0  0  0  0  0
   56.8730   27.5950   45.2440 N   0  0  0  0  0  0  0  0  0  0  0  0
   55.9560   27.9460   44.8840 H   0  0  0  0  0  0  0  0  0  0  0  0
   58.1680   31.5320   46.0390 C   0  0  0  0  0  0  0  0  0  0  0  0
   58.0683   30.5380   46.4995 H   0  0  0  0  0  0  0  0  0  0  0  0
   58.7730   32.5720   46.7500 C   0  0  0  0  0  0  0  0  0  0  0  0
   59.1494   32.3923   47.7679 H   0  0  0  0  0  0  0  0  0  0  0  0
   58.9030   33.8450   46.1720 C   0  0  0  0  0  0  0  0  0  0  0  0
   59.5300   34.9700   46.9520 C   0  0  0  0  0  0  0  0  0  0  0  0
   58.8020   35.7905   47.0339 H   0  0  0  0  0  0  0  0  0  0  0  0
   60.4363   35.2842   46.4136 H   0  0  0  0  0  0  0  0  0  0  0  0
   59.9530   34.5440   48.3670 C   0  0  0  0  0  0  0  0  0  0  0  0
   59.3609   33.6633   48.6563 H   0  0  0  0  0  0  0  0  0  0  0  0
   59.7752   35.4043   49.0290 H   0  0  0  0  0  0  0  0  0  0  0  0
   61.4470   34.1860   48.4840 C   0  0  0  0  0  0  0  0  0  0  0  0
   61.5514   33.3291   49.1658 H   0  0  0  0  0  0  0  0  0  0  0  0
   61.9732   35.0740   48.8642 H   0  0  0  0  0  0  0  0  0  0  0  0
   62.0720   33.8190   47.1370 C   0  0  0  0  0  0  0  0  0  0  0  0
   63.0094   33.2686   47.3055 H   0  0  0  0  0  0  0  0  0  0  0  0
   61.3733   33.1878   46.5684 H   0  0  0  0  0  0  0  0  0  0  0  0
   62.2828   34.7367   46.5684 H   0  0  0  0  0  0  0  0  0  0  0  0
  1  2  1  0
  2  3  2  0
  3  4  1  0
  3  5  1  0
  5  6  1  0
  6  7  2  0
  6  8  2  0
  6  9  1  0
  9 10  2  0
 10 11  1  0
 11 12  1  0
 11 13  2  0
 13 14  1  0
 13 15  1  0
 15 16  1  0
 15 17  2  0
 17 18  1  0
 17 19  1  0
 19 20  1  0
  5 21  2  0
 21 22  1  0
 21 23  1  0
 23 24  1  0
 23 25  2  0
 25 26  1  0
 26 27  1  0
 26 28  1  0
 26 29  1  0
 29 30  1  0
 29 31  1  0
 29 32  1  0
 32 33  1  0
 32 34  1  0
 32 35  1  0
 35 36  1  0
 35 37  1  0
 35 38  1  0
 25  2  1  0
 19 10  1  0
M  END
>  <UniqueID>  (31) 
28

>  <SMILES>  (31) 
CCCCc1ccc(S(=O)(=O)/N=c2\cccc[nH]2)cc1

>  <Energy>  (31) 
38.61683410979126

>  <Genealogy>  (31) 
CCCCc1ccc(S(=O)(=O)/N=c2\cccc[nH]2)cc1 (cis-trans isomerization)
CCCCc1ccc(S(=O)(=O)/N=c2\cccc[nH]2)cc1 (3D coordinates assigned)
CCCCc1ccc(S(=O)(=O)/N=c2\cccc[nH]2)cc1 (optimized conformer: 38.61683410979126 kcal/mol)

>  <smiles>  (31) 
CCCCc1ccc(S(=O)(=O)N=c2cccc[nH]2)cc1

>  <score_type>  (31) 
oracle

>  <origin>  (31) 
adg

>  <m_score__min__energy>  (31) 
-7.7000000000000002

>  <m_primary>  (31) 
energy

$$$$
31:0
     RDKit          3D

 38 40  0  0  0  0  0  0  0  0999 V2000
   58.5490   28.2340   47.2610 C   0  0  0  0  0  0  0  0  0  0  0  0
   57.4290   27.9220   46.4380 O   0  0  0  0  0  0  0  0  0  0  0  0
   57.4970   27.1980   45.2350 C   0  0  0  0  0  0  0  0  0  0  0  0
   57.2030   25.8210   45.1820 C   0  0  0  0  0  0  0  0  0  0  0  0
   57.3290   25.1050   43.9790 C   0  0  0  0  0  0  0  0  0  0  0  0
   57.0210   23.6590   43.9300 C   0  0  0  0  0  0  0  0  0  0  0  0
   56.3230   23.0720   42.9360 N   0  0  0  0  0  0  0  0  0  0  0  0
   56.2670   21.8170   43.2590 O   0  0  0  0  0  0  0  0  0  0  0  0
   56.8990   21.6260   44.3900 C   0  0  0  0  0  0  0  0  0  0  0  0
   57.0150   20.3090   45.0750 C   0  0  0  0  0  0  0  0  0  0  0  0
   57.4040   22.7750   44.8780 N   0  0  0  0  0  0  0  0  0  0  0  0
   57.7600   25.7770   42.8250 C   0  0  0  0  0  0  0  0  0  0  0  0
   58.0460   27.1430   42.8690 C   0  0  0  0  0  0  0  0  0  0  0  0
   57.8940   27.8670   44.0580 C   0  0  0  0  0  0  0  0  0  0  0  0
   58.2000   29.2710   44.0640 N   0  0  0  0  0  0  0  0  0  0  0  0
   57.3310   30.2580   44.6420 C   0  0  0  0  0  0  0  0  0  0  0  0
   56.1260   29.9650   44.8780 O   0  0  0  0  0  0  0  0  0  0  0  0
   57.8190   31.6280   44.9300 C   0  0  0  0  0  0  0  0  0  0  0  0
   58.1460   32.5140   43.8850 C   0  0  0  0  0  0  0  0  0  0  0  0
   58.6130   33.8020   44.1690 C   0  0  0  0  0  0  0  0  0  0  0  0
   58.7630   34.2170   45.4940 C   0  0  0  0  0  0  0  0  0  0  0  0
   58.4520   33.3450   46.5390 C   0  0  0  0  0  0  0  0  0  0  0  0
   58.6020   33.7480   47.8240 F   0  0  0  0  0  0  0  0  0  0  0  0
   57.9850   32.0560   46.2600 C   0  0  0  0  0  0  0  0  0  0  0  0
   58.2601   28.1535   48.3193 H   0  0  0  0  0  0  0  0  0  0  0  0
   59.3669   27.5295   47.0496 H   0  0  0  0  0  0  0  0  0  0  0  0
   58.8849   29.2599   47.0496 H   0  0  0  0  0  0  0  0  0  0  0  0
   56.8711   25.3004   46.0924 H   0  0  0  0  0  0  0  0  0  0  0  0
   57.0017   20.4600   46.1645 H   0  0  0  0  0  0  0  0  0  0  0  0
   56.1698   19.6683   44.7833 H   0  0  0  0  0  0  0  0  0  0  0  0
   57.9592   19.8259   44.7833 H   0  0  0  0  0  0  0  0  0  0  0  0
   57.8732   25.2246   41.8805 H   0  0  0  0  0  0  0  0  0  0  0  0
   58.3943   27.6557   41.9603 H   0  0  0  0  0  0  0  0  0  0  0  0
   58.9870   29.5990   43.4600 H   0  0  0  0  0  0  0  0  0  0  0  0
   58.0336   32.1914   42.8394 H   0  0  0  0  0  0  0  0  0  0  0  0
   58.8625   34.4891   43.3470 H   0  0  0  0  0  0  0  0  0  0  0  0
   59.1264   35.2316   45.7144 H   0  0  0  0  0  0  0  0  0  0  0  0
   57.7457   31.3716   47.0872 H   0  0  0  0  0  0  0  0  0  0  0  0
  1  2  1  0
  2  3  1  0
  3  4  2  0
  4  5  1  0
  5  6  1  0
  6  7  2  0
  7  8  1  0
  8  9  1  0
  9 10  1  0
  9 11  2  0
  5 12  2  0
 12 13  1  0
 13 14  2  0
 14 15  1  0
 15 16  1  0
 16 17  2  0
 16 18  1  0
 18 19  2  0
 19 20  1  0
 20 21  2  0
 21 22  1  0
 22 23  1  0
 22 24  2  0
 14  3  1  0
 24 18  1  0
 11  6  1  0
  1 25  1  0
  1 26  1  0
  1 27  1  0
  4 28  1  0
 10 29  1  0
 10 30  1  0
 10 31  1  0
 12 32  1  0
 13 33  1  0
 15 34  1  0
 19 35  1  0
 20 36  1  0
 21 37  1  0
 24 38  1  0
M  END
>  <UniqueID>  (32) 
29

>  <SMILES>  (32) 
COc1cc(-c2noc(C)n2)ccc1NC(=O)c1cccc(F)c1

>  <Energy>  (32) 
78.8611200725449

>  <Genealogy>  (32) 
COc1cc(-c2noc(C)n2)ccc1NC(=O)c1cccc(F)c1 (3D coordinates assigned)
COc1cc(-c2noc(C)n2)ccc1NC(=O)c1cccc(F)c1 (optimized conformer: 78.8611200725449 kcal/mol)

>  <smiles>  (32) 
COc1cc(-c2noc(C)n2)ccc1NC(=O)c1cccc(F)c1

>  <score_type>  (32) 
oracle

>  <origin>  (32) 
adg

>  <m_score__min__energy>  (32) 
-8.2799999999999994

>  <m_primary>  (32) 
energy

$$$$
32:0
     RDKit          3D

 46 47  0  0  0  0  0  0  0  0999 V2000
   63.3020   33.5790   46.8130 C   0  0  0  0  0  0  0  0  0  0  0  0
   62.0400   34.2180   46.6440 O   0  0  0  0  0  0  0  0  0  0  0  0
   60.8180   33.7350   47.1390 C   0  0  0  0  0  0  0  0  0  0  0  0
   59.7410   33.4700   46.2700 C   0  0  0  0  0  0  0  0  0  0  0  0
   58.5230   32.9820   46.7630 C   0  0  0  0  0  0  0  0  0  0  0  0
   57.4040   32.7300   45.9000 N   0  0  0  0  0  0  0  0  0  0  0  0
   57.3370   31.7380   44.8700 C   0  0  0  0  0  0  0  0  0  0  0  0
   57.3100   32.0760   43.6540 O   0  0  0  0  0  0  0  0  0  0  0  0
   57.3650   30.3880   45.2310 O   0  0  0  0  0  0  0  0  0  0  0  0
   56.5890   29.3850   44.5780 C   0  0  0  0  0  0  0  0  0  0  0  0
   57.4010   28.1010   44.3760 C   0  0  0  0  0  0  0  0  0  0  0  0
   57.9460   27.6190   45.6530 N   0  0  0  0  0  0  0  0  0  0  0  0
   57.4370   26.6950   46.5000 C   0  0  0  0  0  0  0  0  0  0  0  0
   56.1450   26.0770   46.4080 N   0  0  0  0  0  0  0  0  0  0  0  0
   55.1600   26.7130   45.9840 O   0  0  0  0  0  0  0  0  0  0  0  0
   55.9420   24.8410   46.9770 O   0  0  0  0  0  0  0  0  0  0  0  0
   58.3670   26.4210   47.4780 C   0  0  0  0  0  0  0  0  0  0  0  0
   59.4660   27.1690   47.2640 N   0  0  0  0  0  0  0  0  0  0  0  0
   59.1830   27.8770   46.1480 C   0  0  0  0  0  0  0  0  0  0  0  0
   60.1530   28.8450   45.5450 C   0  0  0  0  0  0  0  0  0  0  0  0
   58.3650   32.7910   48.1350 C   0  0  0  0  0  0  0  0  0  0  0  0
   59.4260   33.0420   49.0220 C   0  0  0  0  0  0  0  0  0  0  0  0
   59.2980   32.8370   50.4060 O   0  0  0  0  0  0  0  0  0  0  0  0
   59.2320   33.8780   51.3740 C   0  0  0  0  0  0  0  0  0  0  0  0
   60.6560   33.5110   48.5310 C   0  0  0  0  0  0  0  0  0  0  0  0
   61.6710   33.7350   49.4830 O   0  0  0  0  0  0  0  0  0  0  0  0
   62.5270   32.7550   50.0580 C   0  0  0  0  0  0  0  0  0  0  0  0
   63.5170   33.4701   47.8863 H   0  0  0  0  0  0  0  0  0  0  0  0
   63.2760   32.5855   46.3416 H   0  0  0  0  0  0  0  0  0  0  0  0
   64.0874   34.1880   46.3416 H   0  0  0  0  0  0  0  0  0  0  0  0
   59.8575   33.6484   45.1908 H   0  0  0  0  0  0  0  0  0  0  0  0
   55.7055   29.1580   45.1927 H   0  0  0  0  0  0  0  0  0  0  0  0
   56.2871   29.7654   43.5910 H   0  0  0  0  0  0  0  0  0  0  0  0
   56.7486   27.3260   43.9473 H   0  0  0  0  0  0  0  0  0  0  0  0
   58.2380   28.3177   43.6960 H   0  0  0  0  0  0  0  0  0  0  0  0
   58.2334   25.7052   48.3025 H   0  0  0  0  0  0  0  0  0  0  0  0
   60.6862   29.3771   46.3466 H   0  0  0  0  0  0  0  0  0  0  0  0
   60.8772   28.2988   44.9227 H   0  0  0  0  0  0  0  0  0  0  0  0
   59.6083   29.5703   44.9227 H   0  0  0  0  0  0  0  0  0  0  0  0
   57.3993   32.4400   48.5276 H   0  0  0  0  0  0  0  0  0  0  0  0
   59.2596   33.4422   52.3836 H   0  0  0  0  0  0  0  0  0  0  0  0
   60.0890   34.5551   51.2433 H   0  0  0  0  0  0  0  0  0  0  0  0
   58.2963   34.4414   51.2433 H   0  0  0  0  0  0  0  0  0  0  0  0
   62.4719   32.8181   51.1548 H   0  0  0  0  0  0  0  0  0  0  0  0
   62.2091   31.7537   49.7319 H   0  0  0  0  0  0  0  0  0  0  0  0
   63.5619   32.9354   49.7319 H   0  0  0  0  0  0  0  0  0  0  0  0
  1  2  1  0
  2  3  1  0
  3  4  2  0
  4  5  1  0
  5  6  1  0
  6  7  1  0
  7  8  2  0
  7  9  1  0
  9 10  1  0
 10 11  1  0
 11 12  1  0
 12 13  1  0
 13 14  1  0
 14 15  2  0
 14 16  1  0
 13 17  2  0
 17 18  1  0
 18 19  2  0
 19 20  1  0
  5 21  2  0
 21 22  1  0
 22 23  1  0
 23 24  1  0
 22 25  2  0
 25 26  1  0
 26 27  1  0
 25  3  1  0
 19 12  1  0
  1 28  1  0
  1 29  1  0
  1 30  1  0
  4 31  1  0
 10 32  1  0
 10 33  1  0
 11 34  1  0
 11 35  1  0
 17 36  1  0
 20 37  1  0
 20 38  1  0
 20 39  1  0
 21 40  1  0
 24 41  1  0
 24 42  1  0
 24 43  1  0
 27 44  1  0
 27 45  1  0
 27 46  1  0
M  CHG  3   6  -1  14   1  16  -1
M  END
>  <UniqueID>  (33) 
30

>  <SMILES>  (33) 
COc1cc([N-]C(=O)OCCn2c([N+](=O)[O-])cnc2C)cc(OC)c1OC

>  <Energy>  (33) 
78.78045424227692

>  <Genealogy>  (33) 
COc1cc([N-]C(=O)OCCn2c([N+](=O)[O-])cnc2C)cc(OC)c1OC (protonated)
COc1cc([N-]C(=O)OCCn2c([N+](=O)[O-])cnc2C)cc(OC)c1OC (3D coordinates assigned)
COc1cc([N-]C(=O)OCCn2c([N+](=O)[O-])cnc2C)cc(OC)c1OC (optimized conformer: 78.78045424227692 kcal/mol)

>  <smiles>  (33) 
COc1cc(NC(=O)OCCn2c([N+](=O)[O-])cnc2C)cc(OC)c1OC

>  <score_type>  (33) 
oracle

>  <origin>  (33) 
adg

>  <m_score__min__energy>  (33) 
-8.1899999999999995

>  <m_primary>  (33) 
energy

$$$$
33:0
     RDKit          3D

 59 63  0  0  0  0  0  0  0  0999 V2000
   67.9600   34.0430   51.2220 C   0  0  0  0  0  0  0  0  0  0  0  0
   67.5310   32.9410   50.3580 N   0  0  0  0  0  0  0  0  0  0  0  0
   66.3650   32.2340   50.9130 C   0  0  0  0  0  0  0  0  0  0  0  0
   65.1460   32.3700   50.0380 C   0  0  0  0  0  0  0  0  0  0  0  0
   64.0730   31.4770   50.1610 C   0  0  0  0  0  0  0  0  0  0  0  0
   62.9590   31.6070   49.3190 C   0  0  0  0  0  0  0  0  0  0  0  0
   61.8510   30.6290   49.4070 C   0  0  0  0  0  0  0  0  0  0  0  0
   61.1620   30.2450   48.2970 N   0  0  0  0  0  0  0  0  0  0  0  0
   60.1480   29.3920   48.5690 C   0  0  0  0  0  0  0  0  0  0  0  0
   59.1870   28.9030   47.5670 C   0  0  0  0  0  0  0  0  0  0  0  0
   58.5150   29.6860   46.6350 C   0  0  0  0  0  0  0  0  0  0  0  0
   57.5440   28.9860   45.8990 C   0  0  0  0  0  0  0  0  0  0  0  0
   56.6100   29.6770   44.9830 C   0  0  0  0  0  0  0  0  0  0  0  0
   55.4430   29.2390   44.8010 O   0  0  0  0  0  0  0  0  0  0  0  0
   57.0090   30.8860   44.3320 N   0  0  0  0  0  0  0  0  0  0  0  0
   56.6560   32.1960   44.8670 C   0  0  0  0  0  0  0  0  0  0  0  0
   57.8150   32.7480   45.6520 C   0  0  0  0  0  0  0  0  0  0  0  0
   57.7910   32.7220   47.0570 C   0  0  0  0  0  0  0  0  0  0  0  0
   58.8110   33.3360   47.7900 C   0  0  0  0  0  0  0  0  0  0  0  0
   59.8530   33.9930   47.1300 C   0  0  0  0  0  0  0  0  0  0  0  0
   60.8270   34.6070   47.8440 F   0  0  0  0  0  0  0  0  0  0  0  0
   59.8810   34.0280   45.7330 C   0  0  0  0  0  0  0  0  0  0  0  0
   58.8660   33.4100   44.9950 C   0  0  0  0  0  0  0  0  0  0  0  0
   57.5020   27.6220   46.2190 C   0  0  0  0  0  0  0  0  0  0  0  0
   56.5480   26.5960   45.6810 C   0  0  0  0  0  0  0  0  0  0  0  0
   57.2140   25.3770   45.0590 C   0  0  0  0  0  0  0  0  0  0  0  0
   56.5500   25.2620   46.4190 C   0  0  0  0  0  0  0  0  0  0  0  0
   58.6090   27.3300   47.4550 S   0  0  0  0  0  0  0  0  0  0  0  0
   60.0780   29.0570   50.2160 S   0  0  0  0  0  0  0  0  0  0  0  0
   61.3980   30.0330   50.5910 C   0  0  0  0  0  0  0  0  0  0  0  0
   61.9360   30.2210   51.9750 C   0  0  0  0  0  0  0  0  0  0  0  0
   62.9520   32.6240   48.3530 C   0  0  0  0  0  0  0  0  0  0  0  0
   64.0370   33.4970   48.2640 C   0  0  0  0  0  0  0  0  0  0  0  0
   65.1010   33.3510   49.0950 N   0  0  0  0  0  0  0  0  0  0  0  0
   67.8455   33.7488   52.2757 H   0  0  0  0  0  0  0  0  0  0  0  0
   69.0153   34.2781   51.0196 H   0  0  0  0  0  0  0  0  0  0  0  0
   67.3414   34.9298   51.0196 H   0  0  0  0  0  0  0  0  0  0  0  0
   67.2920   33.3260   49.4150 H   0  0  0  0  0  0  0  0  0  0  0  0
   66.6123   31.1668   51.0122 H   0  0  0  0  0  0  0  0  0  0  0  0
   66.1312   32.6838   51.8892 H   0  0  0  0  0  0  0  0  0  0  0  0
   64.1044   30.6769   50.9153 H   0  0  0  0  0  0  0  0  0  0  0  0
   61.3700   30.6150   47.3430 H   0  0  0  0  0  0  0  0  0  0  0  0
   58.7244   30.7557   46.4873 H   0  0  0  0  0  0  0  0  0  0  0  0
   56.4171   32.8781   44.0378 H   0  0  0  0  0  0  0  0  0  0  0  0
   55.7809   32.0983   45.5263 H   0  0  0  0  0  0  0  0  0  0  0  0
   56.9668   32.2168   47.5818 H   0  0  0  0  0  0  0  0  0  0  0  0
   58.7933   33.3018   48.8893 H   0  0  0  0  0  0  0  0  0  0  0  0
   60.7026   34.5424   45.2130 H   0  0  0  0  0  0  0  0  0  0  0  0
   58.8907   33.4424   43.8958 H   0  0  0  0  0  0  0  0  0  0  0  0
   55.7732   27.3114   45.3682 H   0  0  0  0  0  0  0  0  0  0  0  0
   56.7604   24.8901   44.1832 H   0  0  0  0  0  0  0  0  0  0  0  0
   58.2164   25.1570   44.6631 H   0  0  0  0  0  0  0  0  0  0  0  0
   55.6152   24.6925   46.5282 H   0  0  0  0  0  0  0  0  0  0  0  0
   56.8718   24.9251   47.4155 H   0  0  0  0  0  0  0  0  0  0  0  0
   61.1625   29.9507   52.7089 H   0  0  0  0  0  0  0  0  0  0  0  0
   62.8167   29.5774   52.1166 H   0  0  0  0  0  0  0  0  0  0  0  0
   62.2242   31.2731   52.1166 H   0  0  0  0  0  0  0  0  0  0  0  0
   62.0967   32.7327   47.6699 H   0  0  0  0  0  0  0  0  0  0  0  0
   64.0304   34.3058   47.5185 H   0  0  0  0  0  0  0  0  0  0  0  0
  1  2  1  0
  2  3  1  0
  3  4  1  0
  4  5  2  0
  5  6  1  0
  6  7  1  0
  7  8  1  0
  8  9  2  0
  9 10  1  0
 10 11  2  0
 11 12  1  0
 12 13  1  0
 13 14  2  0
 13 15  1  0
 15 16  1  0
 16 17  1  0
 17 18  2  0
 18 19  1  0
 19 20  2  0
 20 21  1  0
 20 22  1  0
 22 23  2  0
 12 24  2  0
 24 25  1  0
 25 26  1  0
 26 27  1  0
 24 28  1  0
  9 29  1  0
 29 30  1  0
 30 31  1  0
  6 32  2  0
 32 33  1  0
 33 34  2  0
 34  4  1  0
 30  7  2  0
 28 10  1  0
 23 17  1  0
 27 25  1  0
  1 35  1  0
  1 36  1  0
  1 37  1  0
  2 38  1  0
  3 39  1  0
  3 40  1  0
  5 41  1  0
  8 42  1  0
 11 43  1  0
 16 44  1  0
 16 45  1  0
 18 46  1  0
 19 47  1  0
 22 48  1  0
 23 49  1  0
 25 50  1  0
 26 51  1  0
 26 52  1  0
 27 53  1  0
 27 54  1  0
 31 55  1  0
 31 56  1  0
 31 57  1  0
 32 58  1  0
 33 59  1  0
M  CHG  2   8   1  15  -1
M  END
>  <UniqueID>  (34) 
31

>  <SMILES>  (34) 
CNCc1cc(-c2[nH+]c(-c3cc(C(=O)[N-]Cc4ccc(F)cc4)c(C4CC4)s3)sc2C)ccn1

>  <Energy>  (34) 
387.2130640170624

>  <Genealogy>  (34) 
CNCc1cc(-c2[nH+]c(-c3cc(C(=O)[N-]Cc4ccc(F)cc4)c(C4CC4)s3)sc2C)ccn1 (protonated)
CNCc1cc(-c2[nH+]c(-c3cc(C(=O)[N-]Cc4ccc(F)cc4)c(C4CC4)s3)sc2C)ccn1 (3D coordinates assigned)
CNCc1cc(-c2[nH+]c(-c3cc(C(=O)[N-]Cc4ccc(F)cc4)c(C4CC4)s3)sc2C)ccn1 (nonaromatic ring conformer: 387.2130640170624 kcal/mol)

>  <smiles>  (34) 
CNCc1cc(-c2nc(-c3cc(C(=O)NCc4ccc(F)cc4)c(C4CC4)s3)sc2C)ccn1

>  <score_type>  (34) 
oracle

>  <origin>  (34) 
adg

>  <m_score__min__energy>  (34) 
-9.4399999999999995

>  <m_primary>  (34) 
energy

$$$$
34:0
     RDKit          3D

 43 46  0  0  0  0  0  0  0  0999 V2000
   56.8420   30.0180   43.7480 C   0  0  0  0  0  0  0  0  0  0  0  0
   56.8590   30.6760   45.0110 O   0  0  0  0  0  0  0  0  0  0  0  0
   57.5600   31.8630   45.2850 C   0  0  0  0  0  0  0  0  0  0  0  0
   57.0600   33.1170   44.8950 C   0  0  0  0  0  0  0  0  0  0  0  0
   57.7560   34.2780   45.2110 C   0  0  0  0  0  0  0  0  0  0  0  0
   58.9580   34.2140   45.9130 C   0  0  0  0  0  0  0  0  0  0  0  0
   59.5090   32.9720   46.3000 C   0  0  0  0  0  0  0  0  0  0  0  0
   58.7910   31.7920   45.9720 C   0  0  0  0  0  0  0  0  0  0  0  0
   59.3080   30.4600   46.4440 C   0  0  0  0  0  0  0  0  0  0  0  0
   60.8280   30.4820   46.4800 C   0  0  0  0  0  0  0  0  0  0  0  0
   61.3260   31.6360   47.3280 C   0  0  0  0  0  0  0  0  0  0  0  0
   60.7960   32.8770   47.0970 C   0  0  0  0  0  0  0  0  0  0  0  0
   61.3890   34.1870   47.6230 C   0  0  0  0  0  0  0  0  0  0  0  0
   62.7920   34.2080   48.2450 C   0  0  0  0  0  0  0  0  0  0  0  0
   63.7490   33.1810   47.6310 C   0  0  0  0  0  0  0  0  0  0  0  0
   63.6780   31.8680   48.3000 N   0  0  0  0  0  0  0  0  0  0  0  0
   64.2340   31.8960   49.6670 C   0  0  0  0  0  0  0  0  0  0  0  0
   63.0890   31.7070   50.6670 C   0  0  0  0  0  0  0  0  0  0  0  0
   61.8240   31.5550   49.8390 C   0  0  0  0  0  0  0  0  0  0  0  0
   62.3320   31.2880   48.4290 C   0  0  1  0  0  0  0  0  0  0  0  0
   56.8139   28.9292   43.9021 H   0  0  0  0  0  0  0  0  0  0  0  0
   55.9517   30.3315   43.1832 H   0  0  0  0  0  0  0  0  0  0  0  0
   57.7473   30.2851   43.1832 H   0  0  0  0  0  0  0  0  0  0  0  0
   56.1139   33.1801   44.3374 H   0  0  0  0  0  0  0  0  0  0  0  0
   57.3547   35.2552   44.9044 H   0  0  0  0  0  0  0  0  0  0  0  0
   59.4857   35.1444   46.1697 H   0  0  0  0  0  0  0  0  0  0  0  0
   58.9216   30.2549   47.4533 H   0  0  0  0  0  0  0  0  0  0  0  0
   58.9720   29.6736   45.7521 H   0  0  0  0  0  0  0  0  0  0  0  0
   61.1931   29.5361   46.9067 H   0  0  0  0  0  0  0  0  0  0  0  0
   61.2048   30.6077   45.4542 H   0  0  0  0  0  0  0  0  0  0  0  0
   61.4086   34.8878   46.7753 H   0  0  0  0  0  0  0  0  0  0  0  0
   60.7357   34.4327   48.4732 H   0  0  0  0  0  0  0  0  0  0  0  0
   63.2205   35.2112   48.1034 H   0  0  0  0  0  0  0  0  0  0  0  0
   62.6782   33.9487   49.3079 H   0  0  0  0  0  0  0  0  0  0  0  0
   63.4914   33.0499   46.5697 H   0  0  0  0  0  0  0  0  0  0  0  0
   64.7728   33.5635   47.7559 H   0  0  0  0  0  0  0  0  0  0  0  0
   64.9666   31.0840   49.7853 H   0  0  0  0  0  0  0  0  0  0  0  0
   64.7348   32.8585   49.8482 H   0  0  0  0  0  0  0  0  0  0  0  0
   63.2579   30.8055   51.2742 H   0  0  0  0  0  0  0  0  0  0  0  0
   63.0157   32.5595   51.3583 H   0  0  0  0  0  0  0  0  0  0  0  0
   61.2188   30.7113   50.2022 H   0  0  0  0  0  0  0  0  0  0  0  0
   61.1755   32.4418   49.8929 H   0  0  0  0  0  0  0  0  0  0  0  0
   62.4350   30.2050   48.2664 H   0  0  0  0  0  0  0  0  0  0  0  0
  1  2  1  0
  2  3  1  0
  3  4  2  0
  4  5  1  0
  5  6  2  0
  6  7  1  0
  7  8  2  0
  8  9  1  0
  9 10  1  0
 10 11  1  0
 11 12  2  0
 12 13  1  0
 13 14  1  0
 14 15  1  0
 15 16  1  0
 16 17  1  0
 17 18  1  0
 18 19  1  0
 19 20  1  0
  8  3  1  0
 20 11  1  0
 12  7  1  0
 20 16  1  0
  1 21  1  0
  1 22  1  0
  1 23  1  0
  4 24  1  0
  5 25  1  0
  6 26  1  0
  9 27  1  0
  9 28  1  0
 10 29  1  0
 10 30  1  0
 13 31  1  0
 13 32  1  0
 14 33  1  0
 14 34  1  0
 15 35  1  0
 15 36  1  0
 17 37  1  0
 17 38  1  0
 18 39  1  0
 18 40  1  0
 19 41  1  0
 19 42  1  0
 20 43  1  1
M  END
>  <UniqueID>  (35) 
32

>  <SMILES>  (35) 
COc1cccc2c1CCC1=C2CCCN2CCC[C@@H]12

>  <Energy>  (35) 
75.35774534282706

>  <Genealogy>  (35) 
COc1cccc2c1CCC1=C2CCCN2CCC[C@@H]12 (chirality)
COc1cccc2c1CCC1=C2CCCN2CCC[C@@H]12 (3D coordinates assigned)
COc1cccc2c1CCC1=C2CCCN2CCC[C@@H]12 (nonaromatic ring conformer: 75.35774534282706 kcal/mol)

>  <smiles>  (35) 
COc1cccc2c1CCC1=C2CCCN2CCCC12

>  <score_type>  (35) 
oracle

>  <origin>  (35) 
adg

>  <m_score__min__energy>  (35) 
-6.5

>  <m_primary>  (35) 
energy

$$$$
35:0
     RDKit          3D

 41 43  0  0  0  0  0  0  0  0999 V2000
   55.8280   30.1020   43.9200 C   0  0  0  0  0  0  0  0  0  0  0  0
   56.4810   29.8360   45.1560 O   0  0  0  0  0  0  0  0  0  0  0  0
   57.7050   29.1590   45.2800 C   0  0  0  0  0  0  0  0  0  0  0  0
   57.7990   27.7580   45.1550 C   0  0  0  0  0  0  0  0  0  0  0  0
   59.0330   27.1180   45.2920 C   0  0  0  0  0  0  0  0  0  0  0  0
   60.1840   27.8640   45.5470 C   0  0  0  0  0  0  0  0  0  0  0  0
   60.1050   29.2520   45.6700 C   0  0  0  0  0  0  0  0  0  0  0  0
   58.8690   29.9060   45.5500 C   0  0  0  0  0  0  0  0  0  0  0  0
   58.8000   31.3350   45.6570 N   0  0  0  0  0  0  0  0  0  0  0  0
   57.9180   32.0750   44.9970 N   0  0  0  0  0  0  0  0  0  0  0  0
   58.1090   33.3630   45.3560 C   0  0  0  0  0  0  0  0  0  0  0  0
   57.2690   34.4980   44.8720 C   0  0  0  0  0  0  0  0  0  0  0  0
   59.1290   33.4230   46.2880 C   0  0  0  0  0  0  0  0  0  0  0  0
   59.5570   32.1350   46.4390 C   0  0  0  0  0  0  0  0  0  0  0  0
   60.5290   31.7240   47.5130 C   0  0  0  0  0  0  0  0  0  0  0  0
   61.4690   32.9120   47.9000 C   0  0  0  0  0  0  0  0  0  0  0  0
   62.2500   32.5320   49.1740 C   0  0  0  0  0  0  0  0  0  0  0  0
   62.4870   33.1660   46.7640 C   0  0  0  0  0  0  0  0  0  0  0  0
   60.6480   34.2130   48.1790 C   0  0  0  0  0  0  0  0  0  0  0  0
   59.6670   34.5340   47.0770 C   0  0  0  0  0  0  0  0  0  0  0  0
   59.2770   35.7160   46.8890 O   0  0  0  0  0  0  0  0  0  0  0  0
   54.8255   30.5104   44.1154 H   0  0  0  0  0  0  0  0  0  0  0  0
   56.4157   30.8324   43.3446 H   0  0  0  0  0  0  0  0  0  0  0  0
   55.7380   29.1688   43.3446 H   0  0  0  0  0  0  0  0  0  0  0  0
   56.8955   27.1655   44.9484 H   0  0  0  0  0  0  0  0  0  0  0  0
   59.0974   26.0239   45.1987 H   0  0  0  0  0  0  0  0  0  0  0  0
   61.1549   27.3576   45.6512 H   0  0  0  0  0  0  0  0  0  0  0  0
   61.0167   29.8367   45.8621 H   0  0  0  0  0  0  0  0  0  0  0  0
   56.8626   35.0471   45.7342 H   0  0  0  0  0  0  0  0  0  0  0  0
   57.8846   35.1760   44.2626 H   0  0  0  0  0  0  0  0  0  0  0  0
   56.4407   34.1074   44.2626 H   0  0  0  0  0  0  0  0  0  0  0  0
   59.9677   31.4042   48.4033 H   0  0  0  0  0  0  0  0  0  0  0  0
   61.1464   30.8979   47.1304 H   0  0  0  0  0  0  0  0  0  0  0  0
   61.6652   32.8165   50.0611 H   0  0  0  0  0  0  0  0  0  0  0  0
   62.4280   31.4466   49.1849 H   0  0  0  0  0  0  0  0  0  0  0  0
   63.2139   33.0618   49.1849 H   0  0  0  0  0  0  0  0  0  0  0  0
   63.4676   33.4107   47.1983 H   0  0  0  0  0  0  0  0  0  0  0  0
   62.5762   32.2626   46.1428 H   0  0  0  0  0  0  0  0  0  0  0  0
   62.1413   34.0054   46.1428 H   0  0  0  0  0  0  0  0  0  0  0  0
   60.0908   34.0822   49.1183 H   0  0  0  0  0  0  0  0  0  0  0  0
   61.3616   35.0479   48.2404 H   0  0  0  0  0  0  0  0  0  0  0  0
  1  2  1  0
  2  3  1  0
  3  4  2  0
  4  5  1  0
  5  6  2  0
  6  7  1  0
  7  8  2  0
  8  9  1  0
  9 10  1  0
 10 11  2  0
 11 12  1  0
 11 13  1  0
 13 14  2  0
 14 15  1  0
 15 16  1  0
 16 17  1  0
 16 18  1  0
 16 19  1  0
 19 20  1  0
 20 21  2  0
  8  3  1  0
 14  9  1  0
 20 13  1  0
  1 22  1  0
  1 23  1  0
  1 24  1  0
  4 25  1  0
  5 26  1  0
  6 27  1  0
  7 28  1  0
 12 29  1  0
 12 30  1  0
 12 31  1  0
 15 32  1  0
 15 33  1  0
 17 34  1  0
 17 35  1  0
 17 36  1  0
 18 37  1  0
 18 38  1  0
 18 39  1  0
 19 40  1  0
 19 41  1  0
M  END
>  <UniqueID>  (36) 
33

>  <SMILES>  (36) 
COc1ccccc1-n1nc(C)c2c1CC(C)(C)CC2=O

>  <Energy>  (36) 
78.1838937000422

>  <Genealogy>  (36) 
COc1ccccc1-n1nc(C)c2c1CC(C)(C)CC2=O (3D coordinates assigned)
COc1ccccc1-n1nc(C)c2c1CC(C)(C)CC2=O (nonaromatic ring conformer: 78.1838937000422 kcal/mol)

>  <smiles>  (36) 
COc1ccccc1-n1nc(C)c2c1CC(C)(C)CC2=O

>  <score_type>  (36) 
oracle

>  <origin>  (36) 
adg

>  <m_score__min__energy>  (36) 
-7.9100000000000001

>  <m_primary>  (36) 
energy

$$$$
36:0
     RDKit          3D

 39 42  0  0  0  0  0  0  0  0999 V2000
   59.6720   34.2080   48.7340 C   0  0  0  0  0  0  0  0  0  0  0  0
   59.2050   32.8810   48.7770 C   0  0  0  0  0  0  0  0  0  0  0  0
   58.6460   32.3240   47.6650 N   0  0  0  0  0  0  0  0  0  0  0  0
   58.5390   33.0540   46.5560 N   0  0  0  0  0  0  0  0  0  0  0  0
   58.0640   32.7160   45.3460 C   0  0  0  0  0  0  0  0  0  0  0  0
   57.4960   31.4130   44.9340 C   0  0  0  0  0  0  0  0  0  0  0  0
   56.6700   31.2780   43.8100 C   0  0  0  0  0  0  0  0  0  0  0  0
   56.1830   30.0130   43.4870 C   0  0  0  0  0  0  0  0  0  0  0  0
   56.5190   28.9410   44.2480 N   0  0  0  0  0  0  0  0  0  0  0  0
   57.3340   29.0720   45.3310 C   0  0  0  0  0  0  0  0  0  0  0  0
   57.6770   27.9190   46.1290 N   0  0  0  0  0  0  0  0  0  0  0  0
   56.8040   26.7330   46.0630 C   0  0  0  0  0  0  0  0  0  0  0  0
   57.3950   25.4730   46.7160 C   0  0  0  0  0  0  0  0  0  0  0  0
   58.7430   25.0590   46.0940 C   0  0  0  0  0  0  0  0  0  0  0  0
   59.8880   25.7120   46.7460 N   0  0  0  0  0  0  0  0  0  0  0  0
   60.0010   27.1390   46.4210 C   0  0  0  0  0  0  0  0  0  0  0  0
   58.8520   27.9650   47.0120 C   0  0  0  0  0  0  0  0  0  0  0  0
   57.8110   30.3050   45.6570 N   0  0  0  0  0  0  0  0  0  0  0  0
   58.2510   33.8200   44.5220 C   0  0  0  0  0  0  0  0  0  0  0  0
   58.8260   34.8330   45.2190 N   0  0  0  0  0  0  0  0  0  0  0  0
   58.9830   34.3140   46.4520 C   0  0  0  0  0  0  0  0  0  0  0  0
   59.5650   34.9460   47.5450 C   0  0  0  0  0  0  0  0  0  0  0  0
   60.1192   34.6651   49.6290 H   0  0  0  0  0  0  0  0  0  0  0  0
   59.2906   32.2954   49.7042 H   0  0  0  0  0  0  0  0  0  0  0  0
   56.4114   32.1528   43.1953 H   0  0  0  0  0  0  0  0  0  0  0  0
   55.5257   29.8834   42.6145 H   0  0  0  0  0  0  0  0  0  0  0  0
   55.8585   26.9729   46.5714 H   0  0  0  0  0  0  0  0  0  0  0  0
   56.6699   26.5006   44.9962 H   0  0  0  0  0  0  0  0  0  0  0  0
   57.5472   25.6700   47.7875 H   0  0  0  0  0  0  0  0  0  0  0  0
   56.6854   24.6488   46.5515 H   0  0  0  0  0  0  0  0  0  0  0  0
   58.8563   23.9691   46.1908 H   0  0  0  0  0  0  0  0  0  0  0  0
   58.7351   25.3726   45.0397 H   0  0  0  0  0  0  0  0  0  0  0  0
   60.7780   25.2150   46.5030 H   0  0  0  0  0  0  0  0  0  0  0  0
   60.9521   27.5187   46.8225 H   0  0  0  0  0  0  0  0  0  0  0  0
   59.9577   27.2385   45.3264 H   0  0  0  0  0  0  0  0  0  0  0  0
   58.5812   27.5558   47.9965 H   0  0  0  0  0  0  0  0  0  0  0  0
   59.1804   29.0100   47.1128 H   0  0  0  0  0  0  0  0  0  0  0  0
   57.9731   33.8660   43.4587 H   0  0  0  0  0  0  0  0  0  0  0  0
   59.9270   35.9827   47.4805 H   0  0  0  0  0  0  0  0  0  0  0  0
  1  2  1  0
  2  3  2  0
  3  4  1  0
  4  5  1  0
  5  6  1  0
  6  7  2  0
  7  8  1  0
  8  9  2  0
  9 10  1  0
 10 11  1  0
 11 12  1  0
 12 13  1  0
 13 14  1  0
 14 15  1  0
 15 16  1  0
 16 17  1  0
 10 18  2  0
  5 19  2  0
 19 20  1  0
 20 21  2  0
 21 22  1  0
 22  1  2  0
 21  4  1  0
 18  6  1  0
 17 11  1  0
  1 23  1  0
  2 24  1  0
  7 25  1  0
  8 26  1  0
 12 27  1  0
 12 28  1  0
 13 29  1  0
 13 30  1  0
 14 31  1  0
 14 32  1  0
 15 33  1  0
 16 34  1  0
 16 35  1  0
 17 36  1  0
 17 37  1  0
 19 38  1  0
 22 39  1  0
M  END
>  <UniqueID>  (37) 
34

>  <SMILES>  (37) 
c1cnn2c(-c3ccnc(N4CCCNCC4)n3)cnc2c1

>  <Energy>  (37) 
86.54526777209003

>  <Genealogy>  (37) 
c1cnn2c(-c3ccnc(N4CCCNCC4)n3)cnc2c1 (3D coordinates assigned)
c1cnn2c(-c3ccnc(N4CCCNCC4)n3)cnc2c1 (nonaromatic ring conformer: 86.54526777209003 kcal/mol)

>  <smiles>  (37) 
c1cnn2c(-c3ccnc(N4CCCNCC4)n3)cnc2c1

>  <score_type>  (37) 
oracle

>  <origin>  (37) 
adg

>  <m_score__min__energy>  (37) 
-5.4299999999999997

>  <m_primary>  (37) 
energy

$$$$
37:0
     RDKit          3D

 30 32  0  0  0  0  0  0  0  0999 V2000
   56.2730   29.0400   44.8770 C   0  0  0  0  0  0  0  0  0  0  0  0
   56.7830   30.3400   44.3410 C   0  0  0  0  0  0  0  0  0  0  0  0
   57.1200   30.4670   42.9880 C   0  0  0  0  0  0  0  0  0  0  0  0
   57.6170   31.6830   42.5170 C   0  0  0  0  0  0  0  0  0  0  0  0
   57.7730   32.7570   43.3960 C   0  0  0  0  0  0  0  0  0  0  0  0
   57.4200   32.6000   44.7420 C   0  0  0  0  0  0  0  0  0  0  0  0
   57.6250   33.7170   45.7220 C   0  0  0  0  0  0  0  0  0  0  0  0
   59.0030   33.7060   46.2090 N   0  0  0  0  0  0  0  0  0  0  0  0
   59.9160   34.7110   46.1770 C   0  0  0  0  0  0  0  0  0  0  0  0
   59.6600   35.8730   45.7600 O   0  0  0  0  0  0  0  0  0  0  0  0
   61.1100   34.3460   46.6210 O   0  0  0  0  0  0  0  0  0  0  0  0
   60.9920   33.0800   46.9400 C   0  0  0  0  0  0  0  0  0  0  0  0
   61.9450   32.2030   47.4420 C   0  0  0  0  0  0  0  0  0  0  0  0
   61.5370   30.8760   47.6740 C   0  0  0  0  0  0  0  0  0  0  0  0
   60.2040   30.4890   47.3950 C   0  0  0  0  0  0  0  0  0  0  0  0
   59.3030   31.3960   46.9030 N   0  0  0  0  0  0  0  0  0  0  0  0
   59.7170   32.6730   46.6900 C   0  0  0  0  0  0  0  0  0  0  0  0
   56.9490   31.4000   45.1790 N   0  0  0  0  0  0  0  0  0  0  0  0
   56.2837   29.0673   45.9766 H   0  0  0  0  0  0  0  0  0  0  0  0
   55.2440   28.8764   44.5243 H   0  0  0  0  0  0  0  0  0  0  0  0
   56.9162   28.2203   44.5243 H   0  0  0  0  0  0  0  0  0  0  0  0
   56.9942   29.6160   42.3025 H   0  0  0  0  0  0  0  0  0  0  0  0
   57.8852   31.7953   41.4561 H   0  0  0  0  0  0  0  0  0  0  0  0
   58.1694   33.7173   43.0344 H   0  0  0  0  0  0  0  0  0  0  0  0
   57.4208   34.6781   45.2273 H   0  0  0  0  0  0  0  0  0  0  0  0
   56.9398   33.5828   46.5720 H   0  0  0  0  0  0  0  0  0  0  0  0
   62.9742   32.5314   47.6493 H   0  0  0  0  0  0  0  0  0  0  0  0
   62.2525   30.1410   48.0713 H   0  0  0  0  0  0  0  0  0  0  0  0
   59.8890   29.4506   47.5749 H   0  0  0  0  0  0  0  0  0  0  0  0
   58.3230   31.1040   46.6990 H   0  0  0  0  0  0  0  0  0  0  0  0
  1  2  1  0
  2  3  2  0
  3  4  1  0
  4  5  2  0
  5  6  1  0
  6  7  1  0
  7  8  1  0
  8  9  1  0
  9 10  2  0
  9 11  1  0
 11 12  1  0
 12 13  2  0
 13 14  1  0
 14 15  2  0
 15 16  1  0
 16 17  2  0
  6 18  2  0
 18  2  1  0
 17  8  1  0
 17 12  1  0
  1 19  1  0
  1 20  1  0
  1 21  1  0
  3 22  1  0
  4 23  1  0
  5 24  1  0
  7 25  1  0
  7 26  1  0
 13 27  1  0
 14 28  1  0
 15 29  1  0
 16 30  1  0
M  CHG  1  16   1
M  END
>  <UniqueID>  (38) 
35

>  <SMILES>  (38) 
Cc1cccc(Cn2c(=O)oc3ccc[nH+]c32)n1

>  <Energy>  (38) 
72.94004768532862

>  <Genealogy>  (38) 
Cc1cccc(Cn2c(=O)oc3ccc[nH+]c32)n1 (protonated)
Cc1cccc(Cn2c(=O)oc3ccc[nH+]c32)n1 (3D coordinates assigned)
Cc1cccc(Cn2c(=O)oc3ccc[nH+]c32)n1 (optimized conformer: 72.94004768532862 kcal/mol)

>  <smiles>  (38) 
Cc1cccc(Cn2c(=O)oc3cccnc32)n1

>  <score_type>  (38) 
oracle

>  <origin>  (38) 
adg

>  <m_score__min__energy>  (38) 
-4.8300000000000001

>  <m_primary>  (38) 
energy

$$$$
38:0
     RDKit          3D

 44 47  0  0  0  0  0  0  0  0999 V2000
   54.7430   28.5890   44.4960 H   0  0  0  0  0  0  0  0  0  0  0  0
   55.3550   29.4300   44.5940 N   0  0  0  0  0  0  0  0  0  0  0  0
   56.5210   29.3780   45.1550 C   0  0  0  0  0  0  0  0  0  0  0  0
   57.2710   30.5210   45.2740 N   0  0  0  0  0  0  0  0  0  0  0  0
   58.4940   30.4290   45.8710 C   0  0  0  0  0  0  0  0  0  0  0  0
   59.0010   29.2620   46.3440 C   0  0  0  0  0  0  0  0  0  0  0  0
   60.2310   29.4440   46.8590 N   0  0  0  0  0  0  0  0  0  0  0  0
   60.4330   30.7790   46.6710 C   0  0  0  0  0  0  0  0  0  0  0  0
   61.3540   31.2982   46.9745 H   0  0  0  0  0  0  0  0  0  0  0  0
   59.3860   31.4070   46.0720 N   0  0  0  0  0  0  0  0  0  0  0  0
   59.2950   32.8140   45.6820 C   0  0  0  0  0  0  0  0  0  0  0  0
   60.2893   33.2763   45.7696 H   0  0  0  0  0  0  0  0  0  0  0  0
   58.9347   32.8666   44.6440 H   0  0  0  0  0  0  0  0  0  0  0  0
   58.3040   33.5760   46.5840 C   0  0  0  0  0  0  0  0  0  0  0  0
   58.0938   32.9472   47.4617 H   0  0  0  0  0  0  0  0  0  0  0  0
   58.9020   34.8980   47.0840 C   0  0  0  0  0  0  0  0  0  0  0  0
   58.9056   34.9060   48.1840 H   0  0  0  0  0  0  0  0  0  0  0  0
   59.9328   34.9976   46.7132 H   0  0  0  0  0  0  0  0  0  0  0  0
   58.2962   35.7379   46.7132 H   0  0  0  0  0  0  0  0  0  0  0  0
   56.9970   33.8410   45.8260 C   0  0  0  0  0  0  0  0  0  0  0  0
   56.1823   34.0062   46.5464 H   0  0  0  0  0  0  0  0  0  0  0  0
   57.1142   34.7337   45.1940 H   0  0  0  0  0  0  0  0  0  0  0  0
   56.7572   32.9732   45.1940 H   0  0  0  0  0  0  0  0  0  0  0  0
   58.2410   28.1150   46.2190 C   0  0  0  0  0  0  0  0  0  0  0  0
   58.4920   26.8170   46.5930 C   0  0  0  0  0  0  0  0  0  0  0  0
   59.3847   26.4099   47.0904 H   0  0  0  0  0  0  0  0  0  0  0  0
   57.3370   26.1380   46.1880 C   0  0  0  0  0  0  0  0  0  0  0  0
   57.0630   24.6890   46.3450 C   0  0  0  0  0  0  0  0  0  0  0  0
   56.4820   24.1770   47.5210 C   0  0  0  0  0  0  0  0  0  0  0  0
   56.2237   24.8597   48.3439 H   0  0  0  0  0  0  0  0  0  0  0  0
   56.2310   22.8090   47.6510 C   0  0  0  0  0  0  0  0  0  0  0  0
   55.7764   22.4242   48.5758 H   0  0  0  0  0  0  0  0  0  0  0  0
   56.5520   21.9240   46.6170 C   0  0  0  0  0  0  0  0  0  0  0  0
   56.2790   20.5590   46.7980 O   0  0  0  0  0  0  0  0  0  0  0  0
   57.0860   19.5040   46.2880 C   0  0  0  0  0  0  0  0  0  0  0  0
   57.5198   18.9369   47.1247 H   0  0  0  0  0  0  0  0  0  0  0  0
   56.4677   18.8341   45.6725 H   0  0  0  0  0  0  0  0  0  0  0  0
   57.8944   19.9254   45.6725 H   0  0  0  0  0  0  0  0  0  0  0  0
   57.1330   22.4280   45.4400 C   0  0  0  0  0  0  0  0  0  0  0  0
   57.3905   21.7419   44.6197 H   0  0  0  0  0  0  0  0  0  0  0  0
   57.3850   23.7960   45.3070 C   0  0  0  0  0  0  0  0  0  0  0  0
   57.8397   24.1784   44.3813 H   0  0  0  0  0  0  0  0  0  0  0  0
   56.4660   27.0020   45.6070 N   0  0  0  0  0  0  0  0  0  0  0  0
   57.0320   28.1970   45.6360 N   0  0  0  0  0  0  0  0  0  0  0  0
  1  2  1  0
  2  3  2  0
  3  4  1  0
  4  5  1  0
  5  6  2  0
  6  7  1  0
  7  8  2  0
  8  9  1  0
  8 10  1  0
 10 11  1  0
 11 12  1  0
 11 13  1  0
 11 14  1  0
 14 15  1  0
 14 16  1  0
 16 17  1  0
 16 18  1  0
 16 19  1  0
 14 20  1  0
 20 21  1  0
 20 22  1  0
 20 23  1  0
  6 24  1  0
 24 25  2  0
 25 26  1  0
 25 27  1  0
 27 28  1  0
 28 29  2  0
 29 30  1  0
 29 31  1  0
 31 32  1  0
 31 33  2  0
 33 34  1  0
 34 35  1  0
 35 36  1  0
 35 37  1  0
 35 38  1  0
 33 39  1  0
 39 40  1  0
 39 41  2  0
 41 42  1  0
 27 43  2  0
 43 44  1  0
 44  3  1  0
 10  5  1  0
 44 24  1  0
 41 28  1  0
M  CHG  1   4  -1
M  END
>  <UniqueID>  (39) 
36

>  <SMILES>  (39) 
[H]/N=c1/[n-]c2c(ncn2CC(C)C)c2cc(-c3ccc(OC)cc3)nn12

>  <Energy>  (39) 
119.54567522181554

>  <Genealogy>  (39) 
COc1ccc(-c2cc3c4ncn(CC(C)C)c4[n-]c(=N)n3n2)cc1 (protonated)
[H]/N=c1/[n-]c2c(ncn2CC(C)C)c2cc(-c3ccc(OC)cc3)nn12 (cis-trans isomerization)
[H]/N=c1/[n-]c2c(ncn2CC(C)C)c2cc(-c3ccc(OC)cc3)nn12 (3D coordinates assigned)
[H]/N=c1/[n-]c2c(ncn2CC(C)C)c2cc(-c3ccc(OC)cc3)nn12 (optimized conformer: 119.54567522181554 kcal/mol)

>  <smiles>  (39) 
COc1ccc(-c2cc3c4ncn(CC(C)C)c4[nH]c(=N)n3n2)cc1

>  <score_type>  (39) 
oracle

>  <origin>  (39) 
adg

>  <m_score__min__energy>  (39) 
-8.8399999999999999

>  <m_primary>  (39) 
energy

$$$$
39:0
     RDKit          2D

 35 38  0  0  0  0  0  0  0  0999 V2000
    3.0000    0.0000    0.0000 O   0  0  0  0  0  0  0  0  0  0  0  0
    1.5000    0.0000    0.0000 C   0  0  0  0  0  0  0  0  0  0  0  0
    0.7500   -1.2990    0.0000 C   0  0  0  0  0  0  0  0  0  0  0  0
   -0.7500   -1.2990    0.0000 C   0  0  0  0  0  0  0  0  0  0  0  0
   -1.5000    0.0000    0.0000 C   0  0  0  0  0  0  0  0  0  0  0  0
   -0.7500    1.2990    0.0000 C   0  0  0  0  0  0  0  0  0  0  0  0
    0.7500    1.2990    0.0000 C   0  0  0  0  0  0  0  0  0  0  0  0
    1.5000    2.5981    0.0000 O   0  0  0  0  0  0  0  0  0  0  0  0
   -2.9832    0.2236    0.0000 C   0  0  0  0  0  0  0  0  0  0  0  0
   -4.0828   -0.7967    0.0000 N   0  0  0  0  0  0  0  0  0  0  0  0
   -2.2990   -2.0929    0.0000 C   0  0  0  0  0  0  0  0  0  0  0  0
   -1.8379   -3.5203    0.0000 C   0  0  0  0  0  0  0  0  0  0  0  0
   -2.8435   -4.6333    0.0000 C   0  0  0  0  0  0  0  0  0  0  0  0
   -4.1949   -5.2841    0.0000 C   0  0  0  0  0  0  0  0  0  0  0  0
   -5.4343   -4.4391    0.0000 C   0  0  0  0  0  0  0  0  0  0  0  0
   -5.3222   -2.9433    0.0000 C   0  0  0  0  0  0  0  0  0  0  0  0
   -6.5615   -2.0983    0.0000 O   0  0  0  0  0  0  0  0  0  0  0  0
   -3.9707   -2.2925    0.0000 C   0  0  0  0  0  0  0  0  0  0  0  0
   -2.7314   -3.1375    0.0000 C   0  0  0  0  0  0  0  0  0  0  0  0
   -1.2980   -2.6953    0.0000 C   0  0  0  0  0  0  0  0  0  0  0  0
    3.7500   -1.2990    0.0000 H   0  0  0  0  0  0  0  0  0  0  0  0
    1.5000   -2.5981    0.0000 H   0  0  0  0  0  0  0  0  0  0  0  0
   -1.5000    2.5981    0.0000 H   0  0  0  0  0  0  0  0  0  0  0  0
    3.0000    2.5981    0.0000 H   0  0  0  0  0  0  0  0  0  0  0  0
   -2.4352    1.6199    0.0000 H   0  0  0  0  0  0  0  0  0  0  0  0
   -4.2226    1.0685    0.0000 H   0  0  0  0  0  0  0  0  0  0  0  0
   -1.5063   -2.1776    0.0000 H   0  0  0  0  0  0  0  0  0  0  0  0
   -2.2441   -0.5939    0.0000 H   0  0  0  0  0  0  0  0  0  0  0  0
   -1.0675   -4.8074    0.0000 H   0  0  0  0  0  0  0  0  0  0  0  0
   -0.3487   -3.3401    0.0000 H   0  0  0  0  0  0  0  0  0  0  0  0
   -4.3070   -6.7799    0.0000 H   0  0  0  0  0  0  0  0  0  0  0  0
   -6.7857   -5.0900    0.0000 H   0  0  0  0  0  0  0  0  0  0  0  0
   -6.4494   -0.6025    0.0000 H   0  0  0  0  0  0  0  0  0  0  0  0
   -1.0044   -4.1663    0.0000 H   0  0  0  0  0  0  0  0  0  0  0  0
    0.2014   -2.7364    0.0000 H   0  0  0  0  0  0  0  0  0  0  0  0
  1  2  1  0
  2  3  2  0
  3  4  1  0
  4  5  2  0
  5  6  1  0
  6  7  2  0
  7  8  1  0
  5  9  1  0
  9 10  1  0
 10 11  1  0
 11 12  1  0
 12 13  1  0
 13 14  2  0
 14 15  1  0
 15 16  2  0
 16 17  1  0
 16 18  1  0
 18 19  2  0
 19 20  1  0
  7  2  1  0
 18 10  1  0
 20  4  1  0
 19 13  1  0
  1 21  1  0
  3 22  1  0
  6 23  1  0
  8 24  1  0
  9 25  1  0
  9 26  1  0
 11 27  1  0
 11 28  1  0
 12 29  1  0
 12 30  1  0
 14 31  1  0
 15 32  1  0
 17 33  1  0
 20 34  1  0
 20 35  1  0
M  END
>  <smiles>  (40) 
Oc1cc2c(cc1O)CN1CCc3ccc(O)c1c3C2

>  <m_score__min__energy>  (40) 
nan

>  <m_primary>  (40) 
energy

$$$$
40:0
     RDKit          3D

 41 43  0  0  0  0  0  0  0  0999 V2000
   58.8930   34.4880   53.1770 C   0  0  0  0  0  0  0  0  0  0  0  0
   58.8960   34.4130   51.7540 O   0  0  0  0  0  0  0  0  0  0  0  0
   59.4530   33.3580   51.0180 C   0  0  0  0  0  0  0  0  0  0  0  0
   59.0600   32.0530   51.3270 C   0  0  0  0  0  0  0  0  0  0  0  0
   59.5840   30.9670   50.6230 C   0  0  0  0  0  0  0  0  0  0  0  0
   60.5170   31.1710   49.5890 C   0  0  0  0  0  0  0  0  0  0  0  0
   61.0400   30.1030   48.8410 O   0  0  0  0  0  0  0  0  0  0  0  0
   60.4070   28.8380   48.6880 C   0  0  0  0  0  0  0  0  0  0  0  0
   60.9300   32.4820   49.2830 C   0  0  0  0  0  0  0  0  0  0  0  0
   61.9080   32.7220   48.2560 N   0  0  0  0  0  0  0  0  0  0  0  0
   61.7230   33.1960   46.9980 C   0  0  0  0  0  0  0  0  0  0  0  0
   60.4220   33.4950   46.3720 C   0  0  0  0  0  0  0  0  0  0  0  0
   60.0230   34.7590   45.9850 C   0  0  0  0  0  0  0  0  0  0  0  0
   58.7500   34.6260   45.4660 C   0  0  0  0  0  0  0  0  0  0  0  0
   58.4300   33.2850   45.5390 C   0  0  0  0  0  0  0  0  0  0  0  0
   59.4550   32.5950   46.0770 N   0  0  0  0  0  0  0  0  0  0  0  0
   59.4840   31.1460   46.2510 C   0  0  0  0  0  0  0  0  0  0  0  0
   62.9000   33.4080   46.3730 N   0  0  0  0  0  0  0  0  0  0  0  0
   63.8450   33.0520   47.2290 N   0  0  0  0  0  0  0  0  0  0  0  0
   63.2510   32.6490   48.3660 C   0  0  0  0  0  0  0  0  0  0  0  0
   63.9970   32.2000   49.5840 C   0  0  0  0  0  0  0  0  0  0  0  0
   60.3890   33.5670   49.9900 C   0  0  0  0  0  0  0  0  0  0  0  0
   58.9336   33.4725   53.5978 H   0  0  0  0  0  0  0  0  0  0  0  0
   59.7690   35.0606   53.5158 H   0  0  0  0  0  0  0  0  0  0  0  0
   57.9741   34.9888   53.5158 H   0  0  0  0  0  0  0  0  0  0  0  0
   58.3310   31.8797   52.1324 H   0  0  0  0  0  0  0  0  0  0  0  0
   59.2656   29.9454   50.8781 H   0  0  0  0  0  0  0  0  0  0  0  0
   60.1940   28.4123   49.6796 H   0  0  0  0  0  0  0  0  0  0  0  0
   59.4656   28.9638   48.1330 H   0  0  0  0  0  0  0  0  0  0  0  0
   61.0720   28.1599   48.1330 H   0  0  0  0  0  0  0  0  0  0  0  0
   60.6044   35.6886   46.0728 H   0  0  0  0  0  0  0  0  0  0  0  0
   58.1144   35.4322   45.0711 H   0  0  0  0  0  0  0  0  0  0  0  0
   57.4783   32.8445   45.2069 H   0  0  0  0  0  0  0  0  0  0  0  0
   59.4888   30.9056   47.3244 H   0  0  0  0  0  0  0  0  0  0  0  0
   58.5946   30.7022   45.7799 H   0  0  0  0  0  0  0  0  0  0  0  0
   60.3905   30.7382   45.7799 H   0  0  0  0  0  0  0  0  0  0  0  0
   64.8690   33.1040   47.0370 H   0  0  0  0  0  0  0  0  0  0  0  0
   63.4568   32.5251   50.4854 H   0  0  0  0  0  0  0  0  0  0  0  0
   64.0780   31.1030   49.5807 H   0  0  0  0  0  0  0  0  0  0  0  0
   65.0043   32.6420   49.5807 H   0  0  0  0  0  0  0  0  0  0  0  0
   60.7005   34.5913   49.7372 H   0  0  0  0  0  0  0  0  0  0  0  0
  1  2  1  0
  2  3  1  0
  3  4  2  0
  4  5  1  0
  5  6  2  0
  6  7  1  0
  7  8  1  0
  6  9  1  0
  9 10  1  0
 10 11  1  0
 11 12  1  0
 12 13  2  0
 13 14  1  0
 14 15  2  0
 15 16  1  0
 16 17  1  0
 11 18  2  0
 18 19  1  0
 19 20  2  0
 20 21  1  0
  9 22  2  0
 22  3  1  0
 20 10  1  0
 16 12  1  0
  1 23  1  0
  1 24  1  0
  1 25  1  0
  4 26  1  0
  5 27  1  0
  8 28  1  0
  8 29  1  0
  8 30  1  0
 13 31  1  0
 14 32  1  0
 15 33  1  0
 17 34  1  0
 17 35  1  0
 17 36  1  0
 19 37  1  0
 21 38  1  0
 21 39  1  0
 21 40  1  0
 22 41  1  0
M  CHG  1  19   1
M  END
>  <UniqueID>  (41) 
37

>  <SMILES>  (41) 
COc1ccc(OC)c(-n2c(-c3cccn3C)n[nH+]c2C)c1

>  <Energy>  (41) 
110.17917618732669

>  <Genealogy>  (41) 
COc1ccc(OC)c(-n2c(-c3cccn3C)n[nH+]c2C)c1 (protonated)
COc1ccc(OC)c(-n2c(-c3cccn3C)n[nH+]c2C)c1 (3D coordinates assigned)
COc1ccc(OC)c(-n2c(-c3cccn3C)n[nH+]c2C)c1 (optimized conformer: 110.17917618732669 kcal/mol)

>  <smiles>  (41) 
COc1ccc(OC)c(-n2c(C)nnc2-c2cccn2C)c1

>  <score_type>  (41) 
oracle

>  <origin>  (41) 
adg

>  <m_score__min__energy>  (41) 
-4.54

>  <m_primary>  (41) 
energy

$$$$
41:0
     RDKit          3D

 62 66  0  0  1  0  0  0  0  0999 V2000
   58.2230   32.4000   41.7970 C   0  0  0  0  0  0  0  0  0  0  0  0
   57.7260   31.8220   43.0270 N   0  0  0  0  0  0  0  0  0  0  0  0
   57.1820   30.4780   43.1030 C   0  0  0  0  0  0  0  0  0  0  0  0
   57.7770   32.6140   44.2090 C   0  0  0  0  0  0  0  0  0  0  0  0
   56.6690   32.7090   45.0310 C   0  0  0  0  0  0  0  0  0  0  0  0
   56.6460   33.4540   46.1870 C   0  0  0  0  0  0  0  0  0  0  0  0
   57.8000   34.1510   46.5530 C   0  0  0  0  0  0  0  0  0  0  0  0
   58.8930   34.0430   45.7210 C   0  0  0  0  0  0  0  0  0  0  0  0
   60.1250   34.7960   46.1250 C   0  0  0  0  0  0  0  0  0  0  0  0
   60.6190   34.2880   47.4120 N   0  0  0  0  0  0  0  0  0  0  0  0
   59.9350   34.2390   48.5610 C   0  0  0  0  0  0  0  0  0  0  0  0
   60.7380   33.6910   49.5730 C   0  0  0  0  0  0  0  0  0  0  0  0
   60.2710   33.5360   50.9490 C   0  0  0  0  0  0  0  0  0  0  0  0
   58.8320   33.1310   51.0140 C   0  0  0  0  0  0  0  0  0  0  0  0
   58.5280   31.7820   50.7770 N   0  0  0  0  0  0  0  0  0  0  0  0
   59.3430   30.9270   50.3420 C   0  0  0  0  0  0  0  0  0  0  0  0
   60.1080   30.3070   51.2810 N   0  0  0  0  0  0  0  0  0  0  0  0
   61.0040   29.3570   51.0040 C   0  0  0  0  0  0  0  0  0  0  0  0
   61.1520   28.9970   49.7210 N   0  0  0  0  0  0  0  0  0  0  0  0
   60.4110   29.5870   48.7470 C   0  0  0  0  0  0  0  0  0  0  0  0
   59.4830   30.5700   49.0010 C   0  0  0  0  0  0  0  0  0  0  0  0
   58.6790   31.2770   47.9970 C   0  0  0  0  0  0  0  0  0  0  0  0
   59.5940   31.1050   46.7440 C   0  0  0  0  0  0  0  0  0  0  0  0
   59.6000   29.6340   46.4310 C   0  0  0  0  0  0  0  0  0  0  0  0
   60.6720   29.0470   47.3630 C   0  0  0  0  0  0  0  0  0  0  0  0
   61.9290   33.4240   48.9460 C   0  0  0  0  0  0  0  0  0  0  0  0
   63.1030   32.8690   49.3980 C   0  0  0  0  0  0  0  0  0  0  0  0
   64.1650   32.6930   48.5410 C   0  0  0  0  0  0  0  0  0  0  0  0
   64.0880   33.0610   47.2230 C   0  0  0  0  0  0  0  0  0  0  0  0
   62.9220   33.6200   46.7430 C   0  0  0  0  0  0  0  0  0  0  0  0
   61.8720   33.7860   47.6180 C   0  0  0  0  0  0  0  0  0  0  0  0
   58.8720   33.2960   44.5860 N   0  0  0  0  0  0  0  0  0  0  0  0
   58.9237   33.2149   42.0317 H   0  0  0  0  0  0  0  0  0  0  0  0
   58.7426   31.6267   41.2122 H   0  0  0  0  0  0  0  0  0  0  0  0
   57.3806   32.7978   41.2122 H   0  0  0  0  0  0  0  0  0  0  0  0
   57.0650   30.1889   44.1579 H   0  0  0  0  0  0  0  0  0  0  0  0
   56.2019   30.4504   42.6044 H   0  0  0  0  0  0  0  0  0  0  0  0
   57.8670   29.7764   42.6044 H   0  0  0  0  0  0  0  0  0  0  0  0
   55.7592   32.1605   44.7457 H   0  0  0  0  0  0  0  0  0  0  0  0
   55.7399   33.4999   46.8089 H   0  0  0  0  0  0  0  0  0  0  0  0
   57.8347   34.7609   47.4677 H   0  0  0  0  0  0  0  0  0  0  0  0
   60.9020   34.6637   45.3577 H   0  0  0  0  0  0  0  0  0  0  0  0
   59.8814   35.8640   46.2254 H   0  0  0  0  0  0  0  0  0  0  0  0
   58.8969   34.5781   48.6928 H   0  0  0  0  0  0  0  0  0  0  0  0
   60.8790   32.7650   51.4450 H   0  0  0  0  0  0  0  0  0  0  0  0
   60.3715   34.5091   51.4519 H   0  0  0  0  0  0  0  0  0  0  0  0
   58.4647   33.3797   52.0206 H   0  0  0  0  0  0  0  0  0  0  0  0
   58.3496   33.6763   50.1894 H   0  0  0  0  0  0  0  0  0  0  0  0
   60.0210   30.5610   52.3110 H   0  0  0  0  0  0  0  0  0  0  0  0
   61.5997   28.8863   51.8000 H   0  0  0  0  0  0  0  0  0  0  0  0
   57.6970   30.8028   47.8532 H   0  0  0  0  0  0  0  0  0  0  0  0
   58.4334   32.3187   48.2510 H   0  0  0  0  0  0  0  0  0  0  0  0
   59.1891   31.6745   45.8945 H   0  0  0  0  0  0  0  0  0  0  0  0
   60.6106   31.4796   46.9342 H   0  0  0  0  0  0  0  0  0  0  0  0
   58.6165   29.1879   46.6400 H   0  0  0  0  0  0  0  0  0  0  0  0
   59.8118   29.4327   45.3705 H   0  0  0  0  0  0  0  0  0  0  0  0
   60.6048   27.9491   47.3689 H   0  0  0  0  0  0  0  0  0  0  0  0
   61.6794   29.3262   47.0207 H   0  0  0  0  0  0  0  0  0  0  0  0
   63.1937   32.5639   50.4509 H   0  0  0  0  0  0  0  0  0  0  0  0
   65.0958   32.2474   48.9219 H   0  0  0  0  0  0  0  0  0  0  0  0
   64.9484   32.9119   46.5540 H   0  0  0  0  0  0  0  0  0  0  0  0
   62.8334   33.9249   45.6898 H   0  0  0  0  0  0  0  0  0  0  0  0
  1  2  1  0
  2  3  1  0
  2  4  1  0
  4  5  2  0
  5  6  1  0
  6  7  2  0
  7  8  1  0
  8  9  1  0
  9 10  1  0
 10 11  1  0
 11 12  2  0
 12 13  1  0
 13 14  1  0
 14 15  1  0
 15 16  2  0
 16 17  1  0
 17 18  1  0
 18 19  2  0
 19 20  1  0
 20 21  2  0
 21 22  1  0
 22 23  1  0
 23 24  1  0
 24 25  1  0
 12 26  1  0
 26 27  2  0
 27 28  1  0
 28 29  2  0
 29 30  1  0
 30 31  2  0
  8 32  2  0
 32  4  1  0
 31 10  1  0
 21 16  1  0
 31 26  1  0
 25 20  1  0
  1 33  1  0
  1 34  1  0
  1 35  1  0
  3 36  1  0
  3 37  1  0
  3 38  1  0
  5 39  1  0
  6 40  1  0
  7 41  1  0
  9 42  1  0
  9 43  1  0
 11 44  1  0
 13 45  1  0
 13 46  1  0
 14 47  1  0
 14 48  1  0
 17 49  1  0
 18 50  1  0
 22 51  1  0
 22 52  1  0
 23 53  1  0
 23 54  1  0
 24 55  1  0
 24 56  1  0
 25 57  1  0
 25 58  1  0
 27 59  1  0
 28 60  1  0
 29 61  1  0
 30 62  1  0
M  END
>  <smiles>  (42) 
CN(C)c1cccc(Cn2cc(CCN=c3[nH]cnc4c3CCCC4)c3ccccc32)n1

>  <score_type>  (42) 
oracle

>  <origin>  (42) 
adg

>  <m_score__min__energy>  (42) 
-9.4100000000000001

>  <m_primary>  (42) 
energy

$$$$
42:0
     RDKit          3D

 37 39  0  0  0  0  0  0  0  0999 V2000
   59.2590   35.3370   44.8700 C   0  0  0  0  0  0  0  0  0  0  0  0
   57.8120   34.2990   45.2470 S   0  0  0  0  0  0  0  0  0  0  0  0
   58.8080   32.8610   45.6820 C   0  0  0  0  0  0  0  0  0  0  0  0
   59.9290   33.0610   46.4950 C   0  0  0  0  0  0  0  0  0  0  0  0
   60.7370   31.9740   46.8610 C   0  0  0  0  0  0  0  0  0  0  0  0
   61.9360   32.1450   47.7200 C   0  0  0  0  0  0  0  0  0  0  0  0
   62.9910   33.0020   47.3480 C   0  0  0  0  0  0  0  0  0  0  0  0
   64.1150   33.1400   48.1680 C   0  0  0  0  0  0  0  0  0  0  0  0
   64.2040   32.4230   49.3630 C   0  0  0  0  0  0  0  0  0  0  0  0
   63.1720   31.5620   49.7380 C   0  0  0  0  0  0  0  0  0  0  0  0
   62.0450   31.4180   48.9220 C   0  0  0  0  0  0  0  0  0  0  0  0
   60.4000   30.7280   46.4330 N   0  0  0  0  0  0  0  0  0  0  0  0
   59.3160   30.4850   45.6480 C   0  0  0  0  0  0  0  0  0  0  0  0
   59.0280   29.1700   45.2330 C   0  0  0  0  0  0  0  0  0  0  0  0
   59.9170   28.0260   45.6430 C   0  0  0  0  0  0  0  0  0  0  0  0
   57.9130   28.9320   44.4160 C   0  0  0  0  0  0  0  0  0  0  0  0
   57.0730   29.9840   44.0290 C   0  0  0  0  0  0  0  0  0  0  0  0
   55.9040   29.7210   43.1240 C   0  0  0  0  0  0  0  0  0  0  0  0
   57.3680   31.2940   44.4320 C   0  0  0  0  0  0  0  0  0  0  0  0
   58.4850   31.5580   45.2470 C   0  0  0  0  0  0  0  0  0  0  0  0
   59.7250   35.6713   45.8087 H   0  0  0  0  0  0  0  0  0  0  0  0
   59.9867   34.7537   44.2868 H   0  0  0  0  0  0  0  0  0  0  0  0
   58.9397   36.2133   44.2868 H   0  0  0  0  0  0  0  0  0  0  0  0
   60.1774   34.0728   46.8480 H   0  0  0  0  0  0  0  0  0  0  0  0
   62.9298   33.5664   46.4058 H   0  0  0  0  0  0  0  0  0  0  0  0
   64.9312   33.8150   47.8711 H   0  0  0  0  0  0  0  0  0  0  0  0
   65.0874   32.5369   50.0085 H   0  0  0  0  0  0  0  0  0  0  0  0
   63.2449   30.9950   50.6778 H   0  0  0  0  0  0  0  0  0  0  0  0
   61.2383   30.7325   49.2208 H   0  0  0  0  0  0  0  0  0  0  0  0
   59.9602   27.9704   46.7407 H   0  0  0  0  0  0  0  0  0  0  0  0
   59.5109   27.0848   45.2439 H   0  0  0  0  0  0  0  0  0  0  0  0
   60.9293   28.1870   45.2439 H   0  0  0  0  0  0  0  0  0  0  0  0
   57.6960   27.9087   44.0757 H   0  0  0  0  0  0  0  0  0  0  0  0
   55.0087   29.5196   43.7306 H   0  0  0  0  0  0  0  0  0  0  0  0
   55.7263   30.6016   42.4892 H   0  0  0  0  0  0  0  0  0  0  0  0
   56.1206   28.8491   42.4892 H   0  0  0  0  0  0  0  0  0  0  0  0
   56.7210   32.1227   44.1085 H   0  0  0  0  0  0  0  0  0  0  0  0
  1  2  1  0
  2  3  1  0
  3  4  2  0
  4  5  1  0
  5  6  1  0
  6  7  2  0
  7  8  1  0
  8  9  2  0
  9 10  1  0
 10 11  2  0
  5 12  2  0
 12 13  1  0
 13 14  2  0
 14 15  1  0
 14 16  1  0
 16 17  2  0
 17 18  1  0
 17 19  1  0
 19 20  2  0
 20  3  1  0
 11  6  1  0
 20 13  1  0
  1 21  1  0
  1 22  1  0
  1 23  1  0
  4 24  1  0
  7 25  1  0
  8 26  1  0
  9 27  1  0
 10 28  1  0
 11 29  1  0
 15 30  1  0
 15 31  1  0
 15 32  1  0
 16 33  1  0
 18 34  1  0
 18 35  1  0
 18 36  1  0
 19 37  1  0
M  END
>  <UniqueID>  (43) 
38

>  <SMILES>  (43) 
CSc1cc(-c2ccccc2)nc2c(C)cc(C)cc12

>  <Energy>  (43) 
42.887786107898194

>  <Genealogy>  (43) 
CSc1cc(-c2ccccc2)nc2c(C)cc(C)cc12 (3D coordinates assigned)
CSc1cc(-c2ccccc2)nc2c(C)cc(C)cc12 (optimized conformer: 42.887786107898194 kcal/mol)

>  <smiles>  (43) 
CSc1cc(-c2ccccc2)nc2c(C)cc(C)cc12

>  <score_type>  (43) 
oracle

>  <origin>  (43) 
adg

>  <m_score__min__energy>  (43) 
-7.5300000000000002

>  <m_primary>  (43) 
energy

$$$$
43:0
     RDKit          3D

 37 38  0  0  0  0  0  0  0  0999 V2000
   57.1180   30.8300   43.2850 C   0  0  0  0  0  0  0  0  0  0  0  0
   56.1590   30.0610   44.1780 C   0  0  0  0  0  0  0  0  0  0  0  0
   56.8550   29.5740   45.3190 O   0  0  0  0  0  0  0  0  0  0  0  0
   56.9510   28.2110   45.6190 C   0  0  0  0  0  0  0  0  0  0  0  0
   55.9170   27.4880   45.6250 O   0  0  0  0  0  0  0  0  0  0  0  0
   58.3080   27.6350   45.9540 C   0  0  1  0  0  0  0  0  0  0  0  0
   59.4140   28.2230   45.0430 C   0  0  0  0  0  0  0  0  0  0  0  0
   60.2680   29.3010   45.7380 C   0  0  0  0  0  0  0  0  0  0  0  0
   59.4660   30.0670   46.7070 N   0  0  2  0  0  0  0  0  0  0  0  0
   60.3800   31.4380   47.2840 S   0  0  0  0  0  0  0  0  0  0  0  0
   61.8290   31.2790   46.9160 O   0  0  0  0  0  0  0  0  0  0  0  0
   60.2670   31.5410   48.7800 O   0  0  0  0  0  0  0  0  0  0  0  0
   59.7720   32.9100   46.5490 C   0  0  0  0  0  0  0  0  0  0  0  0
   60.3030   34.1770   46.7260 C   0  0  0  0  0  0  0  0  0  0  0  0
   59.6340   35.1570   45.9840 C   0  0  0  0  0  0  0  0  0  0  0  0
   58.5830   34.6590   45.2240 C   0  0  0  0  0  0  0  0  0  0  0  0
   58.4860   32.9970   45.4720 S   0  0  0  0  0  0  0  0  0  0  0  0
   59.0380   29.2260   47.8510 C   0  0  0  0  0  0  0  0  0  0  0  0
   58.6710   27.7790   47.4460 C   0  0  0  0  0  0  0  0  0  0  0  0
   57.8250   31.3969   43.9086 H   0  0  0  0  0  0  0  0  0  0  0  0
   57.6735   30.1242   42.6500 H   0  0  0  0  0  0  0  0  0  0  0  0
   56.5498   31.5256   42.6500 H   0  0  0  0  0  0  0  0  0  0  0  0
   55.3463   30.7277   44.5021 H   0  0  0  0  0  0  0  0  0  0  0  0
   55.7386   29.2130   43.6174 H   0  0  0  0  0  0  0  0  0  0  0  0
   58.2425   26.5552   45.7547 H   0  0  0  0  0  0  0  0  0  0  0  0
   58.9364   28.6720   44.1596 H   0  0  0  0  0  0  0  0  0  0  0  0
   60.0884   27.3964   44.7749 H   0  0  0  0  0  0  0  0  0  0  0  0
   60.6670   29.9889   44.9780 H   0  0  0  0  0  0  0  0  0  0  0  0
   61.0880   28.8042   46.2772 H   0  0  0  0  0  0  0  0  0  0  0  0
   58.6210   30.4530   46.2230 H   0  0  0  0  0  0  0  0  0  0  0  0
   61.1605   34.3905   47.3810 H   0  0  0  0  0  0  0  0  0  0  0  0
   59.9138   36.2207   46.0009 H   0  0  0  0  0  0  0  0  0  0  0  0
   57.9253   35.2509   44.5705 H   0  0  0  0  0  0  0  0  0  0  0  0
   58.1568   29.6921   48.3160 H   0  0  0  0  0  0  0  0  0  0  0  0
   59.8896   29.1631   48.5444 H   0  0  0  0  0  0  0  0  0  0  0  0
   57.8084   27.4565   48.0476 H   0  0  0  0  0  0  0  0  0  0  0  0
   59.5593   27.1557   47.6262 H   0  0  0  0  0  0  0  0  0  0  0  0
  1  2  1  0
  2  3  1  0
  3  4  1  0
  4  5  2  0
  4  6  1  0
  6  7  1  0
  7  8  1  0
  8  9  1  0
  9 10  1  0
 10 11  2  0
 10 12  2  0
 10 13  1  0
 13 14  2  0
 14 15  1  0
 15 16  2  0
 16 17  1  0
  9 18  1  0
 18 19  1  0
 19  6  1  0
 17 13  1  0
  1 20  1  0
  1 21  1  0
  1 22  1  0
  2 23  1  0
  2 24  1  0
  6 25  1  6
  7 26  1  0
  7 27  1  0
  8 28  1  0
  8 29  1  0
  9 30  1  6
 14 31  1  0
 15 32  1  0
 16 33  1  0
 18 34  1  0
 18 35  1  0
 19 36  1  0
 19 37  1  0
M  CHG  1   9   1
M  END
>  <UniqueID>  (44) 
39

>  <SMILES>  (44) 
CCOC(=O)C1CC[NH+](S(=O)(=O)c2cccs2)CC1

>  <Energy>  (44) 
62.45040384649367

>  <Genealogy>  (44) 
CCOC(=O)C1CC[NH+](S(=O)(=O)c2cccs2)CC1 (protonated)
CCOC(=O)C1CC[NH+](S(=O)(=O)c2cccs2)CC1 (3D coordinates assigned)
CCOC(=O)C1CC[NH+](S(=O)(=O)c2cccs2)CC1 (nonaromatic ring conformer: 62.45040384649367 kcal/mol)

>  <smiles>  (44) 
CCOC(=O)C1CCN(S(=O)(=O)c2cccs2)CC1

>  <score_type>  (44) 
oracle

>  <origin>  (44) 
adg

>  <m_score__min__energy>  (44) 
-5.8799999999999999

>  <m_primary>  (44) 
energy

$$$$
44:0
     RDKit          3D

 37 38  0  0  0  0  0  0  0  0999 V2000
   58.2930   32.3670   41.4710 C   0  0  0  0  0  0  0  0  0  0  0  0
   57.0870   31.8330   42.2350 C   0  0  0  0  0  0  0  0  0  0  0  0
   57.4190   31.6380   43.6510 N   0  0  0  0  0  0  0  0  0  0  0  0
   57.0750   30.6000   44.4650 C   0  0  0  0  0  0  0  0  0  0  0  0
   56.2810   29.4000   44.0340 C   0  0  0  0  0  0  0  0  0  0  0  0
   55.7720   28.6870   45.1980 N   0  0  0  0  0  0  0  0  0  0  0  0
   56.2690   27.4140   45.6240 C   0  0  0  0  0  0  0  0  0  0  0  0
   55.4760   26.5350   46.0640 O   0  0  0  0  0  0  0  0  0  0  0  0
   57.7430   27.1300   45.5480 C   0  0  0  0  0  0  0  0  0  0  0  0
   58.1390   26.7130   44.1280 C   0  0  0  0  0  0  0  0  0  0  0  0
   58.1340   26.0540   46.5650 C   0  0  0  0  0  0  0  0  0  0  0  0
   57.4910   30.7840   45.7440 N   0  0  0  0  0  0  0  0  0  0  0  0
   58.1110   31.9740   45.7250 C   0  0  0  0  0  0  0  0  0  0  0  0
   58.7110   32.6490   46.7860 C   0  0  0  0  0  0  0  0  0  0  0  0
   59.2840   33.9060   46.5180 C   0  0  0  0  0  0  0  0  0  0  0  0
   59.2410   34.4490   45.2140 C   0  0  0  0  0  0  0  0  0  0  0  0
   58.6250   33.7420   44.1650 C   0  0  0  0  0  0  0  0  0  0  0  0
   58.0680   32.4960   44.4630 C   0  0  0  0  0  0  0  0  0  0  0  0
   59.0584   32.7059   42.1846 H   0  0  0  0  0  0  0  0  0  0  0  0
   58.7091   31.5690   40.8385 H   0  0  0  0  0  0  0  0  0  0  0  0
   57.9818   33.2115   40.8385 H   0  0  0  0  0  0  0  0  0  0  0  0
   56.2593   32.5529   42.1534 H   0  0  0  0  0  0  0  0  0  0  0  0
   56.7928   30.8652   41.8027 H   0  0  0  0  0  0  0  0  0  0  0  0
   55.4358   29.7284   43.4112 H   0  0  0  0  0  0  0  0  0  0  0  0
   56.9333   28.7267   43.4585 H   0  0  0  0  0  0  0  0  0  0  0  0
   58.2903   28.0512   45.7967 H   0  0  0  0  0  0  0  0  0  0  0  0
   58.8957   25.9162   44.1774 H   0  0  0  0  0  0  0  0  0  0  0  0
   57.2515   26.3432   43.5935 H   0  0  0  0  0  0  0  0  0  0  0  0
   58.5541   27.5802   43.5935 H   0  0  0  0  0  0  0  0  0  0  0  0
   57.9924   26.4437   47.5839 H   0  0  0  0  0  0  0  0  0  0  0  0
   57.5011   25.1659   46.4208 H   0  0  0  0  0  0  0  0  0  0  0  0
   59.1894   25.7794   46.4208 H   0  0  0  0  0  0  0  0  0  0  0  0
   57.3460   30.1520   46.5630 H   0  0  0  0  0  0  0  0  0  0  0  0
   58.7359   32.2150   47.7965 H   0  0  0  0  0  0  0  0  0  0  0  0
   59.7686   34.4696   47.3289 H   0  0  0  0  0  0  0  0  0  0  0  0
   59.6928   35.4325   45.0175 H   0  0  0  0  0  0  0  0  0  0  0  0
   58.5835   34.1556   43.1466 H   0  0  0  0  0  0  0  0  0  0  0  0
  1  2  1  0
  2  3  1  0
  3  4  1  0
  4  5  1  0
  5  6  1  0
  6  7  1  0
  7  8  2  0
  7  9  1  0
  9 10  1  0
  9 11  1  0
  4 12  2  0
 12 13  1  0
 13 14  2  0
 14 15  1  0
 15 16  2  0
 16 17  1  0
 17 18  2  0
 18  3  1  0
 18 13  1  0
  1 19  1  0
  1 20  1  0
  1 21  1  0
  2 22  1  0
  2 23  1  0
  5 24  1  0
  5 25  1  0
  9 26  1  0
 10 27  1  0
 10 28  1  0
 10 29  1  0
 11 30  1  0
 11 31  1  0
 11 32  1  0
 12 33  1  0
 14 34  1  0
 15 35  1  0
 16 36  1  0
 17 37  1  0
M  CHG  2   6  -1  12   1
M  END
>  <UniqueID>  (45) 
40

>  <SMILES>  (45) 
CCn1c(C[N-]C(=O)C(C)C)[nH+]c2ccccc21

>  <Energy>  (45) 
63.0594401168931

>  <Genealogy>  (45) 
CCn1c(C[N-]C(=O)C(C)C)[nH+]c2ccccc21 (protonated)
CCn1c(C[N-]C(=O)C(C)C)[nH+]c2ccccc21 (3D coordinates assigned)
CCn1c(C[N-]C(=O)C(C)C)[nH+]c2ccccc21 (optimized conformer: 63.0594401168931 kcal/mol)

>  <smiles>  (45) 
CCn1c(CNC(=O)C(C)C)nc2ccccc21

>  <score_type>  (45) 
oracle

>  <origin>  (45) 
adg

>  <m_score__min__energy>  (45) 
-7.29

>  <m_primary>  (45) 
energy

$$$$
45:0
     RDKit          3D

 38 41  0  0  0  0  0  0  0  0999 V2000
   57.7740   33.0860   43.2770 O   0  0  0  0  0  0  0  0  0  0  0  0
   58.2880   33.2510   44.4140 C   0  0  0  0  0  0  0  0  0  0  0  0
   58.7150   34.4880   44.7910 N   0  0  0  0  0  0  0  0  0  0  0  0
   59.2650   34.7170   46.0220 C   0  0  0  0  0  0  0  0  0  0  0  0
   59.6460   35.8840   46.3140 O   0  0  0  0  0  0  0  0  0  0  0  0
   59.4030   33.6920   46.9290 N   0  0  0  0  0  0  0  0  0  0  0  0
   59.9600   33.9490   48.2710 C   0  0  0  0  0  0  0  0  0  0  0  0
   61.4430   33.6740   48.2900 C   0  0  0  0  0  0  0  0  0  0  0  0
   62.1320   33.4150   47.0930 C   0  0  0  0  0  0  0  0  0  0  0  0
   63.5020   33.1350   47.1130 C   0  0  0  0  0  0  0  0  0  0  0  0
   64.1940   33.1090   48.3270 C   0  0  0  0  0  0  0  0  0  0  0  0
   63.5160   33.3630   49.5220 C   0  0  0  0  0  0  0  0  0  0  0  0
   62.1460   33.6430   49.5060 C   0  0  0  0  0  0  0  0  0  0  0  0
   58.9790   32.4460   46.5570 C   0  0  0  0  0  0  0  0  0  0  0  0
   59.0170   31.0230   47.4660 S   0  0  0  0  0  0  0  0  0  0  0  0
   58.3070   30.0680   46.2730 C   0  0  0  0  0  0  0  0  0  0  0  0
   58.0690   30.8330   45.1300 C   0  0  0  0  0  0  0  0  0  0  0  0
   58.4280   32.1860   45.3100 C   0  0  0  0  0  0  0  0  0  0  0  0
   57.4090   30.2440   43.9070 C   0  0  0  0  0  0  0  0  0  0  0  0
   57.4490   28.7050   43.9170 C   0  0  0  0  0  0  0  0  0  0  0  0
   57.0700   28.1370   45.2930 C   0  0  0  0  0  0  0  0  0  0  0  0
   58.0660   28.5930   46.3700 C   0  0  0  0  0  0  0  0  0  0  0  0
   58.6160   35.2860   44.1210 H   0  0  0  0  0  0  0  0  0  0  0  0
   59.7836   35.0007   48.5407 H   0  0  0  0  0  0  0  0  0  0  0  0
   59.4659   33.2836   48.9942 H   0  0  0  0  0  0  0  0  0  0  0  0
   61.5910   33.4326   46.1354 H   0  0  0  0  0  0  0  0  0  0  0  0
   64.0356   32.9350   46.1721 H   0  0  0  0  0  0  0  0  0  0  0  0
   65.2716   32.8887   48.3417 H   0  0  0  0  0  0  0  0  0  0  0  0
   64.0610   33.3427   50.4773 H   0  0  0  0  0  0  0  0  0  0  0  0
   61.6164   33.8399   50.4498 H   0  0  0  0  0  0  0  0  0  0  0  0
   56.3595   30.5721   43.8766 H   0  0  0  0  0  0  0  0  0  0  0  0
   57.9599   30.5932   43.0213 H   0  0  0  0  0  0  0  0  0  0  0  0
   56.7402   28.3249   43.1666 H   0  0  0  0  0  0  0  0  0  0  0  0
   58.4761   28.3866   43.6851 H   0  0  0  0  0  0  0  0  0  0  0  0
   56.0630   28.4884   45.5623 H   0  0  0  0  0  0  0  0  0  0  0  0
   57.0926   27.0387   45.2371 H   0  0  0  0  0  0  0  0  0  0  0  0
   57.6570   28.3579   47.3637 H   0  0  0  0  0  0  0  0  0  0  0  0
   59.0197   28.0666   46.2174 H   0  0  0  0  0  0  0  0  0  0  0  0
  1  2  2  0
  2  3  1  0
  3  4  1  0
  4  5  2  0
  4  6  1  0
  6  7  1  0
  7  8  1  0
  8  9  2  0
  9 10  1  0
 10 11  2  0
 11 12  1  0
 12 13  2  0
  6 14  1  0
 14 15  1  0
 15 16  1  0
 16 17  2  0
 17 18  1  0
 17 19  1  0
 19 20  1  0
 20 21  1  0
 21 22  1  0
 18  2  1  0
 13  8  1  0
 18 14  2  0
 22 16  1  0
  3 23  1  0
  7 24  1  0
  7 25  1  0
  9 26  1  0
 10 27  1  0
 11 28  1  0
 12 29  1  0
 13 30  1  0
 19 31  1  0
 19 32  1  0
 20 33  1  0
 20 34  1  0
 21 35  1  0
 21 36  1  0
 22 37  1  0
 22 38  1  0
M  END
>  <UniqueID>  (46) 
41

>  <SMILES>  (46) 
O=c1[nH]c(=O)n(Cc2ccccc2)c2sc3c(c12)CCCC3

>  <Energy>  (46) 
76.63386704424306

>  <Genealogy>  (46) 
O=c1[nH]c(=O)n(Cc2ccccc2)c2sc3c(c12)CCCC3 (3D coordinates assigned)
O=c1[nH]c(=O)n(Cc2ccccc2)c2sc3c(c12)CCCC3 (nonaromatic ring conformer: 76.63386704424306 kcal/mol)

>  <smiles>  (46) 
O=c1[nH]c(=O)n(Cc2ccccc2)c2sc3c(c12)CCCC3

>  <score_type>  (46) 
oracle

>  <origin>  (46) 
adg

>  <m_score__min__energy>  (46) 
-7.8099999999999996

>  <m_primary>  (46) 
energy

$$$$
46:0
     RDKit          3D

 50 54  0  0  0  0  0  0  0  0999 V2000
   60.3000   33.8180   49.8220 C   0  0  0  0  0  0  0  0  0  0  0  0
   60.8010   33.6580   48.4590 N   0  0  0  0  0  0  0  0  0  0  0  0
   62.0400   33.2580   48.1310 C   0  0  0  0  0  0  0  0  0  0  0  0
   62.2100   33.4460   46.7800 C   0  0  0  0  0  0  0  0  0  0  0  0
   61.0910   33.9860   46.2580 N   0  0  0  0  0  0  0  0  0  0  0  0
   60.2430   34.0870   47.3010 C   0  0  0  0  0  0  0  0  0  0  0  0
   58.8850   34.7320   47.1850 C   0  0  0  0  0  0  0  0  0  0  0  0
   57.8580   33.9220   46.4750 N   0  0  1  0  0  0  0  0  0  0  0  0
   57.6380   34.3090   45.0490 C   0  0  0  0  0  0  0  0  0  0  0  0
   58.4330   33.4800   44.0290 C   0  0  0  0  0  0  0  0  0  0  0  0
   58.3070   32.0620   44.3540 N   0  0  0  0  0  0  0  0  0  0  0  0
   57.4390   31.1980   43.5750 C   0  0  0  0  0  0  0  0  0  0  0  0
   57.0190   31.5720   42.4470 O   0  0  0  0  0  0  0  0  0  0  0  0
   56.9840   29.8610   44.0960 C   0  0  0  0  0  0  0  0  0  0  0  0
   57.8890   29.3920   45.1820 C   0  0  0  0  0  0  0  0  0  0  0  0
   58.7220   30.2120   45.9170 C   0  0  0  0  0  0  0  0  0  0  0  0
   59.3550   29.5050   46.8900 N   0  0  0  0  0  0  0  0  0  0  0  0
   60.2590   30.0220   47.9160 C   0  0  0  0  0  0  0  0  0  0  0  0
   58.8850   28.2400   46.7850 C   0  0  0  0  0  0  0  0  0  0  0  0
   59.1800   27.1380   47.5930 C   0  0  0  0  0  0  0  0  0  0  0  0
   58.5420   25.9170   47.3060 C   0  0  0  0  0  0  0  0  0  0  0  0
   57.6250   25.8210   46.2370 C   0  0  0  0  0  0  0  0  0  0  0  0
   57.3350   26.9450   45.4450 C   0  0  0  0  0  0  0  0  0  0  0  0
   57.9880   28.1390   45.7470 C   0  0  0  0  0  0  0  0  0  0  0  0
   58.7940   31.7010   45.6920 C   0  0  2  0  0  0  0  0  0  0  0  0
   57.9390   32.4560   46.7260 C   0  0  0  0  0  0  0  0  0  0  0  0
   61.0960   33.5638   50.5374 H   0  0  0  0  0  0  0  0  0  0  0  0
   59.9866   34.8609   49.9774 H   0  0  0  0  0  0  0  0  0  0  0  0
   59.4402   33.1498   49.9774 H   0  0  0  0  0  0  0  0  0  0  0  0
   62.7902   32.8499   48.8243 H   0  0  0  0  0  0  0  0  0  0  0  0
   63.1184   33.1947   46.2129 H   0  0  0  0  0  0  0  0  0  0  0  0
   58.5162   34.9341   48.2014 H   0  0  0  0  0  0  0  0  0  0  0  0
   59.0287   35.6403   46.5814 H   0  0  0  0  0  0  0  0  0  0  0  0
   56.9700   34.2120   46.9520 H   0  0  0  0  0  0  0  0  0  0  0  0
   56.5674   34.1940   44.8240 H   0  0  0  0  0  0  0  0  0  0  0  0
   57.9921   35.3458   44.9503 H   0  0  0  0  0  0  0  0  0  0  0  0
   58.0365   33.6619   43.0192 H   0  0  0  0  0  0  0  0  0  0  0  0
   59.4928   33.7724   44.0635 H   0  0  0  0  0  0  0  0  0  0  0  0
   55.9617   29.9547   44.4912 H   0  0  0  0  0  0  0  0  0  0  0  0
   57.0056   29.1312   43.2733 H   0  0  0  0  0  0  0  0  0  0  0  0
   59.8539   29.7903   48.9121 H   0  0  0  0  0  0  0  0  0  0  0  0
   61.2475   29.5527   47.8039 H   0  0  0  0  0  0  0  0  0  0  0  0
   60.3558   31.1120   47.8039 H   0  0  0  0  0  0  0  0  0  0  0  0
   59.8901   27.2228   48.4288 H   0  0  0  0  0  0  0  0  0  0  0  0
   58.7596   25.0303   47.9195 H   0  0  0  0  0  0  0  0  0  0  0  0
   57.1343   24.8601   46.0226 H   0  0  0  0  0  0  0  0  0  0  0  0
   56.6165   26.8847   44.6143 H   0  0  0  0  0  0  0  0  0  0  0  0
   59.8517   31.9856   45.7939 H   0  0  0  0  0  0  0  0  0  0  0  0
   56.9200   32.0423   46.7035 H   0  0  0  0  0  0  0  0  0  0  0  0
   58.4228   32.3221   47.7048 H   0  0  0  0  0  0  0  0  0  0  0  0
  1  2  1  0
  2  3  1  0
  3  4  2  0
  4  5  1  0
  5  6  2  0
  6  7  1  0
  7  8  1  0
  8  9  1  0
  9 10  1  0
 10 11  1  0
 11 12  1  0
 12 13  2  0
 12 14  1  0
 14 15  1  0
 15 16  2  0
 16 17  1  0
 17 18  1  0
 17 19  1  0
 19 20  2  0
 20 21  1  0
 21 22  2  0
 22 23  1  0
 23 24  2  0
 16 25  1  0
 25 26  1  0
  6  2  1  0
 26  8  1  0
 25 11  1  0
 24 15  1  0
 24 19  1  0
  1 27  1  0
  1 28  1  0
  1 29  1  0
  3 30  1  0
  4 31  1  0
  7 32  1  0
  7 33  1  0
  8 34  1  1
  9 35  1  0
  9 36  1  0
 10 37  1  0
 10 38  1  0
 14 39  1  0
 14 40  1  0
 18 41  1  0
 18 42  1  0
 18 43  1  0
 20 44  1  0
 21 45  1  0
 22 46  1  0
 23 47  1  0
 25 48  1  6
 26 49  1  0
 26 50  1  0
M  CHG  1   8   1
M  END
>  <UniqueID>  (47) 
42

>  <SMILES>  (47) 
Cn1ccnc1C[N@H+]1CCN2C(=O)Cc3c(n(C)c4ccccc34)[C@@H]2C1

>  <Energy>  (47) 
131.71081634911826

>  <Genealogy>  (47) 
Cn1ccnc1C[NH+]1CCN2C(=O)Cc3c(n(C)c4ccccc34)C2C1 (protonated)
Cn1ccnc1C[N@H+]1CCN2C(=O)Cc3c(n(C)c4ccccc34)[C@@H]2C1 (chirality)
Cn1ccnc1C[N@H+]1CCN2C(=O)Cc3c(n(C)c4ccccc34)[C@@H]2C1 (3D coordinates assigned)
Cn1ccnc1C[N@H+]1CCN2C(=O)Cc3c(n(C)c4ccccc34)[C@@H]2C1 (nonaromatic ring conformer: 131.71081634911826 kcal/mol)

>  <smiles>  (47) 
Cn1ccnc1CN1CCN2C(=O)Cc3c(n(C)c4ccccc34)C2C1

>  <score_type>  (47) 
oracle

>  <origin>  (47) 
adg

>  <m_score__min__energy>  (47) 
-6.5099999999999998

>  <m_primary>  (47) 
energy

$$$$
47:0
     RDKit          3D

 51 53  0  0  0  0  0  0  0  0999 V2000
   55.8100   29.1960   45.0000 N   0  0  0  0  0  0  0  0  0  0  0  0
   57.0540   28.5570   44.7130 C   0  0  0  0  0  0  0  0  0  0  0  0
   57.8380   29.0840   43.8780 O   0  0  0  0  0  0  0  0  0  0  0  0
   57.4470   27.2540   45.3710 C   0  0  2  0  0  0  0  0  0  0  0  0
   56.3450   26.6650   46.2990 C   0  0  0  0  0  0  0  0  0  0  0  0
   56.3790   25.1910   46.4090 N   0  0  0  0  0  0  0  0  0  0  0  0
   55.7350   24.5040   45.2640 C   0  0  0  0  0  0  0  0  0  0  0  0
   56.3020   23.1220   45.0570 C   0  0  0  0  0  0  0  0  0  0  0  0
   57.0840   22.8440   43.9270 C   0  0  0  0  0  0  0  0  0  0  0  0
   57.5810   21.5530   43.7350 C   0  0  0  0  0  0  0  0  0  0  0  0
   57.3040   20.5720   44.6360 N   0  0  0  0  0  0  0  0  0  0  0  0
   56.5430   20.8150   45.7390 C   0  0  0  0  0  0  0  0  0  0  0  0
   56.0270   22.0930   45.9680 C   0  0  0  0  0  0  0  0  0  0  0  0
   57.6740   24.6240   46.8600 C   0  0  0  0  0  0  0  0  0  0  0  0
   58.8390   24.8390   45.8760 C   0  0  0  0  0  0  0  0  0  0  0  0
   59.6010   26.1690   46.0530 C   0  0  0  0  0  0  0  0  0  0  0  0
   58.7700   27.4000   46.0410 N   0  0  0  0  0  0  0  0  0  0  0  0
   58.8490   28.1610   47.3170 C   0  0  0  0  0  0  0  0  0  0  0  0
   60.1590   28.9440   47.4770 C   0  0  0  0  0  0  0  0  0  0  0  0
   59.9760   30.3790   47.0570 C   0  0  0  0  0  0  0  0  0  0  0  0
   61.0210   31.3040   47.2140 C   0  0  0  0  0  0  0  0  0  0  0  0
   60.8380   32.6420   46.8560 C   0  0  0  0  0  0  0  0  0  0  0  0
   59.6060   33.0700   46.3490 C   0  0  0  0  0  0  0  0  0  0  0  0
   59.3760   34.7510   45.9010 Cl  0  0  0  0  0  0  0  0  0  0  0  0
   58.5560   32.1570   46.2040 C   0  0  0  0  0  0  0  0  0  0  0  0
   58.7370   30.8180   46.5620 C   0  0  0  0  0  0  0  0  0  0  0  0
   55.1450   28.7880   45.6930 H   0  0  0  0  0  0  0  0  0  0  0  0
   57.5511   26.4988   44.5780 H   0  0  0  0  0  0  0  0  0  0  0  0
   56.4756   27.0904   47.3050 H   0  0  0  0  0  0  0  0  0  0  0  0
   55.3757   26.9294   45.8511 H   0  0  0  0  0  0  0  0  0  0  0  0
   54.6554   24.4218   45.4581 H   0  0  0  0  0  0  0  0  0  0  0  0
   55.9264   25.0945   44.3559 H   0  0  0  0  0  0  0  0  0  0  0  0
   57.3045   23.6368   43.1971 H   0  0  0  0  0  0  0  0  0  0  0  0
   58.1983   21.3287   42.8526 H   0  0  0  0  0  0  0  0  0  0  0  0
   57.6820   19.6110   44.4790 H   0  0  0  0  0  0  0  0  0  0  0  0
   56.3341   20.0032   46.4512 H   0  0  0  0  0  0  0  0  0  0  0  0
   55.4095   22.2901   46.8567 H   0  0  0  0  0  0  0  0  0  0  0  0
   57.9410   25.0948   47.8176 H   0  0  0  0  0  0  0  0  0  0  0  0
   57.5292   23.5367   46.9428 H   0  0  0  0  0  0  0  0  0  0  0  0
   59.5550   24.0145   46.0086 H   0  0  0  0  0  0  0  0  0  0  0  0
   58.3927   24.8702   44.8711 H   0  0  0  0  0  0  0  0  0  0  0  0
   60.1296   26.1287   47.0168 H   0  0  0  0  0  0  0  0  0  0  0  0
   60.2649   26.2499   45.1797 H   0  0  0  0  0  0  0  0  0  0  0  0
   58.0107   28.8723   47.3517 H   0  0  0  0  0  0  0  0  0  0  0  0
   58.8053   27.4284   48.1364 H   0  0  0  0  0  0  0  0  0  0  0  0
   60.4716   28.9133   48.5312 H   0  0  0  0  0  0  0  0  0  0  0  0
   60.9267   28.4835   46.8378 H   0  0  0  0  0  0  0  0  0  0  0  0
   61.9881   30.9735   47.6208 H   0  0  0  0  0  0  0  0  0  0  0  0
   61.6633   33.3598   46.9728 H   0  0  0  0  0  0  0  0  0  0  0  0
   57.5866   32.4933   45.8077 H   0  0  0  0  0  0  0  0  0  0  0  0
   57.9059   30.1053   46.4557 H   0  0  0  0  0  0  0  0  0  0  0  0
  1  2  1  0
  2  3  2  0
  2  4  1  0
  4  5  1  0
  5  6  1  0
  6  7  1  0
  7  8  1  0
  8  9  2  0
  9 10  1  0
 10 11  2  0
 11 12  1  0
 12 13  2  0
  6 14  1  0
 14 15  1  0
 15 16  1  0
 16 17  1  0
 17 18  1  0
 18 19  1  0
 19 20  1  0
 20 21  2  0
 21 22  1  0
 22 23  2  0
 23 24  1  0
 23 25  1  0
 25 26  2  0
 17  4  1  0
 26 20  1  0
 13  8  1  0
  1 27  1  0
  4 28  1  6
  5 29  1  0
  5 30  1  0
  7 31  1  0
  7 32  1  0
  9 33  1  0
 10 34  1  0
 11 35  1  0
 12 36  1  0
 13 37  1  0
 14 38  1  0
 14 39  1  0
 15 40  1  0
 15 41  1  0
 16 42  1  0
 16 43  1  0
 18 44  1  0
 18 45  1  0
 19 46  1  0
 19 47  1  0
 21 48  1  0
 22 49  1  0
 25 50  1  0
 26 51  1  0
M  CHG  2   1  -1  11   1
M  END
>  <UniqueID>  (48) 
43

>  <SMILES>  (48) 
[NH-]C(=O)[C@@H]1CN(Cc2cc[nH+]cc2)CCCN1CCc1ccc(Cl)cc1

>  <Energy>  (48) 
77.90888988687166

>  <Genealogy>  (48) 
[NH-]C(=O)C1CN(Cc2cc[nH+]cc2)CCCN1CCc1ccc(Cl)cc1 (protonated)
[NH-]C(=O)[C@@H]1CN(Cc2cc[nH+]cc2)CCCN1CCc1ccc(Cl)cc1 (chirality)
[NH-]C(=O)[C@@H]1CN(Cc2cc[nH+]cc2)CCCN1CCc1ccc(Cl)cc1 (3D coordinates assigned)
[NH-]C(=O)[C@@H]1CN(Cc2cc[nH+]cc2)CCCN1CCc1ccc(Cl)cc1 (nonaromatic ring conformer: 77.90888988687166 kcal/mol)

>  <smiles>  (48) 
NC(=O)C1CN(Cc2ccncc2)CCCN1CCc1ccc(Cl)cc1

>  <score_type>  (48) 
oracle

>  <origin>  (48) 
adg

>  <m_score__min__energy>  (48) 
-8.6600000000000001

>  <m_primary>  (48) 
energy

$$$$
