0:0
     RDKit          3D

 35 36  0  0  0  0  0  0  0  0999 V2000
   56.6270   30.3270   43.5350 C   0  0  0  0  0  0  0  0  0  0  0  0
   56.9160   30.6880   44.8820 O   0  0  0  0  0  0  0  0  0  0  0  0
   57.7090   31.7810   45.2620 C   0  0  0  0  0  0  0  0  0  0  0  0
   57.3460   33.1080   44.9530 C   0  0  0  0  0  0  0  0  0  0  0  0
   58.1440   34.1740   45.3740 C   0  0  0  0  0  0  0  0  0  0  0  0
   59.3070   33.9330   46.1070 C   0  0  0  0  0  0  0  0  0  0  0  0
   59.6800   32.6250   46.4150 C   0  0  0  0  0  0  0  0  0  0  0  0
   58.8930   31.5420   45.9890 C   0  0  0  0  0  0  0  0  0  0  0  0
   59.2880   30.1980   46.3140 N   0  0  0  0  0  0  0  0  0  0  0  0
   58.6000   29.4680   47.3820 C   0  0  0  0  0  0  0  0  0  0  0  0
   58.9230   27.9670   47.3060 C   0  0  0  0  0  0  0  0  0  0  0  0
   58.9930   27.4880   45.9050 N   0  0  0  0  0  0  0  0  0  0  0  0
   57.6700   27.5890   45.2380 C   0  0  0  0  0  0  0  0  0  0  0  0
   56.6750   26.7070   45.8730 C   0  0  0  0  0  0  0  0  0  0  0  0
   55.8960   26.0130   46.3720 N   0  0  0  0  0  0  0  0  0  0  0  0
   60.0700   28.1710   45.1290 C   0  0  0  0  0  0  0  0  0  0  0  0
   60.4370   29.5750   45.6540 C   0  0  0  0  0  0  0  0  0  0  0  0
   55.9396   29.4683   43.5250 H   0  0  0  0  0  0  0  0  0  0  0  0
   56.1580   31.1782   43.0198 H   0  0  0  0  0  0  0  0  0  0  0  0
   57.5602   30.0556   43.0198 H   0  0  0  0  0  0  0  0  0  0  0  0
   56.4295   33.3046   44.3773 H   0  0  0  0  0  0  0  0  0  0  0  0
   57.8552   35.2063   45.1272 H   0  0  0  0  0  0  0  0  0  0  0  0
   59.9299   34.7755   46.4420 H   0  0  0  0  0  0  0  0  0  0  0  0
   60.5961   32.4401   46.9951 H   0  0  0  0  0  0  0  0  0  0  0  0
   58.9274   29.8594   48.3565 H   0  0  0  0  0  0  0  0  0  0  0  0
   57.5150   29.6039   47.2626 H   0  0  0  0  0  0  0  0  0  0  0  0
   59.8929   27.7867   47.7926 H   0  0  0  0  0  0  0  0  0  0  0  0
   58.1167   27.4181   47.8145 H   0  0  0  0  0  0  0  0  0  0  0  0
   59.2400   26.4690   45.9630 H   0  0  0  0  0  0  0  0  0  0  0  0
   57.3170   28.6289   45.3004 H   0  0  0  0  0  0  0  0  0  0  0  0
   57.7879   27.2770   44.1898 H   0  0  0  0  0  0  0  0  0  0  0  0
   60.9722   27.5428   45.1652 H   0  0  0  0  0  0  0  0  0  0  0  0
   59.6850   28.3069   44.1076 H   0  0  0  0  0  0  0  0  0  0  0  0
   61.2630   29.4863   46.3750 H   0  0  0  0  0  0  0  0  0  0  0  0
   60.7388   30.2029   44.8027 H   0  0  0  0  0  0  0  0  0  0  0  0
  1  2  1  0
  2  3  1  0
  3  4  2  0
  4  5  1  0
  5  6  2  0
  6  7  1  0
  7  8  2  0
  8  9  1  0
  9 10  1  0
 10 11  1  0
 11 12  1  0
 12 13  1  0
 13 14  1  0
 14 15  3  0
 12 16  1  0
 16 17  1  0
  8  3  1  0
 17  9  1  0
  1 18  1  0
  1 19  1  0
  1 20  1  0
  4 21  1  0
  5 22  1  0
  6 23  1  0
  7 24  1  0
 10 25  1  0
 10 26  1  0
 11 27  1  0
 11 28  1  0
 12 29  1  0
 13 30  1  0
 13 31  1  0
 16 32  1  0
 16 33  1  0
 17 34  1  0
 17 35  1  0
M  CHG  1  12   1
M  END
>  <UniqueID>  (1) 
1

>  <SMILES>  (1) 
COc1ccccc1N1CC[NH+](CC#N)CC1

>  <Energy>  (1) 
45.981314345479234

>  <Genealogy>  (1) 
COc1ccccc1N1CC[NH+](CC#N)CC1 (protonated)
COc1ccccc1N1CC[NH+](CC#N)CC1 (3D coordinates assigned)
COc1ccccc1N1CC[NH+](CC#N)CC1 (nonaromatic ring conformer: 45.981314345479234 kcal/mol)

>  <smiles>  (1) 
COc1ccccc1N1CCN(CC#N)CC1

>  <score_type>  (1) 
oracle

>  <origin>  (1) 
adg

>  <m_score__min__energy>  (1) 
-4.0700000000000003

>  <m_primary>  (1) 
energy

$$$$
1:0
     RDKit          3D

 62 66  0  0  0  0  0  0  0  0999 V2000
   56.1710   20.3480   44.7860 C   0  0  0  0  0  0  0  0  0  0  0  0
   56.1070   19.8300   46.2210 C   0  0  0  0  0  0  0  0  0  0  0  0
   55.0750   20.5880   47.0720 C   0  0  0  0  0  0  0  0  0  0  0  0
   55.0200   22.0190   46.7060 N   0  0  0  0  0  0  0  0  0  0  0  0
   56.1270   22.8140   46.9110 C   0  0  0  0  0  0  0  0  0  0  0  0
   57.1840   22.3540   47.4250 O   0  0  0  0  0  0  0  0  0  0  0  0
   56.0610   24.1430   46.5370 C   0  0  0  0  0  0  0  0  0  0  0  0
   57.0020   25.0930   46.6400 N   0  0  0  0  0  0  0  0  0  0  0  0
   56.3740   26.1770   46.1130 C   0  0  0  0  0  0  0  0  0  0  0  0
   57.0210   27.4890   45.9950 C   0  0  0  0  0  0  0  0  0  0  0  0
   56.6050   28.5650   45.2320 C   0  0  0  0  0  0  0  0  0  0  0  0
   57.4750   29.5820   45.3960 N   0  0  0  0  0  0  0  0  0  0  0  0
   58.4110   29.1770   46.2410 N   0  0  0  0  0  0  0  0  0  0  0  0
   59.5260   30.0120   46.6830 C   0  0  0  0  0  0  0  0  0  0  0  0
   59.2400   30.6110   48.0440 C   0  0  0  0  0  0  0  0  0  0  0  0
   59.2840   29.7760   49.1760 C   0  0  0  0  0  0  0  0  0  0  0  0
   58.9870   30.2810   50.4440 C   0  0  0  0  0  0  0  0  0  0  0  0
   58.6370   31.6230   50.6010 C   0  0  0  0  0  0  0  0  0  0  0  0
   58.5830   32.4650   49.4900 C   0  0  0  0  0  0  0  0  0  0  0  0
   58.8880   31.9770   48.2090 C   0  0  0  0  0  0  0  0  0  0  0  0
   58.7870   32.9050   47.0640 C   0  0  0  0  0  0  0  0  0  0  0  0
   57.7630   32.7600   46.1130 C   0  0  0  0  0  0  0  0  0  0  0  0
   57.6600   33.6600   45.0480 C   0  0  0  0  0  0  0  0  0  0  0  0
   58.5840   34.7020   44.9210 C   0  0  0  0  0  0  0  0  0  0  0  0
   59.6180   34.8410   45.8530 C   0  0  0  0  0  0  0  0  0  0  0  0
   59.7230   33.9430   46.9180 C   0  0  0  0  0  0  0  0  0  0  0  0
   58.1740   27.9080   46.6220 C   0  0  0  0  0  0  0  0  0  0  0  0
   55.1010   25.9460   45.6930 N   0  0  0  0  0  0  0  0  0  0  0  0
   54.9410   24.6450   45.9800 C   0  0  0  0  0  0  0  0  0  0  0  0
   53.8330   23.8850   45.7580 N   0  0  0  0  0  0  0  0  0  0  0  0
   52.6160   24.4860   45.1860 C   0  0  0  0  0  0  0  0  0  0  0  0
   52.2400   23.7760   43.8810 C   0  0  0  0  0  0  0  0  0  0  0  0
   50.8480   24.1850   43.4110 C   0  0  0  0  0  0  0  0  0  0  0  0
   53.8750   22.5590   46.1380 C   0  0  0  0  0  0  0  0  0  0  0  0
   52.8560   21.8320   45.9640 O   0  0  0  0  0  0  0  0  0  0  0  0
   56.3059   21.4397   44.7959 H   0  0  0  0  0  0  0  0  0  0  0  0
   57.0180   19.8786   44.2642 H   0  0  0  0  0  0  0  0  0  0  0  0
   55.2352   20.0989   44.2642 H   0  0  0  0  0  0  0  0  0  0  0  0
   55.8337   18.7647   46.2002 H   0  0  0  0  0  0  0  0  0  0  0  0
   57.0960   19.9835   46.6775 H   0  0  0  0  0  0  0  0  0  0  0  0
   54.0828   20.1400   46.9143 H   0  0  0  0  0  0  0  0  0  0  0  0
   55.3745   20.5122   48.1277 H   0  0  0  0  0  0  0  0  0  0  0  0
   55.7090   28.5875   44.5943 H   0  0  0  0  0  0  0  0  0  0  0  0
   60.4359   29.3969   46.7433 H   0  0  0  0  0  0  0  0  0  0  0  0
   59.6645   30.8288   45.9593 H   0  0  0  0  0  0  0  0  0  0  0  0
   59.5547   28.7160   49.0612 H   0  0  0  0  0  0  0  0  0  0  0  0
   59.0291   29.6190   51.3215 H   0  0  0  0  0  0  0  0  0  0  0  0
   58.4036   32.0169   51.6012 H   0  0  0  0  0  0  0  0  0  0  0  0
   58.2992   33.5200   49.6185 H   0  0  0  0  0  0  0  0  0  0  0  0
   57.0403   31.9360   46.2066 H   0  0  0  0  0  0  0  0  0  0  0  0
   56.8521   33.5484   44.3099 H   0  0  0  0  0  0  0  0  0  0  0  0
   58.4976   35.4137   44.0867 H   0  0  0  0  0  0  0  0  0  0  0  0
   60.3480   35.6570   45.7473 H   0  0  0  0  0  0  0  0  0  0  0  0
   60.5416   34.0488   47.6452 H   0  0  0  0  0  0  0  0  0  0  0  0
   58.7907   27.3120   47.3108 H   0  0  0  0  0  0  0  0  0  0  0  0
   51.7893   24.3873   45.9049 H   0  0  0  0  0  0  0  0  0  0  0  0
   52.8048   25.5490   44.9755 H   0  0  0  0  0  0  0  0  0  0  0  0
   52.9729   24.0408   43.1046 H   0  0  0  0  0  0  0  0  0  0  0  0
   52.2413   22.6910   44.0623 H   0  0  0  0  0  0  0  0  0  0  0  0
   50.2067   24.3734   44.2846 H   0  0  0  0  0  0  0  0  0  0  0  0
   50.9198   25.1000   42.8047 H   0  0  0  0  0  0  0  0  0  0  0  0
   50.4135   23.3766   42.8047 H   0  0  0  0  0  0  0  0  0  0  0  0
  1  2  1  0
  2  3  1  0
  3  4  1  0
  4  5  1  0
  5  6  2  0
  5  7  1  0
  7  8  1  0
  8  9  1  0
  9 10  1  0
 10 11  1  0
 11 12  2  0
 12 13  1  0
 13 14  1  0
 14 15  1  0
 15 16  2  0
 16 17  1  0
 17 18  2  0
 18 19  1  0
 19 20  2  0
 20 21  1  0
 21 22  2  0
 22 23  1  0
 23 24  2  0
 24 25  1  0
 25 26  2  0
 13 27  1  0
  9 28  2  0
 28 29  1  0
 29 30  1  0
 30 31  1  0
 31 32  1  0
 32 33  1  0
 30 34  1  0
 34 35  2  0
 34  4  1  0
 29  7  2  0
 27 10  2  0
 20 15  1  0
 26 21  1  0
  1 36  1  0
  1 37  1  0
  1 38  1  0
  2 39  1  0
  2 40  1  0
  3 41  1  0
  3 42  1  0
 11 43  1  0
 14 44  1  0
 14 45  1  0
 16 46  1  0
 17 47  1  0
 18 48  1  0
 19 49  1  0
 22 50  1  0
 23 51  1  0
 24 52  1  0
 25 53  1  0
 26 54  1  0
 27 55  1  0
 31 56  1  0
 31 57  1  0
 32 58  1  0
 32 59  1  0
 33 60  1  0
 33 61  1  0
 33 62  1  0
M  CHG  1   8  -1
M  END
>  <UniqueID>  (2) 
2

>  <SMILES>  (2) 
CCCn1c(=O)c2[n-]c(-c3cnn(Cc4ccccc4-c4ccccc4)c3)nc2n(CCC)c1=O

>  <Energy>  (2) 
135.39318375061043

>  <Genealogy>  (2) 
CCCn1c(=O)c2[n-]c(-c3cnn(Cc4ccccc4-c4ccccc4)c3)nc2n(CCC)c1=O (protonated)
CCCn1c(=O)c2[n-]c(-c3cnn(Cc4ccccc4-c4ccccc4)c3)nc2n(CCC)c1=O (3D coordinates assigned)
CCCn1c(=O)c2[n-]c(-c3cnn(Cc4ccccc4-c4ccccc4)c3)nc2n(CCC)c1=O (optimized conformer: 135.39318375061043 kcal/mol)

>  <smiles>  (2) 
CCCn1c(=O)c2[nH]c(-c3cnn(Cc4ccccc4-c4ccccc4)c3)nc2n(CCC)c1=O

>  <score_type>  (2) 
oracle

>  <origin>  (2) 
adg

>  <m_score__min__energy>  (2) 
-10.5

>  <m_primary>  (2) 
energy

$$$$
2:0
     RDKit          3D

 22 23  0  0  0  0  0  0  0  0999 V2000
   59.6440   35.3060   46.7450 C   0  0  0  0  0  0  0  0  0  0  0  0
   59.0160   34.0810   46.1260 C   0  0  0  0  0  0  0  0  0  0  0  0
   57.7710   34.2170   45.4950 C   0  0  0  0  0  0  0  0  0  0  0  0
   57.1510   33.1040   44.9350 C   0  0  0  0  0  0  0  0  0  0  0  0
   57.7720   31.8610   44.9980 C   0  0  0  0  0  0  0  0  0  0  0  0
   56.9030   30.3390   44.2270 Br  0  0  0  0  0  0  0  0  0  0  0  0
   59.0250   31.7470   45.6130 C   0  0  0  0  0  0  0  0  0  0  0  0
   59.5910   30.6180   45.6490 O   0  0  0  0  0  0  0  0  0  0  0  0
   59.6360   32.8500   46.1600 N   0  0  0  0  0  0  0  0  0  0  0  0
   60.9340   32.6960   46.7670 C   0  0  0  0  0  0  0  0  0  0  0  0
   61.3350   31.5690   47.3940 N   0  0  0  0  0  0  0  0  0  0  0  0
   62.6190   31.6510   47.8290 C   0  0  0  0  0  0  0  0  0  0  0  0
   63.2580   32.8520   47.5340 C   0  0  0  0  0  0  0  0  0  0  0  0
   62.1720   33.8340   46.7020 S   0  0  0  0  0  0  0  0  0  0  0  0
   59.6025   35.2251   47.8412 H   0  0  0  0  0  0  0  0  0  0  0  0
   60.6928   35.3831   46.4224 H   0  0  0  0  0  0  0  0  0  0  0  0
   59.0943   36.2026   46.4224 H   0  0  0  0  0  0  0  0  0  0  0  0
   57.2850   35.2024   45.4427 H   0  0  0  0  0  0  0  0  0  0  0  0
   56.1722   33.2070   44.4437 H   0  0  0  0  0  0  0  0  0  0  0  0
   60.7290   30.7300   47.5340 H   0  0  0  0  0  0  0  0  0  0  0  0
   63.1150   30.8328   48.3717 H   0  0  0  0  0  0  0  0  0  0  0  0
   64.2930   33.1142   47.7985 H   0  0  0  0  0  0  0  0  0  0  0  0
  1  2  1  0
  2  3  2  0
  3  4  1  0
  4  5  2  0
  5  6  1  0
  5  7  1  0
  7  8  2  0
  7  9  1  0
  9 10  1  0
 10 11  2  0
 11 12  1  0
 12 13  2  0
 13 14  1  0
  9  2  1  0
 14 10  1  0
  1 15  1  0
  1 16  1  0
  1 17  1  0
  3 18  1  0
  4 19  1  0
 11 20  1  0
 12 21  1  0
 13 22  1  0
M  CHG  1  11   1
M  END
>  <UniqueID>  (3) 
3

>  <SMILES>  (3) 
Cc1ccc(Br)c(=O)n1-c1[nH+]ccs1

>  <Energy>  (3) 
62.51667733648343

>  <Genealogy>  (3) 
Cc1ccc(Br)c(=O)n1-c1[nH+]ccs1 (protonated)
Cc1ccc(Br)c(=O)n1-c1[nH+]ccs1 (3D coordinates assigned)
Cc1ccc(Br)c(=O)n1-c1[nH+]ccs1 (optimized conformer: 62.51667733648343 kcal/mol)

>  <smiles>  (3) 
Cc1ccc(Br)c(=O)n1-c1nccs1

>  <score_type>  (3) 
oracle

>  <origin>  (3) 
adg

>  <m_score__min__energy>  (3) 
-4.4299999999999997

>  <m_primary>  (3) 
energy

$$$$
3:0
     RDKit          3D

 42 45  0  0  0  0  0  0  0  0999 V2000
   56.9216   30.5319   43.5316 H   0  0  0  0  0  0  0  0  0  0  0  0
   57.3940   31.3900   44.0320 C   0  0  0  0  0  0  0  0  0  0  0  0
   57.4270   31.4520   45.4280 C   0  0  0  0  0  0  0  0  0  0  0  0
   56.9790   30.6424   46.0228 H   0  0  0  0  0  0  0  0  0  0  0  0
   58.0310   32.5460   46.0760 C   0  0  0  0  0  0  0  0  0  0  0  0
   58.0820   32.6290   47.5060 N   0  0  0  0  0  0  0  0  0  0  0  0
   58.8640   31.9070   48.2020 N   0  0  0  0  0  0  0  0  0  0  0  0
   60.2270   31.6880   47.8250 C   0  0  0  0  0  0  0  0  0  0  0  0
   60.7560   30.7030   46.9800 C   0  0  0  0  0  0  0  0  0  0  0  0
   60.0490   29.5350   46.4190 C   0  0  0  0  0  0  0  0  0  0  0  0
   59.3590   28.6610   47.2700 C   0  0  0  0  0  0  0  0  0  0  0  0
   59.3554   28.8417   48.3550 H   0  0  0  0  0  0  0  0  0  0  0  0
   58.6750   27.5600   46.7450 C   0  0  0  0  0  0  0  0  0  0  0  0
   58.1475   26.8722   47.4222 H   0  0  0  0  0  0  0  0  0  0  0  0
   58.6560   27.3260   45.3660 C   0  0  0  0  0  0  0  0  0  0  0  0
   57.9670   26.2010   44.8890 O   0  0  0  0  0  0  0  0  0  0  0  0
   57.7470   25.9190   43.5100 C   0  0  0  0  0  0  0  0  0  0  0  0
   57.0729   25.0549   43.4154 H   0  0  0  0  0  0  0  0  0  0  0  0
   57.2910   26.7946   43.0249 H   0  0  0  0  0  0  0  0  0  0  0  0
   58.7073   25.6897   43.0249 H   0  0  0  0  0  0  0  0  0  0  0  0
   59.3260   28.2200   44.5080 C   0  0  0  0  0  0  0  0  0  0  0  0
   59.3104   28.0524   43.4210 H   0  0  0  0  0  0  0  0  0  0  0  0
   60.0110   29.3200   45.0340 C   0  0  0  0  0  0  0  0  0  0  0  0
   60.5227   30.0203   44.3575 H   0  0  0  0  0  0  0  0  0  0  0  0
   62.0760   30.9310   46.7770 N   0  0  0  0  0  0  0  0  0  0  0  0
   62.7330   30.3570   46.2030 H   0  0  0  0  0  0  0  0  0  0  0  0
   62.3810   32.0320   47.4900 C   0  0  0  0  0  0  0  0  0  0  0  0
   63.6230   32.6560   47.5900 C   0  0  0  0  0  0  0  0  0  0  0  0
   64.5034   32.2552   47.0662 H   0  0  0  0  0  0  0  0  0  0  0  0
   63.7150   33.8160   48.3830 C   0  0  0  0  0  0  0  0  0  0  0  0
   64.6811   34.3316   48.4868 H   0  0  0  0  0  0  0  0  0  0  0  0
   62.5750   34.3220   49.0460 C   0  0  0  0  0  0  0  0  0  0  0  0
   62.6585   35.2308   49.6601 H   0  0  0  0  0  0  0  0  0  0  0  0
   61.3330   33.6710   48.9260 C   0  0  0  0  0  0  0  0  0  0  0  0
   60.4369   34.0578   49.4332 H   0  0  0  0  0  0  0  0  0  0  0  0
   61.2770   32.5200   48.1430 C   0  0  0  0  0  0  0  0  0  0  0  0
   58.5970   33.5760   45.3040 C   0  0  0  0  0  0  0  0  0  0  0  0
   59.3540   34.9650   46.0720 Cl  0  0  0  0  0  0  0  0  0  0  0  0
   58.5600   33.5080   43.9060 C   0  0  0  0  0  0  0  0  0  0  0  0
   59.0041   34.3157   43.3056 H   0  0  0  0  0  0  0  0  0  0  0  0
   57.9600   32.4160   43.2710 C   0  0  0  0  0  0  0  0  0  0  0  0
   57.9160   32.3370   41.5190 Cl  0  0  0  0  0  0  0  0  0  0  0  0
  1  2  1  0
  2  3  2  0
  3  4  1  0
  3  5  1  0
  5  6  1  0
  6  7  2  0
  7  8  1  0
  8  9  2  0
  9 10  1  0
 10 11  2  0
 11 12  1  0
 11 13  1  0
 13 14  1  0
 13 15  2  0
 15 16  1  0
 16 17  1  0
 17 18  1  0
 17 19  1  0
 17 20  1  0
 15 21  1  0
 21 22  1  0
 21 23  2  0
 23 24  1  0
  9 25  1  0
 25 26  1  0
 25 27  1  0
 27 28  2  0
 28 29  1  0
 28 30  1  0
 30 31  1  0
 30 32  2  0
 32 33  1  0
 32 34  1  0
 34 35  1  0
 34 36  2  0
  5 37  2  0
 37 38  1  0
 37 39  1  0
 39 40  1  0
 39 41  2  0
 41 42  1  0
 41  2  1  0
 36  8  1  0
 23 10  1  0
 36 27  1  0
M  END
>  <UniqueID>  (4) 
4

>  <SMILES>  (4) 
COc1ccc(-c2[nH]c3ccccc3c2/N=N/c2ccc(Cl)cc2Cl)cc1

>  <Energy>  (4) 
85.16918234113172

>  <Genealogy>  (4) 
COc1ccc(-c2[nH]c3ccccc3c2/N=N/c2ccc(Cl)cc2Cl)cc1 (cis-trans isomerization)
COc1ccc(-c2[nH]c3ccccc3c2/N=N/c2ccc(Cl)cc2Cl)cc1 (3D coordinates assigned)
COc1ccc(-c2[nH]c3ccccc3c2/N=N/c2ccc(Cl)cc2Cl)cc1 (optimized conformer: 85.16918234113172 kcal/mol)

>  <smiles>  (4) 
COc1ccc(-c2[nH]c3ccccc3c2N=Nc2ccc(Cl)cc2Cl)cc1

>  <score_type>  (4) 
oracle

>  <origin>  (4) 
adg

>  <m_score__min__energy>  (4) 
-8.0500000000000007

>  <m_primary>  (4) 
energy

$$$$
4:0
     RDKit          3D

 30 31  0  0  0  0  0  0  0  0999 V2000
   57.7740   33.2390   46.6280 C   0  0  0  0  0  0  0  0  0  0  0  0
   57.6590   32.5430   45.3540 N   0  0  0  0  0  0  0  0  0  0  0  0
   57.9210   33.0690   44.1440 C   0  0  0  0  0  0  0  0  0  0  0  0
   57.7380   32.0830   43.2000 C   0  0  0  0  0  0  0  0  0  0  0  0
   57.8210   32.3270   41.4640 Cl  0  0  0  0  0  0  0  0  0  0  0  0
   57.3750   30.9510   43.9250 C   0  0  0  0  0  0  0  0  0  0  0  0
   57.0070   29.6040   43.4290 C   0  0  0  0  0  0  0  0  0  0  0  0
   56.2650   29.5440   42.4110 O   0  0  0  0  0  0  0  0  0  0  0  0
   57.3980   28.3660   44.0800 N   0  0  0  0  0  0  0  0  0  0  0  0
   56.7640   28.1800   45.4050 C   0  0  0  0  0  0  0  0  0  0  0  0
   57.0130   26.7580   45.9460 C   0  0  0  0  0  0  0  0  0  0  0  0
   58.3760   26.1880   45.5150 C   0  0  0  0  0  0  0  0  0  0  0  0
   59.3840   27.3030   45.2320 C   0  0  0  0  0  0  0  0  0  0  0  0
   58.8780   28.2350   44.1100 C   0  0  0  0  0  0  0  0  0  0  0  0
   57.3300   31.2670   45.2350 N   0  0  0  0  0  0  0  0  0  0  0  0
   57.6550   32.5191   47.4512 H   0  0  0  0  0  0  0  0  0  0  0  0
   58.7630   33.7154   46.6976 H   0  0  0  0  0  0  0  0  0  0  0  0
   56.9908   34.0082   46.6976 H   0  0  0  0  0  0  0  0  0  0  0  0
   58.2280   34.1061   43.9434 H   0  0  0  0  0  0  0  0  0  0  0  0
   57.0310   27.5940   43.4730 H   0  0  0  0  0  0  0  0  0  0  0  0
   57.1852   28.9114   46.1104 H   0  0  0  0  0  0  0  0  0  0  0  0
   55.6793   28.3270   45.2965 H   0  0  0  0  0  0  0  0  0  0  0  0
   56.9760   26.7882   47.0450 H   0  0  0  0  0  0  0  0  0  0  0  0
   56.2329   26.1033   45.5302 H   0  0  0  0  0  0  0  0  0  0  0  0
   58.7669   25.5482   46.3199 H   0  0  0  0  0  0  0  0  0  0  0  0
   58.2321   25.6092   44.5907 H   0  0  0  0  0  0  0  0  0  0  0  0
   59.5350   27.8924   46.1484 H   0  0  0  0  0  0  0  0  0  0  0  0
   60.3303   26.8457   44.9074 H   0  0  0  0  0  0  0  0  0  0  0  0
   59.3142   29.2334   44.2616 H   0  0  0  0  0  0  0  0  0  0  0  0
   59.1860   27.7903   43.1522 H   0  0  0  0  0  0  0  0  0  0  0  0
  1  2  1  0
  2  3  1  0
  3  4  2  0
  4  5  1  0
  4  6  1  0
  6  7  1  0
  7  8  2  0
  7  9  1  0
  9 10  1  0
 10 11  1  0
 11 12  1  0
 12 13  1  0
 13 14  1  0
  6 15  2  0
 15  2  1  0
 14  9  1  0
  1 16  1  0
  1 17  1  0
  1 18  1  0
  3 19  1  0
  9 20  1  0
 10 21  1  0
 10 22  1  0
 11 23  1  0
 11 24  1  0
 12 25  1  0
 12 26  1  0
 13 27  1  0
 13 28  1  0
 14 29  1  0
 14 30  1  0
M  CHG  1   9   1
M  END
>  <UniqueID>  (5) 
5

>  <SMILES>  (5) 
Cn1cc(Cl)c(C(=O)[NH+]2CCCCC2)n1

>  <Energy>  (5) 
73.18593476970723

>  <Genealogy>  (5) 
Cn1cc(Cl)c(C(=O)[NH+]2CCCCC2)n1 (protonated)
Cn1cc(Cl)c(C(=O)[NH+]2CCCCC2)n1 (3D coordinates assigned)
Cn1cc(Cl)c(C(=O)[NH+]2CCCCC2)n1 (nonaromatic ring conformer: 73.18593476970723 kcal/mol)

>  <smiles>  (5) 
Cn1cc(Cl)c(C(=O)N2CCCCC2)n1

>  <score_type>  (5) 
oracle

>  <origin>  (5) 
adg

>  <m_score__min__energy>  (5) 
-4.8799999999999999

>  <m_primary>  (5) 
energy

$$$$
5:0
     RDKit          3D

 33 33  0  0  0  0  0  0  0  0999 V2000
   57.4020   31.9490   42.0750 C   0  0  0  0  0  0  0  0  0  0  0  0
   57.8640   31.7980   43.5310 C   0  0  1  0  0  0  0  0  0  0  0  0
   57.4010   33.0020   44.3780 C   0  0  0  0  0  0  0  0  0  0  0  0
   58.3010   33.2350   45.5290 N   0  0  0  0  0  0  0  0  0  0  0  0
   59.1690   34.4050   45.3010 C   0  0  0  0  0  0  0  0  0  0  0  0
   57.5100   33.4490   46.7520 C   0  0  0  0  0  0  0  0  0  0  0  0
   57.3900   30.5260   44.1110 N   0  0  0  0  0  0  0  0  0  0  0  0
   56.0250   30.1240   43.9130 C   0  0  0  0  0  0  0  0  0  0  0  0
   55.3400   29.6720   44.8700 O   0  0  0  0  0  0  0  0  0  0  0  0
   58.3030   29.6150   44.7490 C   0  0  0  0  0  0  0  0  0  0  0  0
   58.2690   28.2470   44.4440 C   0  0  0  0  0  0  0  0  0  0  0  0
   59.1700   27.3680   45.0530 C   0  0  0  0  0  0  0  0  0  0  0  0
   60.1190   27.8550   45.9580 C   0  0  0  0  0  0  0  0  0  0  0  0
   60.1710   29.2210   46.2490 C   0  0  0  0  0  0  0  0  0  0  0  0
   59.2720   30.1010   45.6410 C   0  0  0  0  0  0  0  0  0  0  0  0
   56.3566   32.2907   42.0556 H   0  0  0  0  0  0  0  0  0  0  0  0
   58.0382   32.6860   41.5630 H   0  0  0  0  0  0  0  0  0  0  0  0
   57.4801   30.9786   41.5630 H   0  0  0  0  0  0  0  0  0  0  0  0
   58.9638   31.7779   43.5391 H   0  0  0  0  0  0  0  0  0  0  0  0
   57.3908   33.9014   43.7447 H   0  0  0  0  0  0  0  0  0  0  0  0
   56.3950   32.7839   44.7658 H   0  0  0  0  0  0  0  0  0  0  0  0
   59.4804   34.8247   46.2689 H   0  0  0  0  0  0  0  0  0  0  0  0
   60.0584   34.0964   44.7320 H   0  0  0  0  0  0  0  0  0  0  0  0
   58.6157   35.1667   44.7320 H   0  0  0  0  0  0  0  0  0  0  0  0
   58.1447   33.2773   47.6339 H   0  0  0  0  0  0  0  0  0  0  0  0
   57.1317   34.4818   46.7680 H   0  0  0  0  0  0  0  0  0  0  0  0
   56.6626   32.7478   46.7680 H   0  0  0  0  0  0  0  0  0  0  0  0
   55.5721   30.2116   42.9144 H   0  0  0  0  0  0  0  0  0  0  0  0
   57.5313   27.8640   43.7235 H   0  0  0  0  0  0  0  0  0  0  0  0
   59.1325   26.2935   44.8204 H   0  0  0  0  0  0  0  0  0  0  0  0
   60.8245   27.1627   46.4407 H   0  0  0  0  0  0  0  0  0  0  0  0
   60.9205   29.6037   46.9574 H   0  0  0  0  0  0  0  0  0  0  0  0
   59.3236   31.1774   45.8618 H   0  0  0  0  0  0  0  0  0  0  0  0
  1  2  1  0
  2  3  1  0
  3  4  1  0
  4  5  1  0
  4  6  1  0
  2  7  1  0
  7  8  1  0
  8  9  2  0
  7 10  1  0
 10 11  2  0
 11 12  1  0
 12 13  2  0
 13 14  1  0
 14 15  2  0
 15 10  1  0
  1 16  1  0
  1 17  1  0
  1 18  1  0
  2 19  1  6
  3 20  1  0
  3 21  1  0
  5 22  1  0
  5 23  1  0
  5 24  1  0
  6 25  1  0
  6 26  1  0
  6 27  1  0
  8 28  1  0
 11 29  1  0
 12 30  1  0
 13 31  1  0
 14 32  1  0
 15 33  1  0
M  END
>  <UniqueID>  (6) 
6

>  <SMILES>  (6) 
C[C@@H](CN(C)C)N(C=O)c1ccccc1

>  <Energy>  (6) 
34.11930176231574

>  <Genealogy>  (6) 
C[C@@H](CN(C)C)N(C=O)c1ccccc1 (chirality)
C[C@@H](CN(C)C)N(C=O)c1ccccc1 (3D coordinates assigned)
C[C@@H](CN(C)C)N(C=O)c1ccccc1 (optimized conformer: 34.11930176231574 kcal/mol)

>  <smiles>  (6) 
CC(CN(C)C)N(C=O)c1ccccc1

>  <score_type>  (6) 
oracle

>  <origin>  (6) 
adg

>  <m_score__min__energy>  (6) 
-5.5099999999999998

>  <m_primary>  (6) 
energy

$$$$
6:0
     RDKit          3D

 54 55  0  0  0  0  0  0  0  0999 V2000
   59.3070   29.7050   46.7550 N   0  0  0  0  0  0  0  0  0  0  0  0
   60.2220   28.5840   46.5830 C   0  0  0  0  0  0  0  0  0  0  0  0
   60.3030   28.1960   45.1030 C   0  0  0  0  0  0  0  0  0  0  0  0
   59.1020   27.3510   44.6370 C   0  0  0  0  0  0  0  0  0  0  0  0
   58.0200   28.2010   43.9410 C   0  0  0  0  0  0  0  0  0  0  0  0
   56.8310   28.5430   44.8580 C   0  0  2  0  0  0  0  0  0  0  0  0
   57.0210   29.8740   45.4320 N   0  0  0  0  0  0  0  0  0  0  0  0
   57.5670   30.9810   44.7070 C   0  0  0  0  0  0  0  0  0  0  0  0
   58.4700   30.7960   43.8510 O   0  0  0  0  0  0  0  0  0  0  0  0
   56.9880   32.3440   44.9010 C   0  0  0  0  0  0  0  0  0  0  0  0
   57.9860   33.2100   45.6240 C   0  0  0  0  0  0  0  0  0  0  0  0
   58.1540   33.0860   47.0100 C   0  0  0  0  0  0  0  0  0  0  0  0
   59.0190   33.9500   47.6990 C   0  0  0  0  0  0  0  0  0  0  0  0
   59.7030   34.9510   47.0050 C   0  0  0  0  0  0  0  0  0  0  0  0
   59.5340   35.0850   45.6240 C   0  0  0  0  0  0  0  0  0  0  0  0
   58.6770   34.2200   44.9320 C   0  0  0  0  0  0  0  0  0  0  0  0
   56.6370   27.5140   45.9480 C   0  0  0  0  0  0  0  0  0  0  0  0
   57.4950   27.3910   46.8670 O   0  0  0  0  0  0  0  0  0  0  0  0
   55.4440   26.7230   45.9760 N   0  0  0  0  0  0  0  0  0  0  0  0
   55.4240   25.2710   45.8280 C   0  0  0  0  0  0  0  0  0  0  0  0
   56.8360   24.6720   45.8590 C   0  0  0  0  0  0  0  0  0  0  0  0
   57.0260   23.5640   44.8510 C   0  0  0  0  0  0  0  0  0  0  0  0
   56.1480   23.4290   43.7590 C   0  0  0  0  0  0  0  0  0  0  0  0
   56.3140   22.3850   42.8440 C   0  0  0  0  0  0  0  0  0  0  0  0
   57.3490   21.4610   43.0140 C   0  0  0  0  0  0  0  0  0  0  0  0
   58.2160   21.5790   44.1050 C   0  0  0  0  0  0  0  0  0  0  0  0
   58.0530   22.6200   45.0230 C   0  0  0  0  0  0  0  0  0  0  0  0
   59.1640   30.1540   45.8210 H   0  0  0  0  0  0  0  0  0  0  0  0
   58.3840   29.3170   47.0500 H   0  0  0  0  0  0  0  0  0  0  0  0
   61.2220   28.8721   46.9393 H   0  0  0  0  0  0  0  0  0  0  0  0
   59.8529   27.7246   47.1619 H   0  0  0  0  0  0  0  0  0  0  0  0
   60.3395   29.1157   44.5007 H   0  0  0  0  0  0  0  0  0  0  0  0
   61.2075   27.5838   44.9718 H   0  0  0  0  0  0  0  0  0  0  0  0
   59.4601   26.5876   43.9306 H   0  0  0  0  0  0  0  0  0  0  0  0
   58.6475   26.8939   45.5283 H   0  0  0  0  0  0  0  0  0  0  0  0
   58.4796   29.1405   43.6002 H   0  0  0  0  0  0  0  0  0  0  0  0
   57.6257   27.6053   43.1046 H   0  0  0  0  0  0  0  0  0  0  0  0
   55.9172   28.5340   44.2458 H   0  0  0  0  0  0  0  0  0  0  0  0
   56.7575   32.7882   43.9215 H   0  0  0  0  0  0  0  0  0  0  0  0
   56.0647   32.2713   45.4945 H   0  0  0  0  0  0  0  0  0  0  0  0
   57.6051   32.3076   47.5604 H   0  0  0  0  0  0  0  0  0  0  0  0
   59.1583   33.8391   48.7845 H   0  0  0  0  0  0  0  0  0  0  0  0
   60.3748   35.6340   47.5455 H   0  0  0  0  0  0  0  0  0  0  0  0
   60.0757   35.8722   45.0791 H   0  0  0  0  0  0  0  0  0  0  0  0
   58.5444   34.3310   43.8457 H   0  0  0  0  0  0  0  0  0  0  0  0
   54.8361   24.8380   46.6507 H   0  0  0  0  0  0  0  0  0  0  0  0
   54.9753   25.0345   44.8519 H   0  0  0  0  0  0  0  0  0  0  0  0
   57.5610   25.4707   45.6436 H   0  0  0  0  0  0  0  0  0  0  0  0
   56.9892   24.2391   46.8585 H   0  0  0  0  0  0  0  0  0  0  0  0
   55.3270   24.1487   43.6249 H   0  0  0  0  0  0  0  0  0  0  0  0
   55.6288   22.2906   41.9887 H   0  0  0  0  0  0  0  0  0  0  0  0
   57.4813   20.6426   42.2910 H   0  0  0  0  0  0  0  0  0  0  0  0
   59.0287   20.8502   44.2409 H   0  0  0  0  0  0  0  0  0  0  0  0
   58.7320   22.7010   45.8846 H   0  0  0  0  0  0  0  0  0  0  0  0
  1  2  1  0
  2  3  1  0
  3  4  1  0
  4  5  1  0
  5  6  1  0
  6  7  1  0
  7  8  1  0
  8  9  2  0
  8 10  1  0
 10 11  1  0
 11 12  2  0
 12 13  1  0
 13 14  2  0
 14 15  1  0
 15 16  2  0
  6 17  1  0
 17 18  2  0
 17 19  1  0
 19 20  1  0
 20 21  1  0
 21 22  1  0
 22 23  2  0
 23 24  1  0
 24 25  2  0
 25 26  1  0
 26 27  2  0
 16 11  1  0
 27 22  1  0
  1 28  1  0
  1 29  1  0
  2 30  1  0
  2 31  1  0
  3 32  1  0
  3 33  1  0
  4 34  1  0
  4 35  1  0
  5 36  1  0
  5 37  1  0
  6 38  1  6
 10 39  1  0
 10 40  1  0
 12 41  1  0
 13 42  1  0
 14 43  1  0
 15 44  1  0
 16 45  1  0
 20 46  1  0
 20 47  1  0
 21 48  1  0
 21 49  1  0
 23 50  1  0
 24 51  1  0
 25 52  1  0
 26 53  1  0
 27 54  1  0
M  CHG  2   7  -1  19  -1
M  END
>  <UniqueID>  (7) 
7

>  <SMILES>  (7) 
NCCCC[C@H]([N-]C(=O)Cc1ccccc1)C(=O)[N-]CCc1ccccc1

>  <Energy>  (7) 
36.97159269303708

>  <Genealogy>  (7) 
NCCCCC([N-]C(=O)Cc1ccccc1)C(=O)[N-]CCc1ccccc1 (protonated)
NCCCC[C@H]([N-]C(=O)Cc1ccccc1)C(=O)[N-]CCc1ccccc1 (chirality)
NCCCC[C@H]([N-]C(=O)Cc1ccccc1)C(=O)[N-]CCc1ccccc1 (3D coordinates assigned)
NCCCC[C@H]([N-]C(=O)Cc1ccccc1)C(=O)[N-]CCc1ccccc1 (optimized conformer: 36.97159269303708 kcal/mol)

>  <smiles>  (7) 
NCCCCC(NC(=O)Cc1ccccc1)C(=O)NCCc1ccccc1

>  <score_type>  (7) 
oracle

>  <origin>  (7) 
adg

>  <m_score__min__energy>  (7) 
-11.69

>  <m_primary>  (7) 
energy

$$$$
7:0
     RDKit          3D

 44 46  0  0  0  0  0  0  0  0999 V2000
   52.1550   21.5820   44.8860 H   0  0  0  0  0  0  0  0  0  0  0  0
   52.5410   21.7790   45.8010 O   0  0  0  0  0  0  0  0  0  0  0  0
   53.6770   22.5710   45.9430 C   0  0  0  0  0  0  0  0  0  0  0  0
   53.6860   23.9580   45.8820 C   0  0  0  0  0  0  0  0  0  0  0  0
   52.8297   24.6285   45.7172 H   0  0  0  0  0  0  0  0  0  0  0  0
   55.0080   24.3100   46.0740 C   0  0  0  0  0  0  0  0  0  0  0  0
   55.6000   25.5710   46.1250 C   0  0  0  0  0  0  0  0  0  0  0  0
   54.8160   26.7130   46.0060 O   0  0  0  0  0  0  0  0  0  0  0  0
   57.0030   25.6430   46.3340 C   0  0  0  0  0  0  0  0  0  0  0  0
   57.7280   26.9300   46.4040 C   0  0  0  0  0  0  0  0  0  0  0  0
   57.5713   27.5730   47.2827 H   0  0  0  0  0  0  0  0  0  0  0  0
   58.5660   27.3490   45.4480 C   0  0  0  0  0  0  0  0  0  0  0  0
   59.1538   26.6103   44.8833 H   0  0  0  0  0  0  0  0  0  0  0  0
   58.7180   28.8070   45.1330 C   0  0  0  0  0  0  0  0  0  0  0  0
   58.8869   28.9293   44.0529 H   0  0  0  0  0  0  0  0  0  0  0  0
   59.5741   29.2076   45.6957 H   0  0  0  0  0  0  0  0  0  0  0  0
   57.4970   29.5460   45.5230 N   0  0  0  0  0  0  0  0  0  0  0  0
   57.7700   30.9730   45.7850 C   0  0  0  0  0  0  0  0  0  0  0  0
   58.6119   31.0484   46.4889 H   0  0  0  0  0  0  0  0  0  0  0  0
   56.8551   31.4188   46.2025 H   0  0  0  0  0  0  0  0  0  0  0  0
   58.1280   31.7490   44.4980 C   0  0  0  0  0  0  0  0  0  0  0  0
   59.2221   31.8440   44.4348 H   0  0  0  0  0  0  0  0  0  0  0  0
   57.6422   32.7344   44.5525 H   0  0  0  0  0  0  0  0  0  0  0  0
   57.6380   31.0690   43.2790 N   0  0  0  0  0  0  0  0  0  0  0  0
   57.6130   32.0020   42.1430 C   0  0  0  0  0  0  0  0  0  0  0  0
   57.5853   33.0357   42.5181 H   0  0  0  0  0  0  0  0  0  0  0  0
   58.5153   31.8582   41.5305 H   0  0  0  0  0  0  0  0  0  0  0  0
   56.7197   31.8101   41.5305 H   0  0  0  0  0  0  0  0  0  0  0  0
   56.3040   30.4900   43.5040 C   0  0  0  0  0  0  0  0  0  0  0  0
   55.9229   30.0763   42.5587 H   0  0  0  0  0  0  0  0  0  0  0  0
   55.6272   31.2768   43.8684 H   0  0  0  0  0  0  0  0  0  0  0  0
   56.3840   29.3660   44.5570 C   0  0  0  0  0  0  0  0  0  0  0  0
   56.5257   28.4080   44.0353 H   0  0  0  0  0  0  0  0  0  0  0  0
   55.4462   29.3897   45.1315 H   0  0  0  0  0  0  0  0  0  0  0  0
   57.7380   24.4490   46.5330 C   0  0  0  0  0  0  0  0  0  0  0  0
   58.8186   24.5054   46.7307 H   0  0  0  0  0  0  0  0  0  0  0  0
   57.1090   23.1930   46.4820 C   0  0  0  0  0  0  0  0  0  0  0  0
   57.8520   22.0330   46.6680 O   0  0  0  0  0  0  0  0  0  0  0  0
   55.7300   23.1520   46.2430 C   0  0  0  0  0  0  0  0  0  0  0  0
   54.9190   22.0750   46.1610 N   0  0  0  0  0  0  0  0  0  0  0  0
   55.2840   20.6670   46.2930 C   0  0  0  0  0  0  0  0  0  0  0  0
   55.3521   20.4043   47.3590 H   0  0  0  0  0  0  0  0  0  0  0  0
   54.5180   20.0428   45.8097 H   0  0  0  0  0  0  0  0  0  0  0  0
   56.2568   20.4935   45.8097 H   0  0  0  0  0  0  0  0  0  0  0  0
  1  2  1  0
  2  3  1  0
  3  4  2  0
  4  5  1  0
  4  6  1  0
  6  7  2  0
  7  8  1  0
  7  9  1  0
  9 10  1  0
 10 11  1  0
 10 12  2  0
 12 13  1  0
 12 14  1  0
 14 15  1  0
 14 16  1  0
 14 17  1  0
 17 18  1  0
 18 19  1  0
 18 20  1  0
 18 21  1  0
 21 22  1  0
 21 23  1  0
 21 24  1  0
 24 25  1  0
 25 26  1  0
 25 27  1  0
 25 28  1  0
 24 29  1  0
 29 30  1  0
 29 31  1  0
 29 32  1  0
 32 33  1  0
 32 34  1  0
  9 35  2  0
 35 36  1  0
 35 37  1  0
 37 38  1  0
 37 39  2  0
 39 40  1  0
 40 41  1  0
 41 42  1  0
 41 43  1  0
 41 44  1  0
 40  3  1  0
 39  6  1  0
 32 17  1  0
M  CHG  2   8  -1  38  -1
M  END
>  <UniqueID>  (8) 
8

>  <SMILES>  (8) 
CN1CCN(C/C=C/c2cc([O-])c3c(cc(O)n3C)c2[O-])CC1

>  <Energy>  (8) 
91.95913463227161

>  <Genealogy>  (8) 
CN1CCN(CC=Cc2cc([O-])c3c(cc(O)n3C)c2[O-])CC1 (protonated)
CN1CCN(C/C=C/c2cc([O-])c3c(cc(O)n3C)c2[O-])CC1 (cis-trans isomerization)
CN1CCN(C/C=C/c2cc([O-])c3c(cc(O)n3C)c2[O-])CC1 (3D coordinates assigned)
CN1CCN(C/C=C/c2cc([O-])c3c(cc(O)n3C)c2[O-])CC1 (nonaromatic ring conformer: 91.95913463227161 kcal/mol)

>  <smiles>  (8) 
CN1CCN(CC=Cc2cc(O)c3c(cc(O)n3C)c2O)CC1

>  <score_type>  (8) 
oracle

>  <origin>  (8) 
adg

>  <m_score__min__energy>  (8) 
-12.720000000000001

>  <m_primary>  (8) 
energy

$$$$
8:0
     RDKit          3D

 43 45  0  0  0  0  0  0  0  0999 V2000
   65.4020   31.9610   50.1720 C   0  0  0  0  0  0  0  0  0  0  0  0
   65.1750   32.9540   49.1770 O   0  0  0  0  0  0  0  0  0  0  0  0
   63.9200   33.2580   48.6260 C   0  0  0  0  0  0  0  0  0  0  0  0
   63.5880   32.9200   47.3000 C   0  0  0  0  0  0  0  0  0  0  0  0
   62.3280   33.2290   46.7840 C   0  0  0  0  0  0  0  0  0  0  0  0
   61.3770   33.8750   47.5800 C   0  0  0  0  0  0  0  0  0  0  0  0
   59.7720   34.2310   46.9360 S   0  0  0  0  0  0  0  0  0  0  0  0
   59.1000   35.2510   47.8140 O   0  0  0  0  0  0  0  0  0  0  0  0
   59.9100   34.8210   45.5600 O   0  0  0  0  0  0  0  0  0  0  0  0
   58.7810   32.7910   46.8500 N   0  0  0  0  0  0  0  0  0  0  0  0
   59.4560   31.7500   46.0440 C   0  0  0  0  0  0  0  0  0  0  0  0
   58.4670   30.6710   45.5900 C   0  0  0  0  0  0  0  0  0  0  0  0
   57.3830   31.2620   44.6550 C   0  0  0  0  0  0  0  0  0  0  0  0
   57.1390   32.7630   44.9440 C   0  0  0  0  0  0  0  0  0  0  0  0
   57.3960   33.1050   46.4200 C   0  0  0  0  0  0  0  0  0  0  0  0
   57.8170   31.1290   43.3170 O   0  0  0  0  0  0  0  0  0  0  0  0
   56.7830   30.4920   42.6390 C   0  0  0  0  0  0  0  0  0  0  0  0
   55.9260   29.8590   43.6890 C   0  0  0  0  0  0  0  0  0  0  0  0
   56.1750   30.5560   44.8670 O   0  0  0  0  0  0  0  0  0  0  0  0
   61.7020   34.2250   48.8970 C   0  0  0  0  0  0  0  0  0  0  0  0
   62.9680   33.9200   49.4250 C   0  0  0  0  0  0  0  0  0  0  0  0
   63.2980   34.2860   50.8450 C   0  0  0  0  0  0  0  0  0  0  0  0
   65.2990   32.4118   51.1701 H   0  0  0  0  0  0  0  0  0  0  0  0
   64.6656   31.1519   50.0573 H   0  0  0  0  0  0  0  0  0  0  0  0
   66.4168   31.5522   50.0573 H   0  0  0  0  0  0  0  0  0  0  0  0
   64.3271   32.4086   46.6658 H   0  0  0  0  0  0  0  0  0  0  0  0
   62.0820   32.9628   45.7454 H   0  0  0  0  0  0  0  0  0  0  0  0
   59.9068   32.2193   45.1571 H   0  0  0  0  0  0  0  0  0  0  0  0
   60.2282   31.2743   46.6665 H   0  0  0  0  0  0  0  0  0  0  0  0
   59.0161   29.8851   45.0508 H   0  0  0  0  0  0  0  0  0  0  0  0
   57.9708   30.2568   46.4801 H   0  0  0  0  0  0  0  0  0  0  0  0
   57.8151   33.3618   44.3161 H   0  0  0  0  0  0  0  0  0  0  0  0
   56.0870   32.9901   44.7168 H   0  0  0  0  0  0  0  0  0  0  0  0
   57.2173   34.1803   46.5679 H   0  0  0  0  0  0  0  0  0  0  0  0
   56.7137   32.4909   47.0260 H   0  0  0  0  0  0  0  0  0  0  0  0
   56.1996   31.2225   42.0594 H   0  0  0  0  0  0  0  0  0  0  0  0
   57.1681   29.7442   41.9302 H   0  0  0  0  0  0  0  0  0  0  0  0
   54.8639   29.9413   43.4147 H   0  0  0  0  0  0  0  0  0  0  0  0
   56.1548   28.7889   43.8010 H   0  0  0  0  0  0  0  0  0  0  0  0
   60.9602   34.7427   49.5228 H   0  0  0  0  0  0  0  0  0  0  0  0
   62.7224   33.6476   51.5314 H   0  0  0  0  0  0  0  0  0  0  0  0
   64.3736   34.1377   51.0214 H   0  0  0  0  0  0  0  0  0  0  0  0
   63.0395   35.3405   51.0214 H   0  0  0  0  0  0  0  0  0  0  0  0
  1  2  1  0
  2  3  1  0
  3  4  2  0
  4  5  1  0
  5  6  2  0
  6  7  1  0
  7  8  2  0
  7  9  2  0
  7 10  1  0
 10 11  1  0
 11 12  1  0
 12 13  1  0
 13 14  1  0
 14 15  1  0
 13 16  1  0
 16 17  1  0
 17 18  1  0
 18 19  1  0
  6 20  1  0
 20 21  2  0
 21 22  1  0
 21  3  1  0
 15 10  1  0
 19 13  1  0
  1 23  1  0
  1 24  1  0
  1 25  1  0
  4 26  1  0
  5 27  1  0
 11 28  1  0
 11 29  1  0
 12 30  1  0
 12 31  1  0
 14 32  1  0
 14 33  1  0
 15 34  1  0
 15 35  1  0
 17 36  1  0
 17 37  1  0
 18 38  1  0
 18 39  1  0
 20 40  1  0
 22 41  1  0
 22 42  1  0
 22 43  1  0
M  END
>  <UniqueID>  (9) 
9

>  <SMILES>  (9) 
COc1ccc(S(=O)(=O)N2CCC3(CC2)OCCO3)cc1C

>  <Energy>  (9) 
44.393206958688644

>  <Genealogy>  (9) 
COc1ccc(S(=O)(=O)N2CCC3(CC2)OCCO3)cc1C (3D coordinates assigned)
COc1ccc(S(=O)(=O)N2CCC3(CC2)OCCO3)cc1C (nonaromatic ring conformer: 44.393206958688644 kcal/mol)

>  <smiles>  (9) 
COc1ccc(S(=O)(=O)N2CCC3(CC2)OCCO3)cc1C

>  <score_type>  (9) 
oracle

>  <origin>  (9) 
adg

>  <m_score__min__energy>  (9) 
-8.2300000000000004

>  <m_primary>  (9) 
energy

$$$$
9:0
     RDKit          3D

 63 67  0  0  0  0  0  0  0  0999 V2000
   56.6560   30.1740   43.8140 C   0  0  0  0  0  0  0  0  0  0  0  0
   56.4290   31.1440   44.8320 O   0  0  0  0  0  0  0  0  0  0  0  0
   57.3440   32.1450   45.1900 C   0  0  0  0  0  0  0  0  0  0  0  0
   57.1420   33.5000   44.8730 C   0  0  0  0  0  0  0  0  0  0  0  0
   58.0900   34.4570   45.2440 C   0  0  0  0  0  0  0  0  0  0  0  0
   59.2380   34.0770   45.9420 C   0  0  0  0  0  0  0  0  0  0  0  0
   59.4420   32.7330   46.2870 C   0  0  0  0  0  0  0  0  0  0  0  0
   60.6650   32.3410   47.0220 C   0  0  0  0  0  0  0  0  0  0  0  0
   61.5020   33.2560   47.5610 N   0  0  0  0  0  0  0  0  0  0  0  0
   62.5120   32.5220   48.0680 C   0  0  0  0  0  0  0  0  0  0  0  0
   63.6920   33.1050   48.7300 C   0  0  0  0  0  0  0  0  0  0  0  0
   64.1440   34.2060   48.3160 O   0  0  0  0  0  0  0  0  0  0  0  0
   64.3480   32.4310   49.8150 N   0  0  0  0  0  0  0  0  0  0  0  0
   63.5950   32.0600   51.0210 C   0  0  0  0  0  0  0  0  0  0  0  0
   64.0400   30.6790   51.5250 C   0  0  0  0  0  0  0  0  0  0  0  0
   65.4990   30.5080   51.4210 N   0  0  0  0  0  0  0  0  0  0  0  0
   66.0680   29.1950   51.5680 C   0  0  0  0  0  0  0  0  0  0  0  0
   65.4410   28.2360   52.3780 C   0  0  0  0  0  0  0  0  0  0  0  0
   65.9860   26.9560   52.5020 C   0  0  0  0  0  0  0  0  0  0  0  0
   67.1510   26.6160   51.8120 C   0  0  0  0  0  0  0  0  0  0  0  0
   67.7840   27.5610   50.9840 C   0  0  0  0  0  0  0  0  0  0  0  0
   68.9460   27.2640   50.2550 O   0  0  0  0  0  0  0  0  0  0  0  0
   69.2950   25.9640   49.7920 C   0  0  0  0  0  0  0  0  0  0  0  0
   67.2380   28.8460   50.8700 C   0  0  0  0  0  0  0  0  0  0  0  0
   66.3420   31.6580   51.0710 C   0  0  0  0  0  0  0  0  0  0  0  0
   65.8130   32.3130   49.7920 C   0  0  0  0  0  0  0  0  0  0  0  0
   62.2890   31.1850   47.8220 C   0  0  0  0  0  0  0  0  0  0  0  0
   61.1170   31.0710   47.1740 N   0  0  0  0  0  0  0  0  0  0  0  0
   60.4770   29.8310   46.8250 C   0  0  0  0  0  0  0  0  0  0  0  0
   59.7080   29.1290   47.7710 C   0  0  0  0  0  0  0  0  0  0  0  0
   59.0940   27.9220   47.4260 C   0  0  0  0  0  0  0  0  0  0  0  0
   59.2480   27.4000   46.1390 C   0  0  0  0  0  0  0  0  0  0  0  0
   60.0250   28.0820   45.1970 C   0  0  0  0  0  0  0  0  0  0  0  0
   60.6410   29.2900   45.5390 C   0  0  0  0  0  0  0  0  0  0  0  0
   58.5000   31.7700   45.8880 C   0  0  0  0  0  0  0  0  0  0  0  0
   56.8833   29.2026   44.2773 H   0  0  0  0  0  0  0  0  0  0  0  0
   55.7555   30.0805   43.1893 H   0  0  0  0  0  0  0  0  0  0  0  0
   57.5045   30.4898   43.1893 H   0  0  0  0  0  0  0  0  0  0  0  0
   56.2352   33.8074   44.3315 H   0  0  0  0  0  0  0  0  0  0  0  0
   57.9313   35.5142   44.9851 H   0  0  0  0  0  0  0  0  0  0  0  0
   59.9849   34.8343   46.2223 H   0  0  0  0  0  0  0  0  0  0  0  0
   63.7765   32.8085   51.8064 H   0  0  0  0  0  0  0  0  0  0  0  0
   62.5234   32.0225   50.7757 H   0  0  0  0  0  0  0  0  0  0  0  0
   63.7421   30.5704   52.5783 H   0  0  0  0  0  0  0  0  0  0  0  0
   63.5584   29.9130   50.8995 H   0  0  0  0  0  0  0  0  0  0  0  0
   64.5173   28.4931   52.9171 H   0  0  0  0  0  0  0  0  0  0  0  0
   65.4948   26.2121   53.1465 H   0  0  0  0  0  0  0  0  0  0  0  0
   67.5752   25.6064   51.9160 H   0  0  0  0  0  0  0  0  0  0  0  0
   69.4724   25.3033   50.6534 H   0  0  0  0  0  0  0  0  0  0  0  0
   68.4737   25.5592   49.1824 H   0  0  0  0  0  0  0  0  0  0  0  0
   70.2086   26.0249   49.1824 H   0  0  0  0  0  0  0  0  0  0  0  0
   67.7301   29.5907   50.2271 H   0  0  0  0  0  0  0  0  0  0  0  0
   66.3222   32.3897   51.8921 H   0  0  0  0  0  0  0  0  0  0  0  0
   67.3747   31.3169   50.9063 H   0  0  0  0  0  0  0  0  0  0  0  0
   66.2513   33.3174   49.6969 H   0  0  0  0  0  0  0  0  0  0  0  0
   66.0955   31.6807   48.9374 H   0  0  0  0  0  0  0  0  0  0  0  0
   62.9537   30.3559   48.1061 H   0  0  0  0  0  0  0  0  0  0  0  0
   59.5894   29.5323   48.7875 H   0  0  0  0  0  0  0  0  0  0  0  0
   58.4885   27.3820   48.1688 H   0  0  0  0  0  0  0  0  0  0  0  0
   58.7584   26.4533   45.8669 H   0  0  0  0  0  0  0  0  0  0  0  0
   60.1517   27.6677   44.1859 H   0  0  0  0  0  0  0  0  0  0  0  0
   61.2571   29.8193   44.7972 H   0  0  0  0  0  0  0  0  0  0  0  0
   58.6717   30.7099   46.1261 H   0  0  0  0  0  0  0  0  0  0  0  0
  1  2  1  0
  2  3  1  0
  3  4  2  0
  4  5  1  0
  5  6  2  0
  6  7  1  0
  7  8  1  0
  8  9  2  0
  9 10  1  0
 10 11  1  0
 11 12  2  0
 11 13  1  0
 13 14  1  0
 14 15  1  0
 15 16  1  0
 16 17  1  0
 17 18  2  0
 18 19  1  0
 19 20  2  0
 20 21  1  0
 21 22  1  0
 22 23  1  0
 21 24  2  0
 16 25  1  0
 25 26  1  0
 10 27  2  0
 27 28  1  0
 28 29  1  0
 29 30  2  0
 30 31  1  0
 31 32  2  0
 32 33  1  0
 33 34  2  0
  7 35  2  0
 35  3  1  0
 28  8  1  0
 34 29  1  0
 26 13  1  0
 24 17  1  0
  1 36  1  0
  1 37  1  0
  1 38  1  0
  4 39  1  0
  5 40  1  0
  6 41  1  0
 14 42  1  0
 14 43  1  0
 15 44  1  0
 15 45  1  0
 18 46  1  0
 19 47  1  0
 20 48  1  0
 23 49  1  0
 23 50  1  0
 23 51  1  0
 24 52  1  0
 25 53  1  0
 25 54  1  0
 26 55  1  0
 26 56  1  0
 27 57  1  0
 30 58  1  0
 31 59  1  0
 32 60  1  0
 33 61  1  0
 34 62  1  0
 35 63  1  0
M  END
>  <UniqueID>  (10) 
10

>  <SMILES>  (10) 
COc1cccc(-c2nc(C(=O)N3CCN(c4cccc(OC)c4)CC3)cn2-c2ccccc2)c1

>  <Energy>  (10) 
112.87886062177536

>  <Genealogy>  (10) 
COc1cccc(-c2nc(C(=O)N3CCN(c4cccc(OC)c4)CC3)cn2-c2ccccc2)c1 (3D coordinates assigned)
COc1cccc(-c2nc(C(=O)N3CCN(c4cccc(OC)c4)CC3)cn2-c2ccccc2)c1 (nonaromatic ring conformer: 112.87886062177536 kcal/mol)

>  <smiles>  (10) 
COc1cccc(-c2nc(C(=O)N3CCN(c4cccc(OC)c4)CC3)cn2-c2ccccc2)c1

>  <score_type>  (10) 
oracle

>  <origin>  (10) 
adg

>  <m_score__min__energy>  (10) 
-9

>  <m_primary>  (10) 
energy

$$$$
10:0
     RDKit          3D

 46 48  0  0  0  0  0  0  0  0999 V2000
   54.6010   24.7250   45.5670 C   0  0  0  0  0  0  0  0  0  0  0  0
   54.9240   26.1070   45.6900 O   0  0  0  0  0  0  0  0  0  0  0  0
   56.1970   26.6000   46.0190 C   0  0  0  0  0  0  0  0  0  0  0  0
   57.1370   25.8290   46.7260 C   0  0  0  0  0  0  0  0  0  0  0  0
   58.3920   26.3520   47.0360 C   0  0  0  0  0  0  0  0  0  0  0  0
   58.7350   27.6590   46.6510 C   0  0  0  0  0  0  0  0  0  0  0  0
   60.1020   28.2380   46.9770 C   0  0  2  0  0  0  0  0  0  0  0  0
   60.3650   28.3040   48.4840 C   0  0  0  0  0  0  0  0  0  0  0  0
   60.9770   29.6770   48.7040 C   0  0  0  0  0  0  0  0  0  0  0  0
   60.4250   30.5360   47.6510 N   0  0  1  0  0  0  0  0  0  0  0  0
   61.1640   31.8030   47.4240 C   0  0  0  0  0  0  0  0  0  0  0  0
   60.3780   32.8950   46.7230 C   0  0  0  0  0  0  0  0  0  0  0  0
   60.7490   34.2440   46.8690 C   0  0  0  0  0  0  0  0  0  0  0  0
   60.0080   35.2530   46.2450 C   0  0  0  0  0  0  0  0  0  0  0  0
   58.8820   34.9280   45.4860 C   0  0  0  0  0  0  0  0  0  0  0  0
   58.4880   33.5930   45.3580 C   0  0  0  0  0  0  0  0  0  0  0  0
   59.2250   32.5810   45.9800 C   0  0  0  0  0  0  0  0  0  0  0  0
   60.2810   29.6780   46.4650 C   0  0  0  0  0  0  0  0  0  0  0  0
   57.7980   28.4280   45.9410 C   0  0  0  0  0  0  0  0  0  0  0  0
   56.5290   27.9040   45.6240 C   0  0  0  0  0  0  0  0  0  0  0  0
   55.5710   28.6500   44.9180 O   0  0  0  0  0  0  0  0  0  0  0  0
   55.8750   29.7130   44.0200 C   0  0  0  0  0  0  0  0  0  0  0  0
   54.4975   24.2821   46.5686 H   0  0  0  0  0  0  0  0  0  0  0  0
   53.6535   24.6173   45.0187 H   0  0  0  0  0  0  0  0  0  0  0  0
   55.4026   24.2085   45.0187 H   0  0  0  0  0  0  0  0  0  0  0  0
   56.8803   24.8055   47.0368 H   0  0  0  0  0  0  0  0  0  0  0  0
   59.1190   25.7366   47.5862 H   0  0  0  0  0  0  0  0  0  0  0  0
   60.8022   27.5530   46.4765 H   0  0  0  0  0  0  0  0  0  0  0  0
   59.4257   28.2023   49.0474 H   0  0  0  0  0  0  0  0  0  0  0  0
   61.0227   27.4928   48.8296 H   0  0  0  0  0  0  0  0  0  0  0  0
   60.7025   30.0638   49.6965 H   0  0  0  0  0  0  0  0  0  0  0  0
   62.0756   29.6412   48.6617 H   0  0  0  0  0  0  0  0  0  0  0  0
   59.4590   30.8090   47.9540 H   0  0  0  0  0  0  0  0  0  0  0  0
   61.4844   32.1897   48.4027 H   0  0  0  0  0  0  0  0  0  0  0  0
   61.9998   31.5520   46.7544 H   0  0  0  0  0  0  0  0  0  0  0  0
   61.6269   34.5069   47.4774 H   0  0  0  0  0  0  0  0  0  0  0  0
   60.3129   36.3044   46.3524 H   0  0  0  0  0  0  0  0  0  0  0  0
   58.3053   35.7221   44.9891 H   0  0  0  0  0  0  0  0  0  0  0  0
   57.5962   33.3382   44.7666 H   0  0  0  0  0  0  0  0  0  0  0  0
   58.9019   31.5336   45.8881 H   0  0  0  0  0  0  0  0  0  0  0  0
   59.4008   29.9843   45.8807 H   0  0  0  0  0  0  0  0  0  0  0  0
   61.1618   29.7577   45.8109 H   0  0  0  0  0  0  0  0  0  0  0  0
   58.0578   29.4504   45.6291 H   0  0  0  0  0  0  0  0  0  0  0  0
   56.1330   30.6153   44.5938 H   0  0  0  0  0  0  0  0  0  0  0  0
   56.7269   29.4254   43.3863 H   0  0  0  0  0  0  0  0  0  0  0  0
   54.9998   29.9193   43.3863 H   0  0  0  0  0  0  0  0  0  0  0  0
  1  2  1  0
  2  3  1  0
  3  4  2  0
  4  5  1  0
  5  6  2  0
  6  7  1  0
  7  8  1  0
  8  9  1  0
  9 10  1  0
 10 11  1  0
 11 12  1  0
 12 13  2  0
 13 14  1  0
 14 15  2  0
 15 16  1  0
 16 17  2  0
 10 18  1  0
  6 19  1  0
 19 20  2  0
 20 21  1  0
 21 22  1  0
 20  3  1  0
 18  7  1  0
 17 12  1  0
  1 23  1  0
  1 24  1  0
  1 25  1  0
  4 26  1  0
  5 27  1  0
  7 28  1  6
  8 29  1  0
  8 30  1  0
  9 31  1  0
  9 32  1  0
 10 33  1  1
 11 34  1  0
 11 35  1  0
 13 36  1  0
 14 37  1  0
 15 38  1  0
 16 39  1  0
 17 40  1  0
 18 41  1  0
 18 42  1  0
 19 43  1  0
 22 44  1  0
 22 45  1  0
 22 46  1  0
M  CHG  1  10   1
M  END
>  <UniqueID>  (11) 
11

>  <SMILES>  (11) 
COc1ccc([C@@H]2CC[N@@H+](Cc3ccccc3)C2)cc1OC

>  <Energy>  (11) 
55.97087326846336

>  <Genealogy>  (11) 
COc1ccc(C2CC[NH+](Cc3ccccc3)C2)cc1OC (protonated)
COc1ccc([C@@H]2CC[N@@H+](Cc3ccccc3)C2)cc1OC (chirality)
COc1ccc([C@@H]2CC[N@@H+](Cc3ccccc3)C2)cc1OC (3D coordinates assigned)
COc1ccc([C@@H]2CC[N@@H+](Cc3ccccc3)C2)cc1OC (nonaromatic ring conformer: 55.97087326846336 kcal/mol)

>  <smiles>  (11) 
COc1ccc(C2CCN(Cc3ccccc3)C2)cc1OC

>  <score_type>  (11) 
oracle

>  <origin>  (11) 
adg

>  <m_score__min__energy>  (11) 
-6.2999999999999998

>  <m_primary>  (11) 
energy

$$$$
11:0
     RDKit          3D

 23 23  0  0  0  0  0  0  0  0999 V2000
   61.1360   33.8530   46.4310 C   0  0  0  0  0  0  0  0  0  0  0  0
   59.9710   34.8340   46.5450 C   0  0  0  0  0  0  0  0  0  0  0  0
   58.7500   34.2070   47.2270 C   0  0  0  0  0  0  0  0  0  0  0  0
   58.2480   33.0710   46.4540 N   0  0  0  0  0  0  0  0  0  0  0  0
   57.8340   33.1840   45.0810 C   0  0  0  0  0  0  0  0  0  0  0  0
   57.8480   34.3090   44.5120 O   0  0  0  0  0  0  0  0  0  0  0  0
   57.3980   31.9870   44.3300 C   0  0  0  0  0  0  0  0  0  0  0  0
   57.4300   31.9560   42.9250 C   0  0  0  0  0  0  0  0  0  0  0  0
   57.0210   30.8380   42.2690 N   0  0  0  0  0  0  0  0  0  0  0  0
   56.5800   29.7460   42.9460 C   0  0  0  0  0  0  0  0  0  0  0  0
   56.5460   29.7700   44.3400 C   0  0  0  0  0  0  0  0  0  0  0  0
   56.9550   30.8870   44.9970 N   0  0  0  0  0  0  0  0  0  0  0  0
   61.4749   33.5676   47.4378 H   0  0  0  0  0  0  0  0  0  0  0  0
   60.8076   32.9554   45.8865 H   0  0  0  0  0  0  0  0  0  0  0  0
   61.9646   34.3294   45.8865 H   0  0  0  0  0  0  0  0  0  0  0  0
   60.2972   35.7044   47.1333 H   0  0  0  0  0  0  0  0  0  0  0  0
   59.6755   35.1267   45.5267 H   0  0  0  0  0  0  0  0  0  0  0  0
   59.0361   33.8613   48.2313 H   0  0  0  0  0  0  0  0  0  0  0  0
   57.9561   34.9655   47.2942 H   0  0  0  0  0  0  0  0  0  0  0  0
   58.2800   32.1310   46.9060 H   0  0  0  0  0  0  0  0  0  0  0  0
   57.7838   32.8310   42.3600 H   0  0  0  0  0  0  0  0  0  0  0  0
   56.2522   28.8497   42.3989 H   0  0  0  0  0  0  0  0  0  0  0  0
   56.1916   28.8934   44.9021 H   0  0  0  0  0  0  0  0  0  0  0  0
  1  2  1  0
  2  3  1  0
  3  4  1  0
  4  5  1  0
  5  6  2  0
  5  7  1  0
  7  8  2  0
  8  9  1  0
  9 10  2  0
 10 11  1  0
 11 12  2  0
 12  7  1  0
  1 13  1  0
  1 14  1  0
  1 15  1  0
  2 16  1  0
  2 17  1  0
  3 18  1  0
  3 19  1  0
  4 20  1  0
  8 21  1  0
 10 22  1  0
 11 23  1  0
M  END
>  <UniqueID>  (12) 
12

>  <SMILES>  (12) 
CCCNC(=O)c1cnccn1

>  <Energy>  (12) 
17.35229059268732

>  <Genealogy>  (12) 
CCCNC(=O)c1cnccn1 (3D coordinates assigned)
CCCNC(=O)c1cnccn1 (optimized conformer: 17.35229059268732 kcal/mol)

>  <smiles>  (12) 
CCCNC(=O)c1cnccn1

>  <score_type>  (12) 
oracle

>  <origin>  (12) 
adg

>  <m_score__min__energy>  (12) 
-4.7400000000000002

>  <m_primary>  (12) 
energy

$$$$
12:0
     RDKit          3D

 41 43  0  0  0  0  0  0  0  0999 V2000
   59.6400   35.4440   45.7240 C   0  0  0  0  0  0  0  0  0  0  0  0
   60.3400   34.5540   46.7100 C   0  0  0  0  0  0  0  0  0  0  0  0
   61.4870   33.8420   46.3290 C   0  0  0  0  0  0  0  0  0  0  0  0
   62.1570   33.0390   47.2560 C   0  0  0  0  0  0  0  0  0  0  0  0
   61.6990   32.9510   48.5800 C   0  0  0  0  0  0  0  0  0  0  0  0
   62.4050   32.0540   49.5700 C   0  0  0  0  0  0  0  0  0  0  0  0
   61.8530   30.6880   49.5650 N   0  0  0  0  0  0  0  0  0  0  0  0
   60.5600   30.6150   50.2660 C   0  0  0  0  0  0  0  0  0  0  0  0
   59.4780   30.0250   49.3540 C   0  0  0  0  0  0  0  0  0  0  0  0
   59.8100   30.2350   47.9820 O   0  0  0  0  0  0  0  0  0  0  0  0
   58.8870   30.4950   46.9560 C   0  0  0  0  0  0  0  0  0  0  0  0
   58.5170   31.8010   46.5510 C   0  0  0  0  0  0  0  0  0  0  0  0
   57.5770   31.9770   45.5110 C   0  0  0  0  0  0  0  0  0  0  0  0
   57.0210   30.8980   44.8850 N   0  0  0  0  0  0  0  0  0  0  0  0
   57.3830   29.6510   45.2750 C   0  0  0  0  0  0  0  0  0  0  0  0
   56.9250   28.4990   44.7600 N   0  0  0  0  0  0  0  0  0  0  0  0
   57.5510   27.5180   45.4500 C   0  0  0  0  0  0  0  0  0  0  0  0
   58.4060   28.0640   46.4030 C   0  0  0  0  0  0  0  0  0  0  0  0
   59.4130   27.1700   47.5260 Cl  0  0  0  0  0  0  0  0  0  0  0  0
   58.2880   29.4330   46.2780 C   0  0  0  0  0  0  0  0  0  0  0  0
   60.5600   33.6770   48.9630 C   0  0  0  0  0  0  0  0  0  0  0  0
   59.8900   34.4790   48.0360 C   0  0  0  0  0  0  0  0  0  0  0  0
   59.0480   36.1967   46.2653 H   0  0  0  0  0  0  0  0  0  0  0  0
   60.3855   35.9489   45.0921 H   0  0  0  0  0  0  0  0  0  0  0  0
   58.9736   34.8384   45.0921 H   0  0  0  0  0  0  0  0  0  0  0  0
   61.8604   33.9160   45.2970 H   0  0  0  0  0  0  0  0  0  0  0  0
   63.0479   32.4729   46.9465 H   0  0  0  0  0  0  0  0  0  0  0  0
   63.4725   32.0071   49.3089 H   0  0  0  0  0  0  0  0  0  0  0  0
   62.2607   32.4762   50.5755 H   0  0  0  0  0  0  0  0  0  0  0  0
   62.5370   30.0600   50.0500 H   0  0  0  0  0  0  0  0  0  0  0  0
   61.7430   30.3550   48.5780 H   0  0  0  0  0  0  0  0  0  0  0  0
   60.6680   29.9778   51.1561 H   0  0  0  0  0  0  0  0  0  0  0  0
   60.2592   31.6322   50.5571 H   0  0  0  0  0  0  0  0  0  0  0  0
   59.3937   28.9449   49.5446 H   0  0  0  0  0  0  0  0  0  0  0  0
   58.5216   30.5243   49.5685 H   0  0  0  0  0  0  0  0  0  0  0  0
   58.9611   32.6773   47.0458 H   0  0  0  0  0  0  0  0  0  0  0  0
   57.2901   32.9931   45.2024 H   0  0  0  0  0  0  0  0  0  0  0  0
   56.2300   28.3820   43.9900 H   0  0  0  0  0  0  0  0  0  0  0  0
   57.4049   26.4408   45.2816 H   0  0  0  0  0  0  0  0  0  0  0  0
   60.1934   33.6140   49.9982 H   0  0  0  0  0  0  0  0  0  0  0  0
   59.0056   35.0542   48.3475 H   0  0  0  0  0  0  0  0  0  0  0  0
  1  2  1  0
  2  3  2  0
  3  4  1  0
  4  5  2  0
  5  6  1  0
  6  7  1  0
  7  8  1  0
  8  9  1  0
  9 10  1  0
 10 11  1  0
 11 12  2  0
 12 13  1  0
 13 14  2  0
 14 15  1  0
 15 16  1  0
 16 17  1  0
 17 18  2  0
 18 19  1  0
 18 20  1  0
  5 21  1  0
 21 22  2  0
 22  2  1  0
 20 11  1  0
 20 15  2  0
  1 23  1  0
  1 24  1  0
  1 25  1  0
  3 26  1  0
  4 27  1  0
  6 28  1  0
  6 29  1  0
  7 30  1  0
  7 31  1  0
  8 32  1  0
  8 33  1  0
  9 34  1  0
  9 35  1  0
 12 36  1  0
 13 37  1  0
 16 38  1  0
 17 39  1  0
 21 40  1  0
 22 41  1  0
M  CHG  1   7   1
M  END
>  <UniqueID>  (13) 
13

>  <SMILES>  (13) 
Cc1ccc(C[NH2+]CCOc2ccnc3[nH]cc(Cl)c23)cc1

>  <Energy>  (13) 
75.03833834099285

>  <Genealogy>  (13) 
Cc1ccc(C[NH2+]CCOc2ccnc3[nH]cc(Cl)c23)cc1 (protonated)
Cc1ccc(C[NH2+]CCOc2ccnc3[nH]cc(Cl)c23)cc1 (3D coordinates assigned)
Cc1ccc(C[NH2+]CCOc2ccnc3[nH]cc(Cl)c23)cc1 (optimized conformer: 75.03833834099285 kcal/mol)

>  <smiles>  (13) 
Cc1ccc(CNCCOc2ccnc3[nH]cc(Cl)c23)cc1

>  <score_type>  (13) 
oracle

>  <origin>  (13) 
adg

>  <m_score__min__energy>  (13) 
-5.3600000000000003

>  <m_primary>  (13) 
energy

$$$$
13:0
     RDKit          3D

 35 36  0  0  0  0  0  0  0  0999 V2000
   57.4010   31.5990   42.1030 C   0  0  0  0  0  0  0  0  0  0  0  0
   56.6060   30.5420   42.8650 C   0  0  0  0  0  0  0  0  0  0  0  0
   57.2650   30.2080   44.2040 C   0  0  0  0  0  0  0  0  0  0  0  0
   57.0350   31.3140   45.1500 N   0  0  0  0  0  0  0  0  0  0  0  0
   58.0320   32.4050   45.1100 C   0  0  1  0  0  0  0  0  0  0  0  0
   57.5090   33.7850   45.5330 C   0  0  0  0  0  0  0  0  0  0  0  0
   58.7000   34.4730   46.1910 C   0  0  0  0  0  0  0  0  0  0  0  0
   59.6530   33.4200   46.5270 N   0  0  0  0  0  0  0  0  0  0  0  0
   60.8490   33.6160   47.3280 C   0  0  0  0  0  0  0  0  0  0  0  0
   62.1250   33.4050   46.7610 C   0  0  0  0  0  0  0  0  0  0  0  0
   63.2860   33.5830   47.5180 C   0  0  0  0  0  0  0  0  0  0  0  0
   63.1990   33.9770   48.8500 C   0  0  0  0  0  0  0  0  0  0  0  0
   61.9500   34.1970   49.4310 C   0  0  0  0  0  0  0  0  0  0  0  0
   60.7800   34.0200   48.6850 C   0  0  0  0  0  0  0  0  0  0  0  0
   59.5970   34.2700   49.2990 F   0  0  0  0  0  0  0  0  0  0  0  0
   59.2590   32.1280   45.9800 C   0  0  0  0  0  0  0  0  0  0  0  0
   57.9032   32.2667   42.8186 H   0  0  0  0  0  0  0  0  0  0  0  0
   58.1542   31.1062   41.4706 H   0  0  0  0  0  0  0  0  0  0  0  0
   56.7186   32.1859   41.4706 H   0  0  0  0  0  0  0  0  0  0  0  0
   55.5906   30.9222   43.0505 H   0  0  0  0  0  0  0  0  0  0  0  0
   56.5740   29.6264   42.2562 H   0  0  0  0  0  0  0  0  0  0  0  0
   56.8283   29.2826   44.6076 H   0  0  0  0  0  0  0  0  0  0  0  0
   58.3461   30.0677   44.0574 H   0  0  0  0  0  0  0  0  0  0  0  0
   57.0200   30.9180   46.1190 H   0  0  0  0  0  0  0  0  0  0  0  0
   58.2928   32.4297   44.0417 H   0  0  0  0  0  0  0  0  0  0  0  0
   57.1691   34.3552   44.6559 H   0  0  0  0  0  0  0  0  0  0  0  0
   56.6475   33.7100   46.2128 H   0  0  0  0  0  0  0  0  0  0  0  0
   59.1570   35.1908   45.4939 H   0  0  0  0  0  0  0  0  0  0  0  0
   58.3917   35.0313   47.0872 H   0  0  0  0  0  0  0  0  0  0  0  0
   62.2062   33.0961   45.7084 H   0  0  0  0  0  0  0  0  0  0  0  0
   64.2712   33.4113   47.0600 H   0  0  0  0  0  0  0  0  0  0  0  0
   64.1144   34.1148   49.4441 H   0  0  0  0  0  0  0  0  0  0  0  0
   61.8847   34.5118   50.4830 H   0  0  0  0  0  0  0  0  0  0  0  0
   60.0723   31.7043   45.3726 H   0  0  0  0  0  0  0  0  0  0  0  0
   59.0378   31.4005   46.7749 H   0  0  0  0  0  0  0  0  0  0  0  0
  1  2  1  0
  2  3  1  0
  3  4  1  0
  4  5  1  0
  5  6  1  0
  6  7  1  0
  7  8  1  0
  8  9  1  0
  9 10  2  0
 10 11  1  0
 11 12  2  0
 12 13  1  0
 13 14  2  0
 14 15  1  0
  8 16  1  0
 16  5  1  0
 14  9  1  0
  1 17  1  0
  1 18  1  0
  1 19  1  0
  2 20  1  0
  2 21  1  0
  3 22  1  0
  3 23  1  0
  4 24  1  0
  5 25  1  6
  6 26  1  0
  6 27  1  0
  7 28  1  0
  7 29  1  0
 10 30  1  0
 11 31  1  0
 12 32  1  0
 13 33  1  0
 16 34  1  0
 16 35  1  0
M  END
>  <UniqueID>  (14) 
14

>  <SMILES>  (14) 
CCCN[C@H]1CCN(c2ccccc2F)C1

>  <Energy>  (14) 
38.466008913361875

>  <Genealogy>  (14) 
CCCN[C@H]1CCN(c2ccccc2F)C1 (chirality)
CCCN[C@H]1CCN(c2ccccc2F)C1 (3D coordinates assigned)
CCCN[C@H]1CCN(c2ccccc2F)C1 (nonaromatic ring conformer: 38.466008913361875 kcal/mol)

>  <smiles>  (14) 
CCCNC1CCN(c2ccccc2F)C1

>  <score_type>  (14) 
oracle

>  <origin>  (14) 
adg

>  <m_score__min__energy>  (14) 
-6.0999999999999996

>  <m_primary>  (14) 
energy

$$$$
14:0
     RDKit          3D

 42 44  0  0  0  0  0  0  0  0999 V2000
   59.2670   34.9990   45.2120 C   0  0  0  0  0  0  0  0  0  0  0  0
   58.6630   33.8010   44.4880 C   0  0  0  0  0  0  0  0  0  0  0  0
   58.0070   32.8980   45.4440 N   0  0  0  0  0  0  0  0  0  0  0  0
   57.5020   33.4120   46.7250 C   0  0  0  0  0  0  0  0  0  0  0  0
   58.5060   33.1400   47.8400 C   0  0  0  0  0  0  0  0  0  0  0  0
   57.8570   31.5030   45.1240 C   0  0  0  0  0  0  0  0  0  0  0  0
   57.1810   31.1150   43.9590 C   0  0  0  0  0  0  0  0  0  0  0  0
   57.0320   29.7640   43.6470 C   0  0  0  0  0  0  0  0  0  0  0  0
   57.5560   28.7750   44.4930 C   0  0  0  0  0  0  0  0  0  0  0  0
   57.4050   27.4570   44.1760 N   0  0  0  0  0  0  0  0  0  0  0  0
   57.8990   26.4610   44.9660 C   0  0  0  0  0  0  0  0  0  0  0  0
   57.7000   25.0470   44.5660 C   0  0  0  0  0  0  0  0  0  0  0  0
   58.1820   23.9150   45.2050 C   0  0  0  0  0  0  0  0  0  0  0  0
   57.7380   22.8440   44.4610 C   0  0  0  0  0  0  0  0  0  0  0  0
   57.0150   23.3780   43.4160 C   0  0  0  0  0  0  0  0  0  0  0  0
   57.0110   24.6870   43.5050 O   0  0  0  0  0  0  0  0  0  0  0  0
   58.5860   26.7930   46.1440 C   0  0  0  0  0  0  0  0  0  0  0  0
   58.7640   28.1340   46.5080 C   0  0  0  0  0  0  0  0  0  0  0  0
   59.5070   28.4540   47.7810 C   0  0  0  0  0  0  0  0  0  0  0  0
   58.2430   29.1490   45.6730 C   0  0  0  0  0  0  0  0  0  0  0  0
   58.3850   30.5210   45.9750 C   0  0  0  0  0  0  0  0  0  0  0  0
   59.1905   34.8473   46.2988 H   0  0  0  0  0  0  0  0  0  0  0  0
   60.3251   35.1027   44.9298 H   0  0  0  0  0  0  0  0  0  0  0  0
   58.7211   35.9114   44.9298 H   0  0  0  0  0  0  0  0  0  0  0  0
   57.9208   34.1560   43.7578 H   0  0  0  0  0  0  0  0  0  0  0  0
   59.4674   33.2527   43.9758 H   0  0  0  0  0  0  0  0  0  0  0  0
   57.3385   34.4965   46.6412 H   0  0  0  0  0  0  0  0  0  0  0  0
   56.5561   32.9045   46.9651 H   0  0  0  0  0  0  0  0  0  0  0  0
   58.0155   33.2729   48.8156 H   0  0  0  0  0  0  0  0  0  0  0  0
   58.8785   32.1086   47.7544 H   0  0  0  0  0  0  0  0  0  0  0  0
   59.3483   33.8423   47.7544 H   0  0  0  0  0  0  0  0  0  0  0  0
   56.7657   31.8805   43.2870 H   0  0  0  0  0  0  0  0  0  0  0  0
   56.4993   29.4714   42.7302 H   0  0  0  0  0  0  0  0  0  0  0  0
   56.8930   27.2030   43.2980 H   0  0  0  0  0  0  0  0  0  0  0  0
   58.7935   23.8793   46.1187 H   0  0  0  0  0  0  0  0  0  0  0  0
   57.9230   21.7782   44.6605 H   0  0  0  0  0  0  0  0  0  0  0  0
   56.5170   22.7952   42.6272 H   0  0  0  0  0  0  0  0  0  0  0  0
   58.9874   25.9948   46.7858 H   0  0  0  0  0  0  0  0  0  0  0  0
   58.8837   28.1856   48.6467 H   0  0  0  0  0  0  0  0  0  0  0  0
   60.4448   27.8800   47.8123 H   0  0  0  0  0  0  0  0  0  0  0  0
   59.7343   29.5298   47.8123 H   0  0  0  0  0  0  0  0  0  0  0  0
   58.9165   30.8236   46.8893 H   0  0  0  0  0  0  0  0  0  0  0  0
  1  2  1  0
  2  3  1  0
  3  4  1  0
  4  5  1  0
  3  6  1  0
  6  7  2  0
  7  8  1  0
  8  9  2  0
  9 10  1  0
 10 11  2  0
 11 12  1  0
 12 13  2  0
 13 14  1  0
 14 15  2  0
 15 16  1  0
 11 17  1  0
 17 18  2  0
 18 19  1  0
 18 20  1  0
 20 21  2  0
 21  6  1  0
 20  9  1  0
 16 12  1  0
  1 22  1  0
  1 23  1  0
  1 24  1  0
  2 25  1  0
  2 26  1  0
  4 27  1  0
  4 28  1  0
  5 29  1  0
  5 30  1  0
  5 31  1  0
  7 32  1  0
  8 33  1  0
 10 34  1  0
 13 35  1  0
 14 36  1  0
 15 37  1  0
 17 38  1  0
 19 39  1  0
 19 40  1  0
 19 41  1  0
 21 42  1  0
M  CHG  1  10   1
M  END
>  <UniqueID>  (15) 
15

>  <SMILES>  (15) 
CCN(CC)c1ccc2[nH+]c(-c3ccco3)cc(C)c2c1

>  <Energy>  (15) 
72.83916095540451

>  <Genealogy>  (15) 
CCN(CC)c1ccc2[nH+]c(-c3ccco3)cc(C)c2c1 (protonated)
CCN(CC)c1ccc2[nH+]c(-c3ccco3)cc(C)c2c1 (3D coordinates assigned)
CCN(CC)c1ccc2[nH+]c(-c3ccco3)cc(C)c2c1 (optimized conformer: 72.83916095540451 kcal/mol)

>  <smiles>  (15) 
CCN(CC)c1ccc2nc(-c3ccco3)cc(C)c2c1

>  <score_type>  (15) 
oracle

>  <origin>  (15) 
adg

>  <m_score__min__energy>  (15) 
-5.5999999999999996

>  <m_primary>  (15) 
energy

$$$$
15:0
     RDKit          3D

 24 24  0  0  0  0  0  0  0  0999 V2000
   55.7940   29.7360   46.0000 H   0  0  0  0  0  0  0  0  0  0  0  0
   55.6850   29.3030   45.0900 O   0  0  0  0  0  0  0  0  0  0  0  0
   56.6910   29.3260   44.1430 N   0  0  0  0  0  0  0  0  0  0  0  0
   57.0970   32.3200   44.8300 C   0  0  0  0  0  0  0  0  0  0  0  0
   56.0675   32.2231   45.2052 H   0  0  0  0  0  0  0  0  0  0  0  0
   56.7900   30.3490   43.3320 C   0  0  0  0  0  0  0  0  0  0  0  0
   56.3896   30.2489   42.3124 H   0  0  0  0  0  0  0  0  0  0  0  0
   57.4160   31.6370   43.7210 C   0  0  0  0  0  0  0  0  0  0  0  0
   58.1883   32.0568   43.0597 H   0  0  0  0  0  0  0  0  0  0  0  0
   58.0180   33.1930   45.5890 C   0  0  0  0  0  0  0  0  0  0  0  0
   58.0960   33.1340   46.9920 C   0  0  0  0  0  0  0  0  0  0  0  0
   57.4878   32.4024   47.5442 H   0  0  0  0  0  0  0  0  0  0  0  0
   58.9440   34.0020   47.6880 C   0  0  0  0  0  0  0  0  0  0  0  0
   59.0135   33.9407   48.7841 H   0  0  0  0  0  0  0  0  0  0  0  0
   59.7030   34.9470   46.9920 C   0  0  0  0  0  0  0  0  0  0  0  0
   60.3749   35.6243   47.5395 H   0  0  0  0  0  0  0  0  0  0  0  0
   59.6080   35.0310   45.6010 C   0  0  0  0  0  0  0  0  0  0  0  0
   60.2005   35.7797   45.0547 H   0  0  0  0  0  0  0  0  0  0  0  0
   58.7610   34.1650   44.9010 C   0  0  0  0  0  0  0  0  0  0  0  0
   58.6770   34.2462   43.8072 H   0  0  0  0  0  0  0  0  0  0  0  0
   57.6050   28.1850   44.0990 C   0  0  0  0  0  0  0  0  0  0  0  0
   57.8536   27.8746   45.1246 H   0  0  0  0  0  0  0  0  0  0  0  0
   57.1234   27.3496   43.5697 H   0  0  0  0  0  0  0  0  0  0  0  0
   58.5254   28.4726   43.5697 H   0  0  0  0  0  0  0  0  0  0  0  0
  1  2  1  0
  2  3  1  0
  3  4  2  0
  4  5  1  0
  4  6  1  0
  6  7  1  0
  6  8  2  0
  8  9  1  0
  8 10  1  0
 10 11  2  0
 11 12  1  0
 11 13  1  0
 13 14  1  0
 13 15  2  0
 15 16  1  0
 15 17  1  0
 17 18  1  0
 17 19  2  0
 19 20  1  0
  3 21  1  0
 21 22  1  0
 21 23  1  0
 21 24  1  0
 19 10  1  0
M  CHG  1   3   1
M  END
>  <UniqueID>  (16) 
16

>  <SMILES>  (16) 
C/[N+](O)=C\C=C/c1ccccc1

>  <Energy>  (16) 
28.659713240608195

>  <Genealogy>  (16) 
C[N+](O)=CC=Cc1ccccc1 (protonated)
C/[N+](O)=C\C=C/c1ccccc1 (cis-trans isomerization)
C/[N+](O)=C\C=C/c1ccccc1 (3D coordinates assigned)
C/[N+](O)=C\C=C/c1ccccc1 (optimized conformer: 28.659713240608195 kcal/mol)

>  <smiles>  (16) 
C[N+]([O-])=CC=Cc1ccccc1

>  <score_type>  (16) 
oracle

>  <origin>  (16) 
adg

>  <m_score__min__energy>  (16) 
-4.6699999999999999

>  <m_primary>  (16) 
energy

$$$$
16:0
     RDKit          3D

 41 44  0  0  0  0  0  0  0  0999 V2000
   56.7570   27.6630   45.6270 C   0  0  0  0  0  0  0  0  0  0  0  0
   56.8550   29.0190   45.1100 N   0  0  0  0  0  0  0  0  0  0  0  0
   55.8570   29.6510   44.5070 N   0  0  0  0  0  0  0  0  0  0  0  0
   56.3130   30.8850   44.2250 C   0  0  0  0  0  0  0  0  0  0  0  0
   57.6080   30.9620   44.6930 C   0  0  0  0  0  0  0  0  0  0  0  0
   58.5330   32.1360   44.5920 C   0  0  0  0  0  0  0  0  0  0  0  0
   57.8250   33.4010   44.8930 N   0  0  0  0  0  0  0  0  0  0  0  0
   58.7390   34.5720   44.8650 C   0  0  0  0  0  0  0  0  0  0  0  0
   59.2080   35.0480   46.2580 C   0  0  0  0  0  0  0  0  0  0  0  0
   59.1490   33.9610   47.2380 N   0  0  0  0  0  0  0  0  0  0  0  0
   60.1870   33.8280   48.2230 C   0  0  0  0  0  0  0  0  0  0  0  0
   59.8700   33.8240   49.5980 C   0  0  0  0  0  0  0  0  0  0  0  0
   60.8810   33.7060   50.5690 C   0  0  0  0  0  0  0  0  0  0  0  0
   62.2230   33.5860   50.1830 C   0  0  0  0  0  0  0  0  0  0  0  0
   62.5200   33.5860   48.8240 C   0  0  0  0  0  0  0  0  0  0  0  0
   64.0240   33.4430   48.0940 S   0  0  0  0  0  0  0  0  0  0  0  0
   63.4380   33.5230   46.5130 C   0  0  0  0  0  0  0  0  0  0  0  0
   62.0520   33.6620   46.5460 C   0  0  0  0  0  0  0  0  0  0  0  0
   61.5380   33.7030   47.8510 C   0  0  0  0  0  0  0  0  0  0  0  0
   57.9150   33.1860   47.3810 C   0  0  0  0  0  0  0  0  0  0  0  0
   57.0260   33.3450   46.1380 C   0  0  0  0  0  0  0  0  0  0  0  0
   57.9300   29.7810   45.2500 N   0  0  0  0  0  0  0  0  0  0  0  0
   56.7589   27.6888   46.7267 H   0  0  0  0  0  0  0  0  0  0  0  0
   55.8232   27.2021   45.2726 H   0  0  0  0  0  0  0  0  0  0  0  0
   57.6148   27.0726   45.2726 H   0  0  0  0  0  0  0  0  0  0  0  0
   55.7558   31.6848   43.7153 H   0  0  0  0  0  0  0  0  0  0  0  0
   59.3572   32.0065   45.3088 H   0  0  0  0  0  0  0  0  0  0  0  0
   58.9193   32.1885   43.5634 H   0  0  0  0  0  0  0  0  0  0  0  0
   59.6280   34.3008   44.2766 H   0  0  0  0  0  0  0  0  0  0  0  0
   58.1706   35.4039   44.4236 H   0  0  0  0  0  0  0  0  0  0  0  0
   60.2448   35.4079   46.1837 H   0  0  0  0  0  0  0  0  0  0  0  0
   58.5398   35.8550   46.5930 H   0  0  0  0  0  0  0  0  0  0  0  0
   58.8203   33.9142   49.9142 H   0  0  0  0  0  0  0  0  0  0  0  0
   60.6169   33.7079   51.6368 H   0  0  0  0  0  0  0  0  0  0  0  0
   63.0205   33.4942   50.9350 H   0  0  0  0  0  0  0  0  0  0  0  0
   64.0524   33.4733   45.6019 H   0  0  0  0  0  0  0  0  0  0  0  0
   61.4265   33.7322   45.6439 H   0  0  0  0  0  0  0  0  0  0  0  0
   58.1689   32.1235   47.5097 H   0  0  0  0  0  0  0  0  0  0  0  0
   57.3649   33.5563   48.2586 H   0  0  0  0  0  0  0  0  0  0  0  0
   56.3377   32.4889   46.0809 H   0  0  0  0  0  0  0  0  0  0  0  0
   56.4735   34.2915   46.2321 H   0  0  0  0  0  0  0  0  0  0  0  0
  1  2  1  0
  2  3  1  0
  3  4  2  0
  4  5  1  0
  5  6  1  0
  6  7  1  0
  7  8  1  0
  8  9  1  0
  9 10  1  0
 10 11  1  0
 11 12  2  0
 12 13  1  0
 13 14  2  0
 14 15  1  0
 15 16  1  0
 16 17  1  0
 17 18  2  0
 18 19  1  0
 10 20  1  0
 20 21  1  0
  5 22  2  0
 22  2  1  0
 21  7  1  0
 19 11  1  0
 19 15  2  0
  1 23  1  0
  1 24  1  0
  1 25  1  0
  4 26  1  0
  6 27  1  0
  6 28  1  0
  8 29  1  0
  8 30  1  0
  9 31  1  0
  9 32  1  0
 12 33  1  0
 13 34  1  0
 14 35  1  0
 17 36  1  0
 18 37  1  0
 20 38  1  0
 20 39  1  0
 21 40  1  0
 21 41  1  0
M  END
>  <UniqueID>  (17) 
17

>  <SMILES>  (17) 
Cn1ncc(CN2CCN(c3cccc4sccc34)CC2)n1

>  <Energy>  (17) 
119.66710732718666

>  <Genealogy>  (17) 
Cn1ncc(CN2CCN(c3cccc4sccc34)CC2)n1 (3D coordinates assigned)
Cn1ncc(CN2CCN(c3cccc4sccc34)CC2)n1 (nonaromatic ring conformer: 119.66710732718666 kcal/mol)

>  <smiles>  (17) 
Cn1ncc(CN2CCN(c3cccc4sccc34)CC2)n1

>  <score_type>  (17) 
oracle

>  <origin>  (17) 
adg

>  <m_score__min__energy>  (17) 
-7.8799999999999999

>  <m_primary>  (17) 
energy

$$$$
17:0
     RDKit          3D

 33 34  0  0  0  0  0  0  0  0999 V2000
   57.7190   32.0570   41.5580 C   0  0  0  0  0  0  0  0  0  0  0  0
   57.3730   31.3730   42.8470 C   0  0  0  0  0  0  0  0  0  0  0  0
   56.3180   30.4540   42.8970 C   0  0  0  0  0  0  0  0  0  0  0  0
   56.0280   29.8120   44.0990 C   0  0  0  0  0  0  0  0  0  0  0  0
   56.7740   30.0650   45.2060 N   0  0  0  0  0  0  0  0  0  0  0  0
   57.8260   30.9320   45.1980 C   0  0  0  0  0  0  0  0  0  0  0  0
   58.5740   31.1470   46.4230 N   0  0  0  0  0  0  0  0  0  0  0  0
   59.7800   30.3450   46.6560 C   0  0  0  0  0  0  0  0  0  0  0  0
   58.2270   32.2010   47.3960 C   0  0  0  0  0  0  0  0  0  0  0  0
   58.2070   33.6100   46.7680 C   0  0  1  0  0  0  0  0  0  0  0  0
   59.4400   33.9430   45.9430 C   0  0  0  0  0  0  0  0  0  0  0  0
   58.9100   34.9650   44.9880 C   0  0  0  0  0  0  0  0  0  0  0  0
   57.4450   34.5860   44.8620 C   0  0  0  0  0  0  0  0  0  0  0  0
   57.0670   33.7840   45.9600 O   0  0  0  0  0  0  0  0  0  0  0  0
   58.1400   31.6040   43.9970 C   0  0  0  0  0  0  0  0  0  0  0  0
   58.2060   33.0196   41.7729 H   0  0  0  0  0  0  0  0  0  0  0  0
   58.4039   31.4211   40.9778 H   0  0  0  0  0  0  0  0  0  0  0  0
   56.8010   32.2319   40.9778 H   0  0  0  0  0  0  0  0  0  0  0  0
   55.7239   30.2409   41.9961 H   0  0  0  0  0  0  0  0  0  0  0  0
   55.1927   29.0983   44.1519 H   0  0  0  0  0  0  0  0  0  0  0  0
   59.9443   30.2358   47.7382 H   0  0  0  0  0  0  0  0  0  0  0  0
   59.6527   29.3511   46.2023 H   0  0  0  0  0  0  0  0  0  0  0  0
   60.6474   30.8468   46.2023 H   0  0  0  0  0  0  0  0  0  0  0  0
   57.2299   31.9852   47.8075 H   0  0  0  0  0  0  0  0  0  0  0  0
   59.0003   32.1976   48.1783 H   0  0  0  0  0  0  0  0  0  0  0  0
   58.1897   34.2995   47.6249 H   0  0  0  0  0  0  0  0  0  0  0  0
   60.2403   34.3607   46.5715 H   0  0  0  0  0  0  0  0  0  0  0  0
   59.8929   33.0697   45.4509 H   0  0  0  0  0  0  0  0  0  0  0  0
   59.0221   35.9812   45.3938 H   0  0  0  0  0  0  0  0  0  0  0  0
   59.4402   34.9744   44.0242 H   0  0  0  0  0  0  0  0  0  0  0  0
   56.8309   35.4985   44.8466 H   0  0  0  0  0  0  0  0  0  0  0  0
   57.2923   34.0234   43.9292 H   0  0  0  0  0  0  0  0  0  0  0  0
   58.9850   32.3075   43.9638 H   0  0  0  0  0  0  0  0  0  0  0  0
  1  2  1  0
  2  3  2  0
  3  4  1  0
  4  5  2  0
  5  6  1  0
  6  7  1  0
  7  8  1  0
  7  9  1  0
  9 10  1  0
 10 11  1  0
 11 12  1  0
 12 13  1  0
 13 14  1  0
  6 15  2  0
 15  2  1  0
 14 10  1  0
  1 16  1  0
  1 17  1  0
  1 18  1  0
  3 19  1  0
  4 20  1  0
  8 21  1  0
  8 22  1  0
  8 23  1  0
  9 24  1  0
  9 25  1  0
 10 26  1  1
 11 27  1  0
 11 28  1  0
 12 29  1  0
 12 30  1  0
 13 31  1  0
 13 32  1  0
 15 33  1  0
M  END
>  <UniqueID>  (18) 
18

>  <SMILES>  (18) 
Cc1ccnc(N(C)C[C@H]2CCCO2)c1

>  <Energy>  (18) 
32.32790453823685

>  <Genealogy>  (18) 
Cc1ccnc(N(C)C[C@H]2CCCO2)c1 (chirality)
Cc1ccnc(N(C)C[C@H]2CCCO2)c1 (3D coordinates assigned)
Cc1ccnc(N(C)C[C@H]2CCCO2)c1 (nonaromatic ring conformer: 32.32790453823685 kcal/mol)

>  <smiles>  (18) 
Cc1ccnc(N(C)CC2CCCO2)c1

>  <score_type>  (18) 
oracle

>  <origin>  (18) 
adg

>  <m_score__min__energy>  (18) 
-6.1100000000000003

>  <m_primary>  (18) 
energy

$$$$
18:0
     RDKit          3D

 24 24  0  0  0  0  0  0  0  0999 V2000
   55.5443   24.4713   46.6006 H   0  0  0  0  0  0  0  0  0  0  0  0
   55.4690   25.0530   45.6700 C   0  0  0  0  0  0  0  0  0  0  0  0
   54.6095   24.6966   45.0833 H   0  0  0  0  0  0  0  0  0  0  0  0
   56.3909   24.9271   45.0833 H   0  0  0  0  0  0  0  0  0  0  0  0
   55.2910   26.4290   45.9840 O   0  0  0  0  0  0  0  0  0  0  0  0
   56.2670   27.3940   45.7260 C   0  0  0  0  0  0  0  0  0  0  0  0
   55.9270   28.6190   45.2440 N   0  0  0  0  0  0  0  0  0  0  0  0
   56.8870   29.5510   44.9970 C   0  0  0  0  0  0  0  0  0  0  0  0
   56.5750   30.7240   44.5360 N   0  0  0  0  0  0  0  0  0  0  0  0
   57.5440   31.7880   44.2870 C   0  0  0  0  0  0  0  0  0  0  0  0
   58.4996   31.5322   44.7680 H   0  0  0  0  0  0  0  0  0  0  0  0
   57.1628   32.7326   44.7023 H   0  0  0  0  0  0  0  0  0  0  0  0
   57.7580   31.9460   42.7890 C   0  0  0  0  0  0  0  0  0  0  0  0
   58.6311   32.5906   42.6093 H   0  0  0  0  0  0  0  0  0  0  0  0
   57.9323   30.9583   42.3373 H   0  0  0  0  0  0  0  0  0  0  0  0
   56.8654   32.4034   42.3373 H   0  0  0  0  0  0  0  0  0  0  0  0
   58.1890   29.2510   45.2350 N   0  0  0  0  0  0  0  0  0  0  0  0
   58.5310   28.0310   45.7180 C   0  0  0  0  0  0  0  0  0  0  0  0
   60.2490   27.6430   46.0300 S   0  0  0  0  0  0  0  0  0  0  0  0
   60.8660   28.9140   44.8850 C   0  0  0  0  0  0  0  0  0  0  0  0
   61.2756   29.7577   45.4599 H   0  0  0  0  0  0  0  0  0  0  0  0
   61.6558   28.4843   44.2513 H   0  0  0  0  0  0  0  0  0  0  0  0
   60.0399   29.2688   44.2513 H   0  0  0  0  0  0  0  0  0  0  0  0
   57.5710   27.1030   45.9610 N   0  0  0  0  0  0  0  0  0  0  0  0
  1  2  1  0
  2  3  1  0
  2  4  1  0
  2  5  1  0
  5  6  1  0
  6  7  2  0
  7  8  1  0
  8  9  2  0
  9 10  1  0
 10 11  1  0
 10 12  1  0
 10 13  1  0
 13 14  1  0
 13 15  1  0
 13 16  1  0
  8 17  1  0
 17 18  2  0
 18 19  1  0
 19 20  1  0
 20 21  1  0
 20 22  1  0
 20 23  1  0
 18 24  1  0
 24  6  1  0
M  CHG  1  24  -1
M  END
>  <UniqueID>  (19) 
19

>  <SMILES>  (19) 
CC/N=c1\nc(OC)[n-]c(SC)n1

>  <Energy>  (19) 
12.28973532939158

>  <Genealogy>  (19) 
CCN=c1nc(OC)[n-]c(SC)n1 (protonated)
CC/N=c1\nc(OC)[n-]c(SC)n1 (cis-trans isomerization)
CC/N=c1\nc(OC)[n-]c(SC)n1 (3D coordinates assigned)
CC/N=c1\nc(OC)[n-]c(SC)n1 (optimized conformer: 12.28973532939158 kcal/mol)

>  <smiles>  (19) 
CCN=c1nc(OC)[nH]c(SC)n1

>  <score_type>  (19) 
oracle

>  <origin>  (19) 
adg

>  <m_score__min__energy>  (19) 
-6.3799999999999999

>  <m_primary>  (19) 
energy

$$$$
19:0
     RDKit          3D

 32 34  0  0  0  0  0  0  0  0999 V2000
   56.3662   22.9920   48.5394 H   0  0  0  0  0  0  0  0  0  0  0  0
   55.9780   23.6000   47.7090 C   0  0  0  0  0  0  0  0  0  0  0  0
   54.8430   23.2220   47.0650 N   0  0  0  0  0  0  0  0  0  0  0  0
   54.3330   23.9470   46.0350 C   0  0  0  0  0  0  0  0  0  0  0  0
   53.4113   23.6159   45.5341 H   0  0  0  0  0  0  0  0  0  0  0  0
   54.9770   25.1120   45.6110 C   0  0  0  0  0  0  0  0  0  0  0  0
   54.5648   25.6983   44.7766 H   0  0  0  0  0  0  0  0  0  0  0  0
   56.1540   25.5320   46.2550 C   0  0  0  0  0  0  0  0  0  0  0  0
   56.8510   26.7670   45.8190 C   0  0  0  0  0  0  0  0  0  0  0  0
   58.2280   26.8300   45.5810 C   0  0  0  0  0  0  0  0  0  0  0  0
   58.9394   25.9985   45.6929 H   0  0  0  0  0  0  0  0  0  0  0  0
   58.6110   28.3960   45.0940 S   0  0  0  0  0  0  0  0  0  0  0  0
   57.0300   28.9350   45.2190 C   0  0  0  0  0  0  0  0  0  0  0  0
   56.6640   30.1480   44.9160 N   0  0  0  0  0  0  0  0  0  0  0  0
   57.4190   31.3460   45.1460 C   0  0  0  0  0  0  0  0  0  0  0  0
   58.1130   31.4920   46.3530 C   0  0  0  0  0  0  0  0  0  0  0  0
   58.1020   30.6772   47.0919 H   0  0  0  0  0  0  0  0  0  0  0  0
   58.8200   32.6670   46.6250 C   0  0  0  0  0  0  0  0  0  0  0  0
   59.3852   32.7608   47.5640 H   0  0  0  0  0  0  0  0  0  0  0  0
   58.8120   33.7270   45.7060 C   0  0  0  0  0  0  0  0  0  0  0  0
   59.6010   34.9720   45.9790 C   0  0  0  0  0  0  0  0  0  0  0  0
   59.6929   35.1170   47.0655 H   0  0  0  0  0  0  0  0  0  0  0  0
   60.6032   34.8755   45.5359 H   0  0  0  0  0  0  0  0  0  0  0  0
   59.0859   35.8371   45.5359 H   0  0  0  0  0  0  0  0  0  0  0  0
   58.1010   33.5900   44.5030 C   0  0  0  0  0  0  0  0  0  0  0  0
   58.0994   34.4110   43.7709 H   0  0  0  0  0  0  0  0  0  0  0  0
   57.3950   32.4140   44.2320 C   0  0  0  0  0  0  0  0  0  0  0  0
   56.8183   32.3240   43.2996 H   0  0  0  0  0  0  0  0  0  0  0  0
   56.1930   27.9430   45.6070 N   0  0  0  0  0  0  0  0  0  0  0  0
   55.1570   28.0390   45.6720 H   0  0  0  0  0  0  0  0  0  0  0  0
   56.6530   24.7590   47.3190 C   0  0  0  0  0  0  0  0  0  0  0  0
   57.5709   25.0659   47.8417 H   0  0  0  0  0  0  0  0  0  0  0  0
  1  2  1  0
  2  3  2  0
  3  4  1  0
  4  5  1  0
  4  6  2  0
  6  7  1  0
  6  8  1  0
  8  9  1  0
  9 10  2  0
 10 11  1  0
 10 12  1  0
 12 13  1  0
 13 14  2  0
 14 15  1  0
 15 16  2  0
 16 17  1  0
 16 18  1  0
 18 19  1  0
 18 20  2  0
 20 21  1  0
 21 22  1  0
 21 23  1  0
 21 24  1  0
 20 25  1  0
 25 26  1  0
 25 27  2  0
 27 28  1  0
 13 29  1  0
 29 30  1  0
  8 31  2  0
 31 32  1  0
 31  2  1  0
 29  9  1  0
 27 15  1  0
M  END
>  <UniqueID>  (20) 
20

>  <SMILES>  (20) 
Cc1ccc(/N=c2\[nH]c(-c3ccncc3)cs2)cc1

>  <Energy>  (20) 
75.00964986806729

>  <Genealogy>  (20) 
Cc1ccc(/N=c2\[nH]c(-c3ccncc3)cs2)cc1 (cis-trans isomerization)
Cc1ccc(/N=c2\[nH]c(-c3ccncc3)cs2)cc1 (3D coordinates assigned)
Cc1ccc(/N=c2\[nH]c(-c3ccncc3)cs2)cc1 (optimized conformer: 75.00964986806729 kcal/mol)

>  <smiles>  (20) 
Cc1ccc(N=c2[nH]c(-c3ccncc3)cs2)cc1

>  <score_type>  (20) 
oracle

>  <origin>  (20) 
adg

>  <m_score__min__energy>  (20) 
-7.1699999999999999

>  <m_primary>  (20) 
energy

$$$$
20:0
     RDKit          3D

 55 59  0  0  0  0  0  0  0  0999 V2000
   56.1380   30.1190   42.7660 F   0  0  0  0  0  0  0  0  0  0  0  0
   56.3160   30.2130   44.1320 C   0  0  0  0  0  0  0  0  0  0  0  0
   56.1740   31.5330   44.5250 F   0  0  0  0  0  0  0  0  0  0  0  0
   55.3230   29.4800   44.7580 F   0  0  0  0  0  0  0  0  0  0  0  0
   57.6900   29.6930   44.5010 C   0  0  0  0  0  0  0  0  0  0  0  0
   58.0790   28.4050   44.0910 C   0  0  0  0  0  0  0  0  0  0  0  0
   59.3260   27.8950   44.4510 C   0  0  0  0  0  0  0  0  0  0  0  0
   60.1890   28.6770   45.2130 C   0  0  0  0  0  0  0  0  0  0  0  0
   59.8240   29.9320   45.5770 N   0  0  0  0  0  0  0  0  0  0  0  0
   58.6230   30.4710   45.2310 C   0  0  0  0  0  0  0  0  0  0  0  0
   58.3400   31.8260   45.6240 N   0  0  0  0  0  0  0  0  0  0  0  0
   58.8940   32.9520   44.8620 C   0  0  0  0  0  0  0  0  0  0  0  0
   59.4820   34.0270   45.7990 C   0  0  0  0  0  0  0  0  0  0  0  0
   59.9970   33.4520   47.1520 C   0  0  0  0  0  0  0  0  0  0  0  0
   60.4720   34.6580   48.0330 C   0  0  0  0  0  0  0  0  0  0  0  0
   61.5150   34.2270   49.0690 C   0  0  0  0  0  0  0  0  0  0  0  0
   62.8200   33.7790   48.3690 C   0  0  0  0  0  0  0  0  0  0  0  0
   63.6380   32.8810   49.2660 C   0  0  0  0  0  0  0  0  0  0  0  0
   63.1290   31.9660   50.1950 C   0  0  0  0  0  0  0  0  0  0  0  0
   64.2450   31.3710   50.7320 C   0  0  0  0  0  0  0  0  0  0  0  0
   64.3270   30.4070   51.6810 N   0  0  0  0  0  0  0  0  0  0  0  0
   65.5630   29.9590   52.0620 C   0  0  0  0  0  0  0  0  0  0  0  0
   66.7330   30.4920   51.4730 C   0  0  0  0  0  0  0  0  0  0  0  0
   66.6280   31.4910   50.4890 C   0  0  0  0  0  0  0  0  0  0  0  0
   65.3480   31.9120   50.1410 C   0  0  0  0  0  0  0  0  0  0  0  0
   64.9950   32.8390   49.2360 N   0  0  0  0  0  0  0  0  0  0  0  0
   62.5690   33.1260   46.9850 C   0  0  0  0  0  0  0  0  0  0  0  0
   61.1910   32.4540   46.9000 C   0  0  0  0  0  0  0  0  0  0  0  0
   58.8200   32.7100   47.8850 C   0  0  0  0  0  0  0  0  0  0  0  0
   57.7700   32.0930   46.9430 C   0  0  0  0  0  0  0  0  0  0  0  0
   57.3948   27.7957   43.4821 H   0  0  0  0  0  0  0  0  0  0  0  0
   59.6247   26.8844   44.1357 H   0  0  0  0  0  0  0  0  0  0  0  0
   61.1669   28.2776   45.5201 H   0  0  0  0  0  0  0  0  0  0  0  0
   59.6896   32.5797   44.1998 H   0  0  0  0  0  0  0  0  0  0  0  0
   58.0822   33.4080   44.2764 H   0  0  0  0  0  0  0  0  0  0  0  0
   60.3228   34.5158   45.2850 H   0  0  0  0  0  0  0  0  0  0  0  0
   58.6715   34.7329   46.0331 H   0  0  0  0  0  0  0  0  0  0  0  0
   60.9143   35.4244   47.3795 H   0  0  0  0  0  0  0  0  0  0  0  0
   59.5983   35.0548   48.5708 H   0  0  0  0  0  0  0  0  0  0  0  0
   61.7342   35.0737   49.7361 H   0  0  0  0  0  0  0  0  0  0  0  0
   61.1136   33.3824   49.6482 H   0  0  0  0  0  0  0  0  0  0  0  0
   63.4027   34.6917   48.1754 H   0  0  0  0  0  0  0  0  0  0  0  0
   62.0749   31.7682   50.4396 H   0  0  0  0  0  0  0  0  0  0  0  0
   65.6469   29.1783   52.8324 H   0  0  0  0  0  0  0  0  0  0  0  0
   67.7227   30.1260   51.7838 H   0  0  0  0  0  0  0  0  0  0  0  0
   67.5213   31.9222   50.0136 H   0  0  0  0  0  0  0  0  0  0  0  0
   65.6330   33.4040   48.6330 H   0  0  0  0  0  0  0  0  0  0  0  0
   62.6317   33.9041   46.2100 H   0  0  0  0  0  0  0  0  0  0  0  0
   63.3327   32.3485   46.8358 H   0  0  0  0  0  0  0  0  0  0  0  0
   61.0761   32.0176   45.8968 H   0  0  0  0  0  0  0  0  0  0  0  0
   61.1506   31.6897   47.6901 H   0  0  0  0  0  0  0  0  0  0  0  0
   59.2502   31.9027   48.4960 H   0  0  0  0  0  0  0  0  0  0  0  0
   58.2957   33.4694   48.4837 H   0  0  0  0  0  0  0  0  0  0  0  0
   57.4090   31.1486   47.3764 H   0  0  0  0  0  0  0  0  0  0  0  0
   56.9410   32.8068   46.8278 H   0  0  0  0  0  0  0  0  0  0  0  0
  1  2  1  0
  2  3  1  0
  2  4  1  0
  2  5  1  0
  5  6  2  0
  6  7  1  0
  7  8  2  0
  8  9  1  0
  9 10  2  0
 10 11  1  0
 11 12  1  0
 12 13  1  0
 13 14  1  0
 14 15  1  0
 15 16  1  0
 16 17  1  0
 17 18  1  0
 18 19  2  0
 19 20  1  0
 20 21  2  0
 21 22  1  0
 22 23  2  0
 23 24  1  0
 24 25  2  0
 25 26  1  0
 17 27  1  0
 27 28  1  0
 14 29  1  0
 29 30  1  0
 10  5  1  0
 30 11  1  0
 28 14  1  0
 26 18  1  0
 25 20  1  0
  6 31  1  0
  7 32  1  0
  8 33  1  0
 12 34  1  0
 12 35  1  0
 13 36  1  0
 13 37  1  0
 15 38  1  0
 15 39  1  0
 16 40  1  0
 16 41  1  0
 17 42  1  0
 19 43  1  0
 22 44  1  0
 23 45  1  0
 24 46  1  0
 26 47  1  0
 27 48  1  0
 27 49  1  0
 28 50  1  0
 28 51  1  0
 29 52  1  0
 29 53  1  0
 30 54  1  0
 30 55  1  0
M  END
>  <UniqueID>  (21) 
21

>  <SMILES>  (21) 
FC(F)(F)c1cccnc1N1CCC2(CCC(c3cc4ncccc4[nH]3)CC2)CC1

>  <Energy>  (21) 
114.3695331131546

>  <Genealogy>  (21) 
FC(F)(F)c1cccnc1N1CCC2(CCC(c3cc4ncccc4[nH]3)CC2)CC1 (3D coordinates assigned)
FC(F)(F)c1cccnc1N1CCC2(CCC(c3cc4ncccc4[nH]3)CC2)CC1 (nonaromatic ring conformer: 114.3695331131546 kcal/mol)

>  <smiles>  (21) 
FC(F)(F)c1cccnc1N1CCC2(CCC(c3cc4ncccc4[nH]3)CC2)CC1

>  <score_type>  (21) 
oracle

>  <origin>  (21) 
adg

>  <m_score__min__energy>  (21) 
-8.7300000000000004

>  <m_primary>  (21) 
energy

$$$$
21:0
     RDKit          3D

 45 46  0  0  0  0  0  0  0  0999 V2000
   59.2860   29.5520   44.8530 C   0  0  0  0  0  0  0  0  0  0  0  0
   57.8500   29.4130   45.3830 C   0  0  0  0  0  0  0  0  0  0  0  0
   56.9280   30.5120   44.9990 N   0  0  0  0  0  0  0  0  0  0  0  0
   55.8890   30.1360   44.0150 C   0  0  0  0  0  0  0  0  0  0  0  0
   56.4560   29.7100   42.6590 C   0  0  0  0  0  0  0  0  0  0  0  0
   57.5200   31.8520   44.7800 C   0  0  0  0  0  0  0  0  0  0  0  0
   57.4280   32.7080   46.0440 C   0  0  0  0  0  0  0  0  0  0  0  0
   58.5170   33.6240   46.1020 O   0  0  0  0  0  0  0  0  0  0  0  0
   59.8090   33.2990   46.5370 C   0  0  0  0  0  0  0  0  0  0  0  0
   60.0830   32.1470   47.3000 C   0  0  0  0  0  0  0  0  0  0  0  0
   61.3900   31.8680   47.7090 C   0  0  0  0  0  0  0  0  0  0  0  0
   62.4390   32.7380   47.3800 C   0  0  0  0  0  0  0  0  0  0  0  0
   63.7780   32.4150   47.7880 N   0  0  0  0  0  0  0  0  0  0  0  0
   64.2980   32.6360   49.1070 C   0  0  0  0  0  0  0  0  0  0  0  0
   63.5660   32.6770   50.1670 N   0  0  0  0  0  0  0  0  0  0  0  0
   64.4020   32.8340   51.3500 C   0  0  0  0  0  0  0  0  0  0  0  0
   65.8430   32.8640   50.8090 C   0  0  0  0  0  0  0  0  0  0  0  0
   65.6820   32.7200   49.3730 N   0  0  0  0  0  0  0  0  0  0  0  0
   62.1680   33.8740   46.6000 C   0  0  0  0  0  0  0  0  0  0  0  0
   60.8610   34.1530   46.1900 C   0  0  0  0  0  0  0  0  0  0  0  0
   59.9845   29.6196   45.7000 H   0  0  0  0  0  0  0  0  0  0  0  0
   59.5371   28.6740   44.2398 H   0  0  0  0  0  0  0  0  0  0  0  0
   59.3641   30.4619   44.2398 H   0  0  0  0  0  0  0  0  0  0  0  0
   57.4347   28.4697   44.9987 H   0  0  0  0  0  0  0  0  0  0  0  0
   57.9239   29.4441   46.4801 H   0  0  0  0  0  0  0  0  0  0  0  0
   55.3064   29.2988   44.4270 H   0  0  0  0  0  0  0  0  0  0  0  0
   55.2712   31.0293   43.8404 H   0  0  0  0  0  0  0  0  0  0  0  0
   57.3266   29.0559   42.8147 H   0  0  0  0  0  0  0  0  0  0  0  0
   55.6850   29.1659   42.0938 H   0  0  0  0  0  0  0  0  0  0  0  0
   56.7640   30.6020   42.0938 H   0  0  0  0  0  0  0  0  0  0  0  0
   58.5776   31.7362   44.5008 H   0  0  0  0  0  0  0  0  0  0  0  0
   56.9607   32.3539   43.9767 H   0  0  0  0  0  0  0  0  0  0  0  0
   56.4820   33.2693   46.0339 H   0  0  0  0  0  0  0  0  0  0  0  0
   57.4670   32.0502   46.9248 H   0  0  0  0  0  0  0  0  0  0  0  0
   59.2653   31.4645   47.5749 H   0  0  0  0  0  0  0  0  0  0  0  0
   61.5971   30.9593   48.2932 H   0  0  0  0  0  0  0  0  0  0  0  0
   64.4170   31.9750   47.0870 H   0  0  0  0  0  0  0  0  0  0  0  0
   62.5290   32.5640   50.1890 H   0  0  0  0  0  0  0  0  0  0  0  0
   64.1638   33.7728   51.8715 H   0  0  0  0  0  0  0  0  0  0  0  0
   64.2479   32.0247   52.0789 H   0  0  0  0  0  0  0  0  0  0  0  0
   66.3328   33.8180   51.0538 H   0  0  0  0  0  0  0  0  0  0  0  0
   66.4755   32.0769   51.2452 H   0  0  0  0  0  0  0  0  0  0  0  0
   66.4510   32.6850   48.6670 H   0  0  0  0  0  0  0  0  0  0  0  0
   62.9881   34.5474   46.3103 H   0  0  0  0  0  0  0  0  0  0  0  0
   60.6581   35.0519   45.5893 H   0  0  0  0  0  0  0  0  0  0  0  0
  1  2  1  0
  2  3  1  0
  3  4  1  0
  4  5  1  0
  3  6  1  0
  6  7  1  0
  7  8  1  0
  8  9  1  0
  9 10  2  0
 10 11  1  0
 11 12  2  0
 12 13  1  0
 13 14  1  0
 14 15  2  0
 15 16  1  0
 16 17  1  0
 17 18  1  0
 12 19  1  0
 19 20  2  0
 20  9  1  0
 18 14  1  0
  1 21  1  0
  1 22  1  0
  1 23  1  0
  2 24  1  0
  2 25  1  0
  4 26  1  0
  4 27  1  0
  5 28  1  0
  5 29  1  0
  5 30  1  0
  6 31  1  0
  6 32  1  0
  7 33  1  0
  7 34  1  0
 10 35  1  0
 11 36  1  0
 13 37  1  0
 15 38  1  0
 16 39  1  0
 16 40  1  0
 17 41  1  0
 17 42  1  0
 18 43  1  0
 19 44  1  0
 20 45  1  0
M  CHG  1  15   1
M  END
>  <UniqueID>  (22) 
22

>  <SMILES>  (22) 
CCN(CC)CCOc1ccc(NC2=[NH+]CCN2)cc1

>  <Energy>  (22) 
62.90457949492216

>  <Genealogy>  (22) 
CCN(CC)CCOc1ccc(NC2=[NH+]CCN2)cc1 (protonated)
CCN(CC)CCOc1ccc(NC2=[NH+]CCN2)cc1 (3D coordinates assigned)
CCN(CC)CCOc1ccc(NC2=[NH+]CCN2)cc1 (nonaromatic ring conformer: 62.90457949492216 kcal/mol)

>  <smiles>  (22) 
CCN(CC)CCOc1ccc(NC2=NCCN2)cc1

>  <score_type>  (22) 
oracle

>  <origin>  (22) 
adg

>  <m_score__min__energy>  (22) 
-5.1900000000000004

>  <m_primary>  (22) 
energy

$$$$
22:0
     RDKit          3D

 32 34  0  0  0  0  0  0  0  0999 V2000
   62.9650   34.4490   48.9950 S   0  0  0  0  0  0  0  0  0  0  0  0
   62.6240   33.0110   48.2870 C   0  0  0  0  0  0  0  0  0  0  0  0
   63.5400   32.2670   47.6450 N   0  0  0  0  0  0  0  0  0  0  0  0
   62.9270   31.2090   47.1400 N   0  0  0  0  0  0  0  0  0  0  0  0
   61.6310   31.3140   47.5030 C   0  0  0  0  0  0  0  0  0  0  0  0
   60.5990   30.3550   47.0690 C   0  0  0  0  0  0  0  0  0  0  0  0
   60.3880   29.1790   47.8030 C   0  0  0  0  0  0  0  0  0  0  0  0
   59.4260   28.2530   47.3870 C   0  0  0  0  0  0  0  0  0  0  0  0
   58.6590   28.5050   46.2450 C   0  0  0  0  0  0  0  0  0  0  0  0
   57.3500   27.2370   45.6750 Br  0  0  0  0  0  0  0  0  0  0  0  0
   58.8490   29.6880   45.5230 C   0  0  0  0  0  0  0  0  0  0  0  0
   59.8120   30.6130   45.9360 C   0  0  0  0  0  0  0  0  0  0  0  0
   61.4010   32.4400   48.2250 N   0  0  0  0  0  0  0  0  0  0  0  0
   60.1110   33.0100   48.6340 C   0  0  0  0  0  0  0  0  0  0  0  0
   59.3270   33.4520   47.4270 C   0  0  0  0  0  0  0  0  0  0  0  0
   57.9810   33.0760   47.2680 C   0  0  0  0  0  0  0  0  0  0  0  0
   57.2730   33.4580   46.1250 C   0  0  0  0  0  0  0  0  0  0  0  0
   57.9000   34.2200   45.1350 C   0  0  0  0  0  0  0  0  0  0  0  0
   59.2360   34.6000   45.2860 C   0  0  0  0  0  0  0  0  0  0  0  0
   59.9490   34.2190   46.4270 C   0  0  0  0  0  0  0  0  0  0  0  0
   64.5560   32.4770   47.5270 H   0  0  0  0  0  0  0  0  0  0  0  0
   60.9809   28.9842   48.7088 H   0  0  0  0  0  0  0  0  0  0  0  0
   59.2725   27.3257   47.9585 H   0  0  0  0  0  0  0  0  0  0  0  0
   58.2401   29.8904   44.6296 H   0  0  0  0  0  0  0  0  0  0  0  0
   59.9535   31.5462   45.3712 H   0  0  0  0  0  0  0  0  0  0  0  0
   59.5355   32.2489   49.1814 H   0  0  0  0  0  0  0  0  0  0  0  0
   60.2943   33.8816   49.2796 H   0  0  0  0  0  0  0  0  0  0  0  0
   57.4835   32.4789   48.0464 H   0  0  0  0  0  0  0  0  0  0  0  0
   56.2214   33.1587   46.0044 H   0  0  0  0  0  0  0  0  0  0  0  0
   57.3412   34.5207   44.2365 H   0  0  0  0  0  0  0  0  0  0  0  0
   59.7278   35.1999   44.5060 H   0  0  0  0  0  0  0  0  0  0  0  0
   61.0005   34.5207   46.5423 H   0  0  0  0  0  0  0  0  0  0  0  0
  1  2  2  0
  2  3  1  0
  3  4  1  0
  4  5  2  0
  5  6  1  0
  6  7  2  0
  7  8  1  0
  8  9  2  0
  9 10  1  0
  9 11  1  0
 11 12  2  0
  5 13  1  0
 13 14  1  0
 14 15  1  0
 15 16  2  0
 16 17  1  0
 17 18  2  0
 18 19  1  0
 19 20  2  0
 13  2  1  0
 20 15  1  0
 12  6  1  0
  3 21  1  0
  7 22  1  0
  8 23  1  0
 11 24  1  0
 12 25  1  0
 14 26  1  0
 14 27  1  0
 16 28  1  0
 17 29  1  0
 18 30  1  0
 19 31  1  0
 20 32  1  0
M  END
>  <UniqueID>  (23) 
23

>  <SMILES>  (23) 
S=c1[nH]nc(-c2ccc(Br)cc2)n1Cc1ccccc1

>  <Energy>  (23) 
74.28747761578866

>  <Genealogy>  (23) 
S=c1[nH]nc(-c2ccc(Br)cc2)n1Cc1ccccc1 (3D coordinates assigned)
S=c1[nH]nc(-c2ccc(Br)cc2)n1Cc1ccccc1 (optimized conformer: 74.28747761578866 kcal/mol)

>  <smiles>  (23) 
S=c1[nH]nc(-c2ccc(Br)cc2)n1Cc1ccccc1

>  <score_type>  (23) 
oracle

>  <origin>  (23) 
adg

>  <m_score__min__energy>  (23) 
-7.2699999999999996

>  <m_primary>  (23) 
energy

$$$$
23:0
     RDKit          3D

 31 33  0  0  0  0  0  0  0  0999 V2000
   52.8730   23.3520   45.9310 C   0  0  0  0  0  0  0  0  0  0  0  0
   53.9630   24.2660   46.0100 O   0  0  0  0  0  0  0  0  0  0  0  0
   55.0600   24.2680   45.1350 C   0  0  0  0  0  0  0  0  0  0  0  0
   55.1890   23.3380   44.0830 C   0  0  0  0  0  0  0  0  0  0  0  0
   56.3050   23.3770   43.2400 C   0  0  0  0  0  0  0  0  0  0  0  0
   57.2940   24.3470   43.4260 C   0  0  0  0  0  0  0  0  0  0  0  0
   57.1660   25.2810   44.4560 C   0  0  0  0  0  0  0  0  0  0  0  0
   56.0650   25.2280   45.3220 C   0  0  0  0  0  0  0  0  0  0  0  0
   55.9810   26.1550   46.3650 O   0  0  0  0  0  0  0  0  0  0  0  0
   57.1180   26.9210   46.7660 C   0  0  0  0  0  0  0  0  0  0  0  0
   57.9340   27.3740   45.5390 C   0  0  2  0  0  0  0  0  0  0  0  0
   57.2640   28.5280   44.8460 C   0  0  0  0  0  0  0  0  0  0  0  0
   57.9330   29.4350   44.2220 N   0  0  0  0  0  0  0  0  0  0  0  0
   57.0240   30.4510   43.7050 C   0  0  0  0  0  0  0  0  0  0  0  0
   55.6270   30.0130   44.1700 C   0  0  0  0  0  0  0  0  0  0  0  0
   55.8720   28.7780   44.8860 N   0  0  0  0  0  0  0  0  0  0  0  0
   58.1260   26.2850   44.6280 O   0  0  0  0  0  0  0  0  0  0  0  0
   52.5484   23.0798   46.9462 H   0  0  0  0  0  0  0  0  0  0  0  0
   52.0374   23.8235   45.3929 H   0  0  0  0  0  0  0  0  0  0  0  0
   53.1916   22.4470   45.3929 H   0  0  0  0  0  0  0  0  0  0  0  0
   54.4090   22.5787   43.9244 H   0  0  0  0  0  0  0  0  0  0  0  0
   56.4044   22.6417   42.4280 H   0  0  0  0  0  0  0  0  0  0  0  0
   58.1710   24.3745   42.7626 H   0  0  0  0  0  0  0  0  0  0  0  0
   56.7778   27.8082   47.3202 H   0  0  0  0  0  0  0  0  0  0  0  0
   57.7587   26.2936   47.4031 H   0  0  0  0  0  0  0  0  0  0  0  0
   58.9202   27.7100   45.8918 H   0  0  0  0  0  0  0  0  0  0  0  0
   57.2756   31.4396   44.1166 H   0  0  0  0  0  0  0  0  0  0  0  0
   57.0848   30.5394   42.6102 H   0  0  0  0  0  0  0  0  0  0  0  0
   55.1801   30.7683   44.8332 H   0  0  0  0  0  0  0  0  0  0  0  0
   54.9210   29.8879   43.3358 H   0  0  0  0  0  0  0  0  0  0  0  0
   55.1430   28.1950   45.3540 H   0  0  0  0  0  0  0  0  0  0  0  0
  1  2  1  0
  2  3  1  0
  3  4  2  0
  4  5  1  0
  5  6  2  0
  6  7  1  0
  7  8  2  0
  8  9  1  0
  9 10  1  0
 10 11  1  0
 11 12  1  0
 12 13  2  0
 13 14  1  0
 14 15  1  0
 15 16  1  0
 11 17  1  0
  8  3  1  0
 16 12  1  0
 17  7  1  0
  1 18  1  0
  1 19  1  0
  1 20  1  0
  4 21  1  0
  5 22  1  0
  6 23  1  0
 10 24  1  0
 10 25  1  0
 11 26  1  1
 14 27  1  0
 14 28  1  0
 15 29  1  0
 15 30  1  0
 16 31  1  0
M  END
>  <UniqueID>  (24) 
24

>  <SMILES>  (24) 
COc1cccc2c1OC[C@H](C1=NCCN1)O2

>  <Energy>  (24) 
43.83985540934862

>  <Genealogy>  (24) 
COc1cccc2c1OC[C@H](C1=NCCN1)O2 (chirality)
COc1cccc2c1OC[C@H](C1=NCCN1)O2 (3D coordinates assigned)
COc1cccc2c1OC[C@H](C1=NCCN1)O2 (nonaromatic ring conformer: 43.83985540934862 kcal/mol)

>  <smiles>  (24) 
COc1cccc2c1OCC(C1=NCCN1)O2

>  <score_type>  (24) 
oracle

>  <origin>  (24) 
adg

>  <m_score__min__energy>  (24) 
-5.6699999999999999

>  <m_primary>  (24) 
energy

$$$$
24:0
     RDKit          3D

 62 65  0  0  0  0  0  0  0  0999 V2000
   58.5320   26.2720   47.2540 C   0  0  0  0  0  0  0  0  0  0  0  0
   58.3730   26.4470   45.7690 C   0  0  0  0  0  0  0  0  0  0  0  0
   57.8240   25.4070   45.0000 C   0  0  0  0  0  0  0  0  0  0  0  0
   57.6640   25.5530   43.6200 C   0  0  0  0  0  0  0  0  0  0  0  0
   58.0610   26.7350   42.9910 C   0  0  0  0  0  0  0  0  0  0  0  0
   58.6200   27.7720   43.7410 C   0  0  0  0  0  0  0  0  0  0  0  0
   58.7870   27.6350   45.1260 C   0  0  0  0  0  0  0  0  0  0  0  0
   59.3720   28.7140   45.8670 N   0  0  0  0  0  0  0  0  0  0  0  0
   60.7800   29.0500   45.6480 C   0  0  0  0  0  0  0  0  0  0  0  0
   61.1460   30.3390   46.3900 C   0  0  0  0  0  0  0  0  0  0  0  0
   60.7310   30.2590   47.8110 N   0  0  0  0  0  0  0  0  0  0  0  0
   61.1790   31.4270   48.6240 C   0  0  0  0  0  0  0  0  0  0  0  0
   61.8610   32.5860   47.8510 C   0  0  0  0  0  0  0  0  0  0  0  0
   61.0340   33.1170   46.6740 C   0  0  0  0  0  0  0  0  0  0  0  0
   60.1020   34.1760   47.1220 N   0  0  0  0  0  0  0  0  0  0  0  0
   58.9370   33.6280   47.8400 C   0  0  0  0  0  0  0  0  0  0  0  0
   58.1280   32.6730   46.9500 C   0  0  0  0  0  0  0  0  0  0  0  0
   58.0990   33.1360   45.5560 N   0  0  0  0  0  0  0  0  0  0  0  0
   57.5970   32.2420   44.5420 C   0  0  0  0  0  0  0  0  0  0  0  0
   57.9110   32.4260   43.1820 C   0  0  0  0  0  0  0  0  0  0  0  0
   57.4030   31.5350   42.2330 C   0  0  0  0  0  0  0  0  0  0  0  0
   56.5880   30.4770   42.6350 C   0  0  0  0  0  0  0  0  0  0  0  0
   56.2870   30.3260   43.9890 C   0  0  0  0  0  0  0  0  0  0  0  0
   56.7890   31.2020   44.9000 N   0  0  0  0  0  0  0  0  0  0  0  0
   58.4280   34.5340   45.2340 C   0  0  0  0  0  0  0  0  0  0  0  0
   59.6660   35.0510   46.0090 C   0  0  0  0  0  0  0  0  0  0  0  0
   59.2870   29.9250   48.0180 C   0  0  0  0  0  0  0  0  0  0  0  0
   58.5350   29.5550   46.7250 C   0  0  0  0  0  0  0  0  0  0  0  0
   57.8820   26.9874   47.7792 H   0  0  0  0  0  0  0  0  0  0  0  0
   58.2504   25.2463   47.5346 H   0  0  0  0  0  0  0  0  0  0  0  0
   59.5799   26.4543   47.5346 H   0  0  0  0  0  0  0  0  0  0  0  0
   57.5177   24.4703   45.4886 H   0  0  0  0  0  0  0  0  0  0  0  0
   57.2249   24.7363   43.0282 H   0  0  0  0  0  0  0  0  0  0  0  0
   57.9334   26.8492   41.9044 H   0  0  0  0  0  0  0  0  0  0  0  0
   58.9310   28.7017   43.2420 H   0  0  0  0  0  0  0  0  0  0  0  0
   61.4101   28.2279   46.0183 H   0  0  0  0  0  0  0  0  0  0  0  0
   60.9464   29.2001   44.5711 H   0  0  0  0  0  0  0  0  0  0  0  0
   62.2346   30.4887   46.3392 H   0  0  0  0  0  0  0  0  0  0  0  0
   60.6233   31.1822   45.9149 H   0  0  0  0  0  0  0  0  0  0  0  0
   61.2650   29.4450   48.2050 H   0  0  0  0  0  0  0  0  0  0  0  0
   60.2951   31.8390   49.1329 H   0  0  0  0  0  0  0  0  0  0  0  0
   61.9521   31.0326   49.2999 H   0  0  0  0  0  0  0  0  0  0  0  0
   62.0368   33.4145   48.5528 H   0  0  0  0  0  0  0  0  0  0  0  0
   62.7948   32.1844   47.4306 H   0  0  0  0  0  0  0  0  0  0  0  0
   61.7128   33.5318   45.9143 H   0  0  0  0  0  0  0  0  0  0  0  0
   60.4482   32.2872   46.2518 H   0  0  0  0  0  0  0  0  0  0  0  0
   59.2885   33.0796   48.7264 H   0  0  0  0  0  0  0  0  0  0  0  0
   58.2853   34.4648   48.1315 H   0  0  0  0  0  0  0  0  0  0  0  0
   58.5876   31.6743   46.9861 H   0  0  0  0  0  0  0  0  0  0  0  0
   57.0948   32.6406   47.3260 H   0  0  0  0  0  0  0  0  0  0  0  0
   58.5509   33.2642   42.8691 H   0  0  0  0  0  0  0  0  0  0  0  0
   57.6460   31.6681   41.1685 H   0  0  0  0  0  0  0  0  0  0  0  0
   56.1873   29.7701   41.8935 H   0  0  0  0  0  0  0  0  0  0  0  0
   55.6431   29.4977   44.3198 H   0  0  0  0  0  0  0  0  0  0  0  0
   58.6318   34.6081   44.1556 H   0  0  0  0  0  0  0  0  0  0  0  0
   57.5686   35.1539   45.5293 H   0  0  0  0  0  0  0  0  0  0  0  0
   60.5009   35.1462   45.2992 H   0  0  0  0  0  0  0  0  0  0  0  0
   59.3747   36.0108   46.4606 H   0  0  0  0  0  0  0  0  0  0  0  0
   59.2255   29.0718   48.7095 H   0  0  0  0  0  0  0  0  0  0  0  0
   58.8061   30.8305   48.4165 H   0  0  0  0  0  0  0  0  0  0  0  0
   57.6172   29.0070   46.9844 H   0  0  0  0  0  0  0  0  0  0  0  0
   58.2850   30.4787   46.1824 H   0  0  0  0  0  0  0  0  0  0  0  0
  1  2  1  0
  2  3  2  0
  3  4  1  0
  4  5  2  0
  5  6  1  0
  6  7  2  0
  7  8  1  0
  8  9  1  0
  9 10  1  0
 10 11  1  0
 11 12  1  0
 12 13  1  0
 13 14  1  0
 14 15  1  0
 15 16  1  0
 16 17  1  0
 17 18  1  0
 18 19  1  0
 19 20  2  0
 20 21  1  0
 21 22  2  0
 22 23  1  0
 23 24  2  0
 18 25  1  0
 25 26  1  0
 11 27  1  0
 27 28  1  0
  7  2  1  0
 28  8  1  0
 26 15  1  0
 24 19  1  0
  1 29  1  0
  1 30  1  0
  1 31  1  0
  3 32  1  0
  4 33  1  0
  5 34  1  0
  6 35  1  0
  9 36  1  0
  9 37  1  0
 10 38  1  0
 10 39  1  0
 11 40  1  0
 12 41  1  0
 12 42  1  0
 13 43  1  0
 13 44  1  0
 14 45  1  0
 14 46  1  0
 16 47  1  0
 16 48  1  0
 17 49  1  0
 17 50  1  0
 20 51  1  0
 21 52  1  0
 22 53  1  0
 23 54  1  0
 25 55  1  0
 25 56  1  0
 26 57  1  0
 26 58  1  0
 27 59  1  0
 27 60  1  0
 28 61  1  0
 28 62  1  0
M  CHG  1  11   1
M  END
>  <UniqueID>  (25) 
25

>  <SMILES>  (25) 
Cc1ccccc1N1CC[NH+](CCCN2CCN(c3ccccn3)CC2)CC1

>  <Energy>  (25) 
87.41182194801466

>  <Genealogy>  (25) 
Cc1ccccc1N1CC[NH+](CCCN2CCN(c3ccccn3)CC2)CC1 (protonated)
Cc1ccccc1N1CC[NH+](CCCN2CCN(c3ccccn3)CC2)CC1 (3D coordinates assigned)
Cc1ccccc1N1CC[NH+](CCCN2CCN(c3ccccn3)CC2)CC1 (nonaromatic ring conformer: 87.41182194801466 kcal/mol)

>  <smiles>  (25) 
Cc1ccccc1N1CCN(CCCN2CCN(c3ccccn3)CC2)CC1

>  <score_type>  (25) 
oracle

>  <origin>  (25) 
adg

>  <m_score__min__energy>  (25) 
-7.1900000000000004

>  <m_primary>  (25) 
energy

$$$$
25:0
     RDKit          3D

 46 48  0  0  0  0  0  0  0  0999 V2000
   59.2470   28.7550   46.5390 C   0  0  0  0  0  0  0  0  0  0  0  0
   58.3060   29.4580   45.6070 C   0  0  0  0  0  0  0  0  0  0  0  0
   57.0450   28.9110   45.3290 C   0  0  0  0  0  0  0  0  0  0  0  0
   56.1540   29.5850   44.4900 C   0  0  0  0  0  0  0  0  0  0  0  0
   56.5110   30.8160   43.9320 C   0  0  0  0  0  0  0  0  0  0  0  0
   57.7640   31.3840   44.2110 C   0  0  0  0  0  0  0  0  0  0  0  0
   58.1540   32.7170   43.6140 C   0  0  0  0  0  0  0  0  0  0  0  0
   58.0190   33.8290   44.5870 N   0  0  0  0  0  0  0  0  0  0  0  0
   59.3620   34.2110   45.0990 C   0  0  0  0  0  0  0  0  0  0  0  0
   59.2670   34.9550   46.4390 C   0  0  0  0  0  0  0  0  0  0  0  0
   58.6270   34.1250   47.4850 N   0  0  0  0  0  0  0  0  0  0  0  0
   59.5390   33.6770   48.5620 C   0  0  0  0  0  0  0  0  0  0  0  0
   60.8390   33.0810   48.0600 C   0  0  0  0  0  0  0  0  0  0  0  0
   62.0060   33.8650   48.0110 C   0  0  0  0  0  0  0  0  0  0  0  0
   63.2080   33.3180   47.5540 C   0  0  0  0  0  0  0  0  0  0  0  0
   63.2540   31.9890   47.1270 C   0  0  0  0  0  0  0  0  0  0  0  0
   62.0970   31.2080   47.1480 C   0  0  0  0  0  0  0  0  0  0  0  0
   60.8920   31.7510   47.6040 C   0  0  0  0  0  0  0  0  0  0  0  0
   57.7520   33.0510   46.9640 C   0  0  0  0  0  0  0  0  0  0  0  0
   57.0500   33.5010   45.6760 C   0  0  0  0  0  0  0  0  0  0  0  0
   58.6540   30.7030   45.0580 C   0  0  0  0  0  0  0  0  0  0  0  0
   58.9607   28.9689   47.5793 H   0  0  0  0  0  0  0  0  0  0  0  0
   59.1978   27.6707   46.3607 H   0  0  0  0  0  0  0  0  0  0  0  0
   60.2729   29.1097   46.3607 H   0  0  0  0  0  0  0  0  0  0  0  0
   56.7561   27.9471   45.7734 H   0  0  0  0  0  0  0  0  0  0  0  0
   55.1700   29.1463   44.2682 H   0  0  0  0  0  0  0  0  0  0  0  0
   55.8066   31.3422   43.2710 H   0  0  0  0  0  0  0  0  0  0  0  0
   59.2010   32.6631   43.2810 H   0  0  0  0  0  0  0  0  0  0  0  0
   57.4757   32.9210   42.7724 H   0  0  0  0  0  0  0  0  0  0  0  0
   57.6450   34.6660   44.0760 H   0  0  0  0  0  0  0  0  0  0  0  0
   59.9629   33.3003   45.2385 H   0  0  0  0  0  0  0  0  0  0  0  0
   59.8308   34.8833   44.3653 H   0  0  0  0  0  0  0  0  0  0  0  0
   60.2811   35.2244   46.7693 H   0  0  0  0  0  0  0  0  0  0  0  0
   58.6486   35.8522   46.2887 H   0  0  0  0  0  0  0  0  0  0  0  0
   59.7777   34.5436   49.1960 H   0  0  0  0  0  0  0  0  0  0  0  0
   59.0154   32.8814   49.1123 H   0  0  0  0  0  0  0  0  0  0  0  0
   61.9721   34.9158   48.3346 H   0  0  0  0  0  0  0  0  0  0  0  0
   64.1186   33.9346   47.5306 H   0  0  0  0  0  0  0  0  0  0  0  0
   64.2023   31.5575   46.7740 H   0  0  0  0  0  0  0  0  0  0  0  0
   62.1335   30.1634   46.8051 H   0  0  0  0  0  0  0  0  0  0  0  0
   59.9806   31.1351   47.6063 H   0  0  0  0  0  0  0  0  0  0  0  0
   58.3612   32.1602   46.7510 H   0  0  0  0  0  0  0  0  0  0  0  0
   56.9882   32.8186   47.7207 H   0  0  0  0  0  0  0  0  0  0  0  0
   56.3908   32.6909   45.3308 H   0  0  0  0  0  0  0  0  0  0  0  0
   56.4794   34.4132   45.9048 H   0  0  0  0  0  0  0  0  0  0  0  0
   59.6318   31.1486   45.2933 H   0  0  0  0  0  0  0  0  0  0  0  0
  1  2  1  0
  2  3  2  0
  3  4  1  0
  4  5  2  0
  5  6  1  0
  6  7  1  0
  7  8  1  0
  8  9  1  0
  9 10  1  0
 10 11  1  0
 11 12  1  0
 12 13  1  0
 13 14  2  0
 14 15  1  0
 15 16  2  0
 16 17  1  0
 17 18  2  0
 11 19  1  0
 19 20  1  0
  6 21  2  0
 21  2  1  0
 20  8  1  0
 18 13  1  0
  1 22  1  0
  1 23  1  0
  1 24  1  0
  3 25  1  0
  4 26  1  0
  5 27  1  0
  7 28  1  0
  7 29  1  0
  8 30  1  0
  9 31  1  0
  9 32  1  0
 10 33  1  0
 10 34  1  0
 12 35  1  0
 12 36  1  0
 14 37  1  0
 15 38  1  0
 16 39  1  0
 17 40  1  0
 18 41  1  0
 19 42  1  0
 19 43  1  0
 20 44  1  0
 20 45  1  0
 21 46  1  0
M  CHG  1   8   1
M  END
>  <UniqueID>  (26) 
26

>  <SMILES>  (26) 
Cc1cccc(C[NH+]2CCN(Cc3ccccc3)CC2)c1

>  <Energy>  (26) 
62.652223580727764

>  <Genealogy>  (26) 
Cc1cccc(C[NH+]2CCN(Cc3ccccc3)CC2)c1 (protonated)
Cc1cccc(C[NH+]2CCN(Cc3ccccc3)CC2)c1 (3D coordinates assigned)
Cc1cccc(C[NH+]2CCN(Cc3ccccc3)CC2)c1 (nonaromatic ring conformer: 62.652223580727764 kcal/mol)

>  <smiles>  (26) 
Cc1cccc(CN2CCN(Cc3ccccc3)CC2)c1

>  <score_type>  (26) 
oracle

>  <origin>  (26) 
adg

>  <m_score__min__energy>  (26) 
-6.0099999999999998

>  <m_primary>  (26) 
energy

$$$$
26:0
     RDKit          3D

 37 39  0  0  0  0  0  0  0  0999 V2000
   56.8710   34.5940   44.8710 C   0  0  0  0  0  0  0  0  0  0  0  0
   58.0560   34.2060   45.6380 N   0  0  0  0  0  0  0  0  0  0  0  0
   58.9370   35.1520   45.9720 N   0  0  0  0  0  0  0  0  0  0  0  0
   60.0560   34.8750   46.6830 C   0  0  0  0  0  0  0  0  0  0  0  0
   60.3230   33.5640   47.0880 C   0  0  0  0  0  0  0  0  0  0  0  0
   61.5840   33.2790   47.8150 C   0  0  0  0  0  0  0  0  0  0  0  0
   62.5890   32.5080   47.2130 C   0  0  0  0  0  0  0  0  0  0  0  0
   63.7730   32.2530   47.9090 C   0  0  0  0  0  0  0  0  0  0  0  0
   63.9470   32.7430   49.1670 N   0  0  0  0  0  0  0  0  0  0  0  0
   62.9830   33.4830   49.7780 C   0  0  0  0  0  0  0  0  0  0  0  0
   61.7850   33.7610   49.1170 C   0  0  0  0  0  0  0  0  0  0  0  0
   59.3920   32.5540   46.7590 C   0  0  0  0  0  0  0  0  0  0  0  0
   59.5750   31.1540   47.2190 C   0  0  0  0  0  0  0  0  0  0  0  0
   59.4580   30.8350   48.5800 C   0  0  0  0  0  0  0  0  0  0  0  0
   59.6640   29.5250   49.0150 C   0  0  0  0  0  0  0  0  0  0  0  0
   59.9750   28.5200   48.0960 C   0  0  0  0  0  0  0  0  0  0  0  0
   60.0650   28.8140   46.7230 C   0  0  0  0  0  0  0  0  0  0  0  0
   60.4520   27.7420   45.7360 C   0  0  0  0  0  0  0  0  0  0  0  0
   61.3870   28.2240   44.8360 F   0  0  0  0  0  0  0  0  0  0  0  0
   59.3480   27.3100   45.0220 F   0  0  0  0  0  0  0  0  0  0  0  0
   60.9940   26.6690   46.4190 F   0  0  0  0  0  0  0  0  0  0  0  0
   59.8830   30.1410   46.2960 C   0  0  0  0  0  0  0  0  0  0  0  0
   58.2480   32.9060   46.0180 C   0  0  0  0  0  0  0  0  0  0  0  0
   57.3910   32.0260   45.7210 O   0  0  0  0  0  0  0  0  0  0  0  0
   56.0578   34.8603   45.5622 H   0  0  0  0  0  0  0  0  0  0  0  0
   57.1119   35.4602   44.2372 H   0  0  0  0  0  0  0  0  0  0  0  0
   56.5529   33.7531   44.2372 H   0  0  0  0  0  0  0  0  0  0  0  0
   60.7559   35.6831   46.9422 H   0  0  0  0  0  0  0  0  0  0  0  0
   62.4458   32.1065   46.1989 H   0  0  0  0  0  0  0  0  0  0  0  0
   64.5672   31.6544   47.4390 H   0  0  0  0  0  0  0  0  0  0  0  0
   64.8380   32.5440   49.6740 H   0  0  0  0  0  0  0  0  0  0  0  0
   63.1479   33.8638   50.7967 H   0  0  0  0  0  0  0  0  0  0  0  0
   61.0035   34.3544   49.6142 H   0  0  0  0  0  0  0  0  0  0  0  0
   59.2030   31.6202   49.3070 H   0  0  0  0  0  0  0  0  0  0  0  0
   59.5812   29.2831   50.0849 H   0  0  0  0  0  0  0  0  0  0  0  0
   60.1506   27.4927   48.4478 H   0  0  0  0  0  0  0  0  0  0  0  0
   59.9828   30.3884   45.2288 H   0  0  0  0  0  0  0  0  0  0  0  0
  1  2  1  0
  2  3  1  0
  3  4  2  0
  4  5  1  0
  5  6  1  0
  6  7  2  0
  7  8  1  0
  8  9  2  0
  9 10  1  0
 10 11  2  0
  5 12  2  0
 12 13  1  0
 13 14  2  0
 14 15  1  0
 15 16  2  0
 16 17  1  0
 17 18  1  0
 18 19  1  0
 18 20  1  0
 18 21  1  0
 17 22  2  0
 12 23  1  0
 23 24  2  0
 23  2  1  0
 11  6  1  0
 22 13  1  0
  1 25  1  0
  1 26  1  0
  1 27  1  0
  4 28  1  0
  7 29  1  0
  8 30  1  0
  9 31  1  0
 10 32  1  0
 11 33  1  0
 14 34  1  0
 15 35  1  0
 16 36  1  0
 22 37  1  0
M  CHG  1   9   1
M  END
>  <UniqueID>  (27) 
27

>  <SMILES>  (27) 
Cn1ncc(-c2cc[nH+]cc2)c(-c2cccc(C(F)(F)F)c2)c1=O

>  <Energy>  (27) 
55.09924155414777

>  <Genealogy>  (27) 
Cn1ncc(-c2cc[nH+]cc2)c(-c2cccc(C(F)(F)F)c2)c1=O (protonated)
Cn1ncc(-c2cc[nH+]cc2)c(-c2cccc(C(F)(F)F)c2)c1=O (3D coordinates assigned)
Cn1ncc(-c2cc[nH+]cc2)c(-c2cccc(C(F)(F)F)c2)c1=O (optimized conformer: 55.09924155414777 kcal/mol)

>  <smiles>  (27) 
Cn1ncc(-c2ccncc2)c(-c2cccc(C(F)(F)F)c2)c1=O

>  <score_type>  (27) 
oracle

>  <origin>  (27) 
adg

>  <m_score__min__energy>  (27) 
-5.2400000000000002

>  <m_primary>  (27) 
energy

$$$$
27:0
     RDKit          3D

 56 59  0  0  1  0  0  0  0  0999 V2000
   57.5680   21.8320   45.6080 C   0  0  0  0  0  0  0  0  0  0  0  0
   57.4200   22.6860   46.7320 O   0  0  0  0  0  0  0  0  0  0  0  0
   57.6500   24.0290   46.5500 C   0  0  0  0  0  0  0  0  0  0  0  0
   58.8650   24.4560   46.0300 C   0  0  0  0  0  0  0  0  0  0  0  0
   59.0970   25.7990   45.8480 C   0  0  0  0  0  0  0  0  0  0  0  0
   58.1630   26.7610   46.1610 C   0  0  0  0  0  0  0  0  0  0  0  0
   58.3820   28.1900   45.9780 C   0  0  0  0  0  0  0  0  0  0  0  0
   59.2110   28.9400   46.7750 C   0  0  0  0  0  0  0  0  0  0  0  0
   59.3690   30.2860   46.5410 C   0  0  0  0  0  0  0  0  0  0  0  0
   60.1390   30.9470   47.2960 N   0  0  0  0  0  0  0  0  0  0  0  0
   61.5210   30.7370   47.5360 C   0  0  0  0  0  0  0  0  0  0  0  0
   62.1990   32.0020   47.9750 C   0  0  1  0  0  0  0  0  0  0  0  0
   63.6850   32.0110   47.8510 C   0  0  0  0  0  0  0  0  0  0  0  0
   63.9230   33.5320   47.8240 C   0  0  0  0  0  0  0  0  0  0  0  0
   62.8840   33.8440   46.7340 C   0  0  0  0  0  0  0  0  0  0  0  0
   61.7450   33.0560   47.0550 N   0  0  0  0  0  0  0  0  0  0  0  0
   60.6190   33.7480   47.5930 C   0  0  0  0  0  0  0  0  0  0  0  0
   59.4640   33.8160   46.7010 C   0  0  0  0  0  0  0  0  0  0  0  0
   58.1460   33.7680   47.0930 C   0  0  0  0  0  0  0  0  0  0  0  0
   57.0850   33.8410   46.2140 C   0  0  0  0  0  0  0  0  0  0  0  0
   57.3630   33.9700   44.8740 C   0  0  0  0  0  0  0  0  0  0  0  0
   58.6850   34.0170   44.4990 C   0  0  0  0  0  0  0  0  0  0  0  0
   59.7110   33.9440   45.3660 N   0  0  0  0  0  0  0  0  0  0  0  0
   58.7380   30.9290   45.5440 N   0  0  0  0  0  0  0  0  0  0  0  0
   57.9250   30.1790   44.7670 C   0  0  0  0  0  0  0  0  0  0  0  0
   57.2010   30.8480   43.6460 C   0  0  0  0  0  0  0  0  0  0  0  0
   57.7540   28.8660   44.9730 N   0  0  0  0  0  0  0  0  0  0  0  0
   56.9580   26.3350   46.6760 C   0  0  0  0  0  0  0  0  0  0  0  0
   56.7040   24.9840   46.8680 C   0  0  0  0  0  0  0  0  0  0  0  0
   57.7465   20.8022   45.9509 H   0  0  0  0  0  0  0  0  0  0  0  0
   56.6512   21.8626   45.0010 H   0  0  0  0  0  0  0  0  0  0  0  0
   58.4211   22.1694   45.0010 H   0  0  0  0  0  0  0  0  0  0  0  0
   59.6397   23.7216   45.7644 H   0  0  0  0  0  0  0  0  0  0  0  0
   60.0662   26.1171   45.4364 H   0  0  0  0  0  0  0  0  0  0  0  0
   59.7517   28.4618   47.6051 H   0  0  0  0  0  0  0  0  0  0  0  0
   61.6362   29.9774   48.3233 H   0  0  0  0  0  0  0  0  0  0  0  0
   61.9881   30.4013   46.5984 H   0  0  0  0  0  0  0  0  0  0  0  0
   61.9482   32.1297   49.0384 H   0  0  0  0  0  0  0  0  0  0  0  0
   64.1726   31.5337   48.7138 H   0  0  0  0  0  0  0  0  0  0  0  0
   64.0885   31.4566   46.9909 H   0  0  0  0  0  0  0  0  0  0  0  0
   63.6885   34.0150   48.7841 H   0  0  0  0  0  0  0  0  0  0  0  0
   64.9532   33.8735   47.6448 H   0  0  0  0  0  0  0  0  0  0  0  0
   62.6263   34.9133   46.7439 H   0  0  0  0  0  0  0  0  0  0  0  0
   63.2673   33.6149   45.7287 H   0  0  0  0  0  0  0  0  0  0  0  0
   60.3101   33.2353   48.5159 H   0  0  0  0  0  0  0  0  0  0  0  0
   60.9428   34.7853   47.7634 H   0  0  0  0  0  0  0  0  0  0  0  0
   57.9261   33.6658   48.1659 H   0  0  0  0  0  0  0  0  0  0  0  0
   56.0469   33.7972   46.5750 H   0  0  0  0  0  0  0  0  0  0  0  0
   56.5567   34.0334   44.1284 H   0  0  0  0  0  0  0  0  0  0  0  0
   58.9170   34.1202   43.4287 H   0  0  0  0  0  0  0  0  0  0  0  0
   58.8410   31.9420   45.3470 H   0  0  0  0  0  0  0  0  0  0  0  0
   56.4512   31.5409   44.0555 H   0  0  0  0  0  0  0  0  0  0  0  0
   57.9187   31.4077   43.0282 H   0  0  0  0  0  0  0  0  0  0  0  0
   56.6996   30.0884   43.0282 H   0  0  0  0  0  0  0  0  0  0  0  0
   56.1876   27.0750   46.9383 H   0  0  0  0  0  0  0  0  0  0  0  0
   55.7340   24.6688   47.2799 H   0  0  0  0  0  0  0  0  0  0  0  0
  1  2  1  0
  2  3  1  0
  3  4  2  0
  4  5  1  0
  5  6  2  0
  6  7  1  0
  7  8  2  0
  8  9  1  0
  9 10  2  0
 10 11  1  0
 11 12  1  0
 12 13  1  0
 13 14  1  0
 14 15  1  0
 15 16  1  0
 16 17  1  0
 17 18  1  0
 18 19  2  0
 19 20  1  0
 20 21  2  0
 21 22  1  0
 22 23  2  0
  9 24  1  0
 24 25  1  0
 25 26  1  0
 25 27  2  0
  6 28  1  0
 28 29  2  0
 29  3  1  0
 27  7  1  0
 16 12  1  0
 23 18  1  0
  1 30  1  0
  1 31  1  0
  1 32  1  0
  4 33  1  0
  5 34  1  0
  8 35  1  0
 11 36  1  0
 11 37  1  0
 12 38  1  1
 13 39  1  0
 13 40  1  0
 14 41  1  0
 14 42  1  0
 15 43  1  0
 15 44  1  0
 17 45  1  0
 17 46  1  0
 19 47  1  0
 20 48  1  0
 21 49  1  0
 22 50  1  0
 24 51  1  0
 26 52  1  0
 26 53  1  0
 26 54  1  0
 28 55  1  0
 29 56  1  0
M  END
>  <smiles>  (28) 
COc1ccc(-c2cc(=NCC3CCCN3Cc3ccccn3)[nH]c(C)n2)cc1

>  <score_type>  (28) 
oracle

>  <origin>  (28) 
adg

>  <m_score__min__energy>  (28) 
-8.7899999999999991

>  <m_primary>  (28) 
energy

$$$$
28:0
     RDKit          3D

 73 76  0  0  0  0  0  0  0  0999 V2000
   55.5210   28.9720   45.2430 O   0  0  0  0  0  0  0  0  0  0  0  0
   56.5230   29.1010   44.5460 C   0  0  0  0  0  0  0  0  0  0  0  0
   56.4410   29.9770   43.3180 C   0  0  0  0  0  0  0  0  0  0  0  0
   57.0380   31.3740   43.5610 C   0  0  0  0  0  0  0  0  0  0  0  0
   58.5600   31.3500   43.7840 C   0  0  0  0  0  0  0  0  0  0  0  0
   58.8840   32.0230   45.0700 N   0  0  0  0  0  0  0  0  0  0  0  0
   57.7570   32.8130   45.6510 C   0  0  1  0  0  0  0  0  0  0  0  0
   58.0930   33.2410   47.0660 C   0  0  0  0  0  0  0  0  0  0  0  0
   58.9610   34.2450   47.2680 C   0  0  0  0  0  0  0  0  0  0  0  0
   59.6420   34.9040   46.0920 C   0  0  0  0  0  0  0  0  0  0  0  0
   58.6930   35.0910   44.8800 C   0  0  0  0  0  0  0  0  0  0  0  0
   57.4710   34.1410   44.8960 C   0  0  0  0  0  0  0  0  0  0  0  0
   59.4620   30.8180   46.2190 S   0  0  0  0  0  0  0  0  0  0  0  0
   58.3440   30.3480   47.1100 O   0  0  0  0  0  0  0  0  0  0  0  0
   60.0140   29.6280   45.4770 O   0  0  0  0  0  0  0  0  0  0  0  0
   60.7050   31.5040   47.2630 C   0  0  0  0  0  0  0  0  0  0  0  0
   60.7390   31.1450   48.6200 C   0  0  0  0  0  0  0  0  0  0  0  0
   61.6930   31.7080   49.4700 C   0  0  0  0  0  0  0  0  0  0  0  0
   62.6160   32.6360   48.9720 C   0  0  0  0  0  0  0  0  0  0  0  0
   63.8070   33.3470   50.0440 Cl  0  0  0  0  0  0  0  0  0  0  0  0
   62.5860   32.9950   47.6200 C   0  0  0  0  0  0  0  0  0  0  0  0
   61.6330   32.4300   46.7650 C   0  0  0  0  0  0  0  0  0  0  0  0
   57.7570   28.4210   44.9120 N   0  0  0  0  0  0  0  0  0  0  0  0
   57.4840   27.4330   45.9850 C   0  0  0  0  0  0  0  0  0  0  0  0
   58.4060   26.2070   45.9070 C   0  0  0  0  0  0  0  0  0  0  0  0
   58.2720   25.4970   44.6120 N   0  0  0  0  0  0  0  0  0  0  0  0
   57.4560   24.2520   44.6940 C   0  0  0  0  0  0  0  0  0  0  0  0
   56.7150   23.9040   43.3690 C   0  0  0  0  0  0  0  0  0  0  0  0
   56.1960   22.4660   43.4020 C   0  0  0  0  0  0  0  0  0  0  0  0
   57.3480   21.4450   43.5020 C   0  0  0  0  0  0  0  0  0  0  0  0
   58.6080   22.0020   44.1980 C   0  0  0  0  0  0  0  0  0  0  0  0
   58.2630   23.0490   45.2680 C   0  0  0  0  0  0  0  0  0  0  0  0
   57.9680   26.3820   43.4600 C   0  0  0  0  0  0  0  0  0  0  0  0
   58.4130   27.8340   43.7150 C   0  0  0  0  0  0  0  0  0  0  0  0
   56.9939   29.4927   42.4996 H   0  0  0  0  0  0  0  0  0  0  0  0
   55.3784   30.1031   43.0629 H   0  0  0  0  0  0  0  0  0  0  0  0
   56.8225   32.0039   42.6853 H   0  0  0  0  0  0  0  0  0  0  0  0
   56.5786   31.7718   44.4779 H   0  0  0  0  0  0  0  0  0  0  0  0
   58.9091   30.3074   43.8178 H   0  0  0  0  0  0  0  0  0  0  0  0
   59.0596   31.8778   42.9583 H   0  0  0  0  0  0  0  0  0  0  0  0
   56.8860   32.1443   45.5865 H   0  0  0  0  0  0  0  0  0  0  0  0
   57.6279   32.7315   47.9228 H   0  0  0  0  0  0  0  0  0  0  0  0
   59.1764   34.5879   48.2907 H   0  0  0  0  0  0  0  0  0  0  0  0
   60.0103   35.8917   46.4065 H   0  0  0  0  0  0  0  0  0  0  0  0
   60.4641   34.2467   45.7725 H   0  0  0  0  0  0  0  0  0  0  0  0
   58.3269   36.1283   44.8821 H   0  0  0  0  0  0  0  0  0  0  0  0
   59.2738   34.8535   43.9765 H   0  0  0  0  0  0  0  0  0  0  0  0
   56.6325   34.6537   45.3900 H   0  0  0  0  0  0  0  0  0  0  0  0
   57.2327   33.8867   43.8527 H   0  0  0  0  0  0  0  0  0  0  0  0
   60.0128   30.4189   49.0142 H   0  0  0  0  0  0  0  0  0  0  0  0
   61.7196   31.4223   50.5319 H   0  0  0  0  0  0  0  0  0  0  0  0
   63.3125   33.7223   47.2286 H   0  0  0  0  0  0  0  0  0  0  0  0
   61.6118   32.7123   45.7021 H   0  0  0  0  0  0  0  0  0  0  0  0
   58.4220   29.1310   45.3000 H   0  0  0  0  0  0  0  0  0  0  0  0
   57.6296   27.9219   46.9596 H   0  0  0  0  0  0  0  0  0  0  0  0
   56.4496   27.0808   45.8585 H   0  0  0  0  0  0  0  0  0  0  0  0
   59.4484   26.5377   46.0253 H   0  0  0  0  0  0  0  0  0  0  0  0
   58.1177   25.5115   46.7090 H   0  0  0  0  0  0  0  0  0  0  0  0
   56.6590   24.4688   45.4205 H   0  0  0  0  0  0  0  0  0  0  0  0
   55.8662   24.5914   43.2386 H   0  0  0  0  0  0  0  0  0  0  0  0
   57.4208   24.0063   42.5315 H   0  0  0  0  0  0  0  0  0  0  0  0
   55.5361   22.3452   44.2738 H   0  0  0  0  0  0  0  0  0  0  0  0
   55.6510   22.2769   42.4654 H   0  0  0  0  0  0  0  0  0  0  0  0
   56.9923   20.5739   44.0718 H   0  0  0  0  0  0  0  0  0  0  0  0
   57.6368   21.1824   42.4736 H   0  0  0  0  0  0  0  0  0  0  0  0
   59.1458   21.1702   44.6763 H   0  0  0  0  0  0  0  0  0  0  0  0
   59.2286   22.4917   43.4331 H   0  0  0  0  0  0  0  0  0  0  0  0
   57.6632   22.5654   46.0531 H   0  0  0  0  0  0  0  0  0  0  0  0
   59.2102   23.4433   45.6646 H   0  0  0  0  0  0  0  0  0  0  0  0
   58.4922   26.0008   42.5712 H   0  0  0  0  0  0  0  0  0  0  0  0
   56.8783   26.3820   43.3097 H   0  0  0  0  0  0  0  0  0  0  0  0
   59.5026   27.8492   43.8652 H   0  0  0  0  0  0  0  0  0  0  0  0
   58.1204   28.4348   42.8413 H   0  0  0  0  0  0  0  0  0  0  0  0
  1  2  2  0
  2  3  1  0
  3  4  1  0
  4  5  1  0
  5  6  1  0
  6  7  1  0
  7  8  1  0
  8  9  2  0
  9 10  1  0
 10 11  1  0
 11 12  1  0
  6 13  1  0
 13 14  2  0
 13 15  2  0
 13 16  1  0
 16 17  2  0
 17 18  1  0
 18 19  2  0
 19 20  1  0
 19 21  1  0
 21 22  2  0
  2 23  1  0
 23 24  1  0
 24 25  1  0
 25 26  1  0
 26 27  1  0
 27 28  1  0
 28 29  1  0
 29 30  1  0
 30 31  1  0
 31 32  1  0
 26 33  1  0
 33 34  1  0
 12  7  1  0
 22 16  1  0
 34 23  1  0
 32 27  1  0
  3 35  1  0
  3 36  1  0
  4 37  1  0
  4 38  1  0
  5 39  1  0
  5 40  1  0
  7 41  1  1
  8 42  1  0
  9 43  1  0
 10 44  1  0
 10 45  1  0
 11 46  1  0
 11 47  1  0
 12 48  1  0
 12 49  1  0
 17 50  1  0
 18 51  1  0
 21 52  1  0
 22 53  1  0
 23 54  1  0
 24 55  1  0
 24 56  1  0
 25 57  1  0
 25 58  1  0
 27 59  1  0
 28 60  1  0
 28 61  1  0
 29 62  1  0
 29 63  1  0
 30 64  1  0
 30 65  1  0
 31 66  1  0
 31 67  1  0
 32 68  1  0
 32 69  1  0
 33 70  1  0
 33 71  1  0
 34 72  1  0
 34 73  1  0
M  CHG  1  23   1
M  END
>  <UniqueID>  (29) 
28

>  <SMILES>  (29) 
O=C(CCCN([C@H]1C=CCCC1)S(=O)(=O)c1ccc(Cl)cc1)[NH+]1CCN(C2CCCCC2)CC1

>  <Energy>  (29) 
98.61155643171982

>  <Genealogy>  (29) 
O=C(CCCN(C1C=CCCC1)S(=O)(=O)c1ccc(Cl)cc1)[NH+]1CCN(C2CCCCC2)CC1 (protonated)
O=C(CCCN([C@H]1C=CCCC1)S(=O)(=O)c1ccc(Cl)cc1)[NH+]1CCN(C2CCCCC2)CC1 (chirality)
O=C(CCCN([C@H]1C=CCCC1)S(=O)(=O)c1ccc(Cl)cc1)[NH+]1CCN(C2CCCCC2)CC1 (3D coordinates assigned)
O=C(CCCN([C@H]1C=CCCC1)S(=O)(=O)c1ccc(Cl)cc1)[NH+]1CCN(C2CCCCC2)CC1 (nonaromatic ring conformer: 98.61155643171982 kcal/mol)

>  <smiles>  (29) 
O=C(CCCN(C1C=CCCC1)S(=O)(=O)c1ccc(Cl)cc1)N1CCN(C2CCCCC2)CC1

>  <score_type>  (29) 
oracle

>  <origin>  (29) 
adg

>  <m_score__min__energy>  (29) 
-9.0099999999999998

>  <m_primary>  (29) 
energy

$$$$
29:0
     RDKit          3D

 59 63  0  0  0  0  0  0  0  0999 V2000
   60.5530   34.0680   45.6250 O   0  0  0  0  0  0  0  0  0  0  0  0
   60.5010   33.3400   46.6570 C   0  0  0  0  0  0  0  0  0  0  0  0
   59.1630   32.7670   47.0700 C   0  0  1  0  0  0  0  0  0  0  0  0
   58.0770   33.8670   47.0910 C   0  0  0  0  0  0  0  0  0  0  0  0
   57.1810   33.6350   45.8700 C   0  0  0  0  0  0  0  0  0  0  0  0
   57.5700   32.2840   45.4240 C   0  0  0  0  0  0  0  0  0  0  0  0
   56.9380   31.6310   44.5520 O   0  0  0  0  0  0  0  0  0  0  0  0
   58.7120   31.7750   46.0950 N   0  0  0  0  0  0  0  0  0  0  0  0
   59.0460   30.3420   46.1280 C   0  0  0  0  0  0  0  0  0  0  0  0
   57.8290   29.5130   46.5960 C   0  0  0  0  0  0  0  0  0  0  0  0
   58.2330   28.2670   47.4100 C   0  0  0  0  0  0  0  0  0  0  0  0
   59.4840   27.6440   46.9220 N   0  0  0  0  0  0  0  0  0  0  0  0
   59.3290   26.9790   45.6080 C   0  0  0  0  0  0  0  0  0  0  0  0
   58.1720   26.0150   45.6210 C   0  0  0  0  0  0  0  0  0  0  0  0
   58.4040   24.6140   45.6080 C   0  0  0  0  0  0  0  0  0  0  0  0
   57.3240   23.7130   45.6000 C   0  0  0  0  0  0  0  0  0  0  0  0
   56.0370   24.2400   45.6040 C   0  0  0  0  0  0  0  0  0  0  0  0
   55.8080   25.5780   45.6160 C   0  0  0  0  0  0  0  0  0  0  0  0
   56.8470   26.5040   45.6230 C   0  0  0  0  0  0  0  0  0  0  0  0
   54.4470   25.8130   45.6160 O   0  0  0  0  0  0  0  0  0  0  0  0
   53.7790   24.5430   45.6020 C   0  0  0  0  0  0  0  0  0  0  0  0
   54.8310   23.5670   45.5970 O   0  0  0  0  0  0  0  0  0  0  0  0
   60.6510   28.5690   46.9590 C   0  0  0  0  0  0  0  0  0  0  0  0
   60.2760   30.0630   47.0040 C   0  0  0  0  0  0  0  0  0  0  0  0
   61.7030   33.1070   47.4250 N   0  0  0  0  0  0  0  0  0  0  0  0
   63.0070   33.1860   46.7510 C   0  0  0  0  0  0  0  0  0  0  0  0
   64.1160   33.4950   47.7600 C   0  0  0  0  0  0  0  0  0  0  0  0
   64.0620   32.6020   48.8540 O   0  0  0  0  0  0  0  0  0  0  0  0
   62.8710   32.8220   49.5810 C   0  0  0  0  0  0  0  0  0  0  0  0
   61.6430   32.4600   48.7440 C   0  0  0  0  0  0  0  0  0  0  0  0
   59.2993   32.3235   48.0674 H   0  0  0  0  0  0  0  0  0  0  0  0
   57.4836   33.7944   48.0143 H   0  0  0  0  0  0  0  0  0  0  0  0
   58.5316   34.8682   47.0599 H   0  0  0  0  0  0  0  0  0  0  0  0
   56.1173   33.6683   46.1483 H   0  0  0  0  0  0  0  0  0  0  0  0
   57.3046   34.4009   45.0902 H   0  0  0  0  0  0  0  0  0  0  0  0
   59.3031   30.0345   45.1036 H   0  0  0  0  0  0  0  0  0  0  0  0
   57.1895   30.1509   47.2238 H   0  0  0  0  0  0  0  0  0  0  0  0
   57.2998   29.1643   45.6969 H   0  0  0  0  0  0  0  0  0  0  0  0
   58.3743   28.5636   48.4598 H   0  0  0  0  0  0  0  0  0  0  0  0
   57.4287   27.5247   47.3005 H   0  0  0  0  0  0  0  0  0  0  0  0
   59.1510   27.7434   44.8373 H   0  0  0  0  0  0  0  0  0  0  0  0
   60.2493   26.4172   45.3902 H   0  0  0  0  0  0  0  0  0  0  0  0
   59.4351   24.2310   45.6042 H   0  0  0  0  0  0  0  0  0  0  0  0
   57.4920   22.6259   45.5909 H   0  0  0  0  0  0  0  0  0  0  0  0
   56.6423   27.5848   45.6299 H   0  0  0  0  0  0  0  0  0  0  0  0
   53.1497   24.4278   46.4968 H   0  0  0  0  0  0  0  0  0  0  0  0
   53.1142   24.4367   44.7321 H   0  0  0  0  0  0  0  0  0  0  0  0
   61.2465   28.3364   47.8541 H   0  0  0  0  0  0  0  0  0  0  0  0
   61.2066   28.4122   46.0226 H   0  0  0  0  0  0  0  0  0  0  0  0
   60.0514   30.3475   48.0426 H   0  0  0  0  0  0  0  0  0  0  0  0
   61.1229   30.6513   46.6211 H   0  0  0  0  0  0  0  0  0  0  0  0
   63.2204   32.2239   46.2623 H   0  0  0  0  0  0  0  0  0  0  0  0
   62.9721   33.9924   46.0036 H   0  0  0  0  0  0  0  0  0  0  0  0
   65.0927   33.3982   47.2633 H   0  0  0  0  0  0  0  0  0  0  0  0
   63.9767   34.5200   48.1342 H   0  0  0  0  0  0  0  0  0  0  0  0
   62.8836   32.2006   50.4886 H   0  0  0  0  0  0  0  0  0  0  0  0
   62.8134   33.8884   49.8448 H   0  0  0  0  0  0  0  0  0  0  0  0
   61.6068   31.3689   48.6095 H   0  0  0  0  0  0  0  0  0  0  0  0
   60.7420   32.8104   49.2687 H   0  0  0  0  0  0  0  0  0  0  0  0
  1  2  2  0
  2  3  1  0
  3  4  1  0
  4  5  1  0
  5  6  1  0
  6  7  2  0
  6  8  1  0
  8  9  1  0
  9 10  1  0
 10 11  1  0
 11 12  1  0
 12 13  1  0
 13 14  1  0
 14 15  2  0
 15 16  1  0
 16 17  2  0
 17 18  1  0
 18 19  2  0
 18 20  1  0
 20 21  1  0
 21 22  1  0
 12 23  1  0
 23 24  1  0
  2 25  1  0
 25 26  1  0
 26 27  1  0
 27 28  1  0
 28 29  1  0
 29 30  1  0
  8  3  1  0
 24  9  1  0
 30 25  1  0
 19 14  1  0
 22 17  1  0
  3 31  1  1
  4 32  1  0
  4 33  1  0
  5 34  1  0
  5 35  1  0
  9 36  1  0
 10 37  1  0
 10 38  1  0
 11 39  1  0
 11 40  1  0
 13 41  1  0
 13 42  1  0
 15 43  1  0
 16 44  1  0
 19 45  1  0
 21 46  1  0
 21 47  1  0
 23 48  1  0
 23 49  1  0
 24 50  1  0
 24 51  1  0
 26 52  1  0
 26 53  1  0
 27 54  1  0
 27 55  1  0
 29 56  1  0
 29 57  1  0
 30 58  1  0
 30 59  1  0
M  END
>  <UniqueID>  (30) 
29

>  <SMILES>  (30) 
O=C([C@H]1CCC(=O)N1C1CCN(Cc2ccc3c(c2)OCO3)CC1)N1CCOCC1

>  <Energy>  (30) 
106.60172157619361

>  <Genealogy>  (30) 
O=C([C@H]1CCC(=O)N1C1CCN(Cc2ccc3c(c2)OCO3)CC1)N1CCOCC1 (chirality)
O=C([C@H]1CCC(=O)N1C1CCN(Cc2ccc3c(c2)OCO3)CC1)N1CCOCC1 (3D coordinates assigned)
O=C([C@H]1CCC(=O)N1C1CCN(Cc2ccc3c(c2)OCO3)CC1)N1CCOCC1 (nonaromatic ring conformer: 106.60172157619361 kcal/mol)

>  <smiles>  (30) 
O=C(C1CCC(=O)N1C1CCN(Cc2ccc3c(c2)OCO3)CC1)N1CCOCC1

>  <score_type>  (30) 
oracle

>  <origin>  (30) 
adg

>  <m_score__min__energy>  (30) 
-9.0299999999999994

>  <m_primary>  (30) 
energy

$$$$
30:0
     RDKit          3D

 24 25  0  0  0  0  0  0  0  0999 V2000
   55.8900   29.7190   42.6210 C   0  0  0  0  0  0  0  0  0  0  0  0
   55.8590   30.0780   44.4040 S   0  0  0  0  0  0  0  0  0  0  0  0
   57.5260   29.4630   44.6700 C   0  0  0  0  0  0  0  0  0  0  0  0
   57.9350   28.2430   44.2760 N   0  0  0  0  0  0  0  0  0  0  0  0
   59.2470   28.1920   44.5770 C   0  0  0  0  0  0  0  0  0  0  0  0
   59.6180   29.3910   45.1530 C   0  0  0  0  0  0  0  0  0  0  0  0
   58.5280   30.1790   45.2210 N   0  0  0  0  0  0  0  0  0  0  0  0
   58.4890   31.5330   45.6840 C   0  0  0  0  0  0  0  0  0  0  0  0
   58.5920   31.7970   47.0590 C   0  0  0  0  0  0  0  0  0  0  0  0
   58.5730   33.1120   47.5280 C   0  0  0  0  0  0  0  0  0  0  0  0
   58.4430   34.1740   46.6290 C   0  0  0  0  0  0  0  0  0  0  0  0
   58.3230   33.9210   45.2600 C   0  0  0  0  0  0  0  0  0  0  0  0
   58.3420   32.6050   44.7820 C   0  0  0  0  0  0  0  0  0  0  0  0
   58.1030   32.3060   42.9040 Br  0  0  0  0  0  0  0  0  0  0  0  0
   55.9837   28.6339   42.4670 H   0  0  0  0  0  0  0  0  0  0  0  0
   54.9577   30.0758   42.1589 H   0  0  0  0  0  0  0  0  0  0  0  0
   56.7473   30.2303   42.1589 H   0  0  0  0  0  0  0  0  0  0  0  0
   57.3660   27.5030   43.8100 H   0  0  0  0  0  0  0  0  0  0  0  0
   59.9133   27.3361   44.3941 H   0  0  0  0  0  0  0  0  0  0  0  0
   60.6287   29.6564   45.4967 H   0  0  0  0  0  0  0  0  0  0  0  0
   58.6882   30.9636   47.7705 H   0  0  0  0  0  0  0  0  0  0  0  0
   58.6604   33.3122   48.6061 H   0  0  0  0  0  0  0  0  0  0  0  0
   58.4351   35.2098   46.9993 H   0  0  0  0  0  0  0  0  0  0  0  0
   58.2132   34.7585   44.5554 H   0  0  0  0  0  0  0  0  0  0  0  0
  1  2  1  0
  2  3  1  0
  3  4  2  0
  4  5  1  0
  5  6  2  0
  6  7  1  0
  7  8  1  0
  8  9  2  0
  9 10  1  0
 10 11  2  0
 11 12  1  0
 12 13  2  0
 13 14  1  0
  7  3  1  0
 13  8  1  0
  1 15  1  0
  1 16  1  0
  1 17  1  0
  4 18  1  0
  5 19  1  0
  6 20  1  0
  9 21  1  0
 10 22  1  0
 11 23  1  0
 12 24  1  0
M  CHG  1   4   1
M  END
>  <UniqueID>  (31) 
30

>  <SMILES>  (31) 
CSc1[nH+]ccn1-c1ccccc1Br

>  <Energy>  (31) 
57.654919944744655

>  <Genealogy>  (31) 
CSc1[nH+]ccn1-c1ccccc1Br (protonated)
CSc1[nH+]ccn1-c1ccccc1Br (3D coordinates assigned)
CSc1[nH+]ccn1-c1ccccc1Br (optimized conformer: 57.654919944744655 kcal/mol)

>  <smiles>  (31) 
CSc1nccn1-c1ccccc1Br

>  <score_type>  (31) 
oracle

>  <origin>  (31) 
adg

>  <m_score__min__energy>  (31) 
-4.3899999999999997

>  <m_primary>  (31) 
energy

$$$$
31:0
     RDKit          3D

 33 34  0  0  0  0  0  0  0  0999 V2000
   58.1140   26.9110   42.6240 C   0  0  0  0  0  0  0  0  0  0  0  0
   57.6760   27.5300   43.8890 N   0  0  0  0  0  0  0  0  0  0  0  0
   58.5600   27.0970   44.9850 C   0  0  0  0  0  0  0  0  0  0  0  0
   57.6740   29.0070   43.7950 C   0  0  0  0  0  0  0  0  0  0  0  0
   56.5810   29.6160   44.6270 C   0  0  0  0  0  0  0  0  0  0  0  0
   55.5260   28.9650   44.8530 O   0  0  0  0  0  0  0  0  0  0  0  0
   56.7670   30.9180   45.1940 N   0  0  0  0  0  0  0  0  0  0  0  0
   57.9400   31.3080   45.9200 C   0  0  0  0  0  0  0  0  0  0  0  0
   58.5580   30.3540   46.7380 C   0  0  0  0  0  0  0  0  0  0  0  0
   59.6780   30.6880   47.4990 C   0  0  0  0  0  0  0  0  0  0  0  0
   60.2060   31.9790   47.4440 C   0  0  0  0  0  0  0  0  0  0  0  0
   59.6280   32.9430   46.6070 C   0  0  0  0  0  0  0  0  0  0  0  0
   60.1800   34.2320   46.5310 C   0  0  0  0  0  0  0  0  0  0  0  0
   59.6280   35.1820   45.6700 C   0  0  0  0  0  0  0  0  0  0  0  0
   58.5310   34.8540   44.8740 C   0  0  0  0  0  0  0  0  0  0  0  0
   57.9680   33.5780   44.9400 C   0  0  0  0  0  0  0  0  0  0  0  0
   58.4920   32.6100   45.8220 C   0  0  0  0  0  0  0  0  0  0  0  0
   58.7367   26.0310   42.8427 H   0  0  0  0  0  0  0  0  0  0  0  0
   57.2328   26.6014   42.0429 H   0  0  0  0  0  0  0  0  0  0  0  0
   58.6992   27.6390   42.0429 H   0  0  0  0  0  0  0  0  0  0  0  0
   56.7070   27.1940   44.1090 H   0  0  0  0  0  0  0  0  0  0  0  0
   58.0871   27.3286   45.9508 H   0  0  0  0  0  0  0  0  0  0  0  0
   58.7314   26.0129   44.9113 H   0  0  0  0  0  0  0  0  0  0  0  0
   59.5216   27.6261   44.9113 H   0  0  0  0  0  0  0  0  0  0  0  0
   58.6441   29.3878   44.1471 H   0  0  0  0  0  0  0  0  0  0  0  0
   57.4994   29.2832   42.7447 H   0  0  0  0  0  0  0  0  0  0  0  0
   58.1560   29.3310   46.7807 H   0  0  0  0  0  0  0  0  0  0  0  0
   60.1471   29.9312   48.1450 H   0  0  0  0  0  0  0  0  0  0  0  0
   61.0790   32.2407   48.0599 H   0  0  0  0  0  0  0  0  0  0  0  0
   61.0497   34.4938   47.1516 H   0  0  0  0  0  0  0  0  0  0  0  0
   60.0597   36.1925   45.6193 H   0  0  0  0  0  0  0  0  0  0  0  0
   58.1070   35.6044   44.1906 H   0  0  0  0  0  0  0  0  0  0  0  0
   57.1098   33.3259   44.2997 H   0  0  0  0  0  0  0  0  0  0  0  0
  1  2  1  0
  2  3  1  0
  2  4  1  0
  4  5  1  0
  5  6  2  0
  5  7  1  0
  7  8  1  0
  8  9  2  0
  9 10  1  0
 10 11  2  0
 11 12  1  0
 12 13  2  0
 13 14  1  0
 14 15  2  0
 15 16  1  0
 16 17  2  0
 17  8  1  0
 17 12  1  0
  1 18  1  0
  1 19  1  0
  1 20  1  0
  2 21  1  0
  3 22  1  0
  3 23  1  0
  3 24  1  0
  4 25  1  0
  4 26  1  0
  9 27  1  0
 10 28  1  0
 11 29  1  0
 13 30  1  0
 14 31  1  0
 15 32  1  0
 16 33  1  0
M  CHG  2   2   1   7  -1
M  END
>  <UniqueID>  (32) 
31

>  <SMILES>  (32) 
C[NH+](C)CC(=O)[N-]c1cccc2ccccc12

>  <Energy>  (32) 
43.54824788860021

>  <Genealogy>  (32) 
C[NH+](C)CC(=O)[N-]c1cccc2ccccc12 (protonated)
C[NH+](C)CC(=O)[N-]c1cccc2ccccc12 (3D coordinates assigned)
C[NH+](C)CC(=O)[N-]c1cccc2ccccc12 (optimized conformer: 43.54824788860021 kcal/mol)

>  <smiles>  (32) 
CN(C)CC(=O)Nc1cccc2ccccc12

>  <score_type>  (32) 
oracle

>  <origin>  (32) 
adg

>  <m_score__min__energy>  (32) 
-6.9500000000000002

>  <m_primary>  (32) 
energy

$$$$
32:0
     RDKit          3D

 59 63  0  0  0  0  0  0  0  0999 V2000
   62.4040   31.5650   47.2250 C   0  0  0  0  0  0  0  0  0  0  0  0
   62.8150   32.4070   48.4020 C   0  0  0  0  0  0  0  0  0  0  0  0
   63.9200   32.0200   49.1770 C   0  0  0  0  0  0  0  0  0  0  0  0
   64.3940   32.8510   50.1970 C   0  0  0  0  0  0  0  0  0  0  0  0
   63.7590   34.0670   50.4650 C   0  0  0  0  0  0  0  0  0  0  0  0
   62.6240   34.4370   49.7370 C   0  0  0  0  0  0  0  0  0  0  0  0
   62.1310   33.6040   48.7190 C   0  0  0  0  0  0  0  0  0  0  0  0
   60.9520   33.9950   48.0000 N   0  0  0  0  0  0  0  0  0  0  0  0
   60.9980   34.1300   46.5400 C   0  0  0  0  0  0  0  0  0  0  0  0
   59.7920   34.9500   46.0340 C   0  0  0  0  0  0  0  0  0  0  0  0
   58.4780   34.4590   46.5440 N   0  0  0  0  0  0  0  0  0  0  0  0
   57.7260   33.6490   45.5920 C   0  0  0  0  0  0  0  0  0  0  0  0
   56.9680   34.2160   44.8150 O   0  0  0  0  0  0  0  0  0  0  0  0
   57.7410   32.1230   45.5910 C   0  0  0  0  0  0  0  0  0  0  0  0
   59.1780   31.5870   45.6970 C   0  0  0  0  0  0  0  0  0  0  0  0
   59.1570   30.0640   45.8900 C   0  0  0  0  0  0  0  0  0  0  0  0
   58.0810   29.4300   45.1050 N   0  0  0  0  0  0  0  0  0  0  0  0
   57.7270   28.0600   45.3800 C   0  0  0  0  0  0  0  0  0  0  0  0
   56.4380   27.6430   45.5280 N   0  0  0  0  0  0  0  0  0  0  0  0
   56.5840   26.3320   45.7630 C   0  0  0  0  0  0  0  0  0  0  0  0
   55.5820   25.3900   45.9870 C   0  0  0  0  0  0  0  0  0  0  0  0
   55.9770   24.0530   46.2000 C   0  0  0  0  0  0  0  0  0  0  0  0
   57.3440   23.7010   46.1830 C   0  0  0  0  0  0  0  0  0  0  0  0
   58.3300   24.6840   45.9550 C   0  0  0  0  0  0  0  0  0  0  0  0
   57.9040   25.9940   45.7500 C   0  0  0  0  0  0  0  0  0  0  0  0
   58.6580   27.0770   45.5090 N   0  0  0  0  0  0  0  0  0  0  0  0
   57.5140   30.1420   43.9500 C   0  0  0  0  0  0  0  0  0  0  0  0
   57.0390   31.5610   44.3350 C   0  0  0  0  0  0  0  0  0  0  0  0
   58.5350   33.7600   47.8560 C   0  0  0  0  0  0  0  0  0  0  0  0
   59.7020   34.2510   48.7160 C   0  0  0  0  0  0  0  0  0  0  0  0
   61.9479   30.6306   47.5840 H   0  0  0  0  0  0  0  0  0  0  0  0
   61.6747   32.1183   46.6152 H   0  0  0  0  0  0  0  0  0  0  0  0
   63.2889   31.3304   46.6152 H   0  0  0  0  0  0  0  0  0  0  0  0
   64.4156   31.0578   48.9807 H   0  0  0  0  0  0  0  0  0  0  0  0
   65.2691   32.5468   50.7901 H   0  0  0  0  0  0  0  0  0  0  0  0
   64.1518   34.7323   51.2480 H   0  0  0  0  0  0  0  0  0  0  0  0
   62.1145   35.3854   49.9626 H   0  0  0  0  0  0  0  0  0  0  0  0
   61.9290   34.6408   46.2530 H   0  0  0  0  0  0  0  0  0  0  0  0
   60.9606   33.1274   46.0889 H   0  0  0  0  0  0  0  0  0  0  0  0
   59.9217   35.9938   46.3560 H   0  0  0  0  0  0  0  0  0  0  0  0
   59.7706   34.8490   44.9389 H   0  0  0  0  0  0  0  0  0  0  0  0
   57.9050   35.3250   46.7020 H   0  0  0  0  0  0  0  0  0  0  0  0
   57.1819   31.7813   46.4746 H   0  0  0  0  0  0  0  0  0  0  0  0
   59.7264   31.8299   44.7749 H   0  0  0  0  0  0  0  0  0  0  0  0
   59.6749   32.0537   46.5603 H   0  0  0  0  0  0  0  0  0  0  0  0
   60.1242   29.6504   45.5684 H   0  0  0  0  0  0  0  0  0  0  0  0
   58.9738   29.8554   46.9544 H   0  0  0  0  0  0  0  0  0  0  0  0
   54.5207   25.6789   45.9973 H   0  0  0  0  0  0  0  0  0  0  0  0
   55.2155   23.2800   46.3804 H   0  0  0  0  0  0  0  0  0  0  0  0
   57.6419   22.6551   46.3483 H   0  0  0  0  0  0  0  0  0  0  0  0
   59.3989   24.4246   45.9397 H   0  0  0  0  0  0  0  0  0  0  0  0
   58.2830   30.2228   43.1676 H   0  0  0  0  0  0  0  0  0  0  0  0
   56.6443   29.5739   43.5882 H   0  0  0  0  0  0  0  0  0  0  0  0
   57.2404   32.2371   43.4910 H   0  0  0  0  0  0  0  0  0  0  0  0
   55.9657   31.4927   44.5660 H   0  0  0  0  0  0  0  0  0  0  0  0
   57.5943   33.9416   48.3965 H   0  0  0  0  0  0  0  0  0  0  0  0
   58.6821   32.6870   47.6636 H   0  0  0  0  0  0  0  0  0  0  0  0
   59.5963   35.3299   48.9023 H   0  0  0  0  0  0  0  0  0  0  0  0
   59.7066   33.7209   49.6798 H   0  0  0  0  0  0  0  0  0  0  0  0
  1  2  1  0
  2  3  2  0
  3  4  1  0
  4  5  2  0
  5  6  1  0
  6  7  2  0
  7  8  1  0
  8  9  1  0
  9 10  1  0
 10 11  1  0
 11 12  1  0
 12 13  2  0
 12 14  1  0
 14 15  1  0
 15 16  1  0
 16 17  1  0
 17 18  1  0
 18 19  2  0
 19 20  1  0
 20 21  2  0
 21 22  1  0
 22 23  2  0
 23 24  1  0
 24 25  2  0
 25 26  1  0
 17 27  1  0
 27 28  1  0
 11 29  1  0
 29 30  1  0
  7  2  1  0
 30  8  1  0
 28 14  1  0
 26 18  1  0
 25 20  1  0
  1 31  1  0
  1 32  1  0
  1 33  1  0
  3 34  1  0
  4 35  1  0
  5 36  1  0
  6 37  1  0
  9 38  1  0
  9 39  1  0
 10 40  1  0
 10 41  1  0
 11 42  1  0
 14 43  1  0
 15 44  1  0
 15 45  1  0
 16 46  1  0
 16 47  1  0
 21 48  1  0
 22 49  1  0
 23 50  1  0
 24 51  1  0
 27 52  1  0
 27 53  1  0
 28 54  1  0
 28 55  1  0
 29 56  1  0
 29 57  1  0
 30 58  1  0
 30 59  1  0
M  CHG  2  11   1  26  -1
M  END
>  <UniqueID>  (33) 
32

>  <SMILES>  (33) 
Cc1ccccc1N1CC[NH+](C(=O)C2CCN(c3nc4ccccc4[n-]3)CC2)CC1

>  <Energy>  (33) 
117.1411516512933

>  <Genealogy>  (33) 
Cc1ccccc1N1CC[NH+](C(=O)C2CCN(c3nc4ccccc4[n-]3)CC2)CC1 (protonated)
Cc1ccccc1N1CC[NH+](C(=O)C2CCN(c3nc4ccccc4[n-]3)CC2)CC1 (3D coordinates assigned)
Cc1ccccc1N1CC[NH+](C(=O)C2CCN(c3nc4ccccc4[n-]3)CC2)CC1 (nonaromatic ring conformer: 117.1411516512933 kcal/mol)

>  <smiles>  (33) 
Cc1ccccc1N1CCN(C(=O)C2CCN(c3nc4ccccc4[nH]3)CC2)CC1

>  <score_type>  (33) 
oracle

>  <origin>  (33) 
adg

>  <m_score__min__energy>  (33) 
-8.8499999999999996

>  <m_primary>  (33) 
energy

$$$$
33:0
     RDKit          3D

 47 49  0  0  0  0  0  0  0  0999 V2000
   56.7440   26.9850   46.1700 C   0  0  0  0  0  0  0  0  0  0  0  0
   57.0200   28.2210   45.3760 C   0  0  0  0  0  0  0  0  0  0  0  0
   58.3380   28.6060   45.0990 C   0  0  0  0  0  0  0  0  0  0  0  0
   58.5720   29.7660   44.3580 C   0  0  0  0  0  0  0  0  0  0  0  0
   57.4930   30.5420   43.9120 C   0  0  0  0  0  0  0  0  0  0  0  0
   57.7180   31.7670   43.0720 C   0  0  0  0  0  0  0  0  0  0  0  0
   58.5170   32.7330   43.8390 N   0  0  0  0  0  0  0  0  0  0  0  0
   57.6820   33.6970   44.5870 C   0  0  0  0  0  0  0  0  0  0  0  0
   58.4780   34.9820   44.8850 C   0  0  0  0  0  0  0  0  0  0  0  0
   59.6890   34.6790   45.7860 C   0  0  0  0  0  0  0  0  0  0  0  0
   59.3900   33.7580   46.9160 N   0  0  0  0  0  0  0  0  0  0  0  0
   60.0990   32.4630   46.8220 C   0  0  0  0  0  0  0  0  0  0  0  0
   61.5060   32.5840   47.3460 C   0  0  0  0  0  0  0  0  0  0  0  0
   62.4200   33.4700   46.7450 C   0  0  0  0  0  0  0  0  0  0  0  0
   63.7200   33.5860   47.2470 C   0  0  0  0  0  0  0  0  0  0  0  0
   64.1170   32.8220   48.3470 C   0  0  0  0  0  0  0  0  0  0  0  0
   63.2150   31.9400   48.9490 C   0  0  0  0  0  0  0  0  0  0  0  0
   61.9140   31.8210   48.4510 C   0  0  0  0  0  0  0  0  0  0  0  0
   57.9440   33.5800   47.1680 C   0  0  0  0  0  0  0  0  0  0  0  0
   57.1790   33.0780   45.9240 C   0  0  0  0  0  0  0  0  0  0  0  0
   56.1900   30.1160   44.2030 C   0  0  0  0  0  0  0  0  0  0  0  0
   55.9860   28.9810   44.9230 N   0  0  0  0  0  0  0  0  0  0  0  0
   56.7964   27.2195   47.2434 H   0  0  0  0  0  0  0  0  0  0  0  0
   55.7397   26.6087   45.9254 H   0  0  0  0  0  0  0  0  0  0  0  0
   57.4928   26.2172   45.9254 H   0  0  0  0  0  0  0  0  0  0  0  0
   59.1811   27.9999   45.4620 H   0  0  0  0  0  0  0  0  0  0  0  0
   59.6027   30.0709   44.1242 H   0  0  0  0  0  0  0  0  0  0  0  0
   58.2560   31.4905   42.1532 H   0  0  0  0  0  0  0  0  0  0  0  0
   56.7505   32.2157   42.8026 H   0  0  0  0  0  0  0  0  0  0  0  0
   59.0860   32.1670   44.5120 H   0  0  0  0  0  0  0  0  0  0  0  0
   56.8123   33.9442   43.9605 H   0  0  0  0  0  0  0  0  0  0  0  0
   58.8326   35.4143   43.9377 H   0  0  0  0  0  0  0  0  0  0  0  0
   57.8192   35.6915   45.4070 H   0  0  0  0  0  0  0  0  0  0  0  0
   60.4748   34.2221   45.1665 H   0  0  0  0  0  0  0  0  0  0  0  0
   60.0010   35.6356   46.2304 H   0  0  0  0  0  0  0  0  0  0  0  0
   59.5569   31.7113   47.4145 H   0  0  0  0  0  0  0  0  0  0  0  0
   60.1412   32.1601   45.7654 H   0  0  0  0  0  0  0  0  0  0  0  0
   62.1108   34.0726   45.8783 H   0  0  0  0  0  0  0  0  0  0  0  0
   64.4311   34.2799   46.7750 H   0  0  0  0  0  0  0  0  0  0  0  0
   65.1403   32.9145   48.7398 H   0  0  0  0  0  0  0  0  0  0  0  0
   63.5290   31.3391   49.8152 H   0  0  0  0  0  0  0  0  0  0  0  0
   61.2069   31.1261   48.9275 H   0  0  0  0  0  0  0  0  0  0  0  0
   57.8157   32.8480   47.9790 H   0  0  0  0  0  0  0  0  0  0  0  0
   57.5305   34.5630   47.4377 H   0  0  0  0  0  0  0  0  0  0  0  0
   57.2916   31.9854   45.8647 H   0  0  0  0  0  0  0  0  0  0  0  0
   56.1301   33.3862   46.0460 H   0  0  0  0  0  0  0  0  0  0  0  0
   55.3295   30.7019   43.8477 H   0  0  0  0  0  0  0  0  0  0  0  0
  1  2  1  0
  2  3  2  0
  3  4  1  0
  4  5  2  0
  5  6  1  0
  6  7  1  0
  7  8  1  0
  8  9  1  0
  9 10  1  0
 10 11  1  0
 11 12  1  0
 12 13  1  0
 13 14  2  0
 14 15  1  0
 15 16  2  0
 16 17  1  0
 17 18  2  0
 11 19  1  0
 19 20  1  0
  5 21  1  0
 21 22  2  0
 22  2  1  0
 20  8  1  0
 18 13  1  0
  1 23  1  0
  1 24  1  0
  1 25  1  0
  3 26  1  0
  4 27  1  0
  6 28  1  0
  6 29  1  0
  7 30  1  0
  8 31  1  0
  9 32  1  0
  9 33  1  0
 10 34  1  0
 10 35  1  0
 12 36  1  0
 12 37  1  0
 14 38  1  0
 15 39  1  0
 16 40  1  0
 17 41  1  0
 18 42  1  0
 19 43  1  0
 19 44  1  0
 20 45  1  0
 20 46  1  0
 21 47  1  0
M  END
>  <UniqueID>  (34) 
33

>  <SMILES>  (34) 
Cc1ccc(CNC2CCN(Cc3ccccc3)CC2)cn1

>  <Energy>  (34) 
57.3089116207058

>  <Genealogy>  (34) 
Cc1ccc(CNC2CCN(Cc3ccccc3)CC2)cn1 (3D coordinates assigned)
Cc1ccc(CNC2CCN(Cc3ccccc3)CC2)cn1 (nonaromatic ring conformer: 57.3089116207058 kcal/mol)

>  <smiles>  (34) 
Cc1ccc(CNC2CCN(Cc3ccccc3)CC2)cn1

>  <score_type>  (34) 
oracle

>  <origin>  (34) 
adg

>  <m_score__min__energy>  (34) 
-7.9699999999999998

>  <m_primary>  (34) 
energy

$$$$
34:0
     RDKit          3D

 33 34  0  0  0  0  0  0  0  0999 V2000
   56.5360   30.4390   43.1050 C   0  0  0  0  0  0  0  0  0  0  0  0
   56.4480   29.6860   44.3950 C   0  0  0  0  0  0  0  0  0  0  0  0
   55.3100   29.4140   44.8660 O   0  0  0  0  0  0  0  0  0  0  0  0
   57.6590   29.2180   45.1100 C   0  0  0  0  0  0  0  0  0  0  0  0
   58.0290   29.8890   46.2870 C   0  0  0  0  0  0  0  0  0  0  0  0
   59.1400   29.4700   47.0390 C   0  0  0  0  0  0  0  0  0  0  0  0
   59.5290   30.0980   48.2340 O   0  0  0  0  0  0  0  0  0  0  0  0
   59.2440   31.4500   48.5950 C   0  0  0  0  0  0  0  0  0  0  0  0
   60.1070   32.4210   47.8120 C   0  0  0  0  0  0  0  0  0  0  0  0
   61.5100   32.4690   47.9910 C   0  0  0  0  0  0  0  0  0  0  0  0
   62.3640   31.4480   49.1450 Cl  0  0  0  0  0  0  0  0  0  0  0  0
   62.2680   33.3720   47.2390 C   0  0  0  0  0  0  0  0  0  0  0  0
   61.6640   34.2130   46.3620 N   0  0  0  0  0  0  0  0  0  0  0  0
   60.3180   34.2150   46.1880 C   0  0  0  0  0  0  0  0  0  0  0  0
   59.5110   33.3330   46.9110 C   0  0  0  0  0  0  0  0  0  0  0  0
   57.7670   33.4250   46.6770 Cl  0  0  0  0  0  0  0  0  0  0  0  0
   59.8940   28.3840   46.5910 C   0  0  0  0  0  0  0  0  0  0  0  0
   59.5550   27.7220   45.4110 C   0  0  0  0  0  0  0  0  0  0  0  0
   58.4510   28.1370   44.6480 C   0  0  0  0  0  0  0  0  0  0  0  0
   58.1560   27.4210   43.3560 C   0  0  0  0  0  0  0  0  0  0  0  0
   56.6613   31.5116   43.3144 H   0  0  0  0  0  0  0  0  0  0  0  0
   57.3977   30.0752   42.5261 H   0  0  0  0  0  0  0  0  0  0  0  0
   55.6136   30.2837   42.5261 H   0  0  0  0  0  0  0  0  0  0  0  0
   57.4408   30.7549   46.6251 H   0  0  0  0  0  0  0  0  0  0  0  0
   58.1851   31.6617   48.3853 H   0  0  0  0  0  0  0  0  0  0  0  0
   59.4606   31.5774   49.6659 H   0  0  0  0  0  0  0  0  0  0  0  0
   63.3610   33.4007   47.3592 H   0  0  0  0  0  0  0  0  0  0  0  0
   59.8599   34.9150   45.4737 H   0  0  0  0  0  0  0  0  0  0  0  0
   60.7638   28.0471   47.1741 H   0  0  0  0  0  0  0  0  0  0  0  0
   60.1584   26.8661   45.0744 H   0  0  0  0  0  0  0  0  0  0  0  0
   57.7453   26.4242   43.5747 H   0  0  0  0  0  0  0  0  0  0  0  0
   57.4232   28.0001   42.7749 H   0  0  0  0  0  0  0  0  0  0  0  0
   59.0840   27.3158   42.7749 H   0  0  0  0  0  0  0  0  0  0  0  0
  1  2  1  0
  2  3  2  0
  2  4  1  0
  4  5  2  0
  5  6  1  0
  6  7  1  0
  7  8  1  0
  8  9  1  0
  9 10  2  0
 10 11  1  0
 10 12  1  0
 12 13  2  0
 13 14  1  0
 14 15  2  0
 15 16  1  0
  6 17  2  0
 17 18  1  0
 18 19  2  0
 19 20  1  0
 19  4  1  0
 15  9  1  0
  1 21  1  0
  1 22  1  0
  1 23  1  0
  5 24  1  0
  8 25  1  0
  8 26  1  0
 12 27  1  0
 14 28  1  0
 17 29  1  0
 18 30  1  0
 20 31  1  0
 20 32  1  0
 20 33  1  0
M  END
>  <UniqueID>  (35) 
34

>  <SMILES>  (35) 
CC(=O)c1cc(OCc2c(Cl)cncc2Cl)ccc1C

>  <Energy>  (35) 
42.39883392238676

>  <Genealogy>  (35) 
CC(=O)c1cc(OCc2c(Cl)cncc2Cl)ccc1C (3D coordinates assigned)
CC(=O)c1cc(OCc2c(Cl)cncc2Cl)ccc1C (optimized conformer: 42.39883392238676 kcal/mol)

>  <smiles>  (35) 
CC(=O)c1cc(OCc2c(Cl)cncc2Cl)ccc1C

>  <score_type>  (35) 
oracle

>  <origin>  (35) 
adg

>  <m_score__min__energy>  (35) 
-6.9699999999999998

>  <m_primary>  (35) 
energy

$$$$
35:0
     RDKit          3D

 54 57  0  0  0  0  0  0  0  0999 V2000
   67.8270   31.5460   52.0190 C   0  0  0  0  0  0  0  0  0  0  0  0
   66.8470   32.5390   52.2960 O   0  0  0  0  0  0  0  0  0  0  0  0
   65.7960   32.8770   51.4330 C   0  0  0  0  0  0  0  0  0  0  0  0
   65.7240   32.2380   50.1900 C   0  0  0  0  0  0  0  0  0  0  0  0
   64.6940   32.5380   49.2950 C   0  0  0  0  0  0  0  0  0  0  0  0
   63.7140   33.4880   49.6300 C   0  0  0  0  0  0  0  0  0  0  0  0
   62.6480   33.7950   48.7110 N   0  0  0  0  0  0  0  0  0  0  0  0
   61.3450   34.2190   49.2410 C   0  0  0  0  0  0  0  0  0  0  0  0
   60.3670   34.5270   48.1090 C   0  0  0  0  0  0  0  0  0  0  0  0
   60.4510   33.4490   47.1160 N   0  0  0  0  0  0  0  0  0  0  0  0
   59.1410   33.5870   45.9690 S   0  0  0  0  0  0  0  0  0  0  0  0
   58.0920   34.5300   46.4950 O   0  0  0  0  0  0  0  0  0  0  0  0
   59.6600   34.1280   44.6660 O   0  0  0  0  0  0  0  0  0  0  0  0
   58.4330   32.0000   45.6830 C   0  0  0  0  0  0  0  0  0  0  0  0
   57.5190   31.8270   44.6450 C   0  0  0  0  0  0  0  0  0  0  0  0
   56.9540   30.5750   44.4100 C   0  0  0  0  0  0  0  0  0  0  0  0
   57.2950   29.4610   45.1970 C   0  0  0  0  0  0  0  0  0  0  0  0
   58.2660   29.6230   46.2260 C   0  0  0  0  0  0  0  0  0  0  0  0
   58.8060   30.9020   46.4620 C   0  0  0  0  0  0  0  0  0  0  0  0
   58.7490   28.4860   47.0960 C   0  0  0  0  0  0  0  0  0  0  0  0
   59.0830   27.2430   46.2660 C   0  0  0  0  0  0  0  0  0  0  0  0
   57.8730   26.3240   46.1230 C   0  0  0  0  0  0  0  0  0  0  0  0
   56.6140   27.0480   45.7450 C   0  0  0  0  0  0  0  0  0  0  0  0
   55.5070   26.5310   46.0540 O   0  0  0  0  0  0  0  0  0  0  0  0
   56.6240   28.2130   44.9100 N   0  0  0  0  0  0  0  0  0  0  0  0
   61.7490   33.4510   46.4050 C   0  0  0  0  0  0  0  0  0  0  0  0
   62.9310   33.9360   47.2760 C   0  0  0  0  0  0  0  0  0  0  0  0
   63.7880   34.1330   50.8760 C   0  0  0  0  0  0  0  0  0  0  0  0
   64.8180   33.8300   51.7710 C   0  0  0  0  0  0  0  0  0  0  0  0
   68.2215   31.1463   52.9648 H   0  0  0  0  0  0  0  0  0  0  0  0
   67.3694   30.7310   51.4390 H   0  0  0  0  0  0  0  0  0  0  0  0
   68.6480   31.9928   51.4390 H   0  0  0  0  0  0  0  0  0  0  0  0
   66.4851   31.4929   49.9152 H   0  0  0  0  0  0  0  0  0  0  0  0
   64.6498   32.0273   48.3217 H   0  0  0  0  0  0  0  0  0  0  0  0
   60.9309   33.4130   49.8647 H   0  0  0  0  0  0  0  0  0  0  0  0
   61.4897   35.1322   49.8370 H   0  0  0  0  0  0  0  0  0  0  0  0
   59.3436   34.5852   48.5081 H   0  0  0  0  0  0  0  0  0  0  0  0
   60.6210   35.4903   47.6426 H   0  0  0  0  0  0  0  0  0  0  0  0
   57.2428   32.6813   44.0094 H   0  0  0  0  0  0  0  0  0  0  0  0
   56.2272   30.4560   43.5930 H   0  0  0  0  0  0  0  0  0  0  0  0
   59.5348   31.0390   47.2745 H   0  0  0  0  0  0  0  0  0  0  0  0
   59.6519   28.8081   47.6355 H   0  0  0  0  0  0  0  0  0  0  0  0
   57.9438   28.2244   47.7983 H   0  0  0  0  0  0  0  0  0  0  0  0
   59.4118   27.5593   45.2651 H   0  0  0  0  0  0  0  0  0  0  0  0
   59.8794   26.6871   46.7824 H   0  0  0  0  0  0  0  0  0  0  0  0
   58.0925   25.5775   45.3454 H   0  0  0  0  0  0  0  0  0  0  0  0
   57.6986   25.8626   47.1062 H   0  0  0  0  0  0  0  0  0  0  0  0
   55.8930   28.2250   44.1620 H   0  0  0  0  0  0  0  0  0  0  0  0
   61.9627   32.4258   46.0684 H   0  0  0  0  0  0  0  0  0  0  0  0
   61.6561   34.1560   45.5657 H   0  0  0  0  0  0  0  0  0  0  0  0
   63.8224   33.3407   47.0291 H   0  0  0  0  0  0  0  0  0  0  0  0
   63.0955   35.0028   47.0641 H   0  0  0  0  0  0  0  0  0  0  0  0
   63.0299   34.8818   51.1491 H   0  0  0  0  0  0  0  0  0  0  0  0
   64.8641   34.3395   52.7448 H   0  0  0  0  0  0  0  0  0  0  0  0
  1  2  1  0
  2  3  1  0
  3  4  2  0
  4  5  1  0
  5  6  2  0
  6  7  1  0
  7  8  1  0
  8  9  1  0
  9 10  1  0
 10 11  1  0
 11 12  2  0
 11 13  2  0
 11 14  1  0
 14 15  2  0
 15 16  1  0
 16 17  2  0
 17 18  1  0
 18 19  2  0
 18 20  1  0
 20 21  1  0
 21 22  1  0
 22 23  1  0
 23 24  2  0
 23 25  1  0
 10 26  1  0
 26 27  1  0
  6 28  1  0
 28 29  2  0
 29  3  1  0
 27  7  1  0
 19 14  1  0
 25 17  1  0
  1 30  1  0
  1 31  1  0
  1 32  1  0
  4 33  1  0
  5 34  1  0
  8 35  1  0
  8 36  1  0
  9 37  1  0
  9 38  1  0
 15 39  1  0
 16 40  1  0
 19 41  1  0
 20 42  1  0
 20 43  1  0
 21 44  1  0
 21 45  1  0
 22 46  1  0
 22 47  1  0
 25 48  1  0
 26 49  1  0
 26 50  1  0
 27 51  1  0
 27 52  1  0
 28 53  1  0
 29 54  1  0
M  END
>  <UniqueID>  (36) 
35

>  <SMILES>  (36) 
COc1ccc(N2CCN(S(=O)(=O)c3ccc4c(c3)CCCC(=O)N4)CC2)cc1

>  <Energy>  (36) 
74.72969456985976

>  <Genealogy>  (36) 
COc1ccc(N2CCN(S(=O)(=O)c3ccc4c(c3)CCCC(=O)N4)CC2)cc1 (3D coordinates assigned)
COc1ccc(N2CCN(S(=O)(=O)c3ccc4c(c3)CCCC(=O)N4)CC2)cc1 (nonaromatic ring conformer: 74.72969456985976 kcal/mol)

>  <smiles>  (36) 
COc1ccc(N2CCN(S(=O)(=O)c3ccc4c(c3)CCCC(=O)N4)CC2)cc1

>  <score_type>  (36) 
oracle

>  <origin>  (36) 
adg

>  <m_score__min__energy>  (36) 
-8.0500000000000007

>  <m_primary>  (36) 
energy

$$$$
36:0
     RDKit          3D

 27 29  0  0  0  0  0  0  0  0999 V2000
   59.4270   33.9120   47.4700 C   0  0  0  0  0  0  0  0  0  0  0  0
   58.8330   33.1990   46.2910 C   0  0  0  0  0  0  0  0  0  0  0  0
   58.3160   33.9330   45.2110 C   0  0  0  0  0  0  0  0  0  0  0  0
   57.7280   33.2780   44.1260 C   0  0  0  0  0  0  0  0  0  0  0  0
   57.6350   31.8800   44.1080 C   0  0  0  0  0  0  0  0  0  0  0  0
   57.0430   31.2130   43.0120 C   0  0  0  0  0  0  0  0  0  0  0  0
   56.9450   29.8130   42.9950 C   0  0  0  0  0  0  0  0  0  0  0  0
   57.4400   29.0870   44.0790 C   0  0  0  0  0  0  0  0  0  0  0  0
   57.4070   27.7320   44.1750 N   0  0  0  0  0  0  0  0  0  0  0  0
   57.9520   27.2960   45.3380 C   0  0  0  0  0  0  0  0  0  0  0  0
   58.1160   25.8540   45.6850 C   0  0  0  0  0  0  0  0  0  0  0  0
   58.5220   28.5800   46.2790 S   0  0  0  0  0  0  0  0  0  0  0  0
   58.0230   29.7380   45.1580 C   0  0  0  0  0  0  0  0  0  0  0  0
   58.1390   31.1330   45.2060 C   0  0  0  0  0  0  0  0  0  0  0  0
   58.7290   31.8000   46.2920 C   0  0  0  0  0  0  0  0  0  0  0  0
   59.0505   33.4601   48.3996 H   0  0  0  0  0  0  0  0  0  0  0  0
   60.5230   33.8244   47.4374 H   0  0  0  0  0  0  0  0  0  0  0  0
   59.1429   34.9742   47.4374 H   0  0  0  0  0  0  0  0  0  0  0  0
   58.3744   35.0314   45.2194 H   0  0  0  0  0  0  0  0  0  0  0  0
   57.3358   33.8631   43.2811 H   0  0  0  0  0  0  0  0  0  0  0  0
   56.6552   31.7966   42.1640 H   0  0  0  0  0  0  0  0  0  0  0  0
   56.4849   29.2959   42.1401 H   0  0  0  0  0  0  0  0  0  0  0  0
   57.0160   27.1010   43.4410 H   0  0  0  0  0  0  0  0  0  0  0  0
   58.1290   25.7393   46.7789 H   0  0  0  0  0  0  0  0  0  0  0  0
   57.2775   25.2784   45.2659 H   0  0  0  0  0  0  0  0  0  0  0  0
   59.0623   25.4813   45.2659 H   0  0  0  0  0  0  0  0  0  0  0  0
   59.1112   31.2230   47.1470 H   0  0  0  0  0  0  0  0  0  0  0  0
  1  2  1  0
  2  3  2  0
  3  4  1  0
  4  5  2  0
  5  6  1  0
  6  7  2  0
  7  8  1  0
  8  9  1  0
  9 10  2  0
 10 11  1  0
 10 12  1  0
 12 13  1  0
 13 14  1  0
 14 15  2  0
 15  2  1  0
 14  5  1  0
 13  8  2  0
  1 16  1  0
  1 17  1  0
  1 18  1  0
  3 19  1  0
  4 20  1  0
  6 21  1  0
  7 22  1  0
  9 23  1  0
 11 24  1  0
 11 25  1  0
 11 26  1  0
 15 27  1  0
M  CHG  1   9   1
M  END
>  <UniqueID>  (37) 
36

>  <SMILES>  (37) 
Cc1ccc2ccc3[nH+]c(C)sc3c2c1

>  <Energy>  (37) 
64.47810187377708

>  <Genealogy>  (37) 
Cc1ccc2ccc3[nH+]c(C)sc3c2c1 (protonated)
Cc1ccc2ccc3[nH+]c(C)sc3c2c1 (3D coordinates assigned)
Cc1ccc2ccc3[nH+]c(C)sc3c2c1 (optimized conformer: 64.47810187377708 kcal/mol)

>  <smiles>  (37) 
Cc1ccc2ccc3nc(C)sc3c2c1

>  <score_type>  (37) 
oracle

>  <origin>  (37) 
adg

>  <m_score__min__energy>  (37) 
-5.4500000000000002

>  <m_primary>  (37) 
energy

$$$$
37:0
     RDKit          3D

 44 46  0  0  0  0  0  0  0  0999 V2000
   56.6850   30.2270   43.4240 C   0  0  0  0  0  0  0  0  0  0  0  0
   56.5420   30.8340   44.7040 O   0  0  0  0  0  0  0  0  0  0  0  0
   57.3860   31.8350   45.2050 C   0  0  0  0  0  0  0  0  0  0  0  0
   56.9890   33.1830   45.2940 C   0  0  0  0  0  0  0  0  0  0  0  0
   57.8680   34.1440   45.8030 C   0  0  0  0  0  0  0  0  0  0  0  0
   59.1530   33.7780   46.2350 C   0  0  0  0  0  0  0  0  0  0  0  0
   60.0920   34.8130   46.8030 C   0  0  0  0  0  0  0  0  0  0  0  0
   61.1970   34.1860   47.5480 N   0  0  0  0  0  0  0  0  0  0  0  0
   62.4690   33.8680   46.8720 C   0  0  0  0  0  0  0  0  0  0  0  0
   63.0280   32.4910   47.2820 C   0  0  1  0  0  0  0  0  0  0  0  0
   64.1330   32.6260   48.3290 C   0  0  0  0  0  0  0  0  0  0  0  0
   63.4870   32.1320   49.5860 C   0  0  0  0  0  0  0  0  0  0  0  0
   62.4050   31.2180   49.0630 C   0  0  0  0  0  0  0  0  0  0  0  0
   61.9910   31.6850   47.8020 O   0  0  0  0  0  0  0  0  0  0  0  0
   61.1600   34.2130   48.9900 C   0  0  0  0  0  0  0  0  0  0  0  0
   62.0640   34.8220   49.6240 O   0  0  0  0  0  0  0  0  0  0  0  0
   60.0790   33.5590   49.7530 C   0  0  0  0  0  0  0  0  0  0  0  0
   59.2530   32.5460   49.2770 C   0  0  0  0  0  0  0  0  0  0  0  0
   58.3430   32.0750   50.2310 C   0  0  0  0  0  0  0  0  0  0  0  0
   58.4530   32.7020   51.4650 C   0  0  0  0  0  0  0  0  0  0  0  0
   59.6840   33.8410   51.3640 S   0  0  0  0  0  0  0  0  0  0  0  0
   59.5470   32.4340   46.1390 C   0  0  0  0  0  0  0  0  0  0  0  0
   58.6700   31.4740   45.6290 C   0  0  0  0  0  0  0  0  0  0  0  0
   56.9356   29.1632   43.5486 H   0  0  0  0  0  0  0  0  0  0  0  0
   55.7407   30.3185   42.8673 H   0  0  0  0  0  0  0  0  0  0  0  0
   57.4891   30.7304   42.8673 H   0  0  0  0  0  0  0  0  0  0  0  0
   55.9836   33.4812   44.9619 H   0  0  0  0  0  0  0  0  0  0  0  0
   57.5503   35.1953   45.8655 H   0  0  0  0  0  0  0  0  0  0  0  0
   60.5095   35.4085   45.9777 H   0  0  0  0  0  0  0  0  0  0  0  0
   59.5249   35.4507   47.4971 H   0  0  0  0  0  0  0  0  0  0  0  0
   62.3010   33.8709   45.7849 H   0  0  0  0  0  0  0  0  0  0  0  0
   63.2049   34.6294   47.1699 H   0  0  0  0  0  0  0  0  0  0  0  0
   63.4546   32.0218   46.3832 H   0  0  0  0  0  0  0  0  0  0  0  0
   65.0028   32.0067   48.0645 H   0  0  0  0  0  0  0  0  0  0  0  0
   64.5141   33.6539   48.4190 H   0  0  0  0  0  0  0  0  0  0  0  0
   64.2048   31.5806   50.2111 H   0  0  0  0  0  0  0  0  0  0  0  0
   63.1051   32.9394   50.2281 H   0  0  0  0  0  0  0  0  0  0  0  0
   62.7983   30.1951   48.9681 H   0  0  0  0  0  0  0  0  0  0  0  0
   61.5526   31.2099   49.7582 H   0  0  0  0  0  0  0  0  0  0  0  0
   59.3093   32.1533   48.2510 H   0  0  0  0  0  0  0  0  0  0  0  0
   57.6094   31.2823   50.0225 H   0  0  0  0  0  0  0  0  0  0  0  0
   57.8408   32.4899   52.3539 H   0  0  0  0  0  0  0  0  0  0  0  0
   60.5532   32.1349   46.4677 H   0  0  0  0  0  0  0  0  0  0  0  0
   58.9915   30.4243   45.5599 H   0  0  0  0  0  0  0  0  0  0  0  0
  1  2  1  0
  2  3  1  0
  3  4  2  0
  4  5  1  0
  5  6  2  0
  6  7  1  0
  7  8  1  0
  8  9  1  0
  9 10  1  0
 10 11  1  0
 11 12  1  0
 12 13  1  0
 13 14  1  0
  8 15  1  0
 15 16  2  0
 15 17  1  0
 17 18  2  0
 18 19  1  0
 19 20  2  0
 20 21  1  0
  6 22  1  0
 22 23  2  0
 23  3  1  0
 14 10  1  0
 21 17  1  0
  1 24  1  0
  1 25  1  0
  1 26  1  0
  4 27  1  0
  5 28  1  0
  7 29  1  0
  7 30  1  0
  9 31  1  0
  9 32  1  0
 10 33  1  6
 11 34  1  0
 11 35  1  0
 12 36  1  0
 12 37  1  0
 13 38  1  0
 13 39  1  0
 18 40  1  0
 19 41  1  0
 20 42  1  0
 22 43  1  0
 23 44  1  0
M  END
>  <UniqueID>  (38) 
37

>  <SMILES>  (38) 
COc1ccc(CN(C[C@H]2CCCO2)C(=O)c2cccs2)cc1

>  <Energy>  (38) 
71.51668601958652

>  <Genealogy>  (38) 
COc1ccc(CN(C[C@H]2CCCO2)C(=O)c2cccs2)cc1 (chirality)
COc1ccc(CN(C[C@H]2CCCO2)C(=O)c2cccs2)cc1 (3D coordinates assigned)
COc1ccc(CN(C[C@H]2CCCO2)C(=O)c2cccs2)cc1 (nonaromatic ring conformer: 71.51668601958652 kcal/mol)

>  <smiles>  (38) 
COc1ccc(CN(CC2CCCO2)C(=O)c2cccs2)cc1

>  <score_type>  (38) 
oracle

>  <origin>  (38) 
adg

>  <m_score__min__energy>  (38) 
-7.0700000000000003

>  <m_primary>  (38) 
energy

$$$$
38:0
     RDKit          3D

 37 39  0  0  0  0  0  0  0  0999 V2000
   58.1310   26.9670   43.0060 C   0  0  0  0  0  0  0  0  0  0  0  0
   58.9680   27.8060   43.7950 O   0  0  0  0  0  0  0  0  0  0  0  0
   59.1060   27.7080   45.1880 C   0  0  0  0  0  0  0  0  0  0  0  0
   60.0430   26.8420   45.7860 C   0  0  0  0  0  0  0  0  0  0  0  0
   60.1750   26.7990   47.1780 C   0  0  0  0  0  0  0  0  0  0  0  0
   59.3820   27.6170   47.9830 C   0  0  0  0  0  0  0  0  0  0  0  0
   58.4460   28.4750   47.4010 C   0  0  0  0  0  0  0  0  0  0  0  0
   58.2940   28.5130   46.0080 C   0  0  0  0  0  0  0  0  0  0  0  0
   57.3190   29.3870   45.4300 N   0  0  0  0  0  0  0  0  0  0  0  0
   56.1140   29.0170   45.0400 N   0  0  0  0  0  0  0  0  0  0  0  0
   55.5070   30.0630   44.4970 N   0  0  0  0  0  0  0  0  0  0  0  0
   56.3120   31.1180   44.5120 N   0  0  0  0  0  0  0  0  0  0  0  0
   57.4470   30.6830   45.0930 C   0  0  0  0  0  0  0  0  0  0  0  0
   58.6790   31.5220   45.2740 C   0  0  0  0  0  0  0  0  0  0  0  0
   58.3940   32.6810   46.1420 N   0  0  0  0  0  0  0  0  0  0  0  0
   57.8630   33.8390   45.3760 C   0  0  0  0  0  0  0  0  0  0  0  0
   58.9520   34.8340   44.9600 C   0  0  0  0  0  0  0  0  0  0  0  0
   59.6500   35.7180   46.4040 S   0  0  0  0  0  0  0  0  0  0  0  0
   59.4550   34.3800   47.6370 C   0  0  0  0  0  0  0  0  0  0  0  0
   59.5650   32.9970   46.9910 C   0  0  0  0  0  0  0  0  0  0  0  0
   57.5095   26.3440   43.6661 H   0  0  0  0  0  0  0  0  0  0  0  0
   57.4826   27.5887   42.3712 H   0  0  0  0  0  0  0  0  0  0  0  0
   58.7542   26.3200   42.3712 H   0  0  0  0  0  0  0  0  0  0  0  0
   60.6732   26.1972   45.1558 H   0  0  0  0  0  0  0  0  0  0  0  0
   60.9060   26.1184   47.6390 H   0  0  0  0  0  0  0  0  0  0  0  0
   59.4939   27.5863   49.0769 H   0  0  0  0  0  0  0  0  0  0  0  0
   57.8261   29.1231   48.0379 H   0  0  0  0  0  0  0  0  0  0  0  0
   59.4686   30.9104   45.7349 H   0  0  0  0  0  0  0  0  0  0  0  0
   59.0073   31.8876   44.2899 H   0  0  0  0  0  0  0  0  0  0  0  0
   57.3683   33.4617   44.4689 H   0  0  0  0  0  0  0  0  0  0  0  0
   57.1629   34.3746   46.0340 H   0  0  0  0  0  0  0  0  0  0  0  0
   59.7600   34.2865   44.4526 H   0  0  0  0  0  0  0  0  0  0  0  0
   58.4980   35.5783   44.2892 H   0  0  0  0  0  0  0  0  0  0  0  0
   60.2407   34.4808   48.4002 H   0  0  0  0  0  0  0  0  0  0  0  0
   58.4554   34.4705   48.0872 H   0  0  0  0  0  0  0  0  0  0  0  0
   60.4717   32.9678   46.3689 H   0  0  0  0  0  0  0  0  0  0  0  0
   59.6084   32.2503   47.7976 H   0  0  0  0  0  0  0  0  0  0  0  0
  1  2  1  0
  2  3  1  0
  3  4  2  0
  4  5  1  0
  5  6  2  0
  6  7  1  0
  7  8  2  0
  8  9  1  0
  9 10  1  0
 10 11  2  0
 11 12  1  0
 12 13  2  0
 13 14  1  0
 14 15  1  0
 15 16  1  0
 16 17  1  0
 17 18  1  0
 18 19  1  0
 19 20  1  0
  8  3  1  0
 13  9  1  0
 20 15  1  0
  1 21  1  0
  1 22  1  0
  1 23  1  0
  4 24  1  0
  5 25  1  0
  6 26  1  0
  7 27  1  0
 14 28  1  0
 14 29  1  0
 16 30  1  0
 16 31  1  0
 17 32  1  0
 17 33  1  0
 19 34  1  0
 19 35  1  0
 20 36  1  0
 20 37  1  0
M  END
>  <UniqueID>  (39) 
38

>  <SMILES>  (39) 
COc1ccccc1-n1nnnc1CN1CCSCC1

>  <Energy>  (39) 
88.48131365828574

>  <Genealogy>  (39) 
COc1ccccc1-n1nnnc1CN1CCSCC1 (3D coordinates assigned)
COc1ccccc1-n1nnnc1CN1CCSCC1 (nonaromatic ring conformer: 88.48131365828574 kcal/mol)

>  <smiles>  (39) 
COc1ccccc1-n1nnnc1CN1CCSCC1

>  <score_type>  (39) 
oracle

>  <origin>  (39) 
adg

>  <m_score__min__energy>  (39) 
-8.0999999999999996

>  <m_primary>  (39) 
energy

$$$$
39:0
     RDKit          3D

 55 58  0  0  0  0  0  0  0  0999 V2000
   54.2510   23.6110   44.2410 C   0  0  0  0  0  0  0  0  0  0  0  0
   55.4410   22.9680   43.7990 O   0  0  0  0  0  0  0  0  0  0  0  0
   56.7050   23.1570   44.3790 C   0  0  0  0  0  0  0  0  0  0  0  0
   57.4740   22.0270   44.6810 C   0  0  0  0  0  0  0  0  0  0  0  0
   58.7310   22.1640   45.2780 C   0  0  0  0  0  0  0  0  0  0  0  0
   59.2290   23.4330   45.5800 C   0  0  0  0  0  0  0  0  0  0  0  0
   58.4780   24.5780   45.2750 C   0  0  0  0  0  0  0  0  0  0  0  0
   58.9910   25.9540   45.6440 C   0  0  0  0  0  0  0  0  0  0  0  0
   57.9920   26.7180   46.4300 N   0  0  1  0  0  0  0  0  0  0  0  0
   58.6420   27.7450   47.2860 C   0  0  0  0  0  0  0  0  0  0  0  0
   59.5590   28.7250   46.5130 C   0  0  1  0  0  0  0  0  0  0  0  0
   60.2500   28.0530   45.5180 F   0  0  0  0  0  0  0  0  0  0  0  0
   58.7890   29.8860   45.9160 C   0  0  0  0  0  0  0  0  0  0  0  0
   59.0320   31.1860   46.3900 C   0  0  0  0  0  0  0  0  0  0  0  0
   58.2820   32.2730   45.9330 C   0  0  0  0  0  0  0  0  0  0  0  0
   58.5410   33.5370   46.4850 O   0  0  0  0  0  0  0  0  0  0  0  0
   59.6530   34.3660   46.1480 C   0  0  0  0  0  0  0  0  0  0  0  0
   60.8520   34.0130   46.9900 C   0  0  0  0  0  0  0  0  0  0  0  0
   62.0930   33.7400   46.3900 C   0  0  0  0  0  0  0  0  0  0  0  0
   63.2020   33.4250   47.1810 C   0  0  0  0  0  0  0  0  0  0  0  0
   63.0800   33.3740   48.5720 C   0  0  0  0  0  0  0  0  0  0  0  0
   61.8470   33.6360   49.1760 C   0  0  0  0  0  0  0  0  0  0  0  0
   60.7350   33.9510   48.3890 C   0  0  0  0  0  0  0  0  0  0  0  0
   57.2970   32.0630   44.9540 C   0  0  0  0  0  0  0  0  0  0  0  0
   57.0430   30.7790   44.4710 C   0  0  0  0  0  0  0  0  0  0  0  0
   57.7600   29.6750   44.9610 C   0  0  0  0  0  0  0  0  0  0  0  0
   57.4030   28.2870   44.4610 C   0  0  0  0  0  0  0  0  0  0  0  0
   56.9990   27.3370   45.5670 C   0  0  0  0  0  0  0  0  0  0  0  0
   55.8150   27.0420   45.6700 O   0  0  0  0  0  0  0  0  0  0  0  0
   57.2180   24.4360   44.6700 C   0  0  0  0  0  0  0  0  0  0  0  0
   54.2278   23.6235   45.3407 H   0  0  0  0  0  0  0  0  0  0  0  0
   54.2296   24.6434   43.8620 H   0  0  0  0  0  0  0  0  0  0  0  0
   53.3757   23.0631   43.8620 H   0  0  0  0  0  0  0  0  0  0  0  0
   57.0868   21.0243   44.4471 H   0  0  0  0  0  0  0  0  0  0  0  0
   59.3287   21.2702   45.5102 H   0  0  0  0  0  0  0  0  0  0  0  0
   60.2140   23.5353   46.0589 H   0  0  0  0  0  0  0  0  0  0  0  0
   59.9075   25.8444   46.2424 H   0  0  0  0  0  0  0  0  0  0  0  0
   59.1917   26.5064   44.7142 H   0  0  0  0  0  0  0  0  0  0  0  0
   57.5030   26.0260   47.0450 H   0  0  0  0  0  0  0  0  0  0  0  0
   57.8538   28.3291   47.7834 H   0  0  0  0  0  0  0  0  0  0  0  0
   59.2838   27.2047   47.9974 H   0  0  0  0  0  0  0  0  0  0  0  0
   60.2717   29.1420   47.2397 H   0  0  0  0  0  0  0  0  0  0  0  0
   59.8259   31.3510   47.1333 H   0  0  0  0  0  0  0  0  0  0  0  0
   59.9021   34.2228   45.0862 H   0  0  0  0  0  0  0  0  0  0  0  0
   59.3832   35.4155   46.3373 H   0  0  0  0  0  0  0  0  0  0  0  0
   62.1922   33.7742   45.2950 H   0  0  0  0  0  0  0  0  0  0  0  0
   64.1727   33.2169   46.7072 H   0  0  0  0  0  0  0  0  0  0  0  0
   63.9546   33.1276   49.1920 H   0  0  0  0  0  0  0  0  0  0  0  0
   61.7514   33.5944   50.2710 H   0  0  0  0  0  0  0  0  0  0  0  0
   59.7647   34.1511   48.8669 H   0  0  0  0  0  0  0  0  0  0  0  0
   56.7220   32.9165   44.5655 H   0  0  0  0  0  0  0  0  0  0  0  0
   56.2738   30.6298   43.6990 H   0  0  0  0  0  0  0  0  0  0  0  0
   56.5652   28.3757   43.7538 H   0  0  0  0  0  0  0  0  0  0  0  0
   58.3039   27.8702   43.9870 H   0  0  0  0  0  0  0  0  0  0  0  0
   56.6277   25.3304   44.4217 H   0  0  0  0  0  0  0  0  0  0  0  0
  1  2  1  0
  2  3  1  0
  3  4  2  0
  4  5  1  0
  5  6  2  0
  6  7  1  0
  7  8  1  0
  8  9  1  0
  9 10  1  0
 10 11  1  0
 11 12  1  0
 11 13  1  0
 13 14  2  0
 14 15  1  0
 15 16  1  0
 16 17  1  0
 17 18  1  0
 18 19  2  0
 19 20  1  0
 20 21  2  0
 21 22  1  0
 22 23  2  0
 15 24  2  0
 24 25  1  0
 25 26  2  0
 26 27  1  0
 27 28  1  0
 28 29  2  0
  7 30  2  0
 30  3  1  0
 28  9  1  0
 26 13  1  0
 23 18  1  0
  1 31  1  0
  1 32  1  0
  1 33  1  0
  4 34  1  0
  5 35  1  0
  6 36  1  0
  8 37  1  0
  8 38  1  0
  9 39  1  1
 10 40  1  0
 10 41  1  0
 11 42  1  1
 14 43  1  0
 17 44  1  0
 17 45  1  0
 19 46  1  0
 20 47  1  0
 21 48  1  0
 22 49  1  0
 23 50  1  0
 24 51  1  0
 25 52  1  0
 27 53  1  0
 27 54  1  0
 30 55  1  0
M  CHG  1   9   1
M  END
>  <UniqueID>  (40) 
39

>  <SMILES>  (40) 
COc1cccc(C[N@H+]2C[C@@H](F)c3cc(OCc4ccccc4)ccc3CC2=O)c1

>  <Energy>  (40) 
68.39592434008745

>  <Genealogy>  (40) 
COc1cccc(C[NH+]2CC(F)c3cc(OCc4ccccc4)ccc3CC2=O)c1 (protonated)
COc1cccc(C[N@H+]2C[C@@H](F)c3cc(OCc4ccccc4)ccc3CC2=O)c1 (chirality)
COc1cccc(C[N@H+]2C[C@@H](F)c3cc(OCc4ccccc4)ccc3CC2=O)c1 (3D coordinates assigned)
COc1cccc(C[N@H+]2C[C@@H](F)c3cc(OCc4ccccc4)ccc3CC2=O)c1 (nonaromatic ring conformer: 68.39592434008745 kcal/mol)

>  <smiles>  (40) 
COc1cccc(CN2CC(F)c3cc(OCc4ccccc4)ccc3CC2=O)c1

>  <score_type>  (40) 
oracle

>  <origin>  (40) 
adg

>  <m_score__min__energy>  (40) 
-5.8600000000000003

>  <m_primary>  (40) 
energy

$$$$
40:0
     RDKit          3D

 29 31  0  0  0  0  0  0  0  0999 V2000
   68.4070   33.3590   51.3390 C   0  0  0  0  0  0  0  0  0  0  0  0
   67.1210   32.8070   50.9390 N   0  0  0  0  0  0  0  0  0  0  0  0
   66.2800   33.4190   50.1210 N   0  0  0  0  0  0  0  0  0  0  0  0
   65.1840   32.6310   50.0520 C   0  0  0  0  0  0  0  0  0  0  0  0
   63.9860   32.9390   49.2360 C   0  0  0  0  0  0  0  0  0  0  0  0
   63.0370   33.8610   49.7070 C   0  0  0  0  0  0  0  0  0  0  0  0
   61.9000   34.1630   48.9500 C   0  0  0  0  0  0  0  0  0  0  0  0
   61.6860   33.5490   47.7020 C   0  0  0  0  0  0  0  0  0  0  0  0
   60.5180   33.8460   46.9090 N   0  0  0  0  0  0  0  0  0  0  0  0
   59.4590   33.0390   46.6790 C   0  0  0  0  0  0  0  0  0  0  0  0
   58.5700   33.7190   45.8800 C   0  0  0  0  0  0  0  0  0  0  0  0
   57.0240   33.1460   45.2900 Cl  0  0  0  0  0  0  0  0  0  0  0  0
   59.1430   34.9510   45.6530 C   0  0  0  0  0  0  0  0  0  0  0  0
   60.3280   35.0050   46.2910 N   0  0  0  0  0  0  0  0  0  0  0  0
   62.6340   32.6210   47.2370 C   0  0  0  0  0  0  0  0  0  0  0  0
   63.7720   32.3210   47.9930 C   0  0  0  0  0  0  0  0  0  0  0  0
   65.3960   31.5310   50.8700 C   0  0  0  0  0  0  0  0  0  0  0  0
   66.6150   31.6810   51.4120 N   0  0  0  0  0  0  0  0  0  0  0  0
   68.4691   33.3856   52.4369 H   0  0  0  0  0  0  0  0  0  0  0  0
   69.2162   32.7289   50.9412 H   0  0  0  0  0  0  0  0  0  0  0  0
   68.5077   34.3796   50.9412 H   0  0  0  0  0  0  0  0  0  0  0  0
   63.1892   34.3503   50.6804 H   0  0  0  0  0  0  0  0  0  0  0  0
   61.1664   34.8872   49.3339 H   0  0  0  0  0  0  0  0  0  0  0  0
   59.3304   32.0165   47.0637 H   0  0  0  0  0  0  0  0  0  0  0  0
   58.7043   35.7590   45.0491 H   0  0  0  0  0  0  0  0  0  0  0  0
   62.4791   32.1250   46.2674 H   0  0  0  0  0  0  0  0  0  0  0  0
   64.5051   31.5953   47.6110 H   0  0  0  0  0  0  0  0  0  0  0  0
   64.6997   30.6968   51.0415 H   0  0  0  0  0  0  0  0  0  0  0  0
   67.0850   31.0410   52.0900 H   0  0  0  0  0  0  0  0  0  0  0  0
  1  2  1  0
  2  3  1  0
  3  4  2  0
  4  5  1  0
  5  6  2  0
  6  7  1  0
  7  8  2  0
  8  9  1  0
  9 10  1  0
 10 11  2  0
 11 12  1  0
 11 13  1  0
 13 14  2  0
  8 15  1  0
 15 16  2  0
  4 17  1  0
 17 18  2  0
 18  2  1  0
 16  5  1  0
 14  9  1  0
  1 19  1  0
  1 20  1  0
  1 21  1  0
  6 22  1  0
  7 23  1  0
 10 24  1  0
 13 25  1  0
 15 26  1  0
 16 27  1  0
 17 28  1  0
 18 29  1  0
M  CHG  1  18   1
M  END
>  <UniqueID>  (41) 
40

>  <SMILES>  (41) 
Cn1nc(-c2ccc(-n3cc(Cl)cn3)cc2)c[nH+]1

>  <Energy>  (41) 
98.89550067411216

>  <Genealogy>  (41) 
Cn1nc(-c2ccc(-n3cc(Cl)cn3)cc2)c[nH+]1 (protonated)
Cn1nc(-c2ccc(-n3cc(Cl)cn3)cc2)c[nH+]1 (3D coordinates assigned)
Cn1nc(-c2ccc(-n3cc(Cl)cn3)cc2)c[nH+]1 (optimized conformer: 98.89550067411216 kcal/mol)

>  <smiles>  (41) 
Cn1ncc(-c2ccc(-n3cc(Cl)cn3)cc2)n1

>  <score_type>  (41) 
oracle

>  <origin>  (41) 
adg

>  <m_score__min__energy>  (41) 
-5.46

>  <m_primary>  (41) 
energy

$$$$
41:0
     RDKit          3D

 63 65  0  0  0  0  0  0  0  0999 V2000
   60.6370   30.6370   48.8450 C   0  0  0  0  0  0  0  0  0  0  0  0
   60.7120   29.9670   47.4720 C   0  0  0  0  0  0  0  0  0  0  0  0
   59.4100   29.9800   46.7670 N   0  0  0  0  0  0  0  0  0  0  0  0
   59.1540   28.7690   45.9410 C   0  0  0  0  0  0  0  0  0  0  0  0
   59.9720   28.6850   44.6440 C   0  0  0  0  0  0  0  0  0  0  0  0
   59.2230   31.2540   46.0320 C   0  0  0  0  0  0  0  0  0  0  0  0
   58.0780   32.1040   46.6120 C   0  0  0  0  0  0  0  0  0  0  0  0
   57.6350   33.1280   45.6400 N   0  0  0  0  0  0  0  0  0  0  0  0
   58.2420   34.4530   45.8980 C   0  0  0  0  0  0  0  0  0  0  0  0
   59.4430   34.3050   46.7910 C   0  0  0  0  0  0  0  0  0  0  0  0
   60.7020   34.0440   46.2300 C   0  0  0  0  0  0  0  0  0  0  0  0
   61.8200   33.8800   47.0510 C   0  0  0  0  0  0  0  0  0  0  0  0
   61.6980   33.9820   48.4460 C   0  0  0  0  0  0  0  0  0  0  0  0
   62.8870   33.7830   49.3010 C   0  0  0  0  0  0  0  0  0  0  0  0
   63.0320   34.5720   50.4010 N   0  0  0  0  0  0  0  0  0  0  0  0
   64.0950   34.4520   51.2350 C   0  0  0  0  0  0  0  0  0  0  0  0
   65.0740   33.4880   50.9690 C   0  0  0  0  0  0  0  0  0  0  0  0
   66.2330   33.3560   51.8110 N   0  0  0  0  0  0  0  0  0  0  0  0
   67.3400   32.7650   51.0560 C   0  0  0  0  0  0  0  0  0  0  0  0
   64.9330   32.6910   49.8760 N   0  0  0  0  0  0  0  0  0  0  0  0
   63.8640   32.7930   49.0410 C   0  0  0  0  0  0  0  0  0  0  0  0
   63.7680   31.8400   47.8850 C   0  0  0  0  0  0  0  0  0  0  0  0
   60.4310   34.2120   49.0080 C   0  0  0  0  0  0  0  0  0  0  0  0
   59.3130   34.3790   48.1860 C   0  0  0  0  0  0  0  0  0  0  0  0
   57.7920   32.6840   44.2360 C   0  0  0  0  0  0  0  0  0  0  0  0
   57.0430   31.4160   43.9220 C   0  0  0  0  0  0  0  0  0  0  0  0
   56.2570   30.7860   44.8200 N   0  0  0  0  0  0  0  0  0  0  0  0
   55.7780   29.7300   44.1410 C   0  0  0  0  0  0  0  0  0  0  0  0
   56.2810   29.7470   42.8630 C   0  0  0  0  0  0  0  0  0  0  0  0
   57.0860   30.8130   42.7160 N   0  0  0  0  0  0  0  0  0  0  0  0
   60.7226   29.8725   49.6312 H   0  0  0  0  0  0  0  0  0  0  0  0
   61.4598   31.3601   48.9456 H   0  0  0  0  0  0  0  0  0  0  0  0
   59.6747   31.1603   48.9456 H   0  0  0  0  0  0  0  0  0  0  0  0
   61.4519   30.5013   46.8579 H   0  0  0  0  0  0  0  0  0  0  0  0
   61.0001   28.9166   47.6261 H   0  0  0  0  0  0  0  0  0  0  0  0
   59.3886   27.8839   46.5506 H   0  0  0  0  0  0  0  0  0  0  0  0
   58.0983   28.8213   45.6365 H   0  0  0  0  0  0  0  0  0  0  0  0
   61.0386   28.5755   44.8896 H   0  0  0  0  0  0  0  0  0  0  0  0
   59.6399   27.8162   44.0567 H   0  0  0  0  0  0  0  0  0  0  0  0
   59.8234   29.6031   44.0567 H   0  0  0  0  0  0  0  0  0  0  0  0
   60.1562   31.8338   46.0871 H   0  0  0  0  0  0  0  0  0  0  0  0
   58.9630   31.0061   44.9923 H   0  0  0  0  0  0  0  0  0  0  0  0
   57.2296   31.4474   46.8550 H   0  0  0  0  0  0  0  0  0  0  0  0
   58.4419   32.6128   47.5168 H   0  0  0  0  0  0  0  0  0  0  0  0
   58.5514   34.9037   44.9435 H   0  0  0  0  0  0  0  0  0  0  0  0
   57.5017   35.0984   46.3935 H   0  0  0  0  0  0  0  0  0  0  0  0
   60.8093   33.9681   45.1379 H   0  0  0  0  0  0  0  0  0  0  0  0
   62.8019   33.6697   46.6020 H   0  0  0  0  0  0  0  0  0  0  0  0
   64.1868   35.1074   52.1137 H   0  0  0  0  0  0  0  0  0  0  0  0
   66.5230   34.2940   52.1760 H   0  0  0  0  0  0  0  0  0  0  0  0
   66.0060   32.7380   52.6250 H   0  0  0  0  0  0  0  0  0  0  0  0
   68.0888   32.3652   51.7556 H   0  0  0  0  0  0  0  0  0  0  0  0
   66.9583   31.9506   50.4226 H   0  0  0  0  0  0  0  0  0  0  0  0
   67.8043   33.5352   50.4226 H   0  0  0  0  0  0  0  0  0  0  0  0
   63.6645   30.8127   48.2643 H   0  0  0  0  0  0  0  0  0  0  0  0
   62.8910   32.0945   47.2718 H   0  0  0  0  0  0  0  0  0  0  0  0
   64.6782   31.9145   47.2718 H   0  0  0  0  0  0  0  0  0  0  0  0
   60.3183   34.2609   50.1011 H   0  0  0  0  0  0  0  0  0  0  0  0
   58.3269   34.5693   48.6348 H   0  0  0  0  0  0  0  0  0  0  0  0
   57.4209   33.4809   43.5748 H   0  0  0  0  0  0  0  0  0  0  0  0
   58.8608   32.4770   44.0787 H   0  0  0  0  0  0  0  0  0  0  0  0
   55.0913   28.9715   44.5450 H   0  0  0  0  0  0  0  0  0  0  0  0
   56.0596   29.0045   42.0822 H   0  0  0  0  0  0  0  0  0  0  0  0
  1  2  1  0
  2  3  1  0
  3  4  1  0
  4  5  1  0
  3  6  1  0
  6  7  1  0
  7  8  1  0
  8  9  1  0
  9 10  1  0
 10 11  2  0
 11 12  1  0
 12 13  2  0
 13 14  1  0
 14 15  2  0
 15 16  1  0
 16 17  2  0
 17 18  1  0
 18 19  1  0
 17 20  1  0
 20 21  2  0
 21 22  1  0
 13 23  1  0
 23 24  2  0
  8 25  1  0
 25 26  1  0
 26 27  2  0
 27 28  1  0
 28 29  2  0
 29 30  1  0
 24 10  1  0
 30 26  1  0
 21 14  1  0
  1 31  1  0
  1 32  1  0
  1 33  1  0
  2 34  1  0
  2 35  1  0
  4 36  1  0
  4 37  1  0
  5 38  1  0
  5 39  1  0
  5 40  1  0
  6 41  1  0
  6 42  1  0
  7 43  1  0
  7 44  1  0
  9 45  1  0
  9 46  1  0
 11 47  1  0
 12 48  1  0
 16 49  1  0
 18 50  1  0
 18 51  1  0
 19 52  1  0
 19 53  1  0
 19 54  1  0
 22 55  1  0
 22 56  1  0
 22 57  1  0
 23 58  1  0
 24 59  1  0
 25 60  1  0
 25 61  1  0
 28 62  1  0
 29 63  1  0
M  CHG  2  18   1  30  -1
M  END
>  <UniqueID>  (42) 
41

>  <SMILES>  (42) 
CCN(CC)CCN(Cc1ccc(-c2ncc([NH2+]C)nc2C)cc1)Cc1ncc[n-]1

>  <Energy>  (42) 
101.8205441912617

>  <Genealogy>  (42) 
CCN(CC)CCN(Cc1ccc(-c2ncc([NH2+]C)nc2C)cc1)Cc1ncc[n-]1 (protonated)
CCN(CC)CCN(Cc1ccc(-c2ncc([NH2+]C)nc2C)cc1)Cc1ncc[n-]1 (3D coordinates assigned)
CCN(CC)CCN(Cc1ccc(-c2ncc([NH2+]C)nc2C)cc1)Cc1ncc[n-]1 (optimized conformer: 101.8205441912617 kcal/mol)

>  <smiles>  (42) 
CCN(CC)CCN(Cc1ccc(-c2ncc(NC)nc2C)cc1)Cc1ncc[nH]1

>  <score_type>  (42) 
oracle

>  <origin>  (42) 
adg

>  <m_score__min__energy>  (42) 
-8.3800000000000008

>  <m_primary>  (42) 
energy

$$$$
42:0
     RDKit          3D

 61 65  0  0  0  0  0  0  0  0999 V2000
   57.6830   29.8879   52.2701 H   0  0  0  0  0  0  0  0  0  0  0  0
   58.0630   30.6930   51.6240 C   0  0  0  0  0  0  0  0  0  0  0  0
   58.0670   31.9470   52.0830 C   0  0  0  0  0  0  0  0  0  0  0  0
   57.7054   32.1518   53.1015 H   0  0  0  0  0  0  0  0  0  0  0  0
   58.5560   33.0790   51.2330 C   0  0  0  0  0  0  0  0  0  0  0  0
   58.9620   33.8660   51.8856 H   0  0  0  0  0  0  0  0  0  0  0  0
   57.7085   33.4571   50.6425 H   0  0  0  0  0  0  0  0  0  0  0  0
   59.6350   32.6300   50.2770 C   0  0  0  0  0  0  0  0  0  0  0  0
   59.5990   31.3330   49.7070 C   0  0  0  0  0  0  0  0  0  0  0  0
   60.5370   31.0150   48.6700 C   0  0  0  0  0  0  0  0  0  0  0  0
   60.4900   29.9370   47.9240 N   0  0  0  0  0  0  0  0  0  0  0  0
   60.2780   28.5250   48.2290 C   0  0  0  0  0  0  0  0  0  0  0  0
   60.4415   28.3506   49.3027 H   0  0  0  0  0  0  0  0  0  0  0  0
   60.9842   27.9092   47.6528 H   0  0  0  0  0  0  0  0  0  0  0  0
   58.8400   28.1480   47.8600 C   0  0  0  0  0  0  0  0  0  0  0  0
   58.2779   29.0678   47.6408 H   0  0  0  0  0  0  0  0  0  0  0  0
   58.4042   27.6056   48.7120 H   0  0  0  0  0  0  0  0  0  0  0  0
   58.7800   27.2570   46.6740 N   0  0  0  0  0  0  0  0  0  0  0  0
   59.9270   27.4090   45.7480 C   0  0  0  0  0  0  0  0  0  0  0  0
   59.8374   26.6631   44.9445 H   0  0  0  0  0  0  0  0  0  0  0  0
   60.8530   27.2608   46.3229 H   0  0  0  0  0  0  0  0  0  0  0  0
   59.9720   28.8120   45.1220 C   0  0  0  0  0  0  0  0  0  0  0  0
   60.5076   28.7636   44.1624 H   0  0  0  0  0  0  0  0  0  0  0  0
   60.4918   29.4935   45.8115 H   0  0  0  0  0  0  0  0  0  0  0  0
   58.6130   29.3140   44.8920 N   0  0  0  0  0  0  0  0  0  0  0  0
   58.3700   30.7310   44.7960 C   0  0  0  0  0  0  0  0  0  0  0  0
   57.9970   31.3080   43.5710 C   0  0  0  0  0  0  0  0  0  0  0  0
   57.8782   30.6728   42.6808 H   0  0  0  0  0  0  0  0  0  0  0  0
   57.7760   32.6850   43.4770 C   0  0  0  0  0  0  0  0  0  0  0  0
   57.4779   33.1288   42.5157 H   0  0  0  0  0  0  0  0  0  0  0  0
   57.9330   33.4980   44.6010 C   0  0  0  0  0  0  0  0  0  0  0  0
   57.7564   34.5811   44.5248 H   0  0  0  0  0  0  0  0  0  0  0  0
   58.3150   32.9360   45.8250 C   0  0  0  0  0  0  0  0  0  0  0  0
   58.5380   33.9840   47.2630 S   0  0  0  0  0  0  0  0  0  0  0  0
   59.8290   34.9950   46.4750 C   0  0  0  0  0  0  0  0  0  0  0  0
   60.4429   35.4757   47.2509 H   0  0  0  0  0  0  0  0  0  0  0  0
   60.4661   34.3532   45.8488 H   0  0  0  0  0  0  0  0  0  0  0  0
   59.3586   35.7674   45.8488 H   0  0  0  0  0  0  0  0  0  0  0  0
   58.5390   31.5580   45.9200 C   0  0  0  0  0  0  0  0  0  0  0  0
   58.8492   31.1194   46.8799 H   0  0  0  0  0  0  0  0  0  0  0  0
   57.5220   28.3440   44.7510 C   0  0  0  0  0  0  0  0  0  0  0  0
   57.6754   27.7599   43.8316 H   0  0  0  0  0  0  0  0  0  0  0  0
   56.5685   28.8904   44.7029 H   0  0  0  0  0  0  0  0  0  0  0  0
   57.4820   27.3840   45.9600 C   0  0  0  0  0  0  0  0  0  0  0  0
   57.1858   26.3874   45.6008 H   0  0  0  0  0  0  0  0  0  0  0  0
   56.7635   27.8060   46.6781 H   0  0  0  0  0  0  0  0  0  0  0  0
   61.5630   31.9500   48.3770 C   0  0  0  0  0  0  0  0  0  0  0  0
   62.5740   31.6690   47.4280 C   0  0  0  0  0  0  0  0  0  0  0  0
   62.5806   30.6982   46.9109 H   0  0  0  0  0  0  0  0  0  0  0  0
   63.5640   32.6120   47.1410 C   0  0  0  0  0  0  0  0  0  0  0  0
   64.3468   32.3782   46.4044 H   0  0  0  0  0  0  0  0  0  0  0  0
   63.5630   33.8480   47.7850 C   0  0  0  0  0  0  0  0  0  0  0  0
   64.3448   34.5876   47.5572 H   0  0  0  0  0  0  0  0  0  0  0  0
   62.5710   34.1470   48.7180 C   0  0  0  0  0  0  0  0  0  0  0  0
   62.5705   35.1259   49.2197 H   0  0  0  0  0  0  0  0  0  0  0  0
   61.5720   33.2070   49.0220 C   0  0  0  0  0  0  0  0  0  0  0  0
   60.5990   33.5190   49.9170 N   0  0  0  0  0  0  0  0  0  0  0  0
   60.5940   34.4720   50.3500 H   0  0  0  0  0  0  0  0  0  0  0  0
   58.5650   30.3510   50.2450 C   0  0  0  0  0  0  0  0  0  0  0  0
   59.0216   29.3508   50.2800 H   0  0  0  0  0  0  0  0  0  0  0  0
   57.6988   30.3942   49.5683 H   0  0  0  0  0  0  0  0  0  0  0  0
  1  2  1  0
  2  3  2  0
  3  4  1  0
  3  5  1  0
  5  6  1  0
  5  7  1  0
  5  8  1  0
  8  9  2  0
  9 10  1  0
 10 11  2  0
 11 12  1  0
 12 13  1  0
 12 14  1  0
 12 15  1  0
 15 16  1  0
 15 17  1  0
 15 18  1  0
 18 19  1  0
 19 20  1  0
 19 21  1  0
 19 22  1  0
 22 23  1  0
 22 24  1  0
 22 25  1  0
 25 26  1  0
 26 27  2  0
 27 28  1  0
 27 29  1  0
 29 30  1  0
 29 31  2  0
 31 32  1  0
 31 33  1  0
 33 34  1  0
 34 35  1  0
 35 36  1  0
 35 37  1  0
 35 38  1  0
 33 39  2  0
 39 40  1  0
 25 41  1  0
 41 42  1  0
 41 43  1  0
 41 44  1  0
 44 45  1  0
 44 46  1  0
 10 47  1  0
 47 48  2  0
 48 49  1  0
 48 50  1  0
 50 51  1  0
 50 52  2  0
 52 53  1  0
 52 54  1  0
 54 55  1  0
 54 56  2  0
 56 57  1  0
 57 58  1  0
  9 59  1  0
 59 60  1  0
 59 61  1  0
 59  2  1  0
 57  8  1  0
 44 18  1  0
 56 47  1  0
 39 26  1  0
M  END
>  <UniqueID>  (43) 
42

>  <SMILES>  (43) 
CSc1cccc(N2CCN(CC/N=c3\c4c([nH]c5ccccc35)CC=CC4)CC2)c1

>  <Energy>  (43) 
93.24832837533029

>  <Genealogy>  (43) 
CSc1cccc(N2CCN(CC/N=c3\c4c([nH]c5ccccc35)CC=CC4)CC2)c1 (cis-trans isomerization)
CSc1cccc(N2CCN(CC/N=c3\c4c([nH]c5ccccc35)CC=CC4)CC2)c1 (3D coordinates assigned)
CSc1cccc(N2CCN(CC/N=c3\c4c([nH]c5ccccc35)CC=CC4)CC2)c1 (nonaromatic ring conformer: 93.24832837533029 kcal/mol)

>  <smiles>  (43) 
CSc1cccc(N2CCN(CCN=c3c4c([nH]c5ccccc35)CC=CC4)CC2)c1

>  <score_type>  (43) 
oracle

>  <origin>  (43) 
adg

>  <m_score__min__energy>  (43) 
-9.3699999999999992

>  <m_primary>  (43) 
energy

$$$$
43:0
     RDKit          3D

 44 44  0  0  0  0  0  0  0  0999 V2000
   60.1080   33.9780   46.4640 C   0  0  0  0  0  0  0  0  0  0  0  0
   60.1640   32.4470   46.3970 C   0  0  0  0  0  0  0  0  0  0  0  0
   58.8370   31.8100   46.6050 N   0  0  0  0  0  0  0  0  0  0  0  0
   58.7770   30.9520   47.8190 C   0  0  0  0  0  0  0  0  0  0  0  0
   60.1470   30.5040   48.3500 C   0  0  0  0  0  0  0  0  0  0  0  0
   57.7560   32.8360   46.6140 C   0  0  0  0  0  0  0  0  0  0  0  0
   57.0200   32.9390   45.2570 C   0  0  0  0  0  0  0  0  0  0  0  0
   57.9410   32.7010   44.0510 C   0  0  0  0  0  0  0  0  0  0  0  0
   57.9730   31.2750   43.6770 N   0  0  0  0  0  0  0  0  0  0  0  0
   56.6320   30.6880   43.5500 C   0  0  0  0  0  0  0  0  0  0  0  0
   56.3340   29.7910   44.7110 C   0  0  0  0  0  0  0  0  0  0  0  0
   55.1670   29.3420   44.8660 O   0  0  0  0  0  0  0  0  0  0  0  0
   57.3850   29.4430   45.6210 N   0  0  0  0  0  0  0  0  0  0  0  0
   57.8770   28.1230   45.9040 C   0  0  0  0  0  0  0  0  0  0  0  0
   57.0310   27.1030   46.3800 C   0  0  0  0  0  0  0  0  0  0  0  0
   57.5470   25.8390   46.6780 C   0  0  0  0  0  0  0  0  0  0  0  0
   58.9100   25.5820   46.5150 C   0  0  0  0  0  0  0  0  0  0  0  0
   59.7610   26.5910   46.0640 C   0  0  0  0  0  0  0  0  0  0  0  0
   59.2530   27.8620   45.7650 C   0  0  0  0  0  0  0  0  0  0  0  0
   60.3540   29.1140   45.2090 Cl  0  0  0  0  0  0  0  0  0  0  0  0
   60.0963   34.2988   47.5161 H   0  0  0  0  0  0  0  0  0  0  0  0
   60.9913   34.3995   45.9620 H   0  0  0  0  0  0  0  0  0  0  0  0
   59.1962   34.3339   45.9620 H   0  0  0  0  0  0  0  0  0  0  0  0
   60.5434   32.1526   45.4074 H   0  0  0  0  0  0  0  0  0  0  0  0
   60.8250   32.1051   47.2071 H   0  0  0  0  0  0  0  0  0  0  0  0
   58.6710   31.1670   45.7950 H   0  0  0  0  0  0  0  0  0  0  0  0
   58.2681   31.5166   48.6141 H   0  0  0  0  0  0  0  0  0  0  0  0
   58.2390   30.0372   47.5296 H   0  0  0  0  0  0  0  0  0  0  0  0
   60.1333   30.5085   49.4499 H   0  0  0  0  0  0  0  0  0  0  0  0
   60.3652   29.4877   47.9902 H   0  0  0  0  0  0  0  0  0  0  0  0
   60.9236   31.1950   47.9902 H   0  0  0  0  0  0  0  0  0  0  0  0
   57.0249   32.5702   47.3917 H   0  0  0  0  0  0  0  0  0  0  0  0
   58.2247   33.8111   46.8129 H   0  0  0  0  0  0  0  0  0  0  0  0
   56.2163   32.1882   45.2370 H   0  0  0  0  0  0  0  0  0  0  0  0
   56.6292   33.9638   45.1734 H   0  0  0  0  0  0  0  0  0  0  0  0
   57.5722   33.2877   43.1967 H   0  0  0  0  0  0  0  0  0  0  0  0
   58.9600   33.0121   44.3245 H   0  0  0  0  0  0  0  0  0  0  0  0
   58.4680   30.7520   44.4360 H   0  0  0  0  0  0  0  0  0  0  0  0
   55.8860   31.4958   43.5172 H   0  0  0  0  0  0  0  0  0  0  0  0
   56.5926   30.0937   42.6252 H   0  0  0  0  0  0  0  0  0  0  0  0
   55.9580   27.3022   46.5180 H   0  0  0  0  0  0  0  0  0  0  0  0
   56.8783   25.0449   47.0417 H   0  0  0  0  0  0  0  0  0  0  0  0
   59.3125   24.5838   46.7423 H   0  0  0  0  0  0  0  0  0  0  0  0
   60.8353   26.3880   45.9426 H   0  0  0  0  0  0  0  0  0  0  0  0
  1  2  1  0
  2  3  1  0
  3  4  1  0
  4  5  1  0
  3  6  1  0
  6  7  1  0
  7  8  1  0
  8  9  1  0
  9 10  1  0
 10 11  1  0
 11 12  2  0
 11 13  1  0
 13 14  1  0
 14 15  2  0
 15 16  1  0
 16 17  2  0
 17 18  1  0
 18 19  2  0
 19 20  1  0
 19 14  1  0
  1 21  1  0
  1 22  1  0
  1 23  1  0
  2 24  1  0
  2 25  1  0
  3 26  1  0
  4 27  1  0
  4 28  1  0
  5 29  1  0
  5 30  1  0
  5 31  1  0
  6 32  1  0
  6 33  1  0
  7 34  1  0
  7 35  1  0
  8 36  1  0
  8 37  1  0
  9 38  1  0
 10 39  1  0
 10 40  1  0
 15 41  1  0
 16 42  1  0
 17 43  1  0
 18 44  1  0
M  CHG  2   3   1  13  -1
M  END
>  <UniqueID>  (44) 
43

>  <SMILES>  (44) 
CC[NH+](CC)CCCNCC(=O)[N-]c1ccccc1Cl

>  <Energy>  (44) 
44.420902508978074

>  <Genealogy>  (44) 
CC[NH+](CC)CCCNCC(=O)[N-]c1ccccc1Cl (protonated)
CC[NH+](CC)CCCNCC(=O)[N-]c1ccccc1Cl (3D coordinates assigned)
CC[NH+](CC)CCCNCC(=O)[N-]c1ccccc1Cl (optimized conformer: 44.420902508978074 kcal/mol)

>  <smiles>  (44) 
CCN(CC)CCCNCC(=O)Nc1ccccc1Cl

>  <score_type>  (44) 
oracle

>  <origin>  (44) 
adg

>  <m_score__min__energy>  (44) 
-5.9000000000000004

>  <m_primary>  (44) 
energy

$$$$
