0:0
     RDKit          3D

 42 44  0  0  0  0  0  0  0  0999 V2000
   60.0310   33.8440   49.7860 C   0  0  0  0  0  0  0  0  0  0  0  0
   61.2690   34.1230   48.9320 C   0  0  0  0  0  0  0  0  0  0  0  0
   61.0920   33.6710   47.5320 N   0  0  0  0  0  0  0  0  0  0  0  0
   62.3580   33.8300   46.7790 C   0  0  0  0  0  0  0  0  0  0  0  0
   63.3610   32.7500   47.1810 C   0  0  0  0  0  0  0  0  0  0  0  0
   59.9770   34.3830   46.8560 C   0  0  0  0  0  0  0  0  0  0  0  0
   59.2120   33.4350   45.9610 C   0  0  0  0  0  0  0  0  0  0  0  0
   58.5060   33.9420   44.8510 C   0  0  0  0  0  0  0  0  0  0  0  0
   57.7740   33.0910   44.0050 C   0  0  0  0  0  0  0  0  0  0  0  0
   57.7100   31.7040   44.2460 C   0  0  0  0  0  0  0  0  0  0  0  0
   56.9220   30.8180   43.3250 C   0  0  0  0  0  0  0  0  0  0  0  0
   58.4000   31.2100   45.3680 C   0  0  0  0  0  0  0  0  0  0  0  0
   59.1240   32.0520   46.2050 C   0  0  0  0  0  0  0  0  0  0  0  0
   59.6960   31.3600   47.2190 N   0  0  0  0  0  0  0  0  0  0  0  0
   59.3370   30.0780   47.0220 C   0  0  0  0  0  0  0  0  0  0  0  0
   59.6890   28.9860   47.8150 C   0  0  0  0  0  0  0  0  0  0  0  0
   59.2130   27.7190   47.4440 C   0  0  0  0  0  0  0  0  0  0  0  0
   58.4010   27.5670   46.3020 C   0  0  0  0  0  0  0  0  0  0  0  0
   58.0570   28.6810   45.5150 C   0  0  0  0  0  0  0  0  0  0  0  0
   58.5430   29.9360   45.9010 C   0  0  0  0  0  0  0  0  0  0  0  0
   60.2991   33.9044   50.8511 H   0  0  0  0  0  0  0  0  0  0  0  0
   59.2544   34.5896   49.5605 H   0  0  0  0  0  0  0  0  0  0  0  0
   59.6493   32.8373   49.5605 H   0  0  0  0  0  0  0  0  0  0  0  0
   61.4647   35.2055   48.9335 H   0  0  0  0  0  0  0  0  0  0  0  0
   62.1125   33.5651   49.3647 H   0  0  0  0  0  0  0  0  0  0  0  0
   62.1508   33.7482   45.7018 H   0  0  0  0  0  0  0  0  0  0  0  0
   62.7868   34.8163   47.0098 H   0  0  0  0  0  0  0  0  0  0  0  0
   63.4160   32.6908   48.2780 H   0  0  0  0  0  0  0  0  0  0  0  0
   63.0365   31.7796   46.7772 H   0  0  0  0  0  0  0  0  0  0  0  0
   64.3527   33.0020   46.7772 H   0  0  0  0  0  0  0  0  0  0  0  0
   59.2956   34.7935   47.6157 H   0  0  0  0  0  0  0  0  0  0  0  0
   60.3927   35.1958   46.2423 H   0  0  0  0  0  0  0  0  0  0  0  0
   58.5284   35.0220   44.6434 H   0  0  0  0  0  0  0  0  0  0  0  0
   57.2422   33.5148   43.1404 H   0  0  0  0  0  0  0  0  0  0  0  0
   56.3068   30.1263   43.9191 H   0  0  0  0  0  0  0  0  0  0  0  0
   56.2698   31.4362   42.6906 H   0  0  0  0  0  0  0  0  0  0  0  0
   57.6121   30.2424   42.6906 H   0  0  0  0  0  0  0  0  0  0  0  0
   60.2920   31.7170   47.9980 H   0  0  0  0  0  0  0  0  0  0  0  0
   60.3216   29.1142   48.7057 H   0  0  0  0  0  0  0  0  0  0  0  0
   59.4754   26.8384   48.0487 H   0  0  0  0  0  0  0  0  0  0  0  0
   58.0330   26.5684   46.0237 H   0  0  0  0  0  0  0  0  0  0  0  0
   57.4244   28.5693   44.6221 H   0  0  0  0  0  0  0  0  0  0  0  0
  1  2  1  0
  2  3  1  0
  3  4  1  0
  4  5  1  0
  3  6  1  0
  6  7  1  0
  7  8  2  0
  8  9  1  0
  9 10  2  0
 10 11  1  0
 10 12  1  0
 12 13  2  0
 13 14  1  0
 14 15  1  0
 15 16  2  0
 16 17  1  0
 17 18  2  0
 18 19  1  0
 19 20  2  0
 13  7  1  0
 20 15  1  0
 20 12  1  0
  1 21  1  0
  1 22  1  0
  1 23  1  0
  2 24  1  0
  2 25  1  0
  4 26  1  0
  4 27  1  0
  5 28  1  0
  5 29  1  0
  5 30  1  0
  6 31  1  0
  6 32  1  0
  8 33  1  0
  9 34  1  0
 11 35  1  0
 11 36  1  0
 11 37  1  0
 14 38  1  0
 16 39  1  0
 17 40  1  0
 18 41  1  0
 19 42  1  0
M  END
>  <UniqueID>  (1) 
1

>  <SMILES>  (1) 
CCN(CC)Cc1ccc(C)c2c1[nH]c1ccccc12

>  <Energy>  (1) 
85.0364839561241

>  <Genealogy>  (1) 
CCN(CC)Cc1ccc(C)c2c1[nH]c1ccccc12 (3D coordinates assigned)
CCN(CC)Cc1ccc(C)c2c1[nH]c1ccccc12 (optimized conformer: 85.0364839561241 kcal/mol)

>  <smiles>  (1) 
CCN(CC)Cc1ccc(C)c2c1[nH]c1ccccc12

>  <score_type>  (1) 
oracle

>  <origin>  (1) 
adg

>  <m_score__min__energy>  (1) 
-7.0599999999999996

>  <m_primary>  (1) 
energy

$$$$
1:0
     RDKit          3D

 57 59  0  0  0  0  0  0  0  0999 V2000
   62.1860   33.7840   46.3680 C   0  0  0  0  0  0  0  0  0  0  0  0
   60.8950   33.8470   46.9630 O   0  0  0  0  0  0  0  0  0  0  0  0
   59.6870   33.6350   46.2770 C   0  0  0  0  0  0  0  0  0  0  0  0
   59.0390   34.6690   45.5790 C   0  0  0  0  0  0  0  0  0  0  0  0
   57.8470   34.4240   44.8980 C   0  0  0  0  0  0  0  0  0  0  0  0
   57.2900   33.1450   44.8960 C   0  0  0  0  0  0  0  0  0  0  0  0
   57.9190   32.0930   45.5870 C   0  0  0  0  0  0  0  0  0  0  0  0
   57.3800   30.7950   45.6110 O   0  0  0  0  0  0  0  0  0  0  0  0
   57.2420   29.9560   44.4690 C   0  0  0  0  0  0  0  0  0  0  0  0
   59.1160   32.3450   46.2850 C   0  0  0  0  0  0  0  0  0  0  0  0
   59.7800   31.2520   47.0220 C   0  0  0  0  0  0  0  0  0  0  0  0
   60.8880   30.8170   46.6120 O   0  0  0  0  0  0  0  0  0  0  0  0
   59.1890   30.6690   48.1880 N   0  0  0  0  0  0  0  0  0  0  0  0
   58.8790   31.4240   49.3950 C   0  0  0  0  0  0  0  0  0  0  0  0
   60.1740   31.7100   50.1750 C   0  0  0  0  0  0  0  0  0  0  0  0
   61.3150   32.1540   49.3320 N   0  0  0  0  0  0  0  0  0  0  0  0
   62.4220   31.1570   49.2630 C   0  0  0  0  0  0  0  0  0  0  0  0
   63.5920   31.4610   50.2150 C   0  0  0  0  0  0  0  0  0  0  0  0
   64.0150   32.8600   50.1070 N   0  0  0  0  0  0  0  0  0  0  0  0
   65.3000   33.2570   50.6090 C   0  0  0  0  0  0  0  0  0  0  0  0
   66.4540   32.6700   50.0710 C   0  0  0  0  0  0  0  0  0  0  0  0
   67.7170   33.0220   50.5540 C   0  0  0  0  0  0  0  0  0  0  0  0
   67.8360   33.9610   51.5790 C   0  0  0  0  0  0  0  0  0  0  0  0
   66.6940   34.5600   52.1170 C   0  0  0  0  0  0  0  0  0  0  0  0
   65.4190   34.2310   51.6280 C   0  0  0  0  0  0  0  0  0  0  0  0
   64.2100   34.8980   52.2240 C   0  0  0  0  0  0  0  0  0  0  0  0
   63.2070   33.8080   49.3440 C   0  0  0  0  0  0  0  0  0  0  0  0
   61.7300   33.5510   49.6440 C   0  0  0  0  0  0  0  0  0  0  0  0
   62.9518   33.7466   47.1567 H   0  0  0  0  0  0  0  0  0  0  0  0
   62.2583   32.8813   45.7436 H   0  0  0  0  0  0  0  0  0  0  0  0
   62.3459   34.6754   45.7436 H   0  0  0  0  0  0  0  0  0  0  0  0
   59.4754   35.6787   45.5699 H   0  0  0  0  0  0  0  0  0  0  0  0
   57.3444   35.2418   44.3607 H   0  0  0  0  0  0  0  0  0  0  0  0
   56.3532   32.9577   44.3508 H   0  0  0  0  0  0  0  0  0  0  0  0
   57.0715   28.9191   44.7943 H   0  0  0  0  0  0  0  0  0  0  0  0
   56.3877   30.2961   43.8652 H   0  0  0  0  0  0  0  0  0  0  0  0
   58.1602   30.0046   43.8652 H   0  0  0  0  0  0  0  0  0  0  0  0
   58.4011   32.3754   49.1185 H   0  0  0  0  0  0  0  0  0  0  0  0
   58.1957   30.8370   50.0263 H   0  0  0  0  0  0  0  0  0  0  0  0
   59.9640   32.4988   50.9124 H   0  0  0  0  0  0  0  0  0  0  0  0
   60.4776   30.7592   50.6375 H   0  0  0  0  0  0  0  0  0  0  0  0
   60.9230   32.1930   48.3590 H   0  0  0  0  0  0  0  0  0  0  0  0
   62.0144   30.1680   49.5193 H   0  0  0  0  0  0  0  0  0  0  0  0
   62.8237   31.1947   48.2396 H   0  0  0  0  0  0  0  0  0  0  0  0
   63.2741   31.2613   51.2490 H   0  0  0  0  0  0  0  0  0  0  0  0
   64.4411   30.8186   49.9387 H   0  0  0  0  0  0  0  0  0  0  0  0
   66.3646   31.9280   49.2639 H   0  0  0  0  0  0  0  0  0  0  0  0
   68.6180   32.5585   50.1258 H   0  0  0  0  0  0  0  0  0  0  0  0
   68.8305   34.2302   51.9643 H   0  0  0  0  0  0  0  0  0  0  0  0
   66.7942   35.2947   52.9295 H   0  0  0  0  0  0  0  0  0  0  0  0
   64.2751   34.8621   53.3215 H   0  0  0  0  0  0  0  0  0  0  0  0
   64.1692   35.9463   51.8932 H   0  0  0  0  0  0  0  0  0  0  0  0
   63.3014   34.3735   51.8932 H   0  0  0  0  0  0  0  0  0  0  0  0
   63.4698   34.8357   49.6351 H   0  0  0  0  0  0  0  0  0  0  0  0
   63.3973   33.6798   48.2682 H   0  0  0  0  0  0  0  0  0  0  0  0
   61.5494   33.7416   50.7122 H   0  0  0  0  0  0  0  0  0  0  0  0
   61.1390   34.2240   49.0054 H   0  0  0  0  0  0  0  0  0  0  0  0
  1  2  1  0
  2  3  1  0
  3  4  2  0
  4  5  1  0
  5  6  2  0
  6  7  1  0
  7  8  1  0
  8  9  1  0
  7 10  2  0
 10 11  1  0
 11 12  2  0
 11 13  1  0
 13 14  1  0
 14 15  1  0
 15 16  1  0
 16 17  1  0
 17 18  1  0
 18 19  1  0
 19 20  1  0
 20 21  2  0
 21 22  1  0
 22 23  2  0
 23 24  1  0
 24 25  2  0
 25 26  1  0
 19 27  1  0
 27 28  1  0
 10  3  1  0
 28 16  1  0
 25 20  1  0
  1 29  1  0
  1 30  1  0
  1 31  1  0
  4 32  1  0
  5 33  1  0
  6 34  1  0
  9 35  1  0
  9 36  1  0
  9 37  1  0
 14 38  1  0
 14 39  1  0
 15 40  1  0
 15 41  1  0
 16 42  1  0
 17 43  1  0
 17 44  1  0
 18 45  1  0
 18 46  1  0
 21 47  1  0
 22 48  1  0
 23 49  1  0
 24 50  1  0
 26 51  1  0
 26 52  1  0
 26 53  1  0
 27 54  1  0
 27 55  1  0
 28 56  1  0
 28 57  1  0
M  CHG  2  13  -1  16   1
M  END
>  <UniqueID>  (2) 
2

>  <SMILES>  (2) 
COc1cccc(OC)c1C(=O)[N-]CC[NH+]1CCN(c2ccccc2C)CC1

>  <Energy>  (2) 
73.58263214052164

>  <Genealogy>  (2) 
COc1cccc(OC)c1C(=O)[N-]CC[NH+]1CCN(c2ccccc2C)CC1 (protonated)
COc1cccc(OC)c1C(=O)[N-]CC[NH+]1CCN(c2ccccc2C)CC1 (3D coordinates assigned)
COc1cccc(OC)c1C(=O)[N-]CC[NH+]1CCN(c2ccccc2C)CC1 (nonaromatic ring conformer: 73.58263214052164 kcal/mol)

>  <smiles>  (2) 
COc1cccc(OC)c1C(=O)NCCN1CCN(c2ccccc2C)CC1

>  <score_type>  (2) 
oracle

>  <origin>  (2) 
adg

>  <m_score__min__energy>  (2) 
-7.8600000000000003

>  <m_primary>  (2) 
energy

$$$$
2:0
     RDKit          3D

 36 37  0  0  0  0  0  0  0  0999 V2000
   55.1300   26.7200   45.9520 O   0  0  0  0  0  0  0  0  0  0  0  0
   56.2410   26.2600   46.3270 C   0  0  0  0  0  0  0  0  0  0  0  0
   56.2720   25.1510   47.1620 O   0  0  0  0  0  0  0  0  0  0  0  0
   57.5210   26.9500   45.9550 C   0  0  0  0  0  0  0  0  0  0  0  0
   58.1130   27.7820   47.1040 C   0  0  0  0  0  0  0  0  0  0  0  0
   58.9270   29.0230   46.6670 C   0  0  0  0  0  0  0  0  0  0  0  0
   58.1410   30.3470   46.4100 C   0  0  0  0  0  0  0  0  0  0  0  0
   57.5650   30.5320   44.9970 C   0  0  0  0  0  0  0  0  0  0  0  0
   58.0910   31.5100   44.1240 C   0  0  0  0  0  0  0  0  0  0  0  0
   57.6180   31.6370   42.8150 C   0  0  0  0  0  0  0  0  0  0  0  0
   56.6490   30.7600   42.3310 C   0  0  0  0  0  0  0  0  0  0  0  0
   56.1730   29.7360   43.1470 C   0  0  0  0  0  0  0  0  0  0  0  0
   56.6430   29.6040   44.4570 C   0  0  0  0  0  0  0  0  0  0  0  0
   58.9320   31.5420   46.9390 C   0  0  0  0  0  0  0  0  0  0  0  0
   58.3030   32.7670   47.2470 C   0  0  0  0  0  0  0  0  0  0  0  0
   59.0540   33.8560   47.6970 C   0  0  0  0  0  0  0  0  0  0  0  0
   60.4390   33.7440   47.8340 C   0  0  0  0  0  0  0  0  0  0  0  0
   61.0760   32.5430   47.5180 C   0  0  0  0  0  0  0  0  0  0  0  0
   60.3300   31.4490   47.0680 C   0  0  0  0  0  0  0  0  0  0  0  0
   58.2568   26.1875   45.6596 H   0  0  0  0  0  0  0  0  0  0  0  0
   57.2930   27.6429   45.1317 H   0  0  0  0  0  0  0  0  0  0  0  0
   57.2826   28.1257   47.7383 H   0  0  0  0  0  0  0  0  0  0  0  0
   58.8205   27.1213   47.6264 H   0  0  0  0  0  0  0  0  0  0  0  0
   59.6662   29.2266   47.4557 H   0  0  0  0  0  0  0  0  0  0  0  0
   59.3468   28.7518   45.6871 H   0  0  0  0  0  0  0  0  0  0  0  0
   57.2133   30.2688   46.9959 H   0  0  0  0  0  0  0  0  0  0  0  0
   58.8855   32.1823   44.4801 H   0  0  0  0  0  0  0  0  0  0  0  0
   58.0119   32.4318   42.1645 H   0  0  0  0  0  0  0  0  0  0  0  0
   56.2613   30.8759   41.3081 H   0  0  0  0  0  0  0  0  0  0  0  0
   55.4248   29.0290   42.7592 H   0  0  0  0  0  0  0  0  0  0  0  0
   56.2910   28.7665   45.0772 H   0  0  0  0  0  0  0  0  0  0  0  0
   57.2135   32.8654   47.1320 H   0  0  0  0  0  0  0  0  0  0  0  0
   58.5530   34.8036   47.9439 H   0  0  0  0  0  0  0  0  0  0  0  0
   61.0278   34.6019   48.1908 H   0  0  0  0  0  0  0  0  0  0  0  0
   62.1676   32.4567   47.6232 H   0  0  0  0  0  0  0  0  0  0  0  0
   60.8402   30.5084   46.8129 H   0  0  0  0  0  0  0  0  0  0  0  0
  1  2  2  0
  2  3  1  0
  2  4  1  0
  4  5  1  0
  5  6  1  0
  6  7  1  0
  7  8  1  0
  8  9  2  0
  9 10  1  0
 10 11  2  0
 11 12  1  0
 12 13  2  0
  7 14  1  0
 14 15  2  0
 15 16  1  0
 16 17  2  0
 17 18  1  0
 18 19  2  0
 13  8  1  0
 19 14  1  0
  4 20  1  0
  4 21  1  0
  5 22  1  0
  5 23  1  0
  6 24  1  0
  6 25  1  0
  7 26  1  0
  9 27  1  0
 10 28  1  0
 11 29  1  0
 12 30  1  0
 13 31  1  0
 15 32  1  0
 16 33  1  0
 17 34  1  0
 18 35  1  0
 19 36  1  0
M  CHG  1   3  -1
M  END
>  <UniqueID>  (3) 
3

>  <SMILES>  (3) 
O=C([O-])CCCC(c1ccccc1)c1ccccc1

>  <Energy>  (3) 
43.14596993556409

>  <Genealogy>  (3) 
O=C([O-])CCCC(c1ccccc1)c1ccccc1 (protonated)
O=C([O-])CCCC(c1ccccc1)c1ccccc1 (3D coordinates assigned)
O=C([O-])CCCC(c1ccccc1)c1ccccc1 (optimized conformer: 43.14596993556409 kcal/mol)

>  <smiles>  (3) 
O=C(O)CCCC(c1ccccc1)c1ccccc1

>  <score_type>  (3) 
oracle

>  <origin>  (3) 
adg

>  <m_score__min__energy>  (3) 
-9.7599999999999998

>  <m_primary>  (3) 
energy

$$$$
3:0
     RDKit          3D

 24 26  0  0  0  0  0  0  0  0999 V2000
   55.4740   30.1200   44.4700 O   0  0  0  0  0  0  0  0  0  0  0  0
   56.2760   29.3350   45.0420 C   0  0  0  0  0  0  0  0  0  0  0  0
   55.8970   28.0710   45.2610 O   0  0  0  0  0  0  0  0  0  0  0  0
   56.7060   27.2270   45.8830 C   0  0  0  0  0  0  0  0  0  0  0  0
   56.4630   25.9710   46.1610 O   0  0  0  0  0  0  0  0  0  0  0  0
   57.5280   25.4950   46.7850 C   0  0  0  0  0  0  0  0  0  0  0  0
   58.4990   26.4850   46.9180 C   0  0  0  0  0  0  0  0  0  0  0  0
   57.9390   27.5930   46.3260 C   0  0  0  0  0  0  0  0  0  0  0  0
   58.4090   28.8840   46.1380 C   0  0  0  0  0  0  0  0  0  0  0  0
   57.5610   29.7920   45.4670 C   0  0  0  0  0  0  0  0  0  0  0  0
   58.0150   31.1850   45.2270 C   0  0  0  0  0  0  0  0  0  0  0  0
   57.8990   31.7580   43.9480 C   0  0  0  0  0  0  0  0  0  0  0  0
   58.3170   33.0730   43.7220 C   0  0  0  0  0  0  0  0  0  0  0  0
   58.8500   33.8290   44.7690 C   0  0  0  0  0  0  0  0  0  0  0  0
   58.9620   33.2730   46.0450 C   0  0  0  0  0  0  0  0  0  0  0  0
   58.5460   31.9570   46.2760 C   0  0  0  0  0  0  0  0  0  0  0  0
   57.6322   24.4619   47.1481 H   0  0  0  0  0  0  0  0  0  0  0  0
   59.4891   26.3999   47.3896 H   0  0  0  0  0  0  0  0  0  0  0  0
   59.4030   29.1887   46.4973 H   0  0  0  0  0  0  0  0  0  0  0  0
   57.4771   31.1684   43.1208 H   0  0  0  0  0  0  0  0  0  0  0  0
   58.2260   33.5131   42.7180 H   0  0  0  0  0  0  0  0  0  0  0  0
   59.1814   34.8622   44.5882 H   0  0  0  0  0  0  0  0  0  0  0  0
   59.3778   33.8703   46.8698 H   0  0  0  0  0  0  0  0  0  0  0  0
   58.6347   31.5240   47.2833 H   0  0  0  0  0  0  0  0  0  0  0  0
  1  2  2  0
  2  3  1  0
  3  4  1  0
  4  5  1  0
  5  6  1  0
  6  7  2  0
  7  8  1  0
  8  9  1  0
  9 10  2  0
 10 11  1  0
 11 12  2  0
 12 13  1  0
 13 14  2  0
 14 15  1  0
 15 16  2  0
 10  2  1  0
 16 11  1  0
  8  4  2  0
  6 17  1  0
  7 18  1  0
  9 19  1  0
 12 20  1  0
 13 21  1  0
 14 22  1  0
 15 23  1  0
 16 24  1  0
M  END
>  <UniqueID>  (4) 
4

>  <SMILES>  (4) 
O=c1oc2occc2cc1-c1ccccc1

>  <Energy>  (4) 
70.16185117353245

>  <Genealogy>  (4) 
O=c1oc2occc2cc1-c1ccccc1 (3D coordinates assigned)
O=c1oc2occc2cc1-c1ccccc1 (optimized conformer: 70.16185117353245 kcal/mol)

>  <smiles>  (4) 
O=c1oc2occc2cc1-c1ccccc1

>  <score_type>  (4) 
oracle

>  <origin>  (4) 
adg

>  <m_score__min__energy>  (4) 
-6.3399999999999999

>  <m_primary>  (4) 
energy

$$$$
4:0
     RDKit          3D

 47 47  0  0  0  0  0  0  0  0999 V2000
   58.8603   31.2288   45.2930 H   0  0  0  0  0  0  0  0  0  0  0  0
   58.4810   30.4830   44.5790 C   0  0  0  0  0  0  0  0  0  0  0  0
   57.5270   30.8590   43.7010 C   0  0  0  0  0  0  0  0  0  0  0  0
   56.1850   30.1760   43.7530 C   0  0  0  0  0  0  0  0  0  0  0  0
   55.8903   30.0260   44.8021 H   0  0  0  0  0  0  0  0  0  0  0  0
   55.4351   30.8021   43.2474 H   0  0  0  0  0  0  0  0  0  0  0  0
   56.2498   29.2012   43.2474 H   0  0  0  0  0  0  0  0  0  0  0  0
   57.7760   31.9420   42.6780 C   0  0  0  0  0  0  0  0  0  0  0  0
   57.9938   32.8894   43.1927 H   0  0  0  0  0  0  0  0  0  0  0  0
   58.6331   31.6614   42.0482 H   0  0  0  0  0  0  0  0  0  0  0  0
   56.8824   32.0639   42.0482 H   0  0  0  0  0  0  0  0  0  0  0  0
   59.0520   29.0840   44.6260 C   0  0  0  0  0  0  0  0  0  0  0  0
   58.3419   28.4285   45.1514 H   0  0  0  0  0  0  0  0  0  0  0  0
   59.2134   28.7489   43.5908 H   0  0  0  0  0  0  0  0  0  0  0  0
   60.4030   29.0360   45.3550 C   0  0  0  0  0  0  0  0  0  0  0  0
   60.6809   27.9841   45.5171 H   0  0  0  0  0  0  0  0  0  0  0  0
   61.1438   29.5536   44.7278 H   0  0  0  0  0  0  0  0  0  0  0  0
   60.3550   29.7410   46.6970 C   0  0  0  0  0  0  0  0  0  0  0  0
   61.1370   30.8280   46.8940 C   0  0  0  0  0  0  0  0  0  0  0  0
   61.9299   31.0220   46.1566 H   0  0  0  0  0  0  0  0  0  0  0  0
   61.0060   31.8030   48.0550 C   0  0  0  0  0  0  0  0  0  0  0  0
   60.0493   31.6157   48.5646 H   0  0  0  0  0  0  0  0  0  0  0  0
   61.8643   31.6385   48.7230 H   0  0  0  0  0  0  0  0  0  0  0  0
   61.0430   33.2330   47.6200 N   0  0  0  0  0  0  0  0  0  0  0  0
   59.8440   33.5720   46.8230 C   0  0  0  0  0  0  0  0  0  0  0  0
   59.9050   34.3060   45.6050 C   0  0  0  0  0  0  0  0  0  0  0  0
   60.8799   34.6528   45.2317 H   0  0  0  0  0  0  0  0  0  0  0  0
   58.7490   34.5940   44.8750 C   0  0  0  0  0  0  0  0  0  0  0  0
   58.8223   35.1619   43.9358 H   0  0  0  0  0  0  0  0  0  0  0  0
   57.5050   34.1660   45.3300 C   0  0  0  0  0  0  0  0  0  0  0  0
   56.5983   34.3964   44.7514 H   0  0  0  0  0  0  0  0  0  0  0  0
   57.4090   33.4460   46.5180 C   0  0  0  0  0  0  0  0  0  0  0  0
   56.4258   33.1071   46.8764 H   0  0  0  0  0  0  0  0  0  0  0  0
   58.5590   33.1530   47.2560 C   0  0  0  0  0  0  0  0  0  0  0  0
   58.4662   32.5850   48.1934 H   0  0  0  0  0  0  0  0  0  0  0  0
   62.3200   33.4730   46.8940 C   0  0  0  0  0  0  0  0  0  0  0  0
   63.1317   33.6256   47.6205 H   0  0  0  0  0  0  0  0  0  0  0  0
   62.5519   32.6027   46.2625 H   0  0  0  0  0  0  0  0  0  0  0  0
   62.2201   34.3681   46.2625 H   0  0  0  0  0  0  0  0  0  0  0  0
   61.0690   34.0990   48.8270 C   0  0  0  0  0  0  0  0  0  0  0  0
   61.0501   33.4706   49.7296 H   0  0  0  0  0  0  0  0  0  0  0  0
   61.9858   34.7068   48.8225 H   0  0  0  0  0  0  0  0  0  0  0  0
   60.1903   34.7607   48.8225 H   0  0  0  0  0  0  0  0  0  0  0  0
   59.4530   29.1970   47.7790 C   0  0  0  0  0  0  0  0  0  0  0  0
   59.8703   29.4487   48.7652 H   0  0  0  0  0  0  0  0  0  0  0  0
   58.4520   29.6421   47.6800 H   0  0  0  0  0  0  0  0  0  0  0  0
   59.3797   28.1039   47.6800 H   0  0  0  0  0  0  0  0  0  0  0  0
  1  2  1  0
  2  3  2  3
  3  4  1  0
  4  5  1  0
  4  6  1  0
  4  7  1  0
  3  8  1  0
  8  9  1  0
  8 10  1  0
  8 11  1  0
  2 12  1  0
 12 13  1  0
 12 14  1  0
 12 15  1  0
 15 16  1  0
 15 17  1  0
 15 18  1  0
 18 19  2  0
 19 20  1  0
 19 21  1  0
 21 22  1  0
 21 23  1  0
 21 24  1  0
 24 25  1  0
 25 26  2  0
 26 27  1  0
 26 28  1  0
 28 29  1  0
 28 30  2  0
 30 31  1  0
 30 32  1  0
 32 33  1  0
 32 34  2  0
 34 35  1  0
 24 36  1  0
 36 37  1  0
 36 38  1  0
 36 39  1  0
 24 40  1  0
 40 41  1  0
 40 42  1  0
 40 43  1  0
 18 44  1  0
 44 45  1  0
 44 46  1  0
 44 47  1  0
 34 25  1  0
M  CHG  1  24   1
M  END
>  <UniqueID>  (5) 
5

>  <SMILES>  (5) 
CC(C)=CCC/C(C)=C/C[N+](C)(C)c1ccccc1

>  <Energy>  (5) 
49.864883078815254

>  <Genealogy>  (5) 
CC(C)=CCC/C(C)=C/C[N+](C)(C)c1ccccc1 (cis-trans isomerization)
CC(C)=CCC/C(C)=C/C[N+](C)(C)c1ccccc1 (3D coordinates assigned)
CC(C)=CCC/C(C)=C/C[N+](C)(C)c1ccccc1 (optimized conformer: 49.864883078815254 kcal/mol)

>  <smiles>  (5) 
CC(C)=CCCC(C)=CC[N+](C)(C)c1ccccc1

>  <score_type>  (5) 
oracle

>  <origin>  (5) 
adg

>  <m_score__min__energy>  (5) 
-5.0499999999999998

>  <m_primary>  (5) 
energy

$$$$
5:0
     RDKit          3D

 48 51  0  0  0  0  0  0  0  0999 V2000
   52.7660   23.8640   44.8980 C   0  0  0  0  0  0  0  0  0  0  0  0
   53.8960   22.9450   44.8580 N   0  0  0  0  0  0  0  0  0  0  0  0
   55.1690   23.2380   44.2660 C   0  0  0  0  0  0  0  0  0  0  0  0
   55.5650   22.5280   43.3050 O   0  0  0  0  0  0  0  0  0  0  0  0
   56.0430   24.3160   44.7690 C   0  0  0  0  0  0  0  0  0  0  0  0
   55.8560   24.8560   46.0500 C   0  0  0  0  0  0  0  0  0  0  0  0
   56.6790   25.8880   46.5090 C   0  0  0  0  0  0  0  0  0  0  0  0
   57.6980   26.4080   45.6910 C   0  0  0  0  0  0  0  0  0  0  0  0
   58.5730   27.5050   46.1790 C   0  0  0  0  0  0  0  0  0  0  0  0
   59.4690   28.1490   45.3060 C   0  0  0  0  0  0  0  0  0  0  0  0
   60.2870   29.1850   45.7660 C   0  0  0  0  0  0  0  0  0  0  0  0
   60.2210   29.5950   47.1020 C   0  0  0  0  0  0  0  0  0  0  0  0
   61.2370   30.9120   47.6780 S   0  0  0  0  0  0  0  0  0  0  0  0
   62.4060   31.0900   46.7460 O   0  0  0  0  0  0  0  0  0  0  0  0
   61.7580   30.5580   49.0420 O   0  0  0  0  0  0  0  0  0  0  0  0
   60.3060   32.3310   47.8020 O   0  0  0  0  0  0  0  0  0  0  0  0
   59.8310   32.7350   46.5340 C   0  0  2  0  0  0  0  0  0  0  0  0
   59.6870   34.2760   46.5060 C   0  0  0  0  0  0  0  0  0  0  0  0
   58.2470   34.5450   46.2790 N   0  0  0  0  0  0  0  0  0  0  0  0
   57.9450   34.1680   44.8780 C   0  0  0  0  0  0  0  0  0  0  0  0
   58.0050   32.6290   44.8430 C   0  0  0  0  0  0  0  0  0  0  0  0
   58.3670   32.3110   46.2980 C   0  0  2  0  0  0  0  0  0  0  0  0
   57.6460   33.4280   46.9950 C   0  0  0  0  0  0  0  0  0  0  0  0
   59.3380   28.9540   47.9800 C   0  0  0  0  0  0  0  0  0  0  0  0
   58.5170   27.9200   47.5230 C   0  0  0  0  0  0  0  0  0  0  0  0
   57.8680   25.8780   44.3990 C   0  0  0  0  0  0  0  0  0  0  0  0
   57.0420   24.8470   43.9410 C   0  0  0  0  0  0  0  0  0  0  0  0
   52.5037   24.0773   45.9448 H   0  0  0  0  0  0  0  0  0  0  0  0
   53.0373   24.8010   44.3897 H   0  0  0  0  0  0  0  0  0  0  0  0
   51.9039   23.4074   44.3897 H   0  0  0  0  0  0  0  0  0  0  0  0
   55.0570   24.4649   46.6970 H   0  0  0  0  0  0  0  0  0  0  0  0
   56.5285   26.2972   47.5189 H   0  0  0  0  0  0  0  0  0  0  0  0
   59.5262   27.8348   44.2534 H   0  0  0  0  0  0  0  0  0  0  0  0
   60.9853   29.6798   45.0749 H   0  0  0  0  0  0  0  0  0  0  0  0
   60.5356   32.3012   45.8092 H   0  0  0  0  0  0  0  0  0  0  0  0
   60.0106   34.7081   47.4644 H   0  0  0  0  0  0  0  0  0  0  0  0
   60.3109   34.7259   45.7197 H   0  0  0  0  0  0  0  0  0  0  0  0
   56.9427   34.5201   44.5928 H   0  0  0  0  0  0  0  0  0  0  0  0
   58.6568   34.6200   44.1716 H   0  0  0  0  0  0  0  0  0  0  0  0
   57.0336   32.1941   44.5652 H   0  0  0  0  0  0  0  0  0  0  0  0
   58.7101   32.2218   44.1034 H   0  0  0  0  0  0  0  0  0  0  0  0
   58.1688   31.2666   46.5807 H   0  0  0  0  0  0  0  0  0  0  0  0
   56.5573   33.3765   46.8460 H   0  0  0  0  0  0  0  0  0  0  0  0
   57.7431   33.4521   48.0904 H   0  0  0  0  0  0  0  0  0  0  0  0
   59.2907   29.2659   49.0338 H   0  0  0  0  0  0  0  0  0  0  0  0
   57.8219   27.4267   48.2183 H   0  0  0  0  0  0  0  0  0  0  0  0
   58.6565   26.2776   43.7443 H   0  0  0  0  0  0  0  0  0  0  0  0
   57.1769   24.4498   42.9241 H   0  0  0  0  0  0  0  0  0  0  0  0
  1  2  1  0
  2  3  1  0
  3  4  2  0
  3  5  1  0
  5  6  2  0
  6  7  1  0
  7  8  2  0
  8  9  1  0
  9 10  2  0
 10 11  1  0
 11 12  2  0
 12 13  1  0
 13 14  2  0
 13 15  2  0
 13 16  1  0
 16 17  1  0
 17 18  1  0
 19 18  1  0
 19 20  1  0
 20 21  1  0
 21 22  1  0
 22 23  1  0
 12 24  1  0
 24 25  2  0
  8 26  1  0
 26 27  2  0
 27  5  1  0
 25  9  1  0
 22 17  1  0
 23 19  1  0
  1 28  1  0
  1 29  1  0
  1 30  1  0
  6 31  1  0
  7 32  1  0
 10 33  1  0
 11 34  1  0
 17 35  1  6
 18 36  1  0
 18 37  1  0
 20 38  1  0
 20 39  1  0
 21 40  1  0
 21 41  1  0
 22 42  1  1
 23 43  1  0
 23 44  1  0
 24 45  1  0
 25 46  1  0
 26 47  1  0
 27 48  1  0
M  CHG  1   2  -1
M  END
>  <UniqueID>  (6) 
6

>  <SMILES>  (6) 
C[N-]C(=O)c1ccc(-c2ccc(S(=O)(=O)O[C@@H]3C[N@@]4CCC3C4)cc2)cc1

>  <Energy>  (6) 
90.8996371630675

>  <Genealogy>  (6) 
C[N-]C(=O)c1ccc(-c2ccc(S(=O)(=O)OC3CN4CCC3C4)cc2)cc1 (protonated)
C[N-]C(=O)c1ccc(-c2ccc(S(=O)(=O)O[C@@H]3C[N@@]4CCC3C4)cc2)cc1 (chirality)
C[N-]C(=O)c1ccc(-c2ccc(S(=O)(=O)O[C@@H]3C[N@@]4CCC3C4)cc2)cc1 (3D coordinates assigned)
C[N-]C(=O)c1ccc(-c2ccc(S(=O)(=O)O[C@@H]3C[N@@]4CCC3C4)cc2)cc1 (nonaromatic ring conformer: 90.8996371630675 kcal/mol)

>  <smiles>  (6) 
CNC(=O)c1ccc(-c2ccc(S(=O)(=O)OC3CN4CCC3C4)cc2)cc1

>  <score_type>  (6) 
oracle

>  <origin>  (6) 
adg

>  <m_score__min__energy>  (6) 
-9.4600000000000009

>  <m_primary>  (6) 
energy

$$$$
6:0
     RDKit          3D

 31 33  0  0  0  0  0  0  0  0999 V2000
   56.6150   29.4260   42.7580 O   0  0  0  0  0  0  0  0  0  0  0  0
   56.7700   29.6290   44.2400 S   0  0  0  0  0  0  0  0  0  0  0  0
   55.4020   29.5860   44.8620 O   0  0  0  0  0  0  0  0  0  0  0  0
   57.7790   28.3580   44.9180 C   0  0  0  0  0  0  0  0  0  0  0  0
   57.2170   27.1180   45.2580 C   0  0  0  0  0  0  0  0  0  0  0  0
   58.0230   26.1010   45.7790 C   0  0  0  0  0  0  0  0  0  0  0  0
   59.3930   26.3150   45.9570 C   0  0  0  0  0  0  0  0  0  0  0  0
   60.1740   25.3270   46.4600 F   0  0  0  0  0  0  0  0  0  0  0  0
   59.9590   27.5460   45.6110 C   0  0  0  0  0  0  0  0  0  0  0  0
   59.1550   28.5640   45.0890 C   0  0  0  0  0  0  0  0  0  0  0  0
   57.5260   31.1870   44.5530 C   0  0  0  0  0  0  0  0  0  0  0  0
   57.7870   32.0680   43.4950 C   0  0  0  0  0  0  0  0  0  0  0  0
   58.3670   33.3150   43.7410 C   0  0  0  0  0  0  0  0  0  0  0  0
   58.6860   33.6980   45.0520 C   0  0  0  0  0  0  0  0  0  0  0  0
   59.2680   34.9490   45.3110 C   0  0  0  0  0  0  0  0  0  0  0  0
   59.5780   35.3200   46.6230 C   0  0  0  0  0  0  0  0  0  0  0  0
   59.3100   34.4490   47.6820 C   0  0  0  0  0  0  0  0  0  0  0  0
   58.7310   33.2000   47.4380 C   0  0  0  0  0  0  0  0  0  0  0  0
   58.4160   32.8150   46.1260 C   0  0  0  0  0  0  0  0  0  0  0  0
   57.8340   31.5650   45.8670 C   0  0  0  0  0  0  0  0  0  0  0  0
   56.1401   26.9456   45.1144 H   0  0  0  0  0  0  0  0  0  0  0  0
   57.5786   25.1317   46.0490 H   0  0  0  0  0  0  0  0  0  0  0  0
   61.0373   27.7136   45.7495 H   0  0  0  0  0  0  0  0  0  0  0  0
   59.6036   29.5293   44.8117 H   0  0  0  0  0  0  0  0  0  0  0  0
   57.5338   31.7761   42.4651 H   0  0  0  0  0  0  0  0  0  0  0  0
   58.5740   33.9983   42.9042 H   0  0  0  0  0  0  0  0  0  0  0  0
   59.4805   35.6384   44.4806 H   0  0  0  0  0  0  0  0  0  0  0  0
   60.0344   36.3009   46.8220 H   0  0  0  0  0  0  0  0  0  0  0  0
   59.5555   34.7471   48.7120 H   0  0  0  0  0  0  0  0  0  0  0  0
   58.5221   32.5183   48.2756 H   0  0  0  0  0  0  0  0  0  0  0  0
   57.6184   30.8785   46.6990 H   0  0  0  0  0  0  0  0  0  0  0  0
  1  2  2  0
  2  3  2  0
  2  4  1  0
  4  5  2  0
  5  6  1  0
  6  7  2  0
  7  8  1  0
  7  9  1  0
  9 10  2  0
  2 11  1  0
 11 12  2  0
 12 13  1  0
 13 14  2  0
 14 15  1  0
 15 16  2  0
 16 17  1  0
 17 18  2  0
 18 19  1  0
 19 20  2  0
 10  4  1  0
 20 11  1  0
 19 14  1  0
  5 21  1  0
  6 22  1  0
  9 23  1  0
 10 24  1  0
 12 25  1  0
 13 26  1  0
 15 27  1  0
 16 28  1  0
 17 29  1  0
 18 30  1  0
 20 31  1  0
M  END
>  <UniqueID>  (7) 
7

>  <SMILES>  (7) 
O=S(=O)(c1ccc(F)cc1)c1ccc2ccccc2c1

>  <Energy>  (7) 
38.74694755055804

>  <Genealogy>  (7) 
O=S(=O)(c1ccc(F)cc1)c1ccc2ccccc2c1 (3D coordinates assigned)
O=S(=O)(c1ccc(F)cc1)c1ccc2ccccc2c1 (optimized conformer: 38.74694755055804 kcal/mol)

>  <smiles>  (7) 
O=S(=O)(c1ccc(F)cc1)c1ccc2ccccc2c1

>  <score_type>  (7) 
oracle

>  <origin>  (7) 
adg

>  <m_score__min__energy>  (7) 
-8.4900000000000002

>  <m_primary>  (7) 
energy

$$$$
7:0
     RDKit          3D

 43 46  0  0  0  0  0  0  0  0999 V2000
   56.0280   23.5900   43.5910 C   0  0  0  0  0  0  0  0  0  0  0  0
   56.8510   24.7680   43.8570 N   0  0  0  0  0  0  0  0  0  0  0  0
   56.8550   25.1130   45.5600 S   0  0  0  0  0  0  0  0  0  0  0  0
   55.4950   25.5900   45.9870 O   0  0  0  0  0  0  0  0  0  0  0  0
   57.1740   23.8530   46.3150 O   0  0  0  0  0  0  0  0  0  0  0  0
   58.0660   26.3370   45.9390 C   0  0  0  0  0  0  0  0  0  0  0  0
   59.3180   25.9650   46.4360 C   0  0  0  0  0  0  0  0  0  0  0  0
   60.2520   26.9130   46.7110 N   0  0  0  0  0  0  0  0  0  0  0  0
   60.0100   28.2370   46.5140 C   0  0  0  0  0  0  0  0  0  0  0  0
   58.7720   28.6640   46.0050 C   0  0  0  0  0  0  0  0  0  0  0  0
   58.5020   30.1020   45.7580 C   0  0  0  0  0  0  0  0  0  0  0  0
   57.3470   30.5140   45.0380 C   0  0  0  0  0  0  0  0  0  0  0  0
   57.0930   31.8390   44.8220 N   0  0  0  0  0  0  0  0  0  0  0  0
   57.9660   32.7620   45.2910 C   0  0  0  0  0  0  0  0  0  0  0  0
   57.8880   34.1340   45.2240 C   0  0  0  0  0  0  0  0  0  0  0  0
   59.0220   34.5830   45.8950 C   0  0  0  0  0  0  0  0  0  0  0  0
   59.7630   33.5390   46.3450 N   0  0  0  0  0  0  0  0  0  0  0  0
   61.0040   33.6350   47.0650 C   0  0  0  0  0  0  0  0  0  0  0  0
   62.2250   33.7380   46.3750 C   0  0  0  0  0  0  0  0  0  0  0  0
   63.4270   33.8430   47.0790 C   0  0  0  0  0  0  0  0  0  0  0  0
   63.4220   33.8540   48.4770 C   0  0  0  0  0  0  0  0  0  0  0  0
   62.2110   33.7690   49.1740 C   0  0  0  0  0  0  0  0  0  0  0  0
   62.2060   33.7880   50.6140 C   0  0  0  0  0  0  0  0  0  0  0  0
   62.2010   33.8040   51.7710 N   0  0  0  0  0  0  0  0  0  0  0  0
   61.0040   33.6640   48.4690 C   0  0  0  0  0  0  0  0  0  0  0  0
   59.0980   32.4260   45.9710 C   0  0  0  0  0  0  0  0  0  0  0  0
   59.3910   31.0890   46.2450 C   0  0  0  0  0  0  0  0  0  0  0  0
   57.7960   27.6930   45.7230 C   0  0  0  0  0  0  0  0  0  0  0  0
   55.7134   23.1397   44.5440 H   0  0  0  0  0  0  0  0  0  0  0  0
   55.1393   23.8862   43.0144 H   0  0  0  0  0  0  0  0  0  0  0  0
   56.6118   22.8574   43.0144 H   0  0  0  0  0  0  0  0  0  0  0  0
   56.4050   25.5830   43.3780 H   0  0  0  0  0  0  0  0  0  0  0  0
   59.5479   24.9027   46.6050 H   0  0  0  0  0  0  0  0  0  0  0  0
   60.7875   28.9771   46.7544 H   0  0  0  0  0  0  0  0  0  0  0  0
   56.6496   29.7568   44.6503 H   0  0  0  0  0  0  0  0  0  0  0  0
   57.1044   34.7407   44.7467 H   0  0  0  0  0  0  0  0  0  0  0  0
   59.2824   35.6417   46.0409 H   0  0  0  0  0  0  0  0  0  0  0  0
   62.2336   33.7359   45.2750 H   0  0  0  0  0  0  0  0  0  0  0  0
   64.3788   33.9171   46.5326 H   0  0  0  0  0  0  0  0  0  0  0  0
   64.3702   33.9295   49.0295 H   0  0  0  0  0  0  0  0  0  0  0  0
   60.0526   33.6041   49.0179 H   0  0  0  0  0  0  0  0  0  0  0  0
   60.2855   30.8113   46.8218 H   0  0  0  0  0  0  0  0  0  0  0  0
   56.8153   28.0003   45.3307 H   0  0  0  0  0  0  0  0  0  0  0  0
  1  2  1  0
  2  3  1  0
  3  4  2  0
  3  5  2  0
  3  6  1  0
  6  7  2  0
  7  8  1  0
  8  9  2  0
  9 10  1  0
 10 11  1  0
 11 12  2  0
 12 13  1  0
 13 14  2  0
 14 15  1  0
 15 16  2  0
 16 17  1  0
 17 18  1  0
 18 19  2  0
 19 20  1  0
 20 21  2  0
 21 22  1  0
 22 23  1  0
 23 24  3  0
 22 25  2  0
 17 26  1  0
 26 27  2  0
 10 28  2  0
 28  6  1  0
 27 11  1  0
 26 14  1  0
 25 18  1  0
  1 29  1  0
  1 30  1  0
  1 31  1  0
  2 32  1  0
  7 33  1  0
  9 34  1  0
 12 35  1  0
 15 36  1  0
 16 37  1  0
 19 38  1  0
 20 39  1  0
 21 40  1  0
 25 41  1  0
 27 42  1  0
 28 43  1  0
M  END
>  <UniqueID>  (8) 
8

>  <SMILES>  (8) 
CNS(=O)(=O)c1cncc(-c2cnc3ccn(-c4cccc(C#N)c4)c3c2)c1

>  <Energy>  (8) 
90.6760940897383

>  <Genealogy>  (8) 
CNS(=O)(=O)c1cncc(-c2cnc3ccn(-c4cccc(C#N)c4)c3c2)c1 (3D coordinates assigned)
CNS(=O)(=O)c1cncc(-c2cnc3ccn(-c4cccc(C#N)c4)c3c2)c1 (optimized conformer: 90.6760940897383 kcal/mol)

>  <smiles>  (8) 
CNS(=O)(=O)c1cncc(-c2cnc3ccn(-c4cccc(C#N)c4)c3c2)c1

>  <score_type>  (8) 
oracle

>  <origin>  (8) 
adg

>  <m_score__min__energy>  (8) 
-9.5600000000000005

>  <m_primary>  (8) 
energy

$$$$
8:0
     RDKit          3D

 54 55  0  0  0  0  0  0  0  0999 V2000
   60.3039   35.0887   45.1277 H   0  0  0  0  0  0  0  0  0  0  0  0
   59.5900   34.2950   45.3930 C   0  0  0  0  0  0  0  0  0  0  0  0
   58.4080   34.2340   44.7700 C   0  0  0  0  0  0  0  0  0  0  0  0
   57.8131   35.1563   44.6964 H   0  0  0  0  0  0  0  0  0  0  0  0
   59.3510   33.3260   47.6260 C   0  0  0  0  0  0  0  0  0  0  0  0
   59.4839   34.2004   48.2801 H   0  0  0  0  0  0  0  0  0  0  0  0
   58.5010   32.1750   48.1030 C   0  0  0  0  0  0  0  0  0  0  0  0
   58.4576   31.4181   47.3059 H   0  0  0  0  0  0  0  0  0  0  0  0
   57.5063   32.5793   48.3422 H   0  0  0  0  0  0  0  0  0  0  0  0
   59.0240   31.5360   49.3310 N   0  0  0  0  0  0  0  0  0  0  0  0
   58.2340   31.9140   50.5180 C   0  0  0  0  0  0  0  0  0  0  0  0
   58.7904   31.6478   51.4288 H   0  0  0  0  0  0  0  0  0  0  0  0
   58.0489   32.9982   50.5052 H   0  0  0  0  0  0  0  0  0  0  0  0
   57.2736   31.3779   50.5052 H   0  0  0  0  0  0  0  0  0  0  0  0
   59.1470   30.0680   49.1900 C   0  0  0  0  0  0  0  0  0  0  0  0
   58.1614   29.6485   48.9399 H   0  0  0  0  0  0  0  0  0  0  0  0
   59.5151   29.6581   50.1421 H   0  0  0  0  0  0  0  0  0  0  0  0
   60.1440   29.6940   48.0850 C   0  0  0  0  0  0  0  0  0  0  0  0
   60.8551   28.9534   48.4797 H   0  0  0  0  0  0  0  0  0  0  0  0
   60.6690   30.6070   47.7676 H   0  0  0  0  0  0  0  0  0  0  0  0
   59.4400   29.1090   46.8870 C   0  0  0  0  0  0  0  0  0  0  0  0
   60.0180   29.2050   45.6140 C   0  0  0  0  0  0  0  0  0  0  0  0
   60.9727   29.7360   45.4849 H   0  0  0  0  0  0  0  0  0  0  0  0
   59.3880   28.6300   44.5090 C   0  0  0  0  0  0  0  0  0  0  0  0
   59.8452   28.7184   43.5124 H   0  0  0  0  0  0  0  0  0  0  0  0
   58.1720   27.9380   44.6610 C   0  0  0  0  0  0  0  0  0  0  0  0
   57.5120   27.3460   43.5730 O   0  0  0  0  0  0  0  0  0  0  0  0
   58.1670   26.7550   42.4550 C   0  0  0  0  0  0  0  0  0  0  0  0
   58.9401   26.0574   42.8096 H   0  0  0  0  0  0  0  0  0  0  0  0
   57.4317   26.2087   41.8459 H   0  0  0  0  0  0  0  0  0  0  0  0
   58.6351   27.5424   41.8459 H   0  0  0  0  0  0  0  0  0  0  0  0
   57.5930   27.8250   45.9350 C   0  0  0  0  0  0  0  0  0  0  0  0
   56.3850   27.1210   46.0580 O   0  0  0  0  0  0  0  0  0  0  0  0
   56.2660   25.7040   45.9840 C   0  0  0  0  0  0  0  0  0  0  0  0
   56.2308   25.2854   47.0006 H   0  0  0  0  0  0  0  0  0  0  0  0
   55.3426   25.4411   45.4471 H   0  0  0  0  0  0  0  0  0  0  0  0
   57.1326   25.2908   45.4471 H   0  0  0  0  0  0  0  0  0  0  0  0
   58.2320   28.4130   47.0450 C   0  0  0  0  0  0  0  0  0  0  0  0
   57.7798   28.3255   48.0439 H   0  0  0  0  0  0  0  0  0  0  0  0
   59.9470   33.3120   46.4300 C   0  0  0  0  0  0  0  0  0  0  0  0
   60.7159   32.5548   46.2168 H   0  0  0  0  0  0  0  0  0  0  0  0
   57.8520   32.9940   44.1720 C   0  0  0  0  0  0  0  0  0  0  0  0
   57.9410   32.7100   42.7940 C   0  0  0  0  0  0  0  0  0  0  0  0
   58.4466   33.4186   42.1215 H   0  0  0  0  0  0  0  0  0  0  0  0
   57.3910   31.5340   42.2770 C   0  0  0  0  0  0  0  0  0  0  0  0
   57.4722   31.3188   41.2013 H   0  0  0  0  0  0  0  0  0  0  0  0
   56.7370   30.6280   43.1210 C   0  0  0  0  0  0  0  0  0  0  0  0
   56.1740   29.4250   42.5890 N   0  0  0  0  0  0  0  0  0  0  0  0
   55.5440   29.4520   41.7570 H   0  0  0  0  0  0  0  0  0  0  0  0
   56.3840   28.4990   43.0240 H   0  0  0  0  0  0  0  0  0  0  0  0
   56.6320   30.9110   44.4880 C   0  0  0  0  0  0  0  0  0  0  0  0
   56.1165   30.2050   45.1557 H   0  0  0  0  0  0  0  0  0  0  0  0
   57.1800   32.0880   45.0080 C   0  0  0  0  0  0  0  0  0  0  0  0
   57.0836   32.3059   46.0819 H   0  0  0  0  0  0  0  0  0  0  0  0
  1  2  1  0
  2  3  1  0
  3  4  1  0
  3  5  2  0
  5  6  1  0
  5  7  1  0
  7  8  1  0
  7  9  1  0
  7 10  1  0
 10 11  1  0
 11 12  1  0
 11 13  1  0
 11 14  1  0
 10 15  1  0
 15 16  1  0
 15 17  1  0
 15 18  1  0
 18 19  1  0
 18 20  1  0
 18 21  1  0
 21 22  2  0
 22 23  1  0
 22 24  1  0
 24 25  1  0
 24 26  2  0
 26 27  1  0
 27 28  1  0
 28 29  1  0
 28 30  1  0
 28 31  1  0
 26 32  1  0
 32 33  1  0
 33 34  1  0
 34 35  1  0
 34 36  1  0
 34 37  1  0
 32 38  2  0
 38 39  1  0
  2 40  2  0
 40 41  1  0
 40 42  1  0
 42 43  2  0
 43 44  1  0
 43 45  1  0
 45 46  1  0
 45 47  2  0
 47 48  1  0
 48 49  1  0
 48 50  1  0
 47 51  1  0
 51 52  1  0
 51 53  2  0
 53 54  1  0
 38 21  1  0
 53 42  1  0
M  END
>  <UniqueID>  (9) 
9

>  <SMILES>  (9) 
COc1ccc(CCN(C)C/C=C/C=C/c2ccc(N)cc2)cc1OC

>  <Energy>  (9) 
50.935894208576045

>  <Genealogy>  (9) 
COc1ccc(CCN(C)C/C=C/C=C/c2ccc(N)cc2)cc1OC (cis-trans isomerization)
COc1ccc(CCN(C)C/C=C/C=C/c2ccc(N)cc2)cc1OC (3D coordinates assigned)
COc1ccc(CCN(C)C/C=C/C=C/c2ccc(N)cc2)cc1OC (optimized conformer: 50.935894208576045 kcal/mol)

>  <smiles>  (9) 
COc1ccc(CCN(C)CC=CC=Cc2ccc(N)cc2)cc1OC

>  <score_type>  (9) 
oracle

>  <origin>  (9) 
adg

>  <m_score__min__energy>  (9) 
-7.8399999999999999

>  <m_primary>  (9) 
energy

$$$$
9:0
     RDKit          3D

 43 45  0  0  0  0  0  0  0  0999 V2000
   55.2080   29.3390   44.7090 O   0  0  0  0  0  0  0  0  0  0  0  0
   56.3550   29.8490   44.8130 C   0  0  0  0  0  0  0  0  0  0  0  0
   56.4990   31.2640   44.6100 N   0  0  0  0  0  0  0  0  0  0  0  0
   57.5850   32.1620   45.0210 C   0  0  0  0  0  0  0  0  0  0  0  0
   57.1940   33.6420   44.9230 C   0  0  0  0  0  0  0  0  0  0  0  0
   58.4040   34.5360   45.2520 C   0  0  0  0  0  0  0  0  0  0  0  0
   59.2230   34.0550   46.4010 N   0  0  0  0  0  0  0  0  0  0  0  0
   60.5780   33.6210   45.9960 C   0  0  0  0  0  0  0  0  0  0  0  0
   61.5150   33.6730   47.1750 C   0  0  0  0  0  0  0  0  0  0  0  0
   61.0800   34.2220   48.3930 C   0  0  0  0  0  0  0  0  0  0  0  0
   61.9490   34.2840   49.4870 C   0  0  0  0  0  0  0  0  0  0  0  0
   63.2540   33.8000   49.3730 C   0  0  0  0  0  0  0  0  0  0  0  0
   63.6960   33.2530   48.1640 C   0  0  0  0  0  0  0  0  0  0  0  0
   62.8300   33.1890   47.0680 C   0  0  0  0  0  0  0  0  0  0  0  0
   58.5410   33.0360   47.2300 C   0  0  0  0  0  0  0  0  0  0  0  0
   58.1400   31.7930   46.4140 C   0  0  0  0  0  0  0  0  0  0  0  0
   57.4780   28.9720   45.1700 C   0  0  0  0  0  0  0  0  0  0  0  0
   57.2990   27.9210   46.0820 C   0  0  0  0  0  0  0  0  0  0  0  0
   58.3790   27.1100   46.4410 C   0  0  0  0  0  0  0  0  0  0  0  0
   59.6500   27.3610   45.9110 C   0  0  0  0  0  0  0  0  0  0  0  0
   61.0050   26.3410   46.3620 Cl  0  0  0  0  0  0  0  0  0  0  0  0
   59.8420   28.4330   45.0340 C   0  0  0  0  0  0  0  0  0  0  0  0
   58.7620   29.2450   44.6740 C   0  0  0  0  0  0  0  0  0  0  0  0
   58.4039   32.0149   44.3015 H   0  0  0  0  0  0  0  0  0  0  0  0
   56.8489   33.8595   43.9014 H   0  0  0  0  0  0  0  0  0  0  0  0
   56.3893   33.8486   45.6439 H   0  0  0  0  0  0  0  0  0  0  0  0
   59.0503   34.5831   44.3631 H   0  0  0  0  0  0  0  0  0  0  0  0
   58.0027   35.5192   45.5388 H   0  0  0  0  0  0  0  0  0  0  0  0
   60.5306   32.5903   45.6147 H   0  0  0  0  0  0  0  0  0  0  0  0
   60.9512   34.2950   45.2109 H   0  0  0  0  0  0  0  0  0  0  0  0
   60.0528   34.6042   48.4864 H   0  0  0  0  0  0  0  0  0  0  0  0
   61.6041   34.7146   50.4386 H   0  0  0  0  0  0  0  0  0  0  0  0
   63.9353   33.8490   50.2353 H   0  0  0  0  0  0  0  0  0  0  0  0
   64.7246   32.8733   48.0754 H   0  0  0  0  0  0  0  0  0  0  0  0
   63.1795   32.7580   46.1182 H   0  0  0  0  0  0  0  0  0  0  0  0
   59.2196   32.7251   48.0380 H   0  0  0  0  0  0  0  0  0  0  0  0
   57.6212   33.4876   47.6300 H   0  0  0  0  0  0  0  0  0  0  0  0
   59.0258   31.1539   46.2842 H   0  0  0  0  0  0  0  0  0  0  0  0
   57.3452   31.2696   46.9657 H   0  0  0  0  0  0  0  0  0  0  0  0
   56.3055   27.7347   46.5158 H   0  0  0  0  0  0  0  0  0  0  0  0
   58.2302   26.2741   47.1404 H   0  0  0  0  0  0  0  0  0  0  0  0
   60.8432   28.6377   44.6270 H   0  0  0  0  0  0  0  0  0  0  0  0
   58.9193   30.1001   44.0002 H   0  0  0  0  0  0  0  0  0  0  0  0
  1  2  2  0
  2  3  1  0
  3  4  1  0
  4  5  1  0
  5  6  1  0
  6  7  1  0
  7  8  1  0
  8  9  1  0
  9 10  2  0
 10 11  1  0
 11 12  2  0
 12 13  1  0
 13 14  2  0
  7 15  1  0
 15 16  1  0
  2 17  1  0
 17 18  2  0
 18 19  1  0
 19 20  2  0
 20 21  1  0
 20 22  1  0
 22 23  2  0
 16  4  1  0
 23 17  1  0
 14  9  1  0
  4 24  1  0
  5 25  1  0
  5 26  1  0
  6 27  1  0
  6 28  1  0
  8 29  1  0
  8 30  1  0
 10 31  1  0
 11 32  1  0
 12 33  1  0
 13 34  1  0
 14 35  1  0
 15 36  1  0
 15 37  1  0
 16 38  1  0
 16 39  1  0
 18 40  1  0
 19 41  1  0
 22 42  1  0
 23 43  1  0
M  CHG  1   3  -1
M  END
>  <UniqueID>  (10) 
10

>  <SMILES>  (10) 
O=C([N-]C1CCN(Cc2ccccc2)CC1)c1ccc(Cl)cc1

>  <Energy>  (10) 
61.99662172140657

>  <Genealogy>  (10) 
O=C([N-]C1CCN(Cc2ccccc2)CC1)c1ccc(Cl)cc1 (protonated)
O=C([N-]C1CCN(Cc2ccccc2)CC1)c1ccc(Cl)cc1 (3D coordinates assigned)
O=C([N-]C1CCN(Cc2ccccc2)CC1)c1ccc(Cl)cc1 (nonaromatic ring conformer: 61.99662172140657 kcal/mol)

>  <smiles>  (10) 
O=C(NC1CCN(Cc2ccccc2)CC1)c1ccc(Cl)cc1

>  <score_type>  (10) 
oracle

>  <origin>  (10) 
adg

>  <m_score__min__energy>  (10) 
-10.4

>  <m_primary>  (10) 
energy

$$$$
10:0
     RDKit          3D

 27 27  0  0  0  0  0  0  0  0999 V2000
   59.2290   34.5390   46.3550 C   0  0  0  0  0  0  0  0  0  0  0  0
   57.9320   33.8590   46.2150 N   0  0  0  0  0  0  0  0  0  0  0  0
   57.3490   34.1890   44.9010 C   0  0  0  0  0  0  0  0  0  0  0  0
   58.1030   32.3980   46.3700 C   0  0  0  0  0  0  0  0  0  0  0  0
   58.0080   31.6920   45.0160 C   0  0  0  0  0  0  0  0  0  0  0  0
   56.6790   31.1130   44.8600 N   0  0  0  0  0  0  0  0  0  0  0  0
   56.3660   29.7140   44.8720 C   0  0  0  0  0  0  0  0  0  0  0  0
   55.1550   29.3710   44.8340 O   0  0  0  0  0  0  0  0  0  0  0  0
   57.3980   28.6620   44.9770 C   0  0  0  0  0  0  0  0  0  0  0  0
   58.2970   28.5470   46.0230 C   0  0  0  0  0  0  0  0  0  0  0  0
   59.0370   27.4130   45.7640 C   0  0  0  0  0  0  0  0  0  0  0  0
   60.4390   26.7040   46.8460 Br  0  0  0  0  0  0  0  0  0  0  0  0
   58.5570   26.8730   44.5900 C   0  0  0  0  0  0  0  0  0  0  0  0
   57.5530   27.6340   44.1180 N   0  0  0  0  0  0  0  0  0  0  0  0
   59.4649   34.6627   47.4223 H   0  0  0  0  0  0  0  0  0  0  0  0
   60.0130   33.9360   45.8737 H   0  0  0  0  0  0  0  0  0  0  0  0
   59.1789   35.5269   45.8737 H   0  0  0  0  0  0  0  0  0  0  0  0
   56.4000   34.7262   45.0454 H   0  0  0  0  0  0  0  0  0  0  0  0
   58.0485   34.8251   44.3388 H   0  0  0  0  0  0  0  0  0  0  0  0
   57.1637   33.2619   44.3388 H   0  0  0  0  0  0  0  0  0  0  0  0
   59.0890   32.1956   46.8136 H   0  0  0  0  0  0  0  0  0  0  0  0
   57.3035   32.0172   47.0225 H   0  0  0  0  0  0  0  0  0  0  0  0
   58.1877   32.4191   44.2103 H   0  0  0  0  0  0  0  0  0  0  0  0
   58.7631   30.8937   44.9658 H   0  0  0  0  0  0  0  0  0  0  0  0
   58.4000   29.2225   46.8850 H   0  0  0  0  0  0  0  0  0  0  0  0
   58.9373   25.9584   44.1116 H   0  0  0  0  0  0  0  0  0  0  0  0
   56.9770   27.4150   43.2770 H   0  0  0  0  0  0  0  0  0  0  0  0
  1  2  1  0
  2  3  1  0
  2  4  1  0
  4  5  1  0
  5  6  1  0
  6  7  1  0
  7  8  2  0
  7  9  1  0
  9 10  2  0
 10 11  1  0
 11 12  1  0
 11 13  2  0
 13 14  1  0
 14  9  1  0
  1 15  1  0
  1 16  1  0
  1 17  1  0
  3 18  1  0
  3 19  1  0
  3 20  1  0
  4 21  1  0
  4 22  1  0
  5 23  1  0
  5 24  1  0
 10 25  1  0
 13 26  1  0
 14 27  1  0
M  CHG  1   6  -1
M  END
>  <UniqueID>  (11) 
11

>  <SMILES>  (11) 
CN(C)CC[N-]C(=O)c1cc(Br)c[nH]1

>  <Energy>  (11) 
50.863136538247595

>  <Genealogy>  (11) 
CN(C)CC[N-]C(=O)c1cc(Br)c[nH]1 (protonated)
CN(C)CC[N-]C(=O)c1cc(Br)c[nH]1 (3D coordinates assigned)
CN(C)CC[N-]C(=O)c1cc(Br)c[nH]1 (optimized conformer: 50.863136538247595 kcal/mol)

>  <smiles>  (11) 
CN(C)CCNC(=O)c1cc(Br)c[nH]1

>  <score_type>  (11) 
oracle

>  <origin>  (11) 
adg

>  <m_score__min__energy>  (11) 
-7.21

>  <m_primary>  (11) 
energy

$$$$
11:0
     RDKit          3D

 25 26  0  0  0  0  0  0  0  0999 V2000
   58.6380   34.4590   46.8210 C   0  0  0  0  0  0  0  0  0  0  0  0
   57.6610   33.4600   46.8730 C   0  0  0  0  0  0  0  0  0  0  0  0
   57.3790   32.6950   45.7370 C   0  0  0  0  0  0  0  0  0  0  0  0
   58.0660   32.9350   44.5340 C   0  0  0  0  0  0  0  0  0  0  0  0
   57.7900   32.0920   43.3240 C   0  0  0  0  0  0  0  0  0  0  0  0
   56.5380   30.8340   43.7310 S   0  0  0  0  0  0  0  0  0  0  0  0
   57.7570   29.6060   44.1970 C   0  0  0  0  0  0  0  0  0  0  0  0
   58.8750   29.9890   44.8660 N   0  0  0  0  0  0  0  0  0  0  0  0
   59.8160   29.0800   45.2300 C   0  0  0  0  0  0  0  0  0  0  0  0
   59.6410   27.7340   44.9160 C   0  0  0  0  0  0  0  0  0  0  0  0
   58.4870   27.3570   44.2290 C   0  0  0  0  0  0  0  0  0  0  0  0
   57.5650   28.2940   43.8820 N   0  0  0  0  0  0  0  0  0  0  0  0
   59.0570   33.9310   44.4940 C   0  0  0  0  0  0  0  0  0  0  0  0
   59.3360   34.6930   45.6330 C   0  0  0  0  0  0  0  0  0  0  0  0
   58.8573   35.0608   47.7153 H   0  0  0  0  0  0  0  0  0  0  0  0
   57.1134   33.2756   47.8090 H   0  0  0  0  0  0  0  0  0  0  0  0
   56.6172   31.9029   45.7847 H   0  0  0  0  0  0  0  0  0  0  0  0
   57.4165   32.7306   42.5100 H   0  0  0  0  0  0  0  0  0  0  0  0
   58.7179   31.5950   43.0048 H   0  0  0  0  0  0  0  0  0  0  0  0
   60.7157   29.4062   45.7723 H   0  0  0  0  0  0  0  0  0  0  0  0
   60.3950   26.9862   45.2030 H   0  0  0  0  0  0  0  0  0  0  0  0
   58.3229   26.3011   43.9679 H   0  0  0  0  0  0  0  0  0  0  0  0
   56.7050   28.0020   43.3670 H   0  0  0  0  0  0  0  0  0  0  0  0
   59.6151   34.1117   43.5635 H   0  0  0  0  0  0  0  0  0  0  0  0
   60.1059   35.4777   45.5938 H   0  0  0  0  0  0  0  0  0  0  0  0
  1  2  2  0
  2  3  1  0
  3  4  2  0
  4  5  1  0
  5  6  1  0
  6  7  1  0
  7  8  2  0
  8  9  1  0
  9 10  2  0
 10 11  1  0
 11 12  2  0
  4 13  1  0
 13 14  2  0
 14  1  1  0
 12  7  1  0
  1 15  1  0
  2 16  1  0
  3 17  1  0
  5 18  1  0
  5 19  1  0
  9 20  1  0
 10 21  1  0
 11 22  1  0
 12 23  1  0
 13 24  1  0
 14 25  1  0
M  CHG  1  12   1
M  END
>  <UniqueID>  (12) 
12

>  <SMILES>  (12) 
c1ccc(CSc2nccc[nH+]2)cc1

>  <Energy>  (12) 
21.416090394030252

>  <Genealogy>  (12) 
c1ccc(CSc2nccc[nH+]2)cc1 (protonated)
c1ccc(CSc2nccc[nH+]2)cc1 (3D coordinates assigned)
c1ccc(CSc2nccc[nH+]2)cc1 (optimized conformer: 21.416090394030252 kcal/mol)

>  <smiles>  (12) 
c1ccc(CSc2ncccn2)cc1

>  <score_type>  (12) 
oracle

>  <origin>  (12) 
adg

>  <m_score__min__energy>  (12) 
-4.6500000000000004

>  <m_primary>  (12) 
energy

$$$$
12:0
     RDKit          3D

 45 47  0  0  0  0  0  0  0  0999 V2000
   58.8211   33.2828   42.7108 H   0  0  0  0  0  0  0  0  0  0  0  0
   58.1260   32.4340   42.7910 C   0  0  0  0  0  0  0  0  0  0  0  0
   57.8510   31.7840   43.9000 O   0  0  0  0  0  0  0  0  0  0  0  0
   56.9840   30.8370   43.6250 C   0  0  0  0  0  0  0  0  0  0  0  0
   56.4420   29.9050   44.6190 C   0  0  0  0  0  0  0  0  0  0  0  0
   55.2010   29.6720   44.6380 O   0  0  0  0  0  0  0  0  0  0  0  0
   57.3090   29.3590   45.6220 N   0  0  0  0  0  0  0  0  0  0  0  0
   57.8000   28.1490   45.7110 C   0  0  0  0  0  0  0  0  0  0  0  0
   58.7940   27.8900   46.6310 N   0  0  0  0  0  0  0  0  0  0  0  0
   59.2990   28.9270   47.5500 C   0  0  0  0  0  0  0  0  0  0  0  0
   59.9760   28.4595   48.2802 H   0  0  0  0  0  0  0  0  0  0  0  0
   58.4392   29.3900   48.0564 H   0  0  0  0  0  0  0  0  0  0  0  0
   60.0450   29.9990   46.8080 C   0  0  0  0  0  0  0  0  0  0  0  0
   60.2250   29.8800   45.5660 O   0  0  0  0  0  0  0  0  0  0  0  0
   60.6450   31.0980   47.5090 N   0  0  0  0  0  0  0  0  0  0  0  0
   62.0720   31.3520   47.3130 C   0  0  0  0  0  0  0  0  0  0  0  0
   62.5666   31.4400   48.2916 H   0  0  0  0  0  0  0  0  0  0  0  0
   62.5187   30.5193   46.7500 H   0  0  0  0  0  0  0  0  0  0  0  0
   62.2039   32.2877   46.7500 H   0  0  0  0  0  0  0  0  0  0  0  0
   59.8030   32.1070   48.1600 C   0  0  0  0  0  0  0  0  0  0  0  0
   59.0207   31.6031   48.7465 H   0  0  0  0  0  0  0  0  0  0  0  0
   60.4301   32.7244   48.8200 H   0  0  0  0  0  0  0  0  0  0  0  0
   59.1580   32.9920   47.1300 C   0  0  0  0  0  0  0  0  0  0  0  0
   59.9400   33.8310   46.3180 C   0  0  0  0  0  0  0  0  0  0  0  0
   61.0315   33.8606   46.4509 H   0  0  0  0  0  0  0  0  0  0  0  0
   59.3350   34.6280   45.3420 C   0  0  0  0  0  0  0  0  0  0  0  0
   59.9505   35.2867   44.7117 H   0  0  0  0  0  0  0  0  0  0  0  0
   57.9490   34.5890   45.1660 C   0  0  0  0  0  0  0  0  0  0  0  0
   57.4746   35.2193   44.3994 H   0  0  0  0  0  0  0  0  0  0  0  0
   57.1650   33.7500   45.9630 C   0  0  0  0  0  0  0  0  0  0  0  0
   56.0745   33.7188   45.8220 H   0  0  0  0  0  0  0  0  0  0  0  0
   57.7670   32.9500   46.9400 C   0  0  0  0  0  0  0  0  0  0  0  0
   57.1488   32.2857   47.5617 H   0  0  0  0  0  0  0  0  0  0  0  0
   59.3480   26.6440   46.7050 C   0  0  0  0  0  0  0  0  0  0  0  0
   60.1385   26.4435   47.4432 H   0  0  0  0  0  0  0  0  0  0  0  0
   58.9250   25.6270   45.8590 C   0  0  0  0  0  0  0  0  0  0  0  0
   59.3687   24.6224   45.9221 H   0  0  0  0  0  0  0  0  0  0  0  0
   57.9300   25.9060   44.9320 C   0  0  0  0  0  0  0  0  0  0  0  0
   57.3910   24.6520   43.8270 Cl  0  0  0  0  0  0  0  0  0  0  0  0
   57.3920   27.1510   44.8640 N   0  0  0  0  0  0  0  0  0  0  0  0
   56.6940   27.3260   44.1100 H   0  0  0  0  0  0  0  0  0  0  0  0
   56.6710   30.8600   42.2790 C   0  0  0  0  0  0  0  0  0  0  0  0
   55.9758   30.1939   41.7470 H   0  0  0  0  0  0  0  0  0  0  0  0
   57.4110   31.8910   41.7420 C   0  0  0  0  0  0  0  0  0  0  0  0
   57.4285   32.2155   40.6911 H   0  0  0  0  0  0  0  0  0  0  0  0
  1  2  1  0
  2  3  1  0
  3  4  1  0
  4  5  1  0
  5  6  2  0
  5  7  1  0
  7  8  2  0
  8  9  1  0
  9 10  1  0
 10 11  1  0
 10 12  1  0
 10 13  1  0
 13 14  2  0
 13 15  1  0
 15 16  1  0
 16 17  1  0
 16 18  1  0
 16 19  1  0
 15 20  1  0
 20 21  1  0
 20 22  1  0
 20 23  1  0
 23 24  2  0
 24 25  1  0
 24 26  1  0
 26 27  1  0
 26 28  2  0
 28 29  1  0
 28 30  1  0
 30 31  1  0
 30 32  2  0
 32 33  1  0
  9 34  1  0
 34 35  1  0
 34 36  2  0
 36 37  1  0
 36 38  1  0
 38 39  1  0
 38 40  2  0
 40 41  1  0
  4 42  2  0
 42 43  1  0
 42 44  1  0
 44 45  1  0
 44  2  2  0
 40  8  1  0
 32 23  1  0
M  CHG  1  40   1
M  END
>  <UniqueID>  (13) 
13

>  <SMILES>  (13) 
CN(Cc1ccccc1)C(=O)Cn1ccc(Cl)[nH+]/c1=N\C(=O)c1ccco1

>  <Energy>  (13) 
81.82780954140935

>  <Genealogy>  (13) 
CN(Cc1ccccc1)C(=O)Cn1ccc(Cl)[nH+]c1=NC(=O)c1ccco1 (protonated)
CN(Cc1ccccc1)C(=O)Cn1ccc(Cl)[nH+]/c1=N\C(=O)c1ccco1 (cis-trans isomerization)
CN(Cc1ccccc1)C(=O)Cn1ccc(Cl)[nH+]/c1=N\C(=O)c1ccco1 (3D coordinates assigned)
CN(Cc1ccccc1)C(=O)Cn1ccc(Cl)[nH+]/c1=N\C(=O)c1ccco1 (optimized conformer: 81.82780954140935 kcal/mol)

>  <smiles>  (13) 
CN(Cc1ccccc1)C(=O)Cn1ccc(Cl)nc1=NC(=O)c1ccco1

>  <score_type>  (13) 
oracle

>  <origin>  (13) 
adg

>  <m_score__min__energy>  (13) 
-6.7199999999999998

>  <m_primary>  (13) 
energy

$$$$
13:0
     RDKit          3D

 30 32  0  0  1  0  0  0  0  0999 V2000
   60.3290   28.3320   45.2370 C   0  0  0  0  0  0  0  0  0  0  0  0
   60.5260   29.4530   45.9750 C   0  0  0  0  0  0  0  0  0  0  0  0
   59.5160   30.4540   45.9960 C   0  0  0  0  0  0  0  0  0  0  0  0
   58.4140   30.1910   45.2520 C   0  0  0  0  0  0  0  0  0  0  0  0
   57.3900   31.0990   45.2180 C   0  0  0  0  0  0  0  0  0  0  0  0
   57.4630   32.2360   45.7370 N   0  0  0  0  0  0  0  0  0  0  0  0
   58.0070   33.3940   45.1620 C   0  0  0  0  0  0  0  0  0  0  0  0
   59.0650   33.7490   46.2160 C   0  0  0  0  0  0  0  0  0  0  0  0
   60.3800   33.8690   45.8170 C   0  0  0  0  0  0  0  0  0  0  0  0
   61.3040   34.1690   46.7760 C   0  0  0  0  0  0  0  0  0  0  0  0
   60.9380   34.3380   48.0330 N   0  0  0  0  0  0  0  0  0  0  0  0
   59.6840   34.2360   48.4820 C   0  0  0  0  0  0  0  0  0  0  0  0
   58.7140   33.9300   47.5350 C   0  0  0  0  0  0  0  0  0  0  0  0
   56.2780   30.8410   44.4930 N   0  0  0  0  0  0  0  0  0  0  0  0
   56.1510   29.7120   43.7960 C   0  0  0  0  0  0  0  0  0  0  0  0
   57.1220   28.7890   43.7860 N   0  0  0  0  0  0  0  0  0  0  0  0
   58.2270   29.0400   44.5040 C   0  0  0  0  0  0  0  0  0  0  0  0
   59.2080   28.0630   44.4830 C   0  0  0  0  0  0  0  0  0  0  0  0
   61.1289   27.5769   45.2410 H   0  0  0  0  0  0  0  0  0  0  0  0
   61.4546   29.5860   46.5495 H   0  0  0  0  0  0  0  0  0  0  0  0
   59.6222   31.3813   46.5781 H   0  0  0  0  0  0  0  0  0  0  0  0
   58.4616   33.1873   44.1819 H   0  0  0  0  0  0  0  0  0  0  0  0
   57.2786   34.1912   44.9525 H   0  0  0  0  0  0  0  0  0  0  0  0
   60.6729   33.7283   44.7661 H   0  0  0  0  0  0  0  0  0  0  0  0
   62.3636   34.2709   46.4987 H   0  0  0  0  0  0  0  0  0  0  0  0
   59.4331   34.3859   49.5425 H   0  0  0  0  0  0  0  0  0  0  0  0
   57.6618   33.8320   47.8404 H   0  0  0  0  0  0  0  0  0  0  0  0
   55.2319   29.5348   43.2183 H   0  0  0  0  0  0  0  0  0  0  0  0
   56.9930   27.9110   43.2260 H   0  0  0  0  0  0  0  0  0  0  0  0
   59.0994   27.1345   43.9032 H   0  0  0  0  0  0  0  0  0  0  0  0
  1  2  2  0
  2  3  1  0
  3  4  2  0
  4  5  1  0
  5  6  2  0
  6  7  1  0
  7  8  1  0
  8  9  2  0
  9 10  1  0
 10 11  2  0
 11 12  1  0
 12 13  2  0
  5 14  1  0
 14 15  2  0
 15 16  1  0
 16 17  1  0
 17 18  2  0
 18  1  1  0
 17  4  1  0
 13  8  1  0
  1 19  1  0
  2 20  1  0
  3 21  1  0
  7 22  1  0
  7 23  1  0
  9 24  1  0
 10 25  1  0
 12 26  1  0
 13 27  1  0
 15 28  1  0
 16 29  1  0
 18 30  1  0
M  END
>  <smiles>  (14) 
c1ccc2c(=NCc3ccncc3)nc[nH]c2c1

>  <score_type>  (14) 
oracle

>  <origin>  (14) 
adg

>  <m_score__min__energy>  (14) 
-7.1900000000000004

>  <m_primary>  (14) 
energy

$$$$
14:0
     RDKit          3D

 42 46  0  0  0  0  0  0  0  0999 V2000
   63.6590   33.5430   47.5780 C   0  0  0  0  0  0  0  0  0  0  0  0
   63.2960   32.2710   47.1250 C   0  0  0  0  0  0  0  0  0  0  0  0
   62.3010   31.5480   47.7900 C   0  0  0  0  0  0  0  0  0  0  0  0
   61.6580   32.0960   48.9120 C   0  0  0  0  0  0  0  0  0  0  0  0
   60.6380   31.2880   49.6720 C   0  0  0  0  0  0  0  0  0  0  0  0
   59.2110   31.7820   49.4030 C   0  0  0  0  0  0  0  0  0  0  0  0
   58.9620   31.9140   47.9650 N   0  0  0  0  0  0  0  0  0  0  0  0
   59.0640   33.0270   47.1860 C   0  0  0  0  0  0  0  0  0  0  0  0
   59.3570   34.3360   47.5840 C   0  0  0  0  0  0  0  0  0  0  0  0
   59.4560   35.3250   46.5880 C   0  0  0  0  0  0  0  0  0  0  0  0
   59.2660   34.9990   45.2270 C   0  0  0  0  0  0  0  0  0  0  0  0
   58.9760   33.6780   44.8420 C   0  0  0  0  0  0  0  0  0  0  0  0
   58.8800   32.7210   45.8470 C   0  0  0  0  0  0  0  0  0  0  0  0
   58.6610   31.3670   45.8020 C   0  0  0  0  0  0  0  0  0  0  0  0
   58.4740   30.5380   44.7480 N   0  0  0  0  0  0  0  0  0  0  0  0
   58.3320   29.2020   45.0010 C   0  0  0  0  0  0  0  0  0  0  0  0
   58.1300   28.3010   43.9510 C   0  0  0  0  0  0  0  0  0  0  0  0
   57.9910   26.9350   44.2180 C   0  0  0  0  0  0  0  0  0  0  0  0
   58.0560   26.4620   45.5350 C   0  0  0  0  0  0  0  0  0  0  0  0
   58.2580   27.3500   46.5970 C   0  0  0  0  0  0  0  0  0  0  0  0
   58.3970   28.7180   46.3460 C   0  0  0  0  0  0  0  0  0  0  0  0
   58.5990   29.5910   47.3790 N   0  0  0  0  0  0  0  0  0  0  0  0
   58.7220   30.9100   47.0910 C   0  0  0  0  0  0  0  0  0  0  0  0
   62.0290   33.3760   49.3620 C   0  0  0  0  0  0  0  0  0  0  0  0
   63.0260   34.0940   48.6950 C   0  0  0  0  0  0  0  0  0  0  0  0
   64.4431   34.1100   47.0548 H   0  0  0  0  0  0  0  0  0  0  0  0
   63.7937   31.8386   46.2445 H   0  0  0  0  0  0  0  0  0  0  0  0
   62.0207   30.5460   47.4330 H   0  0  0  0  0  0  0  0  0  0  0  0
   60.7152   30.2350   49.3636 H   0  0  0  0  0  0  0  0  0  0  0  0
   60.8432   31.3989   50.7470 H   0  0  0  0  0  0  0  0  0  0  0  0
   58.4955   31.0622   49.8271 H   0  0  0  0  0  0  0  0  0  0  0  0
   59.0885   32.7697   49.8714 H   0  0  0  0  0  0  0  0  0  0  0  0
   59.5057   34.5848   48.6451 H   0  0  0  0  0  0  0  0  0  0  0  0
   59.6838   36.3629   46.8724 H   0  0  0  0  0  0  0  0  0  0  0  0
   59.3455   35.7851   44.4617 H   0  0  0  0  0  0  0  0  0  0  0  0
   58.8304   33.4112   43.7848 H   0  0  0  0  0  0  0  0  0  0  0  0
   58.0804   28.6665   42.9147 H   0  0  0  0  0  0  0  0  0  0  0  0
   57.8299   26.2289   43.3900 H   0  0  0  0  0  0  0  0  0  0  0  0
   57.9476   25.3858   45.7353 H   0  0  0  0  0  0  0  0  0  0  0  0
   58.3074   26.9719   47.6288 H   0  0  0  0  0  0  0  0  0  0  0  0
   61.5333   33.8133   50.2412 H   0  0  0  0  0  0  0  0  0  0  0  0
   63.3127   35.0948   49.0503 H   0  0  0  0  0  0  0  0  0  0  0  0
  1  2  2  0
  2  3  1  0
  3  4  2  0
  4  5  1  0
  5  6  1  0
  6  7  1  0
  7  8  1  0
  8  9  2  0
  9 10  1  0
 10 11  2  0
 11 12  1  0
 12 13  2  0
 13 14  1  0
 14 15  2  0
 15 16  1  0
 16 17  2  0
 17 18  1  0
 18 19  2  0
 19 20  1  0
 20 21  2  0
 21 22  1  0
 22 23  2  0
  4 24  1  0
 24 25  2  0
 25  1  1  0
 23  7  1  0
 13  8  1  0
 23 14  1  0
 21 16  1  0
  1 26  1  0
  2 27  1  0
  3 28  1  0
  5 29  1  0
  5 30  1  0
  6 31  1  0
  6 32  1  0
  9 33  1  0
 10 34  1  0
 11 35  1  0
 12 36  1  0
 17 37  1  0
 18 38  1  0
 19 39  1  0
 20 40  1  0
 24 41  1  0
 25 42  1  0
M  END
>  <UniqueID>  (15) 
14

>  <SMILES>  (15) 
c1ccc(CCn2c3ccccc3c3nc4ccccc4nc32)cc1

>  <Energy>  (15) 
91.4373447516017

>  <Genealogy>  (15) 
c1ccc(CCn2c3ccccc3c3nc4ccccc4nc32)cc1 (3D coordinates assigned)
c1ccc(CCn2c3ccccc3c3nc4ccccc4nc32)cc1 (optimized conformer: 91.4373447516017 kcal/mol)

>  <smiles>  (15) 
c1ccc(CCn2c3ccccc3c3nc4ccccc4nc32)cc1

>  <score_type>  (15) 
oracle

>  <origin>  (15) 
adg

>  <m_score__min__energy>  (15) 
-8.0099999999999998

>  <m_primary>  (15) 
energy

$$$$
15:0
     RDKit          3D

 33 35  0  0  0  0  0  0  0  0999 V2000
   55.8610   30.4580   44.1690 C   0  0  0  0  0  0  0  0  0  0  0  0
   56.3340   29.3560   43.2220 C   0  0  0  0  0  0  0  0  0  0  0  0
   57.7790   29.1270   43.3650 N   0  0  0  0  0  0  0  0  0  0  0  0
   58.0420   28.3020   44.5250 C   0  0  0  0  0  0  0  0  0  0  0  0
   57.7870   26.9180   44.4510 C   0  0  0  0  0  0  0  0  0  0  0  0
   57.9420   26.1020   45.5730 C   0  0  0  0  0  0  0  0  0  0  0  0
   58.3350   26.6550   46.7900 C   0  0  0  0  0  0  0  0  0  0  0  0
   58.5810   28.0240   46.8890 C   0  0  0  0  0  0  0  0  0  0  0  0
   58.4510   28.8580   45.7680 C   0  0  0  0  0  0  0  0  0  0  0  0
   58.7160   30.2970   45.9450 C   0  0  0  0  0  0  0  0  0  0  0  0
   58.5740   31.1970   44.9400 N   0  0  0  0  0  0  0  0  0  0  0  0
   58.7960   32.4610   45.3800 C   0  0  0  0  0  0  0  0  0  0  0  0
   58.7350   33.5990   44.5750 C   0  0  0  0  0  0  0  0  0  0  0  0
   58.9810   34.8540   45.1610 C   0  0  0  0  0  0  0  0  0  0  0  0
   59.2790   34.9550   46.5350 C   0  0  0  0  0  0  0  0  0  0  0  0
   59.3360   33.8030   47.3350 C   0  0  0  0  0  0  0  0  0  0  0  0
   59.0910   32.5730   46.7300 C   0  0  0  0  0  0  0  0  0  0  0  0
   59.0760   31.0460   47.4240 S   0  0  0  0  0  0  0  0  0  0  0  0
   56.0010   30.1318   45.2101 H   0  0  0  0  0  0  0  0  0  0  0  0
   56.4461   31.3720   43.9893 H   0  0  0  0  0  0  0  0  0  0  0  0
   54.7954   30.6635   43.9893 H   0  0  0  0  0  0  0  0  0  0  0  0
   55.7968   28.4250   43.4557 H   0  0  0  0  0  0  0  0  0  0  0  0
   56.1280   29.6687   42.1877 H   0  0  0  0  0  0  0  0  0  0  0  0
   58.2840   30.0370   43.4400 H   0  0  0  0  0  0  0  0  0  0  0  0
   58.1390   28.6530   42.5040 H   0  0  0  0  0  0  0  0  0  0  0  0
   57.4620   26.4754   43.4978 H   0  0  0  0  0  0  0  0  0  0  0  0
   57.7536   25.0210   45.4962 H   0  0  0  0  0  0  0  0  0  0  0  0
   58.4514   26.0107   47.6740 H   0  0  0  0  0  0  0  0  0  0  0  0
   58.8801   28.4547   47.8560 H   0  0  0  0  0  0  0  0  0  0  0  0
   58.4993   33.5165   43.5037 H   0  0  0  0  0  0  0  0  0  0  0  0
   58.9405   35.7629   44.5427 H   0  0  0  0  0  0  0  0  0  0  0  0
   59.4679   35.9419   46.9827 H   0  0  0  0  0  0  0  0  0  0  0  0
   59.5674   33.8699   48.4083 H   0  0  0  0  0  0  0  0  0  0  0  0
  1  2  1  0
  2  3  1  0
  3  4  1  0
  4  5  2  0
  5  6  1  0
  6  7  2  0
  7  8  1  0
  8  9  2  0
  9 10  1  0
 10 11  2  0
 11 12  1  0
 12 13  2  0
 13 14  1  0
 14 15  2  0
 15 16  1  0
 16 17  2  0
 17 18  1  0
  9  4  1  0
 18 10  1  0
 17 12  1  0
  1 19  1  0
  1 20  1  0
  1 21  1  0
  2 22  1  0
  2 23  1  0
  3 24  1  0
  3 25  1  0
  5 26  1  0
  6 27  1  0
  7 28  1  0
  8 29  1  0
 13 30  1  0
 14 31  1  0
 15 32  1  0
 16 33  1  0
M  CHG  1   3   1
M  END
>  <UniqueID>  (16) 
15

>  <SMILES>  (16) 
CC[NH2+]c1ccccc1-c1nc2ccccc2s1

>  <Energy>  (16) 
75.20257434235084

>  <Genealogy>  (16) 
CC[NH2+]c1ccccc1-c1nc2ccccc2s1 (protonated)
CC[NH2+]c1ccccc1-c1nc2ccccc2s1 (3D coordinates assigned)
CC[NH2+]c1ccccc1-c1nc2ccccc2s1 (optimized conformer: 75.20257434235084 kcal/mol)

>  <smiles>  (16) 
CCNc1ccccc1-c1nc2ccccc2s1

>  <score_type>  (16) 
oracle

>  <origin>  (16) 
adg

>  <m_score__min__energy>  (16) 
-5.1600000000000001

>  <m_primary>  (16) 
energy

$$$$
16:0
     RDKit          3D

 47 50  0  0  0  0  0  0  0  0999 V2000
   66.1800   31.6630   50.5720 C   0  0  0  0  0  0  0  0  0  0  0  0
   65.6240   32.7040   49.7740 O   0  0  0  0  0  0  0  0  0  0  0  0
   64.4350   32.5880   49.0400 C   0  0  0  0  0  0  0  0  0  0  0  0
   64.1410   33.4200   47.9420 C   0  0  0  0  0  0  0  0  0  0  0  0
   62.9370   33.2720   47.2500 C   0  0  0  0  0  0  0  0  0  0  0  0
   61.9960   32.3170   47.6600 C   0  0  0  0  0  0  0  0  0  0  0  0
   60.7380   32.1550   46.9010 C   0  0  0  0  0  0  0  0  0  0  0  0
   60.5040   30.9330   46.3570 N   0  0  0  0  0  0  0  0  0  0  0  0
   59.3750   30.6600   45.6660 C   0  0  0  0  0  0  0  0  0  0  0  0
   59.1760   29.3840   45.1240 C   0  0  0  0  0  0  0  0  0  0  0  0
   58.0050   29.0980   44.4180 C   0  0  0  0  0  0  0  0  0  0  0  0
   57.0280   30.0850   44.2520 C   0  0  0  0  0  0  0  0  0  0  0  0
   55.5590   29.7210   43.3640 Cl  0  0  0  0  0  0  0  0  0  0  0  0
   57.2210   31.3620   44.7930 C   0  0  0  0  0  0  0  0  0  0  0  0
   58.4010   31.6570   45.5040 C   0  0  0  0  0  0  0  0  0  0  0  0
   58.6480   32.9250   46.0560 C   0  0  0  0  0  0  0  0  0  0  0  0
   57.7870   33.8390   45.9180 O   0  0  0  0  0  0  0  0  0  0  0  0
   59.8210   33.1750   46.7330 N   0  0  0  0  0  0  0  0  0  0  0  0
   60.0950   34.5600   47.1900 C   0  0  0  0  0  0  0  0  0  0  0  0
   59.4170   34.8560   48.5350 C   0  0  0  0  0  0  0  0  0  0  0  0
   59.6410   33.7480   49.5310 C   0  0  0  0  0  0  0  0  0  0  0  0
   58.8140   32.6160   49.5280 C   0  0  0  0  0  0  0  0  0  0  0  0
   59.0430   31.5940   50.4510 C   0  0  0  0  0  0  0  0  0  0  0  0
   60.0660   31.6930   51.3430 N   0  0  0  0  0  0  0  0  0  0  0  0
   60.8880   32.7770   51.3600 C   0  0  0  0  0  0  0  0  0  0  0  0
   60.6950   33.8210   50.4520 C   0  0  0  0  0  0  0  0  0  0  0  0
   62.3080   31.4570   48.7230 C   0  0  0  0  0  0  0  0  0  0  0  0
   63.5150   31.6030   49.4150 C   0  0  0  0  0  0  0  0  0  0  0  0
   66.0494   31.9075   51.6365 H   0  0  0  0  0  0  0  0  0  0  0  0
   65.6677   30.7157   50.3478 H   0  0  0  0  0  0  0  0  0  0  0  0
   67.2522   31.5620   50.3478 H   0  0  0  0  0  0  0  0  0  0  0  0
   64.8623   34.1890   47.6285 H   0  0  0  0  0  0  0  0  0  0  0  0
   62.7257   33.9085   46.3781 H   0  0  0  0  0  0  0  0  0  0  0  0
   59.9427   28.6061   45.2544 H   0  0  0  0  0  0  0  0  0  0  0  0
   57.8511   28.0955   43.9922 H   0  0  0  0  0  0  0  0  0  0  0  0
   56.4503   32.1359   44.6627 H   0  0  0  0  0  0  0  0  0  0  0  0
   61.1815   34.6907   47.3016 H   0  0  0  0  0  0  0  0  0  0  0  0
   59.6904   35.2559   46.4403 H   0  0  0  0  0  0  0  0  0  0  0  0
   59.8293   35.7905   48.9434 H   0  0  0  0  0  0  0  0  0  0  0  0
   58.3346   34.9443   48.3599 H   0  0  0  0  0  0  0  0  0  0  0  0
   57.9904   32.5337   48.8035 H   0  0  0  0  0  0  0  0  0  0  0  0
   58.3943   30.7056   50.4573 H   0  0  0  0  0  0  0  0  0  0  0  0
   60.2260   30.9190   52.0240 H   0  0  0  0  0  0  0  0  0  0  0  0
   61.7077   32.8316   52.0915 H   0  0  0  0  0  0  0  0  0  0  0  0
   61.3649   34.6934   50.4598 H   0  0  0  0  0  0  0  0  0  0  0  0
   61.6016   30.6654   49.0135 H   0  0  0  0  0  0  0  0  0  0  0  0
   63.7426   30.9378   50.2610 H   0  0  0  0  0  0  0  0  0  0  0  0
  1  2  1  0
  2  3  1  0
  3  4  2  0
  4  5  1  0
  5  6  2  0
  6  7  1  0
  7  8  2  0
  8  9  1  0
  9 10  2  0
 10 11  1  0
 11 12  2  0
 12 13  1  0
 12 14  1  0
 14 15  2  0
 15 16  1  0
 16 17  2  0
 16 18  1  0
 18 19  1  0
 19 20  1  0
 20 21  1  0
 21 22  2  0
 22 23  1  0
 23 24  2  0
 24 25  1  0
 25 26  2  0
  6 27  1  0
 27 28  2  0
 28  3  1  0
 18  7  1  0
 26 21  1  0
 15  9  1  0
  1 29  1  0
  1 30  1  0
  1 31  1  0
  4 32  1  0
  5 33  1  0
 10 34  1  0
 11 35  1  0
 14 36  1  0
 19 37  1  0
 19 38  1  0
 20 39  1  0
 20 40  1  0
 22 41  1  0
 23 42  1  0
 24 43  1  0
 25 44  1  0
 26 45  1  0
 27 46  1  0
 28 47  1  0
M  CHG  1  24   1
M  END
>  <UniqueID>  (17) 
16

>  <SMILES>  (17) 
COc1ccc(-c2nc3ccc(Cl)cc3c(=O)n2CCc2cc[nH+]cc2)cc1

>  <Energy>  (17) 
61.00343514655579

>  <Genealogy>  (17) 
COc1ccc(-c2nc3ccc(Cl)cc3c(=O)n2CCc2cc[nH+]cc2)cc1 (protonated)
COc1ccc(-c2nc3ccc(Cl)cc3c(=O)n2CCc2cc[nH+]cc2)cc1 (3D coordinates assigned)
COc1ccc(-c2nc3ccc(Cl)cc3c(=O)n2CCc2cc[nH+]cc2)cc1 (optimized conformer: 61.00343514655579 kcal/mol)

>  <smiles>  (17) 
COc1ccc(-c2nc3ccc(Cl)cc3c(=O)n2CCc2ccncc2)cc1

>  <score_type>  (17) 
oracle

>  <origin>  (17) 
adg

>  <m_score__min__energy>  (17) 
-7.0099999999999998

>  <m_primary>  (17) 
energy

$$$$
17:0
     RDKit          3D

 35 36  0  0  0  0  0  0  0  0999 V2000
   55.3950   25.0370   45.6260 C   0  0  0  0  0  0  0  0  0  0  0  0
   55.4540   26.4190   45.9630 O   0  0  0  0  0  0  0  0  0  0  0  0
   56.6400   27.1620   46.0660 C   0  0  0  0  0  0  0  0  0  0  0  0
   57.7860   26.6560   46.7070 C   0  0  0  0  0  0  0  0  0  0  0  0
   58.9480   27.4230   46.7900 C   0  0  0  0  0  0  0  0  0  0  0  0
   58.9960   28.7100   46.2300 C   0  0  0  0  0  0  0  0  0  0  0  0
   60.2260   29.5350   46.3210 C   0  0  0  0  0  0  0  0  0  0  0  0
   61.1900   29.2990   45.5410 O   0  0  0  0  0  0  0  0  0  0  0  0
   60.3500   30.5680   47.3130 N   0  0  0  0  0  0  0  0  0  0  0  0
   61.3210   31.6300   47.2310 C   0  0  0  0  0  0  0  0  0  0  0  0
   62.6740   31.3820   47.5340 C   0  0  0  0  0  0  0  0  0  0  0  0
   63.6220   32.4020   47.4310 C   0  0  0  0  0  0  0  0  0  0  0  0
   63.2370   33.6770   47.0150 C   0  0  0  0  0  0  0  0  0  0  0  0
   61.9020   33.9360   46.6970 C   0  0  0  0  0  0  0  0  0  0  0  0
   60.9420   32.9200   46.7960 C   0  0  0  0  0  0  0  0  0  0  0  0
   59.5690   33.2260   46.4740 C   0  0  0  0  0  0  0  0  0  0  0  0
   58.4680   33.4710   46.2150 N   0  0  0  0  0  0  0  0  0  0  0  0
   57.8480   29.2200   45.6000 C   0  0  0  0  0  0  0  0  0  0  0  0
   56.6700   28.4500   45.5120 C   0  0  0  0  0  0  0  0  0  0  0  0
   55.5110   28.9300   44.8820 O   0  0  0  0  0  0  0  0  0  0  0  0
   55.5040   29.7480   43.7160 C   0  0  0  0  0  0  0  0  0  0  0  0
   55.3693   24.4358   46.5468 H   0  0  0  0  0  0  0  0  0  0  0  0
   54.4877   24.8420   45.0354 H   0  0  0  0  0  0  0  0  0  0  0  0
   56.2824   24.7654   45.0354 H   0  0  0  0  0  0  0  0  0  0  0  0
   57.7652   25.6476   47.1461 H   0  0  0  0  0  0  0  0  0  0  0  0
   59.8346   27.0163   47.2985 H   0  0  0  0  0  0  0  0  0  0  0  0
   59.7730   30.4890   48.1790 H   0  0  0  0  0  0  0  0  0  0  0  0
   62.9862   30.3770   47.8542 H   0  0  0  0  0  0  0  0  0  0  0  0
   64.6746   32.2000   47.6783 H   0  0  0  0  0  0  0  0  0  0  0  0
   63.9858   34.4790   46.9374 H   0  0  0  0  0  0  0  0  0  0  0  0
   61.6028   34.9419   46.3674 H   0  0  0  0  0  0  0  0  0  0  0  0
   57.8686   30.2324   45.1702 H   0  0  0  0  0  0  0  0  0  0  0  0
   55.4949   30.8075   44.0115 H   0  0  0  0  0  0  0  0  0  0  0  0
   56.4039   29.5418   43.1180 H   0  0  0  0  0  0  0  0  0  0  0  0
   54.6077   29.5264   43.1180 H   0  0  0  0  0  0  0  0  0  0  0  0
  1  2  1  0
  2  3  1  0
  3  4  2  0
  4  5  1  0
  5  6  2  0
  6  7  1  0
  7  8  2  0
  7  9  1  0
  9 10  1  0
 10 11  2  0
 11 12  1  0
 12 13  2  0
 13 14  1  0
 14 15  2  0
 15 16  1  0
 16 17  3  0
  6 18  1  0
 18 19  2  0
 19 20  1  0
 20 21  1  0
 19  3  1  0
 15 10  1  0
  1 22  1  0
  1 23  1  0
  1 24  1  0
  4 25  1  0
  5 26  1  0
  9 27  1  0
 11 28  1  0
 12 29  1  0
 13 30  1  0
 14 31  1  0
 18 32  1  0
 21 33  1  0
 21 34  1  0
 21 35  1  0
M  END
>  <UniqueID>  (18) 
17

>  <SMILES>  (18) 
COc1ccc(C(=O)Nc2ccccc2C#N)cc1OC

>  <Energy>  (18) 
40.704663512891855

>  <Genealogy>  (18) 
COc1ccc(C(=O)Nc2ccccc2C#N)cc1OC (3D coordinates assigned)
COc1ccc(C(=O)Nc2ccccc2C#N)cc1OC (optimized conformer: 40.704663512891855 kcal/mol)

>  <smiles>  (18) 
COc1ccc(C(=O)Nc2ccccc2C#N)cc1OC

>  <score_type>  (18) 
oracle

>  <origin>  (18) 
adg

>  <m_score__min__energy>  (18) 
-7.1799999999999997

>  <m_primary>  (18) 
energy

$$$$
18:0
     RDKit          3D

 34 36  0  0  0  0  0  0  0  0999 V2000
   61.9840   33.2830   46.8110 C   0  0  0  0  0  0  0  0  0  0  0  0
   61.5960   32.1420   47.5020 C   0  0  0  0  0  0  0  0  0  0  0  0
   59.9240   32.1750   47.6860 S   0  0  0  0  0  0  0  0  0  0  0  0
   59.6850   33.6320   46.8810 C   0  0  0  0  0  0  0  0  0  0  0  0
   58.3670   34.3200   46.7070 C   0  0  0  0  0  0  0  0  0  0  0  0
   57.3130   33.3540   46.3620 N   0  0  0  0  0  0  0  0  0  0  0  0
   57.0550   33.2860   44.9110 C   0  0  0  0  0  0  0  0  0  0  0  0
   57.8250   32.1220   44.2770 C   0  0  0  0  0  0  0  0  0  0  0  0
   57.1820   30.8030   44.5880 C   0  0  0  0  0  0  0  0  0  0  0  0
   55.8810   30.4200   44.2740 C   0  0  0  0  0  0  0  0  0  0  0  0
   55.6640   29.1390   44.6460 N   0  0  0  0  0  0  0  0  0  0  0  0
   56.8180   28.7060   45.1830 C   0  0  0  0  0  0  0  0  0  0  0  0
   57.0890   27.4380   45.6970 C   0  0  0  0  0  0  0  0  0  0  0  0
   58.3810   27.1950   46.1980 C   0  0  0  0  0  0  0  0  0  0  0  0
   59.3620   28.2110   46.1730 C   0  0  0  0  0  0  0  0  0  0  0  0
   59.0610   29.4810   45.6470 C   0  0  0  0  0  0  0  0  0  0  0  0
   57.7700   29.6930   45.1610 C   0  0  0  0  0  0  0  0  0  0  0  0
   60.9160   34.1190   46.4640 C   0  0  0  0  0  0  0  0  0  0  0  0
   63.0311   33.5082   46.5603 H   0  0  0  0  0  0  0  0  0  0  0  0
   62.2679   31.3512   47.8669 H   0  0  0  0  0  0  0  0  0  0  0  0
   58.0983   34.8265   47.6458 H   0  0  0  0  0  0  0  0  0  0  0  0
   58.4565   35.0500   45.8890 H   0  0  0  0  0  0  0  0  0  0  0  0
   56.4350   33.6760   46.8320 H   0  0  0  0  0  0  0  0  0  0  0  0
   55.9778   33.1406   44.7423 H   0  0  0  0  0  0  0  0  0  0  0  0
   57.3908   34.2256   44.4480 H   0  0  0  0  0  0  0  0  0  0  0  0
   57.8473   32.2603   43.1860 H   0  0  0  0  0  0  0  0  0  0  0  0
   58.8437   32.1156   44.6919 H   0  0  0  0  0  0  0  0  0  0  0  0
   55.1350   31.0684   43.7913 H   0  0  0  0  0  0  0  0  0  0  0  0
   54.7800   28.5950   44.5270 H   0  0  0  0  0  0  0  0  0  0  0  0
   56.3178   26.6537   45.7102 H   0  0  0  0  0  0  0  0  0  0  0  0
   58.6290   26.2066   46.6122 H   0  0  0  0  0  0  0  0  0  0  0  0
   60.3685   28.0080   46.5676 H   0  0  0  0  0  0  0  0  0  0  0  0
   59.8173   30.2793   45.6198 H   0  0  0  0  0  0  0  0  0  0  0  0
   61.0398   35.0652   45.9168 H   0  0  0  0  0  0  0  0  0  0  0  0
  1  2  2  0
  2  3  1  0
  3  4  1  0
  4  5  1  0
  5  6  1  0
  6  7  1  0
  7  8  1  0
  8  9  1  0
  9 10  2  0
 10 11  1  0
 11 12  1  0
 12 13  2  0
 13 14  1  0
 14 15  2  0
 15 16  1  0
 16 17  2  0
  4 18  2  0
 18  1  1  0
 17  9  1  0
 17 12  1  0
  1 19  1  0
  2 20  1  0
  5 21  1  0
  5 22  1  0
  6 23  1  0
  7 24  1  0
  7 25  1  0
  8 26  1  0
  8 27  1  0
 10 28  1  0
 11 29  1  0
 13 30  1  0
 14 31  1  0
 15 32  1  0
 16 33  1  0
 18 34  1  0
M  END
>  <UniqueID>  (19) 
18

>  <SMILES>  (19) 
c1csc(CNCCc2c[nH]c3ccccc23)c1

>  <Energy>  (19) 
90.59846168710338

>  <Genealogy>  (19) 
c1csc(CNCCc2c[nH]c3ccccc23)c1 (3D coordinates assigned)
c1csc(CNCCc2c[nH]c3ccccc23)c1 (optimized conformer: 90.59846168710338 kcal/mol)

>  <smiles>  (19) 
c1csc(CNCCc2c[nH]c3ccccc23)c1

>  <score_type>  (19) 
oracle

>  <origin>  (19) 
adg

>  <m_score__min__energy>  (19) 
-7.3099999999999996

>  <m_primary>  (19) 
energy

$$$$
19:0
     RDKit          3D

 32 33  0  0  0  0  0  0  0  0999 V2000
   59.7870   34.2010   49.1760 C   0  0  0  0  0  0  0  0  0  0  0  0
   61.0100   33.9070   48.4150 N   0  0  0  0  0  0  0  0  0  0  0  0
   62.1000   33.4330   49.0980 C   0  0  0  0  0  0  0  0  0  0  0  0
   63.2970   33.1550   48.4370 C   0  0  0  0  0  0  0  0  0  0  0  0
   63.3860   33.3650   47.0670 C   0  0  0  0  0  0  0  0  0  0  0  0
   62.2810   33.8430   46.3700 C   0  0  0  0  0  0  0  0  0  0  0  0
   61.0780   34.1030   47.0510 C   0  0  0  0  0  0  0  0  0  0  0  0
   59.9060   34.6160   46.2330 C   0  0  0  0  0  0  0  0  0  0  0  0
   59.3190   33.5310   45.4480 N   0  0  0  0  0  0  0  0  0  0  0  0
   58.2880   32.6770   45.9670 C   0  0  0  0  0  0  0  0  0  0  0  0
   57.7550   32.9450   47.0780 O   0  0  0  0  0  0  0  0  0  0  0  0
   57.8650   31.4700   45.2190 C   0  0  0  0  0  0  0  0  0  0  0  0
   57.0210   31.6180   44.1030 C   0  0  0  0  0  0  0  0  0  0  0  0
   56.6200   30.5020   43.3630 C   0  0  0  0  0  0  0  0  0  0  0  0
   57.0560   29.2270   43.7260 C   0  0  0  0  0  0  0  0  0  0  0  0
   57.8910   29.0640   44.8310 C   0  0  0  0  0  0  0  0  0  0  0  0
   58.3020   30.1740   45.5820 C   0  0  0  0  0  0  0  0  0  0  0  0
   59.3100   29.8820   46.9970 Cl  0  0  0  0  0  0  0  0  0  0  0  0
   60.0039   34.1488   50.2531 H   0  0  0  0  0  0  0  0  0  0  0  0
   59.4309   35.2103   48.9221 H   0  0  0  0  0  0  0  0  0  0  0  0
   59.0111   33.4638   48.9221 H   0  0  0  0  0  0  0  0  0  0  0  0
   62.0299   33.2693   50.1835 H   0  0  0  0  0  0  0  0  0  0  0  0
   64.1634   32.7725   48.9966 H   0  0  0  0  0  0  0  0  0  0  0  0
   64.3258   33.1544   46.5356 H   0  0  0  0  0  0  0  0  0  0  0  0
   62.3481   34.0177   45.2860 H   0  0  0  0  0  0  0  0  0  0  0  0
   59.1432   35.0269   46.9107 H   0  0  0  0  0  0  0  0  0  0  0  0
   60.2641   35.3988   45.5482 H   0  0  0  0  0  0  0  0  0  0  0  0
   59.6560   33.3910   44.4690 H   0  0  0  0  0  0  0  0  0  0  0  0
   56.6739   32.6200   43.8105 H   0  0  0  0  0  0  0  0  0  0  0  0
   55.9594   30.6290   42.4927 H   0  0  0  0  0  0  0  0  0  0  0  0
   56.7411   28.3506   43.1406 H   0  0  0  0  0  0  0  0  0  0  0  0
   58.2297   28.0568   45.1154 H   0  0  0  0  0  0  0  0  0  0  0  0
  1  2  1  0
  2  3  2  0
  3  4  1  0
  4  5  2  0
  5  6  1  0
  6  7  2  0
  7  8  1  0
  8  9  1  0
  9 10  1  0
 10 11  2  0
 10 12  1  0
 12 13  2  0
 13 14  1  0
 14 15  2  0
 15 16  1  0
 16 17  2  0
 17 18  1  0
  7  2  1  0
 17 12  1  0
  1 19  1  0
  1 20  1  0
  1 21  1  0
  3 22  1  0
  4 23  1  0
  5 24  1  0
  6 25  1  0
  8 26  1  0
  8 27  1  0
  9 28  1  0
 13 29  1  0
 14 30  1  0
 15 31  1  0
 16 32  1  0
M  CHG  1   2   1
M  END
>  <UniqueID>  (20) 
19

>  <SMILES>  (20) 
C[n+]1ccccc1CNC(=O)c1ccccc1Cl

>  <Energy>  (20) 
39.075057901087945

>  <Genealogy>  (20) 
C[n+]1ccccc1CNC(=O)c1ccccc1Cl (3D coordinates assigned)
C[n+]1ccccc1CNC(=O)c1ccccc1Cl (optimized conformer: 39.075057901087945 kcal/mol)

>  <smiles>  (20) 
C[n+]1ccccc1CNC(=O)c1ccccc1Cl

>  <score_type>  (20) 
oracle

>  <origin>  (20) 
adg

>  <m_score__min__energy>  (20) 
-4.8700000000000001

>  <m_primary>  (20) 
energy

$$$$
20:0
     RDKit          3D

 32 32  0  0  0  0  0  0  0  0999 V2000
   58.1340   26.9670   42.3820 C   0  0  0  0  0  0  0  0  0  0  0  0
   57.9030   27.9820   43.4160 N   0  0  0  0  0  0  0  0  0  0  0  0
   58.8590   27.8790   44.5340 C   0  0  0  0  0  0  0  0  0  0  0  0
   59.5610   29.2140   44.8690 C   0  0  0  0  0  0  0  0  0  0  0  0
   58.6680   30.2430   45.5880 C   0  0  0  0  0  0  0  0  0  0  0  0
   57.4980   30.6850   44.7430 C   0  0  0  0  0  0  0  0  0  0  0  0
   56.5980   29.8950   44.4970 O   0  0  0  0  0  0  0  0  0  0  0  0
   57.4140   32.0880   44.2060 C   0  0  0  0  0  0  0  0  0  0  0  0
   58.0460   33.0590   45.1670 C   0  0  0  0  0  0  0  0  0  0  0  0
   58.9500   34.0290   44.6980 C   0  0  0  0  0  0  0  0  0  0  0  0
   59.5700   34.9040   45.5940 C   0  0  0  0  0  0  0  0  0  0  0  0
   59.2980   34.8150   46.9620 C   0  0  0  0  0  0  0  0  0  0  0  0
   58.4010   33.8540   47.4360 C   0  0  0  0  0  0  0  0  0  0  0  0
   57.7740   32.9790   46.5430 C   0  0  0  0  0  0  0  0  0  0  0  0
   58.3539   26.0007   42.8594 H   0  0  0  0  0  0  0  0  0  0  0  0
   57.2349   26.8704   41.7557 H   0  0  0  0  0  0  0  0  0  0  0  0
   58.9864   27.2690   41.7557 H   0  0  0  0  0  0  0  0  0  0  0  0
   57.9290   28.9300   42.9820 H   0  0  0  0  0  0  0  0  0  0  0  0
   56.9390   27.8360   43.7990 H   0  0  0  0  0  0  0  0  0  0  0  0
   58.3150   27.5379   45.4271 H   0  0  0  0  0  0  0  0  0  0  0  0
   59.6417   27.1699   44.2264 H   0  0  0  0  0  0  0  0  0  0  0  0
   60.4232   28.9957   45.5163 H   0  0  0  0  0  0  0  0  0  0  0  0
   59.8478   29.6662   43.9081 H   0  0  0  0  0  0  0  0  0  0  0  0
   58.2832   29.7901   46.5137 H   0  0  0  0  0  0  0  0  0  0  0  0
   59.2832   31.1307   45.7968 H   0  0  0  0  0  0  0  0  0  0  0  0
   57.9406   32.1386   43.2416 H   0  0  0  0  0  0  0  0  0  0  0  0
   56.3552   32.3558   44.0745 H   0  0  0  0  0  0  0  0  0  0  0  0
   59.1697   34.0991   43.6224 H   0  0  0  0  0  0  0  0  0  0  0  0
   60.2731   35.6638   45.2221 H   0  0  0  0  0  0  0  0  0  0  0  0
   59.7904   35.5019   47.6661 H   0  0  0  0  0  0  0  0  0  0  0  0
   58.1877   33.7856   48.5130 H   0  0  0  0  0  0  0  0  0  0  0  0
   57.0658   32.2260   46.9191 H   0  0  0  0  0  0  0  0  0  0  0  0
  1  2  1  0
  2  3  1  0
  3  4  1  0
  4  5  1  0
  5  6  1  0
  6  7  2  0
  6  8  1  0
  8  9  1  0
  9 10  2  0
 10 11  1  0
 11 12  2  0
 12 13  1  0
 13 14  2  0
 14  9  1  0
  1 15  1  0
  1 16  1  0
  1 17  1  0
  2 18  1  0
  2 19  1  0
  3 20  1  0
  3 21  1  0
  4 22  1  0
  4 23  1  0
  5 24  1  0
  5 25  1  0
  8 26  1  0
  8 27  1  0
 10 28  1  0
 11 29  1  0
 12 30  1  0
 13 31  1  0
 14 32  1  0
M  CHG  1   2   1
M  END
>  <UniqueID>  (21) 
20

>  <SMILES>  (21) 
C[NH2+]CCCC(=O)Cc1ccccc1

>  <Energy>  (21) 
22.408122639995533

>  <Genealogy>  (21) 
C[NH2+]CCCC(=O)Cc1ccccc1 (protonated)
C[NH2+]CCCC(=O)Cc1ccccc1 (3D coordinates assigned)
C[NH2+]CCCC(=O)Cc1ccccc1 (optimized conformer: 22.408122639995533 kcal/mol)

>  <smiles>  (21) 
CNCCCC(=O)Cc1ccccc1

>  <score_type>  (21) 
oracle

>  <origin>  (21) 
adg

>  <m_score__min__energy>  (21) 
-4.3200000000000003

>  <m_primary>  (21) 
energy

$$$$
21:0
     RDKit          3D

 44 46  0  0  0  0  0  0  0  0999 V2000
   60.0220   34.2140   48.1140 C   0  0  0  0  0  0  0  0  0  0  0  0
   60.9050   33.7000   47.1620 C   0  0  0  0  0  0  0  0  0  0  0  0
   60.7960   32.3670   46.7510 C   0  0  0  0  0  0  0  0  0  0  0  0
   59.7990   31.5340   47.2920 C   0  0  0  0  0  0  0  0  0  0  0  0
   59.6810   30.1610   46.8670 N   0  0  0  0  0  0  0  0  0  0  0  0
   58.8610   29.2160   47.6330 C   0  0  0  0  0  0  0  0  0  0  0  0
   58.1460   28.2200   46.6980 C   0  0  0  0  0  0  0  0  0  0  0  0
   58.9390   27.8090   45.5050 N   0  0  0  0  0  0  0  0  0  0  0  0
   58.3490   28.2640   44.2220 C   0  0  0  0  0  0  0  0  0  0  0  0
   56.9980   28.9570   44.4590 C   0  0  0  0  0  0  0  0  0  0  0  0
   56.7060   30.1160   43.4910 C   0  0  0  0  0  0  0  0  0  0  0  0
   57.1420   31.4520   44.0350 C   0  0  0  0  0  0  0  0  0  0  0  0
   58.1040   32.2200   43.3600 C   0  0  0  0  0  0  0  0  0  0  0  0
   58.5060   33.4430   43.9000 C   0  0  0  0  0  0  0  0  0  0  0  0
   57.9630   33.8830   45.1080 C   0  0  0  0  0  0  0  0  0  0  0  0
   57.0230   33.0840   45.7640 C   0  0  0  0  0  0  0  0  0  0  0  0
   56.6420   31.8970   45.2210 N   0  0  0  0  0  0  0  0  0  0  0  0
   60.3740   28.1440   45.6170 C   0  0  0  0  0  0  0  0  0  0  0  0
   60.5740   29.6510   45.8190 C   0  0  0  0  0  0  0  0  0  0  0  0
   58.9140   32.0640   48.2500 C   0  0  0  0  0  0  0  0  0  0  0  0
   59.0280   33.3970   48.6580 C   0  0  0  0  0  0  0  0  0  0  0  0
   60.1092   35.2623   48.4356 H   0  0  0  0  0  0  0  0  0  0  0  0
   61.6875   34.3442   46.7345 H   0  0  0  0  0  0  0  0  0  0  0  0
   61.4939   31.9676   46.0004 H   0  0  0  0  0  0  0  0  0  0  0  0
   59.5079   28.6579   48.3258 H   0  0  0  0  0  0  0  0  0  0  0  0
   58.0997   29.7832   48.1886 H   0  0  0  0  0  0  0  0  0  0  0  0
   57.9061   27.3167   47.2781 H   0  0  0  0  0  0  0  0  0  0  0  0
   57.2538   28.7374   46.3157 H   0  0  0  0  0  0  0  0  0  0  0  0
   59.0381   28.9725   43.7391 H   0  0  0  0  0  0  0  0  0  0  0  0
   58.1878   27.3875   43.5772 H   0  0  0  0  0  0  0  0  0  0  0  0
   56.2013   28.2066   44.3490 H   0  0  0  0  0  0  0  0  0  0  0  0
   57.0380   29.3909   45.4690 H   0  0  0  0  0  0  0  0  0  0  0  0
   57.2395   29.9292   42.5473 H   0  0  0  0  0  0  0  0  0  0  0  0
   55.6170   30.1576   43.3414 H   0  0  0  0  0  0  0  0  0  0  0  0
   58.5370   31.8615   42.4145 H   0  0  0  0  0  0  0  0  0  0  0  0
   59.2500   34.0592   43.3739 H   0  0  0  0  0  0  0  0  0  0  0  0
   58.2713   34.8472   45.5385 H   0  0  0  0  0  0  0  0  0  0  0  0
   56.5911   33.4153   46.7199 H   0  0  0  0  0  0  0  0  0  0  0  0
   60.8027   27.6063   46.4755 H   0  0  0  0  0  0  0  0  0  0  0  0
   60.8765   27.8463   44.6849 H   0  0  0  0  0  0  0  0  0  0  0  0
   61.6175   29.8401   46.1112 H   0  0  0  0  0  0  0  0  0  0  0  0
   60.3403   30.1666   44.8758 H   0  0  0  0  0  0  0  0  0  0  0  0
   58.1281   31.4259   48.6803 H   0  0  0  0  0  0  0  0  0  0  0  0
   58.3337   33.8027   49.4086 H   0  0  0  0  0  0  0  0  0  0  0  0
  1  2  2  0
  2  3  1  0
  3  4  2  0
  4  5  1  0
  5  6  1  0
  6  7  1  0
  7  8  1  0
  8  9  1  0
  9 10  1  0
 10 11  1  0
 11 12  1  0
 12 13  2  0
 13 14  1  0
 14 15  2  0
 15 16  1  0
 16 17  2  0
  8 18  1  0
 18 19  1  0
  4 20  1  0
 20 21  2  0
 21  1  1  0
 19  5  1  0
 17 12  1  0
  1 22  1  0
  2 23  1  0
  3 24  1  0
  6 25  1  0
  6 26  1  0
  7 27  1  0
  7 28  1  0
  9 29  1  0
  9 30  1  0
 10 31  1  0
 10 32  1  0
 11 33  1  0
 11 34  1  0
 13 35  1  0
 14 36  1  0
 15 37  1  0
 16 38  1  0
 18 39  1  0
 18 40  1  0
 19 41  1  0
 19 42  1  0
 20 43  1  0
 21 44  1  0
M  END
>  <UniqueID>  (22) 
21

>  <SMILES>  (22) 
c1ccc(N2CCN(CCCc3ccccn3)CC2)cc1

>  <Energy>  (22) 
56.25508994874551

>  <Genealogy>  (22) 
c1ccc(N2CCN(CCCc3ccccn3)CC2)cc1 (3D coordinates assigned)
c1ccc(N2CCN(CCCc3ccccn3)CC2)cc1 (nonaromatic ring conformer: 56.25508994874551 kcal/mol)

>  <smiles>  (22) 
c1ccc(N2CCN(CCCc3ccccn3)CC2)cc1

>  <score_type>  (22) 
oracle

>  <origin>  (22) 
adg

>  <m_score__min__energy>  (22) 
-7.3200000000000003

>  <m_primary>  (22) 
energy

$$$$
22:0
     RDKit          3D

 46 48  0  0  0  0  0  0  0  0999 V2000
   62.9360   33.8260   46.3710 C   0  0  0  0  0  0  0  0  0  0  0  0
   62.9670   33.6190   47.8650 C   0  0  0  0  0  0  0  0  0  0  0  0
   64.1610   33.1760   48.4620 C   0  0  0  0  0  0  0  0  0  0  0  0
   64.2220   32.9180   49.8300 C   0  0  0  0  0  0  0  0  0  0  0  0
   63.0870   33.0860   50.6230 C   0  0  0  0  0  0  0  0  0  0  0  0
   61.8890   33.5160   50.0500 C   0  0  0  0  0  0  0  0  0  0  0  0
   61.8100   33.7960   48.6740 C   0  0  0  0  0  0  0  0  0  0  0  0
   60.4780   34.2650   48.1140 C   0  0  0  0  0  0  0  0  0  0  0  0
   59.4770   33.1890   48.1640 N   0  0  0  0  0  0  0  0  0  0  0  0
   58.7450   33.1160   46.9200 C   0  0  0  0  0  0  0  0  0  0  0  0
   58.1330   34.2610   46.3940 C   0  0  0  0  0  0  0  0  0  0  0  0
   57.4620   34.2000   45.1790 C   0  0  0  0  0  0  0  0  0  0  0  0
   57.4320   33.0000   44.4720 C   0  0  0  0  0  0  0  0  0  0  0  0
   58.0420   31.8790   44.9660 N   0  0  0  0  0  0  0  0  0  0  0  0
   58.0800   30.6590   44.1410 C   0  0  0  0  0  0  0  0  0  0  0  0
   57.2360   29.5820   44.7760 C   0  0  0  0  0  0  0  0  0  0  0  0
   55.9980   29.7790   44.9040 O   0  0  0  0  0  0  0  0  0  0  0  0
   57.8380   28.3510   45.3380 C   0  0  0  0  0  0  0  0  0  0  0  0
   59.2340   28.1820   45.4000 C   0  0  0  0  0  0  0  0  0  0  0  0
   59.7830   27.0220   45.9540 C   0  0  0  0  0  0  0  0  0  0  0  0
   58.9450   26.0180   46.4490 C   0  0  0  0  0  0  0  0  0  0  0  0
   57.5600   26.1770   46.3950 C   0  0  0  0  0  0  0  0  0  0  0  0
   57.0070   27.3350   45.8370 C   0  0  0  0  0  0  0  0  0  0  0  0
   58.6820   31.9180   46.1800 C   0  0  0  0  0  0  0  0  0  0  0  0
   59.2270   30.8810   46.6390 O   0  0  0  0  0  0  0  0  0  0  0  0
   62.7764   34.8920   46.1518 H   0  0  0  0  0  0  0  0  0  0  0  0
   63.8928   33.5015   45.9359 H   0  0  0  0  0  0  0  0  0  0  0  0
   62.1163   33.2354   45.9359 H   0  0  0  0  0  0  0  0  0  0  0  0
   65.0576   33.0314   47.8414 H   0  0  0  0  0  0  0  0  0  0  0  0
   65.1655   32.5817   50.2846 H   0  0  0  0  0  0  0  0  0  0  0  0
   63.1360   32.8792   51.7023 H   0  0  0  0  0  0  0  0  0  0  0  0
   60.9967   33.6372   50.6817 H   0  0  0  0  0  0  0  0  0  0  0  0
   60.1187   35.1185   48.7077 H   0  0  0  0  0  0  0  0  0  0  0  0
   60.6235   34.5597   47.0643 H   0  0  0  0  0  0  0  0  0  0  0  0
   58.8210   33.3540   48.9600 H   0  0  0  0  0  0  0  0  0  0  0  0
   59.9490   32.2720   48.3350 H   0  0  0  0  0  0  0  0  0  0  0  0
   58.1839   35.2118   46.9449 H   0  0  0  0  0  0  0  0  0  0  0  0
   56.9584   35.0922   44.7784 H   0  0  0  0  0  0  0  0  0  0  0  0
   56.9113   32.9529   43.5042 H   0  0  0  0  0  0  0  0  0  0  0  0
   57.6887   30.8848   43.1380 H   0  0  0  0  0  0  0  0  0  0  0  0
   59.1191   30.3063   44.0646 H   0  0  0  0  0  0  0  0  0  0  0  0
   59.8973   28.9680   45.0099 H   0  0  0  0  0  0  0  0  0  0  0  0
   60.8751   26.8989   46.0006 H   0  0  0  0  0  0  0  0  0  0  0  0
   59.3775   25.1034   46.8807 H   0  0  0  0  0  0  0  0  0  0  0  0
   56.9013   25.3905   46.7919 H   0  0  0  0  0  0  0  0  0  0  0  0
   55.9141   27.4502   45.7889 H   0  0  0  0  0  0  0  0  0  0  0  0
  1  2  1  0
  2  3  2  0
  3  4  1  0
  4  5  2  0
  5  6  1  0
  6  7  2  0
  7  8  1  0
  8  9  1  0
  9 10  1  0
 10 11  2  0
 11 12  1  0
 12 13  2  0
 13 14  1  0
 14 15  1  0
 15 16  1  0
 16 17  2  0
 16 18  1  0
 18 19  2  0
 19 20  1  0
 20 21  2  0
 21 22  1  0
 22 23  2  0
 14 24  1  0
 24 25  2  0
  7  2  1  0
 24 10  1  0
 23 18  1  0
  1 26  1  0
  1 27  1  0
  1 28  1  0
  3 29  1  0
  4 30  1  0
  5 31  1  0
  6 32  1  0
  8 33  1  0
  8 34  1  0
  9 35  1  0
  9 36  1  0
 11 37  1  0
 12 38  1  0
 13 39  1  0
 15 40  1  0
 15 41  1  0
 19 42  1  0
 20 43  1  0
 21 44  1  0
 22 45  1  0
 23 46  1  0
M  CHG  1   9   1
M  END
>  <UniqueID>  (23) 
22

>  <SMILES>  (23) 
Cc1ccccc1C[NH2+]c1cccn(CC(=O)c2ccccc2)c1=O

>  <Energy>  (23) 
56.795262017376814

>  <Genealogy>  (23) 
Cc1ccccc1C[NH2+]c1cccn(CC(=O)c2ccccc2)c1=O (protonated)
Cc1ccccc1C[NH2+]c1cccn(CC(=O)c2ccccc2)c1=O (3D coordinates assigned)
Cc1ccccc1C[NH2+]c1cccn(CC(=O)c2ccccc2)c1=O (optimized conformer: 56.795262017376814 kcal/mol)

>  <smiles>  (23) 
Cc1ccccc1CNc1cccn(CC(=O)c2ccccc2)c1=O

>  <score_type>  (23) 
oracle

>  <origin>  (23) 
adg

>  <m_score__min__energy>  (23) 
-7.3600000000000003

>  <m_primary>  (23) 
energy

$$$$
23:0
     RDKit          3D

 43 45  0  0  0  0  0  0  0  0999 V2000
   59.3250   35.0770   46.7690 C   0  0  0  0  0  0  0  0  0  0  0  0
   58.1400   34.1210   46.7030 C   0  0  0  0  0  0  0  0  0  0  0  0
   58.5780   32.8030   46.2490 N   0  0  0  0  0  0  0  0  0  0  0  0
   58.4400   32.2680   45.0070 C   0  0  0  0  0  0  0  0  0  0  0  0
   59.0390   31.0540   44.8970 N   0  0  0  0  0  0  0  0  0  0  0  0
   59.5740   30.8410   46.1120 C   0  0  0  0  0  0  0  0  0  0  0  0
   60.3250   29.7740   46.5890 C   0  0  0  0  0  0  0  0  0  0  0  0
   60.6950   28.3450   45.5750 S   0  0  0  0  0  0  0  0  0  0  0  0
   59.0260   27.7040   45.7210 C   0  0  0  0  0  0  0  0  0  0  0  0
   58.8130   26.4230   46.2290 C   0  0  0  0  0  0  0  0  0  0  0  0
   57.5110   25.8960   46.3310 C   0  0  0  0  0  0  0  0  0  0  0  0
   57.2980   24.6010   46.8290 O   0  0  0  0  0  0  0  0  0  0  0  0
   57.5940   23.3970   46.1290 C   0  0  0  0  0  0  0  0  0  0  0  0
   56.4090   26.6920   45.9200 C   0  0  0  0  0  0  0  0  0  0  0  0
   55.0690   26.2620   45.9820 O   0  0  0  0  0  0  0  0  0  0  0  0
   54.5750   24.9730   45.6390 C   0  0  0  0  0  0  0  0  0  0  0  0
   56.6330   27.9850   45.4150 C   0  0  0  0  0  0  0  0  0  0  0  0
   55.5210   28.7440   45.0150 O   0  0  0  0  0  0  0  0  0  0  0  0
   55.5330   29.7030   43.9630 C   0  0  0  0  0  0  0  0  0  0  0  0
   57.9430   28.4850   45.3200 C   0  0  0  0  0  0  0  0  0  0  0  0
   60.7700   29.8430   47.8790 N   0  0  0  0  0  0  0  0  0  0  0  0
   60.4890   30.9230   48.6760 C   0  0  0  0  0  0  0  0  0  0  0  0
   59.7470   31.9670   48.1970 N   0  0  0  0  0  0  0  0  0  0  0  0
   59.3030   31.8940   46.9190 C   0  0  0  0  0  0  0  0  0  0  0  0
   59.5751   35.2788   47.8210 H   0  0  0  0  0  0  0  0  0  0  0  0
   60.1915   34.6221   46.2668 H   0  0  0  0  0  0  0  0  0  0  0  0
   59.0637   36.0201   46.2668 H   0  0  0  0  0  0  0  0  0  0  0  0
   57.6909   34.0298   47.7030 H   0  0  0  0  0  0  0  0  0  0  0  0
   57.3993   34.5169   45.9926 H   0  0  0  0  0  0  0  0  0  0  0  0
   57.9036   32.7626   44.1838 H   0  0  0  0  0  0  0  0  0  0  0  0
   59.0880   30.4440   44.0510 H   0  0  0  0  0  0  0  0  0  0  0  0
   59.6718   25.8172   46.5538 H   0  0  0  0  0  0  0  0  0  0  0  0
   57.7920   22.5918   46.8518 H   0  0  0  0  0  0  0  0  0  0  0  0
   56.7372   23.1201   45.4972 H   0  0  0  0  0  0  0  0  0  0  0  0
   58.4815   23.5489   45.4972 H   0  0  0  0  0  0  0  0  0  0  0  0
   54.3582   24.4072   46.5571 H   0  0  0  0  0  0  0  0  0  0  0  0
   53.6537   25.0789   45.0473 H   0  0  0  0  0  0  0  0  0  0  0  0
   55.3311   24.4361   45.0473 H   0  0  0  0  0  0  0  0  0  0  0  0
   55.5457   30.7163   44.3907 H   0  0  0  0  0  0  0  0  0  0  0  0
   56.4294   29.5556   43.3427 H   0  0  0  0  0  0  0  0  0  0  0  0
   54.6332   29.5781   43.3427 H   0  0  0  0  0  0  0  0  0  0  0  0
   58.1148   29.4980   44.9271 H   0  0  0  0  0  0  0  0  0  0  0  0
   60.8638   30.9497   49.7098 H   0  0  0  0  0  0  0  0  0  0  0  0
  1  2  1  0
  2  3  1  0
  3  4  1  0
  4  5  2  0
  5  6  1  0
  6  7  2  0
  7  8  1  0
  8  9  1  0
  9 10  2  0
 10 11  1  0
 11 12  1  0
 12 13  1  0
 11 14  2  0
 14 15  1  0
 15 16  1  0
 14 17  1  0
 17 18  1  0
 18 19  1  0
 17 20  2  0
  7 21  1  0
 21 22  2  0
 22 23  1  0
 23 24  2  0
 24  3  1  0
 24  6  1  0
 20  9  1  0
  1 25  1  0
  1 26  1  0
  1 27  1  0
  2 28  1  0
  2 29  1  0
  4 30  1  0
  5 31  1  0
 10 32  1  0
 13 33  1  0
 13 34  1  0
 13 35  1  0
 16 36  1  0
 16 37  1  0
 16 38  1  0
 19 39  1  0
 19 40  1  0
 19 41  1  0
 20 42  1  0
 22 43  1  0
M  CHG  1   5   1
M  END
>  <UniqueID>  (24) 
23

>  <SMILES>  (24) 
CCn1c[nH+]c2c(Sc3cc(OC)c(OC)c(OC)c3)ncnc21

>  <Energy>  (24) 
80.06607576587881

>  <Genealogy>  (24) 
CCn1c[nH+]c2c(Sc3cc(OC)c(OC)c(OC)c3)ncnc21 (protonated)
CCn1c[nH+]c2c(Sc3cc(OC)c(OC)c(OC)c3)ncnc21 (3D coordinates assigned)
CCn1c[nH+]c2c(Sc3cc(OC)c(OC)c(OC)c3)ncnc21 (optimized conformer: 80.06607576587881 kcal/mol)

>  <smiles>  (24) 
CCn1cnc2c(Sc3cc(OC)c(OC)c(OC)c3)ncnc21

>  <score_type>  (24) 
oracle

>  <origin>  (24) 
adg

>  <m_score__min__energy>  (24) 
-5.3899999999999997

>  <m_primary>  (24) 
energy

$$$$
24:0
     RDKit          3D

 56 59  0  0  0  0  0  0  0  0999 V2000
   66.5040   32.7140   50.1150 C   0  0  0  0  0  0  0  0  0  0  0  0
   65.0690   32.4420   50.2980 N   0  0  0  0  0  0  0  0  0  0  0  0
   64.8470   31.3220   51.2230 C   0  0  0  0  0  0  0  0  0  0  0  0
   64.2850   33.6500   50.6420 C   0  0  0  0  0  0  0  0  0  0  0  0
   62.7620   33.5430   50.3690 C   0  0  0  0  0  0  0  0  0  0  0  0
   62.4250   32.4320   49.3580 C   0  0  0  0  0  0  0  0  0  0  0  0
   61.0350   31.9640   49.4660 N   0  0  0  0  0  0  0  0  0  0  0  0
   60.1570   32.7390   50.3440 C   0  0  0  0  0  0  0  0  0  0  0  0
   60.7540   30.5600   49.3570 C   0  0  0  0  0  0  0  0  0  0  0  0
   61.2760   29.7030   50.2860 N   0  0  0  0  0  0  0  0  0  0  0  0
   61.0920   28.3540   50.2000 C   0  0  0  0  0  0  0  0  0  0  0  0
   60.3850   27.8210   49.1690 N   0  0  0  0  0  0  0  0  0  0  0  0
   59.8520   28.6490   48.2420 C   0  0  0  0  0  0  0  0  0  0  0  0
   59.0010   28.1840   46.8820 S   0  0  0  0  0  0  0  0  0  0  0  0
   58.7620   29.7580   46.3170 C   0  0  0  0  0  0  0  0  0  0  0  0
   58.0310   30.0740   45.0700 C   0  0  0  0  0  0  0  0  0  0  0  0
   58.5100   31.0480   44.1760 C   0  0  0  0  0  0  0  0  0  0  0  0
   57.8090   31.3330   43.0000 C   0  0  0  0  0  0  0  0  0  0  0  0
   56.6190   30.6600   42.7130 C   0  0  0  0  0  0  0  0  0  0  0  0
   56.1260   29.7030   43.6040 C   0  0  0  0  0  0  0  0  0  0  0  0
   56.8250   29.4130   44.7800 C   0  0  0  0  0  0  0  0  0  0  0  0
   59.3610   30.6740   47.2040 C   0  0  0  0  0  0  0  0  0  0  0  0
   59.3660   32.1290   46.9560 C   0  0  0  0  0  0  0  0  0  0  0  0
   60.5580   32.7750   46.5910 C   0  0  0  0  0  0  0  0  0  0  0  0
   60.5570   34.1410   46.2970 C   0  0  0  0  0  0  0  0  0  0  0  0
   59.3630   34.8670   46.3490 C   0  0  0  0  0  0  0  0  0  0  0  0
   58.1670   34.2210   46.6740 C   0  0  0  0  0  0  0  0  0  0  0  0
   58.1650   32.8530   46.9620 C   0  0  0  0  0  0  0  0  0  0  0  0
   59.9920   30.0260   48.2970 C   0  0  0  0  0  0  0  0  0  0  0  0
   66.9881   32.8058   51.0985 H   0  0  0  0  0  0  0  0  0  0  0  0
   66.9654   31.8873   49.5549 H   0  0  0  0  0  0  0  0  0  0  0  0
   66.6309   33.6522   49.5549 H   0  0  0  0  0  0  0  0  0  0  0  0
   64.9185   31.6829   52.2596 H   0  0  0  0  0  0  0  0  0  0  0  0
   63.8471   30.8970   51.0509 H   0  0  0  0  0  0  0  0  0  0  0  0
   65.6091   30.5477   51.0509 H   0  0  0  0  0  0  0  0  0  0  0  0
   64.4260   33.8545   51.7136 H   0  0  0  0  0  0  0  0  0  0  0  0
   64.6582   34.4543   49.9909 H   0  0  0  0  0  0  0  0  0  0  0  0
   62.2473   33.3265   51.3168 H   0  0  0  0  0  0  0  0  0  0  0  0
   62.4295   34.4998   49.9400 H   0  0  0  0  0  0  0  0  0  0  0  0
   62.5867   32.8210   48.3419 H   0  0  0  0  0  0  0  0  0  0  0  0
   63.0801   31.5759   49.5770 H   0  0  0  0  0  0  0  0  0  0  0  0
   60.4035   32.5215   51.3937 H   0  0  0  0  0  0  0  0  0  0  0  0
   60.2982   33.8123   50.1491 H   0  0  0  0  0  0  0  0  0  0  0  0
   59.1095   32.4656   50.1491 H   0  0  0  0  0  0  0  0  0  0  0  0
   61.8420   30.0840   51.0790 H   0  0  0  0  0  0  0  0  0  0  0  0
   61.5184   27.6938   50.9697 H   0  0  0  0  0  0  0  0  0  0  0  0
   59.4408   31.5885   44.4028 H   0  0  0  0  0  0  0  0  0  0  0  0
   58.1953   32.0883   42.2998 H   0  0  0  0  0  0  0  0  0  0  0  0
   56.0703   30.8832   41.7861 H   0  0  0  0  0  0  0  0  0  0  0  0
   55.1864   29.1768   43.3799 H   0  0  0  0  0  0  0  0  0  0  0  0
   56.4290   28.6639   45.4815 H   0  0  0  0  0  0  0  0  0  0  0  0
   61.4963   32.2035   46.5363 H   0  0  0  0  0  0  0  0  0  0  0  0
   61.4958   34.6454   46.0246 H   0  0  0  0  0  0  0  0  0  0  0  0
   59.3651   35.9458   46.1343 H   0  0  0  0  0  0  0  0  0  0  0  0
   57.2259   34.7898   46.7032 H   0  0  0  0  0  0  0  0  0  0  0  0
   57.2184   32.3429   47.1940 H   0  0  0  0  0  0  0  0  0  0  0  0
  1  2  1  0
  2  3  1  0
  2  4  1  0
  4  5  1  0
  5  6  1  0
  6  7  1  0
  7  8  1  0
  7  9  1  0
  9 10  2  0
 10 11  1  0
 11 12  2  0
 12 13  1  0
 13 14  1  0
 14 15  1  0
 15 16  1  0
 16 17  2  0
 17 18  1  0
 18 19  2  0
 19 20  1  0
 20 21  2  0
 15 22  2  0
 22 23  1  0
 23 24  2  0
 24 25  1  0
 25 26  2  0
 26 27  1  0
 27 28  2  0
 22 29  1  0
 29  9  1  0
 29 13  2  0
 21 16  1  0
 28 23  1  0
  1 30  1  0
  1 31  1  0
  1 32  1  0
  3 33  1  0
  3 34  1  0
  3 35  1  0
  4 36  1  0
  4 37  1  0
  5 38  1  0
  5 39  1  0
  6 40  1  0
  6 41  1  0
  8 42  1  0
  8 43  1  0
  8 44  1  0
 10 45  1  0
 11 46  1  0
 17 47  1  0
 18 48  1  0
 19 49  1  0
 20 50  1  0
 21 51  1  0
 24 52  1  0
 25 53  1  0
 26 54  1  0
 27 55  1  0
 28 56  1  0
M  CHG  1  10   1
M  END
>  <UniqueID>  (25) 
24

>  <SMILES>  (25) 
CN(C)CCCN(C)c1[nH+]cnc2sc(-c3ccccc3)c(-c3ccccc3)c12

>  <Energy>  (25) 
110.04328553405749

>  <Genealogy>  (25) 
CN(C)CCCN(C)c1[nH+]cnc2sc(-c3ccccc3)c(-c3ccccc3)c12 (protonated)
CN(C)CCCN(C)c1[nH+]cnc2sc(-c3ccccc3)c(-c3ccccc3)c12 (3D coordinates assigned)
CN(C)CCCN(C)c1[nH+]cnc2sc(-c3ccccc3)c(-c3ccccc3)c12 (optimized conformer: 110.04328553405749 kcal/mol)

>  <smiles>  (25) 
CN(C)CCCN(C)c1ncnc2sc(-c3ccccc3)c(-c3ccccc3)c12

>  <score_type>  (25) 
oracle

>  <origin>  (25) 
adg

>  <m_score__min__energy>  (25) 
-6.5999999999999996

>  <m_primary>  (25) 
energy

$$$$
25:0
     RDKit          3D

 43 46  0  0  0  0  0  0  0  0999 V2000
   59.7460   35.6970   45.9730 C   0  0  0  0  0  0  0  0  0  0  0  0
   59.1650   34.7910   44.8910 C   0  0  0  0  0  0  0  0  0  0  0  0
   57.8240   34.1970   45.3300 C   0  0  0  0  0  0  0  0  0  0  0  0
   58.0070   32.7960   45.8320 C   0  0  0  0  0  0  0  0  0  0  0  0
   57.5870   31.4160   44.9600 S   0  0  0  0  0  0  0  0  0  0  0  0
   58.1700   30.3600   46.1320 C   0  0  0  0  0  0  0  0  0  0  0  0
   58.1240   28.8960   46.0400 C   0  0  0  0  0  0  0  0  0  0  0  0
   56.9860   28.2130   45.7440 N   0  0  0  0  0  0  0  0  0  0  0  0
   57.3990   26.9370   45.7650 C   0  0  0  0  0  0  0  0  0  0  0  0
   56.6430   25.7920   45.5290 C   0  0  0  0  0  0  0  0  0  0  0  0
   57.2990   24.5490   45.6070 C   0  0  0  0  0  0  0  0  0  0  0  0
   58.6770   24.4870   45.9150 C   0  0  0  0  0  0  0  0  0  0  0  0
   59.4090   25.6670   46.1480 C   0  0  0  0  0  0  0  0  0  0  0  0
   58.7260   26.8780   46.0620 C   0  0  0  0  0  0  0  0  0  0  0  0
   59.2160   28.1120   46.2420 N   0  0  0  0  0  0  0  0  0  0  0  0
   58.6940   31.0370   47.1780 N   0  0  0  0  0  0  0  0  0  0  0  0
   58.6240   32.3890   47.0220 C   0  0  0  0  0  0  0  0  0  0  0  0
   59.1270   33.3290   48.0850 C   0  0  0  0  0  0  0  0  0  0  0  0
   60.6330   33.3800   48.0850 C   0  0  0  0  0  0  0  0  0  0  0  0
   61.3710   32.6960   47.1040 C   0  0  0  0  0  0  0  0  0  0  0  0
   62.7690   32.7510   47.1050 C   0  0  0  0  0  0  0  0  0  0  0  0
   63.4390   33.4850   48.0880 C   0  0  0  0  0  0  0  0  0  0  0  0
   62.7140   34.1610   49.0720 C   0  0  0  0  0  0  0  0  0  0  0  0
   61.3170   34.1090   49.0740 C   0  0  0  0  0  0  0  0  0  0  0  0
   59.4887   35.2957   46.9643 H   0  0  0  0  0  0  0  0  0  0  0  0
   60.8401   35.7393   45.8673 H   0  0  0  0  0  0  0  0  0  0  0  0
   59.3280   36.7090   45.8673 H   0  0  0  0  0  0  0  0  0  0  0  0
   59.0143   35.3786   43.9734 H   0  0  0  0  0  0  0  0  0  0  0  0
   59.8700   33.9660   44.7109 H   0  0  0  0  0  0  0  0  0  0  0  0
   57.3999   34.8166   46.1338 H   0  0  0  0  0  0  0  0  0  0  0  0
   57.1442   34.1782   44.4654 H   0  0  0  0  0  0  0  0  0  0  0  0
   55.5712   25.8564   45.2901 H   0  0  0  0  0  0  0  0  0  0  0  0
   56.7362   23.6211   45.4273 H   0  0  0  0  0  0  0  0  0  0  0  0
   59.1807   23.5108   45.9730 H   0  0  0  0  0  0  0  0  0  0  0  0
   60.4817   25.6338   46.3893 H   0  0  0  0  0  0  0  0  0  0  0  0
   59.1130   30.5730   48.0150 H   0  0  0  0  0  0  0  0  0  0  0  0
   58.7320   34.3372   47.8912 H   0  0  0  0  0  0  0  0  0  0  0  0
   58.7865   32.9665   49.0661 H   0  0  0  0  0  0  0  0  0  0  0  0
   60.8468   32.1144   46.3314 H   0  0  0  0  0  0  0  0  0  0  0  0
   63.3410   32.2166   46.3322 H   0  0  0  0  0  0  0  0  0  0  0  0
   64.5381   33.5303   48.0866 H   0  0  0  0  0  0  0  0  0  0  0  0
   63.2432   34.7353   49.8467 H   0  0  0  0  0  0  0  0  0  0  0  0
   60.7503   34.6407   49.8526 H   0  0  0  0  0  0  0  0  0  0  0  0
  1  2  1  0
  2  3  1  0
  3  4  1  0
  4  5  1  0
  5  6  1  0
  6  7  1  0
  7  8  2  0
  8  9  1  0
  9 10  2  0
 10 11  1  0
 11 12  2  0
 12 13  1  0
 13 14  2  0
 14 15  1  0
  6 16  2  0
 16 17  1  0
 17 18  1  0
 18 19  1  0
 19 20  2  0
 20 21  1  0
 21 22  2  0
 22 23  1  0
 23 24  2  0
 17  4  2  0
 24 19  1  0
 15  7  1  0
 14  9  1  0
  1 25  1  0
  1 26  1  0
  1 27  1  0
  2 28  1  0
  2 29  1  0
  3 30  1  0
  3 31  1  0
 10 32  1  0
 11 33  1  0
 12 34  1  0
 13 35  1  0
 16 36  1  0
 18 37  1  0
 18 38  1  0
 20 39  1  0
 21 40  1  0
 22 41  1  0
 23 42  1  0
 24 43  1  0
M  CHG  2  15  -1  16   1
M  END
>  <UniqueID>  (26) 
25

>  <SMILES>  (26) 
CCCc1sc(-c2nc3ccccc3[n-]2)[nH+]c1Cc1ccccc1

>  <Energy>  (26) 
102.38432198893808

>  <Genealogy>  (26) 
CCCc1sc(-c2nc3ccccc3[n-]2)[nH+]c1Cc1ccccc1 (protonated)
CCCc1sc(-c2nc3ccccc3[n-]2)[nH+]c1Cc1ccccc1 (3D coordinates assigned)
CCCc1sc(-c2nc3ccccc3[n-]2)[nH+]c1Cc1ccccc1 (optimized conformer: 102.38432198893808 kcal/mol)

>  <smiles>  (26) 
CCCc1sc(-c2nc3ccccc3[nH]2)nc1Cc1ccccc1

>  <score_type>  (26) 
oracle

>  <origin>  (26) 
adg

>  <m_score__min__energy>  (26) 
-7.5700000000000003

>  <m_primary>  (26) 
energy

$$$$
26:0
     RDKit          3D

 41 45  0  0  0  0  0  0  0  0999 V2000
   59.3730   36.2640   47.1800 H   0  0  0  0  0  0  0  0  0  0  0  0
   59.2910   35.3460   47.6700 N   0  0  0  0  0  0  0  0  0  0  0  0
   60.2470   34.4790   47.6120 C   0  0  0  0  0  0  0  0  0  0  0  0
   61.1060   34.3600   46.5450 O   0  0  0  0  0  0  0  0  0  0  0  0
   62.0780   33.3630   46.8350 C   0  0  0  0  0  0  0  0  0  0  0  0
   63.0631   33.8226   47.0036 H   0  0  0  0  0  0  0  0  0  0  0  0
   62.1970   32.6518   46.0043 H   0  0  0  0  0  0  0  0  0  0  0  0
   61.5660   32.6530   48.1500 C   0  0  1  0  0  0  0  0  0  0  0  0
   60.9260   31.2910   47.8370 C   0  0  0  0  0  0  0  0  0  0  0  0
   60.0800   31.1330   46.7180 C   0  0  0  0  0  0  0  0  0  0  0  0
   59.8849   31.9952   46.0634 H   0  0  0  0  0  0  0  0  0  0  0  0
   59.4820   29.8950   46.4240 C   0  0  0  0  0  0  0  0  0  0  0  0
   58.6110   29.7430   45.2310 C   0  0  0  0  0  0  0  0  0  0  0  0
   58.4360   30.8050   44.3280 C   0  0  0  0  0  0  0  0  0  0  0  0
   58.9482   31.7628   44.5018 H   0  0  0  0  0  0  0  0  0  0  0  0
   57.6140   30.6480   43.2110 C   0  0  0  0  0  0  0  0  0  0  0  0
   57.3880   31.9740   42.0840 Cl  0  0  0  0  0  0  0  0  0  0  0  0
   56.9690   29.4280   43.0010 C   0  0  0  0  0  0  0  0  0  0  0  0
   56.3186   29.2942   42.1240 H   0  0  0  0  0  0  0  0  0  0  0  0
   57.1440   28.4040   43.8800 N   0  0  0  0  0  0  0  0  0  0  0  0
   56.6580   27.4950   43.7070 H   0  0  0  0  0  0  0  0  0  0  0  0
   57.9400   28.5330   44.9760 C   0  0  0  0  0  0  0  0  0  0  0  0
   58.0596   27.6857   45.6672 H   0  0  0  0  0  0  0  0  0  0  0  0
   59.7170   28.8060   47.2770 C   0  0  0  0  0  0  0  0  0  0  0  0
   59.2765   27.8252   47.0445 H   0  0  0  0  0  0  0  0  0  0  0  0
   60.5040   28.9580   48.4160 C   0  0  0  0  0  0  0  0  0  0  0  0
   60.6718   28.0982   49.0813 H   0  0  0  0  0  0  0  0  0  0  0  0
   61.0820   30.1920   48.7210 C   0  0  0  0  0  0  0  0  0  0  0  0
   61.8120   30.3110   49.9100 O   0  0  0  0  0  0  0  0  0  0  0  0
   62.2000   31.5700   50.4420 C   0  0  0  0  0  0  0  0  0  0  0  0
   61.3519   32.0227   50.9766 H   0  0  0  0  0  0  0  0  0  0  0  0
   63.0366   31.4376   51.1438 H   0  0  0  0  0  0  0  0  0  0  0  0
   62.6270   32.4810   49.2900 C   0  0  0  0  0  0  0  0  0  0  0  0
   64.1190   32.4290   48.9680 C   0  0  0  0  0  0  0  0  0  0  0  0
   64.7792   31.7479   49.5250 H   0  0  0  0  0  0  0  0  0  0  0  0
   64.7147   32.2611   48.0586 H   0  0  0  0  0  0  0  0  0  0  0  0
   63.5210   33.6570   49.6630 C   0  0  0  0  0  0  0  0  0  0  0  0
   63.7527   33.8585   50.7193 H   0  0  0  0  0  0  0  0  0  0  0  0
   63.5101   34.7379   49.4593 H   0  0  0  0  0  0  0  0  0  0  0  0
   60.5060   33.5380   48.6280 N   0  0  0  0  0  0  0  0  0  0  0  0
   59.9080   33.3840   49.4710 H   0  0  0  0  0  0  0  0  0  0  0  0
  1  2  1  0
  2  3  2  0
  3  4  1  0
  4  5  1  0
  5  6  1  0
  5  7  1  0
  5  8  1  0
  8  9  1  0
  9 10  2  0
 10 11  1  0
 10 12  1  0
 12 13  1  0
 13 14  2  0
 14 15  1  0
 14 16  1  0
 16 17  1  0
 16 18  2  0
 18 19  1  0
 18 20  1  0
 20 21  1  0
 20 22  2  0
 22 23  1  0
 12 24  2  0
 24 25  1  0
 24 26  1  0
 26 27  1  0
 26 28  2  0
 28 29  1  0
 29 30  1  0
 30 31  1  0
 30 32  1  0
 30 33  1  0
 33 34  1  0
 34 35  1  0
 34 36  1  0
 34 37  1  0
 37 38  1  0
 37 39  1  0
  8 40  1  1
 40 41  1  0
 40  3  1  0
 33  8  1  0
 28  9  1  0
 37 33  1  0
 22 13  1  0
M  CHG  1  20   1
M  END
>  <UniqueID>  (27) 
26

>  <SMILES>  (27) 
[H]/N=C1/N[C@]2(CO1)c1cc(-c3c[nH+]cc(Cl)c3)ccc1OCC21CC1

>  <Energy>  (27) 
343.45387897233434

>  <Genealogy>  (27) 
N=C1NC2(CO1)c1cc(-c3c[nH+]cc(Cl)c3)ccc1OCC21CC1 (protonated)
N=C1N[C@]2(CO1)c1cc(-c3c[nH+]cc(Cl)c3)ccc1OCC21CC1 (chirality)
[H]/N=C1/N[C@]2(CO1)c1cc(-c3c[nH+]cc(Cl)c3)ccc1OCC21CC1 (cis-trans isomerization)
[H]/N=C1/N[C@]2(CO1)c1cc(-c3c[nH+]cc(Cl)c3)ccc1OCC21CC1 (3D coordinates assigned)
[H]/N=C1/N[C@]2(CO1)c1cc(-c3c[nH+]cc(Cl)c3)ccc1OCC21CC1 (nonaromatic ring conformer: 343.45387897233434 kcal/mol)

>  <smiles>  (27) 
N=C1NC2(CO1)c1cc(-c3cncc(Cl)c3)ccc1OCC21CC1

>  <score_type>  (27) 
oracle

>  <origin>  (27) 
adg

>  <m_score__min__energy>  (27) 
-6.5300000000000002

>  <m_primary>  (27) 
energy

$$$$
27:0
     RDKit          3D

 52 55  0  0  0  0  0  0  0  0999 V2000
   62.3610   33.6930   50.8940 C   0  0  0  0  0  0  0  0  0  0  0  0
   61.3400   33.8340   49.9590 C   0  0  0  0  0  0  0  0  0  0  0  0
   61.9510   33.6950   48.7270 C   0  0  0  0  0  0  0  0  0  0  0  0
   61.4730   33.7000   47.4120 C   0  0  0  0  0  0  0  0  0  0  0  0
   60.0910   33.9480   47.0860 N   0  0  0  0  0  0  0  0  0  0  0  0
   59.7350   34.8710   45.9950 C   0  0  0  0  0  0  0  0  0  0  0  0
   58.5070   34.3720   45.2140 C   0  0  0  0  0  0  0  0  0  0  0  0
   58.5280   32.8330   45.1020 C   0  0  0  0  0  0  0  0  0  0  0  0
   57.3760   32.3280   44.2180 C   0  0  0  0  0  0  0  0  0  0  0  0
   56.7210   31.2580   44.8700 O   0  0  0  0  0  0  0  0  0  0  0  0
   56.3500   30.2550   43.9430 C   0  0  0  0  0  0  0  0  0  0  0  0
   57.3670   29.1060   43.9490 C   0  0  0  0  0  0  0  0  0  0  0  0
   58.2130   29.1550   45.1590 N   0  0  0  0  0  0  0  0  0  0  0  0
   58.0490   27.9770   46.0180 C   0  0  0  0  0  0  0  0  0  0  0  0
   59.3600   27.7940   46.7710 C   0  0  0  0  0  0  0  0  0  0  0  0
   60.3810   28.6340   46.0210 C   0  0  0  0  0  0  0  0  0  0  0  0
   59.6350   29.1910   44.8200 C   0  0  0  0  0  0  0  0  0  0  0  0
   58.4830   32.1650   46.5030 C   0  0  0  0  0  0  0  0  0  0  0  0
   59.0480   33.0630   47.6180 C   0  0  0  0  0  0  0  0  0  0  0  0
   62.3810   33.4630   46.4170 N   0  0  0  0  0  0  0  0  0  0  0  0
   63.7050   33.2390   46.6820 C   0  0  0  0  0  0  0  0  0  0  0  0
   64.1620   33.2440   47.9680 N   0  0  0  0  0  0  0  0  0  0  0  0
   63.2750   33.4710   48.9680 C   0  0  0  0  0  0  0  0  0  0  0  0
   63.5460   33.4710   50.2820 N   0  0  0  0  0  0  0  0  0  0  0  0
   62.2227   33.7539   51.9836 H   0  0  0  0  0  0  0  0  0  0  0  0
   60.2738   34.0171   50.1580 H   0  0  0  0  0  0  0  0  0  0  0  0
   59.5099   35.8595   46.4219 H   0  0  0  0  0  0  0  0  0  0  0  0
   60.5859   34.9297   45.3004 H   0  0  0  0  0  0  0  0  0  0  0  0
   57.5923   34.6845   45.7390 H   0  0  0  0  0  0  0  0  0  0  0  0
   58.5289   34.8032   44.2023 H   0  0  0  0  0  0  0  0  0  0  0  0
   59.4762   32.5473   44.6232 H   0  0  0  0  0  0  0  0  0  0  0  0
   56.6607   33.1454   44.0441 H   0  0  0  0  0  0  0  0  0  0  0  0
   57.7761   31.9822   43.2534 H   0  0  0  0  0  0  0  0  0  0  0  0
   55.3593   29.8614   44.2144 H   0  0  0  0  0  0  0  0  0  0  0  0
   56.3230   30.6973   42.9362 H   0  0  0  0  0  0  0  0  0  0  0  0
   56.8274   28.1477   43.9258 H   0  0  0  0  0  0  0  0  0  0  0  0
   58.0136   29.2053   43.0647 H   0  0  0  0  0  0  0  0  0  0  0  0
   57.2242   28.1380   46.7278 H   0  0  0  0  0  0  0  0  0  0  0  0
   57.8092   27.0845   45.4215 H   0  0  0  0  0  0  0  0  0  0  0  0
   59.2598   28.1465   47.8082 H   0  0  0  0  0  0  0  0  0  0  0  0
   59.6584   26.7363   46.8189 H   0  0  0  0  0  0  0  0  0  0  0  0
   60.7509   29.4510   46.6580 H   0  0  0  0  0  0  0  0  0  0  0  0
   61.2588   28.0427   45.7213 H   0  0  0  0  0  0  0  0  0  0  0  0
   59.9521   30.2256   44.6224 H   0  0  0  0  0  0  0  0  0  0  0  0
   59.8425   28.6010   43.9151 H   0  0  0  0  0  0  0  0  0  0  0  0
   57.4367   31.9251   46.7431 H   0  0  0  0  0  0  0  0  0  0  0  0
   59.1119   31.2637   46.4572 H   0  0  0  0  0  0  0  0  0  0  0  0
   58.2350   33.6733   48.0382 H   0  0  0  0  0  0  0  0  0  0  0  0
   59.4868   32.4259   48.4000 H   0  0  0  0  0  0  0  0  0  0  0  0
   64.4048   33.0539   45.8537 H   0  0  0  0  0  0  0  0  0  0  0  0
   65.1710   33.0670   48.1760 H   0  0  0  0  0  0  0  0  0  0  0  0
   64.4730   33.3150   50.7390 H   0  0  0  0  0  0  0  0  0  0  0  0
  1  2  2  0
  2  3  1  0
  3  4  2  0
  4  5  1  0
  5  6  1  0
  6  7  1  0
  7  8  1  0
  8  9  1  0
  9 10  1  0
 10 11  1  0
 11 12  1  0
 12 13  1  0
 13 14  1  0
 14 15  1  0
 15 16  1  0
 16 17  1  0
  8 18  1  0
 18 19  1  0
  4 20  1  0
 20 21  2  0
 21 22  1  0
 22 23  2  0
 23 24  1  0
 24  1  1  0
 23  3  1  0
 19  5  1  0
 17 13  1  0
  1 25  1  0
  2 26  1  0
  6 27  1  0
  6 28  1  0
  7 29  1  0
  7 30  1  0
  8 31  1  0
  9 32  1  0
  9 33  1  0
 11 34  1  0
 11 35  1  0
 12 36  1  0
 12 37  1  0
 14 38  1  0
 14 39  1  0
 15 40  1  0
 15 41  1  0
 16 42  1  0
 16 43  1  0
 17 44  1  0
 17 45  1  0
 18 46  1  0
 18 47  1  0
 19 48  1  0
 19 49  1  0
 21 50  1  0
 22 51  1  0
 24 52  1  0
M  CHG  1  22   1
M  END
>  <UniqueID>  (28) 
27

>  <SMILES>  (28) 
c1cc2c(N3CCC(COCCN4CCCC4)CC3)nc[nH+]c2[nH]1

>  <Energy>  (28) 
95.35990963808612

>  <Genealogy>  (28) 
c1cc2c(N3CCC(COCCN4CCCC4)CC3)nc[nH+]c2[nH]1 (protonated)
c1cc2c(N3CCC(COCCN4CCCC4)CC3)nc[nH+]c2[nH]1 (3D coordinates assigned)
c1cc2c(N3CCC(COCCN4CCCC4)CC3)nc[nH+]c2[nH]1 (nonaromatic ring conformer: 95.35990963808612 kcal/mol)

>  <smiles>  (28) 
c1nc(N2CCC(COCCN3CCCC3)CC2)c2cc[nH]c2n1

>  <score_type>  (28) 
oracle

>  <origin>  (28) 
adg

>  <m_score__min__energy>  (28) 
-6.8799999999999999

>  <m_primary>  (28) 
energy

$$$$
28:0
     RDKit          3D

 41 43  0  0  0  0  0  0  0  0999 V2000
   64.4209   32.3685   48.5755 H   0  0  0  0  0  0  0  0  0  0  0  0
   63.5040   32.8350   48.1860 C   0  0  0  0  0  0  0  0  0  0  0  0
   63.4540   33.2750   46.8630 C   0  0  0  0  0  0  0  0  0  0  0  0
   64.3320   33.1574   46.2109 H   0  0  0  0  0  0  0  0  0  0  0  0
   62.2890   33.8650   46.3660 C   0  0  0  0  0  0  0  0  0  0  0  0
   62.2543   34.2074   45.3212 H   0  0  0  0  0  0  0  0  0  0  0  0
   61.1600   34.0250   47.1900 C   0  0  0  0  0  0  0  0  0  0  0  0
   59.9380   34.6480   46.6280 C   0  0  0  0  0  0  0  0  0  0  0  0
   59.9360   35.8780   46.3610 O   0  0  0  0  0  0  0  0  0  0  0  0
   58.7220   33.9060   46.4630 N   0  0  0  0  0  0  0  0  0  0  0  0
   58.6110   32.5440   46.0270 C   0  0  0  0  0  0  0  0  0  0  0  0
   58.8980   31.5170   46.9340 C   0  0  0  0  0  0  0  0  0  0  0  0
   59.2143   31.7645   47.9581 H   0  0  0  0  0  0  0  0  0  0  0  0
   58.7850   30.1790   46.5460 C   0  0  0  0  0  0  0  0  0  0  0  0
   59.0291   29.3786   47.2600 H   0  0  0  0  0  0  0  0  0  0  0  0
   58.3620   29.8540   45.2510 C   0  0  0  0  0  0  0  0  0  0  0  0
   58.2100   28.1710   44.7600 S   0  0  0  0  0  0  0  0  0  0  0  0
   59.5520   27.5490   44.4940 O   0  0  0  0  0  0  0  0  0  0  0  0
   57.4150   28.1370   43.4870 O   0  0  0  0  0  0  0  0  0  0  0  0
   57.3620   27.2390   45.9540 N   0  0  0  0  0  0  0  0  0  0  0  0
   56.3980   26.3710   45.8140 C   0  0  0  0  0  0  0  0  0  0  0  0
   55.1460   26.7080   46.0120 O   0  0  0  0  0  0  0  0  0  0  0  0
   54.3470   25.6970   45.8390 N   0  0  0  0  0  0  0  0  0  0  0  0
   55.1130   24.6400   45.5090 C   0  0  0  0  0  0  0  0  0  0  0  0
   54.5610   23.2750   45.2510 C   0  0  0  0  0  0  0  0  0  0  0  0
   54.3585   22.7742   46.2092 H   0  0  0  0  0  0  0  0  0  0  0  0
   53.6265   23.3599   44.6770 H   0  0  0  0  0  0  0  0  0  0  0  0
   55.2918   22.6864   44.6770 H   0  0  0  0  0  0  0  0  0  0  0  0
   56.4470   25.0180   45.4640 C   0  0  0  0  0  0  0  0  0  0  0  0
   57.6030   24.0950   45.2110 C   0  0  0  0  0  0  0  0  0  0  0  0
   58.0221   23.7604   46.1714 H   0  0  0  0  0  0  0  0  0  0  0  0
   57.2567   23.2222   44.6381 H   0  0  0  0  0  0  0  0  0  0  0  0
   58.3775   24.6259   44.6381 H   0  0  0  0  0  0  0  0  0  0  0  0
   58.0600   30.8780   44.3440 C   0  0  0  0  0  0  0  0  0  0  0  0
   57.7345   30.6282   43.3234 H   0  0  0  0  0  0  0  0  0  0  0  0
   58.1710   32.2160   44.7320 C   0  0  0  0  0  0  0  0  0  0  0  0
   57.9133   33.0156   44.0219 H   0  0  0  0  0  0  0  0  0  0  0  0
   61.2190   33.5770   48.5290 C   0  0  0  0  0  0  0  0  0  0  0  0
   59.7630   33.8130   49.7590 Br  0  0  0  0  0  0  0  0  0  0  0  0
   62.3920   32.9860   49.0160 C   0  0  0  0  0  0  0  0  0  0  0  0
   62.4370   32.6388   50.0588 H   0  0  0  0  0  0  0  0  0  0  0  0
  1  2  1  0
  2  3  2  0
  3  4  1  0
  3  5  1  0
  5  6  1  0
  5  7  2  0
  7  8  1  0
  8  9  2  0
  8 10  1  0
 10 11  1  0
 11 12  2  0
 12 13  1  0
 12 14  1  0
 14 15  1  0
 14 16  2  0
 16 17  1  0
 17 18  2  0
 17 19  2  0
 17 20  1  0
 20 21  2  0
 21 22  1  0
 22 23  1  0
 23 24  1  0
 24 25  1  0
 25 26  1  0
 25 27  1  0
 25 28  1  0
 24 29  2  0
 29 30  1  0
 30 31  1  0
 30 32  1  0
 30 33  1  0
 16 34  1  0
 34 35  1  0
 34 36  2  0
 36 37  1  0
  7 38  1  0
 38 39  1  0
 38 40  2  0
 40 41  1  0
 40  2  1  0
 36 11  1  0
 29 21  1  0
M  CHG  2  10  -1  23  -1
M  END
>  <UniqueID>  (29) 
28

>  <SMILES>  (29) 
Cc1[n-]o/c(=N/S(=O)(=O)c2ccc([N-]C(=O)c3ccccc3Br)cc2)c1C

>  <Energy>  (29) 
91.94832617803871

>  <Genealogy>  (29) 
Cc1[n-]oc(=NS(=O)(=O)c2ccc([N-]C(=O)c3ccccc3Br)cc2)c1C (protonated)
Cc1[n-]o/c(=N/S(=O)(=O)c2ccc([N-]C(=O)c3ccccc3Br)cc2)c1C (cis-trans isomerization)
Cc1[n-]o/c(=N/S(=O)(=O)c2ccc([N-]C(=O)c3ccccc3Br)cc2)c1C (3D coordinates assigned)
Cc1[n-]o/c(=N/S(=O)(=O)c2ccc([N-]C(=O)c3ccccc3Br)cc2)c1C (optimized conformer: 91.94832617803871 kcal/mol)

>  <smiles>  (29) 
Cc1[nH]oc(=NS(=O)(=O)c2ccc(NC(=O)c3ccccc3Br)cc2)c1C

>  <score_type>  (29) 
oracle

>  <origin>  (29) 
adg

>  <m_score__min__energy>  (29) 
-13.210000000000001

>  <m_primary>  (29) 
energy

$$$$
29:0
     RDKit          3D

 69 72  0  0  0  0  0  0  0  0999 V2000
   57.4900   31.9980   42.0100 C   0  0  0  0  0  0  0  0  0  0  0  0
   57.8290   31.3590   43.3560 C   0  0  0  0  0  0  0  0  0  0  0  0
   56.5810   30.9450   44.1530 C   0  0  0  0  0  0  0  0  0  0  0  0
   56.2400   29.4460   44.0280 C   0  0  0  0  0  0  0  0  0  0  0  0
   57.3870   28.6410   43.3920 C   0  0  0  0  0  0  0  0  0  0  0  0
   58.1780   27.8230   44.4240 C   0  0  0  0  0  0  0  0  0  0  0  0
   58.8580   28.6990   45.4450 C   0  0  0  0  0  0  0  0  0  0  0  0
   58.1450   29.1820   46.5520 C   0  0  0  0  0  0  0  0  0  0  0  0
   58.7830   29.9630   47.5170 C   0  0  0  0  0  0  0  0  0  0  0  0
   60.1440   30.2900   47.3860 C   0  0  0  0  0  0  0  0  0  0  0  0
   60.8340   31.1470   48.4380 C   0  0  2  0  0  0  0  0  0  0  0  0
   61.9330   31.9300   47.7500 C   0  0  0  0  0  0  0  0  0  0  0  0
   63.0750   31.3800   47.2880 N   0  0  0  0  0  0  0  0  0  0  0  0
   63.7370   32.3920   46.7470 N   0  0  0  0  0  0  0  0  0  0  0  0
   63.0550   33.5200   46.8610 N   0  0  0  0  0  0  0  0  0  0  0  0
   61.9210   33.2550   47.4840 N   0  0  0  0  0  0  0  0  0  0  0  0
   60.9120   34.2590   47.8170 C   0  0  0  0  0  0  0  0  0  0  0  0
   59.6710   34.0910   46.9790 C   0  0  0  0  0  0  0  0  0  0  0  0
   58.5510   33.4270   47.5060 C   0  0  0  0  0  0  0  0  0  0  0  0
   57.3850   33.2980   46.7460 C   0  0  0  0  0  0  0  0  0  0  0  0
   57.3240   33.8350   45.4580 C   0  0  0  0  0  0  0  0  0  0  0  0
   58.4250   34.5150   44.9330 C   0  0  0  0  0  0  0  0  0  0  0  0
   59.5910   34.6550   45.6910 C   0  0  0  0  0  0  0  0  0  0  0  0
   61.3890   30.3250   49.5480 N   0  0  0  0  0  0  0  0  0  0  0  0
   60.6770   29.0260   49.6830 C   0  0  0  0  0  0  0  0  0  0  0  0
   60.9200   28.3850   51.0560 C   0  0  0  0  0  0  0  0  0  0  0  0
   60.4400   29.2390   52.1700 N   0  0  0  0  0  0  0  0  0  0  0  0
   59.1610   28.7500   52.7070 C   0  0  0  0  0  0  0  0  0  0  0  0
   60.3360   30.6700   51.8110 C   0  0  0  0  0  0  0  0  0  0  0  0
   61.4480   31.0790   50.8340 C   0  0  0  0  0  0  0  0  0  0  0  0
   60.8590   29.7900   46.2820 C   0  0  0  0  0  0  0  0  0  0  0  0
   60.2230   29.0010   45.3230 C   0  0  0  0  0  0  0  0  0  0  0  0
   56.9805   32.9583   42.1780 H   0  0  0  0  0  0  0  0  0  0  0  0
   58.4161   32.1687   41.4415 H   0  0  0  0  0  0  0  0  0  0  0  0
   56.8293   31.3269   41.4415 H   0  0  0  0  0  0  0  0  0  0  0  0
   58.4427   30.4642   43.1751 H   0  0  0  0  0  0  0  0  0  0  0  0
   58.3670   32.1108   43.9521 H   0  0  0  0  0  0  0  0  0  0  0  0
   56.7537   31.1754   45.2147 H   0  0  0  0  0  0  0  0  0  0  0  0
   55.7310   31.5058   43.7371 H   0  0  0  0  0  0  0  0  0  0  0  0
   56.0385   29.0435   45.0317 H   0  0  0  0  0  0  0  0  0  0  0  0
   55.3593   29.3529   43.3756 H   0  0  0  0  0  0  0  0  0  0  0  0
   56.9628   27.9521   42.6467 H   0  0  0  0  0  0  0  0  0  0  0  0
   58.0824   29.3585   42.9320 H   0  0  0  0  0  0  0  0  0  0  0  0
   57.4857   27.1446   44.9442 H   0  0  0  0  0  0  0  0  0  0  0  0
   58.9577   27.2640   43.8859 H   0  0  0  0  0  0  0  0  0  0  0  0
   57.0766   28.9439   46.6604 H   0  0  0  0  0  0  0  0  0  0  0  0
   58.2162   30.3256   48.3872 H   0  0  0  0  0  0  0  0  0  0  0  0
   60.0996   31.8280   48.8929 H   0  0  0  0  0  0  0  0  0  0  0  0
   64.6730   32.3100   46.2940 H   0  0  0  0  0  0  0  0  0  0  0  0
   60.6432   34.1576   48.8788 H   0  0  0  0  0  0  0  0  0  0  0  0
   61.3342   35.2543   47.6143 H   0  0  0  0  0  0  0  0  0  0  0  0
   58.5917   33.0065   48.5216 H   0  0  0  0  0  0  0  0  0  0  0  0
   56.5134   32.7724   47.1632 H   0  0  0  0  0  0  0  0  0  0  0  0
   56.4093   33.7223   44.8576 H   0  0  0  0  0  0  0  0  0  0  0  0
   58.3745   34.9415   43.9203 H   0  0  0  0  0  0  0  0  0  0  0  0
   60.4489   35.2075   45.2802 H   0  0  0  0  0  0  0  0  0  0  0  0
   59.5978   29.1961   49.5551 H   0  0  0  0  0  0  0  0  0  0  0  0
   61.0626   28.3422   48.9125 H   0  0  0  0  0  0  0  0  0  0  0  0
   60.3902   27.4218   51.0953 H   0  0  0  0  0  0  0  0  0  0  0  0
   62.0052   28.2524   51.1777 H   0  0  0  0  0  0  0  0  0  0  0  0
   59.1958   28.7633   53.8064 H   0  0  0  0  0  0  0  0  0  0  0  0
   58.3446   29.3994   52.3581 H   0  0  0  0  0  0  0  0  0  0  0  0
   58.9861   27.7216   52.3581 H   0  0  0  0  0  0  0  0  0  0  0  0
   59.3590   30.8516   51.3392 H   0  0  0  0  0  0  0  0  0  0  0  0
   60.4406   31.2680   52.7283 H   0  0  0  0  0  0  0  0  0  0  0  0
   61.3490   32.1529   50.6174 H   0  0  0  0  0  0  0  0  0  0  0  0
   62.4118   30.8480   51.3112 H   0  0  0  0  0  0  0  0  0  0  0  0
   61.9286   30.0232   46.1741 H   0  0  0  0  0  0  0  0  0  0  0  0
   60.7946   28.6136   44.4667 H   0  0  0  0  0  0  0  0  0  0  0  0
  1  2  1  0
  2  3  1  0
  3  4  1  0
  4  5  1  0
  5  6  1  0
  6  7  1  0
  7  8  2  0
  8  9  1  0
  9 10  2  0
 10 11  1  0
 11 12  1  0
 12 13  2  0
 13 14  1  0
 14 15  2  0
 15 16  1  0
 16 17  1  0
 17 18  1  0
 18 19  2  0
 19 20  1  0
 20 21  2  0
 21 22  1  0
 22 23  2  0
 11 24  1  0
 24 25  1  0
 25 26  1  0
 26 27  1  0
 27 28  1  0
 27 29  1  0
 29 30  1  0
 10 31  1  0
 31 32  2  0
 32  7  1  0
 16 12  1  0
 23 18  1  0
 30 24  1  0
  1 33  1  0
  1 34  1  0
  1 35  1  0
  2 36  1  0
  2 37  1  0
  3 38  1  0
  3 39  1  0
  4 40  1  0
  4 41  1  0
  5 42  1  0
  5 43  1  0
  6 44  1  0
  6 45  1  0
  8 46  1  0
  9 47  1  0
 11 48  1  1
 14 49  1  0
 17 50  1  0
 17 51  1  0
 19 52  1  0
 20 53  1  0
 21 54  1  0
 22 55  1  0
 23 56  1  0
 25 57  1  0
 25 58  1  0
 26 59  1  0
 26 60  1  0
 28 61  1  0
 28 62  1  0
 28 63  1  0
 29 64  1  0
 29 65  1  0
 30 66  1  0
 30 67  1  0
 31 68  1  0
 32 69  1  0
M  CHG  1  14   1
M  END
>  <UniqueID>  (30) 
29

>  <SMILES>  (30) 
CCCCCCc1ccc([C@H](c2n[nH+]nn2Cc2ccccc2)N2CCN(C)CC2)cc1

>  <Energy>  (30) 
114.79037507345632

>  <Genealogy>  (30) 
CCCCCCc1ccc(C(c2n[nH+]nn2Cc2ccccc2)N2CCN(C)CC2)cc1 (protonated)
CCCCCCc1ccc([C@H](c2n[nH+]nn2Cc2ccccc2)N2CCN(C)CC2)cc1 (chirality)
CCCCCCc1ccc([C@H](c2n[nH+]nn2Cc2ccccc2)N2CCN(C)CC2)cc1 (3D coordinates assigned)
CCCCCCc1ccc([C@H](c2n[nH+]nn2Cc2ccccc2)N2CCN(C)CC2)cc1 (nonaromatic ring conformer: 114.79037507345632 kcal/mol)

>  <smiles>  (30) 
CCCCCCc1ccc(C(c2nnnn2Cc2ccccc2)N2CCN(C)CC2)cc1

>  <score_type>  (30) 
oracle

>  <origin>  (30) 
adg

>  <m_score__min__energy>  (30) 
-8.8599999999999994

>  <m_primary>  (30) 
energy

$$$$
30:0
     RDKit          3D

 17 17  0  0  0  0  0  0  0  0999 V2000
   50.6300   32.4970   53.4340 C   0  0  0  0  0  0  0  0  0  0  0  0
   50.6190   32.7450   51.9990 N   0  0  0  0  0  0  0  0  0  0  0  0
   51.3370   31.9600   51.0410 C   0  0  0  0  0  0  0  0  0  0  0  0
   51.0490   32.0710   49.8220 O   0  0  0  0  0  0  0  0  0  0  0  0
   52.3730   30.9960   51.4440 C   0  0  0  0  0  0  0  0  0  0  0  0
   53.7320   31.1300   51.2610 C   0  0  0  0  0  0  0  0  0  0  0  0
   54.3220   30.0920   51.8100 O   0  0  0  0  0  0  0  0  0  0  0  0
   53.4570   29.2890   52.3630 N   0  0  0  0  0  0  0  0  0  0  0  0
   52.2370   29.8220   52.1620 C   0  0  0  0  0  0  0  0  0  0  0  0
   50.9830   29.2420   52.7340 C   0  0  0  0  0  0  0  0  0  0  0  0
   50.5875   33.4555   53.9721 H   0  0  0  0  0  0  0  0  0  0  0  0
   49.7582   31.8843   53.7069 H   0  0  0  0  0  0  0  0  0  0  0  0
   51.5527   31.9639   53.7069 H   0  0  0  0  0  0  0  0  0  0  0  0
   54.2354   31.9610   50.7452 H   0  0  0  0  0  0  0  0  0  0  0  0
   51.0356   29.2663   53.8325 H   0  0  0  0  0  0  0  0  0  0  0  0
   50.1185   29.8317   52.3951 H   0  0  0  0  0  0  0  0  0  0  0  0
   50.8725   28.2013   52.3951 H   0  0  0  0  0  0  0  0  0  0  0  0
  1  2  1  0
  2  3  1  0
  3  4  2  0
  3  5  1  0
  5  6  2  0
  6  7  1  0
  7  8  1  0
  8  9  2  0
  9 10  1  0
  9  5  1  0
  1 11  1  0
  1 12  1  0
  1 13  1  0
  6 14  1  0
 10 15  1  0
 10 16  1  0
 10 17  1  0
M  CHG  1   2  -1
M  END
>  <UniqueID>  (31) 
30

>  <SMILES>  (31) 
C[N-]C(=O)c1conc1C

>  <Energy>  (31) 
48.85667973775081

>  <Genealogy>  (31) 
C[N-]C(=O)c1conc1C (protonated)
C[N-]C(=O)c1conc1C (3D coordinates assigned)
C[N-]C(=O)c1conc1C (optimized conformer: 48.85667973775081 kcal/mol)

>  <smiles>  (31) 
CNC(=O)c1conc1C

>  <score_type>  (31) 
oracle

>  <origin>  (31) 
adg

>  <m_score__min__energy>  (31) 
-7.3899999999999997

>  <m_primary>  (31) 
energy

$$$$
31:0
     RDKit          3D

 38 39  0  0  0  0  0  0  0  0999 V2000
   59.4110   28.1900   44.4080 C   0  0  0  0  0  0  0  0  0  0  0  0
   58.0950   28.0300   44.2360 C   0  0  0  0  0  0  0  0  0  0  0  0
   57.1270   28.1040   45.3830 C   0  0  0  0  0  0  0  0  0  0  0  0
   56.1710   29.1370   45.1540 O   0  0  0  0  0  0  0  0  0  0  0  0
   56.4350   30.2730   44.3770 C   0  0  0  0  0  0  0  0  0  0  0  0
   55.8010   30.4590   43.3020 O   0  0  0  0  0  0  0  0  0  0  0  0
   57.4310   31.2230   44.8050 N   0  0  0  0  0  0  0  0  0  0  0  0
   58.2650   30.9340   45.9790 C   0  0  0  0  0  0  0  0  0  0  0  0
   58.5630   32.2170   46.7580 C   0  0  0  0  0  0  0  0  0  0  0  0
   59.0020   33.2830   45.8490 N   0  0  0  0  0  0  0  0  0  0  0  0
   59.9250   34.2850   46.3190 C   0  0  0  0  0  0  0  0  0  0  0  0
   59.6980   35.5040   46.0870 O   0  0  0  0  0  0  0  0  0  0  0  0
   61.1290   33.9180   47.0960 C   0  0  0  0  0  0  0  0  0  0  0  0
   62.3150   33.6110   46.4080 C   0  0  0  0  0  0  0  0  0  0  0  0
   63.4760   33.2790   47.1110 C   0  0  0  0  0  0  0  0  0  0  0  0
   63.4640   33.2410   48.5070 C   0  0  0  0  0  0  0  0  0  0  0  0
   64.9230   32.8230   49.3860 Cl  0  0  0  0  0  0  0  0  0  0  0  0
   62.2850   33.5240   49.2020 C   0  0  0  0  0  0  0  0  0  0  0  0
   61.1160   33.8580   48.5080 C   0  0  0  0  0  0  0  0  0  0  0  0
   59.6420   34.1130   49.4380 Cl  0  0  0  0  0  0  0  0  0  0  0  0
   58.1560   33.5750   44.6880 C   0  0  0  0  0  0  0  0  0  0  0  0
   57.8750   32.2940   43.9020 C   0  0  0  0  0  0  0  0  0  0  0  0
   60.0899   28.1292   43.5447 H   0  0  0  0  0  0  0  0  0  0  0  0
   59.8150   28.3824   45.4129 H   0  0  0  0  0  0  0  0  0  0  0  0
   57.7089   27.8383   43.2240 H   0  0  0  0  0  0  0  0  0  0  0  0
   56.6049   27.1407   45.4807 H   0  0  0  0  0  0  0  0  0  0  0  0
   57.6812   28.3259   46.3069 H   0  0  0  0  0  0  0  0  0  0  0  0
   57.7339   30.2283   46.6346 H   0  0  0  0  0  0  0  0  0  0  0  0
   59.2156   30.4969   45.6394 H   0  0  0  0  0  0  0  0  0  0  0  0
   57.6521   32.5414   47.2824 H   0  0  0  0  0  0  0  0  0  0  0  0
   59.3666   32.0143   47.4813 H   0  0  0  0  0  0  0  0  0  0  0  0
   62.3296   33.6322   45.3083 H   0  0  0  0  0  0  0  0  0  0  0  0
   64.4015   33.0470   46.5637 H   0  0  0  0  0  0  0  0  0  0  0  0
   62.2755   33.4840   50.3012 H   0  0  0  0  0  0  0  0  0  0  0  0
   57.2042   34.0063   45.0316 H   0  0  0  0  0  0  0  0  0  0  0  0
   58.6785   34.2890   44.0344 H   0  0  0  0  0  0  0  0  0  0  0  0
   57.0880   32.4905   43.1590 H   0  0  0  0  0  0  0  0  0  0  0  0
   58.8000   31.9749   43.3994 H   0  0  0  0  0  0  0  0  0  0  0  0
  1  2  2  0
  2  3  1  0
  3  4  1  0
  4  5  1  0
  5  6  2  0
  5  7  1  0
  7  8  1  0
  8  9  1  0
  9 10  1  0
 10 11  1  0
 11 12  2  0
 11 13  1  0
 13 14  2  0
 14 15  1  0
 15 16  2  0
 16 17  1  0
 16 18  1  0
 18 19  2  0
 19 20  1  0
 10 21  1  0
 21 22  1  0
 22  7  1  0
 19 13  1  0
  1 23  1  0
  1 24  1  0
  2 25  1  0
  3 26  1  0
  3 27  1  0
  8 28  1  0
  8 29  1  0
  9 30  1  0
  9 31  1  0
 14 32  1  0
 15 33  1  0
 18 34  1  0
 21 35  1  0
 21 36  1  0
 22 37  1  0
 22 38  1  0
M  END
>  <UniqueID>  (32) 
31

>  <SMILES>  (32) 
C=CCOC(=O)N1CCN(C(=O)c2ccc(Cl)cc2Cl)CC1

>  <Energy>  (32) 
39.686328423651176

>  <Genealogy>  (32) 
C=CCOC(=O)N1CCN(C(=O)c2ccc(Cl)cc2Cl)CC1 (3D coordinates assigned)
C=CCOC(=O)N1CCN(C(=O)c2ccc(Cl)cc2Cl)CC1 (nonaromatic ring conformer: 39.686328423651176 kcal/mol)

>  <smiles>  (32) 
C=CCOC(=O)N1CCN(C(=O)c2ccc(Cl)cc2Cl)CC1

>  <score_type>  (32) 
oracle

>  <origin>  (32) 
adg

>  <m_score__min__energy>  (32) 
-8.2599999999999998

>  <m_primary>  (32) 
energy

$$$$
32:0
     RDKit          3D

 70 74  0  0  0  0  0  0  0  0999 V2000
   67.3300   32.2890   53.5660 C   0  0  0  0  0  0  0  0  0  0  0  0
   66.4050   32.5010   52.4390 N   0  0  0  0  0  0  0  0  0  0  0  0
   67.0370   32.0730   51.1640 C   0  0  0  0  0  0  0  0  0  0  0  0
   66.3970   32.7230   49.9180 C   0  0  0  0  0  0  0  0  0  0  0  0
   65.0390   33.1940   50.2140 N   0  0  0  0  0  0  0  0  0  0  0  0
   63.9310   32.8570   49.3550 C   0  0  0  0  0  0  0  0  0  0  0  0
   62.9790   31.9070   49.7570 C   0  0  0  0  0  0  0  0  0  0  0  0
   61.9140   31.5710   48.9170 C   0  0  0  0  0  0  0  0  0  0  0  0
   61.7760   32.1790   47.6560 C   0  0  0  0  0  0  0  0  0  0  0  0
   60.6460   31.7950   46.7720 C   0  0  0  0  0  0  0  0  0  0  0  0
   60.5990   30.6140   46.3290 O   0  0  0  0  0  0  0  0  0  0  0  0
   59.6060   32.7260   46.4050 N   0  0  0  0  0  0  0  0  0  0  0  0
   58.7100   33.3290   47.3820 C   0  0  1  0  0  0  0  0  0  0  0  0
   59.3340   34.7080   47.6180 C   0  0  0  0  0  0  0  0  0  0  0  0
   59.9860   35.0470   46.2760 C   0  0  0  0  0  0  0  0  0  0  0  0
   59.7880   33.7830   45.4230 C   0  0  2  0  0  0  0  0  0  0  0  0
   58.4860   33.8670   44.5760 C   0  0  0  0  0  0  0  0  0  0  0  0
   57.2970   33.2790   45.2650 N   0  0  0  0  0  0  0  0  0  0  0  0
   57.0500   31.8710   44.8730 C   0  0  0  0  0  0  0  0  0  0  0  0
   57.4130   31.6570   43.3970 C   0  0  0  0  0  0  0  0  0  0  0  0
   56.8620   30.3330   42.8650 C   0  0  0  0  0  0  0  0  0  0  0  0
   56.5300   29.4690   43.9500 O   0  0  0  0  0  0  0  0  0  0  0  0
   57.4600   28.6980   44.6620 C   0  0  0  0  0  0  0  0  0  0  0  0
   56.9790   27.7760   45.6020 C   0  0  0  0  0  0  0  0  0  0  0  0
   57.8670   26.9840   46.3350 C   0  0  0  0  0  0  0  0  0  0  0  0
   59.2440   27.1050   46.1350 C   0  0  0  0  0  0  0  0  0  0  0  0
   59.7350   28.0200   45.2010 C   0  0  0  0  0  0  0  0  0  0  0  0
   58.8500   28.8160   44.4640 C   0  0  0  0  0  0  0  0  0  0  0  0
   57.2970   33.4730   46.7420 C   0  0  0  0  0  0  0  0  0  0  0  0
   62.7430   33.1130   47.2480 C   0  0  0  0  0  0  0  0  0  0  0  0
   63.8080   33.4480   48.0880 C   0  0  0  0  0  0  0  0  0  0  0  0
   64.8360   34.0800   51.3670 C   0  0  0  0  0  0  0  0  0  0  0  0
   65.9720   33.9130   52.3880 C   0  0  0  0  0  0  0  0  0  0  0  0
   66.7869   32.4135   54.5145 H   0  0  0  0  0  0  0  0  0  0  0  0
   67.7462   31.2722   53.5125 H   0  0  0  0  0  0  0  0  0  0  0  0
   68.1475   33.0231   53.5125 H   0  0  0  0  0  0  0  0  0  0  0  0
   65.5630   31.9000   52.6110 H   0  0  0  0  0  0  0  0  0  0  0  0
   68.1020   32.3468   51.1928 H   0  0  0  0  0  0  0  0  0  0  0  0
   66.8913   30.9862   51.0763 H   0  0  0  0  0  0  0  0  0  0  0  0
   67.0134   33.5769   49.6002 H   0  0  0  0  0  0  0  0  0  0  0  0
   66.3420   31.9707   49.1174 H   0  0  0  0  0  0  0  0  0  0  0  0
   63.0720   31.4234   50.7406 H   0  0  0  0  0  0  0  0  0  0  0  0
   61.1764   30.8238   49.2450 H   0  0  0  0  0  0  0  0  0  0  0  0
   58.5944   32.7501   48.3102 H   0  0  0  0  0  0  0  0  0  0  0  0
   60.0860   34.6660   48.4197 H   0  0  0  0  0  0  0  0  0  0  0  0
   58.5968   35.4603   47.9353 H   0  0  0  0  0  0  0  0  0  0  0  0
   61.0564   35.2640   46.4073 H   0  0  0  0  0  0  0  0  0  0  0  0
   59.5447   35.9402   45.8098 H   0  0  0  0  0  0  0  0  0  0  0  0
   60.6295   33.6324   44.7308 H   0  0  0  0  0  0  0  0  0  0  0  0
   58.6470   33.3249   43.6325 H   0  0  0  0  0  0  0  0  0  0  0  0
   58.2729   34.9331   44.4085 H   0  0  0  0  0  0  0  0  0  0  0  0
   57.6654   31.2071   45.4979 H   0  0  0  0  0  0  0  0  0  0  0  0
   55.9837   31.6418   45.0159 H   0  0  0  0  0  0  0  0  0  0  0  0
   56.9928   32.4822   42.8033 H   0  0  0  0  0  0  0  0  0  0  0  0
   58.5095   31.6301   43.3140 H   0  0  0  0  0  0  0  0  0  0  0  0
   55.9600   30.5285   42.2665 H   0  0  0  0  0  0  0  0  0  0  0  0
   57.6277   29.8492   42.2408 H   0  0  0  0  0  0  0  0  0  0  0  0
   55.8956   27.6752   45.7637 H   0  0  0  0  0  0  0  0  0  0  0  0
   57.4806   26.2637   47.0711 H   0  0  0  0  0  0  0  0  0  0  0  0
   59.9412   26.4802   46.7126 H   0  0  0  0  0  0  0  0  0  0  0  0
   60.8196   28.1154   45.0441 H   0  0  0  0  0  0  0  0  0  0  0  0
   59.2406   29.5350   43.7289 H   0  0  0  0  0  0  0  0  0  0  0  0
   56.6313   32.7223   47.1928 H   0  0  0  0  0  0  0  0  0  0  0  0
   56.9545   34.5002   46.9359 H   0  0  0  0  0  0  0  0  0  0  0  0
   62.6608   33.5850   46.2578 H   0  0  0  0  0  0  0  0  0  0  0  0
   64.5565   34.1813   47.7534 H   0  0  0  0  0  0  0  0  0  0  0  0
   64.8127   35.1237   51.0205 H   0  0  0  0  0  0  0  0  0  0  0  0
   63.8841   33.8169   51.8514 H   0  0  0  0  0  0  0  0  0  0  0  0
   66.8230   34.5441   52.0920 H   0  0  0  0  0  0  0  0  0  0  0  0
   65.6102   34.2149   53.3820 H   0  0  0  0  0  0  0  0  0  0  0  0
  1  2  1  0
  2  3  1  0
  3  4  1  0
  4  5  1  0
  5  6  1  0
  6  7  2  0
  7  8  1  0
  8  9  2  0
  9 10  1  0
 10 11  2  0
 10 12  1  0
 12 13  1  0
 13 14  1  0
 14 15  1  0
 15 16  1  0
 16 17  1  0
 17 18  1  0
 18 19  1  0
 19 20  1  0
 20 21  1  0
 21 22  1  0
 22 23  1  0
 23 24  2  0
 24 25  1  0
 25 26  2  0
 26 27  1  0
 27 28  2  0
 18 29  1  0
  9 30  1  0
 30 31  2  0
  5 32  1  0
 32 33  1  0
 33  2  1  0
 31  6  1  0
 16 12  1  0
 28 23  1  0
 29 13  1  0
  1 34  1  0
  1 35  1  0
  1 36  1  0
  2 37  1  0
  3 38  1  0
  3 39  1  0
  4 40  1  0
  4 41  1  0
  7 42  1  0
  8 43  1  0
 13 44  1  1
 14 45  1  0
 14 46  1  0
 15 47  1  0
 15 48  1  0
 16 49  1  6
 17 50  1  0
 17 51  1  0
 19 52  1  0
 19 53  1  0
 20 54  1  0
 20 55  1  0
 21 56  1  0
 21 57  1  0
 24 58  1  0
 25 59  1  0
 26 60  1  0
 27 61  1  0
 28 62  1  0
 29 63  1  0
 29 64  1  0
 30 65  1  0
 31 66  1  0
 32 67  1  0
 32 68  1  0
 33 69  1  0
 33 70  1  0
M  CHG  1   2   1
M  END
>  <UniqueID>  (33) 
32

>  <SMILES>  (33) 
C[NH+]1CCN(c2ccc(C(=O)N3[C@@H]4CC[C@H]3CN(CCCOc3ccccc3)C4)cc2)CC1

>  <Energy>  (33) 
113.46667490677837

>  <Genealogy>  (33) 
C[NH+]1CCN(c2ccc(C(=O)N3C4CCC3CN(CCCOc3ccccc3)C4)cc2)CC1 (protonated)
C[NH+]1CCN(c2ccc(C(=O)N3[C@@H]4CC[C@H]3CN(CCCOc3ccccc3)C4)cc2)CC1 (chirality)
C[NH+]1CCN(c2ccc(C(=O)N3[C@@H]4CC[C@H]3CN(CCCOc3ccccc3)C4)cc2)CC1 (3D coordinates assigned)
C[NH+]1CCN(c2ccc(C(=O)N3[C@@H]4CC[C@H]3CN(CCCOc3ccccc3)C4)cc2)CC1 (nonaromatic ring conformer: 113.46667490677837 kcal/mol)

>  <smiles>  (33) 
CN1CCN(c2ccc(C(=O)N3C4CCC3CN(CCCOc3ccccc3)C4)cc2)CC1

>  <score_type>  (33) 
oracle

>  <origin>  (33) 
adg

>  <m_score__min__energy>  (33) 
-8.0800000000000001

>  <m_primary>  (33) 
energy

$$$$
33:0
     RDKit          3D

 29 31  0  0  0  0  0  0  0  0999 V2000
   57.2860   21.8480   44.2200 C   0  0  0  0  0  0  0  0  0  0  0  0
   56.8860   23.2070   44.7310 C   0  0  0  0  0  0  0  0  0  0  0  0
   57.7150   24.3190   44.4500 C   0  0  0  0  0  0  0  0  0  0  0  0
   57.3250   25.5640   44.9320 C   0  0  0  0  0  0  0  0  0  0  0  0
   57.9590   26.7360   44.7820 N   0  0  0  0  0  0  0  0  0  0  0  0
   57.1480   27.6060   45.4430 C   0  0  0  0  0  0  0  0  0  0  0  0
   57.4650   29.0540   45.5670 C   0  0  0  0  0  0  0  0  0  0  0  0
   58.4850   29.4510   46.4510 C   0  0  0  0  0  0  0  0  0  0  0  0
   58.8040   30.8000   46.6070 C   0  0  0  0  0  0  0  0  0  0  0  0
   58.1070   31.7540   45.8730 C   0  0  0  0  0  0  0  0  0  0  0  0
   57.1310   31.3690   45.0120 N   0  0  0  0  0  0  0  0  0  0  0  0
   56.7910   30.0640   44.8350 C   0  0  0  0  0  0  0  0  0  0  0  0
   55.5370   29.7170   43.6510 Cl  0  0  0  0  0  0  0  0  0  0  0  0
   56.0510   27.0230   45.9960 N   0  0  0  0  0  0  0  0  0  0  0  0
   56.1910   25.7360   45.6530 C   0  0  0  0  0  0  0  0  0  0  0  0
   55.3420   24.6780   45.9580 C   0  0  0  0  0  0  0  0  0  0  0  0
   55.6890   23.3880   45.4920 C   0  0  0  0  0  0  0  0  0  0  0  0
   54.7850   22.2260   45.8080 C   0  0  0  0  0  0  0  0  0  0  0  0
   57.4827   21.1795   45.0712 H   0  0  0  0  0  0  0  0  0  0  0  0
   56.4721   21.4323   43.6078 H   0  0  0  0  0  0  0  0  0  0  0  0
   58.1953   21.9395   43.6078 H   0  0  0  0  0  0  0  0  0  0  0  0
   58.6407   24.2021   43.8674 H   0  0  0  0  0  0  0  0  0  0  0  0
   59.0359   28.6908   47.0243 H   0  0  0  0  0  0  0  0  0  0  0  0
   59.5986   31.1062   47.3033 H   0  0  0  0  0  0  0  0  0  0  0  0
   58.3469   32.8211   45.9904 H   0  0  0  0  0  0  0  0  0  0  0  0
   54.4260   24.8394   46.5453 H   0  0  0  0  0  0  0  0  0  0  0  0
   54.6985   22.1148   46.8989 H   0  0  0  0  0  0  0  0  0  0  0  0
   53.7892   22.4086   45.3779 H   0  0  0  0  0  0  0  0  0  0  0  0
   55.2069   21.3057   45.3779 H   0  0  0  0  0  0  0  0  0  0  0  0
  1  2  1  0
  2  3  2  0
  3  4  1  0
  4  5  1  0
  5  6  2  0
  6  7  1  0
  7  8  2  0
  8  9  1  0
  9 10  2  0
 10 11  1  0
 11 12  2  0
 12 13  1  0
  6 14  1  0
 14 15  1  0
 15 16  1  0
 16 17  2  0
 17 18  1  0
 17  2  1  0
 15  4  2  0
 12  7  1  0
  1 19  1  0
  1 20  1  0
  1 21  1  0
  3 22  1  0
  8 23  1  0
  9 24  1  0
 10 25  1  0
 16 26  1  0
 18 27  1  0
 18 28  1  0
 18 29  1  0
M  CHG  1  14  -1
M  END
>  <UniqueID>  (34) 
33

>  <SMILES>  (34) 
Cc1cc2nc(-c3cccnc3Cl)[n-]c2cc1C

>  <Energy>  (34) 
71.10233582186753

>  <Genealogy>  (34) 
Cc1cc2nc(-c3cccnc3Cl)[n-]c2cc1C (protonated)
Cc1cc2nc(-c3cccnc3Cl)[n-]c2cc1C (3D coordinates assigned)
Cc1cc2nc(-c3cccnc3Cl)[n-]c2cc1C (optimized conformer: 71.10233582186753 kcal/mol)

>  <smiles>  (34) 
Cc1cc2nc(-c3cccnc3Cl)[nH]c2cc1C

>  <score_type>  (34) 
oracle

>  <origin>  (34) 
adg

>  <m_score__min__energy>  (34) 
-7.5300000000000002

>  <m_primary>  (34) 
energy

$$$$
34:0
     RDKit          3D

 43 46  0  0  0  0  0  0  0  0999 V2000
   59.6450   35.8270   46.3210 C   0  0  0  0  0  0  0  0  0  0  0  0
   59.1860   34.4240   46.0560 C   0  0  0  0  0  0  0  0  0  0  0  0
   58.1500   34.1790   45.1450 C   0  0  0  0  0  0  0  0  0  0  0  0
   57.7490   32.8680   44.8650 C   0  0  0  0  0  0  0  0  0  0  0  0
   58.3930   31.7770   45.4810 C   0  0  0  0  0  0  0  0  0  0  0  0
   57.9990   30.4190   45.1990 N   0  0  0  0  0  0  0  0  0  0  0  0
   58.7660   29.3110   45.2310 C   0  0  0  0  0  0  0  0  0  0  0  0
   57.9380   28.2610   44.9050 C   0  0  0  0  0  0  0  0  0  0  0  0
   58.2960   26.8100   44.9060 C   0  0  0  0  0  0  0  0  0  0  0  0
   57.1330   26.0150   45.2890 N   0  0  0  0  0  0  0  0  0  0  0  0
   56.2710   26.2490   46.3070 C   0  0  0  0  0  0  0  0  0  0  0  0
   55.2280   25.3760   46.3380 N   0  0  0  0  0  0  0  0  0  0  0  0
   55.4640   24.5750   45.2790 C   0  0  0  0  0  0  0  0  0  0  0  0
   54.7200   23.4960   44.7770 C   0  0  0  0  0  0  0  0  0  0  0  0
   53.4960   23.0120   45.3820 N   0  0  0  0  0  0  0  0  0  0  0  0
   53.5760   21.9070   46.3460 C   0  0  0  0  0  0  0  0  0  0  0  0
   52.1890   23.6020   45.0670 C   0  0  0  0  0  0  0  0  0  0  0  0
   55.2060   22.8930   43.6470 N   0  0  0  0  0  0  0  0  0  0  0  0
   56.3550   23.3140   43.0300 C   0  0  0  0  0  0  0  0  0  0  0  0
   57.0660   24.3650   43.5300 N   0  0  0  0  0  0  0  0  0  0  0  0
   56.6000   24.9660   44.6500 C   0  0  0  0  0  0  0  0  0  0  0  0
   56.6970   28.7410   44.7030 N   0  0  0  0  0  0  0  0  0  0  0  0
   56.7650   30.0530   44.8820 N   0  0  0  0  0  0  0  0  0  0  0  0
   59.4390   32.0320   46.3850 C   0  0  0  0  0  0  0  0  0  0  0  0
   59.8390   33.3420   46.6620 C   0  0  0  0  0  0  0  0  0  0  0  0
   59.7002   35.9958   47.4066 H   0  0  0  0  0  0  0  0  0  0  0  0
   60.6393   35.9778   45.8754 H   0  0  0  0  0  0  0  0  0  0  0  0
   58.9321   36.5364   45.8754 H   0  0  0  0  0  0  0  0  0  0  0  0
   57.6490   35.0222   44.6470 H   0  0  0  0  0  0  0  0  0  0  0  0
   56.9250   32.6880   44.1588 H   0  0  0  0  0  0  0  0  0  0  0  0
   59.8384   29.2569   45.4697 H   0  0  0  0  0  0  0  0  0  0  0  0
   58.6252   26.5142   43.8990 H   0  0  0  0  0  0  0  0  0  0  0  0
   59.1085   26.6364   45.6269 H   0  0  0  0  0  0  0  0  0  0  0  0
   56.4011   27.0629   47.0354 H   0  0  0  0  0  0  0  0  0  0  0  0
   53.5468   22.3101   47.3691 H   0  0  0  0  0  0  0  0  0  0  0  0
   52.7248   21.2268   46.1955 H   0  0  0  0  0  0  0  0  0  0  0  0
   54.5164   21.3565   46.1955 H   0  0  0  0  0  0  0  0  0  0  0  0
   51.6598   23.8409   46.0013 H   0  0  0  0  0  0  0  0  0  0  0  0
   52.3335   24.5222   44.4819 H   0  0  0  0  0  0  0  0  0  0  0  0
   51.5945   22.8850   44.4819 H   0  0  0  0  0  0  0  0  0  0  0  0
   56.7069   22.7997   42.1235 H   0  0  0  0  0  0  0  0  0  0  0  0
   59.9479   31.1915   46.8795 H   0  0  0  0  0  0  0  0  0  0  0  0
   60.6702   33.5248   47.3589 H   0  0  0  0  0  0  0  0  0  0  0  0
  1  2  1  0
  2  3  2  0
  3  4  1  0
  4  5  2  0
  5  6  1  0
  6  7  1  0
  7  8  2  0
  8  9  1  0
  9 10  1  0
 10 11  1  0
 11 12  2  0
 12 13  1  0
 13 14  2  0
 14 15  1  0
 15 16  1  0
 15 17  1  0
 14 18  1  0
 18 19  2  0
 19 20  1  0
 20 21  2  0
  8 22  1  0
 22 23  2  0
  5 24  1  0
 24 25  2  0
 25  2  1  0
 23  6  1  0
 21 10  1  0
 21 13  1  0
  1 26  1  0
  1 27  1  0
  1 28  1  0
  3 29  1  0
  4 30  1  0
  7 31  1  0
  9 32  1  0
  9 33  1  0
 11 34  1  0
 16 35  1  0
 16 36  1  0
 16 37  1  0
 17 38  1  0
 17 39  1  0
 17 40  1  0
 19 41  1  0
 24 42  1  0
 25 43  1  0
M  END
>  <UniqueID>  (35) 
34

>  <SMILES>  (35) 
Cc1ccc(-n2cc(Cn3cnc4c(N(C)C)ncnc43)nn2)cc1

>  <Energy>  (35) 
122.45077659608917

>  <Genealogy>  (35) 
Cc1ccc(-n2cc(Cn3cnc4c(N(C)C)ncnc43)nn2)cc1 (3D coordinates assigned)
Cc1ccc(-n2cc(Cn3cnc4c(N(C)C)ncnc43)nn2)cc1 (optimized conformer: 122.45077659608917 kcal/mol)

>  <smiles>  (35) 
Cc1ccc(-n2cc(Cn3cnc4c(N(C)C)ncnc43)nn2)cc1

>  <score_type>  (35) 
oracle

>  <origin>  (35) 
adg

>  <m_score__min__energy>  (35) 
-8.0899999999999999

>  <m_primary>  (35) 
energy

$$$$
35:0
     RDKit          3D

 35 37  0  0  0  0  0  0  0  0999 V2000
   59.4780   28.2470   48.4130 H   0  0  0  0  0  0  0  0  0  0  0  0
   59.3720   27.9600   47.4160 N   0  0  0  0  0  0  0  0  0  0  0  0
   58.2540   27.9530   46.7490 C   0  0  0  0  0  0  0  0  0  0  0  0
   57.8060   29.1030   46.0410 C   0  0  0  0  0  0  0  0  0  0  0  0
   56.6320   28.9980   45.2540 C   0  0  0  0  0  0  0  0  0  0  0  0
   55.9180   27.8430   45.2510 N   0  0  0  0  0  0  0  0  0  0  0  0
   56.2970   26.7460   45.9490 C   0  0  0  0  0  0  0  0  0  0  0  0
   55.5120   25.5920   45.8970 C   0  0  0  0  0  0  0  0  0  0  0  0
   54.5893   25.5838   45.2982 H   0  0  0  0  0  0  0  0  0  0  0  0
   55.8930   24.4500   46.6010 C   0  0  0  0  0  0  0  0  0  0  0  0
   55.2676   23.5463   46.5530 H   0  0  0  0  0  0  0  0  0  0  0  0
   57.0620   24.4430   47.3670 C   0  0  0  0  0  0  0  0  0  0  0  0
   57.3980   23.2680   48.0550 O   0  0  0  0  0  0  0  0  0  0  0  0
   56.4530   22.3280   48.5570 C   0  0  0  0  0  0  0  0  0  0  0  0
   56.4689   22.3438   49.6568 H   0  0  0  0  0  0  0  0  0  0  0  0
   55.4467   22.5939   48.2010 H   0  0  0  0  0  0  0  0  0  0  0  0
   56.7135   21.3204   48.2010 H   0  0  0  0  0  0  0  0  0  0  0  0
   57.8570   25.6060   47.4240 C   0  0  0  0  0  0  0  0  0  0  0  0
   58.7786   25.6076   48.0246 H   0  0  0  0  0  0  0  0  0  0  0  0
   57.4800   26.7700   46.7160 C   0  0  0  0  0  0  0  0  0  0  0  0
   56.0840   30.1600   44.4700 C   0  0  0  0  0  0  0  0  0  0  0  0
   55.6853   29.7853   43.5157 H   0  0  0  0  0  0  0  0  0  0  0  0
   55.2988   30.6333   45.0778 H   0  0  0  0  0  0  0  0  0  0  0  0
   57.1450   31.2180   44.1760 C   0  0  0  0  0  0  0  0  0  0  0  0
   57.8757   30.8139   43.4600 H   0  0  0  0  0  0  0  0  0  0  0  0
   56.6621   32.1089   43.7481 H   0  0  0  0  0  0  0  0  0  0  0  0
   57.8630   31.6040   45.4730 C   0  0  2  0  0  0  0  0  0  0  0  0
   57.1096   31.9252   46.2073 H   0  0  0  0  0  0  0  0  0  0  0  0
   58.8220   32.7760   45.2350 C   0  0  0  0  0  0  0  0  0  0  0  0
   59.1533   33.1809   46.2026 H   0  0  0  0  0  0  0  0  0  0  0  0
   59.6955   32.4253   44.6658 H   0  0  0  0  0  0  0  0  0  0  0  0
   58.3053   33.5628   44.6658 H   0  0  0  0  0  0  0  0  0  0  0  0
   58.6180   30.3900   46.0440 C   0  0  0  0  0  0  0  0  0  0  0  0
   59.5235   30.2298   45.4404 H   0  0  0  0  0  0  0  0  0  0  0  0
   58.8470   30.6212   47.0948 H   0  0  0  0  0  0  0  0  0  0  0  0
  1  2  1  0
  2  3  2  0
  3  4  1  0
  4  5  2  0
  5  6  1  0
  6  7  1  0
  7  8  2  0
  8  9  1  0
  8 10  1  0
 10 11  1  0
 10 12  2  0
 12 13  1  0
 13 14  1  0
 14 15  1  0
 14 16  1  0
 14 17  1  0
 12 18  1  0
 18 19  1  0
 18 20  2  0
  5 21  1  0
 21 22  1  0
 21 23  1  0
 21 24  1  0
 24 25  1  0
 24 26  1  0
 24 27  1  0
 27 28  1  1
 27 29  1  0
 29 30  1  0
 29 31  1  0
 29 32  1  0
 27 33  1  0
 33 34  1  0
 33 35  1  0
 20  3  1  0
 33  4  1  0
 20  7  1  0
M  CHG  1   6  -1
M  END
>  <UniqueID>  (36) 
35

>  <SMILES>  (36) 
[H]/N=c1\c2c([n-]c3ccc(OC)cc13)CC[C@H](C)C2

>  <Energy>  (36) 
41.865792842872196

>  <Genealogy>  (36) 
COc1ccc2[n-]c3c(c(=N)c2c1)CC(C)CC3 (protonated)
COc1ccc2[n-]c3c(c(=N)c2c1)C[C@@H](C)CC3 (chirality)
[H]/N=c1\c2c([n-]c3ccc(OC)cc13)CC[C@H](C)C2 (cis-trans isomerization)
[H]/N=c1\c2c([n-]c3ccc(OC)cc13)CC[C@H](C)C2 (3D coordinates assigned)
[H]/N=c1\c2c([n-]c3ccc(OC)cc13)CC[C@H](C)C2 (nonaromatic ring conformer: 41.865792842872196 kcal/mol)

>  <smiles>  (36) 
COc1ccc2[nH]c3c(c(=N)c2c1)CC(C)CC3

>  <score_type>  (36) 
oracle

>  <origin>  (36) 
adg

>  <m_score__min__energy>  (36) 
-7.7999999999999998

>  <m_primary>  (36) 
energy

$$$$
36:0
     RDKit          3D

 28 30  0  0  0  0  0  0  0  0999 V2000
   59.6370   36.0670   46.1370 O   0  0  0  0  0  0  0  0  0  0  0  0
   59.6860   34.8850   46.5760 C   0  0  0  0  0  0  0  0  0  0  0  0
   60.4330   34.5950   47.7270 O   0  0  0  0  0  0  0  0  0  0  0  0
   61.6170   33.8440   47.7630 C   0  0  0  0  0  0  0  0  0  0  0  0
   62.0400   33.1370   48.8940 C   0  0  0  0  0  0  0  0  0  0  0  0
   63.2060   32.4470   48.8530 N   0  0  0  0  0  0  0  0  0  0  0  0
   63.9580   32.4350   47.7520 N   0  0  0  0  0  0  0  0  0  0  0  0
   63.5940   33.1120   46.6640 N   0  0  0  0  0  0  0  0  0  0  0  0
   62.4410   33.8260   46.6400 C   0  0  0  0  0  0  0  0  0  0  0  0
   58.9020   33.8160   45.9050 C   0  0  0  0  0  0  0  0  0  0  0  0
   58.8860   33.7330   44.5030 C   0  0  0  0  0  0  0  0  0  0  0  0
   58.1490   32.7270   43.8710 C   0  0  0  0  0  0  0  0  0  0  0  0
   58.1100   32.6140   42.4720 C   0  0  0  0  0  0  0  0  0  0  0  0
   57.3610   31.5940   41.8770 C   0  0  0  0  0  0  0  0  0  0  0  0
   56.6510   30.6870   42.6710 C   0  0  0  0  0  0  0  0  0  0  0  0
   56.6880   30.7960   44.0660 C   0  0  0  0  0  0  0  0  0  0  0  0
   57.4350   31.8130   44.6700 C   0  0  0  0  0  0  0  0  0  0  0  0
   57.4680   31.9150   45.9930 O   0  0  0  0  0  0  0  0  0  0  0  0
   58.1580   32.8580   46.6310 C   0  0  0  0  0  0  0  0  0  0  0  0
   58.1330   32.8760   47.8900 O   0  0  0  0  0  0  0  0  0  0  0  0
   61.4307   33.1411   49.8098 H   0  0  0  0  0  0  0  0  0  0  0  0
   64.8510   31.8940   47.7450 H   0  0  0  0  0  0  0  0  0  0  0  0
   62.1579   34.3882   45.7379 H   0  0  0  0  0  0  0  0  0  0  0  0
   59.4532   34.4593   43.9024 H   0  0  0  0  0  0  0  0  0  0  0  0
   58.6673   33.3261   41.8456 H   0  0  0  0  0  0  0  0  0  0  0  0
   57.3300   31.5045   40.7811 H   0  0  0  0  0  0  0  0  0  0  0  0
   56.0626   29.8868   42.1982 H   0  0  0  0  0  0  0  0  0  0  0  0
   56.1292   30.0813   44.6880 H   0  0  0  0  0  0  0  0  0  0  0  0
  1  2  2  0
  2  3  1  0
  3  4  1  0
  4  5  2  0
  5  6  1  0
  6  7  2  0
  7  8  1  0
  8  9  2  0
  2 10  1  0
 10 11  2  0
 11 12  1  0
 12 13  2  0
 13 14  1  0
 14 15  2  0
 15 16  1  0
 16 17  2  0
 17 18  1  0
 18 19  1  0
 19 20  2  0
  9  4  1  0
 19 10  1  0
 17 12  1  0
  5 21  1  0
  7 22  1  0
  9 23  1  0
 11 24  1  0
 13 25  1  0
 14 26  1  0
 15 27  1  0
 16 28  1  0
M  CHG  1   7   1
M  END
>  <UniqueID>  (37) 
36

>  <SMILES>  (37) 
O=C(Oc1cn[nH+]nc1)c1cc2ccccc2oc1=O

>  <Energy>  (37) 
42.22951430288728

>  <Genealogy>  (37) 
O=C(Oc1cn[nH+]nc1)c1cc2ccccc2oc1=O (protonated)
O=C(Oc1cn[nH+]nc1)c1cc2ccccc2oc1=O (3D coordinates assigned)
O=C(Oc1cn[nH+]nc1)c1cc2ccccc2oc1=O (optimized conformer: 42.22951430288728 kcal/mol)

>  <smiles>  (37) 
O=C(Oc1cnnnc1)c1cc2ccccc2oc1=O

>  <score_type>  (37) 
oracle

>  <origin>  (37) 
adg

>  <m_score__min__energy>  (37) 
-6.7300000000000004

>  <m_primary>  (37) 
energy

$$$$
37:0
     RDKit          3D

 40 42  0  0  0  0  0  0  0  0999 V2000
   57.0470   34.1100   45.4490 C   0  0  0  0  0  0  0  0  0  0  0  0
   58.4200   34.0990   44.8660 C   0  0  0  0  0  0  0  0  0  0  0  0
   58.6260   33.5300   43.7610 O   0  0  0  0  0  0  0  0  0  0  0  0
   59.4820   34.7770   45.5460 N   0  0  0  0  0  0  0  0  0  0  0  0
   59.8480   34.5230   46.9340 C   0  0  0  0  0  0  0  0  0  0  0  0
   60.7870   33.3440   47.0240 C   0  0  0  0  0  0  0  0  0  0  0  0
   62.1200   33.5680   47.4090 C   0  0  0  0  0  0  0  0  0  0  0  0
   63.0270   32.5090   47.4830 C   0  0  0  0  0  0  0  0  0  0  0  0
   62.6220   31.2110   47.1710 C   0  0  0  0  0  0  0  0  0  0  0  0
   61.2990   30.9630   46.7790 C   0  0  0  0  0  0  0  0  0  0  0  0
   60.8770   29.6670   46.4560 C   0  0  0  0  0  0  0  0  0  0  0  0
   59.5520   29.4410   46.0620 C   0  0  0  0  0  0  0  0  0  0  0  0
   59.1020   28.1550   45.7300 C   0  0  0  0  0  0  0  0  0  0  0  0
   57.7670   27.9490   45.3340 C   0  0  0  0  0  0  0  0  0  0  0  0
   57.2730   26.6480   44.9840 N   0  0  0  0  0  0  0  0  0  0  0  0
   56.2190   25.6790   45.9610 S   0  0  0  0  0  0  0  0  0  0  0  0
   56.1360   24.0430   45.2700 C   0  0  0  0  0  0  0  0  0  0  0  0
   56.7570   25.5930   47.3620 O   0  0  0  0  0  0  0  0  0  0  0  0
   54.8410   26.2770   45.9760 O   0  0  0  0  0  0  0  0  0  0  0  0
   56.8870   29.0420   45.2760 C   0  0  0  0  0  0  0  0  0  0  0  0
   55.5640   28.8430   44.8860 O   0  0  0  0  0  0  0  0  0  0  0  0
   57.3350   30.3280   45.6090 C   0  0  0  0  0  0  0  0  0  0  0  0
   58.6610   30.5310   46.0010 C   0  0  0  0  0  0  0  0  0  0  0  0
   59.0910   31.7810   46.3200 N   0  0  0  0  0  0  0  0  0  0  0  0
   60.3740   32.0320   46.7030 C   0  0  0  0  0  0  0  0  0  0  0  0
   57.1148   34.1095   46.5469 H   0  0  0  0  0  0  0  0  0  0  0  0
   56.5140   35.0124   45.1150 H   0  0  0  0  0  0  0  0  0  0  0  0
   56.4997   33.2162   45.1150 H   0  0  0  0  0  0  0  0  0  0  0  0
   60.3442   35.4138   47.3467 H   0  0  0  0  0  0  0  0  0  0  0  0
   58.9368   34.2977   47.5076 H   0  0  0  0  0  0  0  0  0  0  0  0
   62.4520   34.5876   47.6544 H   0  0  0  0  0  0  0  0  0  0  0  0
   64.0663   32.6992   47.7889 H   0  0  0  0  0  0  0  0  0  0  0  0
   63.3415   30.3812   47.2326 H   0  0  0  0  0  0  0  0  0  0  0  0
   61.5855   28.8274   46.5117 H   0  0  0  0  0  0  0  0  0  0  0  0
   59.7958   27.3028   45.7793 H   0  0  0  0  0  0  0  0  0  0  0  0
   56.0985   23.3030   46.0830 H   0  0  0  0  0  0  0  0  0  0  0  0
   55.2321   23.9524   44.6497 H   0  0  0  0  0  0  0  0  0  0  0  0
   57.0261   23.8614   44.6497 H   0  0  0  0  0  0  0  0  0  0  0  0
   55.1430   27.9210   44.8850 H   0  0  0  0  0  0  0  0  0  0  0  0
   56.6407   31.1799   45.5616 H   0  0  0  0  0  0  0  0  0  0  0  0
  1  2  1  0
  2  3  2  0
  2  4  1  0
  4  5  1  0
  5  6  1  0
  6  7  2  0
  7  8  1  0
  8  9  2  0
  9 10  1  0
 10 11  2  0
 11 12  1  0
 12 13  2  0
 13 14  1  0
 14 15  1  0
 15 16  1  0
 16 17  1  0
 16 18  2  0
 16 19  2  0
 14 20  2  0
 20 21  1  0
 20 22  1  0
 22 23  2  0
 23 24  1  0
 24 25  2  0
 25  6  1  0
 25 10  1  0
 23 12  1  0
  1 26  1  0
  1 27  1  0
  1 28  1  0
  5 29  1  0
  5 30  1  0
  7 31  1  0
  8 32  1  0
  9 33  1  0
 11 34  1  0
 13 35  1  0
 17 36  1  0
 17 37  1  0
 17 38  1  0
 21 39  1  0
 22 40  1  0
M  CHG  2   4  -1  15  -1
M  END
>  <UniqueID>  (38) 
37

>  <SMILES>  (38) 
CC(=O)[N-]Cc1cccc2cc3cc([N-]S(C)(=O)=O)c(O)cc3nc12

>  <Energy>  (38) 
43.45890691222066

>  <Genealogy>  (38) 
CC(=O)[N-]Cc1cccc2cc3cc([N-]S(C)(=O)=O)c(O)cc3nc12 (protonated)
CC(=O)[N-]Cc1cccc2cc3cc([N-]S(C)(=O)=O)c(O)cc3nc12 (3D coordinates assigned)
CC(=O)[N-]Cc1cccc2cc3cc([N-]S(C)(=O)=O)c(O)cc3nc12 (optimized conformer: 43.45890691222066 kcal/mol)

>  <smiles>  (38) 
CC(=O)NCc1cccc2cc3cc(NS(C)(=O)=O)c(O)cc3nc12

>  <score_type>  (38) 
oracle

>  <origin>  (38) 
adg

>  <m_score__min__energy>  (38) 
-11.390000000000001

>  <m_primary>  (38) 
energy

$$$$
38:0
     RDKit          3D

 29 31  0  0  0  0  0  0  0  0999 V2000
   55.0880   30.2010   43.7220 O   0  0  0  0  0  0  0  0  0  0  0  0
   56.3360   29.4930   44.1680 S   0  0  0  0  0  0  0  0  0  0  0  0
   57.0280   28.9130   42.9680 O   0  0  0  0  0  0  0  0  0  0  0  0
   55.9000   28.2120   45.2500 N   0  0  0  0  0  0  0  0  0  0  0  0
   56.7780   27.1310   45.5700 C   0  0  0  0  0  0  0  0  0  0  0  0
   58.1260   27.1010   45.2590 C   0  0  0  0  0  0  0  0  0  0  0  0
   58.7550   25.9270   45.6920 C   0  0  0  0  0  0  0  0  0  0  0  0
   57.9010   25.0410   46.3390 C   0  0  0  0  0  0  0  0  0  0  0  0
   56.3580   25.7140   46.3760 S   0  0  0  0  0  0  0  0  0  0  0  0
   57.4300   30.6110   44.9770 C   0  0  0  0  0  0  0  0  0  0  0  0
   58.2480   30.1540   46.0180 C   0  0  0  0  0  0  0  0  0  0  0  0
   59.1110   31.0330   46.6770 C   0  0  0  0  0  0  0  0  0  0  0  0
   59.1680   32.3810   46.2980 C   0  0  0  0  0  0  0  0  0  0  0  0
   60.0310   33.2730   46.9550 C   0  0  0  0  0  0  0  0  0  0  0  0
   60.0790   34.6150   46.5670 C   0  0  0  0  0  0  0  0  0  0  0  0
   59.2690   35.0760   45.5250 C   0  0  0  0  0  0  0  0  0  0  0  0
   58.4060   34.1990   44.8640 C   0  0  0  0  0  0  0  0  0  0  0  0
   58.3470   32.8480   45.2430 C   0  0  0  0  0  0  0  0  0  0  0  0
   57.4830   31.9570   44.5880 C   0  0  0  0  0  0  0  0  0  0  0  0
   58.6473   27.9117   44.7289 H   0  0  0  0  0  0  0  0  0  0  0  0
   59.8248   25.7248   45.5349 H   0  0  0  0  0  0  0  0  0  0  0  0
   58.1856   24.0640   46.7567 H   0  0  0  0  0  0  0  0  0  0  0  0
   58.2107   29.0965   46.3185 H   0  0  0  0  0  0  0  0  0  0  0  0
   59.7475   30.6660   47.4956 H   0  0  0  0  0  0  0  0  0  0  0  0
   60.6699   32.9152   47.7759 H   0  0  0  0  0  0  0  0  0  0  0  0
   60.7566   35.3109   47.0834 H   0  0  0  0  0  0  0  0  0  0  0  0
   59.3115   36.1333   45.2246 H   0  0  0  0  0  0  0  0  0  0  0  0
   57.7711   34.5673   44.0447 H   0  0  0  0  0  0  0  0  0  0  0  0
   56.8452   32.3158   43.7667 H   0  0  0  0  0  0  0  0  0  0  0  0
  1  2  2  0
  2  3  2  0
  2  4  1  0
  4  5  1  0
  5  6  2  0
  6  7  1  0
  7  8  2  0
  8  9  1  0
  2 10  1  0
 10 11  2  0
 11 12  1  0
 12 13  2  0
 13 14  1  0
 14 15  2  0
 15 16  1  0
 16 17  2  0
 17 18  1  0
 18 19  2  0
  9  5  1  0
 19 10  1  0
 18 13  1  0
  6 20  1  0
  7 21  1  0
  8 22  1  0
 11 23  1  0
 12 24  1  0
 14 25  1  0
 15 26  1  0
 16 27  1  0
 17 28  1  0
 19 29  1  0
M  CHG  1   4  -1
M  END
>  <UniqueID>  (39) 
38

>  <SMILES>  (39) 
O=S(=O)([N-]c1cccs1)c1ccc2ccccc2c1

>  <Energy>  (39) 
62.93248262985044

>  <Genealogy>  (39) 
O=S(=O)([N-]c1cccs1)c1ccc2ccccc2c1 (protonated)
O=S(=O)([N-]c1cccs1)c1ccc2ccccc2c1 (3D coordinates assigned)
O=S(=O)([N-]c1cccs1)c1ccc2ccccc2c1 (optimized conformer: 62.93248262985044 kcal/mol)

>  <smiles>  (39) 
O=S(=O)(Nc1cccs1)c1ccc2ccccc2c1

>  <score_type>  (39) 
oracle

>  <origin>  (39) 
adg

>  <m_score__min__energy>  (39) 
-9.3499999999999996

>  <m_primary>  (39) 
energy

$$$$
39:0
     RDKit          3D

 22 22  0  0  0  0  0  0  0  0999 V2000
   58.5280   34.2320   46.0640 C   0  0  0  0  0  0  0  0  0  0  0  0
   57.3940   33.7150   45.5860 C   0  0  0  0  0  0  0  0  0  0  0  0
   57.4070   32.7400   44.4490 C   0  0  0  0  0  0  0  0  0  0  0  0
   56.8390   31.5030   44.8770 O   0  0  0  0  0  0  0  0  0  0  0  0
   57.5300   30.2840   45.0580 C   0  0  0  0  0  0  0  0  0  0  0  0
   58.9280   30.3090   45.2180 C   0  0  0  0  0  0  0  0  0  0  0  0
   59.8220   29.2630   45.4080 C   0  0  0  0  0  0  0  0  0  0  0  0
   59.5680   27.9050   45.4910 C   0  0  0  0  0  0  0  0  0  0  0  0
   58.3480   27.2580   45.4040 C   0  0  0  0  0  0  0  0  0  0  0  0
   57.0890   27.8100   45.2120 C   0  0  0  0  0  0  0  0  0  0  0  0
   56.7080   29.1440   45.0580 C   0  0  0  0  0  0  0  0  0  0  0  0
   55.4710   29.3400   44.8980 O   0  0  0  0  0  0  0  0  0  0  0  0
   58.4973   34.9466   46.8997 H   0  0  0  0  0  0  0  0  0  0  0  0
   59.4932   33.9434   45.6222 H   0  0  0  0  0  0  0  0  0  0  0  0
   56.4339   34.0099   46.0346 H   0  0  0  0  0  0  0  0  0  0  0  0
   56.8178   33.1441   43.6126 H   0  0  0  0  0  0  0  0  0  0  0  0
   58.4435   32.5735   44.1205 H   0  0  0  0  0  0  0  0  0  0  0  0
   59.3824   31.3103   45.1880 H   0  0  0  0  0  0  0  0  0  0  0  0
   60.8782   29.5543   45.5061 H   0  0  0  0  0  0  0  0  0  0  0  0
   60.4453   27.2596   45.6454 H   0  0  0  0  0  0  0  0  0  0  0  0
   58.3801   26.1626   45.4995 H   0  0  0  0  0  0  0  0  0  0  0  0
   56.2637   27.0837   45.1756 H   0  0  0  0  0  0  0  0  0  0  0  0
  1  2  2  0
  2  3  1  0
  3  4  1  0
  4  5  1  0
  5  6  2  0
  6  7  1  0
  7  8  2  0
  8  9  1  0
  9 10  2  0
 10 11  1  0
 11 12  2  0
 11  5  1  0
  1 13  1  0
  1 14  1  0
  2 15  1  0
  3 16  1  0
  3 17  1  0
  6 18  1  0
  7 19  1  0
  8 20  1  0
  9 21  1  0
 10 22  1  0
M  END
>  <UniqueID>  (40) 
39

>  <SMILES>  (40) 
C=CCOc1cccccc1=O

>  <Energy>  (40) 
36.711513075444984

>  <Genealogy>  (40) 
C=CCOc1cccccc1=O (3D coordinates assigned)
C=CCOc1cccccc1=O (optimized conformer: 36.711513075444984 kcal/mol)

>  <smiles>  (40) 
C=CCOc1cccccc1=O

>  <score_type>  (40) 
oracle

>  <origin>  (40) 
adg

>  <m_score__min__energy>  (40) 
-5.4699999999999998

>  <m_primary>  (40) 
energy

$$$$
40:0
     RDKit          3D

 50 52  0  0  0  0  0  0  0  0999 V2000
   56.9100   24.1520   47.9230 C   0  0  0  0  0  0  0  0  0  0  0  0
   56.2420   25.1390   47.1440 O   0  0  0  0  0  0  0  0  0  0  0  0
   56.8070   25.8090   46.0470 C   0  0  0  0  0  0  0  0  0  0  0  0
   56.9800   27.2080   46.0370 C   0  0  0  0  0  0  0  0  0  0  0  0
   57.5860   27.8470   44.9410 C   0  0  0  0  0  0  0  0  0  0  0  0
   57.7530   29.2730   44.9030 N   0  0  0  0  0  0  0  0  0  0  0  0
   56.6620   30.2110   44.8730 C   0  0  0  0  0  0  0  0  0  0  0  0
   55.4700   29.8050   44.8210 O   0  0  0  0  0  0  0  0  0  0  0  0
   56.9070   31.6220   44.8680 N   0  0  0  0  0  0  0  0  0  0  0  0
   58.0080   32.2850   45.5040 C   0  0  0  0  0  0  0  0  0  0  0  0
   58.4920   33.5170   45.0380 C   0  0  0  0  0  0  0  0  0  0  0  0
   59.5900   34.1230   45.6570 C   0  0  0  0  0  0  0  0  0  0  0  0
   60.2330   33.4990   46.7410 C   0  0  0  0  0  0  0  0  0  0  0  0
   61.3630   34.1190   47.3820 N   0  0  0  0  0  0  0  0  0  0  0  0
   62.4680   34.1810   46.8040 O   0  0  0  0  0  0  0  0  0  0  0  0
   61.2450   34.6570   48.6430 O   0  0  0  0  0  0  0  0  0  0  0  0
   59.7610   32.2510   47.1830 C   0  0  0  0  0  0  0  0  0  0  0  0
   58.6640   31.6470   46.5620 C   0  0  0  0  0  0  0  0  0  0  0  0
   57.9810   27.0830   43.8370 C   0  0  0  0  0  0  0  0  0  0  0  0
   57.8120   25.6980   43.8360 C   0  0  0  0  0  0  0  0  0  0  0  0
   57.2230   25.0540   44.9350 C   0  0  0  0  0  0  0  0  0  0  0  0
   57.0560   23.6270   44.9210 N   0  0  0  0  0  0  0  0  0  0  0  0
   55.7110   23.0480   44.9650 C   0  0  0  0  0  0  0  0  0  0  0  0
   55.7510   21.5530   44.6060 C   0  0  0  0  0  0  0  0  0  0  0  0
   56.7160   21.2760   43.5230 N   0  0  0  0  0  0  0  0  0  0  0  0
   56.2880   21.8600   42.2400 C   0  0  0  0  0  0  0  0  0  0  0  0
   58.1120   21.6560   43.8650 C   0  0  0  0  0  0  0  0  0  0  0  0
   58.2190   22.7370   44.9590 C   0  0  0  0  0  0  0  0  0  0  0  0
   56.7640   24.3677   48.9917 H   0  0  0  0  0  0  0  0  0  0  0  0
   56.4972   23.1595   47.6896 H   0  0  0  0  0  0  0  0  0  0  0  0
   57.9849   24.1663   47.6896 H   0  0  0  0  0  0  0  0  0  0  0  0
   56.6376   27.8054   46.8948 H   0  0  0  0  0  0  0  0  0  0  0  0
   58.7270   29.6420   44.9730 H   0  0  0  0  0  0  0  0  0  0  0  0
   58.0057   34.0082   44.1822 H   0  0  0  0  0  0  0  0  0  0  0  0
   59.9535   35.0953   45.2931 H   0  0  0  0  0  0  0  0  0  0  0  0
   60.2586   31.7458   48.0239 H   0  0  0  0  0  0  0  0  0  0  0  0
   58.3141   30.6631   46.9077 H   0  0  0  0  0  0  0  0  0  0  0  0
   58.4284   27.5785   42.9628 H   0  0  0  0  0  0  0  0  0  0  0  0
   58.1424   25.1075   42.9687 H   0  0  0  0  0  0  0  0  0  0  0  0
   55.3004   23.1651   45.9787 H   0  0  0  0  0  0  0  0  0  0  0  0
   55.0768   23.5706   44.2338 H   0  0  0  0  0  0  0  0  0  0  0  0
   56.0428   20.9799   45.4984 H   0  0  0  0  0  0  0  0  0  0  0  0
   54.7505   21.2577   44.2570 H   0  0  0  0  0  0  0  0  0  0  0  0
   55.6476   22.7338   42.4304 H   0  0  0  0  0  0  0  0  0  0  0  0
   57.1728   22.1720   41.6658 H   0  0  0  0  0  0  0  0  0  0  0  0
   55.7240   21.1102   41.6658 H   0  0  0  0  0  0  0  0  0  0  0  0
   58.6391   20.7563   44.2153 H   0  0  0  0  0  0  0  0  0  0  0  0
   58.5578   22.0812   42.9537 H   0  0  0  0  0  0  0  0  0  0  0  0
   58.2696   22.2503   45.9442 H   0  0  0  0  0  0  0  0  0  0  0  0
   59.1267   23.3324   44.7812 H   0  0  0  0  0  0  0  0  0  0  0  0
  1  2  1  0
  2  3  1  0
  3  4  2  0
  4  5  1  0
  5  6  1  0
  6  7  1  0
  7  8  2  0
  7  9  1  0
  9 10  1  0
 10 11  2  0
 11 12  1  0
 12 13  2  0
 13 14  1  0
 14 15  2  0
 14 16  1  0
 13 17  1  0
 17 18  2  0
  5 19  2  0
 19 20  1  0
 20 21  2  0
 21 22  1  0
 22 23  1  0
 23 24  1  0
 24 25  1  0
 25 26  1  0
 25 27  1  0
 27 28  1  0
 21  3  1  0
 28 22  1  0
 18 10  1  0
  1 29  1  0
  1 30  1  0
  1 31  1  0
  4 32  1  0
  6 33  1  0
 11 34  1  0
 12 35  1  0
 17 36  1  0
 18 37  1  0
 19 38  1  0
 20 39  1  0
 23 40  1  0
 23 41  1  0
 24 42  1  0
 24 43  1  0
 26 44  1  0
 26 45  1  0
 26 46  1  0
 27 47  1  0
 27 48  1  0
 28 49  1  0
 28 50  1  0
M  CHG  3   9  -1  14   1  16  -1
M  END
>  <UniqueID>  (41) 
40

>  <SMILES>  (41) 
COc1cc(NC(=O)[N-]c2ccc([N+](=O)[O-])cc2)ccc1N1CCN(C)CC1

>  <Energy>  (41) 
71.76981499633875

>  <Genealogy>  (41) 
COc1cc(NC(=O)[N-]c2ccc([N+](=O)[O-])cc2)ccc1N1CCN(C)CC1 (protonated)
COc1cc(NC(=O)[N-]c2ccc([N+](=O)[O-])cc2)ccc1N1CCN(C)CC1 (3D coordinates assigned)
COc1cc(NC(=O)[N-]c2ccc([N+](=O)[O-])cc2)ccc1N1CCN(C)CC1 (nonaromatic ring conformer: 71.76981499633875 kcal/mol)

>  <smiles>  (41) 
COc1cc(NC(=O)Nc2ccc([N+](=O)[O-])cc2)ccc1N1CCN(C)CC1

>  <score_type>  (41) 
oracle

>  <origin>  (41) 
adg

>  <m_score__min__energy>  (41) 
-9.1699999999999999

>  <m_primary>  (41) 
energy

$$$$
41:0
     RDKit          3D

 40 42  0  0  0  0  0  0  0  0999 V2000
   56.8569   20.6787   46.6299 H   0  0  0  0  0  0  0  0  0  0  0  0
   57.0000   21.7570   46.4660 C   0  0  0  0  0  0  0  0  0  0  0  0
   56.5230   22.6750   47.4040 C   0  0  0  0  0  0  0  0  0  0  0  0
   55.9992   22.3190   48.3034 H   0  0  0  0  0  0  0  0  0  0  0  0
   56.7100   24.0460   47.2020 C   0  0  0  0  0  0  0  0  0  0  0  0
   56.3268   24.7651   47.9410 H   0  0  0  0  0  0  0  0  0  0  0  0
   57.3860   24.5110   46.0580 C   0  0  0  0  0  0  0  0  0  0  0  0
   57.5730   25.9200   45.8240 N   0  0  0  0  0  0  0  0  0  0  0  0
   58.7660   26.4890   45.6960 N   0  0  0  0  0  0  0  0  0  0  0  0
   58.5800   27.8140   45.5080 C   0  0  0  0  0  0  0  0  0  0  0  0
   59.6910   28.8120   45.4890 C   0  0  0  0  0  0  0  0  0  0  0  0
   59.9736   29.0658   46.5213 H   0  0  0  0  0  0  0  0  0  0  0  0
   60.5590   28.3844   44.9658 H   0  0  0  0  0  0  0  0  0  0  0  0
   59.3587   29.7208   44.9658 H   0  0  0  0  0  0  0  0  0  0  0  0
   57.2260   28.0920   45.5050 C   0  0  0  0  0  0  0  0  0  0  0  0
   56.6190   29.3820   45.6240 N   0  0  0  0  0  0  0  0  0  0  0  0
   56.5250   30.2340   44.6750 N   0  0  0  0  0  0  0  0  0  0  0  0
   57.6230   31.0040   44.0710 C   0  0  2  0  0  0  0  0  0  0  0  0
   58.5333   30.3868   44.0505 H   0  0  0  0  0  0  0  0  0  0  0  0
   58.0150   32.1960   44.9310 C   0  0  0  0  0  0  0  0  0  0  0  0
   58.2200   33.4380   44.3020 C   0  0  0  0  0  0  0  0  0  0  0  0
   58.0875   33.5249   43.2135 H   0  0  0  0  0  0  0  0  0  0  0  0
   58.5900   34.5620   45.0450 C   0  0  0  0  0  0  0  0  0  0  0  0
   58.7475   35.5265   44.5401 H   0  0  0  0  0  0  0  0  0  0  0  0
   58.7600   34.4630   46.4260 C   0  0  0  0  0  0  0  0  0  0  0  0
   59.0558   35.3482   47.0082 H   0  0  0  0  0  0  0  0  0  0  0  0
   58.5550   33.2410   47.0700 C   0  0  0  0  0  0  0  0  0  0  0  0
   58.6871   33.1654   48.1594 H   0  0  0  0  0  0  0  0  0  0  0  0
   58.1820   32.1130   46.3320 C   0  0  0  0  0  0  0  0  0  0  0  0
   58.0174   31.1543   46.8457 H   0  0  0  0  0  0  0  0  0  0  0  0
   57.3290   31.3130   42.5960 C   0  0  0  0  0  0  0  0  0  0  0  0
   56.5721   32.1086   42.5319 H   0  0  0  0  0  0  0  0  0  0  0  0
   58.2528   31.6450   42.0997 H   0  0  0  0  0  0  0  0  0  0  0  0
   56.9515   30.4068   42.0997 H   0  0  0  0  0  0  0  0  0  0  0  0
   56.6270   26.8830   45.7620 C   0  0  0  0  0  0  0  0  0  0  0  0
   55.4010   26.7070   45.9930 O   0  0  0  0  0  0  0  0  0  0  0  0
   57.8470   23.5770   45.1130 C   0  0  0  0  0  0  0  0  0  0  0  0
   58.3595   23.9263   44.2045 H   0  0  0  0  0  0  0  0  0  0  0  0
   57.6580   22.2070   45.3210 C   0  0  0  0  0  0  0  0  0  0  0  0
   58.0288   21.4830   44.5805 H   0  0  0  0  0  0  0  0  0  0  0  0
  1  2  1  0
  2  3  2  0
  3  4  1  0
  3  5  1  0
  5  6  1  0
  5  7  2  0
  7  8  1  0
  8  9  1  0
  9 10  1  0
 10 11  1  0
 11 12  1  0
 11 13  1  0
 11 14  1  0
 10 15  2  0
 15 16  1  0
 16 17  2  0
 17 18  1  0
 18 19  1  6
 18 20  1  0
 20 21  2  0
 21 22  1  0
 21 23  1  0
 23 24  1  0
 23 25  2  0
 25 26  1  0
 25 27  1  0
 27 28  1  0
 27 29  2  0
 29 30  1  0
 18 31  1  0
 31 32  1  0
 31 33  1  0
 31 34  1  0
 15 35  1  0
 35 36  2  0
  7 37  1  0
 37 38  1  0
 37 39  2  0
 39 40  1  0
 39  2  1  0
 35  8  1  0
 29 20  1  0
M  CHG  1   9  -1
M  END
>  <UniqueID>  (42) 
41

>  <SMILES>  (42) 
Cc1[n-]n(-c2ccccc2)c(=O)c1/N=N\[C@@H](C)c1ccccc1

>  <Energy>  (42) 
89.46112304905061

>  <Genealogy>  (42) 
Cc1[n-]n(-c2ccccc2)c(=O)c1N=NC(C)c1ccccc1 (protonated)
Cc1[n-]n(-c2ccccc2)c(=O)c1N=N[C@@H](C)c1ccccc1 (chirality)
Cc1[n-]n(-c2ccccc2)c(=O)c1/N=N\[C@@H](C)c1ccccc1 (cis-trans isomerization)
Cc1[n-]n(-c2ccccc2)c(=O)c1/N=N\[C@@H](C)c1ccccc1 (3D coordinates assigned)
Cc1[n-]n(-c2ccccc2)c(=O)c1/N=N\[C@@H](C)c1ccccc1 (optimized conformer: 89.46112304905061 kcal/mol)

>  <smiles>  (42) 
Cc1[nH]n(-c2ccccc2)c(=O)c1N=NC(C)c1ccccc1

>  <score_type>  (42) 
oracle

>  <origin>  (42) 
adg

>  <m_score__min__energy>  (42) 
-9.0899999999999999

>  <m_primary>  (42) 
energy

$$$$
42:0
     RDKit          3D

 52 55  0  0  0  0  0  0  0  0999 V2000
   60.1070   27.1880   46.8000 C   0  0  0  0  0  0  0  0  0  0  0  0
   59.0390   27.8900   47.5560 C   0  0  0  0  0  0  0  0  0  0  0  0
   58.6910   29.2210   46.9910 C   0  0  0  0  0  0  0  0  0  0  0  0
   59.2130   30.4740   47.3610 C   0  0  0  0  0  0  0  0  0  0  0  0
   60.2250   30.5620   48.4340 C   0  0  0  0  0  0  0  0  0  0  0  0
   61.1120   31.6630   48.1530 N   0  0  0  0  0  0  0  0  0  0  0  0
   61.7490   32.2340   49.3120 C   0  0  0  0  0  0  0  0  0  0  0  0
   62.4160   33.5070   48.8720 C   0  0  0  0  0  0  0  0  0  0  0  0
   63.1290   33.3920   47.6940 O   0  0  0  0  0  0  0  0  0  0  0  0
   63.3910   32.0790   47.3840 C   0  0  0  0  0  0  0  0  0  0  0  0
   62.0910   31.3090   47.1870 C   0  0  0  0  0  0  0  0  0  0  0  0
   58.6780   31.4410   46.6390 N   0  0  0  0  0  0  0  0  0  0  0  0
   58.8710   32.8640   46.5780 C   0  0  0  0  0  0  0  0  0  0  0  0
   59.8510   33.4390   45.6720 C   0  0  0  0  0  0  0  0  0  0  0  0
   59.6480   34.9830   45.7680 C   0  0  0  0  0  0  0  0  0  0  0  0
   58.5670   35.3150   44.9760 O   0  0  0  0  0  0  0  0  0  0  0  0
   57.6330   34.3130   44.9320 C   0  0  0  0  0  0  0  0  0  0  0  0
   57.5300   33.5610   46.2490 C   0  0  0  0  0  0  0  0  0  0  0  0
   57.7810   30.8510   45.7700 C   0  0  0  0  0  0  0  0  0  0  0  0
   56.9590   31.3190   44.8280 N   0  0  0  0  0  0  0  0  0  0  0  0
   56.1540   30.5360   44.0940 C   0  0  0  0  0  0  0  0  0  0  0  0
   56.1370   29.1940   44.2790 N   0  0  0  0  0  0  0  0  0  0  0  0
   56.9640   28.7190   45.2270 C   0  0  0  0  0  0  0  0  0  0  0  0
   56.9580   27.4460   45.4150 N   0  0  0  0  0  0  0  0  0  0  0  0
   57.7950   29.4980   45.9900 C   0  0  0  0  0  0  0  0  0  0  0  0
   60.8119   26.7246   47.5059 H   0  0  0  0  0  0  0  0  0  0  0  0
   59.6568   26.4091   46.1670 H   0  0  0  0  0  0  0  0  0  0  0  0
   60.6434   27.9102   46.1670 H   0  0  0  0  0  0  0  0  0  0  0  0
   58.1363   27.2615   47.5487 H   0  0  0  0  0  0  0  0  0  0  0  0
   59.4202   28.0595   48.5738 H   0  0  0  0  0  0  0  0  0  0  0  0
   59.7252   30.7282   49.3997 H   0  0  0  0  0  0  0  0  0  0  0  0
   60.7991   29.6249   48.4814 H   0  0  0  0  0  0  0  0  0  0  0  0
   60.9982   32.4503   50.0863 H   0  0  0  0  0  0  0  0  0  0  0  0
   62.4845   31.5350   49.7369 H   0  0  0  0  0  0  0  0  0  0  0  0
   61.6395   34.2735   48.7325 H   0  0  0  0  0  0  0  0  0  0  0  0
   63.1398   33.7735   49.6563 H   0  0  0  0  0  0  0  0  0  0  0  0
   63.9812   32.0365   46.4567 H   0  0  0  0  0  0  0  0  0  0  0  0
   63.9534   31.6228   48.2120 H   0  0  0  0  0  0  0  0  0  0  0  0
   61.6963   31.5290   46.1841 H   0  0  0  0  0  0  0  0  0  0  0  0
   62.3099   30.2371   47.3018 H   0  0  0  0  0  0  0  0  0  0  0  0
   59.2842   33.0457   47.5811 H   0  0  0  0  0  0  0  0  0  0  0  0
   60.8699   33.1647   45.9827 H   0  0  0  0  0  0  0  0  0  0  0  0
   59.7214   33.0725   44.6430 H   0  0  0  0  0  0  0  0  0  0  0  0
   59.4503   35.2706   46.8112 H   0  0  0  0  0  0  0  0  0  0  0  0
   60.5508   35.5118   45.4284 H   0  0  0  0  0  0  0  0  0  0  0  0
   56.6525   34.7536   44.6988 H   0  0  0  0  0  0  0  0  0  0  0  0
   57.9457   33.5957   44.1589 H   0  0  0  0  0  0  0  0  0  0  0  0
   57.2832   34.2701   47.0529 H   0  0  0  0  0  0  0  0  0  0  0  0
   56.7426   32.7977   46.1635 H   0  0  0  0  0  0  0  0  0  0  0  0
   55.5006   30.9886   43.3336 H   0  0  0  0  0  0  0  0  0  0  0  0
   55.5170   28.5950   43.7130 H   0  0  0  0  0  0  0  0  0  0  0  0
   56.6340   26.8360   44.6370 H   0  0  0  0  0  0  0  0  0  0  0  0
  1  2  1  0
  2  3  1  0
  3  4  2  0
  4  5  1  0
  5  6  1  0
  6  7  1  0
  7  8  1  0
  8  9  1  0
  9 10  1  0
 10 11  1  0
  4 12  1  0
 12 13  1  0
 13 14  1  0
 14 15  1  0
 15 16  1  0
 16 17  1  0
 17 18  1  0
 12 19  1  0
 19 20  1  0
 20 21  2  0
 21 22  1  0
 22 23  1  0
 23 24  2  3
 23 25  1  0
 25  3  1  0
 11  6  1  0
 18 13  1  0
 25 19  2  0
  1 26  1  0
  1 27  1  0
  1 28  1  0
  2 29  1  0
  2 30  1  0
  5 31  1  0
  5 32  1  0
  7 33  1  0
  7 34  1  0
  8 35  1  0
  8 36  1  0
 10 37  1  0
 10 38  1  0
 11 39  1  0
 11 40  1  0
 13 41  1  0
 14 42  1  0
 14 43  1  0
 15 44  1  0
 15 45  1  0
 17 46  1  0
 17 47  1  0
 18 48  1  0
 18 49  1  0
 21 50  1  0
 22 51  1  0
 24 52  1  0
M  END
>  <smiles>  (43) 
CCc1c(CN2CCOCC2)n(C2CCOCC2)c2nc[nH]c(=N)c12

>  <score_type>  (43) 
oracle

>  <origin>  (43) 
adg

>  <m_score__min__energy>  (43) 
-7.96

>  <m_primary>  (43) 
energy

$$$$
43:0
     RDKit          3D

 30 31  0  0  0  0  0  0  0  0999 V2000
   57.7830   25.6850   44.4540 C   0  0  0  0  0  0  0  0  0  0  0  0
   58.1610   27.1370   44.4650 C   0  0  0  0  0  0  0  0  0  0  0  0
   59.2100   27.5850   45.2760 C   0  0  0  0  0  0  0  0  0  0  0  0
   59.5110   28.9460   45.2840 C   0  0  0  0  0  0  0  0  0  0  0  0
   58.7890   29.8050   44.5220 N   0  0  0  0  0  0  0  0  0  0  0  0
   57.7640   29.3600   43.7480 C   0  0  0  0  0  0  0  0  0  0  0  0
   56.8350   30.5250   42.7500 S   0  0  0  0  0  0  0  0  0  0  0  0
   57.7770   31.9900   43.3070 C   0  0  0  0  0  0  0  0  0  0  0  0
   57.3690   32.4120   44.6940 C   0  0  0  0  0  0  0  0  0  0  0  0
   56.2780   31.9700   45.1480 O   0  0  0  0  0  0  0  0  0  0  0  0
   58.2120   33.2950   45.5450 C   0  0  0  0  0  0  0  0  0  0  0  0
   58.8630   34.4280   45.0170 C   0  0  0  0  0  0  0  0  0  0  0  0
   59.6560   35.2370   45.8360 C   0  0  0  0  0  0  0  0  0  0  0  0
   59.8110   34.9300   47.1880 C   0  0  0  0  0  0  0  0  0  0  0  0
   59.1710   33.8130   47.7260 C   0  0  0  0  0  0  0  0  0  0  0  0
   58.3770   32.9990   46.9130 C   0  0  0  0  0  0  0  0  0  0  0  0
   57.4450   28.0370   43.7320 N   0  0  0  0  0  0  0  0  0  0  0  0
   57.6887   25.3228   45.4884 H   0  0  0  0  0  0  0  0  0  0  0  0
   56.8224   25.5601   43.9328 H   0  0  0  0  0  0  0  0  0  0  0  0
   58.5608   25.1076   43.9328 H   0  0  0  0  0  0  0  0  0  0  0  0
   59.7843   26.8786   45.8935 H   0  0  0  0  0  0  0  0  0  0  0  0
   60.3342   29.3235   45.9084 H   0  0  0  0  0  0  0  0  0  0  0  0
   58.8497   31.7463   43.3082 H   0  0  0  0  0  0  0  0  0  0  0  0
   57.5656   32.8200   42.6168 H   0  0  0  0  0  0  0  0  0  0  0  0
   58.7462   34.6777   43.9521 H   0  0  0  0  0  0  0  0  0  0  0  0
   60.1595   36.1187   45.4129 H   0  0  0  0  0  0  0  0  0  0  0  0
   60.4371   35.5679   47.8292 H   0  0  0  0  0  0  0  0  0  0  0  0
   59.2915   33.5723   48.7926 H   0  0  0  0  0  0  0  0  0  0  0  0
   57.8766   32.1197   47.3447 H   0  0  0  0  0  0  0  0  0  0  0  0
   56.6470   27.7110   43.1420 H   0  0  0  0  0  0  0  0  0  0  0  0
  1  2  1  0
  2  3  2  0
  3  4  1  0
  4  5  2  0
  5  6  1  0
  6  7  1  0
  7  8  1  0
  8  9  1  0
  9 10  2  0
  9 11  1  0
 11 12  2  0
 12 13  1  0
 13 14  2  0
 14 15  1  0
 15 16  2  0
  6 17  2  0
 17  2  1  0
 16 11  1  0
  1 18  1  0
  1 19  1  0
  1 20  1  0
  3 21  1  0
  4 22  1  0
  8 23  1  0
  8 24  1  0
 12 25  1  0
 13 26  1  0
 14 27  1  0
 15 28  1  0
 16 29  1  0
 17 30  1  0
M  CHG  1  17   1
M  END
>  <UniqueID>  (44) 
42

>  <SMILES>  (44) 
Cc1ccnc(SCC(=O)c2ccccc2)[nH+]1

>  <Energy>  (44) 
26.79071850311683

>  <Genealogy>  (44) 
Cc1ccnc(SCC(=O)c2ccccc2)[nH+]1 (protonated)
Cc1ccnc(SCC(=O)c2ccccc2)[nH+]1 (3D coordinates assigned)
Cc1ccnc(SCC(=O)c2ccccc2)[nH+]1 (optimized conformer: 26.79071850311683 kcal/mol)

>  <smiles>  (44) 
Cc1ccnc(SCC(=O)c2ccccc2)n1

>  <score_type>  (44) 
oracle

>  <origin>  (44) 
adg

>  <m_score__min__energy>  (44) 
-5.7800000000000002

>  <m_primary>  (44) 
energy

$$$$
44:0
     RDKit          3D

 27 29  0  0  0  0  0  0  0  0999 V2000
   55.1720   29.2610   44.5020 O   0  0  0  0  0  0  0  0  0  0  0  0
   56.4090   30.0550   44.1850 S   0  0  0  0  0  0  0  0  0  0  0  0
   56.5920   30.1650   42.6980 O   0  0  0  0  0  0  0  0  0  0  0  0
   56.2700   31.6420   44.8710 N   0  0  0  0  0  0  0  0  0  0  0  0
   57.3320   32.5670   45.1540 C   0  0  0  0  0  0  0  0  0  0  0  0
   57.4900   32.9870   46.4830 C   0  0  0  0  0  0  0  0  0  0  0  0
   58.5020   33.8840   46.8320 C   0  0  0  0  0  0  0  0  0  0  0  0
   59.3700   34.3740   45.8540 C   0  0  0  0  0  0  0  0  0  0  0  0
   59.2250   33.9650   44.5270 C   0  0  0  0  0  0  0  0  0  0  0  0
   58.2140   33.0660   44.1680 C   0  0  0  0  0  0  0  0  0  0  0  0
   58.1170   32.7020   42.8680 F   0  0  0  0  0  0  0  0  0  0  0  0
   57.8070   29.2240   44.8700 C   0  0  0  0  0  0  0  0  0  0  0  0
   59.0900   29.7920   44.7840 C   0  0  0  0  0  0  0  0  0  0  0  0
   60.2050   29.1330   45.3280 C   0  0  0  0  0  0  0  0  0  0  0  0
   60.0620   27.8960   45.9660 C   0  0  0  0  0  0  0  0  0  0  0  0
   58.7950   27.3210   46.0590 C   0  0  0  0  0  0  0  0  0  0  0  0
   58.5760   26.1250   46.6620 N   0  0  0  0  0  0  0  0  0  0  0  0
   56.9410   25.9900   46.4560 S   0  0  0  0  0  0  0  0  0  0  0  0
   56.4670   27.3500   45.6450 N   0  0  0  0  0  0  0  0  0  0  0  0
   57.6610   27.9830   45.5100 C   0  0  0  0  0  0  0  0  0  0  0  0
   56.8095   32.6058   47.2586 H   0  0  0  0  0  0  0  0  0  0  0  0
   58.6154   34.2047   47.8781 H   0  0  0  0  0  0  0  0  0  0  0  0
   60.1666   35.0810   46.1287 H   0  0  0  0  0  0  0  0  0  0  0  0
   59.9100   34.3520   43.7583 H   0  0  0  0  0  0  0  0  0  0  0  0
   59.2224   30.7634   44.2851 H   0  0  0  0  0  0  0  0  0  0  0  0
   61.2007   29.5942   45.2516 H   0  0  0  0  0  0  0  0  0  0  0  0
   60.9384   27.3833   46.3891 H   0  0  0  0  0  0  0  0  0  0  0  0
  1  2  2  0
  2  3  2  0
  2  4  1  0
  4  5  1  0
  5  6  2  0
  6  7  1  0
  7  8  2  0
  8  9  1  0
  9 10  2  0
 10 11  1  0
  2 12  1  0
 12 13  2  0
 13 14  1  0
 14 15  2  0
 15 16  1  0
 16 17  2  0
 17 18  1  0
 18 19  1  0
 19 20  2  0
 10  5  1  0
 20 12  1  0
 20 16  1  0
  6 21  1  0
  7 22  1  0
  8 23  1  0
  9 24  1  0
 13 25  1  0
 14 26  1  0
 15 27  1  0
M  CHG  1   4  -1
M  END
>  <UniqueID>  (45) 
43

>  <SMILES>  (45) 
O=S(=O)([N-]c1ccccc1F)c1cccc2nsnc12

>  <Energy>  (45) 
74.79018102671304

>  <Genealogy>  (45) 
O=S(=O)([N-]c1ccccc1F)c1cccc2nsnc12 (protonated)
O=S(=O)([N-]c1ccccc1F)c1cccc2nsnc12 (3D coordinates assigned)
O=S(=O)([N-]c1ccccc1F)c1cccc2nsnc12 (optimized conformer: 74.79018102671304 kcal/mol)

>  <smiles>  (45) 
O=S(=O)(Nc1ccccc1F)c1cccc2nsnc12

>  <score_type>  (45) 
oracle

>  <origin>  (45) 
adg

>  <m_score__min__energy>  (45) 
-9.2699999999999996

>  <m_primary>  (45) 
energy

$$$$
45:0
     RDKit          3D

 49 52  0  0  0  0  0  0  0  0999 V2000
   55.6140   29.7270   43.3700 C   0  0  0  0  0  0  0  0  0  0  0  0
   55.5500   28.9980   44.5910 O   0  0  0  0  0  0  0  0  0  0  0  0
   56.6680   28.6560   45.3690 C   0  0  0  0  0  0  0  0  0  0  0  0
   56.9160   27.2990   45.6120 C   0  0  0  0  0  0  0  0  0  0  0  0
   58.0050   26.9030   46.3940 C   0  0  0  0  0  0  0  0  0  0  0  0
   58.8570   27.8630   46.9460 C   0  0  0  0  0  0  0  0  0  0  0  0
   59.8990   27.4810   47.7300 N   0  0  0  0  0  0  0  0  0  0  0  0
   60.7310   28.3880   48.3090 C   0  0  0  0  0  0  0  0  0  0  0  0
   60.5280   29.7610   48.1100 C   0  0  0  0  0  0  0  0  0  0  0  0
   61.3910   30.7660   48.8220 C   0  0  0  0  0  0  0  0  0  0  0  0
   60.6600   32.0240   49.0090 N   0  0  0  0  0  0  0  0  0  0  0  0
   59.7310   32.1710   50.0950 C   0  0  0  0  0  0  0  0  0  0  0  0
   58.7100   31.2270   50.2910 C   0  0  0  0  0  0  0  0  0  0  0  0
   57.8120   31.3690   51.3530 C   0  0  0  0  0  0  0  0  0  0  0  0
   57.9260   32.4540   52.2260 C   0  0  0  0  0  0  0  0  0  0  0  0
   57.0540   32.5910   53.2550 F   0  0  0  0  0  0  0  0  0  0  0  0
   58.9380   33.3990   52.0380 C   0  0  0  0  0  0  0  0  0  0  0  0
   59.8390   33.2590   50.9770 C   0  0  0  0  0  0  0  0  0  0  0  0
   60.9920   33.3760   47.9600 S   0  0  0  0  0  0  0  0  0  0  0  0
   62.2100   33.0610   47.1380 O   0  0  0  0  0  0  0  0  0  0  0  0
   61.2760   34.6080   48.7730 O   0  0  0  0  0  0  0  0  0  0  0  0
   59.6130   33.7040   46.9080 C   0  0  0  0  0  0  0  0  0  0  0  0
   58.3370   33.2470   47.2640 C   0  0  0  0  0  0  0  0  0  0  0  0
   57.2480   33.4660   46.4160 C   0  0  0  0  0  0  0  0  0  0  0  0
   57.4270   34.1480   45.2090 C   0  0  0  0  0  0  0  0  0  0  0  0
   58.6950   34.6130   44.8510 C   0  0  0  0  0  0  0  0  0  0  0  0
   59.7870   34.3930   45.6980 C   0  0  0  0  0  0  0  0  0  0  0  0
   59.4780   30.1790   47.2800 C   0  0  0  0  0  0  0  0  0  0  0  0
   58.6250   29.2320   46.7010 C   0  0  0  0  0  0  0  0  0  0  0  0
   57.5340   29.6260   45.9120 C   0  0  0  0  0  0  0  0  0  0  0  0
   55.7083   30.8009   43.5887 H   0  0  0  0  0  0  0  0  0  0  0  0
   56.4863   29.3932   42.7889 H   0  0  0  0  0  0  0  0  0  0  0  0
   54.6969   29.5502   42.7889 H   0  0  0  0  0  0  0  0  0  0  0  0
   56.2475   26.5377   45.1835 H   0  0  0  0  0  0  0  0  0  0  0  0
   58.1914   25.8341   46.5750 H   0  0  0  0  0  0  0  0  0  0  0  0
   61.5665   28.0430   48.9359 H   0  0  0  0  0  0  0  0  0  0  0  0
   61.6798   30.3647   49.8046 H   0  0  0  0  0  0  0  0  0  0  0  0
   62.2879   30.9604   48.2156 H   0  0  0  0  0  0  0  0  0  0  0  0
   58.6164   30.3717   49.6056 H   0  0  0  0  0  0  0  0  0  0  0  0
   57.0148   30.6257   51.5015 H   0  0  0  0  0  0  0  0  0  0  0  0
   59.0263   34.2537   52.7248 H   0  0  0  0  0  0  0  0  0  0  0  0
   60.6354   34.0040   50.8328 H   0  0  0  0  0  0  0  0  0  0  0  0
   58.1919   32.7136   48.2150 H   0  0  0  0  0  0  0  0  0  0  0  0
   56.2493   33.1015   46.6985 H   0  0  0  0  0  0  0  0  0  0  0  0
   56.5697   34.3186   44.5412 H   0  0  0  0  0  0  0  0  0  0  0  0
   58.8350   35.1524   43.9026 H   0  0  0  0  0  0  0  0  0  0  0  0
   60.7841   34.7610   45.4146 H   0  0  0  0  0  0  0  0  0  0  0  0
   59.3246   31.2505   47.0839 H   0  0  0  0  0  0  0  0  0  0  0  0
   57.3543   30.6936   45.7169 H   0  0  0  0  0  0  0  0  0  0  0  0
  1  2  1  0
  2  3  1  0
  3  4  2  0
  4  5  1  0
  5  6  2  0
  6  7  1  0
  7  8  2  0
  8  9  1  0
  9 10  1  0
 10 11  1  0
 11 12  1  0
 12 13  2  0
 13 14  1  0
 14 15  2  0
 15 16  1  0
 15 17  1  0
 17 18  2  0
 11 19  1  0
 19 20  2  0
 19 21  2  0
 19 22  1  0
 22 23  2  0
 23 24  1  0
 24 25  2  0
 25 26  1  0
 26 27  2  0
  9 28  2  0
 28 29  1  0
 29 30  2  0
 30  3  1  0
 29  6  1  0
 18 12  1  0
 27 22  1  0
  1 31  1  0
  1 32  1  0
  1 33  1  0
  4 34  1  0
  5 35  1  0
  8 36  1  0
 10 37  1  0
 10 38  1  0
 13 39  1  0
 14 40  1  0
 17 41  1  0
 18 42  1  0
 23 43  1  0
 24 44  1  0
 25 45  1  0
 26 46  1  0
 27 47  1  0
 28 48  1  0
 30 49  1  0
M  END
>  <UniqueID>  (46) 
44

>  <SMILES>  (46) 
COc1ccc2ncc(CN(c3ccc(F)cc3)S(=O)(=O)c3ccccc3)cc2c1

>  <Energy>  (46) 
56.73972309621939

>  <Genealogy>  (46) 
COc1ccc2ncc(CN(c3ccc(F)cc3)S(=O)(=O)c3ccccc3)cc2c1 (3D coordinates assigned)
COc1ccc2ncc(CN(c3ccc(F)cc3)S(=O)(=O)c3ccccc3)cc2c1 (optimized conformer: 56.73972309621939 kcal/mol)

>  <smiles>  (46) 
COc1ccc2ncc(CN(c3ccc(F)cc3)S(=O)(=O)c3ccccc3)cc2c1

>  <score_type>  (46) 
oracle

>  <origin>  (46) 
adg

>  <m_score__min__energy>  (46) 
-9.8900000000000006

>  <m_primary>  (46) 
energy

$$$$
46:0
     RDKit          3D

 39 41  0  0  0  0  0  0  0  0999 V2000
   55.4340   29.7380   43.6770 C   0  0  0  0  0  0  0  0  0  0  0  0
   55.5180   28.9760   44.8770 O   0  0  0  0  0  0  0  0  0  0  0  0
   56.7030   28.4220   45.3900 C   0  0  0  0  0  0  0  0  0  0  0  0
   57.9230   29.1170   45.3500 C   0  0  0  0  0  0  0  0  0  0  0  0
   59.0890   28.5510   45.8800 C   0  0  0  0  0  0  0  0  0  0  0  0
   60.3800   29.2790   45.8300 C   0  0  0  0  0  0  0  0  0  0  0  0
   61.3330   28.7810   45.1700 O   0  0  0  0  0  0  0  0  0  0  0  0
   60.5880   30.5720   46.5260 C   0  0  0  0  0  0  0  0  0  0  0  0
   59.5260   31.5070   46.6610 C   0  0  0  0  0  0  0  0  0  0  0  0
   59.7210   32.7270   47.3330 C   0  0  0  0  0  0  0  0  0  0  0  0
   60.9800   32.9810   47.8680 C   0  0  0  0  0  0  0  0  0  0  0  0
   61.3730   34.0430   48.5260 O   0  0  0  0  0  0  0  0  0  0  0  0
   62.6410   33.8640   48.8520 C   0  0  0  0  0  0  0  0  0  0  0  0
   63.0920   32.6340   48.3880 C   0  0  0  0  0  0  0  0  0  0  0  0
   62.0030   32.0820   47.7560 C   0  0  0  0  0  0  0  0  0  0  0  0
   61.8480   30.8640   47.0980 C   0  0  0  0  0  0  0  0  0  0  0  0
   59.0330   27.2610   46.4250 C   0  0  0  0  0  0  0  0  0  0  0  0
   57.8220   26.5420   46.4730 C   0  0  0  0  0  0  0  0  0  0  0  0
   57.7710   25.2540   47.0290 O   0  0  0  0  0  0  0  0  0  0  0  0
   58.1060   24.0520   46.3420 C   0  0  0  0  0  0  0  0  0  0  0  0
   56.6430   27.1360   45.9520 C   0  0  0  0  0  0  0  0  0  0  0  0
   55.3840   26.5070   45.9550 O   0  0  0  0  0  0  0  0  0  0  0  0
   55.1090   25.1510   45.6190 C   0  0  0  0  0  0  0  0  0  0  0  0
   55.3166   30.8029   43.9263 H   0  0  0  0  0  0  0  0  0  0  0  0
   56.3530   29.5983   43.0888 H   0  0  0  0  0  0  0  0  0  0  0  0
   54.5675   29.4014   43.0888 H   0  0  0  0  0  0  0  0  0  0  0  0
   57.9630   30.1184   44.8966 H   0  0  0  0  0  0  0  0  0  0  0  0
   58.5393   31.2735   46.2346 H   0  0  0  0  0  0  0  0  0  0  0  0
   58.9042   33.4571   47.4324 H   0  0  0  0  0  0  0  0  0  0  0  0
   63.2532   34.5865   49.4116 H   0  0  0  0  0  0  0  0  0  0  0  0
   64.0961   32.1992   48.5012 H   0  0  0  0  0  0  0  0  0  0  0  0
   62.6816   30.1499   47.0254 H   0  0  0  0  0  0  0  0  0  0  0  0
   59.9503   26.8018   46.8222 H   0  0  0  0  0  0  0  0  0  0  0  0
   58.3265   23.2608   47.0737 H   0  0  0  0  0  0  0  0  0  0  0  0
   57.2599   23.7424   45.7109 H   0  0  0  0  0  0  0  0  0  0  0  0
   58.9903   24.2246   45.7109 H   0  0  0  0  0  0  0  0  0  0  0  0
   54.9895   24.5619   46.5403 H   0  0  0  0  0  0  0  0  0  0  0  0
   54.1823   25.1002   45.0286 H   0  0  0  0  0  0  0  0  0  0  0  0
   55.9427   24.7432   45.0286 H   0  0  0  0  0  0  0  0  0  0  0  0
  1  2  1  0
  2  3  1  0
  3  4  2  0
  4  5  1  0
  5  6  1  0
  6  7  2  0
  6  8  1  0
  8  9  2  0
  9 10  1  0
 10 11  2  0
 11 12  1  0
 12 13  1  0
 13 14  2  0
 14 15  1  0
 15 16  2  0
  5 17  2  0
 17 18  1  0
 18 19  1  0
 19 20  1  0
 18 21  2  0
 21 22  1  0
 22 23  1  0
 21  3  1  0
 16  8  1  0
 15 11  1  0
  1 24  1  0
  1 25  1  0
  1 26  1  0
  4 27  1  0
  9 28  1  0
 10 29  1  0
 13 30  1  0
 14 31  1  0
 16 32  1  0
 17 33  1  0
 20 34  1  0
 20 35  1  0
 20 36  1  0
 23 37  1  0
 23 38  1  0
 23 39  1  0
M  END
>  <UniqueID>  (47) 
45

>  <SMILES>  (47) 
COc1cc(C(=O)c2ccc3occc3c2)cc(OC)c1OC

>  <Energy>  (47) 
82.50718164937719

>  <Genealogy>  (47) 
COc1cc(C(=O)c2ccc3occc3c2)cc(OC)c1OC (3D coordinates assigned)
COc1cc(C(=O)c2ccc3occc3c2)cc(OC)c1OC (optimized conformer: 82.50718164937719 kcal/mol)

>  <smiles>  (47) 
COc1cc(C(=O)c2ccc3occc3c2)cc(OC)c1OC

>  <score_type>  (47) 
oracle

>  <origin>  (47) 
adg

>  <m_score__min__energy>  (47) 
-6.9800000000000004

>  <m_primary>  (47) 
energy

$$$$
47:0
     RDKit          3D

 48 51  0  0  0  0  0  0  0  0999 V2000
   57.7820   31.6620   46.5820 C   0  0  0  0  0  0  0  0  0  0  0  0
   57.7180   31.7810   45.0840 C   0  0  0  0  0  0  0  0  0  0  0  0
   58.2760   32.8660   44.3620 C   0  0  0  0  0  0  0  0  0  0  0  0
   58.9650   34.0600   44.9840 C   0  0  0  0  0  0  0  0  0  0  0  0
   59.7080   33.6990   46.2140 N   0  0  2  0  0  0  0  0  0  0  0  0
   59.2660   34.5180   47.3660 C   0  0  0  0  0  0  0  0  0  0  0  0
   59.9040   34.0150   48.6670 C   0  0  0  0  0  0  0  0  0  0  0  0
   61.3830   33.7780   48.5160 C   0  0  0  0  0  0  0  0  0  0  0  0
   62.1710   33.5980   49.6630 C   0  0  0  0  0  0  0  0  0  0  0  0
   63.5370   33.3250   49.5460 C   0  0  0  0  0  0  0  0  0  0  0  0
   64.1230   33.2210   48.2830 C   0  0  0  0  0  0  0  0  0  0  0  0
   63.3460   33.3850   47.1340 C   0  0  0  0  0  0  0  0  0  0  0  0
   61.9690   33.6450   47.2400 C   0  0  0  0  0  0  0  0  0  0  0  0
   61.1590   33.8860   45.9870 C   0  0  0  0  0  0  0  0  0  0  0  0
   58.1430   32.7390   42.9820 C   0  0  0  0  0  0  0  0  0  0  0  0
   57.3300   31.3110   42.6520 S   0  0  0  0  0  0  0  0  0  0  0  0
   57.1130   30.8330   44.2470 C   0  0  0  0  0  0  0  0  0  0  0  0
   56.3870   29.6080   44.6340 C   0  0  0  0  0  0  0  0  0  0  0  0
   55.1520   29.6810   44.8680 O   0  0  0  0  0  0  0  0  0  0  0  0
   57.0350   28.3340   44.7460 N   0  0  0  0  0  0  0  0  0  0  0  0
   58.0550   27.9820   45.6920 C   0  0  0  0  0  0  0  0  0  0  0  0
   59.2750   28.6690   45.6590 C   0  0  0  0  0  0  0  0  0  0  0  0
   60.2910   28.3510   46.5660 C   0  0  0  0  0  0  0  0  0  0  0  0
   60.0980   27.3320   47.5020 C   0  0  0  0  0  0  0  0  0  0  0  0
   61.0840   27.0250   48.3820 F   0  0  0  0  0  0  0  0  0  0  0  0
   58.8940   26.6240   47.5260 C   0  0  0  0  0  0  0  0  0  0  0  0
   57.8780   26.9390   46.6190 C   0  0  0  0  0  0  0  0  0  0  0  0
   57.3083   32.5427   47.0403 H   0  0  0  0  0  0  0  0  0  0  0  0
   57.2512   30.7527   46.9006 H   0  0  0  0  0  0  0  0  0  0  0  0
   58.8332   31.6036   46.9006 H   0  0  0  0  0  0  0  0  0  0  0  0
   59.6718   34.4813   44.2539 H   0  0  0  0  0  0  0  0  0  0  0  0
   58.1908   34.7912   45.2594 H   0  0  0  0  0  0  0  0  0  0  0  0
   59.5390   32.6850   46.4240 H   0  0  0  0  0  0  0  0  0  0  0  0
   59.5623   35.5642   47.1998 H   0  0  0  0  0  0  0  0  0  0  0  0
   58.1724   34.4400   47.4558 H   0  0  0  0  0  0  0  0  0  0  0  0
   59.7434   34.7660   49.4546 H   0  0  0  0  0  0  0  0  0  0  0  0
   59.4316   33.0565   48.9282 H   0  0  0  0  0  0  0  0  0  0  0  0
   61.7114   33.6721   50.6596 H   0  0  0  0  0  0  0  0  0  0  0  0
   64.1504   33.1921   50.4493 H   0  0  0  0  0  0  0  0  0  0  0  0
   65.1987   33.0095   48.1927 H   0  0  0  0  0  0  0  0  0  0  0  0
   63.8141   33.3103   46.1414 H   0  0  0  0  0  0  0  0  0  0  0  0
   61.3340   34.9167   45.6449 H   0  0  0  0  0  0  0  0  0  0  0  0
   61.4796   33.1534   45.2317 H   0  0  0  0  0  0  0  0  0  0  0  0
   58.5102   33.4562   42.2332 H   0  0  0  0  0  0  0  0  0  0  0  0
   59.4351   29.4635   44.9152 H   0  0  0  0  0  0  0  0  0  0  0  0
   61.2420   28.9032   46.5424 H   0  0  0  0  0  0  0  0  0  0  0  0
   58.7453   25.8178   48.2594 H   0  0  0  0  0  0  0  0  0  0  0  0
   56.9370   26.3694   46.6303 H   0  0  0  0  0  0  0  0  0  0  0  0
  1  2  1  0
  2  3  1  0
  3  4  1  0
  4  5  1  0
  5  6  1  0
  6  7  1  0
  7  8  1  0
  8  9  2  0
  9 10  1  0
 10 11  2  0
 11 12  1  0
 12 13  2  0
 13 14  1  0
  3 15  2  0
 15 16  1  0
 16 17  1  0
 17 18  1  0
 18 19  2  0
 18 20  1  0
 20 21  1  0
 21 22  2  0
 22 23  1  0
 23 24  2  0
 24 25  1  0
 24 26  1  0
 26 27  2  0
 17  2  2  0
 27 21  1  0
 14  5  1  0
 13  8  1  0
  1 28  1  0
  1 29  1  0
  1 30  1  0
  4 31  1  0
  4 32  1  0
  5 33  1  1
  6 34  1  0
  6 35  1  0
  7 36  1  0
  7 37  1  0
  9 38  1  0
 10 39  1  0
 11 40  1  0
 12 41  1  0
 14 42  1  0
 14 43  1  0
 15 44  1  0
 22 45  1  0
 23 46  1  0
 26 47  1  0
 27 48  1  0
M  CHG  2   5   1  20  -1
M  END
>  <UniqueID>  (48) 
46

>  <SMILES>  (48) 
Cc1c(C[N@@H+]2CCc3ccccc3C2)csc1C(=O)[N-]c1ccc(F)cc1

>  <Energy>  (48) 
88.13997249885809

>  <Genealogy>  (48) 
Cc1c(C[NH+]2CCc3ccccc3C2)csc1C(=O)[N-]c1ccc(F)cc1 (protonated)
Cc1c(C[N@@H+]2CCc3ccccc3C2)csc1C(=O)[N-]c1ccc(F)cc1 (chirality)
Cc1c(C[N@@H+]2CCc3ccccc3C2)csc1C(=O)[N-]c1ccc(F)cc1 (3D coordinates assigned)
Cc1c(C[N@@H+]2CCc3ccccc3C2)csc1C(=O)[N-]c1ccc(F)cc1 (nonaromatic ring conformer: 88.13997249885809 kcal/mol)

>  <smiles>  (48) 
Cc1c(CN2CCc3ccccc3C2)csc1C(=O)Nc1ccc(F)cc1

>  <score_type>  (48) 
oracle

>  <origin>  (48) 
adg

>  <m_score__min__energy>  (48) 
-9.0800000000000001

>  <m_primary>  (48) 
energy

$$$$
