0:0
     RDKit          3D

 55 57  0  0  0  0  0  0  0  0999 V2000
   54.4820   30.2020   52.5480 C   0  0  0  0  0  0  0  0  0  0  0  0
   55.9440   30.6260   52.6020 C   0  0  0  0  0  0  0  0  0  0  0  0
   56.4350   30.9350   51.2510 N   0  0  0  0  0  0  0  0  0  0  0  0
   57.7690   31.5530   51.2990 C   0  0  0  0  0  0  0  0  0  0  0  0
   58.5310   31.3150   49.9810 C   0  0  0  0  0  0  0  0  0  0  0  0
   59.5880   30.1990   50.0750 C   0  0  0  0  0  0  0  0  0  0  0  0
   59.4450   29.1010   49.0110 C   0  0  0  0  0  0  0  0  0  0  0  0
   60.2390   29.3940   47.8150 N   0  0  0  0  0  0  0  0  0  0  0  0
   59.9890   30.5910   47.0610 C   0  0  0  0  0  0  0  0  0  0  0  0
   60.9100   31.6510   47.1030 C   0  0  0  0  0  0  0  0  0  0  0  0
   62.1030   31.5430   47.8500 C   0  0  0  0  0  0  0  0  0  0  0  0
   63.0360   32.5760   47.8490 C   0  0  0  0  0  0  0  0  0  0  0  0
   62.8060   33.7250   47.1010 C   0  0  0  0  0  0  0  0  0  0  0  0
   61.6240   33.8630   46.3730 C   0  0  0  0  0  0  0  0  0  0  0  0
   60.6320   32.8470   46.3870 C   0  0  0  0  0  0  0  0  0  0  0  0
   59.4300   32.9940   45.7220 N   0  0  0  0  0  0  0  0  0  0  0  0
   59.0160   34.3260   45.2270 C   0  0  0  0  0  0  0  0  0  0  0  0
   58.6020   31.9010   45.5410 C   0  0  0  0  0  0  0  0  0  0  0  0
   57.5050   31.9360   44.6430 C   0  0  0  0  0  0  0  0  0  0  0  0
   56.6540   30.8410   44.4990 C   0  0  0  0  0  0  0  0  0  0  0  0
   56.8710   29.6750   45.2400 C   0  0  0  0  0  0  0  0  0  0  0  0
   56.0330   28.5210   45.0870 N   0  0  0  0  0  0  0  0  0  0  0  0
   56.2700   27.2130   45.6220 C   0  0  0  0  0  0  0  0  0  0  0  0
   57.6390   26.6040   45.6620 C   0  0  0  0  0  0  0  0  0  0  0  0
   55.2920   26.5400   46.0410 O   0  0  0  0  0  0  0  0  0  0  0  0
   57.9850   29.5930   46.0720 C   0  0  0  0  0  0  0  0  0  0  0  0
   58.8550   30.6900   46.2370 C   0  0  0  0  0  0  0  0  0  0  0  0
   54.0948   30.0897   53.5714 H   0  0  0  0  0  0  0  0  0  0  0  0
   53.8976   30.9677   52.0168 H   0  0  0  0  0  0  0  0  0  0  0  0
   54.3979   29.2425   52.0168 H   0  0  0  0  0  0  0  0  0  0  0  0
   56.0396   31.5196   53.2363 H   0  0  0  0  0  0  0  0  0  0  0  0
   56.5407   29.8020   53.0202 H   0  0  0  0  0  0  0  0  0  0  0  0
   55.7750   31.6270   50.8260 H   0  0  0  0  0  0  0  0  0  0  0  0
   57.6592   32.6354   51.4615 H   0  0  0  0  0  0  0  0  0  0  0  0
   58.3387   31.0976   52.1224 H   0  0  0  0  0  0  0  0  0  0  0  0
   57.8034   31.0407   49.2029 H   0  0  0  0  0  0  0  0  0  0  0  0
   59.0649   32.2469   49.7433 H   0  0  0  0  0  0  0  0  0  0  0  0
   60.5824   30.6565   49.9663 H   0  0  0  0  0  0  0  0  0  0  0  0
   59.4455   29.7120   51.0510 H   0  0  0  0  0  0  0  0  0  0  0  0
   59.7839   28.1455   49.4379 H   0  0  0  0  0  0  0  0  0  0  0  0
   58.3871   29.0490   48.7142 H   0  0  0  0  0  0  0  0  0  0  0  0
   61.1360   28.8870   47.6410 H   0  0  0  0  0  0  0  0  0  0  0  0
   62.2971   30.6340   48.4383 H   0  0  0  0  0  0  0  0  0  0  0  0
   63.9579   32.4829   48.4418 H   0  0  0  0  0  0  0  0  0  0  0  0
   63.5581   34.5275   47.0831 H   0  0  0  0  0  0  0  0  0  0  0  0
   61.4577   34.7735   45.7786 H   0  0  0  0  0  0  0  0  0  0  0  0
   58.8105   34.9872   46.0817 H   0  0  0  0  0  0  0  0  0  0  0  0
   59.8226   34.7570   44.6157 H   0  0  0  0  0  0  0  0  0  0  0  0
   58.1072   34.2238   44.6157 H   0  0  0  0  0  0  0  0  0  0  0  0
   57.3221   32.8437   44.0492 H   0  0  0  0  0  0  0  0  0  0  0  0
   55.8074   30.8945   43.7988 H   0  0  0  0  0  0  0  0  0  0  0  0
   57.9486   26.4663   46.7085 H   0  0  0  0  0  0  0  0  0  0  0  0
   57.6215   25.6288   45.1534 H   0  0  0  0  0  0  0  0  0  0  0  0
   58.3516   27.2700   45.1534 H   0  0  0  0  0  0  0  0  0  0  0  0
   58.1896   28.6556   46.6099 H   0  0  0  0  0  0  0  0  0  0  0  0
  1  2  1  0
  2  3  1  0
  3  4  1  0
  4  5  1  0
  5  6  1  0
  6  7  1  0
  7  8  1  0
  8  9  1  0
  9 10  2  0
 10 11  1  0
 11 12  2  0
 12 13  1  0
 13 14  2  0
 14 15  1  0
 15 16  2  0
 16 17  1  0
 16 18  1  0
 18 19  2  0
 19 20  1  0
 20 21  2  0
 21 22  1  0
 22 23  1  0
 23 24  1  0
 23 25  2  0
 21 26  1  0
 26 27  2  0
 27  9  1  0
 15 10  1  0
 27 18  1  0
  1 28  1  0
  1 29  1  0
  1 30  1  0
  2 31  1  0
  2 32  1  0
  3 33  1  0
  4 34  1  0
  4 35  1  0
  5 36  1  0
  5 37  1  0
  6 38  1  0
  6 39  1  0
  7 40  1  0
  7 41  1  0
  8 42  1  0
 11 43  1  0
 12 44  1  0
 13 45  1  0
 14 46  1  0
 17 47  1  0
 17 48  1  0
 17 49  1  0
 19 50  1  0
 20 51  1  0
 24 52  1  0
 24 53  1  0
 24 54  1  0
 26 55  1  0
M  CHG  2  16   1  22  -1
M  END
>  <UniqueID>  (1) 
1

>  <SMILES>  (1) 
CCNCCCCNc1c2ccccc2[n+](C)c2ccc([N-]C(C)=O)cc12

>  <Energy>  (1) 
77.60656170046886

>  <Genealogy>  (1) 
CCNCCCCNc1c2ccccc2[n+](C)c2ccc([N-]C(C)=O)cc12 (protonated)
CCNCCCCNc1c2ccccc2[n+](C)c2ccc([N-]C(C)=O)cc12 (3D coordinates assigned)
CCNCCCCNc1c2ccccc2[n+](C)c2ccc([N-]C(C)=O)cc12 (optimized conformer: 77.60656170046886 kcal/mol)

>  <smiles>  (1) 
CCNCCCCNc1c2ccccc2[n+](C)c2ccc(NC(C)=O)cc12

>  <score_type>  (1) 
oracle

>  <origin>  (1) 
adg

>  <m_score__min__energy>  (1) 
-8.8000000000000007

>  <m_primary>  (1) 
energy

$$$$
1:0
     RDKit          3D

 53 55  0  0  0  0  0  0  0  0999 V2000
   58.3954   33.6644   43.2669 H   0  0  0  0  0  0  0  0  0  0  0  0
   58.1170   33.2980   44.2660 C   0  0  0  0  0  0  0  0  0  0  0  0
   58.1370   34.1690   45.2840 C   0  0  0  0  0  0  0  0  0  0  0  0
   57.2216   34.3303   45.8722 H   0  0  0  0  0  0  0  0  0  0  0  0
   59.3840   34.9310   45.6400 C   0  0  0  0  0  0  0  0  0  0  0  0
   59.1078   35.9619   45.9064 H   0  0  0  0  0  0  0  0  0  0  0  0
   60.0556   34.9149   44.7690 H   0  0  0  0  0  0  0  0  0  0  0  0
   60.0970   34.3140   46.7840 N   0  0  0  0  0  0  0  0  0  0  0  0
   61.2840   33.5410   46.3700 C   0  0  0  0  0  0  0  0  0  0  0  0
   61.8067   34.1053   45.5837 H   0  0  0  0  0  0  0  0  0  0  0  0
   60.9200   32.5635   46.0208 H   0  0  0  0  0  0  0  0  0  0  0  0
   62.2820   33.2620   47.5100 C   0  0  0  0  0  0  0  0  0  0  0  0
   63.3030   33.4307   47.1370 H   0  0  0  0  0  0  0  0  0  0  0  0
   62.1433   32.2202   47.8348 H   0  0  0  0  0  0  0  0  0  0  0  0
   62.0400   34.1760   48.7280 C   0  0  0  0  0  0  0  0  0  0  0  0
   61.7395   35.1678   48.3592 H   0  0  0  0  0  0  0  0  0  0  0  0
   62.9815   34.1963   49.2965 H   0  0  0  0  0  0  0  0  0  0  0  0
   60.9900   33.6900   49.6640 N   0  0  2  0  0  0  0  0  0  0  0  0
   61.1630   34.1780   50.5760 H   0  0  0  0  0  0  0  0  0  0  0  0
   61.1530   32.2340   49.9100 C   0  0  0  0  0  0  0  0  0  0  0  0
   61.8280   32.0937   50.7671 H   0  0  0  0  0  0  0  0  0  0  0  0
   61.5649   31.7829   48.9952 H   0  0  0  0  0  0  0  0  0  0  0  0
   59.8430   31.5530   50.2090 C   0  0  0  0  0  0  0  0  0  0  0  0
   59.2380   30.5120   49.5210 C   0  0  0  0  0  0  0  0  0  0  0  0
   59.7570   29.8230   48.3010 C   0  0  0  0  0  0  0  0  0  0  0  0
   60.3939   28.9775   48.6003 H   0  0  0  0  0  0  0  0  0  0  0  0
   58.9122   29.4517   47.7022 H   0  0  0  0  0  0  0  0  0  0  0  0
   60.3470   30.5325   47.7022 H   0  0  0  0  0  0  0  0  0  0  0  0
   58.1210   30.1320   50.1730 N   0  0  0  0  0  0  0  0  0  0  0  0
   58.0070   30.9030   51.2440 N   0  0  0  0  0  0  0  0  0  0  0  0
   56.9030   30.8250   52.1900 C   0  0  0  0  0  0  0  0  0  0  0  0
   57.2971   30.8528   53.2166 H   0  0  0  0  0  0  0  0  0  0  0  0
   56.2256   31.6775   52.0341 H   0  0  0  0  0  0  0  0  0  0  0  0
   56.3522   29.8857   52.0341 H   0  0  0  0  0  0  0  0  0  0  0  0
   59.0270   31.7790   51.2980 C   0  0  0  0  0  0  0  0  0  0  0  0
   59.1829   32.5420   52.0748 H   0  0  0  0  0  0  0  0  0  0  0  0
   59.5930   34.0060   49.2560 C   0  0  0  0  0  0  0  0  0  0  0  0
   59.4352   35.0877   49.3785 H   0  0  0  0  0  0  0  0  0  0  0  0
   58.9346   33.4011   49.8967 H   0  0  0  0  0  0  0  0  0  0  0  0
   59.2530   33.6300   47.7940 C   0  0  0  0  0  0  0  0  0  0  0  0
   58.2025   33.8951   47.6039 H   0  0  0  0  0  0  0  0  0  0  0  0
   59.4428   32.5515   47.6901 H   0  0  0  0  0  0  0  0  0  0  0  0
   57.7420   31.8690   44.4050 C   0  0  0  0  0  0  0  0  0  0  0  0
   58.0890   31.0970   45.5340 C   0  0  0  0  0  0  0  0  0  0  0  0
   58.6494   31.5578   46.3608 H   0  0  0  0  0  0  0  0  0  0  0  0
   57.7240   29.7490   45.6070 C   0  0  0  0  0  0  0  0  0  0  0  0
   57.9917   29.1557   46.4938 H   0  0  0  0  0  0  0  0  0  0  0  0
   57.0210   29.1540   44.5580 C   0  0  0  0  0  0  0  0  0  0  0  0
   56.7311   28.0947   44.6208 H   0  0  0  0  0  0  0  0  0  0  0  0
   56.6860   29.9040   43.4290 C   0  0  0  0  0  0  0  0  0  0  0  0
   56.1364   29.4335   42.6004 H   0  0  0  0  0  0  0  0  0  0  0  0
   57.0480   31.2520   43.3500 C   0  0  0  0  0  0  0  0  0  0  0  0
   56.7874   31.8349   42.4543 H   0  0  0  0  0  0  0  0  0  0  0  0
  1  2  1  0
  2  3  2  0
  3  4  1  0
  3  5  1  0
  5  6  1  0
  5  7  1  0
  5  8  1  0
  8  9  1  0
  9 10  1  0
  9 11  1  0
  9 12  1  0
 12 13  1  0
 12 14  1  0
 12 15  1  0
 15 16  1  0
 15 17  1  0
 15 18  1  0
 18 19  1  1
 18 20  1  0
 20 21  1  0
 20 22  1  0
 20 23  1  0
 23 24  1  0
 24 25  1  0
 25 26  1  0
 25 27  1  0
 25 28  1  0
 24 29  2  0
 29 30  1  0
 30 31  1  0
 31 32  1  0
 31 33  1  0
 31 34  1  0
 30 35  1  0
 35 36  1  0
 18 37  1  0
 37 38  1  0
 37 39  1  0
 37 40  1  0
 40 41  1  0
 40 42  1  0
  2 43  1  0
 43 44  2  0
 44 45  1  0
 44 46  1  0
 46 47  1  0
 46 48  2  0
 48 49  1  0
 48 50  1  0
 50 51  1  0
 50 52  2  0
 52 53  1  0
 40  8  1  0
 52 43  1  0
 35 23  2  0
M  CHG  1  18   1
M  END
>  <UniqueID>  (2) 
2

>  <SMILES>  (2) 
Cc1nn(C)cc1C[N@H+]1CCCN(C/C=C/c2ccccc2)CC1

>  <Energy>  (2) 
101.06823144880612

>  <Genealogy>  (2) 
Cc1nn(C)cc1C[NH+]1CCCN(CC=Cc2ccccc2)CC1 (protonated)
Cc1nn(C)cc1C[N@H+]1CCCN(CC=Cc2ccccc2)CC1 (chirality)
Cc1nn(C)cc1C[N@H+]1CCCN(C/C=C/c2ccccc2)CC1 (cis-trans isomerization)
Cc1nn(C)cc1C[N@H+]1CCCN(C/C=C/c2ccccc2)CC1 (3D coordinates assigned)
Cc1nn(C)cc1C[N@H+]1CCCN(C/C=C/c2ccccc2)CC1 (nonaromatic ring conformer: 101.06823144880612 kcal/mol)

>  <smiles>  (2) 
Cc1nn(C)cc1CN1CCCN(CC=Cc2ccccc2)CC1

>  <score_type>  (2) 
oracle

>  <origin>  (2) 
adg

>  <m_score__min__energy>  (2) 
-4.0499999999999998

>  <m_primary>  (2) 
energy

$$$$
2:0
     RDKit          3D

 28 29  0  0  0  0  0  0  0  0999 V2000
   63.7590   34.2070   51.2320 C   0  0  0  0  0  0  0  0  0  0  0  0
   62.8550   34.5920   50.0660 C   0  0  0  0  0  0  0  0  0  0  0  0
   62.8530   33.5400   49.0480 N   0  0  0  0  0  0  0  0  0  0  0  0
   63.9270   33.0970   48.3590 C   0  0  0  0  0  0  0  0  0  0  0  0
   63.6050   32.1040   47.5070 N   0  0  0  0  0  0  0  0  0  0  0  0
   62.2840   31.9100   47.6670 C   0  0  0  0  0  0  0  0  0  0  0  0
   61.5210   30.9100   46.9690 C   0  0  0  0  0  0  0  0  0  0  0  0
   60.9070   30.1060   46.4080 N   0  0  0  0  0  0  0  0  0  0  0  0
   61.8120   32.7950   48.6140 C   0  0  0  0  0  0  0  0  0  0  0  0
   60.1220   32.8920   49.2240 S   0  0  0  0  0  0  0  0  0  0  0  0
   59.4790   33.5050   47.6680 C   0  0  0  0  0  0  0  0  0  0  0  0
   58.2880   32.9840   47.1440 C   0  0  0  0  0  0  0  0  0  0  0  0
   57.7880   33.4640   45.9290 C   0  0  0  0  0  0  0  0  0  0  0  0
   58.4690   34.4720   45.2410 C   0  0  0  0  0  0  0  0  0  0  0  0
   59.6490   35.0040   45.7700 C   0  0  0  0  0  0  0  0  0  0  0  0
   60.1510   34.5260   46.9840 C   0  0  0  0  0  0  0  0  0  0  0  0
   63.2467   34.4252   52.1807 H   0  0  0  0  0  0  0  0  0  0  0  0
   63.9893   33.1327   51.1782 H   0  0  0  0  0  0  0  0  0  0  0  0
   64.6931   34.7854   51.1782 H   0  0  0  0  0  0  0  0  0  0  0  0
   61.8297   34.7389   50.4364 H   0  0  0  0  0  0  0  0  0  0  0  0
   63.2330   35.5216   49.6154 H   0  0  0  0  0  0  0  0  0  0  0  0
   64.9438   33.4991   48.4792 H   0  0  0  0  0  0  0  0  0  0  0  0
   64.2510   31.5870   46.8690 H   0  0  0  0  0  0  0  0  0  0  0  0
   57.7460   32.1969   47.6887 H   0  0  0  0  0  0  0  0  0  0  0  0
   56.8579   33.0477   45.5147 H   0  0  0  0  0  0  0  0  0  0  0  0
   58.0770   34.8466   44.2839 H   0  0  0  0  0  0  0  0  0  0  0  0
   60.1830   35.7998   45.2301 H   0  0  0  0  0  0  0  0  0  0  0  0
   61.0747   34.9522   47.4025 H   0  0  0  0  0  0  0  0  0  0  0  0
  1  2  1  0
  2  3  1  0
  3  4  1  0
  4  5  2  0
  5  6  1  0
  6  7  1  0
  7  8  3  0
  6  9  2  0
  9 10  1  0
 10 11  1  0
 11 12  2  0
 12 13  1  0
 13 14  2  0
 14 15  1  0
 15 16  2  0
  9  3  1  0
 16 11  1  0
  1 17  1  0
  1 18  1  0
  1 19  1  0
  2 20  1  0
  2 21  1  0
  4 22  1  0
  5 23  1  0
 12 24  1  0
 13 25  1  0
 14 26  1  0
 15 27  1  0
 16 28  1  0
M  CHG  1   5   1
M  END
>  <UniqueID>  (3) 
3

>  <SMILES>  (3) 
CCn1c[nH+]c(C#N)c1Sc1ccccc1

>  <Energy>  (3) 
50.784425791107736

>  <Genealogy>  (3) 
CCn1c[nH+]c(C#N)c1Sc1ccccc1 (protonated)
CCn1c[nH+]c(C#N)c1Sc1ccccc1 (3D coordinates assigned)
CCn1c[nH+]c(C#N)c1Sc1ccccc1 (optimized conformer: 50.784425791107736 kcal/mol)

>  <smiles>  (3) 
CCn1cnc(C#N)c1Sc1ccccc1

>  <score_type>  (3) 
oracle

>  <origin>  (3) 
adg

>  <m_score__min__energy>  (3) 
-4.0999999999999996

>  <m_primary>  (3) 
energy

$$$$
3:0
     RDKit          3D

 28 29  0  0  0  0  0  0  0  0999 V2000
   59.9360   33.8620   45.9150 C   0  0  0  0  0  0  0  0  0  0  0  0
   60.3110   33.8350   47.3600 C   0  0  0  0  0  0  0  0  0  0  0  0
   59.4140   33.8100   48.3660 N   0  0  0  0  0  0  0  0  0  0  0  0
   60.0900   33.7510   49.5030 N   0  0  0  0  0  0  0  0  0  0  0  0
   59.4470   33.7280   50.8130 C   0  0  0  0  0  0  0  0  0  0  0  0
   61.4170   33.7270   49.2470 C   0  0  0  0  0  0  0  0  0  0  0  0
   61.5970   33.7760   47.8730 C   0  0  0  0  0  0  0  0  0  0  0  0
   62.8800   33.7550   47.0730 C   0  0  0  0  0  0  0  0  0  0  0  0
   63.8330   32.7040   47.4780 N   0  0  0  0  0  0  0  0  0  0  0  0
   64.5000   32.9930   48.7640 C   0  0  0  0  0  0  0  0  0  0  0  0
   63.6070   32.6920   49.9880 C   0  0  0  0  0  0  0  0  0  0  0  0
   62.5070   33.7250   50.2830 C   0  0  0  0  0  0  0  0  0  0  0  0
   58.8428   33.9407   45.8213 H   0  0  0  0  0  0  0  0  0  0  0  0
   60.4090   34.7284   45.4296 H   0  0  0  0  0  0  0  0  0  0  0  0
   60.2800   32.9368   45.4296 H   0  0  0  0  0  0  0  0  0  0  0  0
   60.2157   33.7555   51.5993 H   0  0  0  0  0  0  0  0  0  0  0  0
   58.7882   34.6032   50.9135 H   0  0  0  0  0  0  0  0  0  0  0  0
   58.8524   32.8080   50.9135 H   0  0  0  0  0  0  0  0  0  0  0  0
   62.6233   33.5977   46.0150 H   0  0  0  0  0  0  0  0  0  0  0  0
   63.3790   34.7184   47.2542 H   0  0  0  0  0  0  0  0  0  0  0  0
   63.2860   31.8180   47.5900 H   0  0  0  0  0  0  0  0  0  0  0  0
   64.5250   32.5230   46.7150 H   0  0  0  0  0  0  0  0  0  0  0  0
   65.4091   32.3776   48.8335 H   0  0  0  0  0  0  0  0  0  0  0  0
   64.7300   34.0685   48.7810 H   0  0  0  0  0  0  0  0  0  0  0  0
   63.1208   31.7196   49.8203 H   0  0  0  0  0  0  0  0  0  0  0  0
   64.2776   32.7120   50.8597 H   0  0  0  0  0  0  0  0  0  0  0  0
   62.0613   33.4941   51.2618 H   0  0  0  0  0  0  0  0  0  0  0  0
   62.9756   34.7201   50.2728 H   0  0  0  0  0  0  0  0  0  0  0  0
  1  2  1  0
  2  3  2  0
  3  4  1  0
  4  5  1  0
  4  6  1  0
  6  7  2  0
  7  8  1  0
  8  9  1  0
  9 10  1  0
 10 11  1  0
 11 12  1  0
  7  2  1  0
 12  6  1  0
  1 13  1  0
  1 14  1  0
  1 15  1  0
  5 16  1  0
  5 17  1  0
  5 18  1  0
  8 19  1  0
  8 20  1  0
  9 21  1  0
  9 22  1  0
 10 23  1  0
 10 24  1  0
 11 25  1  0
 11 26  1  0
 12 27  1  0
 12 28  1  0
M  CHG  1   9   1
M  END
>  <UniqueID>  (4) 
4

>  <SMILES>  (4) 
Cc1nn(C)c2c1C[NH2+]CCC2

>  <Energy>  (4) 
62.947728448956525

>  <Genealogy>  (4) 
Cc1nn(C)c2c1C[NH2+]CCC2 (protonated)
Cc1nn(C)c2c1C[NH2+]CCC2 (3D coordinates assigned)
Cc1nn(C)c2c1C[NH2+]CCC2 (nonaromatic ring conformer: 62.947728448956525 kcal/mol)

>  <smiles>  (4) 
Cc1nn(C)c2c1CNCCC2

>  <score_type>  (4) 
oracle

>  <origin>  (4) 
adg

>  <m_score__min__energy>  (4) 
-2.5299999999999998

>  <m_primary>  (4) 
energy

$$$$
4:0
     RDKit          3D

 52 54  0  0  0  0  0  0  0  0999 V2000
   56.5400   29.9570   42.4080 C   0  0  0  0  0  0  0  0  0  0  0  0
   57.0460   31.3640   42.7640 C   0  0  0  0  0  0  0  0  0  0  0  0
   57.8300   31.9870   41.5970 C   0  0  0  0  0  0  0  0  0  0  0  0
   57.8460   31.4020   44.0980 C   0  0  0  0  0  0  0  0  0  0  0  0
   57.0760   31.9070   45.2640 N   0  0  0  0  0  0  0  0  0  0  0  0
   57.0690   33.3760   45.3120 C   0  0  0  0  0  0  0  0  0  0  0  0
   58.3510   33.8770   45.9100 C   0  0  0  0  0  0  0  0  0  0  0  0
   59.2270   34.7940   45.3480 C   0  0  0  0  0  0  0  0  0  0  0  0
   60.2410   35.0290   46.2070 N   0  0  0  0  0  0  0  0  0  0  0  0
   60.0130   34.3060   47.2950 N   0  0  0  0  0  0  0  0  0  0  0  0
   58.8880   33.5920   47.1470 C   0  0  0  0  0  0  0  0  0  0  0  0
   58.3290   32.7290   48.2400 C   0  0  0  0  0  0  0  0  0  0  0  0
   59.3810   32.3660   49.2190 N   0  0  0  0  0  0  0  0  0  0  0  0
   60.2210   31.2440   48.7440 C   0  0  0  0  0  0  0  0  0  0  0  0
   59.3380   30.0870   48.3630 C   0  0  0  0  0  0  0  0  0  0  0  0
   58.5390   29.6190   49.2290 O   0  0  0  0  0  0  0  0  0  0  0  0
   59.4380   29.4650   47.0590 N   0  0  0  0  0  0  0  0  0  0  0  0
   58.6630   28.2940   46.6820 C   0  0  0  0  0  0  0  0  0  0  0  0
   58.8980   28.0870   45.1900 C   0  0  0  0  0  0  0  0  0  0  0  0
   60.1090   28.9400   44.8290 C   0  0  0  0  0  0  0  0  0  0  0  0
   60.2960   29.9330   45.9760 C   0  0  0  0  0  0  0  0  0  0  0  0
   60.1780   33.5450   49.6330 C   0  0  0  0  0  0  0  0  0  0  0  0
   60.9030   34.2130   48.4420 C   0  0  0  0  0  0  0  0  0  0  0  0
   56.3380   29.3953   43.3320 H   0  0  0  0  0  0  0  0  0  0  0  0
   55.6148   30.0383   41.8186 H   0  0  0  0  0  0  0  0  0  0  0  0
   57.3051   29.4304   41.8186 H   0  0  0  0  0  0  0  0  0  0  0  0
   56.1555   31.9867   42.9347 H   0  0  0  0  0  0  0  0  0  0  0  0
   58.6331   32.6252   41.9941 H   0  0  0  0  0  0  0  0  0  0  0  0
   58.2676   31.1876   40.9811 H   0  0  0  0  0  0  0  0  0  0  0  0
   57.1501   32.5939   40.9811 H   0  0  0  0  0  0  0  0  0  0  0  0
   58.1833   30.3800   44.3256 H   0  0  0  0  0  0  0  0  0  0  0  0
   58.6778   32.1052   43.9441 H   0  0  0  0  0  0  0  0  0  0  0  0
   56.0850   31.5640   45.2490 H   0  0  0  0  0  0  0  0  0  0  0  0
   56.9635   33.7731   44.2916 H   0  0  0  0  0  0  0  0  0  0  0  0
   56.2256   33.7126   45.9328 H   0  0  0  0  0  0  0  0  0  0  0  0
   59.1130   35.2573   44.3569 H   0  0  0  0  0  0  0  0  0  0  0  0
   57.5289   33.2778   48.7583 H   0  0  0  0  0  0  0  0  0  0  0  0
   57.9339   31.8059   47.7909 H   0  0  0  0  0  0  0  0  0  0  0  0
   60.8028   31.5661   47.8678 H   0  0  0  0  0  0  0  0  0  0  0  0
   60.9085   30.9342   49.5449 H   0  0  0  0  0  0  0  0  0  0  0  0
   59.0038   27.4138   47.2469 H   0  0  0  0  0  0  0  0  0  0  0  0
   57.5945   28.4340   46.9026 H   0  0  0  0  0  0  0  0  0  0  0  0
   59.1017   27.0267   44.9793 H   0  0  0  0  0  0  0  0  0  0  0  0
   58.0146   28.3745   44.6009 H   0  0  0  0  0  0  0  0  0  0  0  0
   61.0025   28.3070   44.7246 H   0  0  0  0  0  0  0  0  0  0  0  0
   59.9585   29.4607   43.8718 H   0  0  0  0  0  0  0  0  0  0  0  0
   61.3469   29.9480   46.3006 H   0  0  0  0  0  0  0  0  0  0  0  0
   60.0341   30.9563   45.6689 H   0  0  0  0  0  0  0  0  0  0  0  0
   59.5049   34.2820   50.0953 H   0  0  0  0  0  0  0  0  0  0  0  0
   60.9449   33.1997   50.3420 H   0  0  0  0  0  0  0  0  0  0  0  0
   61.2249   35.2235   48.7340 H   0  0  0  0  0  0  0  0  0  0  0  0
   61.7763   33.6030   48.1679 H   0  0  0  0  0  0  0  0  0  0  0  0
  1  2  1  0
  2  3  1  0
  2  4  1  0
  4  5  1  0
  5  6  1  0
  6  7  1  0
  7  8  1  0
  8  9  2  0
  9 10  1  0
 10 11  1  0
 11 12  1  0
 12 13  1  0
 13 14  1  0
 14 15  1  0
 15 16  2  0
 15 17  1  0
 17 18  1  0
 18 19  1  0
 19 20  1  0
 20 21  1  0
 13 22  1  0
 22 23  1  0
 11  7  2  0
 21 17  1  0
 23 10  1  0
  1 24  1  0
  1 25  1  0
  1 26  1  0
  2 27  1  0
  3 28  1  0
  3 29  1  0
  3 30  1  0
  4 31  1  0
  4 32  1  0
  5 33  1  0
  6 34  1  0
  6 35  1  0
  8 36  1  0
 12 37  1  0
 12 38  1  0
 14 39  1  0
 14 40  1  0
 18 41  1  0
 18 42  1  0
 19 43  1  0
 19 44  1  0
 20 45  1  0
 20 46  1  0
 21 47  1  0
 21 48  1  0
 22 49  1  0
 22 50  1  0
 23 51  1  0
 23 52  1  0
M  END
>  <UniqueID>  (5) 
5

>  <SMILES>  (5) 
CC(C)CNCc1cnn2c1CN(CC(=O)N1CCCC1)CC2

>  <Energy>  (5) 
83.32473553950888

>  <Genealogy>  (5) 
CC(C)CNCc1cnn2c1CN(CC(=O)N1CCCC1)CC2 (3D coordinates assigned)
CC(C)CNCc1cnn2c1CN(CC(=O)N1CCCC1)CC2 (nonaromatic ring conformer: 83.32473553950888 kcal/mol)

>  <smiles>  (5) 
CC(C)CNCc1cnn2c1CN(CC(=O)N1CCCC1)CC2

>  <score_type>  (5) 
oracle

>  <origin>  (5) 
adg

>  <m_score__min__energy>  (5) 
-7.5999999999999996

>  <m_primary>  (5) 
energy

$$$$
5:0
     RDKit          3D

 51 53  0  0  0  0  0  0  0  0999 V2000
   62.4780   33.3640   47.0720 C   0  0  0  0  0  0  0  0  0  0  0  0
   62.3480   32.4600   48.2900 C   0  0  0  0  0  0  0  0  0  0  0  0
   61.0300   31.8210   48.3090 N   0  0  0  0  0  0  0  0  0  0  0  0
   60.0350   31.9910   49.2140 C   0  0  0  0  0  0  0  0  0  0  0  0
   60.0930   32.8080   50.1720 O   0  0  0  0  0  0  0  0  0  0  0  0
   58.9950   31.2040   48.9950 O   0  0  0  0  0  0  0  0  0  0  0  0
   59.3090   30.4920   47.9370 C   0  0  0  0  0  0  0  0  0  0  0  0
   58.5610   29.5060   47.3030 C   0  0  0  0  0  0  0  0  0  0  0  0
   59.1330   28.8660   46.1720 C   0  0  0  0  0  0  0  0  0  0  0  0
   58.4600   27.8630   45.4550 O   0  0  0  0  0  0  0  0  0  0  0  0
   57.0480   27.8070   45.2460 C   0  0  0  0  0  0  0  0  0  0  0  0
   56.5520   29.0380   44.5490 C   0  0  0  0  0  0  0  0  0  0  0  0
   55.4330   29.5260   44.8630 O   0  0  0  0  0  0  0  0  0  0  0  0
   57.3830   29.6910   43.5800 N   0  0  0  0  0  0  0  0  0  0  0  0
   57.0260   30.9600   42.9470 C   0  0  0  0  0  0  0  0  0  0  0  0
   57.8560   32.1160   43.5260 C   0  0  0  0  0  0  0  0  0  0  0  0
   57.9660   32.0700   45.0590 C   0  0  0  0  0  0  0  0  0  0  0  0
   57.3570   33.2740   45.6740 N   0  0  0  0  0  0  0  0  0  0  0  0
   57.5950   34.4910   44.8720 C   0  0  0  0  0  0  0  0  0  0  0  0
   59.0730   34.9420   44.9420 C   0  0  0  0  0  0  0  0  0  0  0  0
   59.7880   34.3500   46.0130 O   0  0  0  0  0  0  0  0  0  0  0  0
   59.0190   34.3980   47.1950 C   0  0  0  0  0  0  0  0  0  0  0  0
   57.7860   33.4770   47.0800 C   0  0  0  0  0  0  0  0  0  0  0  0
   60.4280   29.2370   45.7380 C   0  0  0  0  0  0  0  0  0  0  0  0
   61.1570   30.2380   46.4060 C   0  0  0  0  0  0  0  0  0  0  0  0
   60.5550   30.8510   47.5050 C   0  0  0  0  0  0  0  0  0  0  0  0
   62.6274   34.4030   47.4008 H   0  0  0  0  0  0  0  0  0  0  0  0
   63.3393   33.0432   46.4676 H   0  0  0  0  0  0  0  0  0  0  0  0
   61.5613   33.2989   46.4676 H   0  0  0  0  0  0  0  0  0  0  0  0
   63.1270   31.6844   48.2513 H   0  0  0  0  0  0  0  0  0  0  0  0
   62.4655   33.0662   49.2003 H   0  0  0  0  0  0  0  0  0  0  0  0
   57.5595   29.2310   47.6656 H   0  0  0  0  0  0  0  0  0  0  0  0
   56.8114   26.9266   44.6304 H   0  0  0  0  0  0  0  0  0  0  0  0
   56.5540   27.7400   46.2265 H   0  0  0  0  0  0  0  0  0  0  0  0
   58.3140   29.2740   43.3530 H   0  0  0  0  0  0  0  0  0  0  0  0
   57.2143   30.8882   41.8656 H   0  0  0  0  0  0  0  0  0  0  0  0
   55.9619   31.1611   43.1401 H   0  0  0  0  0  0  0  0  0  0  0  0
   58.8692   32.0670   43.1006 H   0  0  0  0  0  0  0  0  0  0  0  0
   57.3435   33.0527   43.2616 H   0  0  0  0  0  0  0  0  0  0  0  0
   57.4455   31.1747   45.4299 H   0  0  0  0  0  0  0  0  0  0  0  0
   59.0311   32.0388   45.3322 H   0  0  0  0  0  0  0  0  0  0  0  0
   57.3348   34.2836   43.8235 H   0  0  0  0  0  0  0  0  0  0  0  0
   56.9701   35.2988   45.2807 H   0  0  0  0  0  0  0  0  0  0  0  0
   59.5671   34.6679   43.9982 H   0  0  0  0  0  0  0  0  0  0  0  0
   59.0751   36.0292   45.1094 H   0  0  0  0  0  0  0  0  0  0  0  0
   59.6382   34.0687   48.0425 H   0  0  0  0  0  0  0  0  0  0  0  0
   58.6758   35.4312   47.3525 H   0  0  0  0  0  0  0  0  0  0  0  0
   58.0344   32.4989   47.5177 H   0  0  0  0  0  0  0  0  0  0  0  0
   56.9563   33.9612   47.6158 H   0  0  0  0  0  0  0  0  0  0  0  0
   60.8713   28.7352   44.8653 H   0  0  0  0  0  0  0  0  0  0  0  0
   62.1651   30.5267   46.0737 H   0  0  0  0  0  0  0  0  0  0  0  0
  1  2  1  0
  2  3  1  0
  3  4  1  0
  4  5  2  0
  4  6  1  0
  6  7  1  0
  7  8  2  0
  8  9  1  0
  9 10  1  0
 10 11  1  0
 11 12  1  0
 12 13  2  0
 12 14  1  0
 14 15  1  0
 15 16  1  0
 16 17  1  0
 17 18  1  0
 18 19  1  0
 19 20  1  0
 20 21  1  0
 21 22  1  0
 22 23  1  0
  9 24  2  0
 24 25  1  0
 25 26  2  0
 26  3  1  0
 26  7  1  0
 23 18  1  0
  1 27  1  0
  1 28  1  0
  1 29  1  0
  2 30  1  0
  2 31  1  0
  8 32  1  0
 11 33  1  0
 11 34  1  0
 14 35  1  0
 15 36  1  0
 15 37  1  0
 16 38  1  0
 16 39  1  0
 17 40  1  0
 17 41  1  0
 19 42  1  0
 19 43  1  0
 20 44  1  0
 20 45  1  0
 22 46  1  0
 22 47  1  0
 23 48  1  0
 23 49  1  0
 24 50  1  0
 25 51  1  0
M  END
>  <UniqueID>  (6) 
6

>  <SMILES>  (6) 
CCn1c(=O)oc2cc(OCC(=O)NCCCN3CCOCC3)ccc21

>  <Energy>  (6) 
95.47628841793185

>  <Genealogy>  (6) 
CCn1c(=O)oc2cc(OCC(=O)NCCCN3CCOCC3)ccc21 (3D coordinates assigned)
CCn1c(=O)oc2cc(OCC(=O)NCCCN3CCOCC3)ccc21 (nonaromatic ring conformer: 95.47628841793185 kcal/mol)

>  <smiles>  (6) 
CCn1c(=O)oc2cc(OCC(=O)NCCCN3CCOCC3)ccc21

>  <score_type>  (6) 
oracle

>  <origin>  (6) 
adg

>  <m_score__min__energy>  (6) 
-6.7400000000000002

>  <m_primary>  (6) 
energy

$$$$
6:0
     RDKit          3D

 43 45  0  0  0  0  0  0  0  0999 V2000
   56.2670   30.1000   42.6500 C   0  0  0  0  0  0  0  0  0  0  0  0
   57.2550   29.5280   43.6150 C   0  0  0  0  0  0  0  0  0  0  0  0
   57.4310   28.2030   43.8270 N   0  0  0  0  0  0  0  0  0  0  0  0
   58.3850   28.1330   44.7750 C   0  0  0  0  0  0  0  0  0  0  0  0
   58.8960   26.9680   45.3450 C   0  0  0  0  0  0  0  0  0  0  0  0
   59.8770   27.1080   46.3400 C   0  0  0  0  0  0  0  0  0  0  0  0
   60.3120   28.3880   46.7370 C   0  0  0  0  0  0  0  0  0  0  0  0
   59.7600   29.5250   46.1290 C   0  0  0  0  0  0  0  0  0  0  0  0
   58.8180   29.3460   45.1650 N   0  0  0  0  0  0  0  0  0  0  0  0
   58.1260   30.2420   44.4340 C   0  0  0  0  0  0  0  0  0  0  0  0
   58.2220   31.7340   44.5730 C   0  0  0  0  0  0  0  0  0  0  0  0
   57.0170   32.2410   45.2380 N   0  0  0  0  0  0  0  0  0  0  0  0
   57.2500   33.5610   45.8400 C   0  0  0  0  0  0  0  0  0  0  0  0
   58.2440   33.4450   47.0040 C   0  0  0  0  0  0  0  0  0  0  0  0
   59.5160   34.2720   46.7730 C   0  0  0  0  0  0  0  0  0  0  0  0
   60.7680   33.4680   47.0170 C   0  0  0  0  0  0  0  0  0  0  0  0
   62.0020   33.8950   46.4970 C   0  0  0  0  0  0  0  0  0  0  0  0
   63.1640   33.1590   46.7470 C   0  0  0  0  0  0  0  0  0  0  0  0
   63.1040   31.9950   47.5200 C   0  0  0  0  0  0  0  0  0  0  0  0
   61.8810   31.5670   48.0450 C   0  0  0  0  0  0  0  0  0  0  0  0
   60.7170   32.3000   47.7980 C   0  0  0  0  0  0  0  0  0  0  0  0
   55.4453   30.5757   43.2053 H   0  0  0  0  0  0  0  0  0  0  0  0
   56.7644   30.8499   42.0173 H   0  0  0  0  0  0  0  0  0  0  0  0
   55.8643   29.2953   42.0173 H   0  0  0  0  0  0  0  0  0  0  0  0
   56.9270   27.4110   43.3690 H   0  0  0  0  0  0  0  0  0  0  0  0
   58.5438   25.9756   45.0271 H   0  0  0  0  0  0  0  0  0  0  0  0
   60.3084   26.2131   46.8123 H   0  0  0  0  0  0  0  0  0  0  0  0
   61.0790   28.4948   47.5182 H   0  0  0  0  0  0  0  0  0  0  0  0
   60.0807   30.5349   46.4243 H   0  0  0  0  0  0  0  0  0  0  0  0
   59.1075   31.9902   45.1732 H   0  0  0  0  0  0  0  0  0  0  0  0
   58.3105   32.1905   43.5761 H   0  0  0  0  0  0  0  0  0  0  0  0
   56.2760   32.3480   44.5050 H   0  0  0  0  0  0  0  0  0  0  0  0
   57.6602   34.2404   45.0783 H   0  0  0  0  0  0  0  0  0  0  0  0
   56.2962   33.9553   46.2205 H   0  0  0  0  0  0  0  0  0  0  0  0
   57.7544   33.7995   47.9230 H   0  0  0  0  0  0  0  0  0  0  0  0
   58.5413   32.3892   47.0866 H   0  0  0  0  0  0  0  0  0  0  0  0
   59.5219   34.6305   45.7331 H   0  0  0  0  0  0  0  0  0  0  0  0
   59.5083   35.1108   47.4846 H   0  0  0  0  0  0  0  0  0  0  0  0
   62.0537   34.8116   45.8911 H   0  0  0  0  0  0  0  0  0  0  0  0
   64.1268   33.4958   46.3352 H   0  0  0  0  0  0  0  0  0  0  0  0
   64.0190   31.4163   47.7149 H   0  0  0  0  0  0  0  0  0  0  0  0
   61.8348   30.6518   48.6535 H   0  0  0  0  0  0  0  0  0  0  0  0
   59.7574   31.9619   48.2162 H   0  0  0  0  0  0  0  0  0  0  0  0
  1  2  1  0
  2  3  1  0
  3  4  2  0
  4  5  1  0
  5  6  2  0
  6  7  1  0
  7  8  2  0
  8  9  1  0
  9 10  1  0
 10 11  1  0
 11 12  1  0
 12 13  1  0
 13 14  1  0
 14 15  1  0
 15 16  1  0
 16 17  2  0
 17 18  1  0
 18 19  2  0
 19 20  1  0
 20 21  2  0
 10  2  2  0
 21 16  1  0
  9  4  1  0
  1 22  1  0
  1 23  1  0
  1 24  1  0
  3 25  1  0
  5 26  1  0
  6 27  1  0
  7 28  1  0
  8 29  1  0
 11 30  1  0
 11 31  1  0
 12 32  1  0
 13 33  1  0
 13 34  1  0
 14 35  1  0
 14 36  1  0
 15 37  1  0
 15 38  1  0
 17 39  1  0
 18 40  1  0
 19 41  1  0
 20 42  1  0
 21 43  1  0
M  CHG  1   3   1
M  END
>  <UniqueID>  (7) 
7

>  <SMILES>  (7) 
Cc1[nH+]c2ccccn2c1CNCCCc1ccccc1

>  <Energy>  (7) 
74.39018340013337

>  <Genealogy>  (7) 
Cc1[nH+]c2ccccn2c1CNCCCc1ccccc1 (protonated)
Cc1[nH+]c2ccccn2c1CNCCCc1ccccc1 (3D coordinates assigned)
Cc1[nH+]c2ccccn2c1CNCCCc1ccccc1 (optimized conformer: 74.39018340013337 kcal/mol)

>  <smiles>  (7) 
Cc1nc2ccccn2c1CNCCCc1ccccc1

>  <score_type>  (7) 
oracle

>  <origin>  (7) 
adg

>  <m_score__min__energy>  (7) 
-6.0599999999999996

>  <m_primary>  (7) 
energy

$$$$
7:0
     RDKit          3D

 69 71  0  0  0  0  0  0  0  0999 V2000
   63.6860   33.2080   47.0330 C   0  0  0  0  0  0  0  0  0  0  0  0
   62.2390   32.7350   47.1500 C   0  0  0  0  0  0  0  0  0  0  0  0
   61.3230   33.8930   47.1950 N   0  0  0  0  0  0  0  0  0  0  0  0
   60.4040   34.0310   46.0430 C   0  0  0  0  0  0  0  0  0  0  0  0
   59.0340   34.6200   46.3930 C   0  0  0  0  0  0  0  0  0  0  0  0
   60.7740   34.2300   48.5270 C   0  0  0  0  0  0  0  0  0  0  0  0
   61.7990   34.1580   49.6790 C   0  0  0  0  0  0  0  0  0  0  0  0
   61.1710   33.7420   50.8780 O   0  0  0  0  0  0  0  0  0  0  0  0
   59.8120   33.3950   50.6680 C   0  0  0  0  0  0  0  0  0  0  0  0
   59.3710   32.2350   51.5760 C   0  0  0  0  0  0  0  0  0  0  0  0
   60.1560   30.9440   51.2980 C   0  0  0  0  0  0  0  0  0  0  0  0
   60.1170   30.5850   49.8000 C   0  0  0  0  0  0  0  0  0  0  0  0
   58.8000   30.8570   49.1890 N   0  0  0  0  0  0  0  0  0  0  0  0
   58.8910   31.3440   47.8010 C   0  0  0  0  0  0  0  0  0  0  0  0
   59.7360   30.4160   46.9090 C   0  0  0  0  0  0  0  0  0  0  0  0
   58.8630   29.6460   45.9260 C   0  0  0  0  0  0  0  0  0  0  0  0
   58.2370   30.3240   44.8400 C   0  0  0  0  0  0  0  0  0  0  0  0
   57.5050   29.5700   43.8890 C   0  0  0  0  0  0  0  0  0  0  0  0
   57.3360   28.2320   44.0640 N   0  0  0  0  0  0  0  0  0  0  0  0
   57.8710   27.5610   45.1190 C   0  0  0  0  0  0  0  0  0  0  0  0
   57.6460   26.1800   45.2470 C   0  0  0  0  0  0  0  0  0  0  0  0
   58.1820   25.4730   46.3230 C   0  0  0  0  0  0  0  0  0  0  0  0
   58.9450   26.1360   47.2800 C   0  0  0  0  0  0  0  0  0  0  0  0
   59.1790   27.5090   47.1680 C   0  0  0  0  0  0  0  0  0  0  0  0
   58.6480   28.2480   46.0830 C   0  0  0  0  0  0  0  0  0  0  0  0
   56.8160   30.2240   42.7120 C   0  0  0  0  0  0  0  0  0  0  0  0
   57.3940   31.5950   42.3710 C   0  0  0  0  0  0  0  0  0  0  0  0
   57.4660   32.4460   43.6300 C   0  0  0  0  0  0  0  0  0  0  0  0
   58.4340   31.8220   44.6370 C   0  0  0  0  0  0  0  0  0  0  0  0
   64.1090   33.3463   48.0389 H   0  0  0  0  0  0  0  0  0  0  0  0
   64.2748   32.4556   46.4879 H   0  0  0  0  0  0  0  0  0  0  0  0
   63.7167   34.1629   46.4879 H   0  0  0  0  0  0  0  0  0  0  0  0
   61.9903   32.1093   46.2802 H   0  0  0  0  0  0  0  0  0  0  0  0
   62.1265   32.1536   48.0770 H   0  0  0  0  0  0  0  0  0  0  0  0
   60.8806   34.6868   45.2995 H   0  0  0  0  0  0  0  0  0  0  0  0
   60.2211   33.0147   45.6641 H   0  0  0  0  0  0  0  0  0  0  0  0
   58.9238   34.6674   47.4864 H   0  0  0  0  0  0  0  0  0  0  0  0
   58.9519   35.6329   45.9720 H   0  0  0  0  0  0  0  0  0  0  0  0
   58.2425   33.9827   45.9720 H   0  0  0  0  0  0  0  0  0  0  0  0
   60.3756   35.2545   48.4852 H   0  0  0  0  0  0  0  0  0  0  0  0
   60.0028   33.4771   48.7470 H   0  0  0  0  0  0  0  0  0  0  0  0
   62.5888   33.4390   49.4160 H   0  0  0  0  0  0  0  0  0  0  0  0
   62.2312   35.1578   49.8328 H   0  0  0  0  0  0  0  0  0  0  0  0
   59.1837   34.2724   50.8810 H   0  0  0  0  0  0  0  0  0  0  0  0
   59.6996   33.0721   49.6225 H   0  0  0  0  0  0  0  0  0  0  0  0
   59.5303   32.5267   52.6246 H   0  0  0  0  0  0  0  0  0  0  0  0
   58.3092   32.0331   51.3712 H   0  0  0  0  0  0  0  0  0  0  0  0
   61.2022   31.0858   51.6067 H   0  0  0  0  0  0  0  0  0  0  0  0
   59.6938   30.1237   51.8668 H   0  0  0  0  0  0  0  0  0  0  0  0
   60.8794   31.1789   49.2746 H   0  0  0  0  0  0  0  0  0  0  0  0
   60.3122   29.5063   49.7088 H   0  0  0  0  0  0  0  0  0  0  0  0
   58.1650   30.0270   49.2430 H   0  0  0  0  0  0  0  0  0  0  0  0
   57.8760   31.4091   47.3820 H   0  0  0  0  0  0  0  0  0  0  0  0
   59.3817   32.3283   47.8218 H   0  0  0  0  0  0  0  0  0  0  0  0
   60.4603   31.0227   46.3457 H   0  0  0  0  0  0  0  0  0  0  0  0
   60.2536   29.6912   47.5546 H   0  0  0  0  0  0  0  0  0  0  0  0
   56.7630   27.7060   43.3640 H   0  0  0  0  0  0  0  0  0  0  0  0
   57.0428   25.6528   44.4932 H   0  0  0  0  0  0  0  0  0  0  0  0
   58.0019   24.3918   46.4154 H   0  0  0  0  0  0  0  0  0  0  0  0
   59.3657   25.5764   48.1284 H   0  0  0  0  0  0  0  0  0  0  0  0
   59.7826   28.0217   47.9314 H   0  0  0  0  0  0  0  0  0  0  0  0
   56.9239   29.5696   41.8344 H   0  0  0  0  0  0  0  0  0  0  0  0
   55.7610   30.3701   42.9870 H   0  0  0  0  0  0  0  0  0  0  0  0
   58.4043   31.4728   41.9535 H   0  0  0  0  0  0  0  0  0  0  0  0
   56.7475   32.0904   41.6317 H   0  0  0  0  0  0  0  0  0  0  0  0
   57.8165   33.4549   43.3667 H   0  0  0  0  0  0  0  0  0  0  0  0
   56.4649   32.5015   44.0825 H   0  0  0  0  0  0  0  0  0  0  0  0
   59.4607   31.9906   44.2801 H   0  0  0  0  0  0  0  0  0  0  0  0
   58.2383   32.3030   45.6067 H   0  0  0  0  0  0  0  0  0  0  0  0
  1  2  1  0
  2  3  1  0
  3  4  1  0
  4  5  1  0
  3  6  1  0
  6  7  1  0
  7  8  1  0
  8  9  1  0
  9 10  1  0
 10 11  1  0
 11 12  1  0
 12 13  1  0
 13 14  1  0
 14 15  1  0
 15 16  1  0
 16 17  2  0
 17 18  1  0
 18 19  2  0
 19 20  1  0
 20 21  2  0
 21 22  1  0
 22 23  2  0
 23 24  1  0
 24 25  2  0
 18 26  1  0
 26 27  1  0
 27 28  1  0
 28 29  1  0
 25 16  1  0
 29 17  1  0
 25 20  1  0
  1 30  1  0
  1 31  1  0
  1 32  1  0
  2 33  1  0
  2 34  1  0
  4 35  1  0
  4 36  1  0
  5 37  1  0
  5 38  1  0
  5 39  1  0
  6 40  1  0
  6 41  1  0
  7 42  1  0
  7 43  1  0
  9 44  1  0
  9 45  1  0
 10 46  1  0
 10 47  1  0
 11 48  1  0
 11 49  1  0
 12 50  1  0
 12 51  1  0
 13 52  1  0
 14 53  1  0
 14 54  1  0
 15 55  1  0
 15 56  1  0
 19 57  1  0
 21 58  1  0
 22 59  1  0
 23 60  1  0
 24 61  1  0
 26 62  1  0
 26 63  1  0
 27 64  1  0
 27 65  1  0
 28 66  1  0
 28 67  1  0
 29 68  1  0
 29 69  1  0
M  CHG  1  19   1
M  END
>  <UniqueID>  (8) 
8

>  <SMILES>  (8) 
CCN(CC)CCOCCCCNCCc1c2c([nH+]c3ccccc13)CCCC2

>  <Energy>  (8) 
80.53829842996478

>  <Genealogy>  (8) 
CCN(CC)CCOCCCCNCCc1c2c([nH+]c3ccccc13)CCCC2 (protonated)
CCN(CC)CCOCCCCNCCc1c2c([nH+]c3ccccc13)CCCC2 (3D coordinates assigned)
CCN(CC)CCOCCCCNCCc1c2c([nH+]c3ccccc13)CCCC2 (nonaromatic ring conformer: 80.53829842996478 kcal/mol)

>  <smiles>  (8) 
CCN(CC)CCOCCCCNCCc1c2c(nc3ccccc13)CCCC2

>  <score_type>  (8) 
oracle

>  <origin>  (8) 
adg

>  <m_score__min__energy>  (8) 
-6.0899999999999999

>  <m_primary>  (8) 
energy

$$$$
8:0
     RDKit          3D

 53 57  0  0  0  0  0  0  0  0999 V2000
   62.3030   30.8800   50.7570 C   0  0  0  0  0  0  0  0  0  0  0  0
   61.7950   32.1970   50.3770 N   0  0  0  0  0  0  0  0  0  0  0  0
   62.5010   33.2610   49.9430 C   0  0  0  0  0  0  0  0  0  0  0  0
   64.2680   33.2580   49.6140 S   0  0  0  0  0  0  0  0  0  0  0  0
   64.0980   33.4730   47.8050 C   0  0  0  0  0  0  0  0  0  0  0  0
   62.8390   32.7840   47.2740 C   0  0  0  0  0  0  0  0  0  0  0  0
   62.0190   33.7250   46.3690 C   0  0  0  0  0  0  0  0  0  0  0  0
   60.5810   33.3860   46.3040 N   0  0  0  0  0  0  0  0  0  0  0  0
   59.6970   34.5730   46.1220 C   0  0  0  0  0  0  0  0  0  0  0  0
   58.2040   34.1610   46.0920 C   0  0  2  0  0  0  0  0  0  0  0  0
   57.9030   33.4710   47.4250 C   0  0  0  0  0  0  0  0  0  0  0  0
   58.6170   32.1290   47.2260 C   0  0  2  0  0  0  0  0  0  0  0  0
   60.1360   32.4080   47.3380 C   0  0  0  0  0  0  0  0  0  0  0  0
   58.2650   31.8340   45.8010 C   0  0  0  0  0  0  0  0  0  0  0  0
   58.2740   30.6160   45.1150 C   0  0  0  0  0  0  0  0  0  0  0  0
   58.6670   28.9720   46.0080 Br  0  0  0  0  0  0  0  0  0  0  0  0
   57.9980   30.6250   43.7370 C   0  0  0  0  0  0  0  0  0  0  0  0
   57.7500   31.8410   43.0680 C   0  0  0  0  0  0  0  0  0  0  0  0
   57.7740   33.0540   43.7720 C   0  0  0  0  0  0  0  0  0  0  0  0
   58.0220   33.0210   45.1440 C   0  0  0  0  0  0  0  0  0  0  0  0
   61.7150   34.3370   49.7590 N   0  0  0  0  0  0  0  0  0  0  0  0
   60.4800   33.9660   50.0600 N   0  0  0  0  0  0  0  0  0  0  0  0
   60.5280   32.6670   50.4180 C   0  0  0  0  0  0  0  0  0  0  0  0
   59.3280   31.8910   50.7910 C   0  0  0  0  0  0  0  0  0  0  0  0
   59.2690   30.5200   50.5030 C   0  0  0  0  0  0  0  0  0  0  0  0
   58.1410   29.7820   50.8780 C   0  0  0  0  0  0  0  0  0  0  0  0
   57.1170   30.3900   51.5330 N   0  0  0  0  0  0  0  0  0  0  0  0
   57.1560   31.7120   51.8450 C   0  0  0  0  0  0  0  0  0  0  0  0
   58.2640   32.4850   51.4860 C   0  0  0  0  0  0  0  0  0  0  0  0
   62.3334   30.8012   51.8538 H   0  0  0  0  0  0  0  0  0  0  0  0
   61.6410   30.1007   50.3516 H   0  0  0  0  0  0  0  0  0  0  0  0
   63.3169   30.7471   50.3516 H   0  0  0  0  0  0  0  0  0  0  0  0
   64.0407   34.5475   47.5766 H   0  0  0  0  0  0  0  0  0  0  0  0
   64.9726   33.0154   47.3195 H   0  0  0  0  0  0  0  0  0  0  0  0
   63.1345   31.8976   46.6935 H   0  0  0  0  0  0  0  0  0  0  0  0
   62.2133   32.4991   48.1326 H   0  0  0  0  0  0  0  0  0  0  0  0
   62.1167   34.7502   46.7555 H   0  0  0  0  0  0  0  0  0  0  0  0
   62.4197   33.6197   45.3500 H   0  0  0  0  0  0  0  0  0  0  0  0
   59.8594   35.2724   46.9554 H   0  0  0  0  0  0  0  0  0  0  0  0
   59.9462   35.0486   45.1620 H   0  0  0  0  0  0  0  0  0  0  0  0
   57.5998   35.0485   45.8528 H   0  0  0  0  0  0  0  0  0  0  0  0
   58.3233   34.0305   48.2737 H   0  0  0  0  0  0  0  0  0  0  0  0
   56.8318   33.3848   47.6599 H   0  0  0  0  0  0  0  0  0  0  0  0
   58.3544   31.3244   47.9286 H   0  0  0  0  0  0  0  0  0  0  0  0
   60.3534   32.8166   48.3359 H   0  0  0  0  0  0  0  0  0  0  0  0
   60.6768   31.4632   47.1803 H   0  0  0  0  0  0  0  0  0  0  0  0
   57.9754   29.6782   43.1774 H   0  0  0  0  0  0  0  0  0  0  0  0
   57.5367   31.8385   41.9889 H   0  0  0  0  0  0  0  0  0  0  0  0
   57.6013   34.0089   43.2540 H   0  0  0  0  0  0  0  0  0  0  0  0
   60.1050   30.0273   49.9850 H   0  0  0  0  0  0  0  0  0  0  0  0
   58.0829   28.7091   50.6426 H   0  0  0  0  0  0  0  0  0  0  0  0
   56.3142   32.1747   52.3810 H   0  0  0  0  0  0  0  0  0  0  0  0
   58.3014   33.5529   51.7470 H   0  0  0  0  0  0  0  0  0  0  0  0
  1  2  1  0
  2  3  1  0
  3  4  1  0
  4  5  1  0
  5  6  1  0
  6  7  1  0
  7  8  1  0
  8  9  1  0
  9 10  1  0
 10 11  1  0
 11 12  1  0
 12 13  1  0
 12 14  1  0
 14 15  2  0
 15 16  1  0
 15 17  1  0
 17 18  2  0
 18 19  1  0
 19 20  2  0
  3 21  2  0
 21 22  1  0
 22 23  2  0
 23 24  1  0
 24 25  2  0
 25 26  1  0
 26 27  2  0
 27 28  1  0
 28 29  2  0
 23  2  1  0
 29 24  1  0
 13  8  1  0
 20 14  1  0
 20 10  1  0
  1 30  1  0
  1 31  1  0
  1 32  1  0
  5 33  1  0
  5 34  1  0
  6 35  1  0
  6 36  1  0
  7 37  1  0
  7 38  1  0
  9 39  1  0
  9 40  1  0
 10 41  1  6
 11 42  1  0
 11 43  1  0
 12 44  1  1
 13 45  1  0
 13 46  1  0
 17 47  1  0
 18 48  1  0
 19 49  1  0
 25 50  1  0
 26 51  1  0
 28 52  1  0
 29 53  1  0
M  END
>  <UniqueID>  (9) 
9

>  <SMILES>  (9) 
Cn1c(SCCCN2C[C@@H]3C[C@H](C2)c2c(Br)cccc23)nnc1-c1ccncc1

>  <Energy>  (9) 
119.30265686201764

>  <Genealogy>  (9) 
Cn1c(SCCCN2C[C@@H]3C[C@H](C2)c2c(Br)cccc23)nnc1-c1ccncc1 (chirality)
Cn1c(SCCCN2C[C@@H]3C[C@H](C2)c2c(Br)cccc23)nnc1-c1ccncc1 (3D coordinates assigned)
Cn1c(SCCCN2C[C@@H]3C[C@H](C2)c2c(Br)cccc23)nnc1-c1ccncc1 (nonaromatic ring conformer: 119.30265686201764 kcal/mol)

>  <smiles>  (9) 
Cn1c(SCCCN2CC3CC(C2)c2c(Br)cccc23)nnc1-c1ccncc1

>  <score_type>  (9) 
oracle

>  <origin>  (9) 
adg

>  <m_score__min__energy>  (9) 
-9.6600000000000001

>  <m_primary>  (9) 
energy

$$$$
9:0
     RDKit          3D

 61 64  0  0  0  0  0  0  0  0999 V2000
   63.3530   33.8130   46.7780 C   0  0  0  0  0  0  0  0  0  0  0  0
   63.1000   33.6110   48.2680 C   0  0  0  0  0  0  0  0  0  0  0  0
   62.5930   32.2440   48.5150 N   0  0  0  0  0  0  0  0  0  0  0  0
   62.6430   31.4060   47.3060 C   0  0  0  0  0  0  0  0  0  0  0  0
   63.2040   31.5930   49.6990 C   0  0  0  0  0  0  0  0  0  0  0  0
   62.5970   32.0250   51.0520 C   0  0  0  0  0  0  0  0  0  0  0  0
   61.1840   32.0010   50.9730 O   0  0  0  0  0  0  0  0  0  0  0  0
   60.6720   30.8040   51.5240 C   0  0  0  0  0  0  0  0  0  0  0  0
   59.3980   30.4030   50.7810 C   0  0  0  0  0  0  0  0  0  0  0  0
   58.8580   31.5570   49.9270 C   0  0  0  0  0  0  0  0  0  0  0  0
   59.7960   31.8910   48.8560 N   0  0  0  0  0  0  0  0  0  0  0  0
   59.3780   31.8210   47.4880 C   0  0  0  0  0  0  0  0  0  0  0  0
   59.0600   30.5910   46.9280 C   0  0  0  0  0  0  0  0  0  0  0  0
   58.6180   30.4980   45.6230 C   0  0  0  0  0  0  0  0  0  0  0  0
   58.3750   31.6130   44.8600 N   0  0  0  0  0  0  0  0  0  0  0  0
   57.6070   31.4990   43.6090 C   0  0  0  0  0  0  0  0  0  0  0  0
   58.8150   32.8420   45.3280 C   0  0  0  0  0  0  0  0  0  0  0  0
   58.8150   33.9960   44.5070 C   0  0  0  0  0  0  0  0  0  0  0  0
   59.2440   35.2280   45.0010 C   0  0  0  0  0  0  0  0  0  0  0  0
   59.7000   35.3410   46.3120 C   0  0  0  0  0  0  0  0  0  0  0  0
   59.7430   34.2200   47.1380 C   0  0  0  0  0  0  0  0  0  0  0  0
   59.3090   32.9660   46.6670 C   0  0  0  0  0  0  0  0  0  0  0  0
   58.4180   29.0750   45.3240 C   0  0  0  0  0  0  0  0  0  0  0  0
   58.1850   28.4020   44.1140 C   0  0  0  0  0  0  0  0  0  0  0  0
   58.1190   27.0000   44.1250 C   0  0  0  0  0  0  0  0  0  0  0  0
   58.3260   26.2860   45.3170 C   0  0  0  0  0  0  0  0  0  0  0  0
   58.6260   26.9670   46.5060 C   0  0  0  0  0  0  0  0  0  0  0  0
   58.6770   28.3620   46.4850 C   0  0  0  0  0  0  0  0  0  0  0  0
   59.0950   29.2550   47.6080 C   0  0  0  0  0  0  0  0  0  0  0  0
   64.2058   34.4939   46.6399 H   0  0  0  0  0  0  0  0  0  0  0  0
   63.5782   32.8435   46.3096 H   0  0  0  0  0  0  0  0  0  0  0  0
   62.4575   34.2473   46.3096 H   0  0  0  0  0  0  0  0  0  0  0  0
   64.0404   33.7558   48.8199 H   0  0  0  0  0  0  0  0  0  0  0  0
   62.3507   34.3407   48.6088 H   0  0  0  0  0  0  0  0  0  0  0  0
   62.7062   30.3469   47.5963 H   0  0  0  0  0  0  0  0  0  0  0  0
   61.7335   31.5689   46.7091 H   0  0  0  0  0  0  0  0  0  0  0  0
   63.5266   31.6759   46.7091 H   0  0  0  0  0  0  0  0  0  0  0  0
   63.0766   30.5052   49.5969 H   0  0  0  0  0  0  0  0  0  0  0  0
   64.2594   31.9027   49.7165 H   0  0  0  0  0  0  0  0  0  0  0  0
   62.9305   31.3331   51.8394 H   0  0  0  0  0  0  0  0  0  0  0  0
   62.9302   33.0459   51.2902 H   0  0  0  0  0  0  0  0  0  0  0  0
   61.4213   30.0049   51.4241 H   0  0  0  0  0  0  0  0  0  0  0  0
   60.4411   30.9604   52.5881 H   0  0  0  0  0  0  0  0  0  0  0  0
   59.6204   29.5475   50.1262 H   0  0  0  0  0  0  0  0  0  0  0  0
   58.6332   30.1378   51.5259 H   0  0  0  0  0  0  0  0  0  0  0  0
   57.8960   31.2592   49.4845 H   0  0  0  0  0  0  0  0  0  0  0  0
   58.7258   32.4402   50.5692 H   0  0  0  0  0  0  0  0  0  0  0  0
   60.8210   31.9460   49.0550 H   0  0  0  0  0  0  0  0  0  0  0  0
   56.5441   31.3412   43.8444 H   0  0  0  0  0  0  0  0  0  0  0  0
   57.7197   32.4237   43.0240 H   0  0  0  0  0  0  0  0  0  0  0  0
   57.9834   30.6469   43.0240 H   0  0  0  0  0  0  0  0  0  0  0  0
   58.4717   33.9197   43.4647 H   0  0  0  0  0  0  0  0  0  0  0  0
   59.2220   36.1154   44.3513 H   0  0  0  0  0  0  0  0  0  0  0  0
   60.0272   36.3183   46.6965 H   0  0  0  0  0  0  0  0  0  0  0  0
   60.1193   34.3153   48.1672 H   0  0  0  0  0  0  0  0  0  0  0  0
   58.0567   28.9623   43.1761 H   0  0  0  0  0  0  0  0  0  0  0  0
   57.9036   26.4563   43.1933 H   0  0  0  0  0  0  0  0  0  0  0  0
   58.2525   25.1885   45.3179 H   0  0  0  0  0  0  0  0  0  0  0  0
   58.8173   26.4128   47.4367 H   0  0  0  0  0  0  0  0  0  0  0  0
   58.3862   29.2089   48.4479 H   0  0  0  0  0  0  0  0  0  0  0  0
   60.0644   28.9976   48.0596 H   0  0  0  0  0  0  0  0  0  0  0  0
  1  2  1  0
  2  3  1  0
  3  4  1  0
  3  5  1  0
  5  6  1  0
  6  7  1  0
  7  8  1  0
  8  9  1  0
  9 10  1  0
 10 11  1  0
 11 12  1  0
 12 13  2  0
 13 14  1  0
 14 15  2  0
 15 16  1  0
 15 17  1  0
 17 18  2  0
 18 19  1  0
 19 20  2  0
 20 21  1  0
 21 22  2  0
 14 23  1  0
 23 24  2  0
 24 25  1  0
 25 26  2  0
 26 27  1  0
 27 28  2  0
 28 29  1  0
 22 12  1  0
 28 23  1  0
 29 13  1  0
 22 17  1  0
  1 30  1  0
  1 31  1  0
  1 32  1  0
  2 33  1  0
  2 34  1  0
  4 35  1  0
  4 36  1  0
  4 37  1  0
  5 38  1  0
  5 39  1  0
  6 40  1  0
  6 41  1  0
  8 42  1  0
  8 43  1  0
  9 44  1  0
  9 45  1  0
 10 46  1  0
 10 47  1  0
 11 48  1  0
 16 49  1  0
 16 50  1  0
 16 51  1  0
 18 52  1  0
 19 53  1  0
 20 54  1  0
 21 55  1  0
 24 56  1  0
 25 57  1  0
 26 58  1  0
 27 59  1  0
 29 60  1  0
 29 61  1  0
M  CHG  1  15   1
M  END
>  <UniqueID>  (10) 
10

>  <SMILES>  (10) 
CCN(C)CCOCCCNc1c2c([n+](C)c3ccccc13)-c1ccccc1C2

>  <Energy>  (10) 
106.08807547607003

>  <Genealogy>  (10) 
CCN(C)CCOCCCNc1c2c([n+](C)c3ccccc13)-c1ccccc1C2 (3D coordinates assigned)
CCN(C)CCOCCCNc1c2c([n+](C)c3ccccc13)-c1ccccc1C2 (nonaromatic ring conformer: 106.08807547607003 kcal/mol)

>  <smiles>  (10) 
CCN(C)CCOCCCNc1c2c([n+](C)c3ccccc13)-c1ccccc1C2

>  <score_type>  (10) 
oracle

>  <origin>  (10) 
adg

>  <m_score__min__energy>  (10) 
-6.21

>  <m_primary>  (10) 
energy

$$$$
10:0
     RDKit          3D

 53 55  0  0  0  0  0  0  0  0999 V2000
   53.4360   31.1770   51.2530 C   0  0  0  0  0  0  0  0  0  0  0  0
   53.2070   29.7630   51.7910 C   0  0  0  0  0  0  0  0  0  0  0  0
   54.4730   29.0310   51.9860 N   0  0  0  0  0  0  0  0  0  0  0  0
   55.0550   29.2340   53.3330 C   0  0  0  0  0  0  0  0  0  0  0  0
   56.5590   29.5380   53.2780 C   0  0  0  0  0  0  0  0  0  0  0  0
   57.0400   29.3410   51.9610 O   0  0  0  0  0  0  0  0  0  0  0  0
   56.9810   30.5170   51.2530 N   0  0  0  0  0  0  0  0  0  0  0  0
   58.3390   30.9980   50.9780 C   0  0  0  0  0  0  0  0  0  0  0  0
   58.3690   31.8580   49.7110 C   0  0  0  0  0  0  0  0  0  0  0  0
   59.2510   31.2690   48.7040 N   0  0  0  0  0  0  0  0  0  0  0  0
   58.9930   31.4850   47.3090 C   0  0  0  0  0  0  0  0  0  0  0  0
   59.0950   32.7770   46.7690 C   0  0  0  0  0  0  0  0  0  0  0  0
   59.4380   33.8740   47.5880 C   0  0  0  0  0  0  0  0  0  0  0  0
   59.6150   35.1420   47.0400 C   0  0  0  0  0  0  0  0  0  0  0  0
   59.4620   35.3350   45.6730 C   0  0  0  0  0  0  0  0  0  0  0  0
   59.1020   34.2700   44.8480 C   0  0  0  0  0  0  0  0  0  0  0  0
   58.8740   32.9750   45.3800 C   0  0  0  0  0  0  0  0  0  0  0  0
   58.4720   31.9190   44.5840 N   0  0  0  0  0  0  0  0  0  0  0  0
   57.9710   32.1740   43.2140 C   0  0  0  0  0  0  0  0  0  0  0  0
   58.5070   30.6260   45.0770 C   0  0  0  0  0  0  0  0  0  0  0  0
   58.3460   29.4980   44.2320 C   0  0  0  0  0  0  0  0  0  0  0  0
   58.3230   28.2030   44.7540 C   0  0  0  0  0  0  0  0  0  0  0  0
   58.1130   26.8280   43.6840 Cl  0  0  0  0  0  0  0  0  0  0  0  0
   58.4700   27.9990   46.1220 C   0  0  0  0  0  0  0  0  0  0  0  0
   58.6750   29.0830   46.9710 C   0  0  0  0  0  0  0  0  0  0  0  0
   58.7260   30.3970   46.4620 C   0  0  0  0  0  0  0  0  0  0  0  0
   53.5492   31.8758   52.0949 H   0  0  0  0  0  0  0  0  0  0  0  0
   54.3483   31.1923   50.6386 H   0  0  0  0  0  0  0  0  0  0  0  0
   52.5751   31.4794   50.6386 H   0  0  0  0  0  0  0  0  0  0  0  0
   52.6845   29.8313   52.7566 H   0  0  0  0  0  0  0  0  0  0  0  0
   52.6080   29.2121   51.0509 H   0  0  0  0  0  0  0  0  0  0  0  0
   54.3130   28.0080   51.8320 H   0  0  0  0  0  0  0  0  0  0  0  0
   55.1520   29.3350   51.2480 H   0  0  0  0  0  0  0  0  0  0  0  0
   54.5410   30.0776   53.8170 H   0  0  0  0  0  0  0  0  0  0  0  0
   54.9206   28.3021   53.9017 H   0  0  0  0  0  0  0  0  0  0  0  0
   56.7317   30.5822   53.5775 H   0  0  0  0  0  0  0  0  0  0  0  0
   57.0915   28.8628   53.9640 H   0  0  0  0  0  0  0  0  0  0  0  0
   56.4190   31.2630   51.7320 H   0  0  0  0  0  0  0  0  0  0  0  0
   58.6871   31.6002   51.8302 H   0  0  0  0  0  0  0  0  0  0  0  0
   58.9958   30.1285   50.8277 H   0  0  0  0  0  0  0  0  0  0  0  0
   57.3511   31.9309   49.3005 H   0  0  0  0  0  0  0  0  0  0  0  0
   58.7492   32.8567   49.9718 H   0  0  0  0  0  0  0  0  0  0  0  0
   59.9130   30.5040   48.9660 H   0  0  0  0  0  0  0  0  0  0  0  0
   59.5669   33.7259   48.6703 H   0  0  0  0  0  0  0  0  0  0  0  0
   59.8759   35.9905   47.6896 H   0  0  0  0  0  0  0  0  0  0  0  0
   59.6256   36.3325   45.2392 H   0  0  0  0  0  0  0  0  0  0  0  0
   58.9930   34.4370   43.7662 H   0  0  0  0  0  0  0  0  0  0  0  0
   56.9919   32.6724   43.2685 H   0  0  0  0  0  0  0  0  0  0  0  0
   58.6819   32.8200   42.6779 H   0  0  0  0  0  0  0  0  0  0  0  0
   57.8671   31.2191   42.6779 H   0  0  0  0  0  0  0  0  0  0  0  0
   58.2375   29.6459   43.1474 H   0  0  0  0  0  0  0  0  0  0  0  0
   58.4242   26.9799   46.5335 H   0  0  0  0  0  0  0  0  0  0  0  0
   58.7985   28.9126   48.0507 H   0  0  0  0  0  0  0  0  0  0  0  0
  1  2  1  0
  2  3  1  0
  3  4  1  0
  4  5  1  0
  5  6  1  0
  6  7  1  0
  7  8  1  0
  8  9  1  0
  9 10  1  0
 10 11  1  0
 11 12  2  0
 12 13  1  0
 13 14  2  0
 14 15  1  0
 15 16  2  0
 16 17  1  0
 17 18  2  0
 18 19  1  0
 18 20  1  0
 20 21  2  0
 21 22  1  0
 22 23  1  0
 22 24  2  0
 24 25  1  0
 25 26  2  0
 26 11  1  0
 17 12  1  0
 26 20  1  0
  1 27  1  0
  1 28  1  0
  1 29  1  0
  2 30  1  0
  2 31  1  0
  3 32  1  0
  3 33  1  0
  4 34  1  0
  4 35  1  0
  5 36  1  0
  5 37  1  0
  7 38  1  0
  8 39  1  0
  8 40  1  0
  9 41  1  0
  9 42  1  0
 10 43  1  0
 13 44  1  0
 14 45  1  0
 15 46  1  0
 16 47  1  0
 19 48  1  0
 19 49  1  0
 19 50  1  0
 21 51  1  0
 24 52  1  0
 25 53  1  0
M  CHG  2   3   1  18   1
M  END
>  <UniqueID>  (11) 
11

>  <SMILES>  (11) 
CC[NH2+]CCONCCNc1c2ccccc2[n+](C)c2cc(Cl)ccc12

>  <Energy>  (11) 
79.7068024970938

>  <Genealogy>  (11) 
CC[NH2+]CCONCCNc1c2ccccc2[n+](C)c2cc(Cl)ccc12 (protonated)
CC[NH2+]CCONCCNc1c2ccccc2[n+](C)c2cc(Cl)ccc12 (3D coordinates assigned)
CC[NH2+]CCONCCNc1c2ccccc2[n+](C)c2cc(Cl)ccc12 (optimized conformer: 79.7068024970938 kcal/mol)

>  <smiles>  (11) 
CCNCCONCCNc1c2ccccc2[n+](C)c2cc(Cl)ccc12

>  <score_type>  (11) 
oracle

>  <origin>  (11) 
adg

>  <m_score__min__energy>  (11) 
-5.0199999999999996

>  <m_primary>  (11) 
energy

$$$$
11:0
     RDKit          3D

 37 38  0  0  0  0  0  0  0  0999 V2000
   56.3210   29.7260   42.6600 C   0  0  0  0  0  0  0  0  0  0  0  0
   56.8600   30.4700   43.8790 C   0  0  0  0  0  0  0  0  0  0  0  0
   56.5540   29.7610   45.0800 O   0  0  0  0  0  0  0  0  0  0  0  0
   57.3290   28.7350   45.6470 C   0  0  0  0  0  0  0  0  0  0  0  0
   58.3580   28.9890   46.5690 C   0  0  0  0  0  0  0  0  0  0  0  0
   59.0720   27.9080   47.0920 C   0  0  0  0  0  0  0  0  0  0  0  0
   60.1790   28.1340   48.0710 C   0  0  0  0  0  0  0  0  0  0  0  0
   58.7720   26.6470   46.6900 N   0  0  0  0  0  0  0  0  0  0  0  0
   57.7800   26.4060   45.7940 C   0  0  0  0  0  0  0  0  0  0  0  0
   57.5010   25.0560   45.3840 N   0  0  0  0  0  0  0  0  0  0  0  0
   58.5110   24.0100   45.3910 C   0  0  0  0  0  0  0  0  0  0  0  0
   57.9710   22.9100   44.4890 C   0  0  0  0  0  0  0  0  0  0  0  0
   56.4720   23.1650   44.3760 C   0  0  0  0  0  0  0  0  0  0  0  0
   56.2710   24.6480   44.7130 C   0  0  1  0  0  0  0  0  0  0  0  0
   55.0280   24.8680   45.5980 C   0  0  0  0  0  0  0  0  0  0  0  0
   54.8730   26.2250   45.9120 O   0  0  0  0  0  0  0  0  0  0  0  0
   57.0680   27.4490   45.2810 N   0  0  0  0  0  0  0  0  0  0  0  0
   55.7056   28.8766   42.9914 H   0  0  0  0  0  0  0  0  0  0  0  0
   55.7071   30.4096   42.0551 H   0  0  0  0  0  0  0  0  0  0  0  0
   57.1618   29.3557   42.0551 H   0  0  0  0  0  0  0  0  0  0  0  0
   57.9516   30.5702   43.7872 H   0  0  0  0  0  0  0  0  0  0  0  0
   56.3877   31.4624   43.9245 H   0  0  0  0  0  0  0  0  0  0  0  0
   58.5969   30.0188   46.8732 H   0  0  0  0  0  0  0  0  0  0  0  0
   59.7851   28.0536   49.0949 H   0  0  0  0  0  0  0  0  0  0  0  0
   60.9629   27.3774   47.9192 H   0  0  0  0  0  0  0  0  0  0  0  0
   60.6036   29.1373   47.9192 H   0  0  0  0  0  0  0  0  0  0  0  0
   59.4640   24.3945   44.9986 H   0  0  0  0  0  0  0  0  0  0  0  0
   58.7063   23.6411   46.4087 H   0  0  0  0  0  0  0  0  0  0  0  0
   58.4442   22.9609   43.4973 H   0  0  0  0  0  0  0  0  0  0  0  0
   58.1824   21.9108   44.8975 H   0  0  0  0  0  0  0  0  0  0  0  0
   56.1241   22.9543   43.3540 H   0  0  0  0  0  0  0  0  0  0  0  0
   55.8997   22.5155   45.0547 H   0  0  0  0  0  0  0  0  0  0  0  0
   56.0855   25.2507   43.8117 H   0  0  0  0  0  0  0  0  0  0  0  0
   54.1352   24.5186   45.0587 H   0  0  0  0  0  0  0  0  0  0  0  0
   55.1570   24.3029   46.5329 H   0  0  0  0  0  0  0  0  0  0  0  0
   55.1220   26.3260   46.8680 H   0  0  0  0  0  0  0  0  0  0  0  0
   56.2870   27.2700   44.6120 H   0  0  0  0  0  0  0  0  0  0  0  0
  1  2  1  0
  2  3  1  0
  3  4  1  0
  4  5  2  0
  5  6  1  0
  6  7  1  0
  6  8  2  0
  8  9  1  0
  9 10  1  0
 10 11  1  0
 11 12  1  0
 12 13  1  0
 13 14  1  0
 14 15  1  0
 15 16  1  0
  9 17  2  0
 17  4  1  0
 14 10  1  0
  1 18  1  0
  1 19  1  0
  1 20  1  0
  2 21  1  0
  2 22  1  0
  5 23  1  0
  7 24  1  0
  7 25  1  0
  7 26  1  0
 11 27  1  0
 11 28  1  0
 12 29  1  0
 12 30  1  0
 13 31  1  0
 13 32  1  0
 14 33  1  6
 15 34  1  0
 15 35  1  0
 16 36  1  0
 17 37  1  0
M  CHG  1  17   1
M  END
>  <UniqueID>  (12) 
12

>  <SMILES>  (12) 
CCOc1cc(C)nc(N2CCC[C@H]2CO)[nH+]1

>  <Energy>  (12) 
37.08916087766866

>  <Genealogy>  (12) 
CCOc1cc(C)nc(N2CCCC2CO)[nH+]1 (protonated)
CCOc1cc(C)nc(N2CCC[C@H]2CO)[nH+]1 (chirality)
CCOc1cc(C)nc(N2CCC[C@H]2CO)[nH+]1 (3D coordinates assigned)
CCOc1cc(C)nc(N2CCC[C@H]2CO)[nH+]1 (nonaromatic ring conformer: 37.08916087766866 kcal/mol)

>  <smiles>  (12) 
CCOc1cc(C)nc(N2CCCC2CO)n1

>  <score_type>  (12) 
oracle

>  <origin>  (12) 
adg

>  <m_score__min__energy>  (12) 
-5.0999999999999996

>  <m_primary>  (12) 
energy

$$$$
12:0
     RDKit          3D

 58 59  0  0  0  0  0  0  0  0999 V2000
   59.6801   26.0100   48.1345 H   0  0  0  0  0  0  0  0  0  0  0  0
   59.2690   26.4860   47.2320 C   0  0  0  0  0  0  0  0  0  0  0  0
   57.8850   26.6090   47.0750 C   0  0  0  0  0  0  0  0  0  0  0  0
   57.2080   26.2285   47.8541 H   0  0  0  0  0  0  0  0  0  0  0  0
   57.3600   27.2150   45.9290 C   0  0  0  0  0  0  0  0  0  0  0  0
   56.2709   27.3165   45.8127 H   0  0  0  0  0  0  0  0  0  0  0  0
   58.2180   27.6940   44.9270 C   0  0  0  0  0  0  0  0  0  0  0  0
   57.6600   28.3980   43.7220 C   0  0  0  0  0  0  0  0  0  0  0  0
   57.1458   27.6672   43.0805 H   0  0  0  0  0  0  0  0  0  0  0  0
   58.4857   28.8697   43.1690 H   0  0  0  0  0  0  0  0  0  0  0  0
   56.5010   29.6600   44.2230 S   0  0  0  0  0  0  0  0  0  0  0  0
   56.3810   30.6750   43.1230 O   0  0  0  0  0  0  0  0  0  0  0  0
   55.1420   29.0710   44.4850 O   0  0  0  0  0  0  0  0  0  0  0  0
   57.0750   30.4560   45.6540 N   0  0  0  0  0  0  0  0  0  0  0  0
   57.7790   31.7060   45.6980 C   0  0  0  0  0  0  0  0  0  0  0  0
   57.4500   32.7620   44.8280 C   0  0  0  0  0  0  0  0  0  0  0  0
   56.6664   32.6192   44.0694 H   0  0  0  0  0  0  0  0  0  0  0  0
   58.1090   33.9890   44.9190 C   0  0  0  0  0  0  0  0  0  0  0  0
   57.8420   34.8073   44.2341 H   0  0  0  0  0  0  0  0  0  0  0  0
   59.1050   34.1800   45.8760 C   0  0  0  0  0  0  0  0  0  0  0  0
   59.9230   35.7280   45.9950 Cl  0  0  0  0  0  0  0  0  0  0  0  0
   59.4490   33.1400   46.7410 C   0  0  0  0  0  0  0  0  0  0  0  0
   60.2370   33.2949   47.4927 H   0  0  0  0  0  0  0  0  0  0  0  0
   58.7980   31.8960   46.6610 C   0  0  0  0  0  0  0  0  0  0  0  0
   59.2170   30.8030   47.5810 C   0  0  0  0  0  0  0  0  0  0  0  0
   58.5230   30.5290   48.6430 N   0  0  0  0  0  0  0  0  0  0  0  0
   58.9100   30.9380   49.9000 O   0  0  0  0  0  0  0  0  0  0  0  0
   58.2000   31.9640   50.5750 C   0  0  0  0  0  0  0  0  0  0  0  0
   58.9143   32.6477   51.0571 H   0  0  0  0  0  0  0  0  0  0  0  0
   57.5879   32.5224   49.8515 H   0  0  0  0  0  0  0  0  0  0  0  0
   57.2970   31.3470   51.6320 C   0  0  0  0  0  0  0  0  0  0  0  0
   57.6744   31.6049   52.6325 H   0  0  0  0  0  0  0  0  0  0  0  0
   56.2751   31.7365   51.5140 H   0  0  0  0  0  0  0  0  0  0  0  0
   57.2885   30.2534   51.5140 H   0  0  0  0  0  0  0  0  0  0  0  0
   60.4480   29.9750   47.2970 C   0  0  0  0  0  0  0  0  0  0  0  0
   60.2038   29.2454   46.5109 H   0  0  0  0  0  0  0  0  0  0  0  0
   60.7371   29.4885   48.2403 H   0  0  0  0  0  0  0  0  0  0  0  0
   61.6530   30.8120   46.8290 C   0  0  0  0  0  0  0  0  0  0  0  0
   61.3016   31.5322   46.0755 H   0  0  0  0  0  0  0  0  0  0  0  0
   62.3938   30.1049   46.4276 H   0  0  0  0  0  0  0  0  0  0  0  0
   62.3510   31.5940   47.9570 C   0  0  0  0  0  0  0  0  0  0  0  0
   63.0786   30.9294   48.4458 H   0  0  0  0  0  0  0  0  0  0  0  0
   61.5704   31.9324   48.6542 H   0  0  0  0  0  0  0  0  0  0  0  0
   63.0870   32.8380   47.4560 C   0  0  0  0  0  0  0  0  0  0  0  0
   63.1011   32.8406   46.3561 H   0  0  0  0  0  0  0  0  0  0  0  0
   64.1217   32.8342   47.8295 H   0  0  0  0  0  0  0  0  0  0  0  0
   62.4140   33.9880   47.9240 O   0  0  0  0  0  0  0  0  0  0  0  0
   62.0790   33.8480   49.2920 C   0  0  0  0  0  0  0  0  0  0  0  0
   62.7055   34.5259   49.8902 H   0  0  0  0  0  0  0  0  0  0  0  0
   62.2528   32.8058   49.5981 H   0  0  0  0  0  0  0  0  0  0  0  0
   60.6110   34.1920   49.5150 C   0  0  0  0  0  0  0  0  0  0  0  0
   60.4056   34.2401   50.5946 H   0  0  0  0  0  0  0  0  0  0  0  0
   60.3889   35.1665   49.0557 H   0  0  0  0  0  0  0  0  0  0  0  0
   59.9791   33.4176   49.0557 H   0  0  0  0  0  0  0  0  0  0  0  0
   59.6080   27.5750   45.0940 C   0  0  0  0  0  0  0  0  0  0  0  0
   60.2881   27.9601   44.3200 H   0  0  0  0  0  0  0  0  0  0  0  0
   60.1300   26.9680   46.2420 C   0  0  0  0  0  0  0  0  0  0  0  0
   61.2187   26.8702   46.3653 H   0  0  0  0  0  0  0  0  0  0  0  0
  1  2  1  0
  2  3  2  0
  3  4  1  0
  3  5  1  0
  5  6  1  0
  5  7  2  0
  7  8  1  0
  8  9  1  0
  8 10  1  0
  8 11  1  0
 11 12  2  0
 11 13  2  0
 11 14  1  0
 14 15  1  0
 15 16  2  0
 16 17  1  0
 16 18  1  0
 18 19  1  0
 18 20  2  0
 20 21  1  0
 20 22  1  0
 22 23  1  0
 22 24  2  0
 24 25  1  0
 25 26  2  0
 26 27  1  0
 27 28  1  0
 28 29  1  0
 28 30  1  0
 28 31  1  0
 31 32  1  0
 31 33  1  0
 31 34  1  0
 25 35  1  0
 35 36  1  0
 35 37  1  0
 35 38  1  0
 38 39  1  0
 38 40  1  0
 38 41  1  0
 41 42  1  0
 41 43  1  0
 41 44  1  0
 44 45  1  0
 44 46  1  0
 44 47  1  0
 47 48  1  0
 48 49  1  0
 48 50  1  0
 48 51  1  0
 51 52  1  0
 51 53  1  0
 51 54  1  0
  7 55  1  0
 55 56  1  0
 55 57  2  0
 57 58  1  0
 57  2  1  0
 24 15  1  0
M  CHG  1  14  -1
M  END
>  <UniqueID>  (13) 
13

>  <SMILES>  (13) 
CCOCCCC/C(=N/OCC)c1cc(Cl)ccc1[N-]S(=O)(=O)Cc1ccccc1

>  <Energy>  (13) 
49.41732414702643

>  <Genealogy>  (13) 
CCOCCCCC(=NOCC)c1cc(Cl)ccc1[N-]S(=O)(=O)Cc1ccccc1 (protonated)
CCOCCCC/C(=N/OCC)c1cc(Cl)ccc1[N-]S(=O)(=O)Cc1ccccc1 (cis-trans isomerization)
CCOCCCC/C(=N/OCC)c1cc(Cl)ccc1[N-]S(=O)(=O)Cc1ccccc1 (3D coordinates assigned)
CCOCCCC/C(=N/OCC)c1cc(Cl)ccc1[N-]S(=O)(=O)Cc1ccccc1 (optimized conformer: 49.41732414702643 kcal/mol)

>  <smiles>  (13) 
CCOCCCCC(=NOCC)c1cc(Cl)ccc1NS(=O)(=O)Cc1ccccc1

>  <score_type>  (13) 
oracle

>  <origin>  (13) 
adg

>  <m_score__min__energy>  (13) 
-10.279999999999999

>  <m_primary>  (13) 
energy

$$$$
13:0
     RDKit          3D

 80 83  0  0  0  0  0  0  0  0999 V2000
   55.8970   30.7910   51.9960 C   0  0  0  0  0  0  0  0  0  0  0  0
   57.3090   30.2390   52.1730 C   0  0  0  0  0  0  0  0  0  0  0  0
   58.2800   31.3350   52.3030 N   0  0  0  0  0  0  0  0  0  0  0  0
   57.7560   32.4150   53.1520 C   0  0  0  0  0  0  0  0  0  0  0  0
   58.1830   33.7920   52.6290 C   0  0  0  0  0  0  0  0  0  0  0  0
   59.6160   34.2040   53.0340 C   0  0  0  0  0  0  0  0  0  0  0  0
   60.7060   33.7460   52.0370 C   0  0  0  0  0  0  0  0  0  0  0  0
   60.3110   32.5840   51.2130 N   0  0  0  0  0  0  0  0  0  0  0  0
   61.1040   32.4440   49.9980 C   0  0  0  0  0  0  0  0  0  0  0  0
   62.5120   32.3720   50.0570 C   0  0  0  0  0  0  0  0  0  0  0  0
   63.1770   31.8540   51.1890 C   0  0  0  0  0  0  0  0  0  0  0  0
   64.5680   31.7840   51.2260 C   0  0  0  0  0  0  0  0  0  0  0  0
   65.3160   32.2110   50.1350 C   0  0  0  0  0  0  0  0  0  0  0  0
   64.6800   32.7190   49.0020 C   0  0  0  0  0  0  0  0  0  0  0  0
   63.2680   32.8230   48.9460 C   0  0  0  0  0  0  0  0  0  0  0  0
   62.6210   33.3530   47.8500 N   0  0  0  0  0  0  0  0  0  0  0  0
   63.3670   34.1760   46.8730 C   0  0  0  0  0  0  0  0  0  0  0  0
   61.2790   33.0840   47.6570 C   0  0  0  0  0  0  0  0  0  0  0  0
   60.6510   33.3260   46.4140 C   0  0  0  0  0  0  0  0  0  0  0  0
   59.3160   33.0000   46.2120 C   0  0  0  0  0  0  0  0  0  0  0  0
   58.5950   32.3500   47.2030 C   0  0  0  0  0  0  0  0  0  0  0  0
   59.1810   32.0540   48.4460 C   0  0  0  0  0  0  0  0  0  0  0  0
   58.5160   31.1440   49.3560 N   0  0  0  0  0  0  0  0  0  0  0  0
   58.6470   29.6830   49.3390 C   0  0  0  0  0  0  0  0  0  0  0  0
   60.1080   29.2240   49.2140 C   0  0  0  0  0  0  0  0  0  0  0  0
   60.4160   27.9350   48.3980 C   0  0  0  0  0  0  0  0  0  0  0  0
   59.9500   27.8030   46.9650 N   0  0  0  0  0  0  0  0  0  0  0  0
   60.6920   26.6360   46.4010 C   0  0  0  0  0  0  0  0  0  0  0  0
   60.3770   29.0140   46.1930 C   0  0  0  0  0  0  0  0  0  0  0  0
   59.9700   28.9880   44.7020 C   0  0  0  0  0  0  0  0  0  0  0  0
   58.5850   28.3710   44.4580 C   0  0  0  0  0  0  0  0  0  0  0  0
   57.7560   28.3330   45.7340 C   0  0  0  0  0  0  0  0  0  0  0  0
   58.4690   27.5310   46.8420 C   0  0  0  0  0  0  0  0  0  0  0  0
   60.5040   32.5250   48.7150 C   0  0  0  0  0  0  0  0  0  0  0  0
   55.4458   30.9674   52.9836 H   0  0  0  0  0  0  0  0  0  0  0  0
   55.9408   31.7382   51.4384 H   0  0  0  0  0  0  0  0  0  0  0  0
   55.2868   30.0652   51.4384 H   0  0  0  0  0  0  0  0  0  0  0  0
   57.3429   29.6165   53.0793 H   0  0  0  0  0  0  0  0  0  0  0  0
   57.5685   29.6381   51.2889 H   0  0  0  0  0  0  0  0  0  0  0  0
   59.1260   30.9360   52.7720 H   0  0  0  0  0  0  0  0  0  0  0  0
   56.6574   32.3609   53.1633 H   0  0  0  0  0  0  0  0  0  0  0  0
   58.1624   32.2875   54.1662 H   0  0  0  0  0  0  0  0  0  0  0  0
   58.1251   33.7775   51.5306 H   0  0  0  0  0  0  0  0  0  0  0  0
   57.5017   34.5281   53.0806 H   0  0  0  0  0  0  0  0  0  0  0  0
   59.6531   35.3009   53.1077 H   0  0  0  0  0  0  0  0  0  0  0  0
   59.8316   33.7084   53.9921 H   0  0  0  0  0  0  0  0  0  0  0  0
   60.9359   34.5857   51.3647 H   0  0  0  0  0  0  0  0  0  0  0  0
   61.5756   33.4343   52.6342 H   0  0  0  0  0  0  0  0  0  0  0  0
   59.3040   32.7220   50.9970 H   0  0  0  0  0  0  0  0  0  0  0  0
   60.3880   31.7110   51.7820 H   0  0  0  0  0  0  0  0  0  0  0  0
   62.5911   31.5020   52.0508 H   0  0  0  0  0  0  0  0  0  0  0  0
   65.0748   31.3904   52.1195 H   0  0  0  0  0  0  0  0  0  0  0  0
   66.4138   32.1481   50.1651 H   0  0  0  0  0  0  0  0  0  0  0  0
   65.2827   33.0431   48.1407 H   0  0  0  0  0  0  0  0  0  0  0  0
   64.0119   34.8875   47.4096 H   0  0  0  0  0  0  0  0  0  0  0  0
   63.9874   33.5231   46.2415 H   0  0  0  0  0  0  0  0  0  0  0  0
   62.6565   34.7294   46.2415 H   0  0  0  0  0  0  0  0  0  0  0  0
   61.2281   33.7792   45.5945 H   0  0  0  0  0  0  0  0  0  0  0  0
   58.8277   33.2587   45.2609 H   0  0  0  0  0  0  0  0  0  0  0  0
   57.5503   32.0622   47.0135 H   0  0  0  0  0  0  0  0  0  0  0  0
   58.0510   31.5530   50.1970 H   0  0  0  0  0  0  0  0  0  0  0  0
   58.2297   29.2806   50.2739 H   0  0  0  0  0  0  0  0  0  0  0  0
   58.1031   29.3092   48.4590 H   0  0  0  0  0  0  0  0  0  0  0  0
   60.6674   30.0466   48.7445 H   0  0  0  0  0  0  0  0  0  0  0  0
   60.3973   28.9657   50.2434 H   0  0  0  0  0  0  0  0  0  0  0  0
   61.5104   27.8245   48.3848 H   0  0  0  0  0  0  0  0  0  0  0  0
   59.8287   27.1656   48.9206 H   0  0  0  0  0  0  0  0  0  0  0  0
   61.0843   26.0190   47.2228 H   0  0  0  0  0  0  0  0  0  0  0  0
   60.0112   26.0328   45.7824 H   0  0  0  0  0  0  0  0  0  0  0  0
   61.5270   26.9966   45.7824 H   0  0  0  0  0  0  0  0  0  0  0  0
   59.9215   29.8997   46.6600 H   0  0  0  0  0  0  0  0  0  0  0  0
   61.4764   29.0368   46.2213 H   0  0  0  0  0  0  0  0  0  0  0  0
   59.9627   30.0212   44.3246 H   0  0  0  0  0  0  0  0  0  0  0  0
   60.7030   28.3582   44.1765 H   0  0  0  0  0  0  0  0  0  0  0  0
   58.0540   28.9720   43.7051 H   0  0  0  0  0  0  0  0  0  0  0  0
   58.7254   27.3377   44.1080 H   0  0  0  0  0  0  0  0  0  0  0  0
   57.5922   29.3623   46.0857 H   0  0  0  0  0  0  0  0  0  0  0  0
   56.7979   27.8408   45.5110 H   0  0  0  0  0  0  0  0  0  0  0  0
   57.9943   27.7779   47.8031 H   0  0  0  0  0  0  0  0  0  0  0  0
   58.3697   26.4698   46.5701 H   0  0  0  0  0  0  0  0  0  0  0  0
  1  2  1  0
  2  3  1  0
  3  4  1  0
  4  5  1  0
  5  6  1  0
  6  7  1  0
  7  8  1  0
  8  9  1  0
  9 10  2  0
 10 11  1  0
 11 12  2  0
 12 13  1  0
 13 14  2  0
 14 15  1  0
 15 16  2  0
 16 17  1  0
 16 18  1  0
 18 19  2  0
 19 20  1  0
 20 21  2  0
 21 22  1  0
 22 23  1  0
 23 24  1  0
 24 25  1  0
 25 26  1  0
 26 27  1  0
 27 28  1  0
 27 29  1  0
 29 30  1  0
 30 31  1  0
 31 32  1  0
 32 33  1  0
 22 34  2  0
 34  9  1  0
 15 10  1  0
 34 18  1  0
 33 27  1  0
  1 35  1  0
  1 36  1  0
  1 37  1  0
  2 38  1  0
  2 39  1  0
  3 40  1  0
  4 41  1  0
  4 42  1  0
  5 43  1  0
  5 44  1  0
  6 45  1  0
  6 46  1  0
  7 47  1  0
  7 48  1  0
  8 49  1  0
  8 50  1  0
 11 51  1  0
 12 52  1  0
 13 53  1  0
 14 54  1  0
 17 55  1  0
 17 56  1  0
 17 57  1  0
 19 58  1  0
 20 59  1  0
 21 60  1  0
 23 61  1  0
 24 62  1  0
 24 63  1  0
 25 64  1  0
 25 65  1  0
 26 66  1  0
 26 67  1  0
 28 68  1  0
 28 69  1  0
 28 70  1  0
 29 71  1  0
 29 72  1  0
 30 73  1  0
 30 74  1  0
 31 75  1  0
 31 76  1  0
 32 77  1  0
 32 78  1  0
 33 79  1  0
 33 80  1  0
M  CHG  3   8   1  16   1  27   1
M  END
>  <UniqueID>  (14) 
14

>  <SMILES>  (14) 
CCNCCCC[NH2+]c1c2ccccc2[n+](C)c2cccc(NCCC[N+]3(C)CCCCC3)c12

>  <Energy>  (14) 
138.43397758803638

>  <Genealogy>  (14) 
CCNCCCC[NH2+]c1c2ccccc2[n+](C)c2cccc(NCCC[N+]3(C)CCCCC3)c12 (protonated)
CCNCCCC[NH2+]c1c2ccccc2[n+](C)c2cccc(NCCC[N+]3(C)CCCCC3)c12 (3D coordinates assigned)
CCNCCCC[NH2+]c1c2ccccc2[n+](C)c2cccc(NCCC[N+]3(C)CCCCC3)c12 (nonaromatic ring conformer: 138.43397758803638 kcal/mol)

>  <smiles>  (14) 
CCNCCCCNc1c2ccccc2[n+](C)c2cccc(NCCC[N+]3(C)CCCCC3)c12

>  <score_type>  (14) 
oracle

>  <origin>  (14) 
adg

>  <m_score__min__energy>  (14) 
-3.98

>  <m_primary>  (14) 
energy

$$$$
14:0
     RDKit          3D

 52 54  0  0  0  0  0  0  0  0999 V2000
   57.3770   23.0240   46.9130 C   0  0  0  0  0  0  0  0  0  0  0  0
   56.9870   24.3970   46.4510 C   0  0  0  0  0  0  0  0  0  0  0  0
   55.6560   24.6870   46.1090 C   0  0  0  0  0  0  0  0  0  0  0  0
   55.2960   25.9730   45.6990 C   0  0  0  0  0  0  0  0  0  0  0  0
   56.2600   26.9840   45.6340 C   0  0  0  0  0  0  0  0  0  0  0  0
   55.9070   28.2390   45.2480 N   0  0  0  0  0  0  0  0  0  0  0  0
   56.8080   29.2550   45.1920 C   0  0  0  0  0  0  0  0  0  0  0  0
   56.4220   30.4010   44.8410 O   0  0  0  0  0  0  0  0  0  0  0  0
   58.1550   29.0270   45.5330 C   0  0  0  0  0  0  0  0  0  0  0  0
   59.1520   30.1580   45.5540 C   0  0  0  0  0  0  0  0  0  0  0  0
   59.5280   30.4800   46.9490 N   0  0  0  0  0  0  0  0  0  0  0  0
   60.9950   30.5050   47.1650 C   0  0  0  0  0  0  0  0  0  0  0  0
   61.3320   31.1930   48.4980 C   0  0  0  0  0  0  0  0  0  0  0  0
   61.8760   32.6280   48.3130 C   0  0  0  0  0  0  0  0  0  0  0  0
   63.2620   32.6330   47.7950 N   0  0  0  0  0  0  0  0  0  0  0  0
   64.2250   33.0120   48.8450 C   0  0  0  0  0  0  0  0  0  0  0  0
   63.3680   33.5850   46.6770 C   0  0  0  0  0  0  0  0  0  0  0  0
   58.8470   31.6920   47.4670 C   0  0  0  0  0  0  0  0  0  0  0  0
   58.6850   32.7870   46.4390 C   0  0  0  0  0  0  0  0  0  0  0  0
   57.5140   33.0860   45.7530 C   0  0  0  0  0  0  0  0  0  0  0  0
   57.6480   34.1650   44.8700 C   0  0  0  0  0  0  0  0  0  0  0  0
   58.9210   34.7200   44.8590 C   0  0  0  0  0  0  0  0  0  0  0  0
   59.8750   33.8710   45.9510 S   0  0  0  0  0  0  0  0  0  0  0  0
   58.5420   27.7350   45.9230 C   0  0  0  0  0  0  0  0  0  0  0  0
   57.5970   26.7050   45.9800 C   0  0  0  0  0  0  0  0  0  0  0  0
   57.9550   25.4120   46.3910 C   0  0  0  0  0  0  0  0  0  0  0  0
   57.3851   22.9957   48.0126 H   0  0  0  0  0  0  0  0  0  0  0  0
   56.6520   22.2894   46.5326 H   0  0  0  0  0  0  0  0  0  0  0  0
   58.3799   22.7802   46.5326 H   0  0  0  0  0  0  0  0  0  0  0  0
   54.8926   23.8969   46.1643 H   0  0  0  0  0  0  0  0  0  0  0  0
   54.2527   26.1907   45.4269 H   0  0  0  0  0  0  0  0  0  0  0  0
   60.0511   29.8606   44.9944 H   0  0  0  0  0  0  0  0  0  0  0  0
   58.6983   31.0460   45.0897 H   0  0  0  0  0  0  0  0  0  0  0  0
   61.3756   29.4731   47.1840 H   0  0  0  0  0  0  0  0  0  0  0  0
   61.4654   31.0680   46.3454 H   0  0  0  0  0  0  0  0  0  0  0  0
   60.4189   31.2398   49.1096 H   0  0  0  0  0  0  0  0  0  0  0  0
   62.1208   30.6010   48.9851 H   0  0  0  0  0  0  0  0  0  0  0  0
   61.2295   33.1640   47.6026 H   0  0  0  0  0  0  0  0  0  0  0  0
   61.8793   33.1195   49.2971 H   0  0  0  0  0  0  0  0  0  0  0  0
   63.7772   32.8358   49.8341 H   0  0  0  0  0  0  0  0  0  0  0  0
   65.1371   32.4058   48.7421 H   0  0  0  0  0  0  0  0  0  0  0  0
   64.4792   34.0773   48.7421 H   0  0  0  0  0  0  0  0  0  0  0  0
   63.4816   34.6048   47.0733 H   0  0  0  0  0  0  0  0  0  0  0  0
   64.2435   33.3314   46.0612 H   0  0  0  0  0  0  0  0  0  0  0  0
   62.4582   33.5301   46.0612 H   0  0  0  0  0  0  0  0  0  0  0  0
   57.8482   31.4021   47.8252 H   0  0  0  0  0  0  0  0  0  0  0  0
   59.4810   32.0973   48.2694 H   0  0  0  0  0  0  0  0  0  0  0  0
   56.5747   32.5302   45.8899 H   0  0  0  0  0  0  0  0  0  0  0  0
   56.8232   34.5374   44.2446 H   0  0  0  0  0  0  0  0  0  0  0  0
   59.2485   35.5694   44.2415 H   0  0  0  0  0  0  0  0  0  0  0  0
   59.5910   27.5321   46.1844 H   0  0  0  0  0  0  0  0  0  0  0  0
   58.9971   25.1931   46.6670 H   0  0  0  0  0  0  0  0  0  0  0  0
  1  2  1  0
  2  3  2  0
  3  4  1  0
  4  5  2  0
  5  6  1  0
  6  7  1  0
  7  8  2  0
  7  9  1  0
  9 10  1  0
 10 11  1  0
 11 12  1  0
 12 13  1  0
 13 14  1  0
 14 15  1  0
 15 16  1  0
 15 17  1  0
 11 18  1  0
 18 19  1  0
 19 20  2  0
 20 21  1  0
 21 22  2  0
 22 23  1  0
  9 24  2  0
 24 25  1  0
 25 26  2  0
 26  2  1  0
 25  5  1  0
 23 19  1  0
  1 27  1  0
  1 28  1  0
  1 29  1  0
  3 30  1  0
  4 31  1  0
 10 32  1  0
 10 33  1  0
 12 34  1  0
 12 35  1  0
 13 36  1  0
 13 37  1  0
 14 38  1  0
 14 39  1  0
 16 40  1  0
 16 41  1  0
 16 42  1  0
 17 43  1  0
 17 44  1  0
 17 45  1  0
 18 46  1  0
 18 47  1  0
 20 48  1  0
 21 49  1  0
 22 50  1  0
 24 51  1  0
 26 52  1  0
M  CHG  1   6  -1
M  END
>  <UniqueID>  (15) 
15

>  <SMILES>  (15) 
Cc1ccc2[n-]c(=O)c(CN(CCCN(C)C)Cc3cccs3)cc2c1

>  <Energy>  (15) 
84.42555479940108

>  <Genealogy>  (15) 
Cc1ccc2[n-]c(=O)c(CN(CCCN(C)C)Cc3cccs3)cc2c1 (protonated)
Cc1ccc2[n-]c(=O)c(CN(CCCN(C)C)Cc3cccs3)cc2c1 (3D coordinates assigned)
Cc1ccc2[n-]c(=O)c(CN(CCCN(C)C)Cc3cccs3)cc2c1 (optimized conformer: 84.42555479940108 kcal/mol)

>  <smiles>  (15) 
Cc1ccc2[nH]c(=O)c(CN(CCCN(C)C)Cc3cccs3)cc2c1

>  <score_type>  (15) 
oracle

>  <origin>  (15) 
adg

>  <m_score__min__energy>  (15) 
-9.5

>  <m_primary>  (15) 
energy

$$$$
15:0
     RDKit          3D

 40 43  0  0  0  0  0  0  0  0999 V2000
   58.9370   29.6490   44.1800 C   0  0  0  0  0  0  0  0  0  0  0  0
   57.5110   29.8560   44.3900 N   0  0  0  0  0  0  0  0  0  0  0  0
   56.8150   29.3790   45.4050 N   0  0  0  0  0  0  0  0  0  0  0  0
   55.5420   29.7130   45.2380 N   0  0  0  0  0  0  0  0  0  0  0  0
   55.3950   30.3980   44.1110 N   0  0  0  0  0  0  0  0  0  0  0  0
   56.6300   30.4730   43.5860 C   0  0  0  0  0  0  0  0  0  0  0  0
   57.0290   31.2900   42.0370 S   0  0  0  0  0  0  0  0  0  0  0  0
   58.1500   32.5220   42.7920 C   0  0  0  0  0  0  0  0  0  0  0  0
   57.8810   32.7740   44.2910 C   0  0  0  0  0  0  0  0  0  0  0  0
   59.0010   33.3270   45.0890 N   0  0  0  0  0  0  0  0  0  0  0  0
   59.0110   34.7830   45.2430 C   0  0  0  0  0  0  0  0  0  0  0  0
   59.8810   35.0960   46.4510 C   0  0  1  0  0  0  0  0  0  0  0  0
   59.2540   34.9030   47.8250 C   0  0  0  0  0  0  0  0  0  0  0  0
   60.0570   33.7760   47.1860 C   0  0  2  0  0  0  0  0  0  0  0  0
   61.4540   33.5070   47.6820 C   0  0  0  0  0  0  0  0  0  0  0  0
   62.5090   33.3630   46.7660 C   0  0  0  0  0  0  0  0  0  0  0  0
   63.8130   33.1500   47.2230 C   0  0  0  0  0  0  0  0  0  0  0  0
   64.0740   33.0920   48.5960 C   0  0  0  0  0  0  0  0  0  0  0  0
   65.3390   32.8860   49.0370 F   0  0  0  0  0  0  0  0  0  0  0  0
   63.0320   33.2550   49.5130 C   0  0  0  0  0  0  0  0  0  0  0  0
   61.7260   33.4680   49.0590 C   0  0  0  0  0  0  0  0  0  0  0  0
   59.3090   32.7190   46.3870 C   0  0  0  0  0  0  0  0  0  0  0  0
   59.4441   29.5754   45.1534 H   0  0  0  0  0  0  0  0  0  0  0  0
   59.0930   28.7188   43.6140 H   0  0  0  0  0  0  0  0  0  0  0  0
   59.3511   30.4964   43.6140 H   0  0  0  0  0  0  0  0  0  0  0  0
   59.1841   32.1638   42.6808 H   0  0  0  0  0  0  0  0  0  0  0  0
   57.9758   33.4750   42.2709 H   0  0  0  0  0  0  0  0  0  0  0  0
   57.0406   33.4800   44.3638 H   0  0  0  0  0  0  0  0  0  0  0  0
   57.6873   31.7794   44.7190 H   0  0  0  0  0  0  0  0  0  0  0  0
   59.4307   35.2553   44.3426 H   0  0  0  0  0  0  0  0  0  0  0  0
   57.9909   35.1702   45.3827 H   0  0  0  0  0  0  0  0  0  0  0  0
   60.4796   35.9238   46.0431 H   0  0  0  0  0  0  0  0  0  0  0  0
   59.6579   35.4418   48.6948 H   0  0  0  0  0  0  0  0  0  0  0  0
   58.2389   34.9984   48.2378 H   0  0  0  0  0  0  0  0  0  0  0  0
   62.3086   33.4180   45.6858 H   0  0  0  0  0  0  0  0  0  0  0  0
   64.6347   33.0279   46.5020 H   0  0  0  0  0  0  0  0  0  0  0  0
   63.2389   33.2158   50.5926 H   0  0  0  0  0  0  0  0  0  0  0  0
   60.9095   33.6054   49.7832 H   0  0  0  0  0  0  0  0  0  0  0  0
   59.9392   31.8278   46.2504 H   0  0  0  0  0  0  0  0  0  0  0  0
   58.3936   32.3984   46.9060 H   0  0  0  0  0  0  0  0  0  0  0  0
  1  2  1  0
  2  3  1  0
  3  4  2  0
  4  5  1  0
  5  6  2  0
  6  7  1  0
  7  8  1  0
  8  9  1  0
  9 10  1  0
 10 11  1  0
 11 12  1  0
 12 13  1  0
 13 14  1  0
 14 15  1  1
 15 16  2  0
 16 17  1  0
 17 18  2  0
 18 19  1  0
 18 20  1  0
 20 21  2  0
 14 22  1  0
  6  2  1  0
 22 10  1  0
 14 12  1  0
 21 15  1  0
  1 23  1  0
  1 24  1  0
  1 25  1  0
  8 26  1  0
  8 27  1  0
  9 28  1  0
  9 29  1  0
 11 30  1  0
 11 31  1  0
 12 32  1  6
 13 33  1  0
 13 34  1  0
 16 35  1  0
 17 36  1  0
 20 37  1  0
 21 38  1  0
 22 39  1  0
 22 40  1  0
M  END
>  <UniqueID>  (16) 
16

>  <SMILES>  (16) 
Cn1nnnc1SCCN1C[C@H]2C[C@@]2(c2ccc(F)cc2)C1

>  <Energy>  (16) 
357.0623852950861

>  <Genealogy>  (16) 
Cn1nnnc1SCCN1C[C@H]2C[C@@]2(c2ccc(F)cc2)C1 (chirality)
Cn1nnnc1SCCN1C[C@H]2C[C@@]2(c2ccc(F)cc2)C1 (3D coordinates assigned)
Cn1nnnc1SCCN1C[C@H]2C[C@@]2(c2ccc(F)cc2)C1 (nonaromatic ring conformer: 357.0623852950861 kcal/mol)

>  <smiles>  (16) 
Cn1nnnc1SCCN1CC2CC2(c2ccc(F)cc2)C1

>  <score_type>  (16) 
oracle

>  <origin>  (16) 
adg

>  <m_score__min__energy>  (16) 
-8.4100000000000001

>  <m_primary>  (16) 
energy

$$$$
16:0
     RDKit          3D

 52 55  0  0  0  0  0  0  0  0999 V2000
   60.4590   28.8420   44.9970 C   0  0  0  0  0  0  0  0  0  0  0  0
   59.1010   28.7520   44.4800 N   0  0  0  0  0  0  0  0  0  0  0  0
   58.6460   27.7870   43.7030 N   0  0  0  0  0  0  0  0  0  0  0  0
   57.3930   28.0760   43.3850 N   0  0  0  0  0  0  0  0  0  0  0  0
   57.0150   29.2230   43.9310 N   0  0  0  0  0  0  0  0  0  0  0  0
   58.0990   29.6410   44.6100 C   0  0  0  0  0  0  0  0  0  0  0  0
   58.1840   31.1710   45.5450 S   0  0  0  0  0  0  0  0  0  0  0  0
   57.7290   32.2520   44.1390 C   0  0  0  0  0  0  0  0  0  0  0  0
   57.9570   33.7310   44.4720 C   0  0  0  0  0  0  0  0  0  0  0  0
   59.4300   34.0410   44.7750 C   0  0  0  0  0  0  0  0  0  0  0  0
   59.5900   34.5350   46.1580 N   0  0  0  0  0  0  0  0  0  0  0  0
   58.4160   34.2200   46.9880 C   0  0  0  0  0  0  0  0  0  0  0  0
   58.9150   33.7160   48.3460 C   0  0  1  0  0  0  0  0  0  0  0  0
   58.6630   32.2220   48.5920 C   0  0  0  0  0  0  0  0  0  0  0  0
   59.9430   31.6900   49.2240 C   0  0  0  0  0  0  0  0  0  0  0  0
   60.9740   32.6800   48.9440 N   0  0  0  0  0  0  0  0  0  0  0  0
   62.3620   32.5260   49.3290 C   0  0  0  0  0  0  0  0  0  0  0  0
   62.7330   31.6810   50.3940 C   0  0  0  0  0  0  0  0  0  0  0  0
   64.0720   31.5380   50.7620 C   0  0  0  0  0  0  0  0  0  0  0  0
   65.0820   32.2180   50.0640 C   0  0  0  0  0  0  0  0  0  0  0  0
   66.5230   32.1010   50.4940 C   0  0  0  0  0  0  0  0  0  0  0  0
   66.6690   32.4670   51.8200 F   0  0  0  0  0  0  0  0  0  0  0  0
   67.3310   32.9230   49.7260 F   0  0  0  0  0  0  0  0  0  0  0  0
   66.9370   30.7910   50.3400 F   0  0  0  0  0  0  0  0  0  0  0  0
   64.7200   33.0790   49.0160 C   0  0  0  0  0  0  0  0  0  0  0  0
   63.3800   33.2240   48.6470 C   0  0  0  0  0  0  0  0  0  0  0  0
   60.4160   33.8750   48.3160 C   0  0  1  0  0  0  0  0  0  0  0  0
   60.7580   33.9520   46.8340 C   0  0  0  0  0  0  0  0  0  0  0  0
   60.4335   28.8403   46.0967 H   0  0  0  0  0  0  0  0  0  0  0  0
   61.0442   27.9807   44.6425 H   0  0  0  0  0  0  0  0  0  0  0  0
   60.9254   29.7730   44.6425 H   0  0  0  0  0  0  0  0  0  0  0  0
   56.7860   27.4810   42.7800 H   0  0  0  0  0  0  0  0  0  0  0  0
   58.3437   31.9828   43.2674 H   0  0  0  0  0  0  0  0  0  0  0  0
   56.6601   32.1071   43.9235 H   0  0  0  0  0  0  0  0  0  0  0  0
   57.6369   34.3400   43.6137 H   0  0  0  0  0  0  0  0  0  0  0  0
   57.3718   33.9666   45.3731 H   0  0  0  0  0  0  0  0  0  0  0  0
   60.0245   33.1242   44.6488 H   0  0  0  0  0  0  0  0  0  0  0  0
   59.7755   34.8210   44.0805 H   0  0  0  0  0  0  0  0  0  0  0  0
   57.8045   35.1237   47.1274 H   0  0  0  0  0  0  0  0  0  0  0  0
   57.7989   33.4516   46.4995 H   0  0  0  0  0  0  0  0  0  0  0  0
   58.3864   34.2810   49.1279 H   0  0  0  0  0  0  0  0  0  0  0  0
   57.8114   32.0834   49.2743 H   0  0  0  0  0  0  0  0  0  0  0  0
   58.4178   31.6914   47.6601 H   0  0  0  0  0  0  0  0  0  0  0  0
   59.8121   31.5719   50.3098 H   0  0  0  0  0  0  0  0  0  0  0  0
   60.2120   30.7039   48.8174 H   0  0  0  0  0  0  0  0  0  0  0  0
   61.9572   31.1267   50.9426 H   0  0  0  0  0  0  0  0  0  0  0  0
   64.3380   30.8861   51.6071 H   0  0  0  0  0  0  0  0  0  0  0  0
   65.4974   33.6441   48.4809 H   0  0  0  0  0  0  0  0  0  0  0  0
   63.1158   33.8914   47.8135 H   0  0  0  0  0  0  0  0  0  0  0  0
   60.8076   34.7566   48.8446 H   0  0  0  0  0  0  0  0  0  0  0  0
   61.6411   34.5900   46.6819 H   0  0  0  0  0  0  0  0  0  0  0  0
   60.9908   32.9555   46.4305 H   0  0  0  0  0  0  0  0  0  0  0  0
  1  2  1  0
  2  3  1  0
  3  4  2  0
  4  5  1  0
  5  6  2  0
  6  7  1  0
  7  8  1  0
  8  9  1  0
  9 10  1  0
 10 11  1  0
 11 12  1  0
 12 13  1  0
 13 14  1  0
 14 15  1  0
 15 16  1  0
 16 17  1  0
 17 18  2  0
 18 19  1  0
 19 20  2  0
 20 21  1  0
 21 22  1  0
 21 23  1  0
 21 24  1  0
 20 25  1  0
 25 26  2  0
 16 27  1  0
 27 28  1  0
  6  2  1  0
 28 11  1  0
 27 13  1  0
 26 17  1  0
  1 29  1  0
  1 30  1  0
  1 31  1  0
  4 32  1  0
  8 33  1  0
  8 34  1  0
  9 35  1  0
  9 36  1  0
 10 37  1  0
 10 38  1  0
 12 39  1  0
 12 40  1  0
 13 41  1  1
 14 42  1  0
 14 43  1  0
 15 44  1  0
 15 45  1  0
 18 46  1  0
 19 47  1  0
 25 48  1  0
 26 49  1  0
 27 50  1  1
 28 51  1  0
 28 52  1  0
M  CHG  1   4   1
M  END
>  <UniqueID>  (17) 
17

>  <SMILES>  (17) 
Cn1n[nH+]nc1SCCCN1C[C@H]2CCN(c3ccc(C(F)(F)F)cc3)[C@H]2C1

>  <Energy>  (17) 
95.15583539610552

>  <Genealogy>  (17) 
Cn1n[nH+]nc1SCCCN1CC2CCN(c3ccc(C(F)(F)F)cc3)C2C1 (protonated)
Cn1n[nH+]nc1SCCCN1C[C@H]2CCN(c3ccc(C(F)(F)F)cc3)[C@H]2C1 (chirality)
Cn1n[nH+]nc1SCCCN1C[C@H]2CCN(c3ccc(C(F)(F)F)cc3)[C@H]2C1 (3D coordinates assigned)
Cn1n[nH+]nc1SCCCN1C[C@H]2CCN(c3ccc(C(F)(F)F)cc3)[C@H]2C1 (nonaromatic ring conformer: 95.15583539610552 kcal/mol)

>  <smiles>  (17) 
Cn1nnnc1SCCCN1CC2CCN(c3ccc(C(F)(F)F)cc3)C2C1

>  <score_type>  (17) 
oracle

>  <origin>  (17) 
adg

>  <m_score__min__energy>  (17) 
-7.3099999999999996

>  <m_primary>  (17) 
energy

$$$$
