0:0
     RDKit          3D

 53 55  0  0  0  0  0  0  0  0999 V2000
   58.3140   26.2710   46.9160 C   0  0  0  0  0  0  0  0  0  0  0  0
   59.7300   26.1890   46.3590 C   0  0  0  0  0  0  0  0  0  0  0  0
   60.6200   27.0830   47.1080 N   0  0  0  0  0  0  0  0  0  0  0  0
   60.0130   27.4420   48.3940 C   0  0  0  0  0  0  0  0  0  0  0  0
   59.7940   28.9540   48.4670 C   0  0  0  0  0  0  0  0  0  0  0  0
   60.1350   29.5970   47.1960 N   0  0  0  0  0  0  0  0  0  0  0  0
   59.3670   30.6930   46.6720 C   0  0  0  0  0  0  0  0  0  0  0  0
   59.5030   31.9710   47.2340 C   0  0  0  0  0  0  0  0  0  0  0  0
   58.8350   33.0640   46.6530 C   0  0  0  0  0  0  0  0  0  0  0  0
   57.9220   32.8670   45.6370 N   0  0  0  0  0  0  0  0  0  0  0  0
   57.0270   33.9710   45.2330 C   0  0  0  0  0  0  0  0  0  0  0  0
   57.8310   31.6320   45.0210 C   0  0  0  0  0  0  0  0  0  0  0  0
   57.0700   31.4420   43.8420 C   0  0  0  0  0  0  0  0  0  0  0  0
   56.9330   30.1800   43.2680 C   0  0  0  0  0  0  0  0  0  0  0  0
   57.5370   29.0620   43.8530 C   0  0  0  0  0  0  0  0  0  0  0  0
   57.3950   27.7580   43.2550 N   0  0  0  0  0  0  0  0  0  0  0  0
   58.6970   27.0900   43.1850 C   0  0  0  0  0  0  0  0  0  0  0  0
   58.3350   29.2380   44.9920 C   0  0  0  0  0  0  0  0  0  0  0  0
   58.5230   30.5140   45.5600 C   0  0  0  0  0  0  0  0  0  0  0  0
   59.1660   34.4430   47.2030 C   0  0  0  0  0  0  0  0  0  0  0  0
   60.6730   34.5650   47.4780 C   0  0  0  0  0  0  0  0  0  0  0  0
   61.2410   33.4240   48.3510 C   0  0  0  0  0  0  0  0  0  0  0  0
   60.3010   32.2160   48.4970 C   0  0  0  0  0  0  0  0  0  0  0  0
   58.3517   26.2688   48.0154 H   0  0  0  0  0  0  0  0  0  0  0  0
   57.8360   27.1983   46.5674 H   0  0  0  0  0  0  0  0  0  0  0  0
   57.7321   25.4050   46.5674 H   0  0  0  0  0  0  0  0  0  0  0  0
   60.0957   25.1552   46.4461 H   0  0  0  0  0  0  0  0  0  0  0  0
   59.7191   26.4949   45.3025 H   0  0  0  0  0  0  0  0  0  0  0  0
   61.5050   26.5590   47.3070 H   0  0  0  0  0  0  0  0  0  0  0  0
   59.0454   26.9287   48.4957 H   0  0  0  0  0  0  0  0  0  0  0  0
   60.6861   27.1356   49.2083 H   0  0  0  0  0  0  0  0  0  0  0  0
   58.7373   29.1534   48.6986 H   0  0  0  0  0  0  0  0  0  0  0  0
   60.4455   29.3644   49.2526 H   0  0  0  0  0  0  0  0  0  0  0  0
   60.9090   29.2020   46.6180 H   0  0  0  0  0  0  0  0  0  0  0  0
   56.6263   34.4653   46.1303 H   0  0  0  0  0  0  0  0  0  0  0  0
   57.5919   34.7004   44.6340 H   0  0  0  0  0  0  0  0  0  0  0  0
   56.1965   33.5692   44.6340 H   0  0  0  0  0  0  0  0  0  0  0  0
   56.5784   32.3060   43.3711 H   0  0  0  0  0  0  0  0  0  0  0  0
   56.3444   30.0616   42.3463 H   0  0  0  0  0  0  0  0  0  0  0  0
   56.7380   27.1720   43.8200 H   0  0  0  0  0  0  0  0  0  0  0  0
   56.9990   27.8430   42.2890 H   0  0  0  0  0  0  0  0  0  0  0  0
   59.0669   26.9002   44.2034 H   0  0  0  0  0  0  0  0  0  0  0  0
   58.5908   26.1350   42.6495 H   0  0  0  0  0  0  0  0  0  0  0  0
   59.4108   27.7332   42.6495 H   0  0  0  0  0  0  0  0  0  0  0  0
   58.8229   28.3651   45.4503 H   0  0  0  0  0  0  0  0  0  0  0  0
   58.8690   35.2064   46.4689 H   0  0  0  0  0  0  0  0  0  0  0  0
   58.6191   34.5907   48.1459 H   0  0  0  0  0  0  0  0  0  0  0  0
   61.2030   34.5611   46.5141 H   0  0  0  0  0  0  0  0  0  0  0  0
   60.8224   35.5009   48.0364 H   0  0  0  0  0  0  0  0  0  0  0  0
   62.1809   33.0771   47.8969 H   0  0  0  0  0  0  0  0  0  0  0  0
   61.3833   33.8382   49.3600 H   0  0  0  0  0  0  0  0  0  0  0  0
   60.9019   31.3215   48.7181 H   0  0  0  0  0  0  0  0  0  0  0  0
   59.5945   32.4282   49.3130 H   0  0  0  0  0  0  0  0  0  0  0  0
  1  2  1  0
  2  3  1  0
  3  4  1  0
  4  5  1  0
  5  6  1  0
  6  7  1  0
  7  8  2  0
  8  9  1  0
  9 10  2  0
 10 11  1  0
 10 12  1  0
 12 13  2  0
 13 14  1  0
 14 15  2  0
 15 16  1  0
 16 17  1  0
 15 18  1  0
 18 19  2  0
  9 20  1  0
 20 21  1  0
 21 22  1  0
 22 23  1  0
 19  7  1  0
 23  8  1  0
 19 12  1  0
  1 24  1  0
  1 25  1  0
  1 26  1  0
  2 27  1  0
  2 28  1  0
  3 29  1  0
  4 30  1  0
  4 31  1  0
  5 32  1  0
  5 33  1  0
  6 34  1  0
 11 35  1  0
 11 36  1  0
 11 37  1  0
 13 38  1  0
 14 39  1  0
 16 40  1  0
 16 41  1  0
 17 42  1  0
 17 43  1  0
 17 44  1  0
 18 45  1  0
 20 46  1  0
 20 47  1  0
 21 48  1  0
 21 49  1  0
 22 50  1  0
 22 51  1  0
 23 52  1  0
 23 53  1  0
M  CHG  2  10   1  16   1
M  END
>  <UniqueID>  (1) 
1

>  <SMILES>  (1) 
CCNCCNc1c2c([n+](C)c3ccc([NH2+]C)cc13)CCCC2

>  <Energy>  (1) 
71.23094782898232

>  <Genealogy>  (1) 
CCNCCNc1c2c([n+](C)c3ccc([NH2+]C)cc13)CCCC2 (protonated)
CCNCCNc1c2c([n+](C)c3ccc([NH2+]C)cc13)CCCC2 (3D coordinates assigned)
CCNCCNc1c2c([n+](C)c3ccc([NH2+]C)cc13)CCCC2 (nonaromatic ring conformer: 71.23094782898232 kcal/mol)

>  <smiles>  (1) 
CCNCCNc1c2c([n+](C)c3ccc(NC)cc13)CCCC2

>  <score_type>  (1) 
oracle

>  <origin>  (1) 
adg

>  <m_score__min__energy>  (1) 
-4.2400000000000002

>  <m_primary>  (1) 
energy

$$$$
1:0
     RDKit          3D

 68 70  0  0  0  0  0  0  0  0999 V2000
   62.9820   34.5680   50.5600 C   0  0  0  0  0  0  0  0  0  0  0  0
   62.6590   34.0260   49.1610 C   0  0  0  0  0  0  0  0  0  0  0  0
   63.3320   32.7270   48.8890 N   0  0  0  0  0  0  0  0  0  0  0  0
   63.3470   32.4500   47.4250 C   0  0  0  0  0  0  0  0  0  0  0  0
   63.3310   33.7370   46.5920 C   0  0  0  0  0  0  0  0  0  0  0  0
   64.7220   32.7400   49.4240 C   0  0  0  0  0  0  0  0  0  0  0  0
   64.9440   31.6630   50.4970 C   0  0  0  0  0  0  0  0  0  0  0  0
   63.8870   30.7210   50.4290 O   0  0  0  0  0  0  0  0  0  0  0  0
   63.6970   30.0530   51.6620 C   0  0  0  0  0  0  0  0  0  0  0  0
   62.4420   29.1660   51.6150 C   0  0  0  0  0  0  0  0  0  0  0  0
   61.1600   29.9910   51.4510 C   0  0  0  0  0  0  0  0  0  0  0  0
   61.4680   31.3480   50.9680 N   0  0  0  0  0  0  0  0  0  0  0  0
   60.3230   32.2690   51.0780 C   0  0  0  0  0  0  0  0  0  0  0  0
   59.5400   32.4190   49.7600 C   0  0  0  0  0  0  0  0  0  0  0  0
   60.2090   31.7320   48.6570 N   0  0  0  0  0  0  0  0  0  0  0  0
   59.5480   31.6000   47.3890 C   0  0  0  0  0  0  0  0  0  0  0  0
   59.3460   32.7270   46.5760 C   0  0  0  0  0  0  0  0  0  0  0  0
   59.8350   33.9930   46.9640 C   0  0  0  0  0  0  0  0  0  0  0  0
   59.6790   35.1010   46.1350 C   0  0  0  0  0  0  0  0  0  0  0  0
   59.0530   34.9640   44.9010 C   0  0  0  0  0  0  0  0  0  0  0  0
   58.5590   33.7230   44.4980 C   0  0  0  0  0  0  0  0  0  0  0  0
   58.6650   32.5840   45.3380 C   0  0  0  0  0  0  0  0  0  0  0  0
   58.1420   31.3580   44.9700 N   0  0  0  0  0  0  0  0  0  0  0  0
   57.1940   31.2660   43.8380 C   0  0  0  0  0  0  0  0  0  0  0  0
   58.4830   30.2200   45.6790 C   0  0  0  0  0  0  0  0  0  0  0  0
   58.1880   28.9200   45.1930 C   0  0  0  0  0  0  0  0  0  0  0  0
   58.4840   27.7830   45.9480 C   0  0  0  0  0  0  0  0  0  0  0  0
   58.0610   26.0480   45.2690 Br  0  0  0  0  0  0  0  0  0  0  0  0
   59.0870   27.9110   47.1950 C   0  0  0  0  0  0  0  0  0  0  0  0
   59.4280   29.1710   47.6790 C   0  0  0  0  0  0  0  0  0  0  0  0
   59.1590   30.3320   46.9240 C   0  0  0  0  0  0  0  0  0  0  0  0
   62.5752   33.8854   51.3206 H   0  0  0  0  0  0  0  0  0  0  0  0
   64.0727   34.6438   50.6811 H   0  0  0  0  0  0  0  0  0  0  0  0
   62.5296   35.5633   50.6811 H   0  0  0  0  0  0  0  0  0  0  0  0
   61.5712   33.8848   49.0789 H   0  0  0  0  0  0  0  0  0  0  0  0
   63.0263   34.7558   48.4245 H   0  0  0  0  0  0  0  0  0  0  0  0
   62.7900   31.9660   49.3660 H   0  0  0  0  0  0  0  0  0  0  0  0
   64.2567   31.8816   47.1813 H   0  0  0  0  0  0  0  0  0  0  0  0
   62.4399   31.8779   47.1802 H   0  0  0  0  0  0  0  0  0  0  0  0
   63.3202   34.6082   47.2634 H   0  0  0  0  0  0  0  0  0  0  0  0
   64.2288   33.7742   45.9574 H   0  0  0  0  0  0  0  0  0  0  0  0
   62.4326   33.7519   45.9574 H   0  0  0  0  0  0  0  0  0  0  0  0
   65.4220   32.5623   48.5943 H   0  0  0  0  0  0  0  0  0  0  0  0
   64.8935   33.7209   49.8913 H   0  0  0  0  0  0  0  0  0  0  0  0
   65.9031   31.1552   50.3173 H   0  0  0  0  0  0  0  0  0  0  0  0
   64.9640   32.1287   51.4933 H   0  0  0  0  0  0  0  0  0  0  0  0
   64.5752   29.4244   51.8706 H   0  0  0  0  0  0  0  0  0  0  0  0
   63.5675   30.8052   52.4541 H   0  0  0  0  0  0  0  0  0  0  0  0
   62.5290   28.4727   50.7655 H   0  0  0  0  0  0  0  0  0  0  0  0
   62.3754   28.6215   52.5685 H   0  0  0  0  0  0  0  0  0  0  0  0
   60.5003   29.4916   50.7262 H   0  0  0  0  0  0  0  0  0  0  0  0
   60.6644   30.0698   52.4299 H   0  0  0  0  0  0  0  0  0  0  0  0
   62.2870   31.7280   51.4970 H   0  0  0  0  0  0  0  0  0  0  0  0
   59.6390   31.8867   51.8501 H   0  0  0  0  0  0  0  0  0  0  0  0
   60.7230   33.2605   51.3368 H   0  0  0  0  0  0  0  0  0  0  0  0
   58.5353   31.9907   49.8907 H   0  0  0  0  0  0  0  0  0  0  0  0
   59.4811   33.4895   49.5141 H   0  0  0  0  0  0  0  0  0  0  0  0
   61.0190   31.1020   48.8570 H   0  0  0  0  0  0  0  0  0  0  0  0
   60.3450   34.1056   47.9321 H   0  0  0  0  0  0  0  0  0  0  0  0
   60.0511   36.0849   46.4565 H   0  0  0  0  0  0  0  0  0  0  0  0
   58.9469   35.8370   44.2403 H   0  0  0  0  0  0  0  0  0  0  0  0
   58.0794   33.6258   43.5128 H   0  0  0  0  0  0  0  0  0  0  0  0
   56.1692   31.1665   44.2251 H   0  0  0  0  0  0  0  0  0  0  0  0
   57.2672   32.1755   43.2236 H   0  0  0  0  0  0  0  0  0  0  0  0
   57.4407   30.3876   43.2236 H   0  0  0  0  0  0  0  0  0  0  0  0
   57.7182   28.8058   44.2049 H   0  0  0  0  0  0  0  0  0  0  0  0
   59.2946   27.0156   47.7993 H   0  0  0  0  0  0  0  0  0  0  0  0
   59.9131   29.2624   48.6620 H   0  0  0  0  0  0  0  0  0  0  0  0
  1  2  1  0
  2  3  1  0
  3  4  1  0
  4  5  1  0
  3  6  1  0
  6  7  1  0
  7  8  1  0
  8  9  1  0
  9 10  1  0
 10 11  1  0
 11 12  1  0
 12 13  1  0
 13 14  1  0
 14 15  1  0
 15 16  1  0
 16 17  2  0
 17 18  1  0
 18 19  2  0
 19 20  1  0
 20 21  2  0
 21 22  1  0
 22 23  2  0
 23 24  1  0
 23 25  1  0
 25 26  2  0
 26 27  1  0
 27 28  1  0
 27 29  2  0
 29 30  1  0
 30 31  2  0
 31 16  1  0
 22 17  1  0
 31 25  1  0
  1 32  1  0
  1 33  1  0
  1 34  1  0
  2 35  1  0
  2 36  1  0
  3 37  1  0
  4 38  1  0
  4 39  1  0
  5 40  1  0
  5 41  1  0
  5 42  1  0
  6 43  1  0
  6 44  1  0
  7 45  1  0
  7 46  1  0
  9 47  1  0
  9 48  1  0
 10 49  1  0
 10 50  1  0
 11 51  1  0
 11 52  1  0
 12 53  1  0
 13 54  1  0
 13 55  1  0
 14 56  1  0
 14 57  1  0
 15 58  1  0
 18 59  1  0
 19 60  1  0
 20 61  1  0
 21 62  1  0
 24 63  1  0
 24 64  1  0
 24 65  1  0
 26 66  1  0
 29 67  1  0
 30 68  1  0
M  CHG  2   3   1  23   1
M  END
>  <UniqueID>  (2) 
2

>  <SMILES>  (2) 
CC[NH+](CC)CCOCCCNCCNc1c2ccccc2[n+](C)c2cc(Br)ccc12

>  <Energy>  (2) 
95.66026328412237

>  <Genealogy>  (2) 
CC[NH+](CC)CCOCCCNCCNc1c2ccccc2[n+](C)c2cc(Br)ccc12 (protonated)
CC[NH+](CC)CCOCCCNCCNc1c2ccccc2[n+](C)c2cc(Br)ccc12 (3D coordinates assigned)
CC[NH+](CC)CCOCCCNCCNc1c2ccccc2[n+](C)c2cc(Br)ccc12 (optimized conformer: 95.66026328412237 kcal/mol)

>  <smiles>  (2) 
CCN(CC)CCOCCCNCCNc1c2ccccc2[n+](C)c2cc(Br)ccc12

>  <score_type>  (2) 
oracle

>  <origin>  (2) 
adg

>  <m_score__min__energy>  (2) 
-4.6900000000000004

>  <m_primary>  (2) 
energy

$$$$
2:0
     RDKit          3D

 46 47  0  0  0  0  0  0  0  0999 V2000
   56.2350   30.0970   45.8780 H   0  0  0  0  0  0  0  0  0  0  0  0
   55.8040   29.8830   44.9860 O   0  0  0  0  0  0  0  0  0  0  0  0
   56.3930   30.2540   43.7940 N   0  0  0  0  0  0  0  0  0  0  0  0
   57.0340   31.3870   43.6840 C   0  0  0  0  0  0  0  0  0  0  0  0
   57.1300   31.8302   42.6818 H   0  0  0  0  0  0  0  0  0  0  0  0
   57.6380   32.1100   44.8220 C   0  0  0  0  0  0  0  0  0  0  0  0
   57.8230   31.5350   45.9980 O   0  0  0  0  0  0  0  0  0  0  0  0
   58.3980   32.4100   46.7860 C   0  0  0  0  0  0  0  0  0  0  0  0
   58.7860   32.2390   48.1210 C   0  0  0  0  0  0  0  0  0  0  0  0
   58.5860   30.9860   48.8090 N   0  0  0  0  0  0  0  0  0  0  0  0
   57.8990   31.1010   49.5900 H   0  0  0  0  0  0  0  0  0  0  0  0
   58.1760   30.2960   48.1360 H   0  0  0  0  0  0  0  0  0  0  0  0
   59.8510   30.4430   49.3290 C   0  0  0  0  0  0  0  0  0  0  0  0
   59.7247   30.2129   50.3972 H   0  0  0  0  0  0  0  0  0  0  0  0
   60.6327   31.2006   49.1711 H   0  0  0  0  0  0  0  0  0  0  0  0
   60.2820   29.1610   48.5940 C   0  0  0  0  0  0  0  0  0  0  0  0
   59.9976   28.2838   49.1937 H   0  0  0  0  0  0  0  0  0  0  0  0
   61.3724   29.1756   48.4499 H   0  0  0  0  0  0  0  0  0  0  0  0
   59.6170   29.0890   47.2730 N   0  0  0  0  0  0  0  0  0  0  0  0
   59.1960   27.7070   46.9460 C   0  0  0  0  0  0  0  0  0  0  0  0
   59.3246   27.0749   47.8370 H   0  0  0  0  0  0  0  0  0  0  0  0
   59.8186   27.3466   46.1139 H   0  0  0  0  0  0  0  0  0  0  0  0
   57.7340   27.6510   46.5060 C   0  0  0  0  0  0  0  0  0  0  0  0
   57.0847   27.6261   47.3936 H   0  0  0  0  0  0  0  0  0  0  0  0
   57.4980   28.5408   45.9038 H   0  0  0  0  0  0  0  0  0  0  0  0
   57.5667   26.7458   45.9038 H   0  0  0  0  0  0  0  0  0  0  0  0
   60.4060   29.7490   46.2040 C   0  0  0  0  0  0  0  0  0  0  0  0
   59.9430   30.7222   45.9837 H   0  0  0  0  0  0  0  0  0  0  0  0
   61.4348   29.8437   46.5816 H   0  0  0  0  0  0  0  0  0  0  0  0
   60.4860   28.9460   44.8970 C   0  0  0  0  0  0  0  0  0  0  0  0
   60.5926   27.8762   45.1299 H   0  0  0  0  0  0  0  0  0  0  0  0
   59.5676   29.1043   44.3126 H   0  0  0  0  0  0  0  0  0  0  0  0
   61.3551   29.2824   44.3126 H   0  0  0  0  0  0  0  0  0  0  0  0
   59.4090   33.3370   48.7590 C   0  0  0  0  0  0  0  0  0  0  0  0
   59.7299   33.2475   49.8073 H   0  0  0  0  0  0  0  0  0  0  0  0
   59.6230   34.5470   48.0630 C   0  0  0  0  0  0  0  0  0  0  0  0
   60.1100   35.3914   48.5727 H   0  0  0  0  0  0  0  0  0  0  0  0
   59.2180   34.6800   46.7230 C   0  0  0  0  0  0  0  0  0  0  0  0
   59.3803   35.6171   46.1702 H   0  0  0  0  0  0  0  0  0  0  0  0
   58.6050   33.5860   46.1200 C   0  0  0  0  0  0  0  0  0  0  0  0
   58.1250   33.4190   44.8420 C   0  0  0  0  0  0  0  0  0  0  0  0
   58.1247   34.1510   44.0210 H   0  0  0  0  0  0  0  0  0  0  0  0
   56.2800   29.3670   42.6350 C   0  0  0  0  0  0  0  0  0  0  0  0
   56.1479   28.3303   42.9782 H   0  0  0  0  0  0  0  0  0  0  0  0
   55.4126   29.6656   42.0279 H   0  0  0  0  0  0  0  0  0  0  0  0
   57.1945   29.4386   42.0279 H   0  0  0  0  0  0  0  0  0  0  0  0
  1  2  1  0
  2  3  1  0
  3  4  2  0
  4  5  1  0
  4  6  1  0
  6  7  1  0
  7  8  1  0
  8  9  2  0
  9 10  1  0
 10 11  1  0
 10 12  1  0
 10 13  1  0
 13 14  1  0
 13 15  1  0
 13 16  1  0
 16 17  1  0
 16 18  1  0
 16 19  1  0
 19 20  1  0
 20 21  1  0
 20 22  1  0
 20 23  1  0
 23 24  1  0
 23 25  1  0
 23 26  1  0
 19 27  1  0
 27 28  1  0
 27 29  1  0
 27 30  1  0
 30 31  1  0
 30 32  1  0
 30 33  1  0
  9 34  1  0
 34 35  1  0
 34 36  2  0
 36 37  1  0
 36 38  1  0
 38 39  1  0
 38 40  2  0
 40 41  1  0
 41 42  1  0
  3 43  1  0
 43 44  1  0
 43 45  1  0
 43 46  1  0
 41  6  2  0
 40  8  1  0
M  CHG  2   3   1  10   1
M  END
>  <UniqueID>  (3) 
3

>  <SMILES>  (3) 
CCN(CC)CC[NH2+]c1cccc2cc(/C=[N+](/C)O)oc12

>  <Energy>  (3) 
81.63113924842087

>  <Genealogy>  (3) 
CCN(CC)CC[NH2+]c1cccc2cc(C=[N+](C)O)oc12 (protonated)
CCN(CC)CC[NH2+]c1cccc2cc(/C=[N+](/C)O)oc12 (cis-trans isomerization)
CCN(CC)CC[NH2+]c1cccc2cc(/C=[N+](/C)O)oc12 (3D coordinates assigned)
CCN(CC)CC[NH2+]c1cccc2cc(/C=[N+](/C)O)oc12 (optimized conformer: 81.63113924842087 kcal/mol)

>  <smiles>  (3) 
CCN(CC)CCNc1cccc2cc(C=[N+](C)[O-])oc12

>  <score_type>  (3) 
oracle

>  <origin>  (3) 
adg

>  <m_score__min__energy>  (3) 
-3.8399999999999999

>  <m_primary>  (3) 
energy

$$$$
3:0
     RDKit          3D

 30 31  0  0  0  0  0  0  0  0999 V2000
   58.8050   33.5620   47.5550 C   0  0  0  0  0  0  0  0  0  0  0  0
   57.6810   33.3160   46.5490 C   0  0  0  0  0  0  0  0  0  0  0  0
   57.9460   33.9900   45.2580 N   0  0  0  0  0  0  0  0  0  0  0  0
   59.2210   34.7250   45.3110 C   0  0  0  0  0  0  0  0  0  0  0  0
   57.8830   33.0900   44.0800 C   0  0  0  0  0  0  0  0  0  0  0  0
   57.7270   31.6360   44.4370 C   0  0  0  0  0  0  0  0  0  0  0  0
   56.4870   31.0800   44.5030 N   0  0  0  0  0  0  0  0  0  0  0  0
   56.3110   29.7750   44.8340 C   0  0  0  0  0  0  0  0  0  0  0  0
   55.1440   29.3020   44.8850 O   0  0  0  0  0  0  0  0  0  0  0  0
   57.4300   28.9720   45.1150 C   0  0  0  0  0  0  0  0  0  0  0  0
   57.3170   27.6150   45.4660 C   0  0  0  0  0  0  0  0  0  0  0  0
   58.4670   26.8650   45.7360 C   0  0  0  0  0  0  0  0  0  0  0  0
   59.7300   27.4610   45.6580 C   0  0  0  0  0  0  0  0  0  0  0  0
   59.8510   28.8090   45.3100 C   0  0  0  0  0  0  0  0  0  0  0  0
   58.7070   29.5670   45.0390 C   0  0  0  0  0  0  0  0  0  0  0  0
   58.8230   30.8780   44.7020 N   0  0  0  0  0  0  0  0  0  0  0  0
   58.4078   33.4751   48.5771 H   0  0  0  0  0  0  0  0  0  0  0  0
   59.6001   32.8166   47.4060 H   0  0  0  0  0  0  0  0  0  0  0  0
   59.2161   34.5714   47.4060 H   0  0  0  0  0  0  0  0  0  0  0  0
   57.5893   32.2339   46.3742 H   0  0  0  0  0  0  0  0  0  0  0  0
   56.7503   33.7276   46.9666 H   0  0  0  0  0  0  0  0  0  0  0  0
   59.5061   34.8894   46.3606 H   0  0  0  0  0  0  0  0  0  0  0  0
   60.0032   34.1392   44.8060 H   0  0  0  0  0  0  0  0  0  0  0  0
   59.1061   35.6954   44.8060 H   0  0  0  0  0  0  0  0  0  0  0  0
   57.0252   33.3893   43.4598 H   0  0  0  0  0  0  0  0  0  0  0  0
   58.8406   33.1894   43.5479 H   0  0  0  0  0  0  0  0  0  0  0  0
   56.3252   27.1434   45.5283 H   0  0  0  0  0  0  0  0  0  0  0  0
   58.3775   25.8035   46.0104 H   0  0  0  0  0  0  0  0  0  0  0  0
   60.6308   26.8668   45.8713 H   0  0  0  0  0  0  0  0  0  0  0  0
   60.8460   29.2741   45.2492 H   0  0  0  0  0  0  0  0  0  0  0  0
  1  2  1  0
  2  3  1  0
  3  4  1  0
  3  5  1  0
  5  6  1  0
  6  7  2  0
  7  8  1  0
  8  9  2  0
  8 10  1  0
 10 11  2  0
 11 12  1  0
 12 13  2  0
 13 14  1  0
 14 15  2  0
 15 16  1  0
 16  6  1  0
 15 10  1  0
  1 17  1  0
  1 18  1  0
  1 19  1  0
  2 20  1  0
  2 21  1  0
  4 22  1  0
  4 23  1  0
  4 24  1  0
  5 25  1  0
  5 26  1  0
 11 27  1  0
 12 28  1  0
 13 29  1  0
 14 30  1  0
M  CHG  1  16  -1
M  END
>  <UniqueID>  (4) 
4

>  <SMILES>  (4) 
CCN(C)Cc1nc(=O)c2ccccc2[n-]1

>  <Energy>  (4) 
35.48431902974762

>  <Genealogy>  (4) 
CCN(C)Cc1nc(=O)c2ccccc2[n-]1 (protonated)
CCN(C)Cc1nc(=O)c2ccccc2[n-]1 (3D coordinates assigned)
CCN(C)Cc1nc(=O)c2ccccc2[n-]1 (optimized conformer: 35.48431902974762 kcal/mol)

>  <smiles>  (4) 
CCN(C)Cc1nc(=O)c2ccccc2[nH]1

>  <score_type>  (4) 
oracle

>  <origin>  (4) 
adg

>  <m_score__min__energy>  (4) 
-7.6799999999999997

>  <m_primary>  (4) 
energy

$$$$
4:0
     RDKit          3D

 40 43  0  0  0  0  0  0  0  0999 V2000
   60.7700   26.1640   46.3680 C   0  0  0  0  0  0  0  0  0  0  0  0
   59.4080   26.6960   46.2940 N   0  0  0  0  0  0  0  0  0  0  0  0
   59.0410   27.9720   46.0110 C   0  0  0  0  0  0  0  0  0  0  0  0
   57.6740   28.0620   45.8570 C   0  0  0  0  0  0  0  0  0  0  0  0
   57.1710   26.7940   46.0590 C   0  0  0  0  0  0  0  0  0  0  0  0
   55.8720   26.2910   45.9890 C   0  0  0  0  0  0  0  0  0  0  0  0
   55.6920   24.9120   46.1970 C   0  0  0  0  0  0  0  0  0  0  0  0
   56.7980   24.0750   46.4550 C   0  0  0  0  0  0  0  0  0  0  0  0
   58.0990   24.6060   46.5090 C   0  0  0  0  0  0  0  0  0  0  0  0
   58.2560   25.9830   46.3160 C   0  0  0  0  0  0  0  0  0  0  0  0
   57.0330   29.3070   45.4360 C   0  0  0  0  0  0  0  0  0  0  0  0
   55.7970   29.3520   45.1910 O   0  0  0  0  0  0  0  0  0  0  0  0
   57.8720   30.4700   45.2740 N   0  0  0  0  0  0  0  0  0  0  0  0
   57.3400   31.7010   44.6810 C   0  0  0  0  0  0  0  0  0  0  0  0
   57.9860   32.9070   45.3100 C   0  0  0  0  0  0  0  0  0  0  0  0
   58.7090   33.8150   44.5160 C   0  0  0  0  0  0  0  0  0  0  0  0
   59.3370   34.9170   45.1030 C   0  0  0  0  0  0  0  0  0  0  0  0
   59.2550   35.1180   46.4830 C   0  0  0  0  0  0  0  0  0  0  0  0
   58.5440   34.2170   47.2800 C   0  0  0  0  0  0  0  0  0  0  0  0
   57.9140   33.1120   46.6970 C   0  0  0  0  0  0  0  0  0  0  0  0
   59.2180   30.4700   45.8880 C   0  0  0  0  0  0  0  0  0  0  0  0
   59.9520   29.1250   45.6850 C   0  0  0  0  0  0  0  0  0  0  0  0
   61.0623   26.0498   47.4223 H   0  0  0  0  0  0  0  0  0  0  0  0
   60.8087   25.1846   45.8687 H   0  0  0  0  0  0  0  0  0  0  0  0
   61.4623   26.8578   45.8687 H   0  0  0  0  0  0  0  0  0  0  0  0
   55.0173   26.9506   45.7782 H   0  0  0  0  0  0  0  0  0  0  0  0
   54.6802   24.4822   46.1582 H   0  0  0  0  0  0  0  0  0  0  0  0
   56.6414   22.9981   46.6153 H   0  0  0  0  0  0  0  0  0  0  0  0
   58.9677   23.9580   46.6974 H   0  0  0  0  0  0  0  0  0  0  0  0
   57.5459   31.7015   43.6004 H   0  0  0  0  0  0  0  0  0  0  0  0
   56.2552   31.7433   44.8585 H   0  0  0  0  0  0  0  0  0  0  0  0
   58.7805   33.6574   43.4297 H   0  0  0  0  0  0  0  0  0  0  0  0
   59.8969   35.6275   44.4771 H   0  0  0  0  0  0  0  0  0  0  0  0
   59.7504   35.9860   46.9425 H   0  0  0  0  0  0  0  0  0  0  0  0
   58.4795   34.3765   48.3665 H   0  0  0  0  0  0  0  0  0  0  0  0
   57.3602   32.4012   47.3279 H   0  0  0  0  0  0  0  0  0  0  0  0
   59.8158   31.2724   45.4311 H   0  0  0  0  0  0  0  0  0  0  0  0
   59.0959   30.6283   46.9697 H   0  0  0  0  0  0  0  0  0  0  0  0
   60.2767   29.0445   44.6371 H   0  0  0  0  0  0  0  0  0  0  0  0
   60.8230   29.0906   46.3560 H   0  0  0  0  0  0  0  0  0  0  0  0
  1  2  1  0
  2  3  1  0
  3  4  2  0
  4  5  1  0
  5  6  2  0
  6  7  1  0
  7  8  2  0
  8  9  1  0
  9 10  2  0
  4 11  1  0
 11 12  2  0
 11 13  1  0
 13 14  1  0
 14 15  1  0
 15 16  2  0
 16 17  1  0
 17 18  2  0
 18 19  1  0
 19 20  2  0
 13 21  1  0
 21 22  1  0
 10  2  1  0
 20 15  1  0
 22  3  1  0
 10  5  1  0
  1 23  1  0
  1 24  1  0
  1 25  1  0
  6 26  1  0
  7 27  1  0
  8 28  1  0
  9 29  1  0
 14 30  1  0
 14 31  1  0
 16 32  1  0
 17 33  1  0
 18 34  1  0
 19 35  1  0
 20 36  1  0
 21 37  1  0
 21 38  1  0
 22 39  1  0
 22 40  1  0
M  END
>  <UniqueID>  (5) 
5

>  <SMILES>  (5) 
Cn1c2c(c3ccccc31)C(=O)N(Cc1ccccc1)CC2

>  <Energy>  (5) 
80.4724769177625

>  <Genealogy>  (5) 
Cn1c2c(c3ccccc31)C(=O)N(Cc1ccccc1)CC2 (3D coordinates assigned)
Cn1c2c(c3ccccc31)C(=O)N(Cc1ccccc1)CC2 (nonaromatic ring conformer: 80.4724769177625 kcal/mol)

>  <smiles>  (5) 
Cn1c2c(c3ccccc31)C(=O)N(Cc1ccccc1)CC2

>  <score_type>  (5) 
oracle

>  <origin>  (5) 
adg

>  <m_score__min__energy>  (5) 
-7.8899999999999997

>  <m_primary>  (5) 
energy

$$$$
5:0
     RDKit          3D

 41 43  0  0  0  0  0  0  0  0999 V2000
   56.2680   30.3300   43.2090 C   0  0  0  0  0  0  0  0  0  0  0  0
   57.4990   31.2280   43.3420 C   0  0  0  0  0  0  0  0  0  0  0  0
   58.1900   31.0200   44.6340 N   0  0  0  0  0  0  0  0  0  0  0  0
   58.3040   32.0340   45.5780 C   0  0  0  0  0  0  0  0  0  0  0  0
   57.6070   33.6840   45.3190 S   0  0  0  0  0  0  0  0  0  0  0  0
   59.1990   34.5890   45.3260 C   0  0  0  0  0  0  0  0  0  0  0  0
   59.7700   34.7670   46.7380 C   0  0  0  0  0  0  0  0  0  0  0  0
   60.7240   33.6960   47.1050 N   0  0  0  0  0  0  0  0  0  0  0  0
   62.0120   33.8370   46.3850 C   0  0  0  0  0  0  0  0  0  0  0  0
   63.1470   33.1220   47.1370 C   0  0  0  0  0  0  0  0  0  0  0  0
   63.3790   33.6300   48.4450 O   0  0  0  0  0  0  0  0  0  0  0  0
   62.2380   34.2430   49.0290 C   0  0  0  0  0  0  0  0  0  0  0  0
   60.9060   33.6170   48.5760 C   0  0  0  0  0  0  0  0  0  0  0  0
   58.8830   31.7860   46.7940 N   0  0  0  0  0  0  0  0  0  0  0  0
   59.3830   30.5590   47.0730 C   0  0  0  0  0  0  0  0  0  0  0  0
   60.0040   30.1880   48.2700 C   0  0  0  0  0  0  0  0  0  0  0  0
   60.3960   28.8500   48.2710 C   0  0  0  0  0  0  0  0  0  0  0  0
   59.9620   28.1470   46.7930 S   0  0  0  0  0  0  0  0  0  0  0  0
   59.2850   29.5460   46.1570 C   0  0  0  0  0  0  0  0  0  0  0  0
   58.6700   29.7610   44.9340 C   0  0  0  0  0  0  0  0  0  0  0  0
   58.5440   28.8020   44.1250 O   0  0  0  0  0  0  0  0  0  0  0  0
   55.9000   30.0616   44.2103 H   0  0  0  0  0  0  0  0  0  0  0  0
   55.4800   30.8669   42.6605 H   0  0  0  0  0  0  0  0  0  0  0  0
   56.5386   29.4157   42.6605 H   0  0  0  0  0  0  0  0  0  0  0  0
   58.1972   30.9996   42.5233 H   0  0  0  0  0  0  0  0  0  0  0  0
   57.1665   32.2755   43.2952 H   0  0  0  0  0  0  0  0  0  0  0  0
   59.9258   34.0280   44.7202 H   0  0  0  0  0  0  0  0  0  0  0  0
   59.0142   35.5915   44.9126 H   0  0  0  0  0  0  0  0  0  0  0  0
   60.2903   35.7348   46.7883 H   0  0  0  0  0  0  0  0  0  0  0  0
   58.9292   34.7214   47.4458 H   0  0  0  0  0  0  0  0  0  0  0  0
   61.9128   33.3973   45.3816 H   0  0  0  0  0  0  0  0  0  0  0  0
   62.2583   34.9068   46.3153 H   0  0  0  0  0  0  0  0  0  0  0  0
   62.8901   32.0556   47.2198 H   0  0  0  0  0  0  0  0  0  0  0  0
   64.0685   33.2899   46.5603 H   0  0  0  0  0  0  0  0  0  0  0  0
   62.3132   34.1487   50.1224 H   0  0  0  0  0  0  0  0  0  0  0  0
   62.2307   35.2929   48.7008 H   0  0  0  0  0  0  0  0  0  0  0  0
   60.8896   32.5597   48.8792 H   0  0  0  0  0  0  0  0  0  0  0  0
   60.0884   34.1805   49.0494 H   0  0  0  0  0  0  0  0  0  0  0  0
   58.9390   32.5430   47.5140 H   0  0  0  0  0  0  0  0  0  0  0  0
   60.1649   30.8740   49.1147 H   0  0  0  0  0  0  0  0  0  0  0  0
   60.9051   28.3342   49.0985 H   0  0  0  0  0  0  0  0  0  0  0  0
  1  2  1  0
  2  3  1  0
  3  4  1  0
  4  5  1  0
  5  6  1  0
  6  7  1  0
  7  8  1  0
  8  9  1  0
  9 10  1  0
 10 11  1  0
 11 12  1  0
 12 13  1  0
  4 14  2  0
 14 15  1  0
 15 16  1  0
 16 17  2  0
 17 18  1  0
 18 19  1  0
 19 20  1  0
 20 21  2  0
 20  3  1  0
 13  8  1  0
 19 15  2  0
  1 22  1  0
  1 23  1  0
  1 24  1  0
  2 25  1  0
  2 26  1  0
  6 27  1  0
  6 28  1  0
  7 29  1  0
  7 30  1  0
  9 31  1  0
  9 32  1  0
 10 33  1  0
 10 34  1  0
 12 35  1  0
 12 36  1  0
 13 37  1  0
 13 38  1  0
 14 39  1  0
 16 40  1  0
 17 41  1  0
M  CHG  1  14   1
M  END
>  <UniqueID>  (6) 
6

>  <SMILES>  (6) 
CCn1c(SCCN2CCOCC2)[nH+]c2ccsc2c1=O

>  <Energy>  (6) 
88.18379955064826

>  <Genealogy>  (6) 
CCn1c(SCCN2CCOCC2)[nH+]c2ccsc2c1=O (protonated)
CCn1c(SCCN2CCOCC2)[nH+]c2ccsc2c1=O (3D coordinates assigned)
CCn1c(SCCN2CCOCC2)[nH+]c2ccsc2c1=O (nonaromatic ring conformer: 88.18379955064826 kcal/mol)

>  <smiles>  (6) 
CCn1c(SCCN2CCOCC2)nc2ccsc2c1=O

>  <score_type>  (6) 
oracle

>  <origin>  (6) 
adg

>  <m_score__min__energy>  (6) 
-4.8300000000000001

>  <m_primary>  (6) 
energy

$$$$
6:0
     RDKit          3D

 38 38  0  0  0  0  0  0  0  0999 V2000
   57.3790   32.2320   41.3750 C   0  0  0  0  0  0  0  0  0  0  0  0
   58.1310   32.3180   42.7150 C   0  0  0  0  0  0  0  0  0  0  0  0
   57.4990   31.5450   43.8130 N   0  0  0  0  0  0  0  0  0  0  0  0
   56.5740   30.4890   43.3340 C   0  0  0  0  0  0  0  0  0  0  0  0
   56.3230   29.5200   44.4430 C   0  0  0  0  0  0  0  0  0  0  0  0
   55.1550   29.3640   44.8950 O   0  0  0  0  0  0  0  0  0  0  0  0
   57.4160   28.7820   44.9950 N   0  0  0  0  0  0  0  0  0  0  0  0
   58.5830   29.3950   45.6210 C   0  0  0  0  0  0  0  0  0  0  0  0
   58.6350   29.0150   47.1060 C   0  0  0  0  0  0  0  0  0  0  0  0
   59.8460   28.9420   44.8830 C   0  0  0  0  0  0  0  0  0  0  0  0
   56.9180   32.4050   44.8670 C   0  0  0  0  0  0  0  0  0  0  0  0
   58.0070   33.1140   45.6320 C   0  0  0  0  0  0  0  0  0  0  0  0
   58.5790   34.2990   45.1350 C   0  0  0  0  0  0  0  0  0  0  0  0
   59.5750   34.9600   45.8590 C   0  0  0  0  0  0  0  0  0  0  0  0
   60.0120   34.4420   47.0820 C   0  0  0  0  0  0  0  0  0  0  0  0
   59.4500   33.2640   47.5830 C   0  0  0  0  0  0  0  0  0  0  0  0
   58.4460   32.6060   46.8660 C   0  0  0  0  0  0  0  0  0  0  0  0
   56.3027   32.1089   41.5658 H   0  0  0  0  0  0  0  0  0  0  0  0
   57.5464   33.1551   40.8007 H   0  0  0  0  0  0  0  0  0  0  0  0
   57.7505   31.3705   40.8007 H   0  0  0  0  0  0  0  0  0  0  0  0
   59.1509   31.9343   42.5645 H   0  0  0  0  0  0  0  0  0  0  0  0
   58.1165   33.3746   43.0206 H   0  0  0  0  0  0  0  0  0  0  0  0
   55.6233   30.9458   43.0217 H   0  0  0  0  0  0  0  0  0  0  0  0
   57.0220   29.9642   42.4773 H   0  0  0  0  0  0  0  0  0  0  0  0
   58.5159   30.4910   45.5558 H   0  0  0  0  0  0  0  0  0  0  0  0
   58.5113   29.9190   47.7204 H   0  0  0  0  0  0  0  0  0  0  0  0
   57.8256   28.3050   47.3313 H   0  0  0  0  0  0  0  0  0  0  0  0
   59.6053   28.5485   47.3313 H   0  0  0  0  0  0  0  0  0  0  0  0
   60.6189   28.6648   45.6150 H   0  0  0  0  0  0  0  0  0  0  0  0
   59.6100   28.0725   44.2519 H   0  0  0  0  0  0  0  0  0  0  0  0
   60.2164   29.7633   44.2519 H   0  0  0  0  0  0  0  0  0  0  0  0
   56.2579   33.1518   44.4015 H   0  0  0  0  0  0  0  0  0  0  0  0
   56.3465   31.7750   45.5645 H   0  0  0  0  0  0  0  0  0  0  0  0
   58.2406   34.7076   44.1714 H   0  0  0  0  0  0  0  0  0  0  0  0
   60.0154   35.8884   45.4665 H   0  0  0  0  0  0  0  0  0  0  0  0
   60.7980   34.9613   47.6499 H   0  0  0  0  0  0  0  0  0  0  0  0
   59.7982   32.8542   48.5426 H   0  0  0  0  0  0  0  0  0  0  0  0
   57.9978   31.6863   47.2701 H   0  0  0  0  0  0  0  0  0  0  0  0
  1  2  1  0
  2  3  1  0
  3  4  1  0
  4  5  1  0
  5  6  2  0
  5  7  1  0
  7  8  1  0
  8  9  1  0
  8 10  1  0
  3 11  1  0
 11 12  1  0
 12 13  2  0
 13 14  1  0
 14 15  2  0
 15 16  1  0
 16 17  2  0
 17 12  1  0
  1 18  1  0
  1 19  1  0
  1 20  1  0
  2 21  1  0
  2 22  1  0
  4 23  1  0
  4 24  1  0
  8 25  1  0
  9 26  1  0
  9 27  1  0
  9 28  1  0
 10 29  1  0
 10 30  1  0
 10 31  1  0
 11 32  1  0
 11 33  1  0
 13 34  1  0
 14 35  1  0
 15 36  1  0
 16 37  1  0
 17 38  1  0
M  CHG  1   7  -1
M  END
>  <UniqueID>  (7) 
7

>  <SMILES>  (7) 
CCN(CC(=O)[N-]C(C)C)Cc1ccccc1

>  <Energy>  (7) 
29.47181578791889

>  <Genealogy>  (7) 
CCN(CC(=O)[N-]C(C)C)Cc1ccccc1 (protonated)
CCN(CC(=O)[N-]C(C)C)Cc1ccccc1 (3D coordinates assigned)
CCN(CC(=O)[N-]C(C)C)Cc1ccccc1 (optimized conformer: 29.47181578791889 kcal/mol)

>  <smiles>  (7) 
CCN(CC(=O)NC(C)C)Cc1ccccc1

>  <score_type>  (7) 
oracle

>  <origin>  (7) 
adg

>  <m_score__min__energy>  (7) 
-8.7599999999999998

>  <m_primary>  (7) 
energy

$$$$
7:0
     RDKit          3D

 51 54  0  0  0  0  0  0  0  0999 V2000
   51.9580   31.5500   51.0150 C   0  0  0  0  0  0  0  0  0  0  0  0
   53.1260   30.5810   51.1660 C   0  0  0  0  0  0  0  0  0  0  0  0
   54.2220   31.2050   51.9230 N   0  0  0  0  0  0  0  0  0  0  0  0
   55.0010   30.2410   52.7220 C   0  0  0  0  0  0  0  0  0  0  0  0
   56.4680   30.6570   52.9080 C   0  0  0  0  0  0  0  0  0  0  0  0
   56.6860   31.9570   52.3670 O   0  0  0  0  0  0  0  0  0  0  0  0
   57.7760   32.3060   51.5560 C   0  0  0  0  0  0  0  0  0  0  0  0
   58.1050   31.4640   50.4890 C   0  0  0  0  0  0  0  0  0  0  0  0
   59.1870   31.7620   49.6570 C   0  0  0  0  0  0  0  0  0  0  0  0
   59.9500   32.9170   49.8780 C   0  0  0  0  0  0  0  0  0  0  0  0
   61.1060   33.2290   49.0040 C   0  0  0  0  0  0  0  0  0  0  0  0
   60.8990   33.7310   47.6900 C   0  0  0  0  0  0  0  0  0  0  0  0
   59.5560   34.0550   47.1430 C   0  0  0  0  0  0  0  0  0  0  0  0
   58.9630   35.0940   47.5430 O   0  0  0  0  0  0  0  0  0  0  0  0
   58.8610   33.1710   46.1430 C   0  0  0  0  0  0  0  0  0  0  0  0
   57.3810   33.4520   45.9370 C   0  0  0  0  0  0  0  0  0  0  0  0
   58.3890   33.9050   44.8970 C   0  0  0  0  0  0  0  0  0  0  0  0
   62.0130   33.9600   46.8700 C   0  0  0  0  0  0  0  0  0  0  0  0
   63.2690   33.7360   47.3270 N   0  0  0  0  0  0  0  0  0  0  0  0
   63.5090   33.2620   48.5740 C   0  0  0  0  0  0  0  0  0  0  0  0
   64.8280   33.0480   48.9850 C   0  0  0  0  0  0  0  0  0  0  0  0
   65.0940   32.5500   50.2620 C   0  0  0  0  0  0  0  0  0  0  0  0
   64.0430   32.2510   51.1290 C   0  0  0  0  0  0  0  0  0  0  0  0
   64.3060   31.7590   52.3660 F   0  0  0  0  0  0  0  0  0  0  0  0
   62.7190   32.4580   50.7290 C   0  0  0  0  0  0  0  0  0  0  0  0
   62.4310   32.9830   49.4500 C   0  0  0  0  0  0  0  0  0  0  0  0
   59.6210   33.7680   50.9430 C   0  0  0  0  0  0  0  0  0  0  0  0
   58.5440   33.4650   51.7800 C   0  0  0  0  0  0  0  0  0  0  0  0
   51.5982   31.8485   52.0107 H   0  0  0  0  0  0  0  0  0  0  0  0
   52.2902   32.4414   50.4627 H   0  0  0  0  0  0  0  0  0  0  0  0
   51.1432   31.0590   50.4627 H   0  0  0  0  0  0  0  0  0  0  0  0
   52.7835   29.6825   51.7002 H   0  0  0  0  0  0  0  0  0  0  0  0
   53.4948   30.3115   50.1653 H   0  0  0  0  0  0  0  0  0  0  0  0
   54.8530   31.7090   51.2570 H   0  0  0  0  0  0  0  0  0  0  0  0
   54.5344   30.1510   53.7141 H   0  0  0  0  0  0  0  0  0  0  0  0
   54.9981   29.2857   52.1766 H   0  0  0  0  0  0  0  0  0  0  0  0
   56.7095   30.6654   53.9811 H   0  0  0  0  0  0  0  0  0  0  0  0
   57.1132   29.9379   52.3821 H   0  0  0  0  0  0  0  0  0  0  0  0
   57.5069   30.5597   50.3033 H   0  0  0  0  0  0  0  0  0  0  0  0
   59.4411   31.0880   48.8256 H   0  0  0  0  0  0  0  0  0  0  0  0
   59.4527   32.2675   46.3518 H   0  0  0  0  0  0  0  0  0  0  0  0
   56.6909   32.6259   45.7105 H   0  0  0  0  0  0  0  0  0  0  0  0
   56.5948   33.9480   46.5251 H   0  0  0  0  0  0  0  0  0  0  0  0
   58.4295   33.4070   43.9170 H   0  0  0  0  0  0  0  0  0  0  0  0
   58.6357   34.8648   44.4197 H   0  0  0  0  0  0  0  0  0  0  0  0
   61.8657   34.3260   45.8432 H   0  0  0  0  0  0  0  0  0  0  0  0
   65.6589   33.2727   48.3001 H   0  0  0  0  0  0  0  0  0  0  0  0
   66.1338   32.3932   50.5848 H   0  0  0  0  0  0  0  0  0  0  0  0
   61.8960   32.2101   51.4155 H   0  0  0  0  0  0  0  0  0  0  0  0
   60.2133   34.6778   51.1202 H   0  0  0  0  0  0  0  0  0  0  0  0
   58.2951   34.1341   52.6169 H   0  0  0  0  0  0  0  0  0  0  0  0
  1  2  1  0
  2  3  1  0
  3  4  1  0
  4  5  1  0
  5  6  1  0
  6  7  1  0
  7  8  2  0
  8  9  1  0
  9 10  2  0
 10 11  1  0
 11 12  1  0
 12 13  1  0
 13 14  2  0
 13 15  1  0
 15 16  1  0
 16 17  1  0
 12 18  2  0
 18 19  1  0
 19 20  2  0
 20 21  1  0
 21 22  2  0
 22 23  1  0
 23 24  1  0
 23 25  2  0
 25 26  1  0
 10 27  1  0
 27 28  2  0
 28  7  1  0
 26 11  2  0
 17 15  1  0
 26 20  1  0
  1 29  1  0
  1 30  1  0
  1 31  1  0
  2 32  1  0
  2 33  1  0
  3 34  1  0
  4 35  1  0
  4 36  1  0
  5 37  1  0
  5 38  1  0
  8 39  1  0
  9 40  1  0
 15 41  1  0
 16 42  1  0
 16 43  1  0
 17 44  1  0
 17 45  1  0
 18 46  1  0
 21 47  1  0
 22 48  1  0
 25 49  1  0
 27 50  1  0
 28 51  1  0
M  END
>  <UniqueID>  (8) 
8

>  <SMILES>  (8) 
CCNCCOc1ccc(-c2c(C(=O)C3CC3)cnc3ccc(F)cc23)cc1

>  <Energy>  (8) 
330.7781698224301

>  <Genealogy>  (8) 
CCNCCOc1ccc(-c2c(C(=O)C3CC3)cnc3ccc(F)cc23)cc1 (3D coordinates assigned)
CCNCCOc1ccc(-c2c(C(=O)C3CC3)cnc3ccc(F)cc23)cc1 (nonaromatic ring conformer: 330.7781698224301 kcal/mol)

>  <smiles>  (8) 
CCNCCOc1ccc(-c2c(C(=O)C3CC3)cnc3ccc(F)cc23)cc1

>  <score_type>  (8) 
oracle

>  <origin>  (8) 
adg

>  <m_score__min__energy>  (8) 
-7.9800000000000004

>  <m_primary>  (8) 
energy

$$$$
8:0
     RDKit          3D

 73 75  0  0  0  0  0  0  0  0999 V2000
   59.9670   29.9650   46.1330 C   0  0  0  0  0  0  0  0  0  0  0  0
   58.6250   29.5950   46.7730 C   0  0  0  0  0  0  0  0  0  0  0  0
   57.4700   30.0420   45.9730 N   0  0  0  0  0  0  0  0  0  0  0  0
   57.8310   30.3090   44.5710 C   0  0  0  0  0  0  0  0  0  0  0  0
   57.5020   31.7590   44.1990 C   0  0  0  0  0  0  0  0  0  0  0  0
   56.9780   32.4260   45.3340 O   0  0  0  0  0  0  0  0  0  0  0  0
   57.4230   33.7670   45.4090 C   0  0  0  0  0  0  0  0  0  0  0  0
   58.1690   34.0190   46.7270 C   0  0  0  0  0  0  0  0  0  0  0  0
   58.6390   32.7660   47.3170 N   0  0  0  0  0  0  0  0  0  0  0  0
   59.6790   32.7200   48.3100 C   0  0  0  0  0  0  0  0  0  0  0  0
   60.9960   33.1130   47.9900 C   0  0  0  0  0  0  0  0  0  0  0  0
   61.3490   33.4470   46.6630 C   0  0  0  0  0  0  0  0  0  0  0  0
   62.6520   33.8200   46.3430 C   0  0  0  0  0  0  0  0  0  0  0  0
   63.6320   33.8390   47.3280 C   0  0  0  0  0  0  0  0  0  0  0  0
   63.3160   33.4880   48.6400 C   0  0  0  0  0  0  0  0  0  0  0  0
   61.9910   33.1220   49.0060 C   0  0  0  0  0  0  0  0  0  0  0  0
   61.6670   32.7510   50.2990 N   0  0  0  0  0  0  0  0  0  0  0  0
   62.6350   32.9790   51.3990 C   0  0  0  0  0  0  0  0  0  0  0  0
   60.4420   32.1570   50.5620 C   0  0  0  0  0  0  0  0  0  0  0  0
   60.1860   31.4800   51.7810 C   0  0  0  0  0  0  0  0  0  0  0  0
   58.9410   30.8690   52.0450 C   0  0  0  0  0  0  0  0  0  0  0  0
   58.7040   30.1140   53.2120 O   0  0  0  0  0  0  0  0  0  0  0  0
   58.0040   30.5820   54.3710 C   0  0  0  0  0  0  0  0  0  0  0  0
   57.7890   29.4170   55.3730 C   0  0  0  0  0  0  0  0  0  0  0  0
   57.2850   28.1330   54.7930 N   0  0  0  0  0  0  0  0  0  0  0  0
   58.3890   27.3630   54.1700 C   0  0  0  0  0  0  0  0  0  0  0  0
   56.2110   28.3500   53.7880 C   0  0  0  0  0  0  0  0  0  0  0  0
   56.7210   27.3250   55.9020 C   0  0  0  0  0  0  0  0  0  0  0  0
   57.9050   30.9990   51.1150 C   0  0  0  0  0  0  0  0  0  0  0  0
   56.6530   30.4440   51.4430 O   0  0  0  0  0  0  0  0  0  0  0  0
   55.5580   31.1710   51.9890 C   0  0  0  0  0  0  0  0  0  0  0  0
   58.1420   31.6490   49.8930 C   0  0  0  0  0  0  0  0  0  0  0  0
   59.4160   32.1820   49.5850 C   0  0  0  0  0  0  0  0  0  0  0  0
   60.7058   30.1687   46.9221 H   0  0  0  0  0  0  0  0  0  0  0  0
   60.3181   29.1301   45.5087 H   0  0  0  0  0  0  0  0  0  0  0  0
   59.8406   30.8618   45.5087 H   0  0  0  0  0  0  0  0  0  0  0  0
   58.5762   28.5014   46.8807 H   0  0  0  0  0  0  0  0  0  0  0  0
   58.5706   30.1028   47.7472 H   0  0  0  0  0  0  0  0  0  0  0  0
   57.0490   30.9010   46.4050 H   0  0  0  0  0  0  0  0  0  0  0  0
   58.9088   30.1361   44.4355 H   0  0  0  0  0  0  0  0  0  0  0  0
   57.2542   29.6351   43.9205 H   0  0  0  0  0  0  0  0  0  0  0  0
   58.4170   32.2689   43.8630 H   0  0  0  0  0  0  0  0  0  0  0  0
   56.7588   31.7720   43.3881 H   0  0  0  0  0  0  0  0  0  0  0  0
   58.1002   33.9703   44.5663 H   0  0  0  0  0  0  0  0  0  0  0  0
   56.5483   34.4326   45.3652 H   0  0  0  0  0  0  0  0  0  0  0  0
   59.0339   34.6698   46.5309 H   0  0  0  0  0  0  0  0  0  0  0  0
   57.4753   34.4979   47.4337 H   0  0  0  0  0  0  0  0  0  0  0  0
   58.1460   31.8800   47.0610 H   0  0  0  0  0  0  0  0  0  0  0  0
   60.5847   33.4119   45.8727 H   0  0  0  0  0  0  0  0  0  0  0  0
   62.9056   34.0998   45.3098 H   0  0  0  0  0  0  0  0  0  0  0  0
   64.6608   34.1320   47.0718 H   0  0  0  0  0  0  0  0  0  0  0  0
   64.1056   33.4942   49.4058 H   0  0  0  0  0  0  0  0  0  0  0  0
   62.1255   32.8590   52.3665 H   0  0  0  0  0  0  0  0  0  0  0  0
   63.4547   32.2493   51.3232 H   0  0  0  0  0  0  0  0  0  0  0  0
   63.0428   33.9978   51.3232 H   0  0  0  0  0  0  0  0  0  0  0  0
   60.9789   31.4294   52.5417 H   0  0  0  0  0  0  0  0  0  0  0  0
   58.5929   31.3745   54.8559 H   0  0  0  0  0  0  0  0  0  0  0  0
   57.0244   30.9770   54.0639 H   0  0  0  0  0  0  0  0  0  0  0  0
   58.7536   29.2100   55.8594 H   0  0  0  0  0  0  0  0  0  0  0  0
   57.0009   29.7600   56.0595 H   0  0  0  0  0  0  0  0  0  0  0  0
   59.0192   26.9234   54.9571 H   0  0  0  0  0  0  0  0  0  0  0  0
   57.9695   26.5606   53.5454 H   0  0  0  0  0  0  0  0  0  0  0  0
   58.9971   28.0339   53.5454 H   0  0  0  0  0  0  0  0  0  0  0  0
   55.2590   28.5423   54.3044 H   0  0  0  0  0  0  0  0  0  0  0  0
   56.4676   29.2145   53.1580 H   0  0  0  0  0  0  0  0  0  0  0  0
   56.1118   27.4537   53.1580 H   0  0  0  0  0  0  0  0  0  0  0  0
   57.0253   27.7610   56.8649 H   0  0  0  0  0  0  0  0  0  0  0  0
   55.6233   27.3215   55.8317 H   0  0  0  0  0  0  0  0  0  0  0  0
   57.0962   26.2934   55.8317 H   0  0  0  0  0  0  0  0  0  0  0  0
   55.6074   31.1382   53.0874 H   0  0  0  0  0  0  0  0  0  0  0  0
   55.6070   32.2166   51.6508 H   0  0  0  0  0  0  0  0  0  0  0  0
   54.6134   30.7201   51.6508 H   0  0  0  0  0  0  0  0  0  0  0  0
   57.3242   31.7453   49.1636 H   0  0  0  0  0  0  0  0  0  0  0  0
  1  2  1  0
  2  3  1  0
  3  4  1  0
  4  5  1  0
  5  6  1  0
  6  7  1  0
  7  8  1  0
  8  9  1  0
  9 10  1  0
 10 11  2  0
 11 12  1  0
 12 13  2  0
 13 14  1  0
 14 15  2  0
 15 16  1  0
 16 17  2  0
 17 18  1  0
 17 19  1  0
 19 20  2  0
 20 21  1  0
 21 22  1  0
 22 23  1  0
 23 24  1  0
 24 25  1  0
 25 26  1  0
 25 27  1  0
 25 28  1  0
 21 29  2  0
 29 30  1  0
 30 31  1  0
 29 32  1  0
 32 33  2  0
 33 10  1  0
 16 11  1  0
 33 19  1  0
  1 34  1  0
  1 35  1  0
  1 36  1  0
  2 37  1  0
  2 38  1  0
  3 39  1  0
  4 40  1  0
  4 41  1  0
  5 42  1  0
  5 43  1  0
  7 44  1  0
  7 45  1  0
  8 46  1  0
  8 47  1  0
  9 48  1  0
 12 49  1  0
 13 50  1  0
 14 51  1  0
 15 52  1  0
 18 53  1  0
 18 54  1  0
 18 55  1  0
 20 56  1  0
 23 57  1  0
 23 58  1  0
 24 59  1  0
 24 60  1  0
 26 61  1  0
 26 62  1  0
 26 63  1  0
 27 64  1  0
 27 65  1  0
 27 66  1  0
 28 67  1  0
 28 68  1  0
 28 69  1  0
 31 70  1  0
 31 71  1  0
 31 72  1  0
 32 73  1  0
M  CHG  2  17   1  25   1
M  END
>  <UniqueID>  (9) 
9

>  <SMILES>  (9) 
CCNCCOCCNc1c2ccccc2[n+](C)c2cc(OCC[N+](C)(C)C)c(OC)cc12

>  <Energy>  (9) 
104.65522007944092

>  <Genealogy>  (9) 
CCNCCOCCNc1c2ccccc2[n+](C)c2cc(OCC[N+](C)(C)C)c(OC)cc12 (3D coordinates assigned)
CCNCCOCCNc1c2ccccc2[n+](C)c2cc(OCC[N+](C)(C)C)c(OC)cc12 (optimized conformer: 104.65522007944092 kcal/mol)

>  <smiles>  (9) 
CCNCCOCCNc1c2ccccc2[n+](C)c2cc(OCC[N+](C)(C)C)c(OC)cc12

>  <score_type>  (9) 
oracle

>  <origin>  (9) 
adg

>  <m_score__min__energy>  (9) 
-4.75

>  <m_primary>  (9) 
energy

$$$$
9:0
     RDKit          3D

 65 67  0  0  0  0  0  0  0  0999 V2000
   57.4060   31.7250   42.2840 C   0  0  0  0  0  0  0  0  0  0  0  0
   56.6450   30.4670   42.6980 C   0  0  0  0  0  0  0  0  0  0  0  0
   56.1960   30.5230   44.1640 C   0  0  0  0  0  0  0  0  0  0  0  0
   55.9270   29.1730   44.6750 N   0  0  0  0  0  0  0  0  0  0  0  0
   57.0200   28.7300   45.5510 C   0  0  0  0  0  0  0  0  0  0  0  0
   58.3230   28.5730   44.7590 C   0  0  0  0  0  0  0  0  0  0  0  0
   59.2070   29.7210   44.9550 N   0  0  0  0  0  0  0  0  0  0  0  0
   59.2990   30.3450   46.2440 C   0  0  0  0  0  0  0  0  0  0  0  0
   59.6990   29.5990   47.3660 C   0  0  0  0  0  0  0  0  0  0  0  0
   60.0520   28.2380   47.2490 C   0  0  0  0  0  0  0  0  0  0  0  0
   60.4200   27.5020   48.3740 C   0  0  0  0  0  0  0  0  0  0  0  0
   60.4330   28.1040   49.6280 C   0  0  0  0  0  0  0  0  0  0  0  0
   60.0760   29.4440   49.7680 C   0  0  0  0  0  0  0  0  0  0  0  0
   59.7000   30.2180   48.6420 C   0  0  0  0  0  0  0  0  0  0  0  0
   59.3260   31.5390   48.7720 N   0  0  0  0  0  0  0  0  0  0  0  0
   58.7800   31.9900   50.0680 C   0  0  0  0  0  0  0  0  0  0  0  0
   59.2210   32.3390   47.6500 C   0  0  0  0  0  0  0  0  0  0  0  0
   59.2680   33.7690   47.7040 C   0  0  0  0  0  0  0  0  0  0  0  0
   60.0190   34.5460   48.7710 C   0  0  0  0  0  0  0  0  0  0  0  0
   61.0110   33.6790   49.4280 N   0  0  0  0  0  0  0  0  0  0  0  0
   62.3050   34.3600   49.6310 C   0  0  0  0  0  0  0  0  0  0  0  0
   63.3920   33.6830   48.7910 C   0  0  0  0  0  0  0  0  0  0  0  0
   62.8080   33.0840   47.5720 N   0  0  0  0  0  0  0  0  0  0  0  0
   63.2160   31.6760   47.4450 C   0  0  0  0  0  0  0  0  0  0  0  0
   63.2270   33.8240   46.3670 C   0  0  0  0  0  0  0  0  0  0  0  0
   58.8710   34.5120   46.5790 C   0  0  0  0  0  0  0  0  0  0  0  0
   58.5650   33.8810   45.3810 C   0  0  0  0  0  0  0  0  0  0  0  0
   58.7090   32.5050   45.2630 C   0  0  0  0  0  0  0  0  0  0  0  0
   59.0640   31.7240   46.3790 C   0  0  0  0  0  0  0  0  0  0  0  0
   57.7342   32.2675   43.1829 H   0  0  0  0  0  0  0  0  0  0  0  0
   58.2844   31.4419   41.6855 H   0  0  0  0  0  0  0  0  0  0  0  0
   56.7475   32.3716   41.6855 H   0  0  0  0  0  0  0  0  0  0  0  0
   55.7563   30.3629   42.0582 H   0  0  0  0  0  0  0  0  0  0  0  0
   57.3215   29.6073   42.5825 H   0  0  0  0  0  0  0  0  0  0  0  0
   56.9903   30.9863   44.7677 H   0  0  0  0  0  0  0  0  0  0  0  0
   55.2724   31.1170   44.2292 H   0  0  0  0  0  0  0  0  0  0  0  0
   55.8940   28.5280   43.8520 H   0  0  0  0  0  0  0  0  0  0  0  0
   57.1691   29.4750   46.3465 H   0  0  0  0  0  0  0  0  0  0  0  0
   56.7514   27.7554   45.9845 H   0  0  0  0  0  0  0  0  0  0  0  0
   58.8392   27.6619   45.0959 H   0  0  0  0  0  0  0  0  0  0  0  0
   58.0729   28.5067   43.6899 H   0  0  0  0  0  0  0  0  0  0  0  0
   60.0150   29.8490   44.3050 H   0  0  0  0  0  0  0  0  0  0  0  0
   60.0367   27.7536   46.2615 H   0  0  0  0  0  0  0  0  0  0  0  0
   60.7006   26.4435   48.2701 H   0  0  0  0  0  0  0  0  0  0  0  0
   60.7263   27.5200   50.5128 H   0  0  0  0  0  0  0  0  0  0  0  0
   60.0862   29.9069   50.7658 H   0  0  0  0  0  0  0  0  0  0  0  0
   59.3461   31.5224   50.8871 H   0  0  0  0  0  0  0  0  0  0  0  0
   58.8656   33.0842   50.1411 H   0  0  0  0  0  0  0  0  0  0  0  0
   57.7216   31.6993   50.1411 H   0  0  0  0  0  0  0  0  0  0  0  0
   60.5340   35.3988   48.3046 H   0  0  0  0  0  0  0  0  0  0  0  0
   59.3024   34.9060   49.5239 H   0  0  0  0  0  0  0  0  0  0  0  0
   61.1710   32.8580   48.7990 H   0  0  0  0  0  0  0  0  0  0  0  0
   62.2136   35.4134   49.3275 H   0  0  0  0  0  0  0  0  0  0  0  0
   62.5812   34.3000   50.6941 H   0  0  0  0  0  0  0  0  0  0  0  0
   64.1443   34.4315   48.5016 H   0  0  0  0  0  0  0  0  0  0  0  0
   63.8591   32.8869   49.3893 H   0  0  0  0  0  0  0  0  0  0  0  0
   63.3426   31.2392   48.4466 H   0  0  0  0  0  0  0  0  0  0  0  0
   62.4426   31.1181   46.8967 H   0  0  0  0  0  0  0  0  0  0  0  0
   64.1679   31.6181   46.8967 H   0  0  0  0  0  0  0  0  0  0  0  0
   63.7487   34.7453   46.6654 H   0  0  0  0  0  0  0  0  0  0  0  0
   63.9040   33.1968   45.7684 H   0  0  0  0  0  0  0  0  0  0  0  0
   62.3409   34.0818   45.7684 H   0  0  0  0  0  0  0  0  0  0  0  0
   58.8019   35.6076   46.6487 H   0  0  0  0  0  0  0  0  0  0  0  0
   58.2081   34.4716   44.5244 H   0  0  0  0  0  0  0  0  0  0  0  0
   58.5442   32.0211   44.2890 H   0  0  0  0  0  0  0  0  0  0  0  0
  1  2  1  0
  2  3  1  0
  3  4  1  0
  4  5  1  0
  5  6  1  0
  6  7  1  0
  7  8  1  0
  8  9  2  0
  9 10  1  0
 10 11  2  0
 11 12  1  0
 12 13  2  0
 13 14  1  0
 14 15  2  0
 15 16  1  0
 15 17  1  0
 17 18  2  0
 18 19  1  0
 19 20  1  0
 20 21  1  0
 21 22  1  0
 22 23  1  0
 23 24  1  0
 23 25  1  0
 18 26  1  0
 26 27  2  0
 27 28  1  0
 28 29  2  0
 29  8  1  0
 14  9  1  0
 29 17  1  0
  1 30  1  0
  1 31  1  0
  1 32  1  0
  2 33  1  0
  2 34  1  0
  3 35  1  0
  3 36  1  0
  4 37  1  0
  5 38  1  0
  5 39  1  0
  6 40  1  0
  6 41  1  0
  7 42  1  0
 10 43  1  0
 11 44  1  0
 12 45  1  0
 13 46  1  0
 16 47  1  0
 16 48  1  0
 16 49  1  0
 19 50  1  0
 19 51  1  0
 20 52  1  0
 21 53  1  0
 21 54  1  0
 22 55  1  0
 22 56  1  0
 24 57  1  0
 24 58  1  0
 24 59  1  0
 25 60  1  0
 25 61  1  0
 25 62  1  0
 26 63  1  0
 27 64  1  0
 28 65  1  0
M  CHG  1  15   1
M  END
>  <UniqueID>  (10) 
10

>  <SMILES>  (10) 
CCCNCCNc1c2ccccc2[n+](C)c2c(CNCCN(C)C)cccc12

>  <Energy>  (10) 
93.38961623834922

>  <Genealogy>  (10) 
CCCNCCNc1c2ccccc2[n+](C)c2c(CNCCN(C)C)cccc12 (3D coordinates assigned)
CCCNCCNc1c2ccccc2[n+](C)c2c(CNCCN(C)C)cccc12 (optimized conformer: 93.38961623834922 kcal/mol)

>  <smiles>  (10) 
CCCNCCNc1c2ccccc2[n+](C)c2c(CNCCN(C)C)cccc12

>  <score_type>  (10) 
oracle

>  <origin>  (10) 
adg

>  <m_score__min__energy>  (10) 
-6.4900000000000002

>  <m_primary>  (10) 
energy

$$$$
10:0
     RDKit          3D

 62 65  0  0  0  0  0  0  0  0999 V2000
   59.3940   34.4530   45.1610 C   0  0  0  0  0  0  0  0  0  0  0  0
   60.1020   34.8320   46.4580 C   0  0  0  0  0  0  0  0  0  0  0  0
   60.9480   33.7170   46.9490 N   0  0  0  0  0  0  0  0  0  0  0  0
   62.3500   33.8520   46.4750 C   0  0  0  0  0  0  0  0  0  0  0  0
   63.3300   32.8620   47.1230 C   0  0  0  0  0  0  0  0  0  0  0  0
   60.8180   33.5530   48.4200 C   0  0  0  0  0  0  0  0  0  0  0  0
   59.3640   33.3980   48.8970 C   0  0  0  0  0  0  0  0  0  0  0  0
   59.1170   32.0700   49.4630 N   0  0  0  0  0  0  0  0  0  0  0  0
   59.3620   30.8730   48.7070 C   0  0  0  0  0  0  0  0  0  0  0  0
   58.8670   30.7920   47.4100 C   0  0  0  0  0  0  0  0  0  0  0  0
   58.9560   29.6250   46.6840 C   0  0  0  0  0  0  0  0  0  0  0  0
   59.6320   28.5290   47.1520 N   0  0  0  0  0  0  0  0  0  0  0  0
   59.9660   27.4260   46.2370 C   0  0  0  0  0  0  0  0  0  0  0  0
   60.0660   28.5300   48.4690 C   0  0  0  0  0  0  0  0  0  0  0  0
   60.5580   27.3540   49.0760 C   0  0  0  0  0  0  0  0  0  0  0  0
   61.0800   27.3610   50.3670 C   0  0  0  0  0  0  0  0  0  0  0  0
   61.5400   26.1470   50.9020 O   0  0  0  0  0  0  0  0  0  0  0  0
   62.4480   26.0360   51.9930 C   0  0  0  0  0  0  0  0  0  0  0  0
   61.1390   28.5640   51.0790 C   0  0  0  0  0  0  0  0  0  0  0  0
   60.6320   29.7550   50.5310 C   0  0  0  0  0  0  0  0  0  0  0  0
   60.7710   30.9730   51.2190 O   0  0  0  0  0  0  0  0  0  0  0  0
   61.9520   31.7670   51.2570 C   0  0  0  0  0  0  0  0  0  0  0  0
   60.0100   29.7310   49.2540 C   0  0  0  0  0  0  0  0  0  0  0  0
   58.2300   29.8270   45.4210 C   0  0  0  0  0  0  0  0  0  0  0  0
   57.8250   28.9290   44.4220 C   0  0  0  0  0  0  0  0  0  0  0  0
   57.0470   29.4100   43.3570 C   0  0  0  0  0  0  0  0  0  0  0  0
   56.6450   30.7560   43.3190 C   0  0  0  0  0  0  0  0  0  0  0  0
   56.9980   31.6270   44.3580 C   0  0  0  0  0  0  0  0  0  0  0  0
   57.7840   31.1400   45.4030 C   0  0  0  0  0  0  0  0  0  0  0  0
   58.1490   31.8680   46.6540 C   0  0  0  0  0  0  0  0  0  0  0  0
   58.4464   33.9458   45.3952 H   0  0  0  0  0  0  0  0  0  0  0  0
   59.1886   35.3618   44.5763 H   0  0  0  0  0  0  0  0  0  0  0  0
   60.0364   33.7781   44.5763 H   0  0  0  0  0  0  0  0  0  0  0  0
   60.7367   35.7120   46.2771 H   0  0  0  0  0  0  0  0  0  0  0  0
   59.3406   35.0550   47.2199 H   0  0  0  0  0  0  0  0  0  0  0  0
   62.3639   33.6896   45.3871 H   0  0  0  0  0  0  0  0  0  0  0  0
   62.6847   34.8607   46.7586 H   0  0  0  0  0  0  0  0  0  0  0  0
   63.2562   32.9366   48.2180 H   0  0  0  0  0  0  0  0  0  0  0  0
   63.0795   31.8384   46.8075 H   0  0  0  0  0  0  0  0  0  0  0  0
   64.3561   33.1021   46.8075 H   0  0  0  0  0  0  0  0  0  0  0  0
   61.3800   32.6565   48.7208 H   0  0  0  0  0  0  0  0  0  0  0  0
   61.2129   34.4696   48.8825 H   0  0  0  0  0  0  0  0  0  0  0  0
   59.1586   34.1570   49.6663 H   0  0  0  0  0  0  0  0  0  0  0  0
   58.7028   33.5280   48.0276 H   0  0  0  0  0  0  0  0  0  0  0  0
   59.0090   31.9850   50.4990 H   0  0  0  0  0  0  0  0  0  0  0  0
   60.2361   26.5340   46.8212 H   0  0  0  0  0  0  0  0  0  0  0  0
   59.0962   27.1995   45.6029 H   0  0  0  0  0  0  0  0  0  0  0  0
   60.8154   27.7201   45.6029 H   0  0  0  0  0  0  0  0  0  0  0  0
   60.5282   26.4083   48.5149 H   0  0  0  0  0  0  0  0  0  0  0  0
   61.8930   26.1038   52.9403 H   0  0  0  0  0  0  0  0  0  0  0  0
   62.9673   25.0677   51.9408 H   0  0  0  0  0  0  0  0  0  0  0  0
   63.1852   26.8507   51.9408 H   0  0  0  0  0  0  0  0  0  0  0  0
   61.5889   28.5780   52.0827 H   0  0  0  0  0  0  0  0  0  0  0  0
   62.2332   31.9561   52.3035 H   0  0  0  0  0  0  0  0  0  0  0  0
   62.7688   31.2339   50.7484 H   0  0  0  0  0  0  0  0  0  0  0  0
   61.7666   32.7246   50.7484 H   0  0  0  0  0  0  0  0  0  0  0  0
   58.1116   27.8682   44.4723 H   0  0  0  0  0  0  0  0  0  0  0  0
   56.7499   28.7283   42.5464 H   0  0  0  0  0  0  0  0  0  0  0  0
   56.0512   31.1270   42.4706 H   0  0  0  0  0  0  0  0  0  0  0  0
   56.6621   32.6744   44.3501 H   0  0  0  0  0  0  0  0  0  0  0  0
   58.8076   32.7241   46.4459 H   0  0  0  0  0  0  0  0  0  0  0  0
   57.2943   32.3065   47.1900 H   0  0  0  0  0  0  0  0  0  0  0  0
  1  2  1  0
  2  3  1  0
  3  4  1  0
  4  5  1  0
  3  6  1  0
  6  7  1  0
  7  8  1  0
  8  9  1  0
  9 10  2  0
 10 11  1  0
 11 12  2  0
 12 13  1  0
 12 14  1  0
 14 15  2  0
 15 16  1  0
 16 17  1  0
 17 18  1  0
 16 19  2  0
 19 20  1  0
 20 21  1  0
 21 22  1  0
 20 23  2  0
 11 24  1  0
 24 25  2  0
 25 26  1  0
 26 27  2  0
 27 28  1  0
 28 29  2  0
 29 30  1  0
 23  9  1  0
 29 24  1  0
 30 10  1  0
 23 14  1  0
  1 31  1  0
  1 32  1  0
  1 33  1  0
  2 34  1  0
  2 35  1  0
  4 36  1  0
  4 37  1  0
  5 38  1  0
  5 39  1  0
  5 40  1  0
  6 41  1  0
  6 42  1  0
  7 43  1  0
  7 44  1  0
  8 45  1  0
 13 46  1  0
 13 47  1  0
 13 48  1  0
 15 49  1  0
 18 50  1  0
 18 51  1  0
 18 52  1  0
 19 53  1  0
 22 54  1  0
 22 55  1  0
 22 56  1  0
 25 57  1  0
 26 58  1  0
 27 59  1  0
 28 60  1  0
 30 61  1  0
 30 62  1  0
M  CHG  1  12   1
M  END
>  <UniqueID>  (11) 
11

>  <SMILES>  (11) 
CCN(CC)CCNc1c2c([n+](C)c3cc(OC)cc(OC)c13)-c1ccccc1C2

>  <Energy>  (11) 
109.44078258547474

>  <Genealogy>  (11) 
CCN(CC)CCNc1c2c([n+](C)c3cc(OC)cc(OC)c13)-c1ccccc1C2 (3D coordinates assigned)
CCN(CC)CCNc1c2c([n+](C)c3cc(OC)cc(OC)c13)-c1ccccc1C2 (nonaromatic ring conformer: 109.44078258547474 kcal/mol)

>  <smiles>  (11) 
CCN(CC)CCNc1c2c([n+](C)c3cc(OC)cc(OC)c13)-c1ccccc1C2

>  <score_type>  (11) 
oracle

>  <origin>  (11) 
adg

>  <m_score__min__energy>  (11) 
-5.3799999999999999

>  <m_primary>  (11) 
energy

$$$$
11:0
     RDKit          3D

 60 61  0  0  0  0  0  0  0  0999 V2000
   63.7680   32.7210   47.0580 C   0  0  0  0  0  0  0  0  0  0  0  0
   63.7730   33.2860   48.4800 C   0  0  0  0  0  0  0  0  0  0  0  0
   62.7440   34.2470   48.6330 O   0  0  0  0  0  0  0  0  0  0  0  0
   62.1880   34.1880   49.9330 C   0  0  0  0  0  0  0  0  0  0  0  0
   60.7840   33.5750   49.8610 C   0  0  0  0  0  0  0  0  0  0  0  0
   59.9630   34.2240   48.7290 C   0  0  0  0  0  0  0  0  0  0  0  0
   60.5470   34.0190   47.3780 N   0  0  0  0  0  0  0  0  0  0  0  0
   60.0170   34.9190   46.3290 C   0  0  0  0  0  0  0  0  0  0  0  0
   58.5710   34.5750   45.9600 C   0  0  0  0  0  0  0  0  0  0  0  0
   58.5010   33.1940   45.4590 N   0  0  0  0  0  0  0  0  0  0  0  0
   57.1300   32.8640   45.0040 C   0  0  0  0  0  0  0  0  0  0  0  0
   57.1510   31.6020   44.1370 C   0  0  0  0  0  0  0  0  0  0  0  0
   56.5260   30.5300   44.8170 O   0  0  0  0  0  0  0  0  0  0  0  0
   56.8160   29.2980   44.1980 C   0  0  0  0  0  0  0  0  0  0  0  0
   57.0280   28.2080   45.2510 C   0  0  0  0  0  0  0  0  0  0  0  0
   58.4610   27.8640   45.3730 N   0  0  0  0  0  0  0  0  0  0  0  0
   58.8940   27.7190   46.7850 C   0  0  0  0  0  0  0  0  0  0  0  0
   59.4820   29.0260   47.3380 C   0  0  0  0  0  0  0  0  0  0  0  0
   60.6460   29.5030   46.5670 N   0  0  0  0  0  0  0  0  0  0  0  0
   60.7220   28.9430   45.2070 C   0  0  0  0  0  0  0  0  0  0  0  0
   59.3230   28.7890   44.5910 C   0  0  0  0  0  0  0  0  0  0  0  0
   58.9710   32.2590   46.5000 C   0  0  0  0  0  0  0  0  0  0  0  0
   60.4070   32.6050   46.9520 C   0  0  0  0  0  0  0  0  0  0  0  0
   63.7583   31.6219   47.1002 H   0  0  0  0  0  0  0  0  0  0  0  0
   62.8730   33.0754   46.5258 H   0  0  0  0  0  0  0  0  0  0  0  0
   64.6692   33.0595   46.5258 H   0  0  0  0  0  0  0  0  0  0  0  0
   63.6130   32.4665   49.1962 H   0  0  0  0  0  0  0  0  0  0  0  0
   64.7432   33.7689   48.6687 H   0  0  0  0  0  0  0  0  0  0  0  0
   62.8270   33.5662   50.5773 H   0  0  0  0  0  0  0  0  0  0  0  0
   62.1238   35.2035   50.3509 H   0  0  0  0  0  0  0  0  0  0  0  0
   60.8709   32.4951   49.6705 H   0  0  0  0  0  0  0  0  0  0  0  0
   60.2707   33.7540   50.8173 H   0  0  0  0  0  0  0  0  0  0  0  0
   58.9520   33.7908   48.7402 H   0  0  0  0  0  0  0  0  0  0  0  0
   59.9557   35.3079   48.9163 H   0  0  0  0  0  0  0  0  0  0  0  0
   61.5780   34.2060   47.4530 H   0  0  0  0  0  0  0  0  0  0  0  0
   60.0534   35.9549   46.6972 H   0  0  0  0  0  0  0  0  0  0  0  0
   60.6373   34.7966   45.4289 H   0  0  0  0  0  0  0  0  0  0  0  0
   57.9333   34.6733   46.8509 H   0  0  0  0  0  0  0  0  0  0  0  0
   58.2217   35.2641   45.1770 H   0  0  0  0  0  0  0  0  0  0  0  0
   56.4876   32.6924   45.8803 H   0  0  0  0  0  0  0  0  0  0  0  0
   56.7373   33.7020   44.4094 H   0  0  0  0  0  0  0  0  0  0  0  0
   56.6141   31.7981   43.1972 H   0  0  0  0  0  0  0  0  0  0  0  0
   58.1956   31.3309   43.9240 H   0  0  0  0  0  0  0  0  0  0  0  0
   55.9769   29.0137   43.5461 H   0  0  0  0  0  0  0  0  0  0  0  0
   57.7364   29.4048   43.6051 H   0  0  0  0  0  0  0  0  0  0  0  0
   56.6604   28.5695   46.2227 H   0  0  0  0  0  0  0  0  0  0  0  0
   56.4756   27.3084   44.9419 H   0  0  0  0  0  0  0  0  0  0  0  0
   58.0255   27.4325   47.3962 H   0  0  0  0  0  0  0  0  0  0  0  0
   59.6771   26.9476   46.8252 H   0  0  0  0  0  0  0  0  0  0  0  0
   58.7018   29.8009   47.3113 H   0  0  0  0  0  0  0  0  0  0  0  0
   59.8249   28.8258   48.3638 H   0  0  0  0  0  0  0  0  0  0  0  0
   61.5210   29.2300   47.0700 H   0  0  0  0  0  0  0  0  0  0  0  0
   61.3204   29.6156   44.5749 H   0  0  0  0  0  0  0  0  0  0  0  0
   61.1885   27.9485   45.2652 H   0  0  0  0  0  0  0  0  0  0  0  0
   58.8411   29.7772   44.5561 H   0  0  0  0  0  0  0  0  0  0  0  0
   59.4438   28.3652   43.5831 H   0  0  0  0  0  0  0  0  0  0  0  0
   58.2972   32.3191   47.3674 H   0  0  0  0  0  0  0  0  0  0  0  0
   58.9725   31.2420   46.0808 H   0  0  0  0  0  0  0  0  0  0  0  0
   60.6765   31.9544   47.7970 H   0  0  0  0  0  0  0  0  0  0  0  0
   61.0734   32.4495   46.0908 H   0  0  0  0  0  0  0  0  0  0  0  0
  1  2  1  0
  2  3  1  0
  3  4  1  0
  4  5  1  0
  5  6  1  0
  6  7  1  0
  7  8  1  0
  8  9  1  0
  9 10  1  0
 10 11  1  0
 11 12  1  0
 12 13  1  0
 13 14  1  0
 14 15  1  0
 15 16  1  0
 16 17  1  0
 17 18  1  0
 18 19  1  0
 19 20  1  0
 20 21  1  0
 10 22  1  0
 22 23  1  0
 23  7  1  0
 21 16  1  0
  1 24  1  0
  1 25  1  0
  1 26  1  0
  2 27  1  0
  2 28  1  0
  4 29  1  0
  4 30  1  0
  5 31  1  0
  5 32  1  0
  6 33  1  0
  6 34  1  0
  7 35  1  0
  8 36  1  0
  8 37  1  0
  9 38  1  0
  9 39  1  0
 11 40  1  0
 11 41  1  0
 12 42  1  0
 12 43  1  0
 14 44  1  0
 14 45  1  0
 15 46  1  0
 15 47  1  0
 17 48  1  0
 17 49  1  0
 18 50  1  0
 18 51  1  0
 19 52  1  0
 20 53  1  0
 20 54  1  0
 21 55  1  0
 21 56  1  0
 22 57  1  0
 22 58  1  0
 23 59  1  0
 23 60  1  0
M  CHG  1   7   1
M  END
>  <UniqueID>  (12) 
12

>  <SMILES>  (12) 
CCOCCC[NH+]1CCN(CCOCCN2CCNCC2)CC1

>  <Energy>  (12) 
73.90871506501216

>  <Genealogy>  (12) 
CCOCCC[NH+]1CCN(CCOCCN2CCNCC2)CC1 (protonated)
CCOCCC[NH+]1CCN(CCOCCN2CCNCC2)CC1 (3D coordinates assigned)
CCOCCC[NH+]1CCN(CCOCCN2CCNCC2)CC1 (nonaromatic ring conformer: 73.90871506501216 kcal/mol)

>  <smiles>  (12) 
CCOCCCN1CCN(CCOCCN2CCNCC2)CC1

>  <score_type>  (12) 
oracle

>  <origin>  (12) 
adg

>  <m_score__min__energy>  (12) 
-5.0599999999999996

>  <m_primary>  (12) 
energy

$$$$
12:0
     RDKit          3D

 53 55  0  0  0  0  0  0  0  0999 V2000
   58.5130   31.4640   50.4080 C   0  0  0  0  0  0  0  0  0  0  0  0
   58.8940   32.7070   49.5900 C   0  0  0  0  0  0  0  0  0  0  0  0
   60.1790   33.3260   49.9940 N   0  0  0  0  0  0  0  0  0  0  0  0
   60.1720   33.7380   51.4120 C   0  0  0  0  0  0  0  0  0  0  0  0
   61.3450   32.4780   49.6650 C   0  0  0  0  0  0  0  0  0  0  0  0
   62.1730   33.1090   48.5380 C   0  0  0  0  0  0  0  0  0  0  0  0
   61.6620   32.7170   47.1400 C   0  0  0  0  0  0  0  0  0  0  0  0
   60.3240   33.2710   46.8380 N   0  0  0  0  0  0  0  0  0  0  0  0
   60.1050   34.7190   46.9590 C   0  0  0  0  0  0  0  0  0  0  0  0
   59.6390   35.2790   45.6170 C   0  0  0  0  0  0  0  0  0  0  0  0
   58.3550   34.5850   45.1490 C   0  0  0  0  0  0  0  0  0  0  0  0
   58.3480   33.0880   45.3760 C   0  0  0  0  0  0  0  0  0  0  0  0
   57.3550   32.3280   44.7510 C   0  0  0  0  0  0  0  0  0  0  0  0
   57.2150   30.9550   45.0100 C   0  0  0  0  0  0  0  0  0  0  0  0
   56.2290   30.1910   44.3600 O   0  0  0  0  0  0  0  0  0  0  0  0
   56.2990   29.7500   43.0080 C   0  0  0  0  0  0  0  0  0  0  0  0
   58.0700   30.3410   45.9520 C   0  0  0  0  0  0  0  0  0  0  0  0
   57.9710   28.9720   46.2960 C   0  0  0  0  0  0  0  0  0  0  0  0
   57.1250   28.2150   45.7470 O   0  0  0  0  0  0  0  0  0  0  0  0
   58.8210   28.4380   47.2600 C   0  0  0  0  0  0  0  0  0  0  0  0
   59.7500   29.2730   47.8840 C   0  0  0  0  0  0  0  0  0  0  0  0
   60.6880   28.7340   48.9160 C   0  0  0  0  0  0  0  0  0  0  0  0
   59.8360   30.5500   47.5320 O   0  0  0  0  0  0  0  0  0  0  0  0
   59.0690   31.1120   46.6040 C   0  0  0  0  0  0  0  0  0  0  0  0
   59.2450   32.4770   46.2800 C   0  0  0  0  0  0  0  0  0  0  0  0
   58.5839   31.6953   51.4811 H   0  0  0  0  0  0  0  0  0  0  0  0
   57.4824   31.1665   50.1644 H   0  0  0  0  0  0  0  0  0  0  0  0
   59.1998   30.6400   50.1644 H   0  0  0  0  0  0  0  0  0  0  0  0
   58.9686   32.4150   48.5321 H   0  0  0  0  0  0  0  0  0  0  0  0
   58.1099   33.4575   49.7689 H   0  0  0  0  0  0  0  0  0  0  0  0
   60.1872   32.8445   52.0535 H   0  0  0  0  0  0  0  0  0  0  0  0
   61.0598   34.3534   51.6194 H   0  0  0  0  0  0  0  0  0  0  0  0
   59.2638   34.3229   51.6194 H   0  0  0  0  0  0  0  0  0  0  0  0
   61.9761   32.3689   50.5593 H   0  0  0  0  0  0  0  0  0  0  0  0
   60.9840   31.4942   49.3307 H   0  0  0  0  0  0  0  0  0  0  0  0
   62.1263   34.2036   48.6364 H   0  0  0  0  0  0  0  0  0  0  0  0
   63.2041   32.7378   48.6330 H   0  0  0  0  0  0  0  0  0  0  0  0
   62.3738   33.0904   46.3891 H   0  0  0  0  0  0  0  0  0  0  0  0
   61.5776   31.6205   47.1157 H   0  0  0  0  0  0  0  0  0  0  0  0
   59.3368   34.9108   47.7226 H   0  0  0  0  0  0  0  0  0  0  0  0
   61.0455   35.2080   47.2529 H   0  0  0  0  0  0  0  0  0  0  0  0
   59.4470   36.3568   45.7240 H   0  0  0  0  0  0  0  0  0  0  0  0
   60.4265   35.1005   44.8700 H   0  0  0  0  0  0  0  0  0  0  0  0
   57.5063   35.0220   45.6956 H   0  0  0  0  0  0  0  0  0  0  0  0
   58.2848   34.7432   44.0627 H   0  0  0  0  0  0  0  0  0  0  0  0
   56.6695   32.8153   44.0421 H   0  0  0  0  0  0  0  0  0  0  0  0
   56.4714   28.6638   42.9851 H   0  0  0  0  0  0  0  0  0  0  0  0
   55.3528   29.9819   42.4972 H   0  0  0  0  0  0  0  0  0  0  0  0
   57.1269   30.2635   42.4972 H   0  0  0  0  0  0  0  0  0  0  0  0
   58.7618   27.3725   47.5267 H   0  0  0  0  0  0  0  0  0  0  0  0
   60.2974   28.9585   49.9195 H   0  0  0  0  0  0  0  0  0  0  0  0
   60.7809   27.6448   48.7939 H   0  0  0  0  0  0  0  0  0  0  0  0
   61.6759   29.2022   48.7939 H   0  0  0  0  0  0  0  0  0  0  0  0
  1  2  1  0
  2  3  1  0
  3  4  1  0
  3  5  1  0
  5  6  1  0
  6  7  1  0
  7  8  1  0
  8  9  1  0
  9 10  1  0
 10 11  1  0
 11 12  1  0
 12 13  2  0
 13 14  1  0
 14 15  1  0
 15 16  1  0
 14 17  2  0
 17 18  1  0
 18 19  2  0
 18 20  1  0
 20 21  2  0
 21 22  1  0
 21 23  1  0
 23 24  1  0
 24 25  2  0
 25  8  1  0
 25 12  1  0
 24 17  1  0
  1 26  1  0
  1 27  1  0
  1 28  1  0
  2 29  1  0
  2 30  1  0
  4 31  1  0
  4 32  1  0
  4 33  1  0
  5 34  1  0
  5 35  1  0
  6 36  1  0
  6 37  1  0
  7 38  1  0
  7 39  1  0
  9 40  1  0
  9 41  1  0
 10 42  1  0
 10 43  1  0
 11 44  1  0
 11 45  1  0
 13 46  1  0
 16 47  1  0
 16 48  1  0
 16 49  1  0
 20 50  1  0
 22 51  1  0
 22 52  1  0
 22 53  1  0
M  END
>  <UniqueID>  (13) 
13

>  <SMILES>  (13) 
CCN(C)CCCN1CCCc2cc(OC)c3c(=O)cc(C)oc3c21

>  <Energy>  (13) 
60.359398571169145

>  <Genealogy>  (13) 
CCN(C)CCCN1CCCc2cc(OC)c3c(=O)cc(C)oc3c21 (3D coordinates assigned)
CCN(C)CCCN1CCCc2cc(OC)c3c(=O)cc(C)oc3c21 (nonaromatic ring conformer: 60.359398571169145 kcal/mol)

>  <smiles>  (13) 
CCN(C)CCCN1CCCc2cc(OC)c3c(=O)cc(C)oc3c21

>  <score_type>  (13) 
oracle

>  <origin>  (13) 
adg

>  <m_score__min__energy>  (13) 
-7.3099999999999996

>  <m_primary>  (13) 
energy

$$$$
13:0
     RDKit          3D

 49 52  0  0  0  0  0  0  0  0999 V2000
   54.6260   30.7830   51.9690 C   0  0  0  0  0  0  0  0  0  0  0  0
   55.8230   29.9320   52.3790 C   0  0  0  0  0  0  0  0  0  0  0  0
   57.0220   30.3480   51.6350 N   0  0  0  0  0  0  0  0  0  0  0  0
   57.2930   31.7920   51.7580 C   0  0  0  0  0  0  0  0  0  0  0  0
   58.8020   32.1020   51.7550 C   0  0  0  0  0  0  0  0  0  0  0  0
   59.5420   31.0780   51.0030 N   0  0  0  0  0  0  0  0  0  0  0  0
   60.4170   31.7050   50.0310 C   0  0  0  0  0  0  0  0  0  0  0  0
   59.8740   32.3370   48.9060 C   0  0  0  0  0  0  0  0  0  0  0  0
   60.6820   32.9700   47.9800 C   0  0  0  0  0  0  0  0  0  0  0  0
   62.0310   33.1170   48.1730 N   0  0  0  0  0  0  0  0  0  0  0  0
   62.7930   34.0770   47.3560 C   0  0  0  0  0  0  0  0  0  0  0  0
   62.6340   32.4080   49.1990 C   0  0  0  0  0  0  0  0  0  0  0  0
   64.0430   32.3320   49.3110 C   0  0  0  0  0  0  0  0  0  0  0  0
   64.6470   31.6720   50.3820 C   0  0  0  0  0  0  0  0  0  0  0  0
   66.3970   31.6050   50.4960 Cl  0  0  0  0  0  0  0  0  0  0  0  0
   63.8650   31.0670   51.3590 C   0  0  0  0  0  0  0  0  0  0  0  0
   62.4770   31.0850   51.2590 C   0  0  0  0  0  0  0  0  0  0  0  0
   61.8340   31.7220   50.1740 C   0  0  0  0  0  0  0  0  0  0  0  0
   59.8220   33.4690   46.8980 C   0  0  0  0  0  0  0  0  0  0  0  0
   60.1280   33.9800   45.6270 C   0  0  0  0  0  0  0  0  0  0  0  0
   59.0750   34.3030   44.7580 C   0  0  0  0  0  0  0  0  0  0  0  0
   57.7420   34.0710   45.1380 C   0  0  0  0  0  0  0  0  0  0  0  0
   57.4530   33.4920   46.3820 C   0  0  0  0  0  0  0  0  0  0  0  0
   58.5110   33.1890   47.2420 C   0  0  0  0  0  0  0  0  0  0  0  0
   58.4210   32.4550   48.5380 C   0  0  0  0  0  0  0  0  0  0  0  0
   54.1109   31.1492   52.8693 H   0  0  0  0  0  0  0  0  0  0  0  0
   54.9722   31.6389   51.3710 H   0  0  0  0  0  0  0  0  0  0  0  0
   53.9314   30.1748   51.3710 H   0  0  0  0  0  0  0  0  0  0  0  0
   56.0037   30.0549   53.4571 H   0  0  0  0  0  0  0  0  0  0  0  0
   55.6079   28.8775   52.1516 H   0  0  0  0  0  0  0  0  0  0  0  0
   57.8480   29.8040   51.9800 H   0  0  0  0  0  0  0  0  0  0  0  0
   56.8221   32.3143   50.9121 H   0  0  0  0  0  0  0  0  0  0  0  0
   56.8796   32.1331   52.7186 H   0  0  0  0  0  0  0  0  0  0  0  0
   58.9679   33.0837   51.2873 H   0  0  0  0  0  0  0  0  0  0  0  0
   59.1636   32.1079   52.7938 H   0  0  0  0  0  0  0  0  0  0  0  0
   60.0850   30.4590   51.6450 H   0  0  0  0  0  0  0  0  0  0  0  0
   58.8570   30.4510   50.5240 H   0  0  0  0  0  0  0  0  0  0  0  0
   63.3403   34.7665   48.0156 H   0  0  0  0  0  0  0  0  0  0  0  0
   63.5073   33.5323   46.7212 H   0  0  0  0  0  0  0  0  0  0  0  0
   62.1004   34.6491   46.7212 H   0  0  0  0  0  0  0  0  0  0  0  0
   64.6726   32.8012   48.5407 H   0  0  0  0  0  0  0  0  0  0  0  0
   64.3456   30.5715   52.2155 H   0  0  0  0  0  0  0  0  0  0  0  0
   61.8714   30.5960   52.0363 H   0  0  0  0  0  0  0  0  0  0  0  0
   61.1738   34.1245   45.3181 H   0  0  0  0  0  0  0  0  0  0  0  0
   59.2941   34.7407   43.7729 H   0  0  0  0  0  0  0  0  0  0  0  0
   56.9225   34.3446   44.4572 H   0  0  0  0  0  0  0  0  0  0  0  0
   56.4139   33.2807   46.6747 H   0  0  0  0  0  0  0  0  0  0  0  0
   57.8600   33.0302   49.2893 H   0  0  0  0  0  0  0  0  0  0  0  0
   57.8903   31.4934   48.4772 H   0  0  0  0  0  0  0  0  0  0  0  0
  1  2  1  0
  2  3  1  0
  3  4  1  0
  4  5  1  0
  5  6  1  0
  6  7  1  0
  7  8  2  0
  8  9  1  0
  9 10  2  0
 10 11  1  0
 10 12  1  0
 12 13  2  0
 13 14  1  0
 14 15  1  0
 14 16  2  0
 16 17  1  0
 17 18  2  0
  9 19  1  0
 19 20  2  0
 20 21  1  0
 21 22  2  0
 22 23  1  0
 23 24  2  0
 24 25  1  0
 18  7  1  0
 24 19  1  0
 25  8  1  0
 18 12  1  0
  1 26  1  0
  1 27  1  0
  1 28  1  0
  2 29  1  0
  2 30  1  0
  3 31  1  0
  4 32  1  0
  4 33  1  0
  5 34  1  0
  5 35  1  0
  6 36  1  0
  6 37  1  0
 11 38  1  0
 11 39  1  0
 11 40  1  0
 13 41  1  0
 16 42  1  0
 17 43  1  0
 20 44  1  0
 21 45  1  0
 22 46  1  0
 23 47  1  0
 25 48  1  0
 25 49  1  0
M  CHG  2   6   1  10   1
M  END
>  <UniqueID>  (14) 
14

>  <SMILES>  (14) 
CCNCC[NH2+]c1c2c([n+](C)c3cc(Cl)ccc13)-c1ccccc1C2

>  <Energy>  (14) 
90.41876702978168

>  <Genealogy>  (14) 
CCNCC[NH2+]c1c2c([n+](C)c3cc(Cl)ccc13)-c1ccccc1C2 (protonated)
CCNCC[NH2+]c1c2c([n+](C)c3cc(Cl)ccc13)-c1ccccc1C2 (3D coordinates assigned)
CCNCC[NH2+]c1c2c([n+](C)c3cc(Cl)ccc13)-c1ccccc1C2 (nonaromatic ring conformer: 90.41876702978168 kcal/mol)

>  <smiles>  (14) 
CCNCCNc1c2c([n+](C)c3cc(Cl)ccc13)-c1ccccc1C2

>  <score_type>  (14) 
oracle

>  <origin>  (14) 
adg

>  <m_score__min__energy>  (14) 
-4.4800000000000004

>  <m_primary>  (14) 
energy

$$$$
14:0
     RDKit          3D

 52 55  0  0  0  0  0  0  0  0999 V2000
   59.5187   29.2229   44.9883 H   0  0  0  0  0  0  0  0  0  0  0  0
   58.5000   29.5920   45.1780 C   0  0  0  0  0  0  0  0  0  0  0  0
   57.4520   28.6250   45.3830 C   0  0  0  0  0  0  0  0  0  0  0  0
   56.6090   27.8480   45.5450 N   0  0  0  0  0  0  0  0  0  0  0  0
   58.3000   30.9220   45.2060 C   0  0  0  0  0  0  0  0  0  0  0  0
   58.2930   31.7440   46.4800 C   0  0  0  0  0  0  0  0  0  0  0  0
   58.3630   31.2580   47.6400 O   0  0  0  0  0  0  0  0  0  0  0  0
   58.1380   33.2230   46.2430 C   0  0  2  0  0  0  0  0  0  0  0  0
   56.9980   33.4670   45.2430 C   0  0  0  0  0  0  0  0  0  0  0  0
   56.5526   34.4720   45.2828 H   0  0  0  0  0  0  0  0  0  0  0  0
   56.0591   32.8943   45.2657 H   0  0  0  0  0  0  0  0  0  0  0  0
   58.0510   33.2720   44.1570 C   0  0  2  0  0  0  0  0  0  0  0  0
   57.9655   33.7943   43.1927 H   0  0  0  0  0  0  0  0  0  0  0  0
   58.1750   31.7230   43.8670 C   0  0  2  0  0  0  0  0  0  0  0  0
   59.0946   31.5460   43.2900 H   0  0  0  0  0  0  0  0  0  0  0  0
   57.0040   31.2290   43.0050 C   0  0  0  0  0  0  0  0  0  0  0  0
   56.1881   30.8848   43.6575 H   0  0  0  0  0  0  0  0  0  0  0  0
   56.6435   32.0517   42.3700 H   0  0  0  0  0  0  0  0  0  0  0  0
   57.3417   30.3967   42.3700 H   0  0  0  0  0  0  0  0  0  0  0  0
   59.1550   33.5880   45.1800 C   0  0  1  0  0  0  0  0  0  0  0  0
   60.1266   33.2585   44.7833 H   0  0  0  0  0  0  0  0  0  0  0  0
   59.3710   34.9230   45.9070 C   0  0  1  0  0  0  0  0  0  0  0  0
   59.5536   35.6909   45.1409 H   0  0  0  0  0  0  0  0  0  0  0  0
   58.5230   34.4160   47.1180 C   0  0  2  0  0  0  0  0  0  0  0  0
   57.7454   34.5124   47.8900 H   0  0  0  0  0  0  0  0  0  0  0  0
   59.9660   34.8780   47.3010 C   0  0  1  0  0  0  0  0  0  0  0  0
   60.4738   35.6249   47.9290 H   0  0  0  0  0  0  0  0  0  0  0  0
   60.9400   33.8110   47.5980 N   0  0  0  0  0  0  0  0  0  0  0  0
   60.5050   32.8620   47.6220 H   0  0  0  0  0  0  0  0  0  0  0  0
   62.0560   33.8080   46.6390 C   0  0  0  0  0  0  0  0  0  0  0  0
   62.4598   34.8277   46.5542 H   0  0  0  0  0  0  0  0  0  0  0  0
   61.6800   33.4595   45.6658 H   0  0  0  0  0  0  0  0  0  0  0  0
   63.1710   32.8650   47.0960 C   0  0  0  0  0  0  0  0  0  0  0  0
   64.0293   33.4593   47.4426 H   0  0  0  0  0  0  0  0  0  0  0  0
   63.4698   32.2284   46.2501 H   0  0  0  0  0  0  0  0  0  0  0  0
   62.6980   32.0080   48.1960 N   0  0  0  0  0  0  0  0  0  0  0  0
   62.0880   32.5830   48.8230 H   0  0  0  0  0  0  0  0  0  0  0  0
   61.9050   30.8600   47.7310 C   0  0  0  0  0  0  0  0  0  0  0  0
   62.5688   29.9902   47.6180 H   0  0  0  0  0  0  0  0  0  0  0  0
   61.4419   31.1290   46.7702 H   0  0  0  0  0  0  0  0  0  0  0  0
   60.7830   30.5060   48.7230 C   0  0  0  0  0  0  0  0  0  0  0  0
   61.1854   29.8051   49.4692 H   0  0  0  0  0  0  0  0  0  0  0  0
   59.9608   30.0652   48.1402 H   0  0  0  0  0  0  0  0  0  0  0  0
   60.2370   31.6770   49.4290 N   0  0  0  0  0  0  0  0  0  0  0  0
   59.8220   32.3530   48.7490 H   0  0  0  0  0  0  0  0  0  0  0  0
   59.2990   31.3340   50.5140 C   0  0  0  0  0  0  0  0  0  0  0  0
   59.8420   31.3488   51.4705 H   0  0  0  0  0  0  0  0  0  0  0  0
   58.8883   30.3353   50.3042 H   0  0  0  0  0  0  0  0  0  0  0  0
   58.1290   32.3180   50.5950 C   0  0  0  0  0  0  0  0  0  0  0  0
   57.8908   32.5184   51.6500 H   0  0  0  0  0  0  0  0  0  0  0  0
   58.4059   33.2587   50.0966 H   0  0  0  0  0  0  0  0  0  0  0  0
   57.2497   31.8840   50.0966 H   0  0  0  0  0  0  0  0  0  0  0  0
  1  2  1  0
  2  3  1  0
  3  4  3  0
  2  5  2  0
  5  6  1  0
  6  7  2  0
  8  6  1  1
  8  9  1  0
  9 10  1  0
  9 11  1  0
  9 12  1  0
 12 13  1  6
 12 14  1  0
 14 15  1  6
 14 16  1  0
 16 17  1  0
 16 18  1  0
 16 19  1  0
 12 20  1  0
 20 21  1  6
 20 22  1  0
 22 23  1  6
 22 24  1  0
 24 25  1  1
 24 26  1  0
 26 27  1  1
 26 28  1  0
 28 29  1  0
 28 30  1  0
 30 31  1  0
 30 32  1  0
 30 33  1  0
 33 34  1  0
 33 35  1  0
 33 36  1  0
 36 37  1  0
 36 38  1  0
 38 39  1  0
 38 40  1  0
 38 41  1  0
 41 42  1  0
 41 43  1  0
 41 44  1  0
 44 45  1  0
 44 46  1  0
 46 47  1  0
 46 48  1  0
 46 49  1  0
 49 50  1  0
 49 51  1  0
 49 52  1  0
 14  5  1  0
 26 22  1  0
 20  8  1  0
 24  8  1  0
M  END
>  <UniqueID>  (15) 
15

>  <SMILES>  (15) 
CCNCCNCCN[C@@H]1C2[C@@H]1C1C3CC12C(=O)/C(=C\C#N)C3C

>  <Energy>  (15) 
492.65501974501393

>  <Genealogy>  (15) 
CCNCCNCCN[C@@H]1C2[C@@H]1C1C3CC12C(=O)C(=CC#N)C3C (chirality)
CCNCCNCCN[C@@H]1C2[C@@H]1C1C3CC12C(=O)/C(=C\C#N)C3C (cis-trans isomerization)
CCNCCNCCN[C@@H]1C2[C@@H]1C1C3CC12C(=O)/C(=C\C#N)C3C (3D coordinates assigned)
CCNCCNCCN[C@@H]1C2[C@@H]1C1C3CC12C(=O)/C(=C\C#N)C3C (nonaromatic ring conformer: 492.65501974501393 kcal/mol)

>  <smiles>  (15) 
CCNCCNCCNC1C2C3C4CC3(C(=O)C(=CC#N)C4C)C12

>  <score_type>  (15) 
oracle

>  <origin>  (15) 
adg

>  <m_score__min__energy>  (15) 
-6.75

>  <m_primary>  (15) 
energy

$$$$
15:0
     RDKit          3D

 39 40  0  0  1  0  0  0  0  0999 V2000
   63.5340   32.6600   47.2850 C   0  0  0  0  0  0  0  0  0  0  0  0
   62.6640   33.7930   46.7710 C   0  0  0  0  0  0  0  0  0  0  0  0
   61.2920   33.5800   47.1320 N   0  0  0  0  0  0  0  0  0  0  0  0
   61.0140   34.2270   48.3930 C   0  0  0  0  0  0  0  0  0  0  0  0
   59.9370   33.5130   49.1560 C   0  0  0  0  0  0  0  0  0  0  0  0
   59.6270   32.2570   48.7170 O   0  0  0  0  0  0  0  0  0  0  0  0
   60.4800   31.2670   49.1930 C   0  0  0  0  0  0  0  0  0  0  0  0
   60.7130   30.1960   48.1480 C   0  0  0  0  0  0  0  0  0  0  0  0
   60.6040   30.6410   46.7920 N   0  0  0  0  0  0  0  0  0  0  0  0
   59.4920   30.8560   46.1820 C   0  0  0  0  0  0  0  0  0  0  0  0
   58.9000   32.0610   46.2010 N   0  0  0  0  0  0  0  0  0  0  0  0
   57.7550   32.2490   45.5470 C   0  0  0  0  0  0  0  0  0  0  0  0
   57.0300   33.8400   45.6110 Cl  0  0  0  0  0  0  0  0  0  0  0  0
   57.1970   31.2170   44.8680 N   0  0  0  0  0  0  0  0  0  0  0  0
   57.7520   29.9900   44.8190 C   0  0  0  0  0  0  0  0  0  0  0  0
   57.2000   28.9350   44.1280 C   0  0  0  0  0  0  0  0  0  0  0  0
   57.8070   27.6920   44.0990 C   0  0  0  0  0  0  0  0  0  0  0  0
   58.9940   27.4900   44.7740 C   0  0  0  0  0  0  0  0  0  0  0  0
   59.5630   28.5530   45.4790 C   0  0  0  0  0  0  0  0  0  0  0  0
   58.9430   29.7850   45.4950 C   0  0  0  0  0  0  0  0  0  0  0  0
   63.5303   32.6649   48.3850 H   0  0  0  0  0  0  0  0  0  0  0  0
   63.1387   31.7001   46.9212 H   0  0  0  0  0  0  0  0  0  0  0  0
   64.5634   32.7941   46.9212 H   0  0  0  0  0  0  0  0  0  0  0  0
   63.0098   34.7413   47.2083 H   0  0  0  0  0  0  0  0  0  0  0  0
   62.7405   33.8293   45.6743 H   0  0  0  0  0  0  0  0  0  0  0  0
   60.9420   32.6230   47.0450 H   0  0  0  0  0  0  0  0  0  0  0  0
   61.9324   34.2383   48.9983 H   0  0  0  0  0  0  0  0  0  0  0  0
   60.6672   35.2500   48.1851 H   0  0  0  0  0  0  0  0  0  0  0  0
   60.2627   33.4330   50.2036 H   0  0  0  0  0  0  0  0  0  0  0  0
   59.0250   34.1114   49.0139 H   0  0  0  0  0  0  0  0  0  0  0  0
   61.4446   31.7228   49.4609 H   0  0  0  0  0  0  0  0  0  0  0  0
   60.0142   30.7995   50.0731 H   0  0  0  0  0  0  0  0  0  0  0  0
   61.7253   29.7910   48.2941 H   0  0  0  0  0  0  0  0  0  0  0  0
   59.9190   29.4483   48.2913 H   0  0  0  0  0  0  0  0  0  0  0  0
   59.3630   32.8210   46.7300 H   0  0  0  0  0  0  0  0  0  0  0  0
   56.2543   29.0837   43.5863 H   0  0  0  0  0  0  0  0  0  0  0  0
   57.3444   26.8660   43.5389 H   0  0  0  0  0  0  0  0  0  0  0  0
   59.4849   26.5057   44.7569 H   0  0  0  0  0  0  0  0  0  0  0  0
   60.5080   28.4073   46.0229 H   0  0  0  0  0  0  0  0  0  0  0  0
  1  2  1  0
  2  3  1  0
  3  4  1  0
  4  5  1  0
  5  6  1  0
  6  7  1  0
  7  8  1  0
  8  9  1  0
  9 10  2  0
 10 11  1  0
 11 12  1  0
 12 13  1  0
 12 14  2  0
 14 15  1  0
 15 16  2  0
 16 17  1  0
 17 18  2  0
 18 19  1  0
 19 20  2  0
 20 10  1  0
 20 15  1  0
  1 21  1  0
  1 22  1  0
  1 23  1  0
  2 24  1  0
  2 25  1  0
  3 26  1  0
  4 27  1  0
  4 28  1  0
  5 29  1  0
  5 30  1  0
  7 31  1  0
  7 32  1  0
  8 33  1  0
  8 34  1  0
 11 35  1  0
 16 36  1  0
 17 37  1  0
 18 38  1  0
 19 39  1  0
M  END
>  <smiles>  (16) 
CCNCCOCCN=c1[nH]c(Cl)nc2ccccc12

>  <score_type>  (16) 
oracle

>  <origin>  (16) 
adg

>  <m_score__min__energy>  (16) 
-6.21

>  <m_primary>  (16) 
energy

$$$$
16:0
     RDKit          3D

 72 74  0  0  0  0  0  0  0  0999 V2000
   63.1610   33.8340   50.8620 C   0  0  0  0  0  0  0  0  0  0  0  0
   62.6710   32.5110   50.2650 C   0  0  0  0  0  0  0  0  0  0  0  0
   62.4200   32.6420   48.8100 N   0  0  0  0  0  0  0  0  0  0  0  0
   62.9850   33.9060   48.2780 C   0  0  0  0  0  0  0  0  0  0  0  0
   63.3850   33.7210   46.8180 C   0  0  0  0  0  0  0  0  0  0  0  0
   62.9620   31.4750   48.0720 C   0  0  0  0  0  0  0  0  0  0  0  0
   61.9320   30.8800   47.0950 C   0  0  0  0  0  0  0  0  0  0  0  0
   60.9800   29.8770   47.7630 C   0  0  0  0  0  0  0  0  0  0  0  0
   59.6690   30.4790   48.0010 N   0  0  0  0  0  0  0  0  0  0  0  0
   58.9670   31.1720   46.9540 C   0  0  0  0  0  0  0  0  0  0  0  0
   58.2480   30.4270   46.0040 C   0  0  0  0  0  0  0  0  0  0  0  0
   57.9620   29.0610   46.2130 C   0  0  0  0  0  0  0  0  0  0  0  0
   57.1910   28.3460   45.3020 C   0  0  0  0  0  0  0  0  0  0  0  0
   56.6870   28.9790   44.1710 C   0  0  0  0  0  0  0  0  0  0  0  0
   56.9910   30.3160   43.9230 C   0  0  0  0  0  0  0  0  0  0  0  0
   57.8200   31.0530   44.8060 C   0  0  0  0  0  0  0  0  0  0  0  0
   58.2430   32.3340   44.5120 N   0  0  0  0  0  0  0  0  0  0  0  0
   58.1470   32.8410   43.1230 C   0  0  0  0  0  0  0  0  0  0  0  0
   58.7900   33.1260   45.5060 C   0  0  0  0  0  0  0  0  0  0  0  0
   59.0660   34.4950   45.2790 C   0  0  0  0  0  0  0  0  0  0  0  0
   59.7000   35.2690   46.2380 C   0  0  0  0  0  0  0  0  0  0  0  0
   59.9530   34.7510   47.4980 C   0  0  0  0  0  0  0  0  0  0  0  0
   59.5370   33.4500   47.8420 C   0  0  0  0  0  0  0  0  0  0  0  0
   59.5350   33.0470   49.2430 N   0  0  0  0  0  0  0  0  0  0  0  0
   59.6530   34.1870   50.1750 C   0  0  0  0  0  0  0  0  0  0  0  0
   59.3890   33.7770   51.6390 C   0  0  0  0  0  0  0  0  0  0  0  0
   59.8380   32.3470   51.9940 C   0  0  0  0  0  0  0  0  0  0  0  0
   59.2990   31.3490   51.0440 N   0  0  0  0  0  0  0  0  0  0  0  0
   57.8730   31.0870   51.3050 C   0  0  0  0  0  0  0  0  0  0  0  0
   60.0610   30.0920   51.1400 C   0  0  0  0  0  0  0  0  0  0  0  0
   59.0960   32.5750   46.7890 C   0  0  0  0  0  0  0  0  0  0  0  0
   63.1379   33.7717   51.9600 H   0  0  0  0  0  0  0  0  0  0  0  0
   64.1907   34.0282   50.5273 H   0  0  0  0  0  0  0  0  0  0  0  0
   62.5062   34.6521   50.5273 H   0  0  0  0  0  0  0  0  0  0  0  0
   63.4359   31.7377   50.4293 H   0  0  0  0  0  0  0  0  0  0  0  0
   61.7279   32.2334   50.7584 H   0  0  0  0  0  0  0  0  0  0  0  0
   62.2299   34.7025   48.3513 H   0  0  0  0  0  0  0  0  0  0  0  0
   63.8735   34.1812   48.8651 H   0  0  0  0  0  0  0  0  0  0  0  0
   64.3823   33.2598   46.7667 H   0  0  0  0  0  0  0  0  0  0  0  0
   62.6536   33.0697   46.3171 H   0  0  0  0  0  0  0  0  0  0  0  0
   63.4076   34.7001   46.3171 H   0  0  0  0  0  0  0  0  0  0  0  0
   63.8474   31.7949   47.5030 H   0  0  0  0  0  0  0  0  0  0  0  0
   63.2200   30.6986   48.8073 H   0  0  0  0  0  0  0  0  0  0  0  0
   61.3350   31.7014   46.6720 H   0  0  0  0  0  0  0  0  0  0  0  0
   62.4908   30.3362   46.3191 H   0  0  0  0  0  0  0  0  0  0  0  0
   60.8606   29.0023   47.1068 H   0  0  0  0  0  0  0  0  0  0  0  0
   61.4091   29.5768   48.7304 H   0  0  0  0  0  0  0  0  0  0  0  0
   59.1830   30.3100   48.9110 H   0  0  0  0  0  0  0  0  0  0  0  0
   58.3537   28.5550   47.1077 H   0  0  0  0  0  0  0  0  0  0  0  0
   56.9802   27.2805   45.4762 H   0  0  0  0  0  0  0  0  0  0  0  0
   56.0468   28.4228   43.4704 H   0  0  0  0  0  0  0  0  0  0  0  0
   56.5814   30.8074   43.0281 H   0  0  0  0  0  0  0  0  0  0  0  0
   57.9424   33.9217   43.1404 H   0  0  0  0  0  0  0  0  0  0  0  0
   59.0961   32.6560   42.5987 H   0  0  0  0  0  0  0  0  0  0  0  0
   57.3312   32.3218   42.5987 H   0  0  0  0  0  0  0  0  0  0  0  0
   58.7718   34.9536   44.3234 H   0  0  0  0  0  0  0  0  0  0  0  0
   60.0036   36.2987   45.9979 H   0  0  0  0  0  0  0  0  0  0  0  0
   60.4859   35.3641   48.2397 H   0  0  0  0  0  0  0  0  0  0  0  0
   60.3190   32.3770   49.4070 H   0  0  0  0  0  0  0  0  0  0  0  0
   58.6230   32.6040   49.4690 H   0  0  0  0  0  0  0  0  0  0  0  0
   60.6698   34.6002   50.1013 H   0  0  0  0  0  0  0  0  0  0  0  0
   58.8948   34.9322   49.8925 H   0  0  0  0  0  0  0  0  0  0  0  0
   59.9265   34.4783   52.2942 H   0  0  0  0  0  0  0  0  0  0  0  0
   58.2984   33.8059   51.7796 H   0  0  0  0  0  0  0  0  0  0  0  0
   60.9369   32.3030   51.9710 H   0  0  0  0  0  0  0  0  0  0  0  0
   59.4531   32.1071   52.9962 H   0  0  0  0  0  0  0  0  0  0  0  0
   57.6988   31.0550   52.3906 H   0  0  0  0  0  0  0  0  0  0  0  0
   57.2654   31.8885   50.8596 H   0  0  0  0  0  0  0  0  0  0  0  0
   57.5900   30.1218   50.8596 H   0  0  0  0  0  0  0  0  0  0  0  0
   60.2156   29.8369   52.1988 H   0  0  0  0  0  0  0  0  0  0  0  0
   59.5002   29.2846   50.6465 H   0  0  0  0  0  0  0  0  0  0  0  0
   61.0362   30.2158   50.6465 H   0  0  0  0  0  0  0  0  0  0  0  0
  1  2  1  0
  2  3  1  0
  3  4  1  0
  4  5  1  0
  3  6  1  0
  6  7  1  0
  7  8  1  0
  8  9  1  0
  9 10  1  0
 10 11  2  0
 11 12  1  0
 12 13  2  0
 13 14  1  0
 14 15  2  0
 15 16  1  0
 16 17  2  0
 17 18  1  0
 17 19  1  0
 19 20  2  0
 20 21  1  0
 21 22  2  0
 22 23  1  0
 23 24  1  0
 24 25  1  0
 25 26  1  0
 26 27  1  0
 27 28  1  0
 28 29  1  0
 28 30  1  0
 23 31  2  0
 31 10  1  0
 16 11  1  0
 31 19  1  0
  1 32  1  0
  1 33  1  0
  1 34  1  0
  2 35  1  0
  2 36  1  0
  4 37  1  0
  4 38  1  0
  5 39  1  0
  5 40  1  0
  5 41  1  0
  6 42  1  0
  6 43  1  0
  7 44  1  0
  7 45  1  0
  8 46  1  0
  8 47  1  0
  9 48  1  0
 12 49  1  0
 13 50  1  0
 14 51  1  0
 15 52  1  0
 18 53  1  0
 18 54  1  0
 18 55  1  0
 20 56  1  0
 21 57  1  0
 22 58  1  0
 24 59  1  0
 24 60  1  0
 25 61  1  0
 25 62  1  0
 26 63  1  0
 26 64  1  0
 27 65  1  0
 27 66  1  0
 29 67  1  0
 29 68  1  0
 29 69  1  0
 30 70  1  0
 30 71  1  0
 30 72  1  0
M  CHG  2  17   1  24   1
M  END
>  <UniqueID>  (17) 
16

>  <SMILES>  (17) 
CCN(CC)CCCNc1c2ccccc2[n+](C)c2cccc([NH2+]CCCN(C)C)c12

>  <Energy>  (17) 
106.50596474003932

>  <Genealogy>  (17) 
CCN(CC)CCCNc1c2ccccc2[n+](C)c2cccc([NH2+]CCCN(C)C)c12 (protonated)
CCN(CC)CCCNc1c2ccccc2[n+](C)c2cccc([NH2+]CCCN(C)C)c12 (3D coordinates assigned)
CCN(CC)CCCNc1c2ccccc2[n+](C)c2cccc([NH2+]CCCN(C)C)c12 (optimized conformer: 106.50596474003932 kcal/mol)

>  <smiles>  (17) 
CCN(CC)CCCNc1c2ccccc2[n+](C)c2cccc(NCCCN(C)C)c12

>  <score_type>  (17) 
oracle

>  <origin>  (17) 
adg

>  <m_score__min__energy>  (17) 
-4.2199999999999998

>  <m_primary>  (17) 
energy

$$$$
17:0
     RDKit          3D

 69 69  0  0  0  0  0  0  0  0999 V2000
   60.3670   30.0050   50.4610 C   0  0  0  0  0  0  0  0  0  0  0  0
   61.1420   30.1910   49.1450 C   0  0  0  0  0  0  0  0  0  0  0  0
   60.3460   30.7680   48.0350 N   0  0  0  0  0  0  0  0  0  0  0  0
   58.8950   30.6780   48.2680 C   0  0  0  0  0  0  0  0  0  0  0  0
   60.7250   30.2520   46.7000 C   0  0  0  0  0  0  0  0  0  0  0  0
   59.5190   29.5990   46.0170 C   0  0  0  0  0  0  0  0  0  0  0  0
   59.8370   29.2840   44.6730 O   0  0  0  0  0  0  0  0  0  0  0  0
   59.6540   27.9030   44.4310 C   0  0  0  0  0  0  0  0  0  0  0  0
   58.6860   27.3380   45.4600 C   0  0  0  0  0  0  0  0  0  0  0  0
   57.4140   27.1990   44.8750 O   0  0  0  0  0  0  0  0  0  0  0  0
   56.6620   28.2310   45.3410 N   0  0  0  0  0  0  0  0  0  0  0  0
   56.3660   29.3800   44.5440 C   0  0  0  0  0  0  0  0  0  0  0  0
   55.3140   30.0320   44.7810 O   0  0  0  0  0  0  0  0  0  0  0  0
   57.2550   29.7880   43.4910 N   0  0  0  0  0  0  0  0  0  0  0  0
   56.9890   30.9390   42.6260 C   0  0  0  0  0  0  0  0  0  0  0  0
   58.1450   31.9480   42.6870 C   0  0  0  0  0  0  0  0  0  0  0  0
   58.0550   32.9290   43.8700 C   0  0  0  0  0  0  0  0  0  0  0  0
   57.8250   32.2200   45.2150 C   0  0  0  0  0  0  0  0  0  0  0  0
   57.7550   33.2040   46.3970 C   0  0  0  0  0  0  0  0  0  0  0  0
   58.3360   34.5900   46.0810 C   0  0  0  0  0  0  0  0  0  0  0  0
   59.6330   34.7700   46.7480 N   0  0  0  0  0  0  0  0  0  0  0  0
   60.5850   33.7030   46.4050 C   0  0  0  0  0  0  0  0  0  0  0  0
   61.7220   33.6070   47.4000 C   0  0  0  0  0  0  0  0  0  0  0  0
   63.0220   33.3340   46.9410 C   0  0  0  0  0  0  0  0  0  0  0  0
   64.0810   33.2230   47.8430 C   0  0  0  0  0  0  0  0  0  0  0  0
   63.8560   33.3800   49.2100 C   0  0  0  0  0  0  0  0  0  0  0  0
   62.5690   33.6450   49.6820 C   0  0  0  0  0  0  0  0  0  0  0  0
   61.4880   33.7610   48.7840 C   0  0  0  0  0  0  0  0  0  0  0  0
   60.1810   34.0250   49.2280 O   0  0  0  0  0  0  0  0  0  0  0  0
   59.6300   33.5430   50.4490 C   0  0  0  0  0  0  0  0  0  0  0  0
   61.0449   30.1677   51.3119 H   0  0  0  0  0  0  0  0  0  0  0  0
   59.5414   30.7305   50.5060 H   0  0  0  0  0  0  0  0  0  0  0  0
   59.9606   28.9838   50.5060 H   0  0  0  0  0  0  0  0  0  0  0  0
   61.9934   30.8596   49.3400 H   0  0  0  0  0  0  0  0  0  0  0  0
   61.4478   29.1859   48.8191 H   0  0  0  0  0  0  0  0  0  0  0  0
   58.6975   30.6657   49.3500 H   0  0  0  0  0  0  0  0  0  0  0  0
   58.3961   31.5469   47.8140 H   0  0  0  0  0  0  0  0  0  0  0  0
   58.5073   29.7541   47.8140 H   0  0  0  0  0  0  0  0  0  0  0  0
   61.0862   31.0849   46.0788 H   0  0  0  0  0  0  0  0  0  0  0  0
   61.5175   29.4987   46.8207 H   0  0  0  0  0  0  0  0  0  0  0  0
   59.2510   28.6771   46.5539 H   0  0  0  0  0  0  0  0  0  0  0  0
   58.6709   30.2994   46.0334 H   0  0  0  0  0  0  0  0  0  0  0  0
   59.2431   27.7579   43.4210 H   0  0  0  0  0  0  0  0  0  0  0  0
   60.6204   27.3833   44.5087 H   0  0  0  0  0  0  0  0  0  0  0  0
   59.0436   26.3548   45.7998 H   0  0  0  0  0  0  0  0  0  0  0  0
   58.6232   28.0205   46.3204 H   0  0  0  0  0  0  0  0  0  0  0  0
   58.1300   29.2440   43.3230 H   0  0  0  0  0  0  0  0  0  0  0  0
   56.8691   30.5907   41.5895 H   0  0  0  0  0  0  0  0  0  0  0  0
   56.0705   31.4350   42.9729 H   0  0  0  0  0  0  0  0  0  0  0  0
   59.0886   31.3890   42.7717 H   0  0  0  0  0  0  0  0  0  0  0  0
   58.0919   32.5503   41.7681 H   0  0  0  0  0  0  0  0  0  0  0  0
   58.9953   33.4968   43.9282 H   0  0  0  0  0  0  0  0  0  0  0  0
   57.1919   33.5868   43.6902 H   0  0  0  0  0  0  0  0  0  0  0  0
   56.8775   31.6637   45.1628 H   0  0  0  0  0  0  0  0  0  0  0  0
   58.6793   31.5493   45.3892 H   0  0  0  0  0  0  0  0  0  0  0  0
   56.7004   33.3268   46.6848 H   0  0  0  0  0  0  0  0  0  0  0  0
   58.3640   32.7771   47.2075 H   0  0  0  0  0  0  0  0  0  0  0  0
   58.4720   34.6859   44.9937 H   0  0  0  0  0  0  0  0  0  0  0  0
   57.6391   35.3589   46.4459 H   0  0  0  0  0  0  0  0  0  0  0  0
   59.4830   34.7810   47.7850 H   0  0  0  0  0  0  0  0  0  0  0  0
   60.0488   32.7427   46.3866 H   0  0  0  0  0  0  0  0  0  0  0  0
   61.0170   33.9402   45.4216 H   0  0  0  0  0  0  0  0  0  0  0  0
   63.2059   33.2070   45.8639 H   0  0  0  0  0  0  0  0  0  0  0  0
   65.0956   33.0111   47.4747 H   0  0  0  0  0  0  0  0  0  0  0  0
   64.6938   33.2950   49.9177 H   0  0  0  0  0  0  0  0  0  0  0  0
   62.3971   33.7641   50.7619 H   0  0  0  0  0  0  0  0  0  0  0  0
   60.1576   34.0045   51.2968 H   0  0  0  0  0  0  0  0  0  0  0  0
   58.5620   33.8020   50.4968 H   0  0  0  0  0  0  0  0  0  0  0  0
   59.7447   32.4500   50.4968 H   0  0  0  0  0  0  0  0  0  0  0  0
  1  2  1  0
  2  3  1  0
  3  4  1  0
  3  5  1  0
  5  6  1  0
  6  7  1  0
  7  8  1  0
  8  9  1  0
  9 10  1  0
 10 11  1  0
 11 12  1  0
 12 13  2  0
 12 14  1  0
 14 15  1  0
 15 16  1  0
 16 17  1  0
 17 18  1  0
 18 19  1  0
 19 20  1  0
 20 21  1  0
 21 22  1  0
 22 23  1  0
 23 24  2  0
 24 25  1  0
 25 26  2  0
 26 27  1  0
 27 28  2  0
 28 29  1  0
 29 30  1  0
 28 23  1  0
  1 31  1  0
  1 32  1  0
  1 33  1  0
  2 34  1  0
  2 35  1  0
  4 36  1  0
  4 37  1  0
  4 38  1  0
  5 39  1  0
  5 40  1  0
  6 41  1  0
  6 42  1  0
  8 43  1  0
  8 44  1  0
  9 45  1  0
  9 46  1  0
 14 47  1  0
 15 48  1  0
 15 49  1  0
 16 50  1  0
 16 51  1  0
 17 52  1  0
 17 53  1  0
 18 54  1  0
 18 55  1  0
 19 56  1  0
 19 57  1  0
 20 58  1  0
 20 59  1  0
 21 60  1  0
 22 61  1  0
 22 62  1  0
 24 63  1  0
 25 64  1  0
 26 65  1  0
 27 66  1  0
 30 67  1  0
 30 68  1  0
 30 69  1  0
M  CHG  1  11  -1
M  END
>  <UniqueID>  (18) 
17

>  <SMILES>  (18) 
CCN(C)CCOCCO[N-]C(=O)NCCCCCCNCc1ccccc1OC

>  <Energy>  (18) 
55.14769393587638

>  <Genealogy>  (18) 
CCN(C)CCOCCO[N-]C(=O)NCCCCCCNCc1ccccc1OC (protonated)
CCN(C)CCOCCO[N-]C(=O)NCCCCCCNCc1ccccc1OC (3D coordinates assigned)
CCN(C)CCOCCO[N-]C(=O)NCCCCCCNCc1ccccc1OC (optimized conformer: 55.14769393587638 kcal/mol)

>  <smiles>  (18) 
CCN(C)CCOCCONC(=O)NCCCCCCNCc1ccccc1OC

>  <score_type>  (18) 
oracle

>  <origin>  (18) 
adg

>  <m_score__min__energy>  (18) 
-9.3300000000000001

>  <m_primary>  (18) 
energy

$$$$
18:0
     RDKit          3D

 45 47  0  0  0  0  0  0  0  0999 V2000
   55.5420   25.0210   45.6230 C   0  0  0  0  0  0  0  0  0  0  0  0
   56.2950   25.8960   46.6170 C   0  0  0  0  0  0  0  0  0  0  0  0
   56.9260   27.0190   45.9180 N   0  0  0  0  0  0  0  0  0  0  0  0
   58.3890   26.9090   45.9790 C   0  0  0  0  0  0  0  0  0  0  0  0
   59.0150   28.2670   46.3020 C   0  0  0  0  0  0  0  0  0  0  0  0
   57.9960   29.2580   46.6550 N   0  0  0  0  0  0  0  0  0  0  0  0
   58.0920   30.6190   46.2020 C   0  0  0  0  0  0  0  0  0  0  0  0
   58.6650   31.5830   47.0480 C   0  0  0  0  0  0  0  0  0  0  0  0
   58.8960   31.3020   48.4130 C   0  0  0  0  0  0  0  0  0  0  0  0
   59.4160   32.2760   49.2620 C   0  0  0  0  0  0  0  0  0  0  0  0
   59.7010   33.5450   48.7710 C   0  0  0  0  0  0  0  0  0  0  0  0
   59.4980   33.8380   47.4230 C   0  0  0  0  0  0  0  0  0  0  0  0
   59.0110   32.8530   46.5260 C   0  0  0  0  0  0  0  0  0  0  0  0
   58.8810   33.0980   45.1740 N   0  0  0  0  0  0  0  0  0  0  0  0
   59.5680   34.2600   44.5680 C   0  0  0  0  0  0  0  0  0  0  0  0
   58.1300   32.2450   44.3840 C   0  0  0  0  0  0  0  0  0  0  0  0
   57.7800   32.5930   43.0570 C   0  0  0  0  0  0  0  0  0  0  0  0
   57.0840   31.7120   42.2390 C   0  0  0  0  0  0  0  0  0  0  0  0
   56.6530   30.4920   42.7360 C   0  0  0  0  0  0  0  0  0  0  0  0
   56.8950   30.1380   44.0660 C   0  0  0  0  0  0  0  0  0  0  0  0
   56.2360   28.9670   44.5640 N   0  0  0  0  0  0  0  0  0  0  0  0
   57.6870   30.9880   44.8970 C   0  0  0  0  0  0  0  0  0  0  0  0
   54.9194   24.2975   46.1697 H   0  0  0  0  0  0  0  0  0  0  0  0
   54.9007   25.6527   44.9908 H   0  0  0  0  0  0  0  0  0  0  0  0
   56.2622   24.4810   44.9908 H   0  0  0  0  0  0  0  0  0  0  0  0
   55.5907   26.2836   47.3678 H   0  0  0  0  0  0  0  0  0  0  0  0
   57.0727   25.2948   47.1107 H   0  0  0  0  0  0  0  0  0  0  0  0
   56.6430   26.9780   44.9120 H   0  0  0  0  0  0  0  0  0  0  0  0
   58.6655   26.1875   46.7619 H   0  0  0  0  0  0  0  0  0  0  0  0
   58.7614   26.5689   45.0014 H   0  0  0  0  0  0  0  0  0  0  0  0
   59.7072   28.1491   47.1487 H   0  0  0  0  0  0  0  0  0  0  0  0
   59.5471   28.6230   45.4075 H   0  0  0  0  0  0  0  0  0  0  0  0
   57.3930   29.0610   47.4850 H   0  0  0  0  0  0  0  0  0  0  0  0
   58.6626   30.3029   48.8098 H   0  0  0  0  0  0  0  0  0  0  0  0
   59.6011   32.0412   50.3206 H   0  0  0  0  0  0  0  0  0  0  0  0
   60.0880   34.3206   49.4483 H   0  0  0  0  0  0  0  0  0  0  0  0
   59.7190   34.8487   47.0494 H   0  0  0  0  0  0  0  0  0  0  0  0
   59.9544   34.9136   45.3640 H   0  0  0  0  0  0  0  0  0  0  0  0
   60.4033   33.9080   43.9448 H   0  0  0  0  0  0  0  0  0  0  0  0
   58.8570   34.8222   43.9448 H   0  0  0  0  0  0  0  0  0  0  0  0
   58.0649   33.5808   42.6659 H   0  0  0  0  0  0  0  0  0  0  0  0
   56.8743   31.9834   41.1938 H   0  0  0  0  0  0  0  0  0  0  0  0
   56.1148   29.7952   42.0766 H   0  0  0  0  0  0  0  0  0  0  0  0
   56.3160   28.0580   44.0630 H   0  0  0  0  0  0  0  0  0  0  0  0
   55.9080   28.9300   45.5550 H   0  0  0  0  0  0  0  0  0  0  0  0
  1  2  1  0
  2  3  1  0
  3  4  1  0
  4  5  1  0
  5  6  1  0
  6  7  1  0
  7  8  2  0
  8  9  1  0
  9 10  2  0
 10 11  1  0
 11 12  2  0
 12 13  1  0
 13 14  2  0
 14 15  1  0
 14 16  1  0
 16 17  2  0
 17 18  1  0
 18 19  2  0
 19 20  1  0
 20 21  1  0
 20 22  2  0
 22  7  1  0
 13  8  1  0
 22 16  1  0
  1 23  1  0
  1 24  1  0
  1 25  1  0
  2 26  1  0
  2 27  1  0
  3 28  1  0
  4 29  1  0
  4 30  1  0
  5 31  1  0
  5 32  1  0
  6 33  1  0
  9 34  1  0
 10 35  1  0
 11 36  1  0
 12 37  1  0
 15 38  1  0
 15 39  1  0
 15 40  1  0
 17 41  1  0
 18 42  1  0
 19 43  1  0
 21 44  1  0
 21 45  1  0
M  CHG  1  14   1
M  END
>  <UniqueID>  (19) 
18

>  <SMILES>  (19) 
CCNCCNc1c2ccccc2[n+](C)c2cccc(N)c12

>  <Energy>  (19) 
72.8419984773752

>  <Genealogy>  (19) 
CCNCCNc1c2ccccc2[n+](C)c2cccc(N)c12 (3D coordinates assigned)
CCNCCNc1c2ccccc2[n+](C)c2cccc(N)c12 (optimized conformer: 72.8419984773752 kcal/mol)

>  <smiles>  (19) 
CCNCCNc1c2ccccc2[n+](C)c2cccc(N)c12

>  <score_type>  (19) 
oracle

>  <origin>  (19) 
adg

>  <m_score__min__energy>  (19) 
-5.3700000000000001

>  <m_primary>  (19) 
energy

$$$$
19:0
     RDKit          3D

 67 70  0  0  0  0  0  0  0  0999 V2000
   63.0990   32.7660   47.1310 C   0  0  0  0  0  0  0  0  0  0  0  0
   62.3470   31.6270   47.8380 C   0  0  0  0  0  0  0  0  0  0  0  0
   61.8670   31.9460   49.2100 N   0  0  0  0  0  0  0  0  0  0  0  0
   61.6540   33.3920   49.4600 C   0  0  0  0  0  0  0  0  0  0  0  0
   62.8160   34.0210   50.2310 C   0  0  0  0  0  0  0  0  0  0  0  0
   62.6930   31.3360   50.2770 C   0  0  0  0  0  0  0  0  0  0  0  0
   62.2250   29.9130   50.6220 C   0  0  0  0  0  0  0  0  0  0  0  0
   60.8940   29.6990   50.1900 O   0  0  0  0  0  0  0  0  0  0  0  0
   60.2190   28.8290   51.0730 C   0  0  0  0  0  0  0  0  0  0  0  0
   59.0700   29.5800   51.7310 C   0  0  0  0  0  0  0  0  0  0  0  0
   58.2100   30.0830   50.7290 O   0  0  0  0  0  0  0  0  0  0  0  0
   57.9220   31.4490   50.9610 C   0  0  0  0  0  0  0  0  0  0  0  0
   58.4050   32.2960   49.7820 C   0  0  0  0  0  0  0  0  0  0  0  0
   59.2340   31.5040   48.8740 N   0  0  0  0  0  0  0  0  0  0  0  0
   58.9580   31.4920   47.4710 C   0  0  0  0  0  0  0  0  0  0  0  0
   58.6980   30.2960   46.8130 C   0  0  0  0  0  0  0  0  0  0  0  0
   58.4530   30.2600   45.4510 C   0  0  0  0  0  0  0  0  0  0  0  0
   58.3300   31.4110   44.7120 N   0  0  0  0  0  0  0  0  0  0  0  0
   57.7650   31.3560   43.3540 C   0  0  0  0  0  0  0  0  0  0  0  0
   58.6890   32.6150   45.3010 C   0  0  0  0  0  0  0  0  0  0  0  0
   58.7960   33.8100   44.5480 C   0  0  0  0  0  0  0  0  0  0  0  0
   59.1310   35.0180   45.1610 C   0  0  0  0  0  0  0  0  0  0  0  0
   59.3790   35.0690   46.5280 C   0  0  0  0  0  0  0  0  0  0  0  0
   59.3140   33.9080   47.2970 C   0  0  0  0  0  0  0  0  0  0  0  0
   58.9840   32.6740   46.7030 C   0  0  0  0  0  0  0  0  0  0  0  0
   58.2770   28.8390   45.0570 C   0  0  0  0  0  0  0  0  0  0  0  0
   58.2180   28.2200   43.8000 C   0  0  0  0  0  0  0  0  0  0  0  0
   58.1260   26.8200   43.7420 C   0  0  0  0  0  0  0  0  0  0  0  0
   58.1380   26.0510   44.9220 C   0  0  0  0  0  0  0  0  0  0  0  0
   58.2670   26.6760   46.1710 C   0  0  0  0  0  0  0  0  0  0  0  0
   58.3440   28.0670   46.2090 C   0  0  0  0  0  0  0  0  0  0  0  0
   58.6010   28.9390   47.3430 C   0  0  0  0  0  0  0  0  0  0  0  0
   58.7060   28.5860   48.5470 O   0  0  0  0  0  0  0  0  0  0  0  0
   63.5412   33.4358   47.8832 H   0  0  0  0  0  0  0  0  0  0  0  0
   63.8965   32.3438   46.5019 H   0  0  0  0  0  0  0  0  0  0  0  0
   62.3975   33.3335   46.5019 H   0  0  0  0  0  0  0  0  0  0  0  0
   61.4736   31.3622   47.2240 H   0  0  0  0  0  0  0  0  0  0  0  0
   63.0690   30.8045   47.9487 H   0  0  0  0  0  0  0  0  0  0  0  0
   61.5495   33.9072   48.4937 H   0  0  0  0  0  0  0  0  0  0  0  0
   60.7453   33.4995   50.0705 H   0  0  0  0  0  0  0  0  0  0  0  0
   62.6349   33.9229   51.3115 H   0  0  0  0  0  0  0  0  0  0  0  0
   63.7519   33.5063   49.9679 H   0  0  0  0  0  0  0  0  0  0  0  0
   62.8968   35.0860   49.9679 H   0  0  0  0  0  0  0  0  0  0  0  0
   63.7383   31.2939   49.9371 H   0  0  0  0  0  0  0  0  0  0  0  0
   62.5942   31.9556   51.1805 H   0  0  0  0  0  0  0  0  0  0  0  0
   62.8856   29.1867   50.1259 H   0  0  0  0  0  0  0  0  0  0  0  0
   62.2642   29.7858   51.7139 H   0  0  0  0  0  0  0  0  0  0  0  0
   59.8238   27.9690   50.5124 H   0  0  0  0  0  0  0  0  0  0  0  0
   60.9163   28.4693   51.8440 H   0  0  0  0  0  0  0  0  0  0  0  0
   58.5109   28.8961   52.3865 H   0  0  0  0  0  0  0  0  0  0  0  0
   59.4673   30.4130   52.3296 H   0  0  0  0  0  0  0  0  0  0  0  0
   56.8359   31.5767   51.0799 H   0  0  0  0  0  0  0  0  0  0  0  0
   58.4397   31.7758   51.8749 H   0  0  0  0  0  0  0  0  0  0  0  0
   57.5324   32.6780   49.2319 H   0  0  0  0  0  0  0  0  0  0  0  0
   59.0087   33.1287   50.1721 H   0  0  0  0  0  0  0  0  0  0  0  0
   59.9100   30.8010   49.2520 H   0  0  0  0  0  0  0  0  0  0  0  0
   56.6719   31.2496   43.4157 H   0  0  0  0  0  0  0  0  0  0  0  0
   58.0134   32.2826   42.8157 H   0  0  0  0  0  0  0  0  0  0  0  0
   58.1874   30.4947   42.8157 H   0  0  0  0  0  0  0  0  0  0  0  0
   58.6123   33.7854   43.4637 H   0  0  0  0  0  0  0  0  0  0  0  0
   59.1993   35.9359   44.5587 H   0  0  0  0  0  0  0  0  0  0  0  0
   59.6274   36.0288   47.0045 H   0  0  0  0  0  0  0  0  0  0  0  0
   59.5220   33.9559   48.3761 H   0  0  0  0  0  0  0  0  0  0  0  0
   58.2433   28.8192   42.8779 H   0  0  0  0  0  0  0  0  0  0  0  0
   58.0438   26.3193   42.7660 H   0  0  0  0  0  0  0  0  0  0  0  0
   58.0459   24.9564   44.8638 H   0  0  0  0  0  0  0  0  0  0  0  0
   58.3064   26.0834   47.0969 H   0  0  0  0  0  0  0  0  0  0  0  0
  1  2  1  0
  2  3  1  0
  3  4  1  0
  4  5  1  0
  3  6  1  0
  6  7  1  0
  7  8  1  0
  8  9  1  0
  9 10  1  0
 10 11  1  0
 11 12  1  0
 12 13  1  0
 13 14  1  0
 14 15  1  0
 15 16  2  0
 16 17  1  0
 17 18  2  0
 18 19  1  0
 18 20  1  0
 20 21  2  0
 21 22  1  0
 22 23  2  0
 23 24  1  0
 24 25  2  0
 17 26  1  0
 26 27  2  0
 27 28  1  0
 28 29  2  0
 29 30  1  0
 30 31  2  0
 31 32  1  0
 32 33  2  0
 25 15  1  0
 31 26  1  0
 32 16  1  0
 25 20  1  0
  1 34  1  0
  1 35  1  0
  1 36  1  0
  2 37  1  0
  2 38  1  0
  4 39  1  0
  4 40  1  0
  5 41  1  0
  5 42  1  0
  5 43  1  0
  6 44  1  0
  6 45  1  0
  7 46  1  0
  7 47  1  0
  9 48  1  0
  9 49  1  0
 10 50  1  0
 10 51  1  0
 12 52  1  0
 12 53  1  0
 13 54  1  0
 13 55  1  0
 14 56  1  0
 19 57  1  0
 19 58  1  0
 19 59  1  0
 21 60  1  0
 22 61  1  0
 23 62  1  0
 24 63  1  0
 27 64  1  0
 28 65  1  0
 29 66  1  0
 30 67  1  0
M  CHG  1  18   1
M  END
>  <UniqueID>  (20) 
19

>  <SMILES>  (20) 
CCN(CC)CCOCCOCCNc1c2c([n+](C)c3ccccc13)-c1ccccc1C2=O

>  <Energy>  (20) 
126.10976165369456

>  <Genealogy>  (20) 
CCN(CC)CCOCCOCCNc1c2c([n+](C)c3ccccc13)-c1ccccc1C2=O (3D coordinates assigned)
CCN(CC)CCOCCOCCNc1c2c([n+](C)c3ccccc13)-c1ccccc1C2=O (nonaromatic ring conformer: 126.10976165369456 kcal/mol)

>  <smiles>  (20) 
CCN(CC)CCOCCOCCNc1c2c([n+](C)c3ccccc13)-c1ccccc1C2=O

>  <score_type>  (20) 
oracle

>  <origin>  (20) 
adg

>  <m_score__min__energy>  (20) 
-6.0300000000000002

>  <m_primary>  (20) 
energy

$$$$
20:0
     RDKit          3D

 43 45  0  0  0  0  0  0  0  0999 V2000
   56.8140   25.1040   45.3390 C   0  0  0  0  0  0  0  0  0  0  0  0
   55.8670   26.0950   45.9960 C   0  0  0  0  0  0  0  0  0  0  0  0
   56.2910   27.4220   45.6970 O   0  0  0  0  0  0  0  0  0  0  0  0
   57.5950   27.9060   45.8970 C   0  0  0  0  0  0  0  0  0  0  0  0
   58.1840   27.9440   47.1770 C   0  0  0  0  0  0  0  0  0  0  0  0
   59.4880   28.4130   47.3400 C   0  0  0  0  0  0  0  0  0  0  0  0
   60.2160   28.8570   46.2360 C   0  0  0  0  0  0  0  0  0  0  0  0
   59.6460   28.8270   44.9630 C   0  0  0  0  0  0  0  0  0  0  0  0
   58.3390   28.3430   44.7800 C   0  0  0  0  0  0  0  0  0  0  0  0
   57.7580   28.2670   43.3860 C   0  0  0  0  0  0  0  0  0  0  0  0
   56.4740   28.9820   43.2880 N   0  0  0  0  0  0  0  0  0  0  0  0
   56.6130   30.3300   42.7140 C   0  0  0  0  0  0  0  0  0  0  0  0
   57.2820   31.2390   43.6960 C   0  0  0  0  0  0  0  0  0  0  0  0
   58.0980   32.3130   43.3760 C   0  0  0  0  0  0  0  0  0  0  0  0
   58.3660   32.9480   44.5250 N   0  0  0  0  0  0  0  0  0  0  0  0
   59.0740   34.0840   44.7450 C   0  0  0  0  0  0  0  0  0  0  0  0
   59.1540   34.5720   46.0630 C   0  0  0  0  0  0  0  0  0  0  0  0
   59.9530   35.8030   46.3680 C   0  0  0  0  0  0  0  0  0  0  0  0
   58.5190   33.8520   47.1000 C   0  0  0  0  0  0  0  0  0  0  0  0
   57.7920   32.6850   46.8180 C   0  0  0  0  0  0  0  0  0  0  0  0
   57.7380   32.2610   45.4930 C   0  0  0  0  0  0  0  0  0  0  0  0
   57.0530   31.1960   45.0320 N   0  0  0  0  0  0  0  0  0  0  0  0
   57.3521   24.5409   46.1157 H   0  0  0  0  0  0  0  0  0  0  0  0
   56.2383   24.4065   44.7129 H   0  0  0  0  0  0  0  0  0  0  0  0
   57.5369   25.6475   44.7129 H   0  0  0  0  0  0  0  0  0  0  0  0
   54.8481   25.9396   45.6116 H   0  0  0  0  0  0  0  0  0  0  0  0
   55.8732   25.9433   47.0855 H   0  0  0  0  0  0  0  0  0  0  0  0
   57.6124   27.6020   48.0524 H   0  0  0  0  0  0  0  0  0  0  0  0
   59.9430   28.4327   48.3413 H   0  0  0  0  0  0  0  0  0  0  0  0
   61.2416   29.2315   46.3694 H   0  0  0  0  0  0  0  0  0  0  0  0
   60.2229   29.1843   44.0972 H   0  0  0  0  0  0  0  0  0  0  0  0
   58.4705   28.7163   42.6785 H   0  0  0  0  0  0  0  0  0  0  0  0
   57.5784   27.2082   43.1481 H   0  0  0  0  0  0  0  0  0  0  0  0
   56.1090   29.0910   44.2640 H   0  0  0  0  0  0  0  0  0  0  0  0
   57.2190   30.2748   41.7976 H   0  0  0  0  0  0  0  0  0  0  0  0
   55.6143   30.7263   42.4782 H   0  0  0  0  0  0  0  0  0  0  0  0
   58.4560   32.5901   42.3735 H   0  0  0  0  0  0  0  0  0  0  0  0
   59.5718   34.6092   43.9165 H   0  0  0  0  0  0  0  0  0  0  0  0
   60.0336   35.9271   47.4580 H   0  0  0  0  0  0  0  0  0  0  0  0
   60.9593   35.7037   45.9349 H   0  0  0  0  0  0  0  0  0  0  0  0
   59.4525   36.6816   45.9349 H   0  0  0  0  0  0  0  0  0  0  0  0
   58.5952   34.2094   48.1375 H   0  0  0  0  0  0  0  0  0  0  0  0
   57.2827   32.1249   47.6160 H   0  0  0  0  0  0  0  0  0  0  0  0
  1  2  1  0
  2  3  1  0
  3  4  1  0
  4  5  2  0
  5  6  1  0
  6  7  2  0
  7  8  1  0
  8  9  2  0
  9 10  1  0
 10 11  1  0
 11 12  1  0
 12 13  1  0
 13 14  2  0
 14 15  1  0
 15 16  1  0
 16 17  2  0
 17 18  1  0
 17 19  1  0
 19 20  2  0
 20 21  1  0
 21 22  2  0
  9  4  1  0
 22 13  1  0
 21 15  1  0
  1 23  1  0
  1 24  1  0
  1 25  1  0
  2 26  1  0
  2 27  1  0
  5 28  1  0
  6 29  1  0
  7 30  1  0
  8 31  1  0
 10 32  1  0
 10 33  1  0
 11 34  1  0
 12 35  1  0
 12 36  1  0
 14 37  1  0
 16 38  1  0
 18 39  1  0
 18 40  1  0
 18 41  1  0
 19 42  1  0
 20 43  1  0
M  END
>  <UniqueID>  (21) 
20

>  <SMILES>  (21) 
CCOc1ccccc1CNCc1cn2cc(C)ccc2n1

>  <Energy>  (21) 
70.01089911172828

>  <Genealogy>  (21) 
CCOc1ccccc1CNCc1cn2cc(C)ccc2n1 (3D coordinates assigned)
CCOc1ccccc1CNCc1cn2cc(C)ccc2n1 (optimized conformer: 70.01089911172828 kcal/mol)

>  <smiles>  (21) 
CCOc1ccccc1CNCc1cn2cc(C)ccc2n1

>  <score_type>  (21) 
oracle

>  <origin>  (21) 
adg

>  <m_score__min__energy>  (21) 
-7.2999999999999998

>  <m_primary>  (21) 
energy

$$$$
