0:0
     RDKit          3D

 62 65  0  0  0  0  0  0  0  0999 V2000
   60.2210   28.4260   45.1100 C   0  0  0  0  0  0  0  0  0  0  0  0
   59.3900   29.7010   45.0670 C   0  0  0  0  0  0  0  0  0  0  0  0
   58.1630   29.5190   45.8810 N   0  0  0  0  0  0  0  0  0  0  0  0
   56.9560   29.2410   45.0730 C   0  0  0  0  0  0  0  0  0  0  0  0
   56.6730   30.3870   44.1050 C   0  0  0  0  0  0  0  0  0  0  0  0
   58.3440   28.5530   46.9870 C   0  0  0  0  0  0  0  0  0  0  0  0
   59.1520   29.1150   48.1740 C   0  0  0  0  0  0  0  0  0  0  0  0
   58.8480   30.5290   48.3800 N   0  0  0  0  0  0  0  0  0  0  0  0
   59.7750   31.5340   47.9520 C   0  0  0  0  0  0  0  0  0  0  0  0
   61.0500   31.5730   48.5000 C   0  0  0  0  0  0  0  0  0  0  0  0
   61.9760   32.5060   48.0780 C   0  0  0  0  0  0  0  0  0  0  0  0
   61.7190   33.3590   47.0330 N   0  0  0  0  0  0  0  0  0  0  0  0
   62.8210   34.0950   46.3910 C   0  0  0  0  0  0  0  0  0  0  0  0
   60.4190   33.4510   46.5620 C   0  0  0  0  0  0  0  0  0  0  0  0
   60.0250   34.4680   45.6570 C   0  0  0  0  0  0  0  0  0  0  0  0
   58.7140   34.5370   45.1830 C   0  0  0  0  0  0  0  0  0  0  0  0
   57.7620   33.6160   45.6070 C   0  0  0  0  0  0  0  0  0  0  0  0
   58.1070   32.6200   46.5190 C   0  0  0  0  0  0  0  0  0  0  0  0
   59.4250   32.5210   47.0060 C   0  0  0  0  0  0  0  0  0  0  0  0
   63.1930   32.3160   48.8790 C   0  0  0  0  0  0  0  0  0  0  0  0
   64.3410   33.1040   49.0200 C   0  0  0  0  0  0  0  0  0  0  0  0
   65.3380   32.7080   49.9400 C   0  0  0  0  0  0  0  0  0  0  0  0
   66.5300   33.4330   50.1000 O   0  0  0  0  0  0  0  0  0  0  0  0
   66.9210   34.0900   51.3010 C   0  0  0  0  0  0  0  0  0  0  0  0
   65.1450   31.5590   50.7380 C   0  0  0  0  0  0  0  0  0  0  0  0
   66.1600   31.1940   51.6360 O   0  0  0  0  0  0  0  0  0  0  0  0
   67.1370   30.1910   51.3820 C   0  0  0  0  0  0  0  0  0  0  0  0
   63.9450   30.8220   50.6290 C   0  0  0  0  0  0  0  0  0  0  0  0
   62.9850   31.2260   49.7050 C   0  0  0  0  0  0  0  0  0  0  0  0
   61.6160   30.6480   49.5350 C   0  0  0  0  0  0  0  0  0  0  0  0
   60.4051   28.1435   46.1570 H   0  0  0  0  0  0  0  0  0  0  0  0
   59.6767   27.6163   44.6020 H   0  0  0  0  0  0  0  0  0  0  0  0
   61.1816   28.5971   44.6020 H   0  0  0  0  0  0  0  0  0  0  0  0
   59.9790   30.5365   45.4732 H   0  0  0  0  0  0  0  0  0  0  0  0
   59.1103   29.9216   44.0263 H   0  0  0  0  0  0  0  0  0  0  0  0
   57.1117   28.3153   44.4996 H   0  0  0  0  0  0  0  0  0  0  0  0
   56.0964   29.1329   45.7508 H   0  0  0  0  0  0  0  0  0  0  0  0
   56.4474   31.3007   44.6744 H   0  0  0  0  0  0  0  0  0  0  0  0
   57.5558   30.5584   43.4715 H   0  0  0  0  0  0  0  0  0  0  0  0
   55.8119   30.1277   43.4715 H   0  0  0  0  0  0  0  0  0  0  0  0
   57.3508   28.2542   47.3533 H   0  0  0  0  0  0  0  0  0  0  0  0
   58.9147   27.7040   46.5825 H   0  0  0  0  0  0  0  0  0  0  0  0
   58.8948   28.5537   49.0844 H   0  0  0  0  0  0  0  0  0  0  0  0
   60.2246   29.0116   47.9532 H   0  0  0  0  0  0  0  0  0  0  0  0
   58.1050   30.8050   49.0620 H   0  0  0  0  0  0  0  0  0  0  0  0
   63.4714   34.5294   47.1645 H   0  0  0  0  0  0  0  0  0  0  0  0
   63.4062   33.4058   45.7645 H   0  0  0  0  0  0  0  0  0  0  0  0
   62.4086   34.8996   45.7645 H   0  0  0  0  0  0  0  0  0  0  0  0
   60.7624   35.2131   45.3236 H   0  0  0  0  0  0  0  0  0  0  0  0
   58.4319   35.3251   44.4693 H   0  0  0  0  0  0  0  0  0  0  0  0
   56.7334   33.6738   45.2214 H   0  0  0  0  0  0  0  0  0  0  0  0
   57.3438   31.9055   46.8612 H   0  0  0  0  0  0  0  0  0  0  0  0
   64.4656   34.0193   48.4227 H   0  0  0  0  0  0  0  0  0  0  0  0
   66.5743   33.5074   52.1672 H   0  0  0  0  0  0  0  0  0  0  0  0
   68.0172   34.1758   51.3318 H   0  0  0  0  0  0  0  0  0  0  0  0
   66.4736   35.0944   51.3318 H   0  0  0  0  0  0  0  0  0  0  0  0
   67.5179   29.8000   52.3370 H   0  0  0  0  0  0  0  0  0  0  0  0
   66.6808   29.3722   50.8063 H   0  0  0  0  0  0  0  0  0  0  0  0
   67.9675   30.6256   50.8063 H   0  0  0  0  0  0  0  0  0  0  0  0
   63.7714   29.9415   51.2650 H   0  0  0  0  0  0  0  0  0  0  0  0
   61.6564   29.6103   49.1724 H   0  0  0  0  0  0  0  0  0  0  0  0
   61.0281   30.5865   50.4627 H   0  0  0  0  0  0  0  0  0  0  0  0
  1  2  1  0
  2  3  1  0
  3  4  1  0
  4  5  1  0
  3  6  1  0
  6  7  1  0
  7  8  1  0
  8  9  1  0
  9 10  2  0
 10 11  1  0
 11 12  2  0
 12 13  1  0
 12 14  1  0
 14 15  2  0
 15 16  1  0
 16 17  2  0
 17 18  1  0
 18 19  2  0
 11 20  1  0
 20 21  2  0
 21 22  1  0
 22 23  1  0
 23 24  1  0
 22 25  2  0
 25 26  1  0
 26 27  1  0
 25 28  1  0
 28 29  2  0
 29 30  1  0
 19  9  1  0
 29 20  1  0
 30 10  1  0
 19 14  1  0
  1 31  1  0
  1 32  1  0
  1 33  1  0
  2 34  1  0
  2 35  1  0
  4 36  1  0
  4 37  1  0
  5 38  1  0
  5 39  1  0
  5 40  1  0
  6 41  1  0
  6 42  1  0
  7 43  1  0
  7 44  1  0
  8 45  1  0
 13 46  1  0
 13 47  1  0
 13 48  1  0
 15 49  1  0
 16 50  1  0
 17 51  1  0
 18 52  1  0
 21 53  1  0
 24 54  1  0
 24 55  1  0
 24 56  1  0
 27 57  1  0
 27 58  1  0
 27 59  1  0
 28 60  1  0
 30 61  1  0
 30 62  1  0
M  CHG  1  12   1
M  END
>  <UniqueID>  (1) 
1

>  <SMILES>  (1) 
CCN(CC)CCNc1c2c([n+](C)c3ccccc13)-c1cc(OC)c(OC)cc1C2

>  <Energy>  (1) 
105.96625551535983

>  <Genealogy>  (1) 
CCN(CC)CCNc1c2c([n+](C)c3ccccc13)-c1cc(OC)c(OC)cc1C2 (3D coordinates assigned)
CCN(CC)CCNc1c2c([n+](C)c3ccccc13)-c1cc(OC)c(OC)cc1C2 (nonaromatic ring conformer: 105.96625551535983 kcal/mol)

>  <smiles>  (1) 
CCN(CC)CCNc1c2c([n+](C)c3ccccc13)-c1cc(OC)c(OC)cc1C2

>  <score_type>  (1) 
oracle

>  <origin>  (1) 
adg

>  <m_score__min__energy>  (1) 
-6

>  <m_primary>  (1) 
energy

$$$$
1:0
     RDKit          3D

 51 53  0  0  0  0  0  0  0  0999 V2000
   60.6640   26.7280   49.4050 C   0  0  0  0  0  0  0  0  0  0  0  0
   59.6810   26.6620   48.3770 O   0  0  0  0  0  0  0  0  0  0  0  0
   59.2720   27.7470   47.5800 C   0  0  0  0  0  0  0  0  0  0  0  0
   59.7700   29.0450   47.7780 C   0  0  0  0  0  0  0  0  0  0  0  0
   59.3420   30.1400   46.9850 C   0  0  0  0  0  0  0  0  0  0  0  0
   59.7760   31.4780   47.2340 C   0  0  0  0  0  0  0  0  0  0  0  0
   60.6810   31.7930   48.3370 N   0  0  0  0  0  0  0  0  0  0  0  0
   61.9540   31.0510   48.2430 C   0  0  0  0  0  0  0  0  0  0  0  0
   63.1340   31.9590   47.8230 C   0  0  0  0  0  0  0  0  0  0  0  0
   62.7670   33.3780   47.6140 N   0  0  0  0  0  0  0  0  0  0  0  0
   63.0470   34.2270   48.7830 C   0  0  0  0  0  0  0  0  0  0  0  0
   63.3480   33.9480   46.3880 C   0  0  0  0  0  0  0  0  0  0  0  0
   59.2660   32.5220   46.4110 C   0  0  0  0  0  0  0  0  0  0  0  0
   59.6110   33.8820   46.6260 C   0  0  0  0  0  0  0  0  0  0  0  0
   59.0500   34.9010   45.8610 C   0  0  0  0  0  0  0  0  0  0  0  0
   58.1280   34.6000   44.8710 C   0  0  0  0  0  0  0  0  0  0  0  0
   57.7900   33.2750   44.6150 C   0  0  0  0  0  0  0  0  0  0  0  0
   58.3810   32.2080   45.3420 C   0  0  0  0  0  0  0  0  0  0  0  0
   58.0970   30.8940   45.0360 N   0  0  0  0  0  0  0  0  0  0  0  0
   57.4560   30.5610   43.7420 C   0  0  0  0  0  0  0  0  0  0  0  0
   58.4470   29.8860   45.9100 C   0  0  0  0  0  0  0  0  0  0  0  0
   57.9140   28.5810   45.7640 C   0  0  0  0  0  0  0  0  0  0  0  0
   58.3320   27.5200   46.5720 C   0  0  0  0  0  0  0  0  0  0  0  0
   57.7330   26.1520   46.3840 C   0  0  0  0  0  0  0  0  0  0  0  0
   60.1701   26.6948   50.3873 H   0  0  0  0  0  0  0  0  0  0  0  0
   61.3508   25.8739   49.3109 H   0  0  0  0  0  0  0  0  0  0  0  0
   61.2305   27.6662   49.3109 H   0  0  0  0  0  0  0  0  0  0  0  0
   60.5131   29.2172   48.5706 H   0  0  0  0  0  0  0  0  0  0  0  0
   60.8820   32.8170   48.3440 H   0  0  0  0  0  0  0  0  0  0  0  0
   60.2580   31.6660   49.2780 H   0  0  0  0  0  0  0  0  0  0  0  0
   62.1795   30.6098   49.2251 H   0  0  0  0  0  0  0  0  0  0  0  0
   61.8352   30.2758   47.4717 H   0  0  0  0  0  0  0  0  0  0  0  0
   63.9006   31.9139   48.6106 H   0  0  0  0  0  0  0  0  0  0  0  0
   63.4931   31.5808   46.8545 H   0  0  0  0  0  0  0  0  0  0  0  0
   62.8587   33.6562   49.7043 H   0  0  0  0  0  0  0  0  0  0  0  0
   64.0987   34.5484   48.7593 H   0  0  0  0  0  0  0  0  0  0  0  0
   62.3928   35.1110   48.7593 H   0  0  0  0  0  0  0  0  0  0  0  0
   64.1095   34.6951   46.6561 H   0  0  0  0  0  0  0  0  0  0  0  0
   63.8134   33.1464   45.7957 H   0  0  0  0  0  0  0  0  0  0  0  0
   62.5554   34.4286   45.7957 H   0  0  0  0  0  0  0  0  0  0  0  0
   60.3363   34.1360   47.4130 H   0  0  0  0  0  0  0  0  0  0  0  0
   59.3390   35.9467   46.0426 H   0  0  0  0  0  0  0  0  0  0  0  0
   57.6635   35.4087   44.2877 H   0  0  0  0  0  0  0  0  0  0  0  0
   57.0497   33.0493   43.8333 H   0  0  0  0  0  0  0  0  0  0  0  0
   56.4938   30.0611   43.9273 H   0  0  0  0  0  0  0  0  0  0  0  0
   57.2852   31.4844   43.1691 H   0  0  0  0  0  0  0  0  0  0  0  0
   58.1132   29.8903   43.1691 H   0  0  0  0  0  0  0  0  0  0  0  0
   57.1504   28.3981   44.9936 H   0  0  0  0  0  0  0  0  0  0  0  0
   57.5351   25.7001   47.3672 H   0  0  0  0  0  0  0  0  0  0  0  0
   56.7903   26.2383   45.8237 H   0  0  0  0  0  0  0  0  0  0  0  0
   58.4358   25.5178   45.8237 H   0  0  0  0  0  0  0  0  0  0  0  0
  1  2  1  0
  2  3  1  0
  3  4  2  0
  4  5  1  0
  5  6  2  0
  6  7  1  0
  7  8  1  0
  8  9  1  0
  9 10  1  0
 10 11  1  0
 10 12  1  0
  6 13  1  0
 13 14  2  0
 14 15  1  0
 15 16  2  0
 16 17  1  0
 17 18  2  0
 18 19  1  0
 19 20  1  0
 19 21  2  0
 21 22  1  0
 22 23  2  0
 23 24  1  0
 23  3  1  0
 21  5  1  0
 18 13  1  0
  1 25  1  0
  1 26  1  0
  1 27  1  0
  4 28  1  0
  7 29  1  0
  7 30  1  0
  8 31  1  0
  8 32  1  0
  9 33  1  0
  9 34  1  0
 11 35  1  0
 11 36  1  0
 11 37  1  0
 12 38  1  0
 12 39  1  0
 12 40  1  0
 14 41  1  0
 15 42  1  0
 16 43  1  0
 17 44  1  0
 20 45  1  0
 20 46  1  0
 20 47  1  0
 22 48  1  0
 24 49  1  0
 24 50  1  0
 24 51  1  0
M  CHG  2   7   1  19   1
M  END
>  <UniqueID>  (2) 
2

>  <SMILES>  (2) 
COc1cc2c([NH2+]CCN(C)C)c3ccccc3[n+](C)c2cc1C

>  <Energy>  (2) 
84.1788460535112

>  <Genealogy>  (2) 
COc1cc2c([NH2+]CCN(C)C)c3ccccc3[n+](C)c2cc1C (protonated)
COc1cc2c([NH2+]CCN(C)C)c3ccccc3[n+](C)c2cc1C (3D coordinates assigned)
COc1cc2c([NH2+]CCN(C)C)c3ccccc3[n+](C)c2cc1C (optimized conformer: 84.1788460535112 kcal/mol)

>  <smiles>  (2) 
COc1cc2c(NCCN(C)C)c3ccccc3[n+](C)c2cc1C

>  <score_type>  (2) 
oracle

>  <origin>  (2) 
adg

>  <m_score__min__energy>  (2) 
-3.7599999999999998

>  <m_primary>  (2) 
energy

$$$$
2:0
     RDKit          3D

 71 74  0  0  0  0  0  0  0  0999 V2000
   56.5970   30.3640   42.9690 C   0  0  0  0  0  0  0  0  0  0  0  0
   55.5080   30.0270   43.9940 C   0  0  0  0  0  0  0  0  0  0  0  0
   55.9010   28.9280   44.8940 N   0  0  0  0  0  0  0  0  0  0  0  0
   57.1780   28.2970   44.5200 C   0  0  0  0  0  0  0  0  0  0  0  0
   58.3590   28.9820   45.2260 C   0  0  0  0  0  0  0  0  0  0  0  0
   57.9080   29.9730   46.2040 N   0  0  0  0  0  0  0  0  0  0  0  0
   58.8390   30.9160   46.7530 C   0  0  0  0  0  0  0  0  0  0  0  0
   58.8550   32.2420   46.2880 C   0  0  0  0  0  0  0  0  0  0  0  0
   57.9420   32.6720   45.3010 C   0  0  0  0  0  0  0  0  0  0  0  0
   57.9380   33.9940   44.8640 C   0  0  0  0  0  0  0  0  0  0  0  0
   58.8350   34.9080   45.4050 C   0  0  0  0  0  0  0  0  0  0  0  0
   59.7540   34.5030   46.3730 C   0  0  0  0  0  0  0  0  0  0  0  0
   59.8060   33.1560   46.8150 C   0  0  0  0  0  0  0  0  0  0  0  0
   60.7410   32.7260   47.7390 N   0  0  0  0  0  0  0  0  0  0  0  0
   61.9060   33.5790   48.0610 C   0  0  0  0  0  0  0  0  0  0  0  0
   60.6100   31.4830   48.3300 C   0  0  0  0  0  0  0  0  0  0  0  0
   61.3480   31.1400   49.4370 N   0  0  0  0  0  0  0  0  0  0  0  0
   61.3120   29.8880   49.9860 C   0  0  0  0  0  0  0  0  0  0  0  0
   62.1280   29.5570   51.0930 C   0  0  0  0  0  0  0  0  0  0  0  0
   62.9540   30.5460   51.6550 O   0  0  0  0  0  0  0  0  0  0  0  0
   64.3590   30.6570   51.4440 C   0  0  0  0  0  0  0  0  0  0  0  0
   64.6520   31.9620   50.6920 C   0  0  0  0  0  0  0  0  0  0  0  0
   66.1300   32.1220   50.2400 C   0  0  0  0  0  0  0  0  0  0  0  0
   67.0620   32.7960   51.1990 N   0  0  0  0  0  0  0  0  0  0  0  0
   67.7640   31.8110   52.0610 C   0  0  0  0  0  0  0  0  0  0  0  0
   66.2430   33.6730   52.0750 C   0  0  0  0  0  0  0  0  0  0  0  0
   68.0530   33.6420   50.4930 C   0  0  0  0  0  0  0  0  0  0  0  0
   62.0930   28.2440   51.6060 C   0  0  0  0  0  0  0  0  0  0  0  0
   61.2450   27.2870   51.0480 C   0  0  0  0  0  0  0  0  0  0  0  0
   60.4210   27.6180   49.9730 C   0  0  0  0  0  0  0  0  0  0  0  0
   60.4550   28.9120   49.4350 C   0  0  0  0  0  0  0  0  0  0  0  0
   59.6330   29.2550   48.3620 C   0  0  0  0  0  0  0  0  0  0  0  0
   59.6900   30.5430   47.8040 C   0  0  0  0  0  0  0  0  0  0  0  0
   57.5199   30.6496   43.4950 H   0  0  0  0  0  0  0  0  0  0  0  0
   56.7918   29.4841   42.3382 H   0  0  0  0  0  0  0  0  0  0  0  0
   56.2607   31.2001   42.3382 H   0  0  0  0  0  0  0  0  0  0  0  0
   55.3037   30.9226   44.5991 H   0  0  0  0  0  0  0  0  0  0  0  0
   54.6156   29.7018   43.4391 H   0  0  0  0  0  0  0  0  0  0  0  0
   55.1430   28.2000   44.9060 H   0  0  0  0  0  0  0  0  0  0  0  0
   57.1529   27.2358   44.8086 H   0  0  0  0  0  0  0  0  0  0  0  0
   57.3134   28.3979   43.4330 H   0  0  0  0  0  0  0  0  0  0  0  0
   58.9562   28.2171   45.7439 H   0  0  0  0  0  0  0  0  0  0  0  0
   58.9574   29.5023   44.4637 H   0  0  0  0  0  0  0  0  0  0  0  0
   56.8880   30.1490   46.3560 H   0  0  0  0  0  0  0  0  0  0  0  0
   57.2261   31.9551   44.8726 H   0  0  0  0  0  0  0  0  0  0  0  0
   57.2249   34.3153   44.0905 H   0  0  0  0  0  0  0  0  0  0  0  0
   58.8199   35.9551   45.0682 H   0  0  0  0  0  0  0  0  0  0  0  0
   60.4497   35.2400   46.8006 H   0  0  0  0  0  0  0  0  0  0  0  0
   62.0126   33.6571   49.1530 H   0  0  0  0  0  0  0  0  0  0  0  0
   62.8164   33.1324   47.6347 H   0  0  0  0  0  0  0  0  0  0  0  0
   61.7552   34.5818   47.6347 H   0  0  0  0  0  0  0  0  0  0  0  0
   61.9340   31.8590   49.9140 H   0  0  0  0  0  0  0  0  0  0  0  0
   64.8776   30.6664   52.4140 H   0  0  0  0  0  0  0  0  0  0  0  0
   64.7138   29.8004   50.8521 H   0  0  0  0  0  0  0  0  0  0  0  0
   64.0128   31.9950   49.7974 H   0  0  0  0  0  0  0  0  0  0  0  0
   64.4470   32.7831   51.3947 H   0  0  0  0  0  0  0  0  0  0  0  0
   66.5277   31.1158   50.0416 H   0  0  0  0  0  0  0  0  0  0  0  0
   66.0918   32.7849   49.3630 H   0  0  0  0  0  0  0  0  0  0  0  0
   67.5880   32.0580   53.1184 H   0  0  0  0  0  0  0  0  0  0  0  0
   67.3806   30.8015   51.8515 H   0  0  0  0  0  0  0  0  0  0  0  0
   68.8434   31.8440   51.8515 H   0  0  0  0  0  0  0  0  0  0  0  0
   66.4582   33.4425   53.1288 H   0  0  0  0  0  0  0  0  0  0  0  0
   66.4886   34.7259   51.8724 H   0  0  0  0  0  0  0  0  0  0  0  0
   65.1758   33.4999   51.8724 H   0  0  0  0  0  0  0  0  0  0  0  0
   68.6740   34.1721   51.2302 H   0  0  0  0  0  0  0  0  0  0  0  0
   68.6935   33.0078   49.8624 H   0  0  0  0  0  0  0  0  0  0  0  0
   67.5272   34.3740   49.8624 H   0  0  0  0  0  0  0  0  0  0  0  0
   62.7397   27.9720   52.4532 H   0  0  0  0  0  0  0  0  0  0  0  0
   61.2263   26.2665   51.4581 H   0  0  0  0  0  0  0  0  0  0  0  0
   59.7438   26.8632   49.5468 H   0  0  0  0  0  0  0  0  0  0  0  0
   58.9349   28.5117   47.9495 H   0  0  0  0  0  0  0  0  0  0  0  0
  1  2  1  0
  2  3  1  0
  3  4  1  0
  4  5  1  0
  5  6  1  0
  6  7  1  0
  7  8  2  0
  8  9  1  0
  9 10  2  0
 10 11  1  0
 11 12  2  0
 12 13  1  0
 13 14  2  0
 14 15  1  0
 14 16  1  0
 16 17  2  0
 17 18  1  0
 18 19  2  0
 19 20  1  0
 20 21  1  0
 21 22  1  0
 22 23  1  0
 23 24  1  0
 24 25  1  0
 24 26  1  0
 24 27  1  0
 19 28  1  0
 28 29  2  0
 29 30  1  0
 30 31  2  0
 31 32  1  0
 32 33  2  0
 33  7  1  0
 13  8  1  0
 33 16  1  0
 31 18  1  0
  1 34  1  0
  1 35  1  0
  1 36  1  0
  2 37  1  0
  2 38  1  0
  3 39  1  0
  4 40  1  0
  4 41  1  0
  5 42  1  0
  5 43  1  0
  6 44  1  0
  9 45  1  0
 10 46  1  0
 11 47  1  0
 12 48  1  0
 15 49  1  0
 15 50  1  0
 15 51  1  0
 17 52  1  0
 21 53  1  0
 21 54  1  0
 22 55  1  0
 22 56  1  0
 23 57  1  0
 23 58  1  0
 25 59  1  0
 25 60  1  0
 25 61  1  0
 26 62  1  0
 26 63  1  0
 26 64  1  0
 27 65  1  0
 27 66  1  0
 27 67  1  0
 28 68  1  0
 29 69  1  0
 30 70  1  0
 32 71  1  0
M  CHG  3  14   1  17   1  24   1
M  END
>  <UniqueID>  (3) 
3

>  <SMILES>  (3) 
CCNCCNc1c2ccccc2[n+](C)c2[nH+]c3c(OCCC[N+](C)(C)C)cccc3cc12

>  <Energy>  (3) 
109.73856037567192

>  <Genealogy>  (3) 
CCNCCNc1c2ccccc2[n+](C)c2[nH+]c3c(OCCC[N+](C)(C)C)cccc3cc12 (protonated)
CCNCCNc1c2ccccc2[n+](C)c2[nH+]c3c(OCCC[N+](C)(C)C)cccc3cc12 (3D coordinates assigned)
CCNCCNc1c2ccccc2[n+](C)c2[nH+]c3c(OCCC[N+](C)(C)C)cccc3cc12 (optimized conformer: 109.73856037567192 kcal/mol)

>  <smiles>  (3) 
CCNCCNc1c2ccccc2[n+](C)c2nc3c(OCCC[N+](C)(C)C)cccc3cc12

>  <score_type>  (3) 
oracle

>  <origin>  (3) 
adg

>  <m_score__min__energy>  (3) 
-4.3700000000000001

>  <m_primary>  (3) 
energy

$$$$
3:0
     RDKit          3D

 41 41  0  0  0  0  0  0  0  0999 V2000
   64.9290   33.0020   49.5730 C   0  0  0  0  0  0  0  0  0  0  0  0
   63.6010   32.2470   49.6320 C   0  0  0  0  0  0  0  0  0  0  0  0
   63.0390   31.9120   48.2390 C   0  0  0  0  0  0  0  0  0  0  0  0
   63.5540   32.8110   47.0990 C   0  0  0  0  0  0  0  0  0  0  0  0
   62.5220   33.8490   46.6100 C   0  0  0  0  0  0  0  0  0  0  0  0
   61.0950   33.2830   46.5950 C   0  0  0  0  0  0  0  0  0  0  0  0
   60.0650   34.3610   46.9560 C   0  0  0  0  0  0  0  0  0  0  0  0
   58.9240   33.8190   47.8380 C   0  0  0  0  0  0  0  0  0  0  0  0
   57.7180   33.4550   47.0580 N   0  0  0  0  0  0  0  0  0  0  0  0
   57.8340   33.8600   45.6470 C   0  0  0  0  0  0  0  0  0  0  0  0
   57.5380   32.7000   44.7390 C   0  0  0  0  0  0  0  0  0  0  0  0
   57.9420   32.7200   43.3960 C   0  0  0  0  0  0  0  0  0  0  0  0
   57.6860   31.6090   42.5890 C   0  0  0  0  0  0  0  0  0  0  0  0
   57.0430   30.4920   43.1270 C   0  0  0  0  0  0  0  0  0  0  0  0
   56.6680   30.5020   44.4710 C   0  0  0  0  0  0  0  0  0  0  0  0
   56.9260   31.5920   45.2420 N   0  0  0  0  0  0  0  0  0  0  0  0
   65.2823   33.2029   50.5952 H   0  0  0  0  0  0  0  0  0  0  0  0
   65.6740   32.3924   49.0407 H   0  0  0  0  0  0  0  0  0  0  0  0
   64.7862   33.9540   49.0407 H   0  0  0  0  0  0  0  0  0  0  0  0
   63.7557   31.3076   50.1831 H   0  0  0  0  0  0  0  0  0  0  0  0
   62.8720   32.9009   50.1331 H   0  0  0  0  0  0  0  0  0  0  0  0
   63.3087   30.8721   48.0026 H   0  0  0  0  0  0  0  0  0  0  0  0
   61.9531   32.0776   48.2962 H   0  0  0  0  0  0  0  0  0  0  0  0
   64.4443   33.3490   47.4567 H   0  0  0  0  0  0  0  0  0  0  0  0
   63.7747   32.1522   46.2462 H   0  0  0  0  0  0  0  0  0  0  0  0
   62.5507   34.7205   47.2805 H   0  0  0  0  0  0  0  0  0  0  0  0
   62.7858   34.1289   45.5795 H   0  0  0  0  0  0  0  0  0  0  0  0
   60.8728   32.8974   45.5890 H   0  0  0  0  0  0  0  0  0  0  0  0
   61.0324   32.4783   47.3423 H   0  0  0  0  0  0  0  0  0  0  0  0
   60.5766   35.1692   47.4992 H   0  0  0  0  0  0  0  0  0  0  0  0
   59.6181   34.7220   46.0180 H   0  0  0  0  0  0  0  0  0  0  0  0
   59.2836   32.9241   48.3670 H   0  0  0  0  0  0  0  0  0  0  0  0
   58.6373   34.6188   48.5367 H   0  0  0  0  0  0  0  0  0  0  0  0
   57.6030   32.4150   47.0880 H   0  0  0  0  0  0  0  0  0  0  0  0
   56.8570   33.8740   47.4850 H   0  0  0  0  0  0  0  0  0  0  0  0
   57.1187   34.6705   45.4433 H   0  0  0  0  0  0  0  0  0  0  0  0
   58.8618   34.2043   45.4597 H   0  0  0  0  0  0  0  0  0  0  0  0
   58.4549   33.6010   42.9827 H   0  0  0  0  0  0  0  0  0  0  0  0
   57.9902   31.6138   41.5319 H   0  0  0  0  0  0  0  0  0  0  0  0
   56.8345   29.6139   42.4981 H   0  0  0  0  0  0  0  0  0  0  0  0
   56.1632   29.6274   44.9072 H   0  0  0  0  0  0  0  0  0  0  0  0
  1  2  1  0
  2  3  1  0
  3  4  1  0
  4  5  1  0
  5  6  1  0
  6  7  1  0
  7  8  1  0
  8  9  1  0
  9 10  1  0
 10 11  1  0
 11 12  2  0
 12 13  1  0
 13 14  2  0
 14 15  1  0
 15 16  2  0
 16 11  1  0
  1 17  1  0
  1 18  1  0
  1 19  1  0
  2 20  1  0
  2 21  1  0
  3 22  1  0
  3 23  1  0
  4 24  1  0
  4 25  1  0
  5 26  1  0
  5 27  1  0
  6 28  1  0
  6 29  1  0
  7 30  1  0
  7 31  1  0
  8 32  1  0
  8 33  1  0
  9 34  1  0
  9 35  1  0
 10 36  1  0
 10 37  1  0
 12 38  1  0
 13 39  1  0
 14 40  1  0
 15 41  1  0
M  CHG  1   9   1
M  END
>  <UniqueID>  (4) 
4

>  <SMILES>  (4) 
CCCCCCCC[NH2+]Cc1ccccn1

>  <Energy>  (4) 
29.2210937275612

>  <Genealogy>  (4) 
CCCCCCCC[NH2+]Cc1ccccn1 (protonated)
CCCCCCCC[NH2+]Cc1ccccn1 (3D coordinates assigned)
CCCCCCCC[NH2+]Cc1ccccn1 (optimized conformer: 29.2210937275612 kcal/mol)

>  <smiles>  (4) 
CCCCCCCCNCc1ccccn1

>  <score_type>  (4) 
oracle

>  <origin>  (4) 
adg

>  <m_score__min__energy>  (4) 
-4.29

>  <m_primary>  (4) 
energy

$$$$
4:0
     RDKit          3D

 53 55  0  0  0  0  0  0  0  0999 V2000
   56.2890   30.3650   43.8650 C   0  0  0  0  0  0  0  0  0  0  0  0
   57.7770   30.5720   44.1330 C   0  0  0  0  0  0  0  0  0  0  0  0
   58.0740   32.0130   44.3030 N   0  0  0  0  0  0  0  0  0  0  0  0
   58.1360   32.6870   42.9920 C   0  0  0  0  0  0  0  0  0  0  0  0
   57.0730   32.6720   45.1720 C   0  0  0  0  0  0  0  0  0  0  0  0
   57.3370   34.1860   45.2280 C   0  0  0  0  0  0  0  0  0  0  0  0
   58.7390   34.5320   45.7650 C   0  0  0  0  0  0  0  0  0  0  0  0
   59.2770   33.5500   46.8230 C   0  0  0  0  0  0  0  0  0  0  0  0
   60.1600   32.5300   46.2290 N   0  0  0  0  0  0  0  0  0  0  0  0
   60.8080   31.7420   47.2660 C   0  0  0  0  0  0  0  0  0  0  0  0
   61.9620   32.2280   47.9360 C   0  0  0  0  0  0  0  0  0  0  0  0
   62.6300   33.4050   47.5170 C   0  0  0  0  0  0  0  0  0  0  0  0
   63.7790   33.8480   48.1660 C   0  0  0  0  0  0  0  0  0  0  0  0
   64.3030   33.1260   49.2270 C   0  0  0  0  0  0  0  0  0  0  0  0
   63.6700   31.9650   49.6640 C   0  0  0  0  0  0  0  0  0  0  0  0
   62.4750   31.5070   49.0530 C   0  0  0  0  0  0  0  0  0  0  0  0
   61.8240   30.3800   49.5100 N   0  0  0  0  0  0  0  0  0  0  0  0
   62.1450   29.8300   50.8460 C   0  0  0  0  0  0  0  0  0  0  0  0
   60.8670   29.7700   48.7240 C   0  0  0  0  0  0  0  0  0  0  0  0
   60.4130   28.4560   49.0060 C   0  0  0  0  0  0  0  0  0  0  0  0
   59.4250   27.8520   48.2320 C   0  0  0  0  0  0  0  0  0  0  0  0
   58.8750   28.5290   47.1510 C   0  0  0  0  0  0  0  0  0  0  0  0
   57.6410   27.7570   46.1730 Cl  0  0  0  0  0  0  0  0  0  0  0  0
   59.3220   29.8080   46.8300 C   0  0  0  0  0  0  0  0  0  0  0  0
   60.3250   30.4500   47.5980 C   0  0  0  0  0  0  0  0  0  0  0  0
   55.7511   30.2902   44.8216 H   0  0  0  0  0  0  0  0  0  0  0  0
   55.8979   31.2174   43.2901 H   0  0  0  0  0  0  0  0  0  0  0  0
   56.1454   29.4382   43.2901 H   0  0  0  0  0  0  0  0  0  0  0  0
   58.0589   30.0330   45.0495 H   0  0  0  0  0  0  0  0  0  0  0  0
   58.3512   30.1872   43.2773 H   0  0  0  0  0  0  0  0  0  0  0  0
   58.2358   33.7721   43.1420 H   0  0  0  0  0  0  0  0  0  0  0  0
   59.0036   32.3134   42.4283 H   0  0  0  0  0  0  0  0  0  0  0  0
   57.2148   32.4779   42.4283 H   0  0  0  0  0  0  0  0  0  0  0  0
   56.0659   32.4930   44.7675 H   0  0  0  0  0  0  0  0  0  0  0  0
   57.1479   32.2556   46.1874 H   0  0  0  0  0  0  0  0  0  0  0  0
   57.2392   34.5969   44.2123 H   0  0  0  0  0  0  0  0  0  0  0  0
   56.6020   34.6233   45.9198 H   0  0  0  0  0  0  0  0  0  0  0  0
   59.4394   34.5412   44.9168 H   0  0  0  0  0  0  0  0  0  0  0  0
   58.6520   35.5100   46.2609 H   0  0  0  0  0  0  0  0  0  0  0  0
   59.8441   34.1155   47.5770 H   0  0  0  0  0  0  0  0  0  0  0  0
   58.4179   33.0341   47.2768 H   0  0  0  0  0  0  0  0  0  0  0  0
   60.8780   32.9620   45.6090 H   0  0  0  0  0  0  0  0  0  0  0  0
   59.6200   31.9160   45.5790 H   0  0  0  0  0  0  0  0  0  0  0  0
   62.2344   33.9779   46.6653 H   0  0  0  0  0  0  0  0  0  0  0  0
   64.2727   34.7739   47.8359 H   0  0  0  0  0  0  0  0  0  0  0  0
   65.2211   33.4710   49.7250 H   0  0  0  0  0  0  0  0  0  0  0  0
   64.1044   31.3934   50.4974 H   0  0  0  0  0  0  0  0  0  0  0  0
   61.7526   30.5023   51.6232 H   0  0  0  0  0  0  0  0  0  0  0  0
   61.6848   28.8367   50.9539 H   0  0  0  0  0  0  0  0  0  0  0  0
   63.2362   29.7422   50.9539 H   0  0  0  0  0  0  0  0  0  0  0  0
   60.8492   27.9039   49.8515 H   0  0  0  0  0  0  0  0  0  0  0  0
   59.0796   26.8368   48.4773 H   0  0  0  0  0  0  0  0  0  0  0  0
   58.8885   30.3298   45.9641 H   0  0  0  0  0  0  0  0  0  0  0  0
  1  2  1  0
  2  3  1  0
  3  4  1  0
  3  5  1  0
  5  6  1  0
  6  7  1  0
  7  8  1  0
  8  9  1  0
  9 10  1  0
 10 11  2  0
 11 12  1  0
 12 13  2  0
 13 14  1  0
 14 15  2  0
 15 16  1  0
 16 17  2  0
 17 18  1  0
 17 19  1  0
 19 20  2  0
 20 21  1  0
 21 22  2  0
 22 23  1  0
 22 24  1  0
 24 25  2  0
 25 10  1  0
 16 11  1  0
 25 19  1  0
  1 26  1  0
  1 27  1  0
  1 28  1  0
  2 29  1  0
  2 30  1  0
  4 31  1  0
  4 32  1  0
  4 33  1  0
  5 34  1  0
  5 35  1  0
  6 36  1  0
  6 37  1  0
  7 38  1  0
  7 39  1  0
  8 40  1  0
  8 41  1  0
  9 42  1  0
  9 43  1  0
 12 44  1  0
 13 45  1  0
 14 46  1  0
 15 47  1  0
 18 48  1  0
 18 49  1  0
 18 50  1  0
 20 51  1  0
 21 52  1  0
 24 53  1  0
M  CHG  2   9   1  17   1
M  END
>  <UniqueID>  (5) 
5

>  <SMILES>  (5) 
CCN(C)CCCC[NH2+]c1c2ccccc2[n+](C)c2ccc(Cl)cc12

>  <Energy>  (5) 
77.09585903721886

>  <Genealogy>  (5) 
CCN(C)CCCC[NH2+]c1c2ccccc2[n+](C)c2ccc(Cl)cc12 (protonated)
CCN(C)CCCC[NH2+]c1c2ccccc2[n+](C)c2ccc(Cl)cc12 (3D coordinates assigned)
CCN(C)CCCC[NH2+]c1c2ccccc2[n+](C)c2ccc(Cl)cc12 (optimized conformer: 77.09585903721886 kcal/mol)

>  <smiles>  (5) 
CCN(C)CCCCNc1c2ccccc2[n+](C)c2ccc(Cl)cc12

>  <score_type>  (5) 
oracle

>  <origin>  (5) 
adg

>  <m_score__min__energy>  (5) 
-4.54

>  <m_primary>  (5) 
energy

$$$$
5:0
     RDKit          3D

 46 48  0  0  0  0  0  0  0  0999 V2000
   63.0670   33.9190   46.3640 C   0  0  0  0  0  0  0  0  0  0  0  0
   63.4680   33.7490   47.8240 C   0  0  0  0  0  0  0  0  0  0  0  0
   63.6110   32.3230   48.1390 N   0  0  0  0  0  0  0  0  0  0  0  0
   62.6340   31.5060   47.4050 C   0  0  0  0  0  0  0  0  0  0  0  0
   61.6780   30.7680   48.3570 C   0  0  0  0  0  0  0  0  0  0  0  0
   60.7650   31.7210   49.1450 C   0  0  0  0  0  0  0  0  0  0  0  0
   59.3780   31.6400   48.6900 N   0  0  0  0  0  0  0  0  0  0  0  0
   59.0730   31.7010   47.2890 C   0  0  0  0  0  0  0  0  0  0  0  0
   59.1210   32.9280   46.6060 C   0  0  0  0  0  0  0  0  0  0  0  0
   59.5310   34.1050   47.2660 C   0  0  0  0  0  0  0  0  0  0  0  0
   59.6260   35.3100   46.5760 C   0  0  0  0  0  0  0  0  0  0  0  0
   59.3330   35.3610   45.2190 C   0  0  0  0  0  0  0  0  0  0  0  0
   58.9230   34.2100   44.5450 C   0  0  0  0  0  0  0  0  0  0  0  0
   58.7780   32.9750   45.2280 C   0  0  0  0  0  0  0  0  0  0  0  0
   58.3400   31.8320   44.5820 N   0  0  0  0  0  0  0  0  0  0  0  0
   57.7160   31.9320   43.2440 C   0  0  0  0  0  0  0  0  0  0  0  0
   58.4630   30.6000   45.1990 C   0  0  0  0  0  0  0  0  0  0  0  0
   58.2780   29.3870   44.4870 C   0  0  0  0  0  0  0  0  0  0  0  0
   58.3480   28.1520   45.1360 C   0  0  0  0  0  0  0  0  0  0  0  0
   58.1080   26.6690   44.2300 Cl  0  0  0  0  0  0  0  0  0  0  0  0
   58.6140   28.0940   46.5000 C   0  0  0  0  0  0  0  0  0  0  0  0
   58.8420   29.2670   47.2160 C   0  0  0  0  0  0  0  0  0  0  0  0
   58.7940   30.5230   46.5770 C   0  0  0  0  0  0  0  0  0  0  0  0
   62.0555   34.3478   46.3091 H   0  0  0  0  0  0  0  0  0  0  0  0
   63.7785   34.5929   45.8644 H   0  0  0  0  0  0  0  0  0  0  0  0
   63.0774   32.9391   45.8644 H   0  0  0  0  0  0  0  0  0  0  0  0
   64.4260   34.2597   48.0011 H   0  0  0  0  0  0  0  0  0  0  0  0
   62.6898   34.1860   48.4669 H   0  0  0  0  0  0  0  0  0  0  0  0
   64.5680   32.0260   47.8320 H   0  0  0  0  0  0  0  0  0  0  0  0
   62.0452   32.1611   46.7462 H   0  0  0  0  0  0  0  0  0  0  0  0
   63.1858   30.7533   46.8228 H   0  0  0  0  0  0  0  0  0  0  0  0
   61.0480   30.0883   47.7644 H   0  0  0  0  0  0  0  0  0  0  0  0
   62.2946   30.2228   49.0868 H   0  0  0  0  0  0  0  0  0  0  0  0
   60.8066   31.4542   50.2113 H   0  0  0  0  0  0  0  0  0  0  0  0
   61.1200   32.7493   48.9820 H   0  0  0  0  0  0  0  0  0  0  0  0
   58.5910   31.7410   49.3690 H   0  0  0  0  0  0  0  0  0  0  0  0
   59.7783   34.0703   48.3373 H   0  0  0  0  0  0  0  0  0  0  0  0
   59.9336   36.2235   47.1060 H   0  0  0  0  0  0  0  0  0  0  0  0
   59.4245   36.3120   44.6739 H   0  0  0  0  0  0  0  0  0  0  0  0
   58.7089   34.2610   43.4672 H   0  0  0  0  0  0  0  0  0  0  0  0
   56.6354   32.1052   43.3554 H   0  0  0  0  0  0  0  0  0  0  0  0
   58.1665   32.7694   42.6910 H   0  0  0  0  0  0  0  0  0  0  0  0
   57.8822   30.9958   42.6910 H   0  0  0  0  0  0  0  0  0  0  0  0
   58.0761   29.4195   43.4062 H   0  0  0  0  0  0  0  0  0  0  0  0
   58.6443   27.1217   47.0135 H   0  0  0  0  0  0  0  0  0  0  0  0
   59.0620   29.2128   48.2924 H   0  0  0  0  0  0  0  0  0  0  0  0
  1  2  1  0
  2  3  1  0
  3  4  1  0
  4  5  1  0
  5  6  1  0
  6  7  1  0
  7  8  1  0
  8  9  2  0
  9 10  1  0
 10 11  2  0
 11 12  1  0
 12 13  2  0
 13 14  1  0
 14 15  2  0
 15 16  1  0
 15 17  1  0
 17 18  2  0
 18 19  1  0
 19 20  1  0
 19 21  2  0
 21 22  1  0
 22 23  2  0
 23  8  1  0
 14  9  1  0
 23 17  1  0
  1 24  1  0
  1 25  1  0
  1 26  1  0
  2 27  1  0
  2 28  1  0
  3 29  1  0
  4 30  1  0
  4 31  1  0
  5 32  1  0
  5 33  1  0
  6 34  1  0
  6 35  1  0
  7 36  1  0
 10 37  1  0
 11 38  1  0
 12 39  1  0
 13 40  1  0
 16 41  1  0
 16 42  1  0
 16 43  1  0
 18 44  1  0
 21 45  1  0
 22 46  1  0
M  CHG  1  15   1
M  END
>  <UniqueID>  (6) 
6

>  <SMILES>  (6) 
CCNCCCNc1c2ccccc2[n+](C)c2cc(Cl)ccc12

>  <Energy>  (6) 
66.49799820385368

>  <Genealogy>  (6) 
CCNCCCNc1c2ccccc2[n+](C)c2cc(Cl)ccc12 (3D coordinates assigned)
CCNCCCNc1c2ccccc2[n+](C)c2cc(Cl)ccc12 (optimized conformer: 66.49799820385368 kcal/mol)

>  <smiles>  (6) 
CCNCCCNc1c2ccccc2[n+](C)c2cc(Cl)ccc12

>  <score_type>  (6) 
oracle

>  <origin>  (6) 
adg

>  <m_score__min__energy>  (6) 
-6.25

>  <m_primary>  (6) 
energy

$$$$
6:0
     RDKit          3D

 73 75  0  0  0  0  0  0  0  0999 V2000
   59.0120   27.4410   44.7980 C   0  0  0  0  0  0  0  0  0  0  0  0
   60.0810   27.9050   45.4630 C   0  0  0  0  0  0  0  0  0  0  0  0
   60.7620   27.0190   46.4710 C   0  0  0  0  0  0  0  0  0  0  0  0
   60.5710   29.3150   45.2190 C   0  0  0  0  0  0  0  0  0  0  0  0
   61.0170   29.9770   46.5400 C   0  0  0  0  0  0  0  0  0  0  0  0
   59.8980   30.4970   47.5300 C   0  0  1  0  0  0  0  0  0  0  0  0
   58.5510   29.8670   47.0510 C   0  0  0  0  0  0  0  0  0  0  0  0
   60.2280   30.0880   49.0330 C   0  0  2  0  0  0  0  0  0  0  0  0
   59.7210   28.6900   49.4660 C   0  0  0  0  0  0  0  0  0  0  0  0
   60.5130   28.2290   50.6880 C   0  0  0  0  0  0  0  0  0  0  0  0
   60.4990   29.2590   51.7760 C   0  0  0  0  0  0  0  0  0  0  0  0
   60.2510   30.5720   51.5670 C   0  0  0  0  0  0  0  0  0  0  0  0
   60.0130   31.4030   52.8200 C   0  0  0  0  0  0  0  0  0  0  0  0
   59.9110   31.1490   50.1530 C   0  0  2  0  0  0  0  0  0  0  0  0
   58.3980   31.5520   50.2320 C   0  0  0  0  0  0  0  0  0  0  0  0
   57.5940   30.4780   50.7300 O   0  0  0  0  0  0  0  0  0  0  0  0
   56.7870   30.6040   51.8650 C   0  0  0  0  0  0  0  0  0  0  0  0
   56.6460   31.9390   52.5140 C   0  0  0  0  0  0  0  0  0  0  0  0
   56.2280   29.5960   52.3740 O   0  0  0  0  0  0  0  0  0  0  0  0
   60.7790   32.3720   49.7660 C   0  0  0  0  0  0  0  0  0  0  0  0
   61.7490   32.8400   50.5960 C   0  0  0  0  0  0  0  0  0  0  0  0
   62.7390   33.8400   50.1740 C   0  0  0  0  0  0  0  0  0  0  0  0
   63.3610   34.5040   51.0480 O   0  0  0  0  0  0  0  0  0  0  0  0
   63.0240   34.0840   48.7280 C   0  0  0  0  0  0  0  0  0  0  0  0
   62.1920   33.1500   47.8180 C   0  0  2  0  0  0  0  0  0  0  0  0
   62.3470   33.6230   46.3530 C   0  0  0  0  0  0  0  0  0  0  0  0
   60.6980   32.9720   48.3410 C   0  0  2  0  0  0  0  0  0  0  0  0
   60.0180   34.3720   48.4770 C   0  0  0  0  0  0  0  0  0  0  0  0
   59.8290   32.0830   47.3390 C   0  0  2  0  0  0  0  0  0  0  0  0
   58.4660   32.5430   47.3250 O   0  0  0  0  0  0  0  0  0  0  0  0
   57.7060   32.8250   46.1790 C   0  0  0  0  0  0  0  0  0  0  0  0
   57.6870   34.2150   45.6490 C   0  0  0  0  0  0  0  0  0  0  0  0
   57.0250   31.9310   45.6030 O   0  0  0  0  0  0  0  0  0  0  0  0
   58.5050   28.0783   44.0586 H   0  0  0  0  0  0  0  0  0  0  0  0
   58.6426   26.4233   44.9922 H   0  0  0  0  0  0  0  0  0  0  0  0
   60.5046   27.3539   47.4867 H   0  0  0  0  0  0  0  0  0  0  0  0
   60.4275   25.9804   46.3316 H   0  0  0  0  0  0  0  0  0  0  0  0
   61.8517   27.0751   46.3316 H   0  0  0  0  0  0  0  0  0  0  0  0
   61.4237   29.2853   44.5247 H   0  0  0  0  0  0  0  0  0  0  0  0
   59.7477   29.9048   44.7896 H   0  0  0  0  0  0  0  0  0  0  0  0
   61.6197   29.2379   47.0881 H   0  0  0  0  0  0  0  0  0  0  0  0
   61.5461   30.8880   46.2236 H   0  0  0  0  0  0  0  0  0  0  0  0
   57.9468   29.5844   47.9257 H   0  0  0  0  0  0  0  0  0  0  0  0
   57.9984   30.6001   46.4450 H   0  0  0  0  0  0  0  0  0  0  0  0
   58.7594   28.9729   46.4450 H   0  0  0  0  0  0  0  0  0  0  0  0
   61.3250   30.0464   48.9634 H   0  0  0  0  0  0  0  0  0  0  0  0
   58.6522   28.7478   49.7198 H   0  0  0  0  0  0  0  0  0  0  0  0
   59.8588   27.9738   48.6426 H   0  0  0  0  0  0  0  0  0  0  0  0
   60.0682   27.2989   51.0714 H   0  0  0  0  0  0  0  0  0  0  0  0
   61.5568   28.0681   50.3804 H   0  0  0  0  0  0  0  0  0  0  0  0
   60.7023   28.9279   52.8051 H   0  0  0  0  0  0  0  0  0  0  0  0
   60.1907   30.7825   53.7107 H   0  0  0  0  0  0  0  0  0  0  0  0
   60.7016   32.2608   52.8274 H   0  0  0  0  0  0  0  0  0  0  0  0
   58.9747   31.7662   52.8274 H   0  0  0  0  0  0  0  0  0  0  0  0
   58.2933   32.4175   50.9027 H   0  0  0  0  0  0  0  0  0  0  0  0
   58.0534   31.7989   49.2170 H   0  0  0  0  0  0  0  0  0  0  0  0
   56.6587   31.8184   53.6073 H   0  0  0  0  0  0  0  0  0  0  0  0
   57.4808   32.5861   52.2067 H   0  0  0  0  0  0  0  0  0  0  0  0
   55.6944   32.3974   52.2067 H   0  0  0  0  0  0  0  0  0  0  0  0
   61.7943   32.4542   51.6251 H   0  0  0  0  0  0  0  0  0  0  0  0
   62.7782   35.1288   48.4871 H   0  0  0  0  0  0  0  0  0  0  0  0
   64.0898   33.8795   48.5482 H   0  0  0  0  0  0  0  0  0  0  0  0
   62.5788   32.1210   47.8570 H   0  0  0  0  0  0  0  0  0  0  0  0
   62.6895   34.6682   46.3395 H   0  0  0  0  0  0  0  0  0  0  0  0
   63.0843   32.9888   45.8390 H   0  0  0  0  0  0  0  0  0  0  0  0
   61.3774   33.5482   45.8390 H   0  0  0  0  0  0  0  0  0  0  0  0
   59.8979   34.6194   49.5421 H   0  0  0  0  0  0  0  0  0  0  0  0
   60.6466   35.1336   47.9923 H   0  0  0  0  0  0  0  0  0  0  0  0
   59.0308   34.3488   47.9923 H   0  0  0  0  0  0  0  0  0  0  0  0
   60.3070   32.2362   46.3602 H   0  0  0  0  0  0  0  0  0  0  0  0
   57.6773   34.9270   46.4874 H   0  0  0  0  0  0  0  0  0  0  0  0
   58.5829   34.3851   45.0338 H   0  0  0  0  0  0  0  0  0  0  0  0
   56.7868   34.3606   45.0338 H   0  0  0  0  0  0  0  0  0  0  0  0
  1  2  2  0
  2  3  1  0
  2  4  1  0
  4  5  1  0
  6  5  1  6
  6  7  1  0
  6  8  1  0
  8  9  1  0
  9 10  1  0
 10 11  1  0
 11 12  2  0
 12 13  1  0
 12 14  1  0
 14 15  1  1
 15 16  1  0
 16 17  1  0
 17 18  1  0
 17 19  2  0
 14 20  1  0
 20 21  2  0
 21 22  1  0
 22 23  2  0
 22 24  1  0
 24 25  1  0
 25 26  1  0
 25 27  1  0
 27 28  1  1
 27 29  1  0
 29 30  1  0
 30 31  1  0
 31 32  1  0
 31 33  2  0
 29  6  1  0
 14  8  1  0
 27 20  1  0
  1 34  1  0
  1 35  1  0
  3 36  1  0
  3 37  1  0
  3 38  1  0
  4 39  1  0
  4 40  1  0
  5 41  1  0
  5 42  1  0
  7 43  1  0
  7 44  1  0
  7 45  1  0
  8 46  1  6
  9 47  1  0
  9 48  1  0
 10 49  1  0
 10 50  1  0
 11 51  1  0
 13 52  1  0
 13 53  1  0
 13 54  1  0
 15 55  1  0
 15 56  1  0
 18 57  1  0
 18 58  1  0
 18 59  1  0
 21 60  1  0
 24 61  1  0
 24 62  1  0
 25 63  1  6
 26 64  1  0
 26 65  1  0
 26 66  1  0
 28 67  1  0
 28 68  1  0
 28 69  1  0
 29 70  1  6
 32 71  1  0
 32 72  1  0
 32 73  1  0
M  END
>  <UniqueID>  (7) 
7

>  <SMILES>  (7) 
C=C(C)CC[C@]1(C)C(OC(C)=O)C2(C)C(=CC(=O)CC2C)C2(COC(C)=O)C(C)=CCC[C@H]21

>  <Energy>  (7) 
114.21989640227113

>  <Genealogy>  (7) 
C=C(C)CC[C@]1(C)C(OC(C)=O)C2(C)C(=CC(=O)CC2C)C2(COC(C)=O)C(C)=CCC[C@H]21 (chirality)
C=C(C)CC[C@]1(C)C(OC(C)=O)C2(C)C(=CC(=O)CC2C)C2(COC(C)=O)C(C)=CCC[C@H]21 (3D coordinates assigned)
C=C(C)CC[C@]1(C)C(OC(C)=O)C2(C)C(=CC(=O)CC2C)C2(COC(C)=O)C(C)=CCC[C@H]21 (nonaromatic ring conformer: 114.21989640227113 kcal/mol)

>  <smiles>  (7) 
C=C(C)CCC1(C)C2CCC=C(C)C2(COC(C)=O)C2=CC(=O)CC(C)C2(C)C1OC(C)=O

>  <score_type>  (7) 
oracle

>  <origin>  (7) 
adg

>  <m_score__min__energy>  (7) 
-8.3499999999999996

>  <m_primary>  (7) 
energy

$$$$
7:0
     RDKit          3D

 49 51  0  0  0  0  0  0  0  0999 V2000
   58.0320   26.7370   44.6320 C   0  0  0  0  0  0  0  0  0  0  0  0
   57.0680   27.3890   45.6210 C   0  0  0  0  0  0  0  0  0  0  0  0
   57.0510   28.8600   45.4640 N   0  0  0  0  0  0  0  0  0  0  0  0
   58.2510   29.4810   46.0780 C   0  0  0  0  0  0  0  0  0  0  0  0
   58.3690   30.9770   45.7250 C   0  0  0  0  0  0  0  0  0  0  0  0
   57.1150   31.4510   45.1170 N   0  0  0  0  0  0  0  0  0  0  0  0
   57.0210   32.9250   45.0170 C   0  0  0  0  0  0  0  0  0  0  0  0
   58.3120   33.6250   44.5470 C   0  0  0  0  0  0  0  0  0  0  0  0
   58.4700   34.9080   45.2540 N   0  0  0  0  0  0  0  0  0  0  0  0
   59.8070   35.0770   45.8440 C   0  0  0  0  0  0  0  0  0  0  0  0
   60.0140   34.1210   47.0040 C   0  0  0  0  0  0  0  0  0  0  0  0
   58.8670   33.7550   47.7290 C   0  0  0  0  0  0  0  0  0  0  0  0
   58.9360   32.8370   48.7720 C   0  0  0  0  0  0  0  0  0  0  0  0
   60.1510   32.2510   49.1150 C   0  0  0  0  0  0  0  0  0  0  0  0
   60.1810   31.3500   50.1310 F   0  0  0  0  0  0  0  0  0  0  0  0
   61.3200   32.5880   48.4140 C   0  0  0  0  0  0  0  0  0  0  0  0
   62.5420   31.9800   48.7570 C   0  0  0  0  0  0  0  0  0  0  0  0
   63.7080   32.3010   48.0650 C   0  0  0  0  0  0  0  0  0  0  0  0
   63.6740   33.2320   47.0320 C   0  0  0  0  0  0  0  0  0  0  0  0
   62.4730   33.8500   46.6760 C   0  0  0  0  0  0  0  0  0  0  0  0
   61.2690   33.5360   47.3500 C   0  0  0  0  0  0  0  0  0  0  0  0
   56.8380   30.7450   43.8520 C   0  0  0  0  0  0  0  0  0  0  0  0
   56.9670   29.2180   44.0330 C   0  0  0  0  0  0  0  0  0  0  0  0
   58.8197   26.2042   45.1848 H   0  0  0  0  0  0  0  0  0  0  0  0
   57.4821   26.0246   43.9994 H   0  0  0  0  0  0  0  0  0  0  0  0
   58.4885   27.5126   43.9994 H   0  0  0  0  0  0  0  0  0  0  0  0
   56.0550   26.9980   45.4449 H   0  0  0  0  0  0  0  0  0  0  0  0
   57.4043   27.1524   46.6413 H   0  0  0  0  0  0  0  0  0  0  0  0
   58.1848   29.3778   47.1711 H   0  0  0  0  0  0  0  0  0  0  0  0
   59.1400   28.9668   45.6840 H   0  0  0  0  0  0  0  0  0  0  0  0
   58.5703   31.5526   46.6405 H   0  0  0  0  0  0  0  0  0  0  0  0
   59.1924   31.1153   45.0089 H   0  0  0  0  0  0  0  0  0  0  0  0
   56.2202   33.1692   44.3035 H   0  0  0  0  0  0  0  0  0  0  0  0
   56.8226   33.2923   46.0347 H   0  0  0  0  0  0  0  0  0  0  0  0
   59.1765   32.9801   44.7632 H   0  0  0  0  0  0  0  0  0  0  0  0
   58.2504   33.8119   43.4648 H   0  0  0  0  0  0  0  0  0  0  0  0
   58.3380   35.6830   44.5600 H   0  0  0  0  0  0  0  0  0  0  0  0
   60.5675   34.8788   45.0744 H   0  0  0  0  0  0  0  0  0  0  0  0
   59.8972   36.1073   46.2185 H   0  0  0  0  0  0  0  0  0  0  0  0
   57.8970   34.2026   47.4669 H   0  0  0  0  0  0  0  0  0  0  0  0
   58.0250   32.5727   49.3289 H   0  0  0  0  0  0  0  0  0  0  0  0
   62.5768   31.2469   49.5764 H   0  0  0  0  0  0  0  0  0  0  0  0
   64.6578   31.8170   48.3363 H   0  0  0  0  0  0  0  0  0  0  0  0
   64.5989   33.4831   46.4920 H   0  0  0  0  0  0  0  0  0  0  0  0
   62.4630   34.5897   45.8619 H   0  0  0  0  0  0  0  0  0  0  0  0
   55.8158   30.9834   43.5230 H   0  0  0  0  0  0  0  0  0  0  0  0
   57.5704   31.0725   43.0995 H   0  0  0  0  0  0  0  0  0  0  0  0
   56.0874   28.7277   43.5905 H   0  0  0  0  0  0  0  0  0  0  0  0
   57.8874   28.8822   43.5330 H   0  0  0  0  0  0  0  0  0  0  0  0
  1  2  1  0
  2  3  1  0
  3  4  1  0
  4  5  1  0
  5  6  1  0
  6  7  1  0
  7  8  1  0
  8  9  1  0
  9 10  1  0
 10 11  1  0
 11 12  2  0
 12 13  1  0
 13 14  2  0
 14 15  1  0
 14 16  1  0
 16 17  2  0
 17 18  1  0
 18 19  2  0
 19 20  1  0
 20 21  2  0
  6 22  1  0
 22 23  1  0
 23  3  1  0
 21 11  1  0
 21 16  1  0
  1 24  1  0
  1 25  1  0
  1 26  1  0
  2 27  1  0
  2 28  1  0
  4 29  1  0
  4 30  1  0
  5 31  1  0
  5 32  1  0
  7 33  1  0
  7 34  1  0
  8 35  1  0
  8 36  1  0
  9 37  1  0
 10 38  1  0
 10 39  1  0
 12 40  1  0
 13 41  1  0
 17 42  1  0
 18 43  1  0
 19 44  1  0
 20 45  1  0
 22 46  1  0
 22 47  1  0
 23 48  1  0
 23 49  1  0
M  END
>  <UniqueID>  (8) 
8

>  <SMILES>  (8) 
CCN1CCN(CCNCc2ccc(F)c3ccccc23)CC1

>  <Energy>  (8) 
65.01634343663528

>  <Genealogy>  (8) 
CCN1CCN(CCNCc2ccc(F)c3ccccc23)CC1 (3D coordinates assigned)
CCN1CCN(CCNCc2ccc(F)c3ccccc23)CC1 (nonaromatic ring conformer: 65.01634343663528 kcal/mol)

>  <smiles>  (8) 
CCN1CCN(CCNCc2ccc(F)c3ccccc23)CC1

>  <score_type>  (8) 
oracle

>  <origin>  (8) 
adg

>  <m_score__min__energy>  (8) 
-7.5800000000000001

>  <m_primary>  (8) 
energy

$$$$
8:0
     RDKit          3D

 64 67  0  0  0  0  0  0  0  0999 V2000
   63.4520   33.8500   47.8470 C   0  0  0  0  0  0  0  0  0  0  0  0
   63.0980   33.0880   49.1280 C   0  0  0  0  0  0  0  0  0  0  0  0
   62.5750   31.7390   48.8470 N   0  0  0  0  0  0  0  0  0  0  0  0
   62.5220   31.4480   47.4070 C   0  0  0  0  0  0  0  0  0  0  0  0
   61.5150   30.3270   47.1300 C   0  0  0  0  0  0  0  0  0  0  0  0
   60.1660   30.7030   47.5640 N   0  0  0  0  0  0  0  0  0  0  0  0
   59.2500   31.3350   46.6490 C   0  0  0  0  0  0  0  0  0  0  0  0
   58.3910   30.5350   45.8770 C   0  0  0  0  0  0  0  0  0  0  0  0
   58.0610   29.2250   46.2860 C   0  0  0  0  0  0  0  0  0  0  0  0
   57.1890   28.4430   45.5320 C   0  0  0  0  0  0  0  0  0  0  0  0
   56.6170   28.9580   44.3740 C   0  0  0  0  0  0  0  0  0  0  0  0
   56.9280   30.2530   43.9530 C   0  0  0  0  0  0  0  0  0  0  0  0
   57.8430   31.0570   44.6810 C   0  0  0  0  0  0  0  0  0  0  0  0
   58.2180   32.3120   44.2460 N   0  0  0  0  0  0  0  0  0  0  0  0
   57.9640   32.7160   42.8450 C   0  0  0  0  0  0  0  0  0  0  0  0
   58.8340   33.1870   45.1240 C   0  0  0  0  0  0  0  0  0  0  0  0
   58.9820   34.5580   44.8060 C   0  0  0  0  0  0  0  0  0  0  0  0
   59.5950   35.4380   45.6870 C   0  0  0  0  0  0  0  0  0  0  0  0
   60.0190   35.0000   46.9310 C   0  0  0  0  0  0  0  0  0  0  0  0
   59.8730   33.6580   47.3110 C   0  0  0  0  0  0  0  0  0  0  0  0
   60.0830   33.3020   48.6920 N   0  0  0  0  0  0  0  0  0  0  0  0
   59.6320   34.0950   49.8390 C   0  0  0  0  0  0  0  0  0  0  0  0
   60.3130   33.6460   51.1370 C   0  0  0  0  0  0  0  0  0  0  0  0
   59.4070   32.7740   51.9190 N   0  0  0  0  0  0  0  0  0  0  0  0
   58.2510   32.3040   51.1200 C   0  0  0  0  0  0  0  0  0  0  0  0
   58.5470   30.9780   50.3860 C   0  0  0  0  0  0  0  0  0  0  0  0
   59.9400   30.7900   50.2260 O   0  0  0  0  0  0  0  0  0  0  0  0
   60.5560   30.5970   51.4880 C   0  0  0  0  0  0  0  0  0  0  0  0
   60.1070   31.6360   52.5420 C   0  0  0  0  0  0  0  0  0  0  0  0
   59.3240   32.7220   46.3810 C   0  0  0  0  0  0  0  0  0  0  0  0
   63.9021   34.8188   48.1092 H   0  0  0  0  0  0  0  0  0  0  0  0
   64.1686   33.2607   47.2560 H   0  0  0  0  0  0  0  0  0  0  0  0
   62.5395   34.0176   47.2560 H   0  0  0  0  0  0  0  0  0  0  0  0
   64.0029   32.9953   49.7466 H   0  0  0  0  0  0  0  0  0  0  0  0
   62.3119   33.6528   49.6505 H   0  0  0  0  0  0  0  0  0  0  0  0
   61.6170   31.6390   49.2560 H   0  0  0  0  0  0  0  0  0  0  0  0
   62.2151   32.3543   46.8643 H   0  0  0  0  0  0  0  0  0  0  0  0
   63.5183   31.1268   47.0690 H   0  0  0  0  0  0  0  0  0  0  0  0
   61.4989   30.1187   46.0500 H   0  0  0  0  0  0  0  0  0  0  0  0
   61.8250   29.4349   47.6940 H   0  0  0  0  0  0  0  0  0  0  0  0
   59.7890   30.2280   48.4120 H   0  0  0  0  0  0  0  0  0  0  0  0
   58.4970   28.8173   47.2099 H   0  0  0  0  0  0  0  0  0  0  0  0
   56.9528   27.4177   45.8528 H   0  0  0  0  0  0  0  0  0  0  0  0
   55.9176   28.3438   43.7878 H   0  0  0  0  0  0  0  0  0  0  0  0
   56.4569   30.6554   43.0441 H   0  0  0  0  0  0  0  0  0  0  0  0
   57.3786   33.6472   42.8323 H   0  0  0  0  0  0  0  0  0  0  0  0
   58.9227   32.8786   42.3307 H   0  0  0  0  0  0  0  0  0  0  0  0
   57.4020   31.9225   42.3307 H   0  0  0  0  0  0  0  0  0  0  0  0
   58.6044   34.9330   43.8433 H   0  0  0  0  0  0  0  0  0  0  0  0
   59.7449   36.4882   45.3961 H   0  0  0  0  0  0  0  0  0  0  0  0
   60.4766   35.7149   47.6306 H   0  0  0  0  0  0  0  0  0  0  0  0
   60.4880   32.3610   48.9000 H   0  0  0  0  0  0  0  0  0  0  0  0
   59.8712   35.1533   49.6577 H   0  0  0  0  0  0  0  0  0  0  0  0
   58.5472   33.9517   49.9517 H   0  0  0  0  0  0  0  0  0  0  0  0
   61.2297   33.0896   50.8919 H   0  0  0  0  0  0  0  0  0  0  0  0
   60.5597   34.5344   51.7369 H   0  0  0  0  0  0  0  0  0  0  0  0
   57.3941   32.1524   51.7928 H   0  0  0  0  0  0  0  0  0  0  0  0
   58.0340   33.0687   50.3596 H   0  0  0  0  0  0  0  0  0  0  0  0
   58.1357   30.1426   50.9715 H   0  0  0  0  0  0  0  0  0  0  0  0
   58.0806   31.0155   49.3905 H   0  0  0  0  0  0  0  0  0  0  0  0
   60.2989   29.5921   51.8541 H   0  0  0  0  0  0  0  0  0  0  0  0
   61.6405   30.7165   51.3477 H   0  0  0  0  0  0  0  0  0  0  0  0
   59.4287   31.1482   53.2576 H   0  0  0  0  0  0  0  0  0  0  0  0
   61.0039   32.0203   53.0498 H   0  0  0  0  0  0  0  0  0  0  0  0
  1  2  1  0
  2  3  1  0
  3  4  1  0
  4  5  1  0
  5  6  1  0
  6  7  1  0
  7  8  2  0
  8  9  1  0
  9 10  2  0
 10 11  1  0
 11 12  2  0
 12 13  1  0
 13 14  2  0
 14 15  1  0
 14 16  1  0
 16 17  2  0
 17 18  1  0
 18 19  2  0
 19 20  1  0
 20 21  1  0
 21 22  1  0
 22 23  1  0
 23 24  1  0
 24 25  1  0
 25 26  1  0
 26 27  1  0
 27 28  1  0
 28 29  1  0
 20 30  2  0
 30  7  1  0
 13  8  1  0
 30 16  1  0
 29 24  1  0
  1 31  1  0
  1 32  1  0
  1 33  1  0
  2 34  1  0
  2 35  1  0
  3 36  1  0
  4 37  1  0
  4 38  1  0
  5 39  1  0
  5 40  1  0
  6 41  1  0
  9 42  1  0
 10 43  1  0
 11 44  1  0
 12 45  1  0
 15 46  1  0
 15 47  1  0
 15 48  1  0
 17 49  1  0
 18 50  1  0
 19 51  1  0
 21 52  1  0
 22 53  1  0
 22 54  1  0
 23 55  1  0
 23 56  1  0
 25 57  1  0
 25 58  1  0
 26 59  1  0
 26 60  1  0
 28 61  1  0
 28 62  1  0
 29 63  1  0
 29 64  1  0
M  CHG  1  14   1
M  END
>  <UniqueID>  (9) 
9

>  <SMILES>  (9) 
CCNCCNc1c2ccccc2[n+](C)c2cccc(NCCN3CCOCC3)c12

>  <Energy>  (9) 
110.48056697611233

>  <Genealogy>  (9) 
CCNCCNc1c2ccccc2[n+](C)c2cccc(NCCN3CCOCC3)c12 (3D coordinates assigned)
CCNCCNc1c2ccccc2[n+](C)c2cccc(NCCN3CCOCC3)c12 (nonaromatic ring conformer: 110.48056697611233 kcal/mol)

>  <smiles>  (9) 
CCNCCNc1c2ccccc2[n+](C)c2cccc(NCCN3CCOCC3)c12

>  <score_type>  (9) 
oracle

>  <origin>  (9) 
adg

>  <m_score__min__energy>  (9) 
-6.25

>  <m_primary>  (9) 
energy

$$$$
9:0
     RDKit          3D

 76 79  0  0  0  0  0  0  0  0999 V2000
   63.4140   32.0490   47.5420 C   0  0  0  0  0  0  0  0  0  0  0  0
   62.9010   33.4810   47.6850 C   0  0  0  0  0  0  0  0  0  0  0  0
   61.4280   33.5530   47.5870 N   0  0  0  0  0  0  0  0  0  0  0  0
   60.8480   34.0930   48.8280 C   0  0  0  0  0  0  0  0  0  0  0  0
   60.9160   34.2620   46.3880 C   0  0  0  0  0  0  0  0  0  0  0  0
   59.6890   35.1570   46.6490 C   0  0  0  0  0  0  0  0  0  0  0  0
   58.5120   34.3590   46.7800 O   0  0  0  0  0  0  0  0  0  0  0  0
   58.2610   33.1620   46.0880 C   0  0  0  0  0  0  0  0  0  0  0  0
   57.5250   33.1190   44.8920 C   0  0  0  0  0  0  0  0  0  0  0  0
   57.3180   31.9030   44.2400 C   0  0  0  0  0  0  0  0  0  0  0  0
   57.8450   30.7110   44.7640 C   0  0  0  0  0  0  0  0  0  0  0  0
   58.5650   30.7370   45.9720 C   0  0  0  0  0  0  0  0  0  0  0  0
   58.7760   31.9730   46.6130 C   0  0  0  0  0  0  0  0  0  0  0  0
   59.2160   29.5290   46.5360 C   0  0  0  0  0  0  0  0  0  0  0  0
   60.3980   29.6700   46.9560 O   0  0  0  0  0  0  0  0  0  0  0  0
   58.5730   28.1790   46.6810 C   0  0  0  0  0  0  0  0  0  0  0  0
   59.1670   27.2920   47.6020 C   0  0  0  0  0  0  0  0  0  0  0  0
   58.6830   26.0000   47.7890 C   0  0  0  0  0  0  0  0  0  0  0  0
   57.5730   25.5460   47.0770 C   0  0  0  0  0  0  0  0  0  0  0  0
   57.1190   24.1800   47.2120 N   0  0  0  0  0  0  0  0  0  0  0  0
   57.2040   23.4960   45.9370 C   0  0  0  0  0  0  0  0  0  0  0  0
   58.4670   23.0990   45.4540 C   0  0  0  0  0  0  0  0  0  0  0  0
   58.5920   22.4240   44.2390 C   0  0  0  0  0  0  0  0  0  0  0  0
   57.4620   22.1390   43.4780 C   0  0  0  0  0  0  0  0  0  0  0  0
   56.2040   22.5500   43.9180 C   0  0  0  0  0  0  0  0  0  0  0  0
   56.0600   23.2430   45.1320 C   0  0  0  0  0  0  0  0  0  0  0  0
   54.7070   23.7000   45.5060 C   0  0  0  0  0  0  0  0  0  0  0  0
   53.9350   24.1410   44.6180 O   0  0  0  0  0  0  0  0  0  0  0  0
   54.2570   23.6760   46.8670 N   0  0  0  0  0  0  0  0  0  0  0  0
   53.9640   22.4660   47.6300 C   0  0  0  0  0  0  0  0  0  0  0  0
   54.7710   22.4340   48.9280 C   0  0  0  0  0  0  0  0  0  0  0  0
   56.2070   22.2470   48.6120 N   0  0  0  0  0  0  0  0  0  0  0  0
   57.0500   22.3820   49.8100 C   0  0  0  0  0  0  0  0  0  0  0  0
   56.4520   20.9460   47.9680 C   0  0  0  0  0  0  0  0  0  0  0  0
   56.9410   26.4240   46.1860 C   0  0  0  0  0  0  0  0  0  0  0  0
   57.4330   27.7230   45.9510 C   0  0  0  0  0  0  0  0  0  0  0  0
   56.6710   28.5570   44.9430 C   0  0  0  0  0  0  0  0  0  0  0  0
   57.5790   29.4150   44.0640 C   0  0  0  0  0  0  0  0  0  0  0  0
   63.5699   31.6140   48.5402 H   0  0  0  0  0  0  0  0  0  0  0  0
   62.6752   31.4481   46.9914 H   0  0  0  0  0  0  0  0  0  0  0  0
   64.3663   32.0539   46.9914 H   0  0  0  0  0  0  0  0  0  0  0  0
   63.2115   33.8735   48.6646 H   0  0  0  0  0  0  0  0  0  0  0  0
   63.3260   34.0780   46.8647 H   0  0  0  0  0  0  0  0  0  0  0  0
   61.3433   33.6319   49.6952 H   0  0  0  0  0  0  0  0  0  0  0  0
   60.9957   35.1826   48.8580 H   0  0  0  0  0  0  0  0  0  0  0  0
   59.7717   33.8679   48.8580 H   0  0  0  0  0  0  0  0  0  0  0  0
   61.7242   34.8943   45.9918 H   0  0  0  0  0  0  0  0  0  0  0  0
   60.5910   33.4849   45.6806 H   0  0  0  0  0  0  0  0  0  0  0  0
   59.8462   35.7267   47.5768 H   0  0  0  0  0  0  0  0  0  0  0  0
   59.5617   35.8457   45.8007 H   0  0  0  0  0  0  0  0  0  0  0  0
   57.1111   34.0461   44.4687 H   0  0  0  0  0  0  0  0  0  0  0  0
   56.7365   31.8775   43.3066 H   0  0  0  0  0  0  0  0  0  0  0  0
   59.3580   32.0036   47.5459 H   0  0  0  0  0  0  0  0  0  0  0  0
   60.0349   27.6293   48.1877 H   0  0  0  0  0  0  0  0  0  0  0  0
   59.1812   25.3305   48.5056 H   0  0  0  0  0  0  0  0  0  0  0  0
   56.1230   24.1620   47.5370 H   0  0  0  0  0  0  0  0  0  0  0  0
   57.6720   23.6990   47.9570 H   0  0  0  0  0  0  0  0  0  0  0  0
   59.3678   23.3246   46.0436 H   0  0  0  0  0  0  0  0  0  0  0  0
   59.5859   22.1165   43.8819 H   0  0  0  0  0  0  0  0  0  0  0  0
   57.5611   21.5899   42.5300 H   0  0  0  0  0  0  0  0  0  0  0  0
   55.3153   22.3294   43.3084 H   0  0  0  0  0  0  0  0  0  0  0  0
   52.8911   22.4430   47.8717 H   0  0  0  0  0  0  0  0  0  0  0  0
   54.2384   21.5910   47.0225 H   0  0  0  0  0  0  0  0  0  0  0  0
   54.6348   23.3826   49.4680 H   0  0  0  0  0  0  0  0  0  0  0  0
   54.4222   21.6013   49.5564 H   0  0  0  0  0  0  0  0  0  0  0  0
   56.4262   22.2821   50.7105 H   0  0  0  0  0  0  0  0  0  0  0  0
   57.8191   21.5956   49.8077 H   0  0  0  0  0  0  0  0  0  0  0  0
   57.5351   23.3693   49.8077 H   0  0  0  0  0  0  0  0  0  0  0  0
   56.5970   20.1761   48.7402 H   0  0  0  0  0  0  0  0  0  0  0  0
   55.5884   20.6787   47.3413 H   0  0  0  0  0  0  0  0  0  0  0  0
   57.3537   21.0111   47.3413 H   0  0  0  0  0  0  0  0  0  0  0  0
   56.0368   26.0900   45.6561 H   0  0  0  0  0  0  0  0  0  0  0  0
   56.0937   27.8812   44.2949 H   0  0  0  0  0  0  0  0  0  0  0  0
   56.0214   29.2412   45.5086 H   0  0  0  0  0  0  0  0  0  0  0  0
   58.5285   28.8882   43.8884 H   0  0  0  0  0  0  0  0  0  0  0  0
   57.0904   29.6063   43.0972 H   0  0  0  0  0  0  0  0  0  0  0  0
  1  2  1  0
  2  3  1  0
  3  4  1  0
  3  5  1  0
  5  6  1  0
  6  7  1  0
  7  8  1  0
  8  9  2  0
  9 10  1  0
 10 11  2  0
 11 12  1  0
 12 13  2  0
 12 14  1  0
 14 15  2  0
 14 16  1  0
 16 17  2  0
 17 18  1  0
 18 19  2  0
 19 20  1  0
 20 21  1  0
 21 22  2  0
 22 23  1  0
 23 24  2  0
 24 25  1  0
 25 26  2  0
 26 27  1  0
 27 28  2  0
 27 29  1  0
 29 30  1  0
 30 31  1  0
 31 32  1  0
 32 33  1  0
 32 34  1  0
 19 35  1  0
 35 36  2  0
 36 37  1  0
 37 38  1  0
 13  8  1  0
 36 16  1  0
 38 11  1  0
 26 21  1  0
  1 39  1  0
  1 40  1  0
  1 41  1  0
  2 42  1  0
  2 43  1  0
  4 44  1  0
  4 45  1  0
  4 46  1  0
  5 47  1  0
  5 48  1  0
  6 49  1  0
  6 50  1  0
  9 51  1  0
 10 52  1  0
 13 53  1  0
 17 54  1  0
 18 55  1  0
 20 56  1  0
 20 57  1  0
 22 58  1  0
 23 59  1  0
 24 60  1  0
 25 61  1  0
 30 62  1  0
 30 63  1  0
 31 64  1  0
 31 65  1  0
 33 66  1  0
 33 67  1  0
 33 68  1  0
 34 69  1  0
 34 70  1  0
 34 71  1  0
 35 72  1  0
 37 73  1  0
 37 74  1  0
 38 75  1  0
 38 76  1  0
M  CHG  2  20   1  29  -1
M  END
>  <UniqueID>  (10) 
10

>  <SMILES>  (10) 
CCN(C)CCOc1ccc2c(c1)C(=O)c1ccc([NH2+]c3ccccc3C(=O)[N-]CCN(C)C)cc1CC2

>  <Energy>  (10) 
106.37377677184051

>  <Genealogy>  (10) 
CCN(C)CCOc1ccc2c(c1)C(=O)c1ccc([NH2+]c3ccccc3C(=O)[N-]CCN(C)C)cc1CC2 (protonated)
CCN(C)CCOc1ccc2c(c1)C(=O)c1ccc([NH2+]c3ccccc3C(=O)[N-]CCN(C)C)cc1CC2 (3D coordinates assigned)
CCN(C)CCOc1ccc2c(c1)C(=O)c1ccc([NH2+]c3ccccc3C(=O)[N-]CCN(C)C)cc1CC2 (nonaromatic ring conformer: 106.37377677184051 kcal/mol)

>  <smiles>  (10) 
CCN(C)CCOc1ccc2c(c1)C(=O)c1ccc(Nc3ccccc3C(=O)NCCN(C)C)cc1CC2

>  <score_type>  (10) 
oracle

>  <origin>  (10) 
adg

>  <m_score__min__energy>  (10) 
-7.6900000000000004

>  <m_primary>  (10) 
energy

$$$$
10:0
     RDKit          3D

 53 55  0  0  0  0  0  0  0  0999 V2000
   63.2150   33.8390   46.3670 C   0  0  0  0  0  0  0  0  0  0  0  0
   63.4050   33.8230   47.8840 C   0  0  0  0  0  0  0  0  0  0  0  0
   63.9600   32.4860   48.3920 C   0  0  0  0  0  0  0  0  0  0  0  0
   62.9450   31.7320   49.2000 C   0  0  0  0  0  0  0  0  0  0  0  0
   63.1820   31.1470   50.4000 N   0  0  0  0  0  0  0  0  0  0  0  0
   62.0880   30.4960   50.7920 N   0  0  0  0  0  0  0  0  0  0  0  0
   61.9880   29.7120   52.0180 C   0  0  0  0  0  0  0  0  0  0  0  0
   61.1500   30.6500   49.8340 C   0  0  0  0  0  0  0  0  0  0  0  0
   59.8630   30.1350   49.7190 C   0  0  0  0  0  0  0  0  0  0  0  0
   59.3530   29.4150   50.6170 O   0  0  0  0  0  0  0  0  0  0  0  0
   59.1590   30.4320   48.5870 N   0  0  0  0  0  0  0  0  0  0  0  0
   59.6910   31.2080   47.5830 C   0  0  0  0  0  0  0  0  0  0  0  0
   58.9080   31.4930   46.3510 C   0  0  0  0  0  0  0  0  0  0  0  0
   58.0850   30.4820   45.8170 C   0  0  0  0  0  0  0  0  0  0  0  0
   57.3300   30.7060   44.6610 C   0  0  0  0  0  0  0  0  0  0  0  0
   56.3410   29.4070   44.0000 S   0  0  0  0  0  0  0  0  0  0  0  0
   55.0800   29.9950   43.4300 O   0  0  0  0  0  0  0  0  0  0  0  0
   57.0780   28.7020   42.8940 O   0  0  0  0  0  0  0  0  0  0  0  0
   55.9250   28.2660   45.2450 N   0  0  0  0  0  0  0  0  0  0  0  0
   57.0810   27.4510   45.6260 C   0  0  0  0  0  0  0  0  0  0  0  0
   56.6540   26.0060   45.8510 C   0  0  0  0  0  0  0  0  0  0  0  0
   57.3930   31.9470   44.0240 C   0  0  0  0  0  0  0  0  0  0  0  0
   58.2030   32.9590   44.5360 C   0  0  0  0  0  0  0  0  0  0  0  0
   58.9760   32.7480   45.6950 C   0  0  0  0  0  0  0  0  0  0  0  0
   59.8200   33.7480   46.2120 O   0  0  0  0  0  0  0  0  0  0  0  0
   59.4190   34.8430   47.0370 C   0  0  0  0  0  0  0  0  0  0  0  0
   59.6910   34.5400   48.5060 C   0  0  0  0  0  0  0  0  0  0  0  0
   60.9640   31.6990   47.7080 N   0  0  0  0  0  0  0  0  0  0  0  0
   61.6560   31.4130   48.8340 C   0  0  0  0  0  0  0  0  0  0  0  0
   62.1441   33.9292   46.1325 H   0  0  0  0  0  0  0  0  0  0  0  0
   63.7575   34.6946   45.9385 H   0  0  0  0  0  0  0  0  0  0  0  0
   63.6068   32.9047   45.9385 H   0  0  0  0  0  0  0  0  0  0  0  0
   64.1065   34.6240   48.1602 H   0  0  0  0  0  0  0  0  0  0  0  0
   62.4181   33.9728   48.3463 H   0  0  0  0  0  0  0  0  0  0  0  0
   64.2551   31.8719   47.5284 H   0  0  0  0  0  0  0  0  0  0  0  0
   64.8233   32.6983   49.0398 H   0  0  0  0  0  0  0  0  0  0  0  0
   64.0810   31.1760   50.9300 H   0  0  0  0  0  0  0  0  0  0  0  0
   62.0732   30.3796   52.8881 H   0  0  0  0  0  0  0  0  0  0  0  0
   61.0168   29.1962   52.0452 H   0  0  0  0  0  0  0  0  0  0  0  0
   62.7986   28.9690   52.0452 H   0  0  0  0  0  0  0  0  0  0  0  0
   58.0354   29.5029   46.3160 H   0  0  0  0  0  0  0  0  0  0  0  0
   57.8318   27.4873   44.8229 H   0  0  0  0  0  0  0  0  0  0  0  0
   57.5091   27.8483   46.5581 H   0  0  0  0  0  0  0  0  0  0  0  0
   56.5946   25.8051   46.9309 H   0  0  0  0  0  0  0  0  0  0  0  0
   55.6682   25.8393   45.3923 H   0  0  0  0  0  0  0  0  0  0  0  0
   57.3909   25.3303   45.3923 H   0  0  0  0  0  0  0  0  0  0  0  0
   56.8010   32.1266   43.1145 H   0  0  0  0  0  0  0  0  0  0  0  0
   58.2393   33.9345   44.0290 H   0  0  0  0  0  0  0  0  0  0  0  0
   59.9821   35.7412   46.7435 H   0  0  0  0  0  0  0  0  0  0  0  0
   58.3396   35.0084   46.9044 H   0  0  0  0  0  0  0  0  0  0  0  0
   59.0888   35.2108   49.1364 H   0  0  0  0  0  0  0  0  0  0  0  0
   59.4219   33.4953   48.7208 H   0  0  0  0  0  0  0  0  0  0  0  0
   60.7586   34.6952   48.7208 H   0  0  0  0  0  0  0  0  0  0  0  0
  1  2  1  0
  2  3  1  0
  3  4  1  0
  4  5  2  0
  5  6  1  0
  6  7  1  0
  6  8  1  0
  8  9  1  0
  9 10  2  0
  9 11  1  0
 11 12  1  0
 12 13  1  0
 13 14  2  0
 14 15  1  0
 15 16  1  0
 16 17  2  0
 16 18  2  0
 16 19  1  0
 19 20  1  0
 20 21  1  0
 15 22  2  0
 22 23  1  0
 23 24  2  0
 24 25  1  0
 25 26  1  0
 26 27  1  0
 12 28  2  0
 28 29  1  0
 29  4  1  0
 29  8  2  0
 24 13  1  0
  1 30  1  0
  1 31  1  0
  1 32  1  0
  2 33  1  0
  2 34  1  0
  3 35  1  0
  3 36  1  0
  5 37  1  0
  7 38  1  0
  7 39  1  0
  7 40  1  0
 14 41  1  0
 20 42  1  0
 20 43  1  0
 21 44  1  0
 21 45  1  0
 21 46  1  0
 22 47  1  0
 23 48  1  0
 26 49  1  0
 26 50  1  0
 27 51  1  0
 27 52  1  0
 27 53  1  0
M  CHG  3   5   1  11  -1  19  -1
M  END
>  <UniqueID>  (11) 
11

>  <SMILES>  (11) 
CCCc1[nH+]n(C)c2c(=O)[n-]c(-c3cc(S(=O)(=O)[N-]CC)ccc3OCC)nc12

>  <Energy>  (11) 
90.06950365073925

>  <Genealogy>  (11) 
CCCc1[nH+]n(C)c2c(=O)[n-]c(-c3cc(S(=O)(=O)[N-]CC)ccc3OCC)nc12 (protonated)
CCCc1[nH+]n(C)c2c(=O)[n-]c(-c3cc(S(=O)(=O)[N-]CC)ccc3OCC)nc12 (3D coordinates assigned)
CCCc1[nH+]n(C)c2c(=O)[n-]c(-c3cc(S(=O)(=O)[N-]CC)ccc3OCC)nc12 (optimized conformer: 90.06950365073925 kcal/mol)

>  <smiles>  (11) 
CCCc1nn(C)c2c(=O)[nH]c(-c3cc(S(=O)(=O)NCC)ccc3OCC)nc12

>  <score_type>  (11) 
oracle

>  <origin>  (11) 
adg

>  <m_score__min__energy>  (11) 
-9.1300000000000008

>  <m_primary>  (11) 
energy

$$$$
11:0
     RDKit          3D

 55 58  0  0  0  0  0  0  0  0999 V2000
   55.5340   30.0540   43.8790 C   0  0  0  0  0  0  0  0  0  0  0  0
   56.6840   29.4510   43.0790 C   0  0  0  0  0  0  0  0  0  0  0  0
   57.6630   28.8090   43.9880 N   0  0  0  0  0  0  0  0  0  0  0  0
   58.0580   27.4860   43.4720 C   0  0  0  0  0  0  0  0  0  0  0  0
   57.1220   28.6800   45.3590 C   0  0  0  0  0  0  0  0  0  0  0  0
   58.2550   28.8060   46.3900 C   0  0  0  0  0  0  0  0  0  0  0  0
   59.4330   29.5210   45.8570 N   0  0  0  0  0  0  0  0  0  0  0  0
   59.6050   30.8330   46.4700 C   0  0  0  0  0  0  0  0  0  0  0  0
   60.4210   30.9990   47.6210 C   0  0  0  0  0  0  0  0  0  0  0  0
   60.6320   32.2950   48.1400 C   0  0  0  0  0  0  0  0  0  0  0  0
   59.8210   33.3350   47.7460 N   0  0  0  0  0  0  0  0  0  0  0  0
   59.6510   34.5150   48.6220 C   0  0  0  0  0  0  0  0  0  0  0  0
   59.0890   33.2350   46.5830 C   0  0  0  0  0  0  0  0  0  0  0  0
   58.4440   34.3660   46.0250 C   0  0  0  0  0  0  0  0  0  0  0  0
   57.7180   34.2710   44.8420 C   0  0  0  0  0  0  0  0  0  0  0  0
   57.6200   33.0550   44.1810 C   0  0  0  0  0  0  0  0  0  0  0  0
   58.2460   31.9240   44.7000 C   0  0  0  0  0  0  0  0  0  0  0  0
   58.9860   31.9850   45.9070 C   0  0  0  0  0  0  0  0  0  0  0  0
   61.7430   32.4670   49.1300 C   0  0  0  0  0  0  0  0  0  0  0  0
   62.5140   33.6440   49.1630 C   0  0  0  0  0  0  0  0  0  0  0  0
   63.5570   33.7640   50.0790 C   0  0  0  0  0  0  0  0  0  0  0  0
   63.8530   32.7050   50.9330 C   0  0  0  0  0  0  0  0  0  0  0  0
   63.1240   31.5200   50.8300 C   0  0  0  0  0  0  0  0  0  0  0  0
   62.1170   31.4020   49.9110 N   0  0  0  0  0  0  0  0  0  0  0  0
   61.4160   30.1230   49.7640 C   0  0  0  0  0  0  0  0  0  0  0  0
   61.1520   29.8390   48.2810 C   0  0  0  0  0  0  0  0  0  0  0  0
   55.7393   29.9463   44.9543 H   0  0  0  0  0  0  0  0  0  0  0  0
   55.4337   31.1207   43.6298 H   0  0  0  0  0  0  0  0  0  0  0  0
   54.5996   29.5299   43.6298 H   0  0  0  0  0  0  0  0  0  0  0  0
   56.2861   28.6972   42.3837 H   0  0  0  0  0  0  0  0  0  0  0  0
   57.1883   30.2521   42.5187 H   0  0  0  0  0  0  0  0  0  0  0  0
   58.2601   26.8090   44.3151 H   0  0  0  0  0  0  0  0  0  0  0  0
   57.2437   27.0739   42.8579 H   0  0  0  0  0  0  0  0  0  0  0  0
   58.9649   27.5878   42.8579 H   0  0  0  0  0  0  0  0  0  0  0  0
   56.3815   29.4744   45.5338 H   0  0  0  0  0  0  0  0  0  0  0  0
   56.6467   27.6938   45.4663 H   0  0  0  0  0  0  0  0  0  0  0  0
   57.8758   29.3551   47.2645 H   0  0  0  0  0  0  0  0  0  0  0  0
   58.5763   27.7884   46.6571 H   0  0  0  0  0  0  0  0  0  0  0  0
   59.3320   29.6320   44.8240 H   0  0  0  0  0  0  0  0  0  0  0  0
   60.2790   28.9190   45.9460 H   0  0  0  0  0  0  0  0  0  0  0  0
   59.6964   34.1996   49.6748 H   0  0  0  0  0  0  0  0  0  0  0  0
   60.4541   35.2394   48.4212 H   0  0  0  0  0  0  0  0  0  0  0  0
   58.6761   34.9833   48.4212 H   0  0  0  0  0  0  0  0  0  0  0  0
   58.5185   35.3371   46.5363 H   0  0  0  0  0  0  0  0  0  0  0  0
   57.2208   35.1615   44.4300 H   0  0  0  0  0  0  0  0  0  0  0  0
   57.0466   32.9839   43.2449 H   0  0  0  0  0  0  0  0  0  0  0  0
   58.1645   30.9671   44.1637 H   0  0  0  0  0  0  0  0  0  0  0  0
   62.2937   34.4671   48.4673 H   0  0  0  0  0  0  0  0  0  0  0  0
   64.1448   34.6926   50.1273 H   0  0  0  0  0  0  0  0  0  0  0  0
   64.6535   32.8017   51.6813 H   0  0  0  0  0  0  0  0  0  0  0  0
   63.3604   30.6743   51.4924 H   0  0  0  0  0  0  0  0  0  0  0  0
   62.0355   29.3173   50.1848 H   0  0  0  0  0  0  0  0  0  0  0  0
   60.4563   30.1729   50.2992 H   0  0  0  0  0  0  0  0  0  0  0  0
   62.1129   29.6823   47.7689 H   0  0  0  0  0  0  0  0  0  0  0  0
   60.5214   28.9409   48.2049 H   0  0  0  0  0  0  0  0  0  0  0  0
  1  2  1  0
  2  3  1  0
  3  4  1  0
  3  5  1  0
  5  6  1  0
  6  7  1  0
  7  8  1  0
  8  9  2  0
  9 10  1  0
 10 11  2  0
 11 12  1  0
 11 13  1  0
 13 14  2  0
 14 15  1  0
 15 16  2  0
 16 17  1  0
 17 18  2  0
 10 19  1  0
 19 20  2  0
 20 21  1  0
 21 22  2  0
 22 23  1  0
 23 24  2  0
 24 25  1  0
 25 26  1  0
 18  8  1  0
 24 19  1  0
 26  9  1  0
 18 13  1  0
  1 27  1  0
  1 28  1  0
  1 29  1  0
  2 30  1  0
  2 31  1  0
  4 32  1  0
  4 33  1  0
  4 34  1  0
  5 35  1  0
  5 36  1  0
  6 37  1  0
  6 38  1  0
  7 39  1  0
  7 40  1  0
 12 41  1  0
 12 42  1  0
 12 43  1  0
 14 44  1  0
 15 45  1  0
 16 46  1  0
 17 47  1  0
 20 48  1  0
 21 49  1  0
 22 50  1  0
 23 51  1  0
 25 52  1  0
 25 53  1  0
 26 54  1  0
 26 55  1  0
M  CHG  3   7   1  11   1  24   1
M  END
>  <UniqueID>  (12) 
12

>  <SMILES>  (12) 
CCN(C)CC[NH2+]c1c2c([n+](C)c3ccccc13)-c1cccc[n+]1CC2

>  <Energy>  (12) 
88.98925030568971

>  <Genealogy>  (12) 
CCN(C)CC[NH2+]c1c2c([n+](C)c3ccccc13)-c1cccc[n+]1CC2 (protonated)
CCN(C)CC[NH2+]c1c2c([n+](C)c3ccccc13)-c1cccc[n+]1CC2 (3D coordinates assigned)
CCN(C)CC[NH2+]c1c2c([n+](C)c3ccccc13)-c1cccc[n+]1CC2 (nonaromatic ring conformer: 88.98925030568971 kcal/mol)

>  <smiles>  (12) 
CCN(C)CCNc1c2c([n+](C)c3ccccc13)-c1cccc[n+]1CC2

>  <score_type>  (12) 
oracle

>  <origin>  (12) 
adg

>  <m_score__min__energy>  (12) 
-3.0099999999999998

>  <m_primary>  (12) 
energy

$$$$
12:0
     RDKit          3D

 45 47  0  0  0  0  0  0  0  0999 V2000
   58.5405   26.8984   46.3903 H   0  0  0  0  0  0  0  0  0  0  0  0
   58.3110   27.8010   45.8050 C   0  0  0  0  0  0  0  0  0  0  0  0
   57.7810   27.6750   44.5030 C   0  0  0  0  0  0  0  0  0  0  0  0
   57.6032   26.6748   44.0810 H   0  0  0  0  0  0  0  0  0  0  0  0
   57.4780   28.8180   43.7400 C   0  0  0  0  0  0  0  0  0  0  0  0
   57.0689   28.7272   42.7230 H   0  0  0  0  0  0  0  0  0  0  0  0
   57.7120   30.0730   44.3120 C   0  0  0  0  0  0  0  0  0  0  0  0
   58.2360   30.1850   45.5850 C   0  0  0  0  0  0  0  0  0  0  0  0
   58.5480   29.0710   46.3600 C   0  0  0  0  0  0  0  0  0  0  0  0
   58.9656   29.1808   47.3717 H   0  0  0  0  0  0  0  0  0  0  0  0
   58.3780   31.5320   45.8290 C   0  0  0  0  0  0  0  0  0  0  0  0
   58.8760   32.2210   46.9320 C   0  0  0  0  0  0  0  0  0  0  0  0
   59.2085   31.6828   47.8319 H   0  0  0  0  0  0  0  0  0  0  0  0
   58.9420   33.6270   46.8630 C   0  0  0  0  0  0  0  0  0  0  0  0
   59.4310   34.3630   47.9960 N   0  0  0  0  0  0  0  0  0  0  0  0
   58.9130   35.2400   48.2210 H   0  0  0  0  0  0  0  0  0  0  0  0
   60.4600   34.0060   48.7240 C   0  0  0  0  0  0  0  0  0  0  0  0
   60.2750   33.3350   49.9840 N   0  0  0  0  0  0  0  0  0  0  0  0
   61.1260   33.0380   50.5130 H   0  0  0  0  0  0  0  0  0  0  0  0
   58.9740   33.0750   50.5890 C   0  0  0  0  0  0  0  0  0  0  0  0
   59.0688   33.0939   51.6847 H   0  0  0  0  0  0  0  0  0  0  0  0
   58.2599   33.8482   50.2693 H   0  0  0  0  0  0  0  0  0  0  0  0
   58.6119   32.0867   50.2693 H   0  0  0  0  0  0  0  0  0  0  0  0
   61.8080   34.2410   48.2820 N   0  0  0  0  0  0  0  0  0  0  0  0
   62.4950   34.5880   48.9890 H   0  0  0  0  0  0  0  0  0  0  0  0
   62.3460   33.6800   47.0400 C   0  0  0  0  0  0  0  0  0  0  0  0
   62.3903   34.4717   46.2776 H   0  0  0  0  0  0  0  0  0  0  0  0
   61.6868   32.8633   46.7107 H   0  0  0  0  0  0  0  0  0  0  0  0
   63.7470   33.1160   47.2550 C   0  0  0  0  0  0  0  0  0  0  0  0
   63.9482   33.0350   48.3334 H   0  0  0  0  0  0  0  0  0  0  0  0
   63.8161   32.1200   46.7933 H   0  0  0  0  0  0  0  0  0  0  0  0
   64.4870   33.7863   46.7933 H   0  0  0  0  0  0  0  0  0  0  0  0
   58.4660   34.2980   45.7060 C   0  0  0  0  0  0  0  0  0  0  0  0
   58.4863   35.3972   45.6690 H   0  0  0  0  0  0  0  0  0  0  0  0
   57.9690   33.5760   44.6070 C   0  0  0  0  0  0  0  0  0  0  0  0
   57.6180   34.0943   43.7025 H   0  0  0  0  0  0  0  0  0  0  0  0
   57.9330   32.1820   44.6950 C   0  0  0  0  0  0  0  0  0  0  0  0
   57.5070   31.2960   43.7590 N   0  0  0  0  0  0  0  0  0  0  0  0
   57.0270   31.5920   42.4060 C   0  0  0  0  0  0  0  0  0  0  0  0
   56.7886   30.6496   41.8911 H   0  0  0  0  0  0  0  0  0  0  0  0
   56.1275   32.2214   42.4748 H   0  0  0  0  0  0  0  0  0  0  0  0
   58.0960   32.3390   41.6180 C   0  0  0  0  0  0  0  0  0  0  0  0
   58.7929   32.8260   42.3160 H   0  0  0  0  0  0  0  0  0  0  0  0
   58.6479   31.6289   40.9846 H   0  0  0  0  0  0  0  0  0  0  0  0
   57.6190   33.1014   40.9846 H   0  0  0  0  0  0  0  0  0  0  0  0
  1  2  1  0
  2  3  2  0
  3  4  1  0
  3  5  1  0
  5  6  1  0
  5  7  2  0
  7  8  1  0
  8  9  2  0
  9 10  1  0
  8 11  1  0
 11 12  2  0
 12 13  1  0
 12 14  1  0
 14 15  1  0
 15 16  1  0
 15 17  2  0
 17 18  1  0
 18 19  1  0
 18 20  1  0
 20 21  1  0
 20 22  1  0
 20 23  1  0
 17 24  1  0
 24 25  1  0
 24 26  1  0
 26 27  1  0
 26 28  1  0
 26 29  1  0
 29 30  1  0
 29 31  1  0
 29 32  1  0
 14 33  2  0
 33 34  1  0
 33 35  1  0
 35 36  1  0
 35 37  2  0
 37 38  1  0
 38 39  1  0
 39 40  1  0
 39 41  1  0
 39 42  1  0
 42 43  1  0
 42 44  1  0
 42 45  1  0
  9  2  1  0
 37 11  1  0
 38  7  1  0
M  CHG  1  15   1
M  END
>  <UniqueID>  (13) 
13

>  <SMILES>  (13) 
CCN/C(NC)=[NH+]\c1ccc2c(c1)c1ccccc1n2CC

>  <Energy>  (13) 
89.8412873365284

>  <Genealogy>  (13) 
CCNC(NC)=[NH+]c1ccc2c(c1)c1ccccc1n2CC (protonated)
CCN/C(NC)=[NH+]\c1ccc2c(c1)c1ccccc1n2CC (cis-trans isomerization)
CCN/C(NC)=[NH+]\c1ccc2c(c1)c1ccccc1n2CC (3D coordinates assigned)
CCN/C(NC)=[NH+]\c1ccc2c(c1)c1ccccc1n2CC (optimized conformer: 89.8412873365284 kcal/mol)

>  <smiles>  (13) 
CCNC(=Nc1ccc2c(c1)c1ccccc1n2CC)NC

>  <score_type>  (13) 
oracle

>  <origin>  (13) 
adg

>  <m_score__min__energy>  (13) 
-6

>  <m_primary>  (13) 
energy

$$$$
13:0
     RDKit          3D

 40 42  0  0  0  0  0  0  0  0999 V2000
   56.2820   29.7330   42.7470 C   0  0  0  0  0  0  0  0  0  0  0  0
   55.9780   30.3270   44.1200 C   0  0  0  0  0  0  0  0  0  0  0  0
   57.2000   30.8740   44.7280 N   0  0  0  0  0  0  0  0  0  0  0  0
   57.7450   32.1520   44.2440 C   0  0  0  0  0  0  0  0  0  0  0  0
   57.3880   33.3010   45.1850 C   0  0  0  0  0  0  0  0  0  0  0  0
   57.9120   30.1190   45.7300 C   0  0  0  0  0  0  0  0  0  0  0  0
   58.9400   30.7070   46.5020 C   0  0  0  0  0  0  0  0  0  0  0  0
   59.6340   29.9530   47.4730 C   0  0  0  0  0  0  0  0  0  0  0  0
   59.3080   28.5990   47.6990 C   0  0  0  0  0  0  0  0  0  0  0  0
   60.0640   27.7720   48.6980 C   0  0  0  0  0  0  0  0  0  0  0  0
   58.2960   28.0430   46.9120 C   0  0  0  0  0  0  0  0  0  0  0  0
   57.8450   26.7790   46.9260 N   0  0  0  0  0  0  0  0  0  0  0  0
   56.8870   26.7920   45.9630 C   0  0  0  0  0  0  0  0  0  0  0  0
   56.0990   25.5990   45.6130 C   0  0  0  0  0  0  0  0  0  0  0  0
   56.6890   24.5050   44.9600 C   0  0  0  0  0  0  0  0  0  0  0  0
   55.9070   23.3910   44.6440 C   0  0  0  0  0  0  0  0  0  0  0  0
   54.5520   23.3750   44.9800 C   0  0  0  0  0  0  0  0  0  0  0  0
   53.9970   24.4800   45.6270 C   0  0  0  0  0  0  0  0  0  0  0  0
   54.7730   25.5560   45.9270 N   0  0  0  0  0  0  0  0  0  0  0  0
   56.7240   27.9950   45.3540 N   0  0  0  0  0  0  0  0  0  0  0  0
   57.6250   28.7710   45.9750 C   0  0  0  0  0  0  0  0  0  0  0  0
   56.7800   28.7600   42.8705 H   0  0  0  0  0  0  0  0  0  0  0  0
   55.3430   29.5963   42.1906 H   0  0  0  0  0  0  0  0  0  0  0  0
   56.9421   30.4147   42.1906 H   0  0  0  0  0  0  0  0  0  0  0  0
   55.2371   31.1325   44.0097 H   0  0  0  0  0  0  0  0  0  0  0  0
   55.5822   29.5333   44.7706 H   0  0  0  0  0  0  0  0  0  0  0  0
   58.8400   32.0716   44.1763 H   0  0  0  0  0  0  0  0  0  0  0  0
   57.3079   32.3637   43.2570 H   0  0  0  0  0  0  0  0  0  0  0  0
   57.4919   32.9667   46.2278 H   0  0  0  0  0  0  0  0  0  0  0  0
   58.0652   34.1484   45.0024 H   0  0  0  0  0  0  0  0  0  0  0  0
   56.3498   33.6154   45.0024 H   0  0  0  0  0  0  0  0  0  0  0  0
   59.2020   31.7636   46.3444 H   0  0  0  0  0  0  0  0  0  0  0  0
   60.4363   30.4255   48.0588 H   0  0  0  0  0  0  0  0  0  0  0  0
   59.7830   28.0794   49.7161 H   0  0  0  0  0  0  0  0  0  0  0  0
   59.8186   26.7093   48.5550 H   0  0  0  0  0  0  0  0  0  0  0  0
   61.1444   27.9213   48.5550 H   0  0  0  0  0  0  0  0  0  0  0  0
   57.7575   24.5247   44.6995 H   0  0  0  0  0  0  0  0  0  0  0  0
   56.3580   22.5284   44.1316 H   0  0  0  0  0  0  0  0  0  0  0  0
   53.9290   22.5015   44.7375 H   0  0  0  0  0  0  0  0  0  0  0  0
   52.9301   24.4807   45.8948 H   0  0  0  0  0  0  0  0  0  0  0  0
  1  2  1  0
  2  3  1  0
  3  4  1  0
  4  5  1  0
  3  6  1  0
  6  7  2  0
  7  8  1  0
  8  9  2  0
  9 10  1  0
  9 11  1  0
 11 12  1  0
 12 13  2  0
 13 14  1  0
 14 15  2  0
 15 16  1  0
 16 17  2  0
 17 18  1  0
 18 19  2  0
 13 20  1  0
 20 21  1  0
 21  6  1  0
 21 11  2  0
 19 14  1  0
  1 22  1  0
  1 23  1  0
  1 24  1  0
  2 25  1  0
  2 26  1  0
  4 27  1  0
  4 28  1  0
  5 29  1  0
  5 30  1  0
  5 31  1  0
  7 32  1  0
  8 33  1  0
 10 34  1  0
 10 35  1  0
 10 36  1  0
 15 37  1  0
 16 38  1  0
 17 39  1  0
 18 40  1  0
M  CHG  1  20  -1
M  END
>  <UniqueID>  (14) 
14

>  <SMILES>  (14) 
CCN(CC)c1ccc(C)c2nc(-c3ccccn3)[n-]c12

>  <Energy>  (14) 
73.6060529557243

>  <Genealogy>  (14) 
CCN(CC)c1ccc(C)c2nc(-c3ccccn3)[n-]c12 (protonated)
CCN(CC)c1ccc(C)c2nc(-c3ccccn3)[n-]c12 (3D coordinates assigned)
CCN(CC)c1ccc(C)c2nc(-c3ccccn3)[n-]c12 (optimized conformer: 73.6060529557243 kcal/mol)

>  <smiles>  (14) 
CCN(CC)c1ccc(C)c2nc(-c3ccccn3)[nH]c12

>  <score_type>  (14) 
oracle

>  <origin>  (14) 
adg

>  <m_score__min__energy>  (14) 
-8.1600000000000001

>  <m_primary>  (14) 
energy

$$$$
14:0
     RDKit          3D

 60 62  0  0  0  0  0  0  0  0999 V2000
   63.3510   33.9280   46.3500 C   0  0  0  0  0  0  0  0  0  0  0  0
   63.7360   32.6130   47.0450 C   0  0  0  0  0  0  0  0  0  0  0  0
   63.2430   32.5070   48.4380 N   0  0  0  0  0  0  0  0  0  0  0  0
   64.3140   32.6920   49.4420 C   0  0  0  0  0  0  0  0  0  0  0  0
   63.9030   33.7200   50.4940 C   0  0  0  0  0  0  0  0  0  0  0  0
   62.4200   31.2960   48.6680 C   0  0  0  0  0  0  0  0  0  0  0  0
   61.7060   30.9140   47.3650 C   0  0  0  0  0  0  0  0  0  0  0  0
   60.2630   30.7310   47.5420 N   0  0  0  0  0  0  0  0  0  0  0  0
   59.3240   30.8460   46.4600 C   0  0  0  0  0  0  0  0  0  0  0  0
   58.9560   29.6960   45.7400 C   0  0  0  0  0  0  0  0  0  0  0  0
   59.3300   28.4110   46.1920 C   0  0  0  0  0  0  0  0  0  0  0  0
   58.9580   27.2630   45.4840 C   0  0  0  0  0  0  0  0  0  0  0  0
   59.3330   25.9050   46.0010 C   0  0  0  0  0  0  0  0  0  0  0  0
   58.1580   27.3890   44.3470 C   0  0  0  0  0  0  0  0  0  0  0  0
   57.7820   28.6500   43.8860 C   0  0  0  0  0  0  0  0  0  0  0  0
   58.2040   29.8300   44.5480 C   0  0  0  0  0  0  0  0  0  0  0  0
   57.8970   31.0860   44.0630 N   0  0  0  0  0  0  0  0  0  0  0  0
   57.4080   31.2380   42.6740 C   0  0  0  0  0  0  0  0  0  0  0  0
   58.0690   32.2000   44.8640 C   0  0  0  0  0  0  0  0  0  0  0  0
   57.5170   33.4550   44.5020 C   0  0  0  0  0  0  0  0  0  0  0  0
   57.7350   34.5890   45.2740 C   0  0  0  0  0  0  0  0  0  0  0  0
   58.4720   34.5070   46.4440 C   0  0  0  0  0  0  0  0  0  0  0  0
   58.9940   33.2820   46.8750 C   0  0  0  0  0  0  0  0  0  0  0  0
   59.6300   33.2460   48.1630 N   0  0  0  0  0  0  0  0  0  0  0  0
   60.6770   34.2200   48.4720 C   0  0  0  0  0  0  0  0  0  0  0  0
   58.8990   32.6450   49.2790 C   0  0  0  0  0  0  0  0  0  0  0  0
   58.8020   32.1070   46.0850 C   0  0  0  0  0  0  0  0  0  0  0  0
   63.1273   34.6921   47.1090 H   0  0  0  0  0  0  0  0  0  0  0  0
   64.1870   34.2691   45.7217 H   0  0  0  0  0  0  0  0  0  0  0  0
   62.4631   33.7644   45.7217 H   0  0  0  0  0  0  0  0  0  0  0  0
   63.3170   31.7780   46.4642 H   0  0  0  0  0  0  0  0  0  0  0  0
   64.8347   32.5842   47.0906 H   0  0  0  0  0  0  0  0  0  0  0  0
   64.5137   31.7302   49.9370 H   0  0  0  0  0  0  0  0  0  0  0  0
   65.2171   33.0552   48.9297 H   0  0  0  0  0  0  0  0  0  0  0  0
   64.0695   33.3035   51.4984 H   0  0  0  0  0  0  0  0  0  0  0  0
   64.5057   34.6319   50.3707 H   0  0  0  0  0  0  0  0  0  0  0  0
   62.8378   33.9651   50.3707 H   0  0  0  0  0  0  0  0  0  0  0  0
   63.0677   30.4669   48.9889 H   0  0  0  0  0  0  0  0  0  0  0  0
   61.6746   31.4999   49.4508 H   0  0  0  0  0  0  0  0  0  0  0  0
   61.8713   31.7122   46.6264 H   0  0  0  0  0  0  0  0  0  0  0  0
   62.1231   29.9538   47.0275 H   0  0  0  0  0  0  0  0  0  0  0  0
   59.9580   30.1850   48.3800 H   0  0  0  0  0  0  0  0  0  0  0  0
   59.9221   28.3115   47.1137 H   0  0  0  0  0  0  0  0  0  0  0  0
   59.3295   25.9176   47.1009 H   0  0  0  0  0  0  0  0  0  0  0  0
   58.6064   25.1619   45.6405 H   0  0  0  0  0  0  0  0  0  0  0  0
   60.3379   25.6401   45.6405 H   0  0  0  0  0  0  0  0  0  0  0  0
   57.8224   26.4885   43.8118 H   0  0  0  0  0  0  0  0  0  0  0  0
   57.1461   28.7305   42.9920 H   0  0  0  0  0  0  0  0  0  0  0  0
   56.3577   31.5645   42.6887 H   0  0  0  0  0  0  0  0  0  0  0  0
   58.0181   31.9889   42.1506 H   0  0  0  0  0  0  0  0  0  0  0  0
   57.4849   30.2736   42.1506 H   0  0  0  0  0  0  0  0  0  0  0  0
   56.9040   33.5320   43.5919 H   0  0  0  0  0  0  0  0  0  0  0  0
   57.3205   35.5566   44.9548 H   0  0  0  0  0  0  0  0  0  0  0  0
   58.6488   35.4141   47.0406 H   0  0  0  0  0  0  0  0  0  0  0  0
   60.7790   34.3149   49.5631 H   0  0  0  0  0  0  0  0  0  0  0  0
   61.6313   33.8811   48.0426 H   0  0  0  0  0  0  0  0  0  0  0  0
   60.4078   35.1963   48.0426 H   0  0  0  0  0  0  0  0  0  0  0  0
   59.3268   32.9967   50.2294 H   0  0  0  0  0  0  0  0  0  0  0  0
   57.8399   32.9370   49.2233 H   0  0  0  0  0  0  0  0  0  0  0  0
   58.9807   31.5495   49.2233 H   0  0  0  0  0  0  0  0  0  0  0  0
  1  2  1  0
  2  3  1  0
  3  4  1  0
  4  5  1  0
  3  6  1  0
  6  7  1  0
  7  8  1  0
  8  9  1  0
  9 10  2  0
 10 11  1  0
 11 12  2  0
 12 13  1  0
 12 14  1  0
 14 15  2  0
 15 16  1  0
 16 17  2  0
 17 18  1  0
 17 19  1  0
 19 20  2  0
 20 21  1  0
 21 22  2  0
 22 23  1  0
 23 24  1  0
 24 25  1  0
 24 26  1  0
 23 27  2  0
 27  9  1  0
 16 10  1  0
 27 19  1  0
  1 28  1  0
  1 29  1  0
  1 30  1  0
  2 31  1  0
  2 32  1  0
  4 33  1  0
  4 34  1  0
  5 35  1  0
  5 36  1  0
  5 37  1  0
  6 38  1  0
  6 39  1  0
  7 40  1  0
  7 41  1  0
  8 42  1  0
 11 43  1  0
 13 44  1  0
 13 45  1  0
 13 46  1  0
 14 47  1  0
 15 48  1  0
 18 49  1  0
 18 50  1  0
 18 51  1  0
 20 52  1  0
 21 53  1  0
 22 54  1  0
 25 55  1  0
 25 56  1  0
 25 57  1  0
 26 58  1  0
 26 59  1  0
 26 60  1  0
M  CHG  1  17   1
M  END
>  <UniqueID>  (15) 
15

>  <SMILES>  (15) 
CCN(CC)CCNc1c2cc(C)ccc2[n+](C)c2cccc(N(C)C)c12

>  <Energy>  (15) 
93.82102579387843

>  <Genealogy>  (15) 
CCN(CC)CCNc1c2cc(C)ccc2[n+](C)c2cccc(N(C)C)c12 (3D coordinates assigned)
CCN(CC)CCNc1c2cc(C)ccc2[n+](C)c2cccc(N(C)C)c12 (optimized conformer: 93.82102579387843 kcal/mol)

>  <smiles>  (15) 
CCN(CC)CCNc1c2cc(C)ccc2[n+](C)c2cccc(N(C)C)c12

>  <score_type>  (15) 
oracle

>  <origin>  (15) 
adg

>  <m_score__min__energy>  (15) 
-5.9800000000000004

>  <m_primary>  (15) 
energy

$$$$
15:0
     RDKit          3D

 64 66  0  0  0  0  0  0  0  0999 V2000
   63.3280   33.3780   46.9600 C   0  0  0  0  0  0  0  0  0  0  0  0
   63.2050   32.1570   47.8820 C   0  0  0  0  0  0  0  0  0  0  0  0
   63.1690   32.5010   49.3210 N   0  0  0  0  0  0  0  0  0  0  0  0
   63.3760   33.9460   49.5670 C   0  0  0  0  0  0  0  0  0  0  0  0
   63.4320   34.2400   51.0660 C   0  0  0  0  0  0  0  0  0  0  0  0
   64.0410   31.6310   50.1470 C   0  0  0  0  0  0  0  0  0  0  0  0
   63.1870   30.5920   50.8720 C   0  0  0  0  0  0  0  0  0  0  0  0
   62.8110   31.0820   52.1500 O   0  0  0  0  0  0  0  0  0  0  0  0
   63.0740   30.1290   53.1640 C   0  0  0  0  0  0  0  0  0  0  0  0
   61.7980   29.8410   53.9680 C   0  0  0  0  0  0  0  0  0  0  0  0
   60.7820   30.8850   53.7510 N   0  0  0  0  0  0  0  0  0  0  0  0
   59.5090   30.3030   53.2680 C   0  0  0  0  0  0  0  0  0  0  0  0
   58.9250   31.0840   52.0870 C   0  0  0  0  0  0  0  0  0  0  0  0
   59.9670   31.7440   51.3720 O   0  0  0  0  0  0  0  0  0  0  0  0
   59.7750   32.4490   50.1740 C   0  0  0  0  0  0  0  0  0  0  0  0
   60.1510   33.7970   50.1270 C   0  0  0  0  0  0  0  0  0  0  0  0
   60.0040   34.5390   48.9510 C   0  0  0  0  0  0  0  0  0  0  0  0
   59.4600   33.9390   47.8030 C   0  0  0  0  0  0  0  0  0  0  0  0
   59.2980   34.6340   46.5940 C   0  0  0  0  0  0  0  0  0  0  0  0
   59.6550   35.8390   46.4850 O   0  0  0  0  0  0  0  0  0  0  0  0
   58.7350   33.9790   45.4970 C   0  0  0  0  0  0  0  0  0  0  0  0
   58.3410   32.6350   45.6230 C   0  0  0  0  0  0  0  0  0  0  0  0
   57.7440   31.8810   44.4910 C   0  0  0  0  0  0  0  0  0  0  0  0
   57.0820   30.6620   44.7430 C   0  0  0  0  0  0  0  0  0  0  0  0
   56.5290   29.9260   43.6930 C   0  0  0  0  0  0  0  0  0  0  0  0
   56.6150   30.3990   42.3830 C   0  0  0  0  0  0  0  0  0  0  0  0
   57.2500   31.6140   42.1200 C   0  0  0  0  0  0  0  0  0  0  0  0
   57.8090   32.3570   43.1650 C   0  0  0  0  0  0  0  0  0  0  0  0
   58.5250   32.0030   46.7820 O   0  0  0  0  0  0  0  0  0  0  0  0
   59.0590   32.5860   47.8510 C   0  0  0  0  0  0  0  0  0  0  0  0
   59.2220   31.8470   49.0270 C   0  0  0  0  0  0  0  0  0  0  0  0
   63.4198   34.2895   47.5689 H   0  0  0  0  0  0  0  0  0  0  0  0
   64.2198   33.2697   46.3252 H   0  0  0  0  0  0  0  0  0  0  0  0
   62.4325   33.4498   46.3252 H   0  0  0  0  0  0  0  0  0  0  0  0
   62.2774   31.6226   47.6291 H   0  0  0  0  0  0  0  0  0  0  0  0
   64.1013   31.5400   47.7207 H   0  0  0  0  0  0  0  0  0  0  0  0
   64.3230   34.2586   49.1028 H   0  0  0  0  0  0  0  0  0  0  0  0
   62.5331   34.5018   49.1304 H   0  0  0  0  0  0  0  0  0  0  0  0
   63.2551   33.3115   51.6286 H   0  0  0  0  0  0  0  0  0  0  0  0
   64.4229   34.6420   51.3240 H   0  0  0  0  0  0  0  0  0  0  0  0
   62.6583   34.9781   51.3240 H   0  0  0  0  0  0  0  0  0  0  0  0
   64.7680   31.1198   49.4988 H   0  0  0  0  0  0  0  0  0  0  0  0
   64.5759   32.2453   50.8863 H   0  0  0  0  0  0  0  0  0  0  0  0
   62.2831   30.3857   50.2801 H   0  0  0  0  0  0  0  0  0  0  0  0
   63.7696   29.6672   50.9959 H   0  0  0  0  0  0  0  0  0  0  0  0
   63.4301   29.1964   52.7020 H   0  0  0  0  0  0  0  0  0  0  0  0
   63.8415   30.5304   53.8422 H   0  0  0  0  0  0  0  0  0  0  0  0
   61.3874   28.8703   53.6530 H   0  0  0  0  0  0  0  0  0  0  0  0
   62.0571   29.8254   55.0369 H   0  0  0  0  0  0  0  0  0  0  0  0
   61.1430   31.5530   53.0290 H   0  0  0  0  0  0  0  0  0  0  0  0
   60.6440   31.4240   54.6390 H   0  0  0  0  0  0  0  0  0  0  0  0
   59.6920   29.2658   52.9506 H   0  0  0  0  0  0  0  0  0  0  0  0
   58.7834   30.3479   54.0935 H   0  0  0  0  0  0  0  0  0  0  0  0
   58.4051   30.3880   51.4122 H   0  0  0  0  0  0  0  0  0  0  0  0
   58.2177   31.8357   52.4673 H   0  0  0  0  0  0  0  0  0  0  0  0
   60.5666   34.2775   51.0250 H   0  0  0  0  0  0  0  0  0  0  0  0
   60.3147   35.5939   48.9247 H   0  0  0  0  0  0  0  0  0  0  0  0
   58.6009   34.5095   44.5428 H   0  0  0  0  0  0  0  0  0  0  0  0
   57.0005   30.2880   45.7742 H   0  0  0  0  0  0  0  0  0  0  0  0
   56.0242   28.9707   43.8991 H   0  0  0  0  0  0  0  0  0  0  0  0
   56.1824   29.8145   41.5576 H   0  0  0  0  0  0  0  0  0  0  0  0
   57.3110   31.9884   41.0875 H   0  0  0  0  0  0  0  0  0  0  0  0
   58.3016   33.3171   42.9516 H   0  0  0  0  0  0  0  0  0  0  0  0
   58.9169   30.7906   49.0564 H   0  0  0  0  0  0  0  0  0  0  0  0
  1  2  1  0
  2  3  1  0
  3  4  1  0
  4  5  1  0
  3  6  1  0
  6  7  1  0
  7  8  1  0
  8  9  1  0
  9 10  1  0
 10 11  1  0
 11 12  1  0
 12 13  1  0
 13 14  1  0
 14 15  1  0
 15 16  2  0
 16 17  1  0
 17 18  2  0
 18 19  1  0
 19 20  2  0
 19 21  1  0
 21 22  2  0
 22 23  1  0
 23 24  2  0
 24 25  1  0
 25 26  2  0
 26 27  1  0
 27 28  2  0
 22 29  1  0
 29 30  1  0
 30 31  2  0
 31 15  1  0
 30 18  1  0
 28 23  1  0
  1 32  1  0
  1 33  1  0
  1 34  1  0
  2 35  1  0
  2 36  1  0
  4 37  1  0
  4 38  1  0
  5 39  1  0
  5 40  1  0
  5 41  1  0
  6 42  1  0
  6 43  1  0
  7 44  1  0
  7 45  1  0
  9 46  1  0
  9 47  1  0
 10 48  1  0
 10 49  1  0
 11 50  1  0
 11 51  1  0
 12 52  1  0
 12 53  1  0
 13 54  1  0
 13 55  1  0
 16 56  1  0
 17 57  1  0
 21 58  1  0
 24 59  1  0
 25 60  1  0
 26 61  1  0
 27 62  1  0
 28 63  1  0
 31 64  1  0
M  CHG  1  11   1
M  END
>  <UniqueID>  (16) 
16

>  <SMILES>  (16) 
CCN(CC)CCOCC[NH2+]CCOc1ccc2c(=O)cc(-c3ccccc3)oc2c1

>  <Energy>  (16) 
76.59987277936459

>  <Genealogy>  (16) 
CCN(CC)CCOCC[NH2+]CCOc1ccc2c(=O)cc(-c3ccccc3)oc2c1 (protonated)
CCN(CC)CCOCC[NH2+]CCOc1ccc2c(=O)cc(-c3ccccc3)oc2c1 (3D coordinates assigned)
CCN(CC)CCOCC[NH2+]CCOc1ccc2c(=O)cc(-c3ccccc3)oc2c1 (optimized conformer: 76.59987277936459 kcal/mol)

>  <smiles>  (16) 
CCN(CC)CCOCCNCCOc1ccc2c(=O)cc(-c3ccccc3)oc2c1

>  <score_type>  (16) 
oracle

>  <origin>  (16) 
adg

>  <m_score__min__energy>  (16) 
-4.96

>  <m_primary>  (16) 
energy

$$$$
16:0
     RDKit          3D

 57 59  0  0  0  0  0  0  0  0999 V2000
   66.2850   32.8160   50.1830 C   0  0  0  0  0  0  0  0  0  0  0  0
   64.9320   33.4560   49.8210 C   0  0  0  0  0  0  0  0  0  0  0  0
   64.2940   32.9770   48.5560 N   0  0  0  0  0  0  0  0  0  0  0  0
   63.3800   33.9680   47.9300 C   0  0  0  0  0  0  0  0  0  0  0  0
   63.3880   33.9070   46.3980 C   0  0  0  0  0  0  0  0  0  0  0  0
   63.7310   31.6020   48.6720 C   0  0  0  0  0  0  0  0  0  0  0  0
   62.3340   31.5220   49.3140 C   0  0  0  0  0  0  0  0  0  0  0  0
   61.3430   30.7240   48.4460 C   0  0  0  0  0  0  0  0  0  0  0  0
   61.1500   31.3010   47.1080 N   0  0  0  0  0  0  0  0  0  0  0  0
   59.9300   31.1360   46.3670 C   0  0  0  0  0  0  0  0  0  0  0  0
   59.5780   29.8600   45.8930 C   0  0  0  0  0  0  0  0  0  0  0  0
   60.1700   28.6990   46.4350 C   0  0  0  0  0  0  0  0  0  0  0  0
   59.8030   27.4350   45.9770 C   0  0  0  0  0  0  0  0  0  0  0  0
   58.8340   27.3070   44.9900 C   0  0  0  0  0  0  0  0  0  0  0  0
   58.2350   28.4410   44.4440 C   0  0  0  0  0  0  0  0  0  0  0  0
   58.6100   29.7410   44.8670 C   0  0  0  0  0  0  0  0  0  0  0  0
   58.0640   30.8760   44.3050 N   0  0  0  0  0  0  0  0  0  0  0  0
   57.3440   30.7860   43.0150 C   0  0  0  0  0  0  0  0  0  0  0  0
   58.1970   32.0940   44.9450 C   0  0  0  0  0  0  0  0  0  0  0  0
   57.4050   33.2060   44.5670 C   0  0  0  0  0  0  0  0  0  0  0  0
   57.5550   34.4400   45.1850 C   0  0  0  0  0  0  0  0  0  0  0  0
   58.4590   34.5960   46.2220 C   0  0  0  0  0  0  0  0  0  0  0  0
   59.2300   33.5200   46.6670 C   0  0  0  0  0  0  0  0  0  0  0  0
   60.2280   33.8330   48.1380 S   0  0  0  0  0  0  0  0  0  0  0  0
   59.0680   32.9820   49.2520 C   0  0  0  0  0  0  0  0  0  0  0  0
   59.1360   32.2520   46.0100 C   0  0  0  0  0  0  0  0  0  0  0  0
   66.3868   32.7679   51.2772 H   0  0  0  0  0  0  0  0  0  0  0  0
   66.3333   31.7996   49.7652 H   0  0  0  0  0  0  0  0  0  0  0  0
   67.1014   33.4234   49.7652 H   0  0  0  0  0  0  0  0  0  0  0  0
   64.2336   33.2546   50.6466 H   0  0  0  0  0  0  0  0  0  0  0  0
   65.1444   34.5230   49.6587 H   0  0  0  0  0  0  0  0  0  0  0  0
   65.0930   32.8720   47.8840 H   0  0  0  0  0  0  0  0  0  0  0  0
   62.3567   33.7728   48.2831 H   0  0  0  0  0  0  0  0  0  0  0  0
   63.7312   34.9690   48.2210 H   0  0  0  0  0  0  0  0  0  0  0  0
   63.5247   32.8650   46.0732 H   0  0  0  0  0  0  0  0  0  0  0  0
   62.4320   34.2894   46.0108 H   0  0  0  0  0  0  0  0  0  0  0  0
   64.2131   34.5229   46.0108 H   0  0  0  0  0  0  0  0  0  0  0  0
   63.6668   31.1733   47.6610 H   0  0  0  0  0  0  0  0  0  0  0  0
   64.4078   31.0484   49.3395 H   0  0  0  0  0  0  0  0  0  0  0  0
   62.4217   31.0313   50.2946 H   0  0  0  0  0  0  0  0  0  0  0  0
   61.9477   32.5471   49.4142 H   0  0  0  0  0  0  0  0  0  0  0  0
   61.7246   29.6986   48.3327 H   0  0  0  0  0  0  0  0  0  0  0  0
   60.3687   30.7484   48.9560 H   0  0  0  0  0  0  0  0  0  0  0  0
   61.7240   32.1450   46.8800 H   0  0  0  0  0  0  0  0  0  0  0  0
   60.9282   28.7928   47.2264 H   0  0  0  0  0  0  0  0  0  0  0  0
   60.2811   26.5379   46.3974 H   0  0  0  0  0  0  0  0  0  0  0  0
   58.5384   26.3076   44.6382 H   0  0  0  0  0  0  0  0  0  0  0  0
   57.4592   28.3254   43.6728 H   0  0  0  0  0  0  0  0  0  0  0  0
   56.2687   30.6516   43.2039 H   0  0  0  0  0  0  0  0  0  0  0  0
   57.5027   31.7110   42.4412 H   0  0  0  0  0  0  0  0  0  0  0  0
   57.7255   29.9286   42.4412 H   0  0  0  0  0  0  0  0  0  0  0  0
   56.6571   33.0895   43.7688 H   0  0  0  0  0  0  0  0  0  0  0  0
   56.9531   35.2974   44.8494 H   0  0  0  0  0  0  0  0  0  0  0  0
   58.5713   35.5797   46.7013 H   0  0  0  0  0  0  0  0  0  0  0  0
   59.3462   33.1861   50.2965 H   0  0  0  0  0  0  0  0  0  0  0  0
   58.0470   33.3469   49.0665 H   0  0  0  0  0  0  0  0  0  0  0  0
   59.1095   31.8986   49.0665 H   0  0  0  0  0  0  0  0  0  0  0  0
  1  2  1  0
  2  3  1  0
  3  4  1  0
  4  5  1  0
  3  6  1  0
  6  7  1  0
  7  8  1  0
  8  9  1  0
  9 10  1  0
 10 11  2  0
 11 12  1  0
 12 13  2  0
 13 14  1  0
 14 15  2  0
 15 16  1  0
 16 17  2  0
 17 18  1  0
 17 19  1  0
 19 20  2  0
 20 21  1  0
 21 22  2  0
 22 23  1  0
 23 24  1  0
 24 25  1  0
 23 26  2  0
 26 10  1  0
 16 11  1  0
 26 19  1  0
  1 27  1  0
  1 28  1  0
  1 29  1  0
  2 30  1  0
  2 31  1  0
  3 32  1  0
  4 33  1  0
  4 34  1  0
  5 35  1  0
  5 36  1  0
  5 37  1  0
  6 38  1  0
  6 39  1  0
  7 40  1  0
  7 41  1  0
  8 42  1  0
  8 43  1  0
  9 44  1  0
 12 45  1  0
 13 46  1  0
 14 47  1  0
 15 48  1  0
 18 49  1  0
 18 50  1  0
 18 51  1  0
 20 52  1  0
 21 53  1  0
 22 54  1  0
 25 55  1  0
 25 56  1  0
 25 57  1  0
M  CHG  2   3   1  17   1
M  END
>  <UniqueID>  (17) 
17

>  <SMILES>  (17) 
CC[NH+](CC)CCCNc1c2ccccc2[n+](C)c2cccc(SC)c12

>  <Energy>  (17) 
92.64334620580424

>  <Genealogy>  (17) 
CC[NH+](CC)CCCNc1c2ccccc2[n+](C)c2cccc(SC)c12 (protonated)
CC[NH+](CC)CCCNc1c2ccccc2[n+](C)c2cccc(SC)c12 (3D coordinates assigned)
CC[NH+](CC)CCCNc1c2ccccc2[n+](C)c2cccc(SC)c12 (optimized conformer: 92.64334620580424 kcal/mol)

>  <smiles>  (17) 
CCN(CC)CCCNc1c2ccccc2[n+](C)c2cccc(SC)c12

>  <score_type>  (17) 
oracle

>  <origin>  (17) 
adg

>  <m_score__min__energy>  (17) 
-4.8399999999999999

>  <m_primary>  (17) 
energy

$$$$
17:0
     RDKit          3D

 50 52  0  0  0  0  0  0  0  0999 V2000
   63.3900   33.8300   46.3780 C   0  0  0  0  0  0  0  0  0  0  0  0
   62.8130   33.8270   47.7920 C   0  0  0  0  0  0  0  0  0  0  0  0
   63.0900   32.5330   48.4590 N   0  0  0  0  0  0  0  0  0  0  0  0
   64.4000   32.5880   49.1580 C   0  0  0  0  0  0  0  0  0  0  0  0
   64.2710   33.2850   50.5080 C   0  0  0  0  0  0  0  0  0  0  0  0
   62.0190   32.1800   49.4230 C   0  0  0  0  0  0  0  0  0  0  0  0
   61.1100   31.0210   48.9480 C   0  0  0  0  0  0  0  0  0  0  0  0
   61.3030   30.6400   47.5330 N   0  0  0  0  0  0  0  0  0  0  0  0
   60.0480   30.5020   46.8010 C   0  0  0  0  0  0  0  0  0  0  0  0
   59.5030   29.2190   46.5380 C   0  0  0  0  0  0  0  0  0  0  0  0
   59.9110   28.0750   47.2640 C   0  0  0  0  0  0  0  0  0  0  0  0
   59.3700   26.8220   46.9910 C   0  0  0  0  0  0  0  0  0  0  0  0
   58.3970   26.6810   46.0110 C   0  0  0  0  0  0  0  0  0  0  0  0
   57.9600   27.7920   45.2950 C   0  0  0  0  0  0  0  0  0  0  0  0
   58.5070   29.0790   45.5340 C   0  0  0  0  0  0  0  0  0  0  0  0
   58.0790   30.1830   44.8280 N   0  0  0  0  0  0  0  0  0  0  0  0
   57.3240   30.0130   43.5680 C   0  0  0  0  0  0  0  0  0  0  0  0
   58.3430   31.4460   45.3140 C   0  0  0  0  0  0  0  0  0  0  0  0
   57.6250   32.5760   44.8460 C   0  0  0  0  0  0  0  0  0  0  0  0
   57.8850   33.8510   45.3410 C   0  0  0  0  0  0  0  0  0  0  0  0
   57.1800   34.9130   44.8780 F   0  0  0  0  0  0  0  0  0  0  0  0
   58.8420   34.0310   46.3310 C   0  0  0  0  0  0  0  0  0  0  0  0
   59.0660   35.2690   46.8380 F   0  0  0  0  0  0  0  0  0  0  0  0
   59.5500   32.9390   46.8270 C   0  0  0  0  0  0  0  0  0  0  0  0
   59.3360   31.6340   46.3180 C   0  0  0  0  0  0  0  0  0  0  0  0
   64.4887   33.8357   46.4303 H   0  0  0  0  0  0  0  0  0  0  0  0
   63.0531   32.9301   45.8426 H   0  0  0  0  0  0  0  0  0  0  0  0
   63.0438   34.7264   45.8426 H   0  0  0  0  0  0  0  0  0  0  0  0
   63.2726   34.6402   48.3730 H   0  0  0  0  0  0  0  0  0  0  0  0
   61.7243   33.9732   47.7340 H   0  0  0  0  0  0  0  0  0  0  0  0
   64.7665   31.5630   49.3161 H   0  0  0  0  0  0  0  0  0  0  0  0
   65.1053   33.1582   48.5356 H   0  0  0  0  0  0  0  0  0  0  0  0
   64.4071   32.5497   51.3148 H   0  0  0  0  0  0  0  0  0  0  0  0
   65.0396   34.0675   50.5916 H   0  0  0  0  0  0  0  0  0  0  0  0
   63.2733   33.7406   50.5916 H   0  0  0  0  0  0  0  0  0  0  0  0
   62.4900   31.8850   50.3723 H   0  0  0  0  0  0  0  0  0  0  0  0
   61.3780   33.0675   49.5297 H   0  0  0  0  0  0  0  0  0  0  0  0
   61.3183   30.1406   49.5737 H   0  0  0  0  0  0  0  0  0  0  0  0
   60.0726   31.3746   49.0413 H   0  0  0  0  0  0  0  0  0  0  0  0
   61.9050   31.3510   47.0590 H   0  0  0  0  0  0  0  0  0  0  0  0
   61.8720   29.7730   47.5490 H   0  0  0  0  0  0  0  0  0  0  0  0
   60.6672   28.1775   48.0562 H   0  0  0  0  0  0  0  0  0  0  0  0
   59.7143   25.9414   47.5531 H   0  0  0  0  0  0  0  0  0  0  0  0
   57.9704   25.6893   45.7998 H   0  0  0  0  0  0  0  0  0  0  0  0
   57.1777   27.6700   44.5314 H   0  0  0  0  0  0  0  0  0  0  0  0
   56.2747   29.7767   43.7983 H   0  0  0  0  0  0  0  0  0  0  0  0
   57.3706   30.9441   42.9842 H   0  0  0  0  0  0  0  0  0  0  0  0
   57.7651   29.1917   42.9842 H   0  0  0  0  0  0  0  0  0  0  0  0
   56.8487   32.4426   44.0781 H   0  0  0  0  0  0  0  0  0  0  0  0
   60.2883   33.0923   47.6279 H   0  0  0  0  0  0  0  0  0  0  0  0
  1  2  1  0
  2  3  1  0
  3  4  1  0
  4  5  1  0
  3  6  1  0
  6  7  1  0
  7  8  1  0
  8  9  1  0
  9 10  2  0
 10 11  1  0
 11 12  2  0
 12 13  1  0
 13 14  2  0
 14 15  1  0
 15 16  2  0
 16 17  1  0
 16 18  1  0
 18 19  2  0
 19 20  1  0
 20 21  1  0
 20 22  2  0
 22 23  1  0
 22 24  1  0
 24 25  2  0
 25  9  1  0
 15 10  1  0
 25 18  1  0
  1 26  1  0
  1 27  1  0
  1 28  1  0
  2 29  1  0
  2 30  1  0
  4 31  1  0
  4 32  1  0
  5 33  1  0
  5 34  1  0
  5 35  1  0
  6 36  1  0
  6 37  1  0
  7 38  1  0
  7 39  1  0
  8 40  1  0
  8 41  1  0
 11 42  1  0
 12 43  1  0
 13 44  1  0
 14 45  1  0
 17 46  1  0
 17 47  1  0
 17 48  1  0
 19 49  1  0
 24 50  1  0
M  CHG  2   8   1  16   1
M  END
>  <UniqueID>  (18) 
18

>  <SMILES>  (18) 
CCN(CC)CC[NH2+]c1c2ccccc2[n+](C)c2cc(F)c(F)cc12

>  <Energy>  (18) 
80.26688462353147

>  <Genealogy>  (18) 
CCN(CC)CC[NH2+]c1c2ccccc2[n+](C)c2cc(F)c(F)cc12 (protonated)
CCN(CC)CC[NH2+]c1c2ccccc2[n+](C)c2cc(F)c(F)cc12 (3D coordinates assigned)
CCN(CC)CC[NH2+]c1c2ccccc2[n+](C)c2cc(F)c(F)cc12 (optimized conformer: 80.26688462353147 kcal/mol)

>  <smiles>  (18) 
CCN(CC)CCNc1c2ccccc2[n+](C)c2cc(F)c(F)cc12

>  <score_type>  (18) 
oracle

>  <origin>  (18) 
adg

>  <m_score__min__energy>  (18) 
-3.7999999999999998

>  <m_primary>  (18) 
energy

$$$$
18:0
     RDKit          3D

 36 37  0  0  0  0  0  0  0  0999 V2000
   53.6300   27.2870   53.7850 C   0  0  0  0  0  0  0  0  0  0  0  0
   53.7560   28.2780   52.7700 O   0  0  0  0  0  0  0  0  0  0  0  0
   54.7620   29.2580   52.7330 C   0  0  0  0  0  0  0  0  0  0  0  0
   56.1070   28.9530   53.0230 C   0  0  0  0  0  0  0  0  0  0  0  0
   57.0830   29.9490   52.9820 C   0  0  0  0  0  0  0  0  0  0  0  0
   56.7350   31.2660   52.6630 C   0  0  0  0  0  0  0  0  0  0  0  0
   57.9820   32.5090   52.6180 S   0  0  0  0  0  0  0  0  0  0  0  0
   57.3870   33.8600   52.3310 O   0  0  0  0  0  0  0  0  0  0  0  0
   58.6700   32.5550   53.9530 O   0  0  0  0  0  0  0  0  0  0  0  0
   59.1450   32.1240   51.3910 N   0  0  0  0  0  0  0  0  0  0  0  0
   59.2000   32.7280   50.0910 C   0  0  0  0  0  0  0  0  0  0  0  0
   58.4910   32.1280   49.0410 C   0  0  0  0  0  0  0  0  0  0  0  0
   58.5120   32.6890   47.7610 C   0  0  0  0  0  0  0  0  0  0  0  0
   59.2440   33.8560   47.5190 C   0  0  0  0  0  0  0  0  0  0  0  0
   59.2700   34.6230   45.7710 Br  0  0  0  0  0  0  0  0  0  0  0  0
   59.9590   34.4580   48.5590 C   0  0  0  0  0  0  0  0  0  0  0  0
   59.9410   33.8980   49.8400 C   0  0  0  0  0  0  0  0  0  0  0  0
   55.4010   31.5790   52.3770 C   0  0  0  0  0  0  0  0  0  0  0  0
   54.4150   30.5770   52.3860 C   0  0  0  0  0  0  0  0  0  0  0  0
   53.0020   30.9220   52.1210 C   0  0  0  0  0  0  0  0  0  0  0  0
   52.5140   31.3260   50.9380 C   0  0  0  0  0  0  0  0  0  0  0  0
   51.4040   32.2800   50.7470 C   0  0  0  0  0  0  0  0  0  0  0  0
   50.7540   32.3270   49.6700 O   0  0  0  0  0  0  0  0  0  0  0  0
   51.0270   33.0990   51.8030 O   0  0  0  0  0  0  0  0  0  0  0  0
   53.6908   27.7651   54.7738 H   0  0  0  0  0  0  0  0  0  0  0  0
   52.6600   26.7785   53.6826 H   0  0  0  0  0  0  0  0  0  0  0  0
   54.4419   26.5519   53.6826 H   0  0  0  0  0  0  0  0  0  0  0  0
   56.3893   27.9222   53.2835 H   0  0  0  0  0  0  0  0  0  0  0  0
   58.1312   29.6976   53.2015 H   0  0  0  0  0  0  0  0  0  0  0  0
   57.9144   31.2096   49.2257 H   0  0  0  0  0  0  0  0  0  0  0  0
   57.9522   32.2121   46.9430 H   0  0  0  0  0  0  0  0  0  0  0  0
   60.5370   35.3744   48.3689 H   0  0  0  0  0  0  0  0  0  0  0  0
   60.5077   34.3733   50.6542 H   0  0  0  0  0  0  0  0  0  0  0  0
   55.1220   32.6171   52.1434 H   0  0  0  0  0  0  0  0  0  0  0  0
   52.2949   30.8411   52.9597 H   0  0  0  0  0  0  0  0  0  0  0  0
   52.9813   30.9106   50.0330 H   0  0  0  0  0  0  0  0  0  0  0  0
  1  2  1  0
  2  3  1  0
  3  4  2  0
  4  5  1  0
  5  6  2  0
  6  7  1  0
  7  8  2  0
  7  9  2  0
  7 10  1  0
 10 11  1  0
 11 12  2  0
 12 13  1  0
 13 14  2  0
 14 15  1  0
 14 16  1  0
 16 17  2  0
  6 18  1  0
 18 19  2  0
 19 20  1  0
 20 21  2  3
 21 22  1  0
 22 23  2  0
 22 24  1  0
 19  3  1  0
 17 11  1  0
  1 25  1  0
  1 26  1  0
  1 27  1  0
  4 28  1  0
  5 29  1  0
 12 30  1  0
 13 31  1  0
 16 32  1  0
 17 33  1  0
 18 34  1  0
 20 35  1  0
 21 36  1  0
M  CHG  2  10  -1  24  -1
M  END
>  <UniqueID>  (19) 
19

>  <SMILES>  (19) 
COc1ccc(S(=O)(=O)[N-]c2ccc(Br)cc2)cc1C=CC(=O)[O-]

>  <Energy>  (19) 
46.121413707904125

>  <Genealogy>  (19) 
COc1ccc(S(=O)(=O)[N-]c2ccc(Br)cc2)cc1C=CC(=O)[O-] (protonated)
COc1ccc(S(=O)(=O)[N-]c2ccc(Br)cc2)cc1C=CC(=O)[O-] (3D coordinates assigned)
COc1ccc(S(=O)(=O)[N-]c2ccc(Br)cc2)cc1C=CC(=O)[O-] (optimized conformer: 46.121413707904125 kcal/mol)

>  <smiles>  (19) 
COc1ccc(S(=O)(=O)Nc2ccc(Br)cc2)cc1C=CC(=O)O

>  <score_type>  (19) 
oracle

>  <origin>  (19) 
adg

>  <m_score__min__energy>  (19) 
-12.48

>  <m_primary>  (19) 
energy

$$$$
19:0
     RDKit          3D

 55 57  0  0  0  0  0  0  0  0999 V2000
   63.3120   33.8860   46.3590 C   0  0  0  0  0  0  0  0  0  0  0  0
   63.7510   32.7210   47.2370 C   0  0  0  0  0  0  0  0  0  0  0  0
   63.2750   32.9350   48.6250 N   0  0  0  0  0  0  0  0  0  0  0  0
   64.3590   33.2690   49.5780 C   0  0  0  0  0  0  0  0  0  0  0  0
   65.0860   32.0100   50.0450 C   0  0  0  0  0  0  0  0  0  0  0  0
   62.1310   33.8750   48.7070 C   0  0  0  0  0  0  0  0  0  0  0  0
   61.0780   33.4810   49.7700 C   0  0  0  0  0  0  0  0  0  0  0  0
   60.4610   32.1060   49.4750 C   0  0  0  0  0  0  0  0  0  0  0  0
   60.8690   31.6180   48.1560 N   0  0  0  0  0  0  0  0  0  0  0  0
   59.8960   31.2660   47.1540 C   0  0  0  0  0  0  0  0  0  0  0  0
   59.5450   29.9200   46.9480 C   0  0  0  0  0  0  0  0  0  0  0  0
   60.0030   28.9170   47.8290 C   0  0  0  0  0  0  0  0  0  0  0  0
   59.6550   27.5840   47.6360 C   0  0  0  0  0  0  0  0  0  0  0  0
   58.8310   27.2280   46.5760 C   0  0  0  0  0  0  0  0  0  0  0  0
   58.3490   28.2030   45.7030 C   0  0  0  0  0  0  0  0  0  0  0  0
   58.6960   29.5730   45.8600 C   0  0  0  0  0  0  0  0  0  0  0  0
   58.2260   30.5550   45.0010 N   0  0  0  0  0  0  0  0  0  0  0  0
   57.5370   30.1760   43.7410 C   0  0  0  0  0  0  0  0  0  0  0  0
   56.0300   30.0260   43.9550 C   0  0  0  0  0  0  0  0  0  0  0  0
   58.4230   31.8950   45.3090 C   0  0  0  0  0  0  0  0  0  0  0  0
   57.7900   32.9370   44.5780 C   0  0  0  0  0  0  0  0  0  0  0  0
   58.0310   34.2800   44.8740 C   0  0  0  0  0  0  0  0  0  0  0  0
   58.8920   34.6250   45.9060 C   0  0  0  0  0  0  0  0  0  0  0  0
   59.5060   33.6310   46.6600 C   0  0  0  0  0  0  0  0  0  0  0  0
   59.2780   32.2650   46.3840 C   0  0  0  0  0  0  0  0  0  0  0  0
   62.9956   34.7257   46.9952 H   0  0  0  0  0  0  0  0  0  0  0  0
   64.1522   34.2034   45.7239 H   0  0  0  0  0  0  0  0  0  0  0  0
   62.4713   33.5700   45.7239 H   0  0  0  0  0  0  0  0  0  0  0  0
   63.3248   31.7861   46.8442 H   0  0  0  0  0  0  0  0  0  0  0  0
   64.8491   32.6559   47.2341 H   0  0  0  0  0  0  0  0  0  0  0  0
   65.0792   33.9374   49.0834 H   0  0  0  0  0  0  0  0  0  0  0  0
   63.9143   33.7619   50.4551 H   0  0  0  0  0  0  0  0  0  0  0  0
   65.1020   31.9824   51.1445 H   0  0  0  0  0  0  0  0  0  0  0  0
   64.5621   31.1212   49.6634 H   0  0  0  0  0  0  0  0  0  0  0  0
   66.1177   32.0195   49.6634 H   0  0  0  0  0  0  0  0  0  0  0  0
   62.5191   34.8737   48.9560 H   0  0  0  0  0  0  0  0  0  0  0  0
   61.6258   33.8530   47.7301 H   0  0  0  0  0  0  0  0  0  0  0  0
   61.5622   33.4502   50.7572 H   0  0  0  0  0  0  0  0  0  0  0  0
   60.2727   34.2300   49.7494 H   0  0  0  0  0  0  0  0  0  0  0  0
   60.7938   31.3908   50.2416 H   0  0  0  0  0  0  0  0  0  0  0  0
   59.3655   32.2042   49.4881 H   0  0  0  0  0  0  0  0  0  0  0  0
   61.8820   31.4090   47.9850 H   0  0  0  0  0  0  0  0  0  0  0  0
   60.6436   29.1930   48.6795 H   0  0  0  0  0  0  0  0  0  0  0  0
   60.0323   26.8120   48.3228 H   0  0  0  0  0  0  0  0  0  0  0  0
   58.5576   26.1733   46.4246 H   0  0  0  0  0  0  0  0  0  0  0  0
   57.6870   27.9062   44.8762 H   0  0  0  0  0  0  0  0  0  0  0  0
   57.7158   30.9560   42.9862 H   0  0  0  0  0  0  0  0  0  0  0  0
   57.9377   29.2087   43.4036 H   0  0  0  0  0  0  0  0  0  0  0  0
   55.8131   30.0044   45.0332 H   0  0  0  0  0  0  0  0  0  0  0  0
   55.5076   30.8766   43.4929 H   0  0  0  0  0  0  0  0  0  0  0  0
   55.6855   29.0891   43.4929 H   0  0  0  0  0  0  0  0  0  0  0  0
   57.0969   32.6802   43.7634 H   0  0  0  0  0  0  0  0  0  0  0  0
   57.5364   35.0677   44.2868 H   0  0  0  0  0  0  0  0  0  0  0  0
   59.0887   35.6843   46.1275 H   0  0  0  0  0  0  0  0  0  0  0  0
   60.1790   33.9128   47.4832 H   0  0  0  0  0  0  0  0  0  0  0  0
  1  2  1  0
  2  3  1  0
  3  4  1  0
  4  5  1  0
  3  6  1  0
  6  7  1  0
  7  8  1  0
  8  9  1  0
  9 10  1  0
 10 11  2  0
 11 12  1  0
 12 13  2  0
 13 14  1  0
 14 15  2  0
 15 16  1  0
 16 17  2  0
 17 18  1  0
 18 19  1  0
 17 20  1  0
 20 21  2  0
 21 22  1  0
 22 23  2  0
 23 24  1  0
 24 25  2  0
 25 10  1  0
 16 11  1  0
 25 20  1  0
  1 26  1  0
  1 27  1  0
  1 28  1  0
  2 29  1  0
  2 30  1  0
  4 31  1  0
  4 32  1  0
  5 33  1  0
  5 34  1  0
  5 35  1  0
  6 36  1  0
  6 37  1  0
  7 38  1  0
  7 39  1  0
  8 40  1  0
  8 41  1  0
  9 42  1  0
 12 43  1  0
 13 44  1  0
 14 45  1  0
 15 46  1  0
 18 47  1  0
 18 48  1  0
 19 49  1  0
 19 50  1  0
 19 51  1  0
 21 52  1  0
 22 53  1  0
 23 54  1  0
 24 55  1  0
M  CHG  1  17   1
M  END
>  <UniqueID>  (20) 
20

>  <SMILES>  (20) 
CCN(CC)CCCNc1c2ccccc2[n+](CC)c2ccccc12

>  <Energy>  (20) 
77.88884581219887

>  <Genealogy>  (20) 
CCN(CC)CCCNc1c2ccccc2[n+](CC)c2ccccc12 (3D coordinates assigned)
CCN(CC)CCCNc1c2ccccc2[n+](CC)c2ccccc12 (optimized conformer: 77.88884581219887 kcal/mol)

>  <smiles>  (20) 
CCN(CC)CCCNc1c2ccccc2[n+](CC)c2ccccc12

>  <score_type>  (20) 
oracle

>  <origin>  (20) 
adg

>  <m_score__min__energy>  (20) 
-5.5599999999999996

>  <m_primary>  (20) 
energy

$$$$
20:0
     RDKit          3D

 47 49  0  0  0  0  0  0  0  0999 V2000
   58.0450   26.8900   42.8830 C   0  0  0  0  0  0  0  0  0  0  0  0
   57.3960   28.2630   43.0070 C   0  0  0  0  0  0  0  0  0  0  0  0
   57.0500   28.5230   44.4100 N   0  0  0  0  0  0  0  0  0  0  0  0
   56.2480   29.7470   44.5540 C   0  0  0  0  0  0  0  0  0  0  0  0
   56.9930   30.9960   44.0350 C   0  0  0  0  0  0  0  0  0  0  0  0
   58.4650   30.8480   44.0390 N   0  0  0  0  0  0  0  0  0  0  0  0
   59.0540   31.1600   45.3360 C   0  0  0  0  0  0  0  0  0  0  0  0
   59.1170   32.4970   45.7870 C   0  0  0  0  0  0  0  0  0  0  0  0
   59.1870   33.5770   44.8820 C   0  0  0  0  0  0  0  0  0  0  0  0
   59.2660   34.8890   45.3430 C   0  0  0  0  0  0  0  0  0  0  0  0
   59.2880   35.1470   46.7100 C   0  0  0  0  0  0  0  0  0  0  0  0
   59.2100   34.0970   47.6220 C   0  0  0  0  0  0  0  0  0  0  0  0
   59.0970   32.7550   47.1810 C   0  0  0  0  0  0  0  0  0  0  0  0
   58.9500   31.7080   48.0680 N   0  0  0  0  0  0  0  0  0  0  0  0
   58.5300   31.9730   49.4610 C   0  0  0  0  0  0  0  0  0  0  0  0
   59.2160   30.4180   47.6510 C   0  0  0  0  0  0  0  0  0  0  0  0
   59.3640   29.3600   48.5800 C   0  0  0  0  0  0  0  0  0  0  0  0
   59.6640   28.0700   48.1590 C   0  0  0  0  0  0  0  0  0  0  0  0
   59.9220   27.8160   46.8200 C   0  0  0  0  0  0  0  0  0  0  0  0
   59.8500   28.8430   45.8710 C   0  0  0  0  0  0  0  0  0  0  0  0
   60.4600   28.5530   44.5200 C   0  0  0  0  0  0  0  0  0  0  0  0
   59.3710   30.1320   46.2630 C   0  0  0  0  0  0  0  0  0  0  0  0
   58.2372   26.4833   43.8868 H   0  0  0  0  0  0  0  0  0  0  0  0
   57.3711   26.2139   42.3363 H   0  0  0  0  0  0  0  0  0  0  0  0
   58.9951   26.9816   42.3363 H   0  0  0  0  0  0  0  0  0  0  0  0
   58.0989   29.0326   42.6553 H   0  0  0  0  0  0  0  0  0  0  0  0
   56.4818   28.2899   42.3958 H   0  0  0  0  0  0  0  0  0  0  0  0
   56.4670   27.7220   44.7490 H   0  0  0  0  0  0  0  0  0  0  0  0
   55.3149   29.6284   43.9837 H   0  0  0  0  0  0  0  0  0  0  0  0
   56.0460   29.8947   45.6252 H   0  0  0  0  0  0  0  0  0  0  0  0
   56.6655   31.1934   43.0036 H   0  0  0  0  0  0  0  0  0  0  0  0
   56.7489   31.8250   44.7156 H   0  0  0  0  0  0  0  0  0  0  0  0
   58.8830   31.4560   43.3000 H   0  0  0  0  0  0  0  0  0  0  0  0
   58.6440   29.8660   43.7500 H   0  0  0  0  0  0  0  0  0  0  0  0
   59.1791   33.3807   43.7997 H   0  0  0  0  0  0  0  0  0  0  0  0
   59.3110   35.7218   44.6257 H   0  0  0  0  0  0  0  0  0  0  0  0
   59.3672   36.1829   47.0715 H   0  0  0  0  0  0  0  0  0  0  0  0
   59.2365   34.3127   48.7003 H   0  0  0  0  0  0  0  0  0  0  0  0
   59.2520   31.5174   50.1546 H   0  0  0  0  0  0  0  0  0  0  0  0
   58.4920   33.0589   49.6322 H   0  0  0  0  0  0  0  0  0  0  0  0
   57.5335   31.5397   49.6322 H   0  0  0  0  0  0  0  0  0  0  0  0
   59.2393   29.5626   49.6540 H   0  0  0  0  0  0  0  0  0  0  0  0
   59.6969   27.2483   48.8895 H   0  0  0  0  0  0  0  0  0  0  0  0
   60.1859   26.7971   46.5003 H   0  0  0  0  0  0  0  0  0  0  0  0
   61.4458   28.0843   44.6558 H   0  0  0  0  0  0  0  0  0  0  0  0
   59.8036   27.8706   43.9602 H   0  0  0  0  0  0  0  0  0  0  0  0
   60.5748   29.4929   43.9602 H   0  0  0  0  0  0  0  0  0  0  0  0
  1  2  1  0
  2  3  1  0
  3  4  1  0
  4  5  1  0
  5  6  1  0
  6  7  1  0
  7  8  2  0
  8  9  1  0
  9 10  2  0
 10 11  1  0
 11 12  2  0
 12 13  1  0
 13 14  2  0
 14 15  1  0
 14 16  1  0
 16 17  2  0
 17 18  1  0
 18 19  2  0
 19 20  1  0
 20 21  1  0
 20 22  2  0
 22  7  1  0
 13  8  1  0
 22 16  1  0
  1 23  1  0
  1 24  1  0
  1 25  1  0
  2 26  1  0
  2 27  1  0
  3 28  1  0
  4 29  1  0
  4 30  1  0
  5 31  1  0
  5 32  1  0
  6 33  1  0
  6 34  1  0
  9 35  1  0
 10 36  1  0
 11 37  1  0
 12 38  1  0
 15 39  1  0
 15 40  1  0
 15 41  1  0
 17 42  1  0
 18 43  1  0
 19 44  1  0
 21 45  1  0
 21 46  1  0
 21 47  1  0
M  CHG  2   6   1  14   1
M  END
>  <UniqueID>  (21) 
21

>  <SMILES>  (21) 
CCNCC[NH2+]c1c2ccccc2[n+](C)c2cccc(C)c12

>  <Energy>  (21) 
84.63213457425216

>  <Genealogy>  (21) 
CCNCC[NH2+]c1c2ccccc2[n+](C)c2cccc(C)c12 (protonated)
CCNCC[NH2+]c1c2ccccc2[n+](C)c2cccc(C)c12 (3D coordinates assigned)
CCNCC[NH2+]c1c2ccccc2[n+](C)c2cccc(C)c12 (optimized conformer: 84.63213457425216 kcal/mol)

>  <smiles>  (21) 
CCNCCNc1c2ccccc2[n+](C)c2cccc(C)c12

>  <score_type>  (21) 
oracle

>  <origin>  (21) 
adg

>  <m_score__min__energy>  (21) 
-4.4199999999999999

>  <m_primary>  (21) 
energy

$$$$
21:0
     RDKit          3D

 46 48  0  0  0  0  0  0  0  0999 V2000
   60.0620   34.1980   49.3650 C   0  0  0  0  0  0  0  0  0  0  0  0
   61.5790   34.1180   49.5050 C   0  0  0  0  0  0  0  0  0  0  0  0
   62.1410   33.2430   48.4480 N   0  0  0  0  0  0  0  0  0  0  0  0
   63.3910   33.8360   47.9050 C   0  0  0  0  0  0  0  0  0  0  0  0
   63.3780   33.8420   46.3800 C   0  0  0  0  0  0  0  0  0  0  0  0
   62.4060   31.8750   48.9590 C   0  0  0  0  0  0  0  0  0  0  0  0
   61.4120   30.8280   48.4270 C   0  0  0  0  0  0  0  0  0  0  0  0
   61.2430   30.9270   46.9760 N   0  0  0  0  0  0  0  0  0  0  0  0
   59.9500   30.8070   46.3530 C   0  0  0  0  0  0  0  0  0  0  0  0
   59.4280   29.5340   46.0460 C   0  0  0  0  0  0  0  0  0  0  0  0
   60.1810   28.3620   46.2560 C   0  0  0  0  0  0  0  0  0  0  0  0
   59.6390   27.1070   45.9730 C   0  0  0  0  0  0  0  0  0  0  0  0
   58.3440   27.0010   45.4730 C   0  0  0  0  0  0  0  0  0  0  0  0
   57.5840   28.1490   45.2480 C   0  0  0  0  0  0  0  0  0  0  0  0
   58.1130   29.4280   45.5260 C   0  0  0  0  0  0  0  0  0  0  0  0
   57.3670   30.5530   45.3010 N   0  0  0  0  0  0  0  0  0  0  0  0
   56.0850   30.4270   44.8060 O   0  0  0  0  0  0  0  0  0  0  0  0
   57.8740   31.8030   45.5360 C   0  0  0  0  0  0  0  0  0  0  0  0
   57.1050   32.9520   45.2570 C   0  0  0  0  0  0  0  0  0  0  0  0
   57.6320   34.2270   45.4600 C   0  0  0  0  0  0  0  0  0  0  0  0
   58.9330   34.3790   45.9330 C   0  0  0  0  0  0  0  0  0  0  0  0
   59.7090   33.2560   46.2220 C   0  0  0  0  0  0  0  0  0  0  0  0
   59.1860   31.9560   46.0520 C   0  0  0  0  0  0  0  0  0  0  0  0
   59.6023   34.2222   50.3641 H   0  0  0  0  0  0  0  0  0  0  0  0
   59.7922   35.1116   48.8150 H   0  0  0  0  0  0  0  0  0  0  0  0
   59.6976   33.3178   48.8150 H   0  0  0  0  0  0  0  0  0  0  0  0
   62.0073   35.1266   49.4086 H   0  0  0  0  0  0  0  0  0  0  0  0
   61.8288   33.6989   50.4909 H   0  0  0  0  0  0  0  0  0  0  0  0
   63.4851   34.8702   48.2676 H   0  0  0  0  0  0  0  0  0  0  0  0
   64.2426   33.2283   48.2449 H   0  0  0  0  0  0  0  0  0  0  0  0
   62.4333   34.2780   46.0231 H   0  0  0  0  0  0  0  0  0  0  0  0
   64.2221   34.4416   46.0085 H   0  0  0  0  0  0  0  0  0  0  0  0
   63.4693   32.8107   46.0085 H   0  0  0  0  0  0  0  0  0  0  0  0
   63.4213   31.5790   48.6565 H   0  0  0  0  0  0  0  0  0  0  0  0
   62.2944   31.9065   50.0529 H   0  0  0  0  0  0  0  0  0  0  0  0
   61.7864   29.8237   48.6742 H   0  0  0  0  0  0  0  0  0  0  0  0
   60.4355   31.0129   48.8985 H   0  0  0  0  0  0  0  0  0  0  0  0
   62.0970   30.9540   46.3760 H   0  0  0  0  0  0  0  0  0  0  0  0
   61.2065   28.4365   46.6469 H   0  0  0  0  0  0  0  0  0  0  0  0
   60.2365   26.1997   46.1455 H   0  0  0  0  0  0  0  0  0  0  0  0
   57.9192   26.0100   45.2549 H   0  0  0  0  0  0  0  0  0  0  0  0
   56.5626   28.0567   44.8501 H   0  0  0  0  0  0  0  0  0  0  0  0
   56.0793   32.8412   44.8755 H   0  0  0  0  0  0  0  0  0  0  0  0
   57.0187   35.1147   45.2460 H   0  0  0  0  0  0  0  0  0  0  0  0
   59.3497   35.3865   46.0791 H   0  0  0  0  0  0  0  0  0  0  0  0
   60.7389   33.3851   46.5861 H   0  0  0  0  0  0  0  0  0  0  0  0
  1  2  1  0
  2  3  1  0
  3  4  1  0
  4  5  1  0
  3  6  1  0
  6  7  1  0
  7  8  1  0
  8  9  1  0
  9 10  2  0
 10 11  1  0
 11 12  2  0
 12 13  1  0
 13 14  2  0
 14 15  1  0
 15 16  2  0
 16 17  1  0
 16 18  1  0
 18 19  2  0
 19 20  1  0
 20 21  2  0
 21 22  1  0
 22 23  2  0
 23  9  1  0
 15 10  1  0
 23 18  1  0
  1 24  1  0
  1 25  1  0
  1 26  1  0
  2 27  1  0
  2 28  1  0
  4 29  1  0
  4 30  1  0
  5 31  1  0
  5 32  1  0
  5 33  1  0
  6 34  1  0
  6 35  1  0
  7 36  1  0
  7 37  1  0
  8 38  1  0
 11 39  1  0
 12 40  1  0
 13 41  1  0
 14 42  1  0
 19 43  1  0
 20 44  1  0
 21 45  1  0
 22 46  1  0
M  CHG  2  16   1  17  -1
M  END
>  <UniqueID>  (22) 
22

>  <SMILES>  (22) 
CCN(CC)CCNc1c2ccccc2[n+]([O-])c2ccccc12

>  <Energy>  (22) 
61.722432108604494

>  <Genealogy>  (22) 
CCN(CC)CCNc1c2ccccc2[n+]([O-])c2ccccc12 (3D coordinates assigned)
CCN(CC)CCNc1c2ccccc2[n+]([O-])c2ccccc12 (optimized conformer: 61.722432108604494 kcal/mol)

>  <smiles>  (22) 
CCN(CC)CCNc1c2ccccc2[n+]([O-])c2ccccc12

>  <score_type>  (22) 
oracle

>  <origin>  (22) 
adg

>  <m_score__min__energy>  (22) 
-7.1200000000000001

>  <m_primary>  (22) 
energy

$$$$
22:0
     RDKit          3D

 46 47  0  0  0  0  0  0  0  0999 V2000
   52.8790   30.4130   50.9590 C   0  0  0  0  0  0  0  0  0  0  0  0
   52.9570   29.8080   52.3590 C   0  0  0  0  0  0  0  0  0  0  0  0
   53.7980   28.5990   52.3620 N   0  0  0  0  0  0  0  0  0  0  0  0
   54.5820   28.4660   53.6040 C   0  0  0  0  0  0  0  0  0  0  0  0
   55.8160   29.3850   53.6220 C   0  0  0  0  0  0  0  0  0  0  0  0
   56.2220   29.7170   52.2490 N   0  0  0  0  0  0  0  0  0  0  0  0
   56.1650   31.1640   52.0040 C   0  0  0  0  0  0  0  0  0  0  0  0
   57.5370   31.6720   51.6620 C   0  0  0  0  0  0  0  0  0  0  0  0
   58.0480   32.8180   52.2890 C   0  0  0  0  0  0  0  0  0  0  0  0
   59.3390   33.2670   51.9980 C   0  0  0  0  0  0  0  0  0  0  0  0
   60.1460   32.5640   51.0830 C   0  0  0  0  0  0  0  0  0  0  0  0
   61.4510   32.9670   50.7590 O   0  0  0  0  0  0  0  0  0  0  0  0
   61.7890   34.1130   49.9760 C   0  0  0  0  0  0  0  0  0  0  0  0
   61.0210   34.1240   48.6720 C   0  0  0  0  0  0  0  0  0  0  0  0
   59.6780   34.5430   48.6770 C   0  0  0  0  0  0  0  0  0  0  0  0
   58.9400   34.5800   47.4920 C   0  0  0  0  0  0  0  0  0  0  0  0
   59.5360   34.2140   46.2840 C   0  0  0  0  0  0  0  0  0  0  0  0
   58.6070   34.2620   44.7980 Cl  0  0  0  0  0  0  0  0  0  0  0  0
   60.8750   33.8180   46.2590 C   0  0  0  0  0  0  0  0  0  0  0  0
   61.6260   33.7770   47.4410 C   0  0  0  0  0  0  0  0  0  0  0  0
   63.3160   33.2940   47.3260 Cl  0  0  0  0  0  0  0  0  0  0  0  0
   59.6370   31.4140   50.4680 C   0  0  0  0  0  0  0  0  0  0  0  0
   58.3460   30.9650   50.7590 C   0  0  0  0  0  0  0  0  0  0  0  0
   52.7387   31.5012   51.0371 H   0  0  0  0  0  0  0  0  0  0  0  0
   53.8118   30.2016   50.4157 H   0  0  0  0  0  0  0  0  0  0  0  0
   52.0303   29.9719   50.4157 H   0  0  0  0  0  0  0  0  0  0  0  0
   53.3886   30.5488   53.0481 H   0  0  0  0  0  0  0  0  0  0  0  0
   51.9419   29.5312   52.6797 H   0  0  0  0  0  0  0  0  0  0  0  0
   53.1780   27.7590   52.2850 H   0  0  0  0  0  0  0  0  0  0  0  0
   54.4380   28.6080   51.5340 H   0  0  0  0  0  0  0  0  0  0  0  0
   53.9376   28.7236   54.4574 H   0  0  0  0  0  0  0  0  0  0  0  0
   54.9377   27.4269   53.6656 H   0  0  0  0  0  0  0  0  0  0  0  0
   55.5713   30.3113   54.1625 H   0  0  0  0  0  0  0  0  0  0  0  0
   56.6440   28.8641   54.1250 H   0  0  0  0  0  0  0  0  0  0  0  0
   57.2180   29.4170   52.1250 H   0  0  0  0  0  0  0  0  0  0  0  0
   55.4805   31.3669   51.1672 H   0  0  0  0  0  0  0  0  0  0  0  0
   55.8020   31.6735   52.9087 H   0  0  0  0  0  0  0  0  0  0  0  0
   57.4288   33.3666   53.0141 H   0  0  0  0  0  0  0  0  0  0  0  0
   59.7264   34.1736   52.4859 H   0  0  0  0  0  0  0  0  0  0  0  0
   61.5450   35.0222   50.5450 H   0  0  0  0  0  0  0  0  0  0  0  0
   62.8648   34.0778   49.7491 H   0  0  0  0  0  0  0  0  0  0  0  0
   59.2048   34.8443   49.6232 H   0  0  0  0  0  0  0  0  0  0  0  0
   57.8872   34.8981   47.5106 H   0  0  0  0  0  0  0  0  0  0  0  0
   61.3434   33.5363   45.3044 H   0  0  0  0  0  0  0  0  0  0  0  0
   60.2584   30.8592   49.7497 H   0  0  0  0  0  0  0  0  0  0  0  0
   57.9621   30.0532   50.2781 H   0  0  0  0  0  0  0  0  0  0  0  0
  1  2  1  0
  2  3  1  0
  3  4  1  0
  4  5  1  0
  5  6  1  0
  6  7  1  0
  7  8  1  0
  8  9  2  0
  9 10  1  0
 10 11  2  0
 11 12  1  0
 12 13  1  0
 13 14  1  0
 14 15  2  0
 15 16  1  0
 16 17  2  0
 17 18  1  0
 17 19  1  0
 19 20  2  0
 20 21  1  0
 11 22  1  0
 22 23  2  0
 23  8  1  0
 20 14  1  0
  1 24  1  0
  1 25  1  0
  1 26  1  0
  2 27  1  0
  2 28  1  0
  3 29  1  0
  3 30  1  0
  4 31  1  0
  4 32  1  0
  5 33  1  0
  5 34  1  0
  6 35  1  0
  7 36  1  0
  7 37  1  0
  9 38  1  0
 10 39  1  0
 13 40  1  0
 13 41  1  0
 15 42  1  0
 16 43  1  0
 19 44  1  0
 22 45  1  0
 23 46  1  0
M  CHG  1   3   1
M  END
>  <UniqueID>  (23) 
23

>  <SMILES>  (23) 
CC[NH2+]CCNCc1ccc(OCc2ccc(Cl)cc2Cl)cc1

>  <Energy>  (23) 
42.49426113542808

>  <Genealogy>  (23) 
CC[NH2+]CCNCc1ccc(OCc2ccc(Cl)cc2Cl)cc1 (protonated)
CC[NH2+]CCNCc1ccc(OCc2ccc(Cl)cc2Cl)cc1 (3D coordinates assigned)
CC[NH2+]CCNCc1ccc(OCc2ccc(Cl)cc2Cl)cc1 (optimized conformer: 42.49426113542808 kcal/mol)

>  <smiles>  (23) 
CCNCCNCc1ccc(OCc2ccc(Cl)cc2Cl)cc1

>  <score_type>  (23) 
oracle

>  <origin>  (23) 
adg

>  <m_score__min__energy>  (23) 
-6.1699999999999999

>  <m_primary>  (23) 
energy

$$$$
23:0
     RDKit          3D

 62 63  0  0  0  0  0  0  0  0999 V2000
   60.6355   28.4106   48.4523 H   0  0  0  0  0  0  0  0  0  0  0  0
   60.0100   29.0510   47.8130 C   0  0  0  0  0  0  0  0  0  0  0  0
   59.7100   30.3700   48.2250 C   0  0  0  0  0  0  0  0  0  0  0  0
   60.2250   30.8980   49.4580 N   0  0  0  0  0  0  0  0  0  0  0  0
   59.9290   31.8560   49.7460 H   0  0  0  0  0  0  0  0  0  0  0  0
   61.0530   30.1330   50.3530 C   0  0  0  0  0  0  0  0  0  0  0  0
   60.7110   28.7700   50.6280 N   0  0  0  0  0  0  0  0  0  0  0  0
   61.2920   28.1860   51.2690 H   0  0  0  0  0  0  0  0  0  0  0  0
   59.8400   28.3530   50.2330 H   0  0  0  0  0  0  0  0  0  0  0  0
   62.0810   30.6710   50.9500 N   0  0  0  0  0  0  0  0  0  0  0  0
   61.9760   30.9990   51.9360 H   0  0  0  0  0  0  0  0  0  0  0  0
   63.4080   30.8230   50.3430 C   0  0  0  0  0  0  0  0  0  0  0  0
   63.5719   30.0065   49.6244 H   0  0  0  0  0  0  0  0  0  0  0  0
   64.1666   30.7894   51.1389 H   0  0  0  0  0  0  0  0  0  0  0  0
   63.5200   32.1670   49.6120 C   0  0  0  0  0  0  0  0  0  0  0  0
   64.5328   32.5693   49.7619 H   0  0  0  0  0  0  0  0  0  0  0  0
   62.7574   32.8430   50.0261 H   0  0  0  0  0  0  0  0  0  0  0  0
   63.2610   32.0270   48.1070 C   0  0  0  0  0  0  0  0  0  0  0  0
   62.1773   32.0665   47.9227 H   0  0  0  0  0  0  0  0  0  0  0  0
   63.6734   31.0656   47.7671 H   0  0  0  0  0  0  0  0  0  0  0  0
   63.9150   33.1080   47.3610 N   0  0  0  0  0  0  0  0  0  0  0  0
   64.5950   32.6710   46.6980 H   0  0  0  0  0  0  0  0  0  0  0  0
   62.9290   33.8520   46.5680 C   0  0  0  0  0  0  0  0  0  0  0  0
   63.2155   33.8120   45.5067 H   0  0  0  0  0  0  0  0  0  0  0  0
   62.9074   34.8940   46.9198 H   0  0  0  0  0  0  0  0  0  0  0  0
   61.5290   33.2480   46.7340 C   0  0  0  0  0  0  0  0  0  0  0  0
   61.6095   32.3257   47.3281 H   0  0  0  0  0  0  0  0  0  0  0  0
   61.1284   33.0446   45.7300 H   0  0  0  0  0  0  0  0  0  0  0  0
   60.5630   34.2070   47.4400 C   0  0  0  0  0  0  0  0  0  0  0  0
   59.6568   34.3269   46.8280 H   0  0  0  0  0  0  0  0  0  0  0  0
   61.0554   35.1816   47.5733 H   0  0  0  0  0  0  0  0  0  0  0  0
   60.1930   33.6700   48.7570 N   0  0  0  0  0  0  0  0  0  0  0  0
   59.1860   33.8830   48.9450 H   0  0  0  0  0  0  0  0  0  0  0  0
   61.0350   34.2000   49.8450 C   0  0  0  0  0  0  0  0  0  0  0  0
   60.8963   35.2899   49.8984 H   0  0  0  0  0  0  0  0  0  0  0  0
   62.0779   33.9335   49.6183 H   0  0  0  0  0  0  0  0  0  0  0  0
   60.6870   33.5920   51.2140 C   0  0  0  0  0  0  0  0  0  0  0  0
   61.1034   34.2342   52.0040 H   0  0  0  0  0  0  0  0  0  0  0  0
   61.1170   32.5804   51.2558 H   0  0  0  0  0  0  0  0  0  0  0  0
   59.1990   33.4740   51.4170 C   0  0  0  0  0  0  0  0  0  0  0  0
   58.5450   32.7540   50.6780 O   0  0  0  0  0  0  0  0  0  0  0  0
   58.5010   34.2110   52.5210 C   0  0  0  0  0  0  0  0  0  0  0  0
   58.8553   33.8369   53.4929 H   0  0  0  0  0  0  0  0  0  0  0  0
   58.7200   35.2859   52.4399 H   0  0  0  0  0  0  0  0  0  0  0  0
   57.4158   34.0507   52.4399 H   0  0  0  0  0  0  0  0  0  0  0  0
   58.9310   31.1950   47.3920 C   0  0  0  0  0  0  0  0  0  0  0  0
   58.7020   32.2304   47.6842 H   0  0  0  0  0  0  0  0  0  0  0  0
   58.4560   30.6750   46.1910 C   0  0  0  0  0  0  0  0  0  0  0  0
   57.4830   31.4310   45.0530 S   0  0  0  0  0  0  0  0  0  0  0  0
   57.3980   30.1010   44.0160 C   0  0  0  0  0  0  0  0  0  0  0  0
   56.6460   30.0960   42.7230 C   0  0  0  0  0  0  0  0  0  0  0  0
   55.5652   30.0888   42.9275 H   0  0  0  0  0  0  0  0  0  0  0  0
   56.9039   30.9959   42.1453 H   0  0  0  0  0  0  0  0  0  0  0  0
   56.9159   29.1996   42.1453 H   0  0  0  0  0  0  0  0  0  0  0  0
   58.1540   29.0450   44.5460 C   0  0  0  0  0  0  0  0  0  0  0  0
   58.2840   27.6950   43.9050 C   0  0  0  0  0  0  0  0  0  0  0  0
   58.3583   26.9239   44.6860 H   0  0  0  0  0  0  0  0  0  0  0  0
   57.4005   27.4995   43.2795 H   0  0  0  0  0  0  0  0  0  0  0  0
   59.1885   27.6717   43.2795 H   0  0  0  0  0  0  0  0  0  0  0  0
   58.7350   29.3780   45.7850 C   0  0  0  0  0  0  0  0  0  0  0  0
   59.5180   28.5490   46.5960 C   0  0  0  0  0  0  0  0  0  0  0  0
   59.7453   27.5186   46.2853 H   0  0  0  0  0  0  0  0  0  0  0  0
  1  2  1  0
  2  3  2  0
  3  4  1  0
  4  5  1  0
  4  6  1  0
  6  7  1  0
  7  8  1  0
  7  9  1  0
  6 10  2  0
 10 11  1  0
 10 12  1  0
 12 13  1  0
 12 14  1  0
 12 15  1  0
 15 16  1  0
 15 17  1  0
 15 18  1  0
 18 19  1  0
 18 20  1  0
 18 21  1  0
 21 22  1  0
 21 23  1  0
 23 24  1  0
 23 25  1  0
 23 26  1  0
 26 27  1  0
 26 28  1  0
 26 29  1  0
 29 30  1  0
 29 31  1  0
 29 32  1  0
 32 33  1  0
 32 34  1  0
 34 35  1  0
 34 36  1  0
 34 37  1  0
 37 38  1  0
 37 39  1  0
 37 40  1  0
 40 41  2  0
 40 42  1  0
 42 43  1  0
 42 44  1  0
 42 45  1  0
  3 46  1  0
 46 47  1  0
 46 48  2  0
 48 49  1  0
 49 50  1  0
 50 51  1  0
 51 52  1  0
 51 53  1  0
 51 54  1  0
 50 55  2  0
 55 56  1  0
 56 57  1  0
 56 58  1  0
 56 59  1  0
 55 60  1  0
 60 61  2  0
 61 62  1  0
 61  2  1  0
 60 48  1  0
M  CHG  1  10   1
M  END
>  <UniqueID>  (24) 
24

>  <SMILES>  (24) 
CC(=O)CCNCCCNCCC/[NH+]=C(/N)Nc1ccc2c(C)c(C)sc2c1

>  <Energy>  (24) 
80.65779094932057

>  <Genealogy>  (24) 
CC(=O)CCNCCCNCCC[NH+]=C(N)Nc1ccc2c(C)c(C)sc2c1 (protonated)
CC(=O)CCNCCCNCCC/[NH+]=C(/N)Nc1ccc2c(C)c(C)sc2c1 (cis-trans isomerization)
CC(=O)CCNCCCNCCC/[NH+]=C(/N)Nc1ccc2c(C)c(C)sc2c1 (3D coordinates assigned)
CC(=O)CCNCCCNCCC/[NH+]=C(/N)Nc1ccc2c(C)c(C)sc2c1 (optimized conformer: 80.65779094932057 kcal/mol)

>  <smiles>  (24) 
CC(=O)CCNCCCNCCCN=C(N)Nc1ccc2c(C)c(C)sc2c1

>  <score_type>  (24) 
oracle

>  <origin>  (24) 
adg

>  <m_score__min__energy>  (24) 
-5.75

>  <m_primary>  (24) 
energy

$$$$
24:0
     RDKit          3D

 47 49  0  0  0  0  0  0  0  0999 V2000
   56.6400   30.4730   42.6340 C   0  0  0  0  0  0  0  0  0  0  0  0
   57.5370   30.7560   43.8060 C   0  0  0  0  0  0  0  0  0  0  0  0
   57.8020   32.0620   44.1810 C   0  0  0  0  0  0  0  0  0  0  0  0
   58.5660   32.3580   45.3140 C   0  0  0  0  0  0  0  0  0  0  0  0
   58.5990   34.2610   45.6190 Br  0  0  0  0  0  0  0  0  0  0  0  0
   59.1330   31.2950   46.1120 C   0  0  0  0  0  0  0  0  0  0  0  0
   59.9460   31.4820   47.2860 C   0  0  0  0  0  0  0  0  0  0  0  0
   60.4880   32.7770   47.6620 N   0  0  0  0  0  0  0  0  0  0  0  0
   61.5630   33.2050   46.7390 C   0  0  0  0  0  0  0  0  0  0  0  0
   62.8220   33.6360   47.5070 C   0  0  0  0  0  0  0  0  0  0  0  0
   62.7880   33.1220   48.8930 N   0  0  0  0  0  0  0  0  0  0  0  0
   64.0120   32.3600   49.2010 C   0  0  0  0  0  0  0  0  0  0  0  0
   62.6380   34.2240   49.8560 C   0  0  0  0  0  0  0  0  0  0  0  0
   60.2600   30.3490   48.0950 C   0  0  0  0  0  0  0  0  0  0  0  0
   60.9170   30.4740   49.3480 C   0  0  0  0  0  0  0  0  0  0  0  0
   61.1660   29.3640   50.1500 C   0  0  0  0  0  0  0  0  0  0  0  0
   60.7690   28.1030   49.7340 C   0  0  0  0  0  0  0  0  0  0  0  0
   60.1540   27.9420   48.4970 C   0  0  0  0  0  0  0  0  0  0  0  0
   59.9260   29.0490   47.6390 C   0  0  0  0  0  0  0  0  0  0  0  0
   59.4030   28.8760   46.3820 N   0  0  0  0  0  0  0  0  0  0  0  0
   59.4430   27.5340   45.7540 C   0  0  0  0  0  0  0  0  0  0  0  0
   58.8680   29.9470   45.6970 C   0  0  0  0  0  0  0  0  0  0  0  0
   58.0320   29.7150   44.5780 C   0  0  0  0  0  0  0  0  0  0  0  0
   55.6498   30.1606   42.9972 H   0  0  0  0  0  0  0  0  0  0  0  0
   56.5366   31.3822   42.0235 H   0  0  0  0  0  0  0  0  0  0  0  0
   57.0770   29.6691   42.0235 H   0  0  0  0  0  0  0  0  0  0  0  0
   57.4019   32.8867   43.5730 H   0  0  0  0  0  0  0  0  0  0  0  0
   59.7200   33.4850   47.6680 H   0  0  0  0  0  0  0  0  0  0  0  0
   60.7890   32.7880   48.6550 H   0  0  0  0  0  0  0  0  0  0  0  0
   61.8187   32.3669   46.0741 H   0  0  0  0  0  0  0  0  0  0  0  0
   61.1992   34.0661   46.1591 H   0  0  0  0  0  0  0  0  0  0  0  0
   63.7111   33.2384   46.9957 H   0  0  0  0  0  0  0  0  0  0  0  0
   62.8599   34.7349   47.5373 H   0  0  0  0  0  0  0  0  0  0  0  0
   64.1325   32.2850   50.2918 H   0  0  0  0  0  0  0  0  0  0  0  0
   63.9337   31.3508   48.7705 H   0  0  0  0  0  0  0  0  0  0  0  0
   64.8830   32.8757   48.7705 H   0  0  0  0  0  0  0  0  0  0  0  0
   62.6922   33.8260   50.8800 H   0  0  0  0  0  0  0  0  0  0  0  0
   63.4448   34.9561   49.7040 H   0  0  0  0  0  0  0  0  0  0  0  0
   61.6649   34.7139   49.7040 H   0  0  0  0  0  0  0  0  0  0  0  0
   61.2358   31.4691   49.6919 H   0  0  0  0  0  0  0  0  0  0  0  0
   61.6786   29.4878   51.1154 H   0  0  0  0  0  0  0  0  0  0  0  0
   60.9401   27.2304   50.3815 H   0  0  0  0  0  0  0  0  0  0  0  0
   59.8384   26.9378   48.1778 H   0  0  0  0  0  0  0  0  0  0  0  0
   59.4660   26.7628   46.5381 H   0  0  0  0  0  0  0  0  0  0  0  0
   58.5486   27.3949   45.1289 H   0  0  0  0  0  0  0  0  0  0  0  0
   60.3441   27.4484   45.1289 H   0  0  0  0  0  0  0  0  0  0  0  0
   57.7677   28.6805   44.3134 H   0  0  0  0  0  0  0  0  0  0  0  0
  1  2  1  0
  2  3  2  0
  3  4  1  0
  4  5  1  0
  4  6  2  0
  6  7  1  0
  7  8  1  0
  8  9  1  0
  9 10  1  0
 10 11  1  0
 11 12  1  0
 11 13  1  0
  7 14  2  0
 14 15  1  0
 15 16  2  0
 16 17  1  0
 17 18  2  0
 18 19  1  0
 19 20  2  0
 20 21  1  0
 20 22  1  0
 22 23  2  0
 23  2  1  0
 22  6  1  0
 19 14  1  0
  1 24  1  0
  1 25  1  0
  1 26  1  0
  3 27  1  0
  8 28  1  0
  8 29  1  0
  9 30  1  0
  9 31  1  0
 10 32  1  0
 10 33  1  0
 12 34  1  0
 12 35  1  0
 12 36  1  0
 13 37  1  0
 13 38  1  0
 13 39  1  0
 15 40  1  0
 16 41  1  0
 17 42  1  0
 18 43  1  0
 21 44  1  0
 21 45  1  0
 21 46  1  0
 23 47  1  0
M  CHG  2   8   1  20   1
M  END
>  <UniqueID>  (25) 
25

>  <SMILES>  (25) 
Cc1cc(Br)c2c([NH2+]CCN(C)C)c3ccccc3[n+](C)c2c1

>  <Energy>  (25) 
89.68315426093773

>  <Genealogy>  (25) 
Cc1cc(Br)c2c([NH2+]CCN(C)C)c3ccccc3[n+](C)c2c1 (protonated)
Cc1cc(Br)c2c([NH2+]CCN(C)C)c3ccccc3[n+](C)c2c1 (3D coordinates assigned)
Cc1cc(Br)c2c([NH2+]CCN(C)C)c3ccccc3[n+](C)c2c1 (optimized conformer: 89.68315426093773 kcal/mol)

>  <smiles>  (25) 
Cc1cc(Br)c2c(NCCN(C)C)c3ccccc3[n+](C)c2c1

>  <score_type>  (25) 
oracle

>  <origin>  (25) 
adg

>  <m_score__min__energy>  (25) 
-4.1900000000000004

>  <m_primary>  (25) 
energy

$$$$
25:0
     RDKit          3D

 44 45  0  0  0  0  0  0  0  0999 V2000
   62.7740   33.8130   46.5690 C   0  0  0  0  0  0  0  0  0  0  0  0
   62.1890   33.4900   47.9400 C   0  0  0  0  0  0  0  0  0  0  0  0
   60.7840   34.0070   48.0610 C   0  0  0  0  0  0  0  0  0  0  0  0
   60.3960   34.4290   49.1830 O   0  0  0  0  0  0  0  0  0  0  0  0
   59.8760   33.9770   46.9410 N   0  0  0  0  0  0  0  0  0  0  0  0
   59.6400   35.1040   46.0320 C   0  0  0  0  0  0  0  0  0  0  0  0
   58.7720   34.5590   44.8750 C   0  0  0  0  0  0  0  0  0  0  0  0
   58.5330   33.1440   45.2630 C   0  0  0  0  0  0  0  0  0  0  0  0
   57.7590   32.1980   44.5900 C   0  0  0  0  0  0  0  0  0  0  0  0
   57.6310   30.9120   45.1430 C   0  0  0  0  0  0  0  0  0  0  0  0
   56.6630   29.6970   44.3060 S   0  0  0  0  0  0  0  0  0  0  0  0
   55.2610   29.7010   44.8470 O   0  0  0  0  0  0  0  0  0  0  0  0
   56.6130   30.0670   42.8500 O   0  0  0  0  0  0  0  0  0  0  0  0
   57.4030   28.1160   44.4870 N   0  0  0  0  0  0  0  0  0  0  0  0
   58.7540   27.9780   43.8790 C   0  0  0  0  0  0  0  0  0  0  0  0
   59.9420   28.2430   44.8190 C   0  0  0  0  0  0  0  0  0  0  0  0
   57.2740   27.5700   45.8620 C   0  0  0  0  0  0  0  0  0  0  0  0
   56.6500   26.1750   45.9580 C   0  0  0  0  0  0  0  0  0  0  0  0
   58.2630   30.6120   46.3680 C   0  0  0  0  0  0  0  0  0  0  0  0
   59.0360   31.5820   47.0270 C   0  0  0  0  0  0  0  0  0  0  0  0
   59.1700   32.8460   46.4370 C   0  0  0  0  0  0  0  0  0  0  0  0
   63.7307   34.3413   46.6938 H   0  0  0  0  0  0  0  0  0  0  0  0
   62.9407   32.8791   46.0122 H   0  0  0  0  0  0  0  0  0  0  0  0
   62.0725   34.4516   46.0122 H   0  0  0  0  0  0  0  0  0  0  0  0
   62.1843   32.3991   48.0812 H   0  0  0  0  0  0  0  0  0  0  0  0
   62.8085   33.9754   48.7086 H   0  0  0  0  0  0  0  0  0  0  0  0
   59.1094   35.9116   46.5575 H   0  0  0  0  0  0  0  0  0  0  0  0
   60.5875   35.5188   45.6577 H   0  0  0  0  0  0  0  0  0  0  0  0
   57.8242   35.1122   44.7992 H   0  0  0  0  0  0  0  0  0  0  0  0
   59.2539   34.6598   43.8913 H   0  0  0  0  0  0  0  0  0  0  0  0
   57.2584   32.4537   43.6445 H   0  0  0  0  0  0  0  0  0  0  0  0
   56.7870   27.4910   43.9140 H   0  0  0  0  0  0  0  0  0  0  0  0
   58.8487   26.9508   43.4970 H   0  0  0  0  0  0  0  0  0  0  0  0
   58.8112   28.7526   43.1000 H   0  0  0  0  0  0  0  0  0  0  0  0
   59.6066   28.1682   45.8639 H   0  0  0  0  0  0  0  0  0  0  0  0
   60.7301   27.4986   44.6327 H   0  0  0  0  0  0  0  0  0  0  0  0
   60.3390   29.2518   44.6327 H   0  0  0  0  0  0  0  0  0  0  0  0
   58.2800   27.5231   46.3045 H   0  0  0  0  0  0  0  0  0  0  0  0
   56.5886   28.2462   46.3940 H   0  0  0  0  0  0  0  0  0  0  0  0
   56.5271   25.9003   47.0160 H   0  0  0  0  0  0  0  0  0  0  0  0
   55.6674   26.1780   45.4635 H   0  0  0  0  0  0  0  0  0  0  0  0
   57.3072   25.4445   45.4635 H   0  0  0  0  0  0  0  0  0  0  0  0
   58.1496   29.6112   46.8103 H   0  0  0  0  0  0  0  0  0  0  0  0
   59.5256   31.3544   47.9854 H   0  0  0  0  0  0  0  0  0  0  0  0
  1  2  1  0
  2  3  1  0
  3  4  2  0
  3  5  1  0
  5  6  1  0
  6  7  1  0
  7  8  1  0
  8  9  2  0
  9 10  1  0
 10 11  1  0
 11 12  2  0
 11 13  2  0
 11 14  1  0
 14 15  1  0
 15 16  1  0
 14 17  1  0
 17 18  1  0
 10 19  2  0
 19 20  1  0
 20 21  2  0
 21  5  1  0
 21  8  1  0
  1 22  1  0
  1 23  1  0
  1 24  1  0
  2 25  1  0
  2 26  1  0
  6 27  1  0
  6 28  1  0
  7 29  1  0
  7 30  1  0
  9 31  1  0
 14 32  1  0
 15 33  1  0
 15 34  1  0
 16 35  1  0
 16 36  1  0
 16 37  1  0
 17 38  1  0
 17 39  1  0
 18 40  1  0
 18 41  1  0
 18 42  1  0
 19 43  1  0
 20 44  1  0
M  CHG  1  14   1
M  END
>  <UniqueID>  (26) 
26

>  <SMILES>  (26) 
CCC(=O)N1CCc2cc(S(=O)(=O)[NH+](CC)CC)ccc21

>  <Energy>  (26) 
61.90081374143395

>  <Genealogy>  (26) 
CCC(=O)N1CCc2cc(S(=O)(=O)[NH+](CC)CC)ccc21 (protonated)
CCC(=O)N1CCc2cc(S(=O)(=O)[NH+](CC)CC)ccc21 (3D coordinates assigned)
CCC(=O)N1CCc2cc(S(=O)(=O)[NH+](CC)CC)ccc21 (nonaromatic ring conformer: 61.90081374143395 kcal/mol)

>  <smiles>  (26) 
CCC(=O)N1CCc2cc(S(=O)(=O)N(CC)CC)ccc21

>  <score_type>  (26) 
oracle

>  <origin>  (26) 
adg

>  <m_score__min__energy>  (26) 
-6.6399999999999997

>  <m_primary>  (26) 
energy

$$$$
