0:0
     RDKit          3D

 24 23  0  0  0  0  0  0  0  0999 V2000
   55.1500   28.1660   44.9020 H   0  0  0  0  0  0  0  0  0  0  0  0
   55.8050   28.9050   45.1230 O   0  0  0  0  0  0  0  0  0  0  0  0
   57.0610   28.5950   45.5900 N   0  0  0  0  0  0  0  0  0  0  0  0
   57.3900   27.3670   45.8240 C   0  0  0  0  0  0  0  0  0  0  0  0
   58.4268   27.0487   45.6402 H   0  0  0  0  0  0  0  0  0  0  0  0
   56.4180   26.3790   46.3300 C   0  0  0  0  0  0  0  0  0  0  0  0
   56.8270   25.5170   47.1520 O   0  0  0  0  0  0  0  0  0  0  0  0
   55.0370   26.3390   45.9360 N   0  0  0  0  0  0  0  0  0  0  0  0
   54.2310   25.1640   45.6100 C   0  0  0  0  0  0  0  0  0  0  0  0
   53.6012   25.3941   44.7380 H   0  0  0  0  0  0  0  0  0  0  0  0
   53.6141   24.9166   46.4865 H   0  0  0  0  0  0  0  0  0  0  0  0
   55.1090   23.9480   45.2830 C   0  0  0  0  0  0  0  0  0  0  0  0
   54.6801   23.0673   45.7835 H   0  0  0  0  0  0  0  0  0  0  0  0
   56.1236   24.1844   45.6362 H   0  0  0  0  0  0  0  0  0  0  0  0
   55.2220   23.6420   43.7770 C   0  0  0  0  0  0  0  0  0  0  0  0
   54.8363   24.5067   43.2170 H   0  0  0  0  0  0  0  0  0  0  0  0
   54.6399   22.7276   43.5900 H   0  0  0  0  0  0  0  0  0  0  0  0
   56.6650   23.3620   43.3080 C   0  0  0  0  0  0  0  0  0  0  0  0
   57.3641   23.7790   44.0479 H   0  0  0  0  0  0  0  0  0  0  0  0
   56.7941   23.8318   42.3218 H   0  0  0  0  0  0  0  0  0  0  0  0
   56.9480   21.8680   43.1530 C   0  0  0  0  0  0  0  0  0  0  0  0
   57.0355   21.4063   44.1476 H   0  0  0  0  0  0  0  0  0  0  0  0
   56.1237   21.3941   42.5999 H   0  0  0  0  0  0  0  0  0  0  0  0
   57.8886   21.7284   42.5999 H   0  0  0  0  0  0  0  0  0  0  0  0
  1  2  1  0
  2  3  1  0
  3  4  2  0
  4  5  1  0
  4  6  1  0
  6  7  2  0
  6  8  1  0
  8  9  1  0
  9 10  1  0
  9 11  1  0
  9 12  1  0
 12 13  1  0
 12 14  1  0
 12 15  1  0
 15 16  1  0
 15 17  1  0
 15 18  1  0
 18 19  1  0
 18 20  1  0
 18 21  1  0
 21 22  1  0
 21 23  1  0
 21 24  1  0
M  CHG  1   8  -1
M  END
>  <UniqueID>  (1) 
1

>  <SMILES>  (1) 
CCCCC[N-]C(=O)/C=N/O

>  <Energy>  (1) 
13.604912934448109

>  <Genealogy>  (1) 
CCCCC[N-]C(=O)C=NO (protonated)
CCCCC[N-]C(=O)/C=N/O (cis-trans isomerization)
CCCCC[N-]C(=O)/C=N/O (3D coordinates assigned)
CCCCC[N-]C(=O)/C=N/O (optimized conformer: 13.604912934448109 kcal/mol)

>  <smiles>  (1) 
CCCCCNC(=O)C=NO

>  <score_type>  (1) 
oracle

>  <origin>  (1) 
adg

>  <m_score__min__energy>  (1) 
-7.4100000000000001

>  <m_primary>  (1) 
energy

$$$$
1:0
     RDKit          3D

 46 47  0  0  0  0  0  0  0  0999 V2000
   59.6900   33.8470   49.7300 C   0  0  0  0  0  0  0  0  0  0  0  0
   60.9090   34.2020   48.8800 C   0  0  0  0  0  0  0  0  0  0  0  0
   60.5260   34.5390   47.4870 N   0  0  0  0  0  0  0  0  0  0  0  0
   61.3100   33.8210   46.4540 C   0  0  0  0  0  0  0  0  0  0  0  0
   62.8170   33.7610   46.7360 C   0  0  0  0  0  0  0  0  0  0  0  0
   59.0650   34.4240   47.2730 C   0  0  0  0  0  0  0  0  0  0  0  0
   58.7080   33.0230   46.7740 C   0  0  0  0  0  0  0  0  0  0  0  0
   58.1480   33.0910   45.0360 S   0  0  0  0  0  0  0  0  0  0  0  0
   57.5350   31.4060   45.0270 C   0  0  0  0  0  0  0  0  0  0  0  0
   56.2610   31.0890   44.7310 N   0  0  0  0  0  0  0  0  0  0  0  0
   56.1570   29.7730   44.8410 N   0  0  0  0  0  0  0  0  0  0  0  0
   57.3670   29.3070   45.2110 C   0  0  0  0  0  0  0  0  0  0  0  0
   57.6350   27.8700   45.4320 C   0  0  0  0  0  0  0  0  0  0  0  0
   57.7780   26.9800   44.3550 C   0  0  0  0  0  0  0  0  0  0  0  0
   58.0630   25.6300   44.5850 C   0  0  0  0  0  0  0  0  0  0  0  0
   58.2250   25.1510   45.8990 C   0  0  0  0  0  0  0  0  0  0  0  0
   58.5140   23.8090   46.1820 O   0  0  0  0  0  0  0  0  0  0  0  0
   58.6520   22.7930   45.1940 C   0  0  0  0  0  0  0  0  0  0  0  0
   58.1020   26.0450   46.9680 C   0  0  0  0  0  0  0  0  0  0  0  0
   57.8170   27.3930   46.7390 C   0  0  0  0  0  0  0  0  0  0  0  0
   58.2640   30.3130   45.3190 N   0  0  0  0  0  0  0  0  0  0  0  0
   59.6870   30.2570   45.6500 C   0  0  0  0  0  0  0  0  0  0  0  0
   59.9514   33.9231   50.7958 H   0  0  0  0  0  0  0  0  0  0  0  0
   58.8694   34.5435   49.5031 H   0  0  0  0  0  0  0  0  0  0  0  0
   59.3716   32.8188   49.5031 H   0  0  0  0  0  0  0  0  0  0  0  0
   61.4174   35.0677   49.3295 H   0  0  0  0  0  0  0  0  0  0  0  0
   61.5741   33.3263   48.8509 H   0  0  0  0  0  0  0  0  0  0  0  0
   60.9304   32.7907   46.3872 H   0  0  0  0  0  0  0  0  0  0  0  0
   61.1863   34.3828   45.5164 H   0  0  0  0  0  0  0  0  0  0  0  0
   62.9867   33.7542   47.8228 H   0  0  0  0  0  0  0  0  0  0  0  0
   63.2366   32.8454   46.2937 H   0  0  0  0  0  0  0  0  0  0  0  0
   63.3081   34.6403   46.2937 H   0  0  0  0  0  0  0  0  0  0  0  0
   58.5435   34.6144   48.2226 H   0  0  0  0  0  0  0  0  0  0  0  0
   58.7558   35.1614   46.5176 H   0  0  0  0  0  0  0  0  0  0  0  0
   59.5949   32.3761   46.8442 H   0  0  0  0  0  0  0  0  0  0  0  0
   57.8956   32.6185   47.3956 H   0  0  0  0  0  0  0  0  0  0  0  0
   57.6652   27.3469   43.3241 H   0  0  0  0  0  0  0  0  0  0  0  0
   58.1611   24.9390   43.7348 H   0  0  0  0  0  0  0  0  0  0  0  0
   58.7844   21.8183   45.6864 H   0  0  0  0  0  0  0  0  0  0  0  0
   57.7491   22.7670   44.5662 H   0  0  0  0  0  0  0  0  0  0  0  0
   59.5291   23.0088   44.5662 H   0  0  0  0  0  0  0  0  0  0  0  0
   58.2310   25.6829   47.9986 H   0  0  0  0  0  0  0  0  0  0  0  0
   57.7346   28.0858   47.5895 H   0  0  0  0  0  0  0  0  0  0  0  0
   59.8093   30.2522   46.7432 H   0  0  0  0  0  0  0  0  0  0  0  0
   60.1259   29.3409   45.2279 H   0  0  0  0  0  0  0  0  0  0  0  0
   60.1965   31.1358   45.2279 H   0  0  0  0  0  0  0  0  0  0  0  0
  1  2  1  0
  2  3  1  0
  3  4  1  0
  4  5  1  0
  3  6  1  0
  6  7  1  0
  7  8  1  0
  8  9  1  0
  9 10  2  0
 10 11  1  0
 11 12  2  0
 12 13  1  0
 13 14  2  0
 14 15  1  0
 15 16  2  0
 16 17  1  0
 17 18  1  0
 16 19  1  0
 19 20  2  0
 12 21  1  0
 21 22  1  0
 21  9  1  0
 20 13  1  0
  1 23  1  0
  1 24  1  0
  1 25  1  0
  2 26  1  0
  2 27  1  0
  4 28  1  0
  4 29  1  0
  5 30  1  0
  5 31  1  0
  5 32  1  0
  6 33  1  0
  6 34  1  0
  7 35  1  0
  7 36  1  0
 14 37  1  0
 15 38  1  0
 18 39  1  0
 18 40  1  0
 18 41  1  0
 19 42  1  0
 20 43  1  0
 22 44  1  0
 22 45  1  0
 22 46  1  0
M  END
>  <UniqueID>  (2) 
2

>  <SMILES>  (2) 
CCN(CC)CCSc1nnc(-c2ccc(OC)cc2)n1C

>  <Energy>  (2) 
80.69158297227315

>  <Genealogy>  (2) 
CCN(CC)CCSc1nnc(-c2ccc(OC)cc2)n1C (3D coordinates assigned)
CCN(CC)CCSc1nnc(-c2ccc(OC)cc2)n1C (optimized conformer: 80.69158297227315 kcal/mol)

>  <smiles>  (2) 
CCN(CC)CCSc1nnc(-c2ccc(OC)cc2)n1C

>  <score_type>  (2) 
oracle

>  <origin>  (2) 
adg

>  <m_score__min__energy>  (2) 
-6.96

>  <m_primary>  (2) 
energy

$$$$
2:0
     RDKit          3D

 55 57  0  0  0  0  0  0  0  0999 V2000
   58.7310   27.1240   45.1270 H   0  0  0  0  0  0  0  0  0  0  0  0
   59.4850   26.4970   45.2850 O   0  0  0  0  0  0  0  0  0  0  0  0
   60.0570   26.8400   46.5210 C   0  0  1  0  0  0  0  0  0  0  0  0
   61.0185   26.3144   46.6173 H   0  0  0  0  0  0  0  0  0  0  0  0
   60.3160   28.3600   46.5790 C   0  0  0  0  0  0  0  0  0  0  0  0
   59.9866   28.7322   47.5603 H   0  0  0  0  0  0  0  0  0  0  0  0
   61.3933   28.5112   46.4158 H   0  0  0  0  0  0  0  0  0  0  0  0
   59.6290   29.0950   45.5620 O   0  0  0  0  0  0  0  0  0  0  0  0
   58.6630   30.0370   45.8470 N   0  0  0  0  0  0  0  0  0  0  0  0
   57.6730   29.8230   45.5970 H   0  0  0  0  0  0  0  0  0  0  0  0
   58.9470   31.1970   46.3620 C   0  0  0  0  0  0  0  0  0  0  0  0
   59.1130   31.5210   47.7750 C   0  0  0  0  0  0  0  0  0  0  0  0
   59.1790   30.7170   48.9190 C   0  0  0  0  0  0  0  0  0  0  0  0
   59.1149   29.6216   48.8419 H   0  0  0  0  0  0  0  0  0  0  0  0
   59.3290   31.3420   50.1670 C   0  0  0  0  0  0  0  0  0  0  0  0
   59.3734   30.7327   51.0817 H   0  0  0  0  0  0  0  0  0  0  0  0
   59.4230   32.7450   50.2550 C   0  0  0  0  0  0  0  0  0  0  0  0
   59.5361   33.2257   51.2379 H   0  0  0  0  0  0  0  0  0  0  0  0
   59.3730   33.5320   49.0940 C   0  0  0  0  0  0  0  0  0  0  0  0
   59.4870   34.8830   49.1720 F   0  0  0  0  0  0  0  0  0  0  0  0
   59.2110   32.8970   47.8610 C   0  0  0  0  0  0  0  0  0  0  0  0
   59.1940   33.5240   46.4970 C   0  0  1  0  0  0  0  0  0  0  0  0
   60.1175   34.1095   46.3777 H   0  0  0  0  0  0  0  0  0  0  0  0
   58.9860   32.4030   45.5920 N   0  0  0  0  0  0  0  0  0  0  0  0
   58.0450   32.7200   44.5300 C   0  0  0  0  0  0  0  0  0  0  0  0
   57.1838   32.0364   44.5622 H   0  0  0  0  0  0  0  0  0  0  0  0
   58.5006   32.6131   43.5345 H   0  0  0  0  0  0  0  0  0  0  0  0
   57.5980   34.1560   44.7990 C   0  0  0  0  0  0  0  0  0  0  0  0
   56.5062   34.2426   44.6963 H   0  0  0  0  0  0  0  0  0  0  0  0
   58.0484   34.8601   44.0839 H   0  0  0  0  0  0  0  0  0  0  0  0
   58.0240   34.4650   46.2370 C   0  0  0  0  0  0  0  0  0  0  0  0
   57.2005   34.2650   46.9383 H   0  0  0  0  0  0  0  0  0  0  0  0
   58.2973   35.5215   46.3752 H   0  0  0  0  0  0  0  0  0  0  0  0
   59.1640   26.3880   47.6930 C   0  0  0  0  0  0  0  0  0  0  0  0
   59.4604   26.9329   48.6014 H   0  0  0  0  0  0  0  0  0  0  0  0
   59.2927   25.3045   47.8328 H   0  0  0  0  0  0  0  0  0  0  0  0
   57.7490   26.6570   47.4130 N   0  0  0  0  0  0  0  0  0  0  0  0
   57.6970   27.3090   46.5950 H   0  0  0  0  0  0  0  0  0  0  0  0
   57.0590   25.4150   47.0400 C   0  0  0  0  0  0  0  0  0  0  0  0
   56.5236   25.0195   47.9157 H   0  0  0  0  0  0  0  0  0  0  0  0
   57.8016   24.6820   46.6919 H   0  0  0  0  0  0  0  0  0  0  0  0
   56.0590   25.6850   45.9160 C   0  0  0  0  0  0  0  0  0  0  0  0
   55.1942   25.0155   46.0337 H   0  0  0  0  0  0  0  0  0  0  0  0
   56.5544   25.5030   44.9509 H   0  0  0  0  0  0  0  0  0  0  0  0
   55.6010   27.0700   45.9540 N   0  0  0  0  0  0  0  0  0  0  0  0
   56.2500   28.1360   45.2560 C   0  0  0  0  0  0  0  0  0  0  0  0
   57.4030   27.9750   44.7720 O   0  0  0  0  0  0  0  0  0  0  0  0
   55.5820   29.3910   45.1180 N   0  0  0  0  0  0  0  0  0  0  0  0
   55.9970   30.3990   44.1520 C   0  0  0  0  0  0  0  0  0  0  0  0
   56.9064   30.9004   44.5148 H   0  0  0  0  0  0  0  0  0  0  0  0
   55.1917   31.1380   44.0284 H   0  0  0  0  0  0  0  0  0  0  0  0
   56.2840   29.7390   42.8130 C   0  0  0  0  0  0  0  0  0  0  0  0
   56.7175   28.7421   42.9810 H   0  0  0  0  0  0  0  0  0  0  0  0
   55.3474   29.6405   42.2445 H   0  0  0  0  0  0  0  0  0  0  0  0
   56.9947   30.3568   42.2445 H   0  0  0  0  0  0  0  0  0  0  0  0
  1  2  1  0
  2  3  1  0
  3  4  1  1
  3  5  1  0
  5  6  1  0
  5  7  1  0
  5  8  1  0
  8  9  1  0
  9 10  1  0
  9 11  2  0
 11 12  1  0
 12 13  2  0
 13 14  1  0
 13 15  1  0
 15 16  1  0
 15 17  2  0
 17 18  1  0
 17 19  1  0
 19 20  1  0
 19 21  2  0
 21 22  1  0
 22 23  1  6
 22 24  1  0
 24 25  1  0
 25 26  1  0
 25 27  1  0
 25 28  1  0
 28 29  1  0
 28 30  1  0
 28 31  1  0
 31 32  1  0
 31 33  1  0
  3 34  1  0
 34 35  1  0
 34 36  1  0
 34 37  1  0
 37 38  1  0
 37 39  1  0
 39 40  1  0
 39 41  1  0
 39 42  1  0
 42 43  1  0
 42 44  1  0
 42 45  1  0
 45 46  1  0
 46 47  2  0
 46 48  1  0
 48 49  1  0
 49 50  1  0
 49 51  1  0
 49 52  1  0
 52 53  1  0
 52 54  1  0
 52 55  1  0
 24 11  1  0
 21 12  1  0
 31 22  1  0
M  CHG  3   9   1  45  -1  48  -1
M  END
>  <UniqueID>  (3) 
3

>  <SMILES>  (3) 
CC[N-]C(=O)[N-]CCNC[C@@H](O)CO/[NH+]=C1\c2cccc(F)c2[C@@H]2CCCN12

>  <Energy>  (3) 
77.31872146792243

>  <Genealogy>  (3) 
CC[N-]C(=O)[N-]CCNCC(O)CO[NH+]=C1c2cccc(F)c2C2CCCN12 (protonated)
CC[N-]C(=O)[N-]CCNC[C@@H](O)CO[NH+]=C1c2cccc(F)c2[C@@H]2CCCN12 (chirality)
CC[N-]C(=O)[N-]CCNC[C@@H](O)CO/[NH+]=C1\c2cccc(F)c2[C@@H]2CCCN12 (cis-trans isomerization)
CC[N-]C(=O)[N-]CCNC[C@@H](O)CO/[NH+]=C1\c2cccc(F)c2[C@@H]2CCCN12 (3D coordinates assigned)
CC[N-]C(=O)[N-]CCNC[C@@H](O)CO/[NH+]=C1\c2cccc(F)c2[C@@H]2CCCN12 (nonaromatic ring conformer: 77.31872146792243 kcal/mol)

>  <smiles>  (3) 
CCNC(=O)NCCNCC(O)CON=C1c2cccc(F)c2C2CCCN12

>  <score_type>  (3) 
oracle

>  <origin>  (3) 
adg

>  <m_score__min__energy>  (3) 
-11.140000000000001

>  <m_primary>  (3) 
energy

$$$$
3:0
     RDKit          3D

 64 66  0  0  0  0  0  0  0  0999 V2000
   63.0140   34.4620   50.5090 C   0  0  0  0  0  0  0  0  0  0  0  0
   63.0300   34.2090   48.9970 C   0  0  0  0  0  0  0  0  0  0  0  0
   62.9890   32.7580   48.6700 N   0  0  0  0  0  0  0  0  0  0  0  0
   63.3540   32.5400   47.2420 C   0  0  0  0  0  0  0  0  0  0  0  0
   63.3380   33.8430   46.4360 C   0  0  0  0  0  0  0  0  0  0  0  0
   63.9150   32.0010   49.5580 C   0  0  0  0  0  0  0  0  0  0  0  0
   63.1780   30.9740   50.4300 C   0  0  0  0  0  0  0  0  0  0  0  0
   61.9810   30.5860   49.7870 O   0  0  0  0  0  0  0  0  0  0  0  0
   61.2460   29.6840   50.5940 C   0  0  0  0  0  0  0  0  0  0  0  0
   60.0720   29.0750   49.8180 C   0  0  0  0  0  0  0  0  0  0  0  0
   59.2380   30.1470   49.1080 C   0  0  0  0  0  0  0  0  0  0  0  0
   59.9840   30.7210   47.9880 N   0  0  0  0  0  0  0  0  0  0  0  0
   59.3120   31.2360   46.8270 C   0  0  0  0  0  0  0  0  0  0  0  0
   58.5880   30.3560   46.0060 C   0  0  0  0  0  0  0  0  0  0  0  0
   58.3750   29.0160   46.3930 C   0  0  0  0  0  0  0  0  0  0  0  0
   57.6260   28.1540   45.5950 C   0  0  0  0  0  0  0  0  0  0  0  0
   57.0670   28.6150   44.4080 C   0  0  0  0  0  0  0  0  0  0  0  0
   57.2780   29.9310   43.9990 C   0  0  0  0  0  0  0  0  0  0  0  0
   58.0700   30.8200   44.7710 C   0  0  0  0  0  0  0  0  0  0  0  0
   58.3420   32.1060   44.3490 N   0  0  0  0  0  0  0  0  0  0  0  0
   58.0960   32.4850   42.9400 C   0  0  0  0  0  0  0  0  0  0  0  0
   58.8550   33.0310   45.2390 C   0  0  0  0  0  0  0  0  0  0  0  0
   58.8690   34.4130   44.9310 C   0  0  0  0  0  0  0  0  0  0  0  0
   59.4070   35.3430   45.8110 C   0  0  0  0  0  0  0  0  0  0  0  0
   59.9100   34.9350   47.0370 C   0  0  0  0  0  0  0  0  0  0  0  0
   59.8730   33.5840   47.4150 C   0  0  0  0  0  0  0  0  0  0  0  0
   60.3050   33.1950   48.6940 O   0  0  0  0  0  0  0  0  0  0  0  0
   59.6370   33.4940   49.9150 C   0  0  0  0  0  0  0  0  0  0  0  0
   59.3630   32.6120   46.5040 C   0  0  0  0  0  0  0  0  0  0  0  0
   63.0747   33.5017   51.0421 H   0  0  0  0  0  0  0  0  0  0  0  0
   63.8743   35.0896   50.7849 H   0  0  0  0  0  0  0  0  0  0  0  0
   62.0815   34.9762   50.7849 H   0  0  0  0  0  0  0  0  0  0  0  0
   62.1540   34.6986   48.5465 H   0  0  0  0  0  0  0  0  0  0  0  0
   63.9683   34.6195   48.5956 H   0  0  0  0  0  0  0  0  0  0  0  0
   62.0120   32.4110   48.8200 H   0  0  0  0  0  0  0  0  0  0  0  0
   64.3644   32.1075   47.1965 H   0  0  0  0  0  0  0  0  0  0  0  0
   62.6083   31.8613   46.8023 H   0  0  0  0  0  0  0  0  0  0  0  0
   63.3275   34.7003   47.1251 H   0  0  0  0  0  0  0  0  0  0  0  0
   64.2356   33.8931   45.8021 H   0  0  0  0  0  0  0  0  0  0  0  0
   62.4394   33.8710   45.8021 H   0  0  0  0  0  0  0  0  0  0  0  0
   64.6501   31.4721   48.9337 H   0  0  0  0  0  0  0  0  0  0  0  0
   64.4029   32.7233   50.2290 H   0  0  0  0  0  0  0  0  0  0  0  0
   63.8179   30.0916   50.5780 H   0  0  0  0  0  0  0  0  0  0  0  0
   62.9422   31.4225   51.4064 H   0  0  0  0  0  0  0  0  0  0  0  0
   61.9133   28.8757   50.9277 H   0  0  0  0  0  0  0  0  0  0  0  0
   60.8442   30.2364   51.4562 H   0  0  0  0  0  0  0  0  0  0  0  0
   60.4672   28.3762   49.0660 H   0  0  0  0  0  0  0  0  0  0  0  0
   59.4203   28.5573   50.5372 H   0  0  0  0  0  0  0  0  0  0  0  0
   58.3108   29.6920   48.7296 H   0  0  0  0  0  0  0  0  0  0  0  0
   59.0036   30.9472   49.8255 H   0  0  0  0  0  0  0  0  0  0  0  0
   61.0260   30.7850   48.0410 H   0  0  0  0  0  0  0  0  0  0  0  0
   58.8054   28.6476   47.3359 H   0  0  0  0  0  0  0  0  0  0  0  0
   57.4768   27.1088   45.9038 H   0  0  0  0  0  0  0  0  0  0  0  0
   56.4568   27.9396   43.7903 H   0  0  0  0  0  0  0  0  0  0  0  0
   56.8231   30.2860   43.0625 H   0  0  0  0  0  0  0  0  0  0  0  0
   57.4974   33.4073   42.9075 H   0  0  0  0  0  0  0  0  0  0  0  0
   59.0572   32.6537   42.4325 H   0  0  0  0  0  0  0  0  0  0  0  0
   57.5505   31.6758   42.4325 H   0  0  0  0  0  0  0  0  0  0  0  0
   58.4454   34.7568   43.9758 H   0  0  0  0  0  0  0  0  0  0  0  0
   59.4342   36.4073   45.5343 H   0  0  0  0  0  0  0  0  0  0  0  0
   60.3432   35.6792   47.7215 H   0  0  0  0  0  0  0  0  0  0  0  0
   60.2769   33.2076   50.7627 H   0  0  0  0  0  0  0  0  0  0  0  0
   59.4259   34.5725   49.9629 H   0  0  0  0  0  0  0  0  0  0  0  0
   58.6921   32.9330   49.9629 H   0  0  0  0  0  0  0  0  0  0  0  0
  1  2  1  0
  2  3  1  0
  3  4  1  0
  4  5  1  0
  3  6  1  0
  6  7  1  0
  7  8  1  0
  8  9  1  0
  9 10  1  0
 10 11  1  0
 11 12  1  0
 12 13  1  0
 13 14  2  0
 14 15  1  0
 15 16  2  0
 16 17  1  0
 17 18  2  0
 18 19  1  0
 19 20  2  0
 20 21  1  0
 20 22  1  0
 22 23  2  0
 23 24  1  0
 24 25  2  0
 25 26  1  0
 26 27  1  0
 27 28  1  0
 26 29  2  0
 29 13  1  0
 19 14  1  0
 29 22  1  0
  1 30  1  0
  1 31  1  0
  1 32  1  0
  2 33  1  0
  2 34  1  0
  3 35  1  0
  4 36  1  0
  4 37  1  0
  5 38  1  0
  5 39  1  0
  5 40  1  0
  6 41  1  0
  6 42  1  0
  7 43  1  0
  7 44  1  0
  9 45  1  0
  9 46  1  0
 10 47  1  0
 10 48  1  0
 11 49  1  0
 11 50  1  0
 12 51  1  0
 15 52  1  0
 16 53  1  0
 17 54  1  0
 18 55  1  0
 21 56  1  0
 21 57  1  0
 21 58  1  0
 23 59  1  0
 24 60  1  0
 25 61  1  0
 28 62  1  0
 28 63  1  0
 28 64  1  0
M  CHG  2   3   1  20   1
M  END
>  <UniqueID>  (4) 
4

>  <SMILES>  (4) 
CC[NH+](CC)CCOCCCNc1c2ccccc2[n+](C)c2cccc(OC)c12

>  <Energy>  (4) 
92.72071108514011

>  <Genealogy>  (4) 
CC[NH+](CC)CCOCCCNc1c2ccccc2[n+](C)c2cccc(OC)c12 (protonated)
CC[NH+](CC)CCOCCCNc1c2ccccc2[n+](C)c2cccc(OC)c12 (3D coordinates assigned)
CC[NH+](CC)CCOCCCNc1c2ccccc2[n+](C)c2cccc(OC)c12 (optimized conformer: 92.72071108514011 kcal/mol)

>  <smiles>  (4) 
CCN(CC)CCOCCCNc1c2ccccc2[n+](C)c2cccc(OC)c12

>  <score_type>  (4) 
oracle

>  <origin>  (4) 
adg

>  <m_score__min__energy>  (4) 
-3.2999999999999998

>  <m_primary>  (4) 
energy

$$$$
4:0
     RDKit          3D

 37 38  0  0  0  0  0  0  0  0999 V2000
   60.4160   34.2490   46.0340 C   0  0  0  0  0  0  0  0  0  0  0  0
   59.3760   34.9170   46.9270 C   0  0  0  0  0  0  0  0  0  0  0  0
   58.6550   33.9090   47.7180 N   0  0  0  0  0  0  0  0  0  0  0  0
   57.4350   33.4600   47.0330 C   0  0  0  0  0  0  0  0  0  0  0  0
   57.7880   32.3960   46.0260 C   0  0  0  0  0  0  0  0  0  0  0  0
   57.5480   32.6190   44.6590 C   0  0  0  0  0  0  0  0  0  0  0  0
   57.9010   31.6540   43.7130 C   0  0  0  0  0  0  0  0  0  0  0  0
   57.5660   31.9640   41.8590 Br  0  0  0  0  0  0  0  0  0  0  0  0
   58.5020   30.4620   44.1240 C   0  0  0  0  0  0  0  0  0  0  0  0
   58.7570   30.2330   45.4780 C   0  0  0  0  0  0  0  0  0  0  0  0
   58.4100   31.2000   46.4420 C   0  0  0  0  0  0  0  0  0  0  0  0
   58.6660   31.0150   47.8120 O   0  0  0  0  0  0  0  0  0  0  0  0
   59.8700   30.4810   48.3630 C   0  0  0  0  0  0  0  0  0  0  0  0
   61.0010   31.4660   48.2270 C   0  0  0  0  0  0  0  0  0  0  0  0
   61.9880   31.2880   47.2440 C   0  0  0  0  0  0  0  0  0  0  0  0
   63.0400   32.2030   47.1290 C   0  0  0  0  0  0  0  0  0  0  0  0
   63.1170   33.2960   47.9980 C   0  0  0  0  0  0  0  0  0  0  0  0
   64.1380   34.1810   47.8820 F   0  0  0  0  0  0  0  0  0  0  0  0
   62.1440   33.4720   48.9870 C   0  0  0  0  0  0  0  0  0  0  0  0
   62.2190   34.5300   49.8330 F   0  0  0  0  0  0  0  0  0  0  0  0
   61.0920   32.5590   49.1060 C   0  0  0  0  0  0  0  0  0  0  0  0
   61.1771   33.7602   46.6599 H   0  0  0  0  0  0  0  0  0  0  0  0
   59.9252   33.4968   45.3989 H   0  0  0  0  0  0  0  0  0  0  0  0
   60.8960   35.0082   45.3989 H   0  0  0  0  0  0  0  0  0  0  0  0
   59.8801   35.6189   47.6076 H   0  0  0  0  0  0  0  0  0  0  0  0
   58.6555   35.4554   46.2938 H   0  0  0  0  0  0  0  0  0  0  0  0
   59.2810   33.0760   47.8240 H   0  0  0  0  0  0  0  0  0  0  0  0
   56.7307   33.0478   47.7706 H   0  0  0  0  0  0  0  0  0  0  0  0
   56.9684   34.3126   46.5178 H   0  0  0  0  0  0  0  0  0  0  0  0
   57.0794   33.5591   44.3324 H   0  0  0  0  0  0  0  0  0  0  0  0
   58.7755   29.7008   43.3785 H   0  0  0  0  0  0  0  0  0  0  0  0
   59.2315   29.2921   45.7935 H   0  0  0  0  0  0  0  0  0  0  0  0
   59.7116   30.2581   49.4285 H   0  0  0  0  0  0  0  0  0  0  0  0
   60.1326   29.5636   47.8158 H   0  0  0  0  0  0  0  0  0  0  0  0
   61.9338   30.4264   46.5623 H   0  0  0  0  0  0  0  0  0  0  0  0
   63.8078   32.0625   46.3539 H   0  0  0  0  0  0  0  0  0  0  0  0
   60.3329   32.6965   49.8902 H   0  0  0  0  0  0  0  0  0  0  0  0
  1  2  1  0
  2  3  1  0
  3  4  1  0
  4  5  1  0
  5  6  2  0
  6  7  1  0
  7  8  1  0
  7  9  2  0
  9 10  1  0
 10 11  2  0
 11 12  1  0
 12 13  1  0
 13 14  1  0
 14 15  2  0
 15 16  1  0
 16 17  2  0
 17 18  1  0
 17 19  1  0
 19 20  1  0
 19 21  2  0
 11  5  1  0
 21 14  1  0
  1 22  1  0
  1 23  1  0
  1 24  1  0
  2 25  1  0
  2 26  1  0
  3 27  1  0
  4 28  1  0
  4 29  1  0
  6 30  1  0
  9 31  1  0
 10 32  1  0
 13 33  1  0
 13 34  1  0
 15 35  1  0
 16 36  1  0
 21 37  1  0
M  END
>  <UniqueID>  (5) 
5

>  <SMILES>  (5) 
CCNCc1cc(Br)ccc1OCc1ccc(F)c(F)c1

>  <Energy>  (5) 
32.644075797841374

>  <Genealogy>  (5) 
CCNCc1cc(Br)ccc1OCc1ccc(F)c(F)c1 (3D coordinates assigned)
CCNCc1cc(Br)ccc1OCc1ccc(F)c(F)c1 (optimized conformer: 32.644075797841374 kcal/mol)

>  <smiles>  (5) 
CCNCc1cc(Br)ccc1OCc1ccc(F)c(F)c1

>  <score_type>  (5) 
oracle

>  <origin>  (5) 
adg

>  <m_score__min__energy>  (5) 
-6.7400000000000002

>  <m_primary>  (5) 
energy

$$$$
5:0
     RDKit          3D

 47 49  0  0  0  0  0  0  0  0999 V2000
   59.5280   31.8740   48.7110 C   0  0  0  0  0  0  0  0  0  0  0  0
   60.7550   31.7870   47.8090 C   0  0  0  0  0  0  0  0  0  0  0  0
   60.9390   33.0580   47.0710 N   0  0  0  0  0  0  0  0  0  0  0  0
   62.1030   33.8180   47.5780 C   0  0  0  0  0  0  0  0  0  0  0  0
   63.2120   33.8430   46.5280 C   0  0  0  0  0  0  0  0  0  0  0  0
   59.7040   33.8770   47.0950 C   0  0  0  0  0  0  0  0  0  0  0  0
   59.7450   34.9150   45.9780 C   0  0  0  0  0  0  0  0  0  0  0  0
   59.0440   34.4120   44.8450 O   0  0  0  0  0  0  0  0  0  0  0  0
   57.8000   33.7810   44.9330 C   0  0  0  0  0  0  0  0  0  0  0  0
   56.7680   34.4420   45.2340 O   0  0  0  0  0  0  0  0  0  0  0  0
   57.6960   32.3360   44.6760 C   0  0  0  0  0  0  0  0  0  0  0  0
   58.2840   31.4080   45.5650 C   0  0  0  0  0  0  0  0  0  0  0  0
   58.1400   30.0600   45.2590 C   0  0  0  0  0  0  0  0  0  0  0  0
   57.4580   29.6370   44.1420 C   0  0  0  0  0  0  0  0  0  0  0  0
   56.8850   30.5610   43.2750 C   0  0  0  0  0  0  0  0  0  0  0  0
   57.0190   31.8900   43.5680 N   0  0  0  0  0  0  0  0  0  0  0  0
   57.4430   28.2900   44.0420 N   0  0  0  0  0  0  0  0  0  0  0  0
   58.1320   27.8620   45.1240 C   0  0  0  0  0  0  0  0  0  0  0  0
   58.4080   26.5440   45.4790 C   0  0  0  0  0  0  0  0  0  0  0  0
   59.1500   26.3180   46.6530 C   0  0  0  0  0  0  0  0  0  0  0  0
   59.5920   27.4030   47.4540 C   0  0  0  0  0  0  0  0  0  0  0  0
   60.4160   27.1440   48.6800 C   0  0  0  0  0  0  0  0  0  0  0  0
   59.3110   28.7290   47.0610 C   0  0  0  0  0  0  0  0  0  0  0  0
   58.5740   28.9190   45.8940 C   0  0  0  0  0  0  0  0  0  0  0  0
   59.8448   31.8515   49.7642 H   0  0  0  0  0  0  0  0  0  0  0  0
   58.9907   32.8125   48.5097 H   0  0  0  0  0  0  0  0  0  0  0  0
   58.8637   31.0207   48.5097 H   0  0  0  0  0  0  0  0  0  0  0  0
   61.6455   31.5923   48.4248 H   0  0  0  0  0  0  0  0  0  0  0  0
   60.6119   30.9701   47.0864 H   0  0  0  0  0  0  0  0  0  0  0  0
   61.7935   34.8489   47.8047 H   0  0  0  0  0  0  0  0  0  0  0  0
   62.4812   33.3315   48.4892 H   0  0  0  0  0  0  0  0  0  0  0  0
   64.1910   33.8651   47.0291 H   0  0  0  0  0  0  0  0  0  0  0  0
   63.1421   32.9430   45.8993 H   0  0  0  0  0  0  0  0  0  0  0  0
   63.1016   34.7389   45.8993 H   0  0  0  0  0  0  0  0  0  0  0  0
   58.8306   33.2235   46.9532 H   0  0  0  0  0  0  0  0  0  0  0  0
   59.6309   34.3920   48.0642 H   0  0  0  0  0  0  0  0  0  0  0  0
   59.2687   35.8449   46.3223 H   0  0  0  0  0  0  0  0  0  0  0  0
   60.7901   35.1218   45.7040 H   0  0  0  0  0  0  0  0  0  0  0  0
   58.8317   31.7382   46.4600 H   0  0  0  0  0  0  0  0  0  0  0  0
   56.3391   30.2320   42.3784 H   0  0  0  0  0  0  0  0  0  0  0  0
   57.0010   27.7100   43.2960 H   0  0  0  0  0  0  0  0  0  0  0  0
   58.0566   25.7050   44.8604 H   0  0  0  0  0  0  0  0  0  0  0  0
   59.3905   25.2876   46.9537 H   0  0  0  0  0  0  0  0  0  0  0  0
   59.8087   27.3349   49.5770 H   0  0  0  0  0  0  0  0  0  0  0  0
   60.7525   26.0967   48.6811 H   0  0  0  0  0  0  0  0  0  0  0  0
   61.2912   27.8104   48.6811 H   0  0  0  0  0  0  0  0  0  0  0  0
   59.6623   29.5845   47.6565 H   0  0  0  0  0  0  0  0  0  0  0  0
  1  2  1  0
  2  3  1  0
  3  4  1  0
  4  5  1  0
  3  6  1  0
  6  7  1  0
  7  8  1  0
  8  9  1  0
  9 10  2  0
  9 11  1  0
 11 12  2  0
 12 13  1  0
 13 14  2  0
 14 15  1  0
 15 16  2  0
 14 17  1  0
 17 18  1  0
 18 19  2  0
 19 20  1  0
 20 21  2  0
 21 22  1  0
 21 23  1  0
 23 24  2  0
 16 11  1  0
 24 18  1  0
 24 13  1  0
  1 25  1  0
  1 26  1  0
  1 27  1  0
  2 28  1  0
  2 29  1  0
  4 30  1  0
  4 31  1  0
  5 32  1  0
  5 33  1  0
  5 34  1  0
  6 35  1  0
  6 36  1  0
  7 37  1  0
  7 38  1  0
 12 39  1  0
 15 40  1  0
 17 41  1  0
 19 42  1  0
 20 43  1  0
 22 44  1  0
 22 45  1  0
 22 46  1  0
 23 47  1  0
M  END
>  <UniqueID>  (6) 
6

>  <SMILES>  (6) 
CCN(CC)CCOC(=O)c1cc2c(cn1)[nH]c1ccc(C)cc12

>  <Energy>  (6) 
82.84142529516643

>  <Genealogy>  (6) 
CCN(CC)CCOC(=O)c1cc2c(cn1)[nH]c1ccc(C)cc12 (3D coordinates assigned)
CCN(CC)CCOC(=O)c1cc2c(cn1)[nH]c1ccc(C)cc12 (optimized conformer: 82.84142529516643 kcal/mol)

>  <smiles>  (6) 
CCN(CC)CCOC(=O)c1cc2c(cn1)[nH]c1ccc(C)cc12

>  <score_type>  (6) 
oracle

>  <origin>  (6) 
adg

>  <m_score__min__energy>  (6) 
-7.0499999999999998

>  <m_primary>  (6) 
energy

$$$$
6:0
     RDKit          3D

 40 42  0  0  0  0  0  0  0  0999 V2000
   57.8540   28.2350   43.9770 C   0  0  0  0  0  0  0  0  0  0  0  0
   57.0610   28.4800   45.2570 C   0  0  0  0  0  0  0  0  0  0  0  0
   56.0390   29.4340   45.0290 O   0  0  0  0  0  0  0  0  0  0  0  0
   56.4660   30.4340   44.1260 C   0  0  0  0  0  0  0  0  0  0  0  0
   57.2400   31.4910   44.8500 C   0  0  0  0  0  0  0  0  0  0  0  0
   57.6090   32.7250   44.3260 C   0  0  0  0  0  0  0  0  0  0  0  0
   58.3030   33.3310   45.3480 C   0  0  0  0  0  0  0  0  0  0  0  0
   58.9020   34.5840   45.4180 C   0  0  0  0  0  0  0  0  0  0  0  0
   59.5380   34.9400   46.6200 C   0  0  0  0  0  0  0  0  0  0  0  0
   59.5600   34.0440   47.7110 C   0  0  0  0  0  0  0  0  0  0  0  0
   58.9480   32.7720   47.6140 C   0  0  0  0  0  0  0  0  0  0  0  0
   58.9740   31.8440   48.7160 N   0  0  0  0  0  0  0  0  0  0  0  0
   59.3090   30.4360   48.4600 C   0  0  0  0  0  0  0  0  0  0  0  0
   59.4180   29.6530   49.7720 C   0  0  0  0  0  0  0  0  0  0  0  0
   58.2730   29.9660   50.6360 N   0  0  0  0  0  0  0  0  0  0  0  0
   58.2300   31.3860   51.0500 C   0  0  0  0  0  0  0  0  0  0  0  0
   58.9690   32.3490   50.0950 C   0  0  0  0  0  0  0  0  0  0  0  0
   58.3210   32.4550   46.4020 C   0  0  0  0  0  0  0  0  0  0  0  0
   57.6760   31.3580   46.0900 O   0  0  0  0  0  0  0  0  0  0  0  0
   58.8760   27.9193   44.2336 H   0  0  0  0  0  0  0  0  0  0  0  0
   57.3638   27.4464   43.3872 H   0  0  0  0  0  0  0  0  0  0  0  0
   57.8940   29.1627   43.3872 H   0  0  0  0  0  0  0  0  0  0  0  0
   56.6070   27.5346   45.5888 H   0  0  0  0  0  0  0  0  0  0  0  0
   57.7418   28.8641   46.0309 H   0  0  0  0  0  0  0  0  0  0  0  0
   57.1062   29.9785   43.3562 H   0  0  0  0  0  0  0  0  0  0  0  0
   55.5833   30.8941   43.6578 H   0  0  0  0  0  0  0  0  0  0  0  0
   57.3951   33.1251   43.3239 H   0  0  0  0  0  0  0  0  0  0  0  0
   58.8789   35.2736   44.5613 H   0  0  0  0  0  0  0  0  0  0  0  0
   60.0220   35.9236   46.7113 H   0  0  0  0  0  0  0  0  0  0  0  0
   60.0583   34.3380   48.6465 H   0  0  0  0  0  0  0  0  0  0  0  0
   58.5223   29.9862   47.8364 H   0  0  0  0  0  0  0  0  0  0  0  0
   60.2794   30.3938   47.9438 H   0  0  0  0  0  0  0  0  0  0  0  0
   59.4267   28.5749   49.5539 H   0  0  0  0  0  0  0  0  0  0  0  0
   60.3484   29.9352   50.2865 H   0  0  0  0  0  0  0  0  0  0  0  0
   58.3230   29.3630   51.4890 H   0  0  0  0  0  0  0  0  0  0  0  0
   57.3880   29.7230   50.1310 H   0  0  0  0  0  0  0  0  0  0  0  0
   57.1763   31.6970   51.1054 H   0  0  0  0  0  0  0  0  0  0  0  0
   58.7453   31.4471   52.0199 H   0  0  0  0  0  0  0  0  0  0  0  0
   58.4665   33.3273   50.1152 H   0  0  0  0  0  0  0  0  0  0  0  0
   60.0120   32.4363   50.4334 H   0  0  0  0  0  0  0  0  0  0  0  0
  1  2  1  0
  2  3  1  0
  3  4  1  0
  4  5  1  0
  5  6  2  0
  6  7  1  0
  7  8  2  0
  8  9  1  0
  9 10  2  0
 10 11  1  0
 11 12  1  0
 12 13  1  0
 13 14  1  0
 14 15  1  0
 15 16  1  0
 16 17  1  0
 11 18  2  0
 18 19  1  0
 19  5  1  0
 18  7  1  0
 17 12  1  0
  1 20  1  0
  1 21  1  0
  1 22  1  0
  2 23  1  0
  2 24  1  0
  4 25  1  0
  4 26  1  0
  6 27  1  0
  8 28  1  0
  9 29  1  0
 10 30  1  0
 13 31  1  0
 13 32  1  0
 14 33  1  0
 14 34  1  0
 15 35  1  0
 15 36  1  0
 16 37  1  0
 16 38  1  0
 17 39  1  0
 17 40  1  0
M  CHG  1  15   1
M  END
>  <UniqueID>  (7) 
7

>  <SMILES>  (7) 
CCOCc1cc2cccc(N3CC[NH2+]CC3)c2o1

>  <Energy>  (7) 
81.40918996571385

>  <Genealogy>  (7) 
CCOCc1cc2cccc(N3CC[NH2+]CC3)c2o1 (protonated)
CCOCc1cc2cccc(N3CC[NH2+]CC3)c2o1 (3D coordinates assigned)
CCOCc1cc2cccc(N3CC[NH2+]CC3)c2o1 (nonaromatic ring conformer: 81.40918996571385 kcal/mol)

>  <smiles>  (7) 
CCOCc1cc2cccc(N3CCNCC3)c2o1

>  <score_type>  (7) 
oracle

>  <origin>  (7) 
adg

>  <m_score__min__energy>  (7) 
-5.3600000000000003

>  <m_primary>  (7) 
energy

$$$$
7:0
     RDKit          3D

 28 29  0  0  0  0  0  0  0  0999 V2000
   57.6720   28.3110   46.2950 C   0  0  0  0  0  0  0  0  0  0  0  0
   57.9920   29.6290   46.1340 N   0  0  0  0  0  0  0  0  0  0  0  0
   58.3090   30.9410   45.9740 C   0  0  0  0  0  0  0  0  0  0  0  0
   59.2800   31.7430   46.4750 C   0  0  0  0  0  0  0  0  0  0  0  0
   59.4420   33.0810   46.1970 C   0  0  0  0  0  0  0  0  0  0  0  0
   58.5390   33.6480   45.3360 C   0  0  0  0  0  0  0  0  0  0  0  0
   58.8930   34.9610   45.2130 C   0  0  0  0  0  0  0  0  0  0  0  0
   60.0010   35.1290   46.0100 C   0  0  0  0  0  0  0  0  0  0  0  0
   60.3470   33.9850   46.6170 N   0  0  0  0  0  0  0  0  0  0  0  0
   61.4700   33.8100   47.5270 C   0  0  0  0  0  0  0  0  0  0  0  0
   57.5260   32.9330   44.7760 C   0  0  0  0  0  0  0  0  0  0  0  0
   57.4020   31.6150   45.0760 C   0  0  0  0  0  0  0  0  0  0  0  0
   56.3660   30.9010   44.4990 O   0  0  0  0  0  0  0  0  0  0  0  0
   56.5810   30.2310   43.2900 C   0  0  0  0  0  0  0  0  0  0  0  0
   57.6149   28.0760   47.3681 H   0  0  0  0  0  0  0  0  0  0  0  0
   56.6989   28.1097   45.8233 H   0  0  0  0  0  0  0  0  0  0  0  0
   58.4445   27.6859   45.8233 H   0  0  0  0  0  0  0  0  0  0  0  0
   56.6810   29.9390   46.2860 H   0  0  0  0  0  0  0  0  0  0  0  0
   60.0028   31.2835   47.1652 H   0  0  0  0  0  0  0  0  0  0  0  0
   58.3941   35.7274   44.6016 H   0  0  0  0  0  0  0  0  0  0  0  0
   60.5360   36.0821   46.1338 H   0  0  0  0  0  0  0  0  0  0  0  0
   61.1123   33.8657   48.5657 H   0  0  0  0  0  0  0  0  0  0  0  0
   61.9348   32.8286   47.3514 H   0  0  0  0  0  0  0  0  0  0  0  0
   62.2113   34.6035   47.3514 H   0  0  0  0  0  0  0  0  0  0  0  0
   56.8164   33.4169   44.0888 H   0  0  0  0  0  0  0  0  0  0  0  0
   56.9112   29.2019   43.4948 H   0  0  0  0  0  0  0  0  0  0  0  0
   55.6452   30.2077   42.7123 H   0  0  0  0  0  0  0  0  0  0  0  0
   57.3556   30.7565   42.7123 H   0  0  0  0  0  0  0  0  0  0  0  0
  1  2  1  0
  2  3  1  0
  3  4  2  0
  4  5  1  0
  5  6  2  0
  6  7  1  0
  7  8  2  0
  8  9  1  0
  9 10  1  0
  6 11  1  0
 11 12  2  0
 12 13  1  0
 13 14  1  0
 12  3  1  0
  9  5  1  0
  1 15  1  0
  1 16  1  0
  1 17  1  0
  2 18  1  0
  4 19  1  0
  7 20  1  0
  8 21  1  0
 10 22  1  0
 10 23  1  0
 10 24  1  0
 11 25  1  0
 14 26  1  0
 14 27  1  0
 14 28  1  0
M  END
>  <UniqueID>  (8) 
8

>  <SMILES>  (8) 
CNc1cc2c(ccn2C)cc1OC

>  <Energy>  (8) 
223.45205010311167

>  <Genealogy>  (8) 
CNc1cc2c(ccn2C)cc1OC (3D coordinates assigned)
CNc1cc2c(ccn2C)cc1OC (optimized conformer: 223.45205010311167 kcal/mol)

>  <smiles>  (8) 
CNc1cc2c(ccn2C)cc1OC

>  <score_type>  (8) 
oracle

>  <origin>  (8) 
adg

>  <m_score__min__energy>  (8) 
-5

>  <m_primary>  (8) 
energy

$$$$
8:0
     RDKit          3D

 77 80  0  0  0  0  0  0  0  0999 V2000
   62.9930   34.1900   49.9650 C   0  0  0  0  0  0  0  0  0  0  0  0
   64.1680   33.4490   49.3200 C   0  0  0  0  0  0  0  0  0  0  0  0
   63.7400   32.5780   48.1970 N   0  0  2  0  0  0  0  0  0  0  0  0
   63.3460   33.3580   47.0060 C   0  0  0  0  0  0  0  0  0  0  0  0
   62.6890   31.6080   48.6070 C   0  0  0  0  0  0  0  0  0  0  0  0
   62.0000   30.8420   47.4530 C   0  0  0  0  0  0  0  0  0  0  0  0
   60.5530   30.7300   47.6450 N   0  0  0  0  0  0  0  0  0  0  0  0
   59.6630   30.8560   46.5250 C   0  0  0  0  0  0  0  0  0  0  0  0
   59.3380   32.1240   46.0130 C   0  0  0  0  0  0  0  0  0  0  0  0
   59.8990   33.2940   46.5650 C   0  0  0  0  0  0  0  0  0  0  0  0
   59.6200   34.5440   46.0180 C   0  0  0  0  0  0  0  0  0  0  0  0
   58.7820   34.6500   44.9150 C   0  0  0  0  0  0  0  0  0  0  0  0
   58.1930   33.5100   44.3700 C   0  0  0  0  0  0  0  0  0  0  0  0
   58.4250   32.2260   44.9290 C   0  0  0  0  0  0  0  0  0  0  0  0
   57.7970   31.0950   44.4420 N   0  0  0  0  0  0  0  0  0  0  0  0
   56.6320   31.2310   43.5380 C   0  0  0  0  0  0  0  0  0  0  0  0
   58.2300   29.8400   44.8310 C   0  0  0  0  0  0  0  0  0  0  0  0
   57.8010   28.6640   44.1660 C   0  0  0  0  0  0  0  0  0  0  0  0
   58.1960   27.3890   44.6030 C   0  0  0  0  0  0  0  0  0  0  0  0
   57.7620   26.2130   43.9690 O   0  0  0  0  0  0  0  0  0  0  0  0
   57.7660   26.0020   42.5600 C   0  0  0  0  0  0  0  0  0  0  0  0
   59.0520   27.2660   45.6980 C   0  0  0  0  0  0  0  0  0  0  0  0
   59.4170   25.9750   46.1140 O   0  0  0  0  0  0  0  0  0  0  0  0
   58.5220   25.0180   46.6800 C   0  0  0  0  0  0  0  0  0  0  0  0
   58.2640   23.9090   45.6410 C   0  0  0  0  0  0  0  0  0  0  0  0
   56.9550   23.1800   45.7640 N   0  0  0  0  0  0  0  0  0  0  0  0
   56.5670   23.1160   47.1970 C   0  0  0  0  0  0  0  0  0  0  0  0
   55.8920   23.9630   45.0280 C   0  0  0  0  0  0  0  0  0  0  0  0
   55.5040   23.3980   43.6410 C   0  0  0  0  0  0  0  0  0  0  0  0
   56.7000   22.7960   42.9100 C   0  0  0  0  0  0  0  0  0  0  0  0
   57.3960   21.7090   43.7470 C   0  0  0  0  0  0  0  0  0  0  0  0
   57.0290   21.7820   45.2440 C   0  0  0  0  0  0  0  0  0  0  0  0
   59.5290   28.4200   46.3400 C   0  0  0  0  0  0  0  0  0  0  0  0
   59.1400   29.7050   45.9080 C   0  0  0  0  0  0  0  0  0  0  0  0
   63.0811   34.1344   51.0601 H   0  0  0  0  0  0  0  0  0  0  0  0
   63.0061   35.2436   49.6491 H   0  0  0  0  0  0  0  0  0  0  0  0
   62.0479   33.7242   49.6491 H   0  0  0  0  0  0  0  0  0  0  0  0
   64.8862   34.1898   48.9386 H   0  0  0  0  0  0  0  0  0  0  0  0
   64.6217   32.8062   50.0888 H   0  0  0  0  0  0  0  0  0  0  0  0
   64.5660   31.9940   47.9190 H   0  0  0  0  0  0  0  0  0  0  0  0
   62.8712   34.2980   47.3239 H   0  0  0  0  0  0  0  0  0  0  0  0
   64.2384   33.5834   46.4036 H   0  0  0  0  0  0  0  0  0  0  0  0
   62.6350   32.7735   46.4036 H   0  0  0  0  0  0  0  0  0  0  0  0
   63.1537   30.8676   49.2748 H   0  0  0  0  0  0  0  0  0  0  0  0
   61.8989   32.2048   49.0861 H   0  0  0  0  0  0  0  0  0  0  0  0
   62.1913   31.3759   46.5105 H   0  0  0  0  0  0  0  0  0  0  0  0
   62.4157   29.8238   47.4302 H   0  0  0  0  0  0  0  0  0  0  0  0
   60.1730   30.2860   48.5100 H   0  0  0  0  0  0  0  0  0  0  0  0
   60.5645   33.2186   47.4376 H   0  0  0  0  0  0  0  0  0  0  0  0
   60.0637   35.4484   46.4598 H   0  0  0  0  0  0  0  0  0  0  0  0
   58.5827   35.6362   44.4704 H   0  0  0  0  0  0  0  0  0  0  0  0
   57.5375   33.6071   43.4920 H   0  0  0  0  0  0  0  0  0  0  0  0
   55.7147   31.3381   44.1356 H   0  0  0  0  0  0  0  0  0  0  0  0
   56.7621   32.1201   42.9034 H   0  0  0  0  0  0  0  0  0  0  0  0
   56.5538   30.3359   42.9034 H   0  0  0  0  0  0  0  0  0  0  0  0
   57.1441   28.7519   43.2881 H   0  0  0  0  0  0  0  0  0  0  0  0
   57.7865   24.9222   42.3510 H   0  0  0  0  0  0  0  0  0  0  0  0
   56.8593   26.4434   42.1206 H   0  0  0  0  0  0  0  0  0  0  0  0
   58.6553   26.4774   42.1206 H   0  0  0  0  0  0  0  0  0  0  0  0
   58.9706   24.5811   47.5844 H   0  0  0  0  0  0  0  0  0  0  0  0
   57.5741   25.5056   46.9515 H   0  0  0  0  0  0  0  0  0  0  0  0
   58.3002   24.3689   44.6424 H   0  0  0  0  0  0  0  0  0  0  0  0
   59.0420   23.1517   45.8173 H   0  0  0  0  0  0  0  0  0  0  0  0
   57.4580   23.2630   47.8250 H   0  0  0  0  0  0  0  0  0  0  0  0
   55.8317   23.9050   47.4134 H   0  0  0  0  0  0  0  0  0  0  0  0
   56.1240   22.1327   47.4134 H   0  0  0  0  0  0  0  0  0  0  0  0
   54.9875   23.9814   45.6538 H   0  0  0  0  0  0  0  0  0  0  0  0
   56.3177   24.9606   44.8446 H   0  0  0  0  0  0  0  0  0  0  0  0
   54.7418   22.6166   43.7772 H   0  0  0  0  0  0  0  0  0  0  0  0
   55.1195   24.2298   43.0325 H   0  0  0  0  0  0  0  0  0  0  0  0
   56.3525   22.3502   41.9664 H   0  0  0  0  0  0  0  0  0  0  0  0
   57.4265   23.6008   42.7244 H   0  0  0  0  0  0  0  0  0  0  0  0
   57.0991   20.7231   43.3598 H   0  0  0  0  0  0  0  0  0  0  0  0
   58.4809   21.8699   43.6633 H   0  0  0  0  0  0  0  0  0  0  0  0
   56.0491   21.3033   45.3875 H   0  0  0  0  0  0  0  0  0  0  0  0
   57.8257   21.2676   45.8014 H   0  0  0  0  0  0  0  0  0  0  0  0
   60.2165   28.3204   47.1929 H   0  0  0  0  0  0  0  0  0  0  0  0
  1  2  1  0
  2  3  1  0
  3  4  1  0
  3  5  1  0
  5  6  1  0
  6  7  1  0
  7  8  1  0
  8  9  2  0
  9 10  1  0
 10 11  2  0
 11 12  1  0
 12 13  2  0
 13 14  1  0
 14 15  2  0
 15 16  1  0
 15 17  1  0
 17 18  2  0
 18 19  1  0
 19 20  1  0
 20 21  1  0
 19 22  2  0
 22 23  1  0
 23 24  1  0
 24 25  1  0
 25 26  1  0
 26 27  1  0
 26 28  1  0
 28 29  1  0
 29 30  1  0
 30 31  1  0
 31 32  1  0
 22 33  1  0
 33 34  2  0
 34  8  1  0
 14  9  1  0
 34 17  1  0
 32 26  1  0
  1 35  1  0
  1 36  1  0
  1 37  1  0
  2 38  1  0
  2 39  1  0
  3 40  1  6
  4 41  1  0
  4 42  1  0
  4 43  1  0
  5 44  1  0
  5 45  1  0
  6 46  1  0
  6 47  1  0
  7 48  1  0
 10 49  1  0
 11 50  1  0
 12 51  1  0
 13 52  1  0
 16 53  1  0
 16 54  1  0
 16 55  1  0
 18 56  1  0
 21 57  1  0
 21 58  1  0
 21 59  1  0
 24 60  1  0
 24 61  1  0
 25 62  1  0
 25 63  1  0
 27 64  1  0
 27 65  1  0
 27 66  1  0
 28 67  1  0
 28 68  1  0
 29 69  1  0
 29 70  1  0
 30 71  1  0
 30 72  1  0
 31 73  1  0
 31 74  1  0
 32 75  1  0
 32 76  1  0
 33 77  1  0
M  CHG  3   3   1  15   1  26   1
M  END
>  <UniqueID>  (9) 
9

>  <SMILES>  (9) 
CC[N@H+](C)CCNc1c2ccccc2[n+](C)c2cc(OC)c(OCC[N+]3(C)CCCCC3)cc12

>  <Energy>  (9) 
123.37527247209358

>  <Genealogy>  (9) 
CC[NH+](C)CCNc1c2ccccc2[n+](C)c2cc(OC)c(OCC[N+]3(C)CCCCC3)cc12 (protonated)
CC[N@H+](C)CCNc1c2ccccc2[n+](C)c2cc(OC)c(OCC[N+]3(C)CCCCC3)cc12 (chirality)
CC[N@H+](C)CCNc1c2ccccc2[n+](C)c2cc(OC)c(OCC[N+]3(C)CCCCC3)cc12 (3D coordinates assigned)
CC[N@H+](C)CCNc1c2ccccc2[n+](C)c2cc(OC)c(OCC[N+]3(C)CCCCC3)cc12 (nonaromatic ring conformer: 123.37527247209358 kcal/mol)

>  <smiles>  (9) 
CCN(C)CCNc1c2ccccc2[n+](C)c2cc(OC)c(OCC[N+]3(C)CCCCC3)cc12

>  <score_type>  (9) 
oracle

>  <origin>  (9) 
adg

>  <m_score__min__energy>  (9) 
-3.79

>  <m_primary>  (9) 
energy

$$$$
9:0
     RDKit          3D

 62 64  0  0  0  0  0  0  0  0999 V2000
   63.0450   31.6120   48.1470 C   0  0  0  0  0  0  0  0  0  0  0  0
   62.6280   32.6710   47.1300 C   0  0  0  0  0  0  0  0  0  0  0  0
   61.4570   33.4320   47.6190 N   0  0  0  0  0  0  0  0  0  0  0  0
   60.7920   34.2140   46.5520 C   0  0  0  0  0  0  0  0  0  0  0  0
   59.6390   35.0950   47.0580 C   0  0  0  0  0  0  0  0  0  0  0  0
   61.7320   34.2300   48.8390 C   0  0  0  0  0  0  0  0  0  0  0  0
   61.0400   33.5890   50.0440 C   0  0  0  0  0  0  0  0  0  0  0  0
   59.6780   33.9780   50.1120 O   0  0  0  0  0  0  0  0  0  0  0  0
   58.8970   33.0130   50.7910 C   0  0  0  0  0  0  0  0  0  0  0  0
   58.3840   31.9560   49.8110 C   0  0  0  0  0  0  0  0  0  0  0  0
   59.0590   32.0690   48.5190 N   0  0  0  0  0  0  0  0  0  0  0  0
   58.9560   31.0070   47.5580 C   0  0  0  0  0  0  0  0  0  0  0  0
   58.4450   31.2670   46.2740 C   0  0  0  0  0  0  0  0  0  0  0  0
   58.0810   32.5770   45.8940 C   0  0  0  0  0  0  0  0  0  0  0  0
   57.6230   32.8390   44.6050 C   0  0  0  0  0  0  0  0  0  0  0  0
   57.5270   31.8100   43.6760 C   0  0  0  0  0  0  0  0  0  0  0  0
   57.8580   30.5050   44.0380 C   0  0  0  0  0  0  0  0  0  0  0  0
   58.2880   30.1970   45.3540 C   0  0  0  0  0  0  0  0  0  0  0  0
   58.5610   28.9000   45.7470 N   0  0  0  0  0  0  0  0  0  0  0  0
   58.1170   27.7650   44.9060 C   0  0  0  0  0  0  0  0  0  0  0  0
   59.2250   28.6620   46.9370 C   0  0  0  0  0  0  0  0  0  0  0  0
   59.7630   27.3890   47.2490 C   0  0  0  0  0  0  0  0  0  0  0  0
   60.4000   27.1520   48.4670 C   0  0  0  0  0  0  0  0  0  0  0  0
   60.5410   28.1770   49.4070 C   0  0  0  0  0  0  0  0  0  0  0  0
   61.2390   27.9370   50.6460 N   0  0  0  0  0  0  0  0  0  0  0  0
   61.7850   29.1910   51.1700 C   0  0  0  0  0  0  0  0  0  0  0  0
   60.0670   29.4580   49.0950 C   0  0  0  0  0  0  0  0  0  0  0  0
   59.4070   29.7130   47.8740 C   0  0  0  0  0  0  0  0  0  0  0  0
   62.8920   32.0006   49.1646 H   0  0  0  0  0  0  0  0  0  0  0  0
   62.4361   30.7070   48.0046 H   0  0  0  0  0  0  0  0  0  0  0  0
   64.1075   31.3652   48.0046 H   0  0  0  0  0  0  0  0  0  0  0  0
   63.4663   33.3640   46.9657 H   0  0  0  0  0  0  0  0  0  0  0  0
   62.3571   32.1706   46.1886 H   0  0  0  0  0  0  0  0  0  0  0  0
   61.5429   34.8634   46.0782 H   0  0  0  0  0  0  0  0  0  0  0  0
   60.3575   33.4902   45.8468 H   0  0  0  0  0  0  0  0  0  0  0  0
   59.6352   35.0979   48.1580 H   0  0  0  0  0  0  0  0  0  0  0  0
   59.7735   36.1225   46.6891 H   0  0  0  0  0  0  0  0  0  0  0  0
   58.6829   34.6952   46.6891 H   0  0  0  0  0  0  0  0  0  0  0  0
   62.8171   34.2640   49.0163 H   0  0  0  0  0  0  0  0  0  0  0  0
   61.3473   35.2511   48.6997 H   0  0  0  0  0  0  0  0  0  0  0  0
   61.0977   32.4944   49.9521 H   0  0  0  0  0  0  0  0  0  0  0  0
   61.5474   33.9251   50.9603 H   0  0  0  0  0  0  0  0  0  0  0  0
   59.5128   32.5249   51.5608 H   0  0  0  0  0  0  0  0  0  0  0  0
   58.0362   33.5147   51.2572 H   0  0  0  0  0  0  0  0  0  0  0  0
   58.5722   30.9561   50.2291 H   0  0  0  0  0  0  0  0  0  0  0  0
   57.3060   32.1128   49.6585 H   0  0  0  0  0  0  0  0  0  0  0  0
   59.4210   32.9920   48.1950 H   0  0  0  0  0  0  0  0  0  0  0  0
   58.1598   33.3978   46.6221 H   0  0  0  0  0  0  0  0  0  0  0  0
   57.3367   33.8626   44.3218 H   0  0  0  0  0  0  0  0  0  0  0  0
   57.1888   32.0258   42.6518 H   0  0  0  0  0  0  0  0  0  0  0  0
   57.7845   29.7011   43.2908 H   0  0  0  0  0  0  0  0  0  0  0  0
   57.7925   26.9354   45.5513 H   0  0  0  0  0  0  0  0  0  0  0  0
   57.2779   28.0854   44.2710 H   0  0  0  0  0  0  0  0  0  0  0  0
   58.9508   27.4310   44.2710 H   0  0  0  0  0  0  0  0  0  0  0  0
   59.6767   26.5724   46.5171 H   0  0  0  0  0  0  0  0  0  0  0  0
   60.7949   26.1498   48.6898 H   0  0  0  0  0  0  0  0  0  0  0  0
   62.0210   27.2580   50.4920 H   0  0  0  0  0  0  0  0  0  0  0  0
   60.5890   27.5220   51.3530 H   0  0  0  0  0  0  0  0  0  0  0  0
   61.7736   29.1647   52.2696 H   0  0  0  0  0  0  0  0  0  0  0  0
   62.8192   29.3165   50.8170 H   0  0  0  0  0  0  0  0  0  0  0  0
   61.1723   30.0336   50.8170 H   0  0  0  0  0  0  0  0  0  0  0  0
   60.2117   30.2783   49.8135 H   0  0  0  0  0  0  0  0  0  0  0  0
  1  2  1  0
  2  3  1  0
  3  4  1  0
  4  5  1  0
  3  6  1  0
  6  7  1  0
  7  8  1  0
  8  9  1  0
  9 10  1  0
 10 11  1  0
 11 12  1  0
 12 13  2  0
 13 14  1  0
 14 15  2  0
 15 16  1  0
 16 17  2  0
 17 18  1  0
 18 19  2  0
 19 20  1  0
 19 21  1  0
 21 22  2  0
 22 23  1  0
 23 24  2  0
 24 25  1  0
 25 26  1  0
 24 27  1  0
 27 28  2  0
 28 12  1  0
 18 13  1  0
 28 21  1  0
  1 29  1  0
  1 30  1  0
  1 31  1  0
  2 32  1  0
  2 33  1  0
  4 34  1  0
  4 35  1  0
  5 36  1  0
  5 37  1  0
  5 38  1  0
  6 39  1  0
  6 40  1  0
  7 41  1  0
  7 42  1  0
  9 43  1  0
  9 44  1  0
 10 45  1  0
 10 46  1  0
 11 47  1  0
 14 48  1  0
 15 49  1  0
 16 50  1  0
 17 51  1  0
 20 52  1  0
 20 53  1  0
 20 54  1  0
 22 55  1  0
 23 56  1  0
 25 57  1  0
 25 58  1  0
 26 59  1  0
 26 60  1  0
 26 61  1  0
 27 62  1  0
M  CHG  2  19   1  25   1
M  END
>  <UniqueID>  (10) 
10

>  <SMILES>  (10) 
CCN(CC)CCOCCNc1c2ccccc2[n+](C)c2ccc([NH2+]C)cc12

>  <Energy>  (10) 
90.01146331323702

>  <Genealogy>  (10) 
CCN(CC)CCOCCNc1c2ccccc2[n+](C)c2ccc([NH2+]C)cc12 (protonated)
CCN(CC)CCOCCNc1c2ccccc2[n+](C)c2ccc([NH2+]C)cc12 (3D coordinates assigned)
CCN(CC)CCOCCNc1c2ccccc2[n+](C)c2ccc([NH2+]C)cc12 (optimized conformer: 90.01146331323702 kcal/mol)

>  <smiles>  (10) 
CCN(CC)CCOCCNc1c2ccccc2[n+](C)c2ccc(NC)cc12

>  <score_type>  (10) 
oracle

>  <origin>  (10) 
adg

>  <m_score__min__energy>  (10) 
-4.7300000000000004

>  <m_primary>  (10) 
energy

$$$$
10:0
     RDKit          3D

 67 70  0  0  0  0  0  0  0  0999 V2000
   56.6560   30.3040   43.0830 C   0  0  0  0  0  0  0  0  0  0  0  0
   57.2100   31.6350   43.5780 C   0  0  0  0  0  0  0  0  0  0  0  0
   56.9960   31.7610   45.0230 N   0  0  0  0  0  0  0  0  0  0  0  0
   57.0570   33.1710   45.4300 C   0  0  0  0  0  0  0  0  0  0  0  0
   58.3750   33.4580   46.1580 C   0  0  0  0  0  0  0  0  0  0  0  0
   59.4740   32.6440   45.6150 N   0  0  0  0  0  0  0  0  0  0  0  0
   59.9790   31.7420   46.6310 C   0  0  0  0  0  0  0  0  0  0  0  0
   60.9550   32.1380   47.5930 C   0  0  0  0  0  0  0  0  0  0  0  0
   61.4680   33.4550   47.6280 C   0  0  0  0  0  0  0  0  0  0  0  0
   62.4650   33.8110   48.5330 C   0  0  0  0  0  0  0  0  0  0  0  0
   62.9780   32.8720   49.4170 C   0  0  0  0  0  0  0  0  0  0  0  0
   62.4750   31.5740   49.4320 C   0  0  0  0  0  0  0  0  0  0  0  0
   61.4320   31.1810   48.5580 C   0  0  0  0  0  0  0  0  0  0  0  0
   60.8880   29.9070   48.6130 N   0  0  0  0  0  0  0  0  0  0  0  0
   61.1330   29.0130   49.7580 C   0  0  0  0  0  0  0  0  0  0  0  0
   60.0270   29.5280   47.6190 C   0  0  0  0  0  0  0  0  0  0  0  0
   59.5320   30.4170   46.6880 C   0  0  0  0  0  0  0  0  0  0  0  0
   58.6370   29.8180   45.8680 N   0  0  0  0  0  0  0  0  0  0  0  0
   58.6080   28.5270   46.2550 C   0  0  0  0  0  0  0  0  0  0  0  0
   57.8840   27.5020   45.6490 C   0  0  0  0  0  0  0  0  0  0  0  0
   58.0600   26.1860   46.1130 C   0  0  0  0  0  0  0  0  0  0  0  0
   57.3310   25.1640   45.4820 O   0  0  0  0  0  0  0  0  0  0  0  0
   57.3850   24.8450   44.0920 C   0  0  0  0  0  0  0  0  0  0  0  0
   56.6470   23.5140   43.8230 C   0  0  0  0  0  0  0  0  0  0  0  0
   57.4030   22.2770   44.1870 N   0  0  0  0  0  0  0  0  0  0  0  0
   56.7750   21.6970   45.3980 C   0  0  0  0  0  0  0  0  0  0  0  0
   57.3370   21.2700   43.1010 C   0  0  0  0  0  0  0  0  0  0  0  0
   58.8200   22.5830   44.4980 C   0  0  0  0  0  0  0  0  0  0  0  0
   58.9650   25.9370   47.1810 C   0  0  0  0  0  0  0  0  0  0  0  0
   59.6800   26.9880   47.7790 C   0  0  0  0  0  0  0  0  0  0  0  0
   59.4580   28.2910   47.3150 C   0  0  0  0  0  0  0  0  0  0  0  0
   56.3933   29.6729   43.9448 H   0  0  0  0  0  0  0  0  0  0  0  0
   55.7583   30.4844   42.4735 H   0  0  0  0  0  0  0  0  0  0  0  0
   57.4166   29.7942   42.4735 H   0  0  0  0  0  0  0  0  0  0  0  0
   58.2879   31.6832   43.3638 H   0  0  0  0  0  0  0  0  0  0  0  0
   56.6902   32.4564   43.0630 H   0  0  0  0  0  0  0  0  0  0  0  0
   56.0300   31.4130   45.2350 H   0  0  0  0  0  0  0  0  0  0  0  0
   56.9891   33.8097   44.5370 H   0  0  0  0  0  0  0  0  0  0  0  0
   56.2189   33.3837   46.1100 H   0  0  0  0  0  0  0  0  0  0  0  0
   58.6253   34.5226   46.0396 H   0  0  0  0  0  0  0  0  0  0  0  0
   58.2471   33.2041   47.2206 H   0  0  0  0  0  0  0  0  0  0  0  0
   60.2380   33.2510   45.2430 H   0  0  0  0  0  0  0  0  0  0  0  0
   59.1350   32.1040   44.7870 H   0  0  0  0  0  0  0  0  0  0  0  0
   61.0742   34.2091   46.9307 H   0  0  0  0  0  0  0  0  0  0  0  0
   62.8480   34.8421   48.5472 H   0  0  0  0  0  0  0  0  0  0  0  0
   63.7854   33.1546   50.1086 H   0  0  0  0  0  0  0  0  0  0  0  0
   62.8952   30.8402   50.1355 H   0  0  0  0  0  0  0  0  0  0  0  0
   60.9809   29.5679   50.6955 H   0  0  0  0  0  0  0  0  0  0  0  0
   60.4343   28.1644   49.7167 H   0  0  0  0  0  0  0  0  0  0  0  0
   62.1667   28.6392   49.7167 H   0  0  0  0  0  0  0  0  0  0  0  0
   58.0930   30.2340   45.0810 H   0  0  0  0  0  0  0  0  0  0  0  0
   57.1888   27.7178   44.8243 H   0  0  0  0  0  0  0  0  0  0  0  0
   56.9056   25.6497   43.5152 H   0  0  0  0  0  0  0  0  0  0  0  0
   58.4368   24.7412   43.7872 H   0  0  0  0  0  0  0  0  0  0  0  0
   55.7110   23.5221   44.4008 H   0  0  0  0  0  0  0  0  0  0  0  0
   56.4942   23.4667   42.7347 H   0  0  0  0  0  0  0  0  0  0  0  0
   57.2421   22.1284   46.2956 H   0  0  0  0  0  0  0  0  0  0  0  0
   55.6991   21.9259   45.3985 H   0  0  0  0  0  0  0  0  0  0  0  0
   56.9178   20.6063   45.3985 H   0  0  0  0  0  0  0  0  0  0  0  0
   57.2710   20.2628   43.5384 H   0  0  0  0  0  0  0  0  0  0  0  0
   56.4493   21.4587   42.4794 H   0  0  0  0  0  0  0  0  0  0  0  0
   58.2417   21.3412   42.4794 H   0  0  0  0  0  0  0  0  0  0  0  0
   58.9578   22.6128   45.5889 H   0  0  0  0  0  0  0  0  0  0  0  0
   59.4663   21.8037   44.0679 H   0  0  0  0  0  0  0  0  0  0  0  0
   59.0872   23.5595   44.0679 H   0  0  0  0  0  0  0  0  0  0  0  0
   59.1071   24.9083   47.5436 H   0  0  0  0  0  0  0  0  0  0  0  0
   60.3960   26.7928   48.5909 H   0  0  0  0  0  0  0  0  0  0  0  0
  1  2  1  0
  2  3  1  0
  3  4  1  0
  4  5  1  0
  5  6  1  0
  6  7  1  0
  7  8  2  0
  8  9  1  0
  9 10  2  0
 10 11  1  0
 11 12  2  0
 12 13  1  0
 13 14  2  0
 14 15  1  0
 14 16  1  0
 16 17  2  0
 17 18  1  0
 18 19  1  0
 19 20  2  0
 20 21  1  0
 21 22  1  0
 22 23  1  0
 23 24  1  0
 24 25  1  0
 25 26  1  0
 25 27  1  0
 25 28  1  0
 21 29  2  0
 29 30  1  0
 30 31  2  0
 17  7  1  0
 31 19  1  0
 13  8  1  0
 31 16  1  0
  1 32  1  0
  1 33  1  0
  1 34  1  0
  2 35  1  0
  2 36  1  0
  3 37  1  0
  4 38  1  0
  4 39  1  0
  5 40  1  0
  5 41  1  0
  6 42  1  0
  6 43  1  0
  9 44  1  0
 10 45  1  0
 11 46  1  0
 12 47  1  0
 15 48  1  0
 15 49  1  0
 15 50  1  0
 18 51  1  0
 20 52  1  0
 23 53  1  0
 23 54  1  0
 24 55  1  0
 24 56  1  0
 26 57  1  0
 26 58  1  0
 26 59  1  0
 27 60  1  0
 27 61  1  0
 27 62  1  0
 28 63  1  0
 28 64  1  0
 28 65  1  0
 29 66  1  0
 30 67  1  0
M  CHG  3   6   1  14   1  25   1
M  END
>  <UniqueID>  (11) 
11

>  <SMILES>  (11) 
CCNCC[NH2+]c1c2ccccc2[n+](C)c2c1[nH]c1cc(OCC[N+](C)(C)C)ccc12

>  <Energy>  (11) 
129.0321375297165

>  <Genealogy>  (11) 
CCNCC[NH2+]c1c2ccccc2[n+](C)c2c1[nH]c1cc(OCC[N+](C)(C)C)ccc12 (protonated)
CCNCC[NH2+]c1c2ccccc2[n+](C)c2c1[nH]c1cc(OCC[N+](C)(C)C)ccc12 (3D coordinates assigned)
CCNCC[NH2+]c1c2ccccc2[n+](C)c2c1[nH]c1cc(OCC[N+](C)(C)C)ccc12 (optimized conformer: 129.0321375297165 kcal/mol)

>  <smiles>  (11) 
CCNCCNc1c2ccccc2[n+](C)c2c1[nH]c1cc(OCC[N+](C)(C)C)ccc12

>  <score_type>  (11) 
oracle

>  <origin>  (11) 
adg

>  <m_score__min__energy>  (11) 
-3.2999999999999998

>  <m_primary>  (11) 
energy

$$$$
11:0
     RDKit          3D

 53 55  0  0  0  0  0  0  0  0999 V2000
   57.9110   28.7350   45.8750 C   0  0  0  0  0  0  0  0  0  0  0  0
   58.0190   30.2580   45.8080 C   0  0  0  0  0  0  0  0  0  0  0  0
   56.9720   30.8460   44.9350 N   0  0  0  0  0  0  0  0  0  0  0  0
   56.1430   29.7740   44.3270 C   0  0  0  0  0  0  0  0  0  0  0  0
   56.2880   29.7850   42.8030 C   0  0  0  0  0  0  0  0  0  0  0  0
   57.5490   31.7610   43.9130 C   0  0  0  0  0  0  0  0  0  0  0  0
   57.3910   33.2140   44.3790 C   0  0  0  0  0  0  0  0  0  0  0  0
   56.8180   33.2850   45.7320 N   0  0  0  0  0  0  0  0  0  0  0  0
   57.8630   33.5380   46.6820 C   0  0  0  0  0  0  0  0  0  0  0  0
   57.8420   33.0100   47.9390 N   0  0  0  0  0  0  0  0  0  0  0  0
   58.9950   33.3370   48.5680 C   0  0  0  0  0  0  0  0  0  0  0  0
   59.8860   34.0650   47.8520 C   0  0  0  0  0  0  0  0  0  0  0  0
   59.3080   34.3850   46.3130 S   0  0  0  0  0  0  0  0  0  0  0  0
   61.3190   34.3430   48.6960 S   0  0  0  0  0  0  0  0  0  0  0  0
   60.7360   33.4850   50.0590 C   0  0  0  0  0  0  0  0  0  0  0  0
   61.3800   33.2120   51.2640 C   0  0  0  0  0  0  0  0  0  0  0  0
   63.0390   33.8000   51.6100 S   0  0  0  0  0  0  0  0  0  0  0  0
   63.8830   32.5450   50.5770 C   0  0  0  0  0  0  0  0  0  0  0  0
   64.4220   33.1250   49.2600 C   0  0  0  0  0  0  0  0  0  0  0  0
   64.0280   32.3030   48.0920 N   0  0  0  0  0  0  0  0  0  0  0  0
   62.8420   31.4930   48.4260 C   0  0  0  0  0  0  0  0  0  0  0  0
   63.7410   33.1430   46.9140 C   0  0  0  0  0  0  0  0  0  0  0  0
   60.7090   32.4770   52.1960 N   0  0  0  0  0  0  0  0  0  0  0  0
   59.4770   32.0020   51.9740 N   0  0  0  0  0  0  0  0  0  0  0  0
   58.8190   32.2290   50.8020 C   0  0  0  0  0  0  0  0  0  0  0  0
   59.4540   32.9900   49.8300 C   0  0  0  0  0  0  0  0  0  0  0  0
   57.8883   28.4150   46.9272 H   0  0  0  0  0  0  0  0  0  0  0  0
   56.9876   28.4105   45.3730 H   0  0  0  0  0  0  0  0  0  0  0  0
   58.7794   28.2834   45.3730 H   0  0  0  0  0  0  0  0  0  0  0  0
   57.9083   30.6680   46.8227 H   0  0  0  0  0  0  0  0  0  0  0  0
   59.0014   30.5133   45.3840 H   0  0  0  0  0  0  0  0  0  0  0  0
   56.4711   28.7984   44.7150 H   0  0  0  0  0  0  0  0  0  0  0  0
   55.0883   29.9492   44.5858 H   0  0  0  0  0  0  0  0  0  0  0  0
   57.3522   29.8657   42.5365 H   0  0  0  0  0  0  0  0  0  0  0  0
   55.8759   28.8530   42.3887 H   0  0  0  0  0  0  0  0  0  0  0  0
   55.7401   30.6442   42.3887 H   0  0  0  0  0  0  0  0  0  0  0  0
   58.6167   31.5333   43.7783 H   0  0  0  0  0  0  0  0  0  0  0  0
   57.0210   31.6231   42.9579 H   0  0  0  0  0  0  0  0  0  0  0  0
   58.3788   33.6979   44.3830 H   0  0  0  0  0  0  0  0  0  0  0  0
   56.7075   33.7270   43.6865 H   0  0  0  0  0  0  0  0  0  0  0  0
   56.3550   32.3810   45.9890 H   0  0  0  0  0  0  0  0  0  0  0  0
   56.1130   34.0580   45.7760 H   0  0  0  0  0  0  0  0  0  0  0  0
   64.7253   32.1277   51.1484 H   0  0  0  0  0  0  0  0  0  0  0  0
   63.1423   31.7730   50.3212 H   0  0  0  0  0  0  0  0  0  0  0  0
   64.0234   34.1420   49.1298 H   0  0  0  0  0  0  0  0  0  0  0  0
   65.5206   33.1337   49.3157 H   0  0  0  0  0  0  0  0  0  0  0  0
   62.7411   31.4241   49.5192 H   0  0  0  0  0  0  0  0  0  0  0  0
   61.9435   31.9670   48.0040 H   0  0  0  0  0  0  0  0  0  0  0  0
   62.9566   30.4837   48.0040 H   0  0  0  0  0  0  0  0  0  0  0  0
   63.4019   34.1356   47.2453 H   0  0  0  0  0  0  0  0  0  0  0  0
   64.6535   33.2503   46.3091 H   0  0  0  0  0  0  0  0  0  0  0  0
   62.9536   32.6695   46.3091 H   0  0  0  0  0  0  0  0  0  0  0  0
   57.8122   31.8203   50.6311 H   0  0  0  0  0  0  0  0  0  0  0  0
  1  2  1  0
  2  3  1  0
  3  4  1  0
  4  5  1  0
  3  6  1  0
  6  7  1  0
  7  8  1  0
  8  9  1  0
  9 10  2  0
 10 11  1  0
 11 12  2  0
 12 13  1  0
 12 14  1  0
 14 15  1  0
 15 16  2  0
 16 17  1  0
 17 18  1  0
 18 19  1  0
 19 20  1  0
 20 21  1  0
 20 22  1  0
 16 23  1  0
 23 24  2  0
 24 25  1  0
 25 26  2  0
 13  9  1  0
 26 15  1  0
 26 11  1  0
  1 27  1  0
  1 28  1  0
  1 29  1  0
  2 30  1  0
  2 31  1  0
  4 32  1  0
  4 33  1  0
  5 34  1  0
  5 35  1  0
  5 36  1  0
  6 37  1  0
  6 38  1  0
  7 39  1  0
  7 40  1  0
  8 41  1  0
  8 42  1  0
 18 43  1  0
 18 44  1  0
 19 45  1  0
 19 46  1  0
 21 47  1  0
 21 48  1  0
 21 49  1  0
 22 50  1  0
 22 51  1  0
 22 52  1  0
 25 53  1  0
M  CHG  1   8   1
M  END
>  <UniqueID>  (12) 
12

>  <SMILES>  (12) 
CCN(CC)CC[NH2+]c1nc2c(s1)sc1c(SCCN(C)C)nncc12

>  <Energy>  (12) 
129.97276525167678

>  <Genealogy>  (12) 
CCN(CC)CC[NH2+]c1nc2c(s1)sc1c(SCCN(C)C)nncc12 (protonated)
CCN(CC)CC[NH2+]c1nc2c(s1)sc1c(SCCN(C)C)nncc12 (3D coordinates assigned)
CCN(CC)CC[NH2+]c1nc2c(s1)sc1c(SCCN(C)C)nncc12 (optimized conformer: 129.97276525167678 kcal/mol)

>  <smiles>  (12) 
CCN(CC)CCNc1nc2c(s1)sc1c(SCCN(C)C)nncc12

>  <score_type>  (12) 
oracle

>  <origin>  (12) 
adg

>  <m_score__min__energy>  (12) 
-5.8399999999999999

>  <m_primary>  (12) 
energy

$$$$
12:0
     RDKit          3D

 46 49  0  0  0  0  0  0  0  0999 V2000
   57.2100   30.0100   45.4450 F   0  0  0  0  0  0  0  0  0  0  0  0
   58.2080   30.9450   45.2320 C   0  0  0  0  0  0  0  0  0  0  0  0
   58.5520   31.6500   46.5570 C   0  0  0  0  0  0  0  0  0  0  0  0
   57.7430   32.9440   46.7250 C   0  0  0  0  0  0  0  0  0  0  0  0
   57.9980   33.9260   45.6380 N   0  0  0  0  0  0  0  0  0  0  0  0
   58.9670   34.9610   46.0610 C   0  0  0  0  0  0  0  0  0  0  0  0
   60.0610   34.3630   46.9080 C   0  0  0  0  0  0  0  0  0  0  0  0
   59.9380   34.3160   48.3040 C   0  0  0  0  0  0  0  0  0  0  0  0
   60.9430   33.7350   49.0820 C   0  0  0  0  0  0  0  0  0  0  0  0
   62.0880   33.1870   48.4750 C   0  0  0  0  0  0  0  0  0  0  0  0
   63.1560   32.5670   49.3020 C   0  0  0  0  0  0  0  0  0  0  0  0
   62.8890   31.4300   50.0850 C   0  0  0  0  0  0  0  0  0  0  0  0
   63.8690   30.8620   50.8410 N   0  0  0  0  0  0  0  0  0  0  0  0
   65.1340   31.3700   50.8700 C   0  0  0  0  0  0  0  0  0  0  0  0
   66.1270   30.7680   51.6590 C   0  0  0  0  0  0  0  0  0  0  0  0
   67.4210   31.2970   51.6830 C   0  0  0  0  0  0  0  0  0  0  0  0
   67.7330   32.4270   50.9230 C   0  0  0  0  0  0  0  0  0  0  0  0
   66.7520   33.0360   50.1330 C   0  0  0  0  0  0  0  0  0  0  0  0
   65.4510   32.5110   50.1010 C   0  0  0  0  0  0  0  0  0  0  0  0
   64.4530   33.1040   49.3190 C   0  0  0  0  0  0  0  0  0  0  0  0
   62.2030   33.2320   47.0750 C   0  0  0  0  0  0  0  0  0  0  0  0
   61.1980   33.8120   46.2980 C   0  0  0  0  0  0  0  0  0  0  0  0
   58.3980   33.3080   44.3450 C   0  0  0  0  0  0  0  0  0  0  0  0
   57.7530   31.9330   44.1420 C   0  0  0  0  0  0  0  0  0  0  0  0
   59.1263   30.4542   44.8771 H   0  0  0  0  0  0  0  0  0  0  0  0
   58.3234   30.9730   47.3933 H   0  0  0  0  0  0  0  0  0  0  0  0
   59.6215   31.9072   46.5467 H   0  0  0  0  0  0  0  0  0  0  0  0
   56.6723   32.6917   46.7272 H   0  0  0  0  0  0  0  0  0  0  0  0
   58.0536   33.4091   47.6722 H   0  0  0  0  0  0  0  0  0  0  0  0
   59.4146   35.4212   45.1678 H   0  0  0  0  0  0  0  0  0  0  0  0
   58.4348   35.7161   46.6581 H   0  0  0  0  0  0  0  0  0  0  0  0
   59.0458   34.7386   48.7892 H   0  0  0  0  0  0  0  0  0  0  0  0
   60.8382   33.7059   50.1766 H   0  0  0  0  0  0  0  0  0  0  0  0
   61.8786   30.9951   50.0869 H   0  0  0  0  0  0  0  0  0  0  0  0
   63.6300   30.0160   51.4060 H   0  0  0  0  0  0  0  0  0  0  0  0
   65.8865   29.8783   52.2595 H   0  0  0  0  0  0  0  0  0  0  0  0
   68.1960   30.8219   52.3024 H   0  0  0  0  0  0  0  0  0  0  0  0
   68.7527   32.8390   50.9458 H   0  0  0  0  0  0  0  0  0  0  0  0
   67.0005   33.9264   49.5369 H   0  0  0  0  0  0  0  0  0  0  0  0
   64.6858   33.9939   48.7157 H   0  0  0  0  0  0  0  0  0  0  0  0
   63.0924   32.8067   46.5871 H   0  0  0  0  0  0  0  0  0  0  0  0
   61.2982   33.8370   45.2029 H   0  0  0  0  0  0  0  0  0  0  0  0
   58.0876   33.9706   43.5237 H   0  0  0  0  0  0  0  0  0  0  0  0
   59.4896   33.1728   44.3564 H   0  0  0  0  0  0  0  0  0  0  0  0
   56.6590   32.0386   44.1859 H   0  0  0  0  0  0  0  0  0  0  0  0
   58.0627   31.5413   43.1619 H   0  0  0  0  0  0  0  0  0  0  0  0
  1  2  1  0
  2  3  1  0
  3  4  1  0
  4  5  1  0
  5  6  1  0
  6  7  1  0
  7  8  2  0
  8  9  1  0
  9 10  2  0
 10 11  1  0
 11 12  2  0
 12 13  1  0
 13 14  2  0
 14 15  1  0
 15 16  2  0
 16 17  1  0
 17 18  2  0
 18 19  1  0
 19 20  2  0
 10 21  1  0
 21 22  2  0
  5 23  1  0
 23 24  1  0
 24  2  1  0
 22  7  1  0
 20 11  1  0
 19 14  1  0
  2 25  1  0
  3 26  1  0
  3 27  1  0
  4 28  1  0
  4 29  1  0
  6 30  1  0
  6 31  1  0
  8 32  1  0
  9 33  1  0
 12 34  1  0
 13 35  1  0
 15 36  1  0
 16 37  1  0
 17 38  1  0
 18 39  1  0
 20 40  1  0
 21 41  1  0
 22 42  1  0
 23 43  1  0
 23 44  1  0
 24 45  1  0
 24 46  1  0
M  CHG  1  13   1
M  END
>  <UniqueID>  (13) 
13

>  <SMILES>  (13) 
FC1CCN(Cc2ccc(-c3c[nH+]c4ccccc4c3)cc2)CC1

>  <Energy>  (13) 
65.05707247621726

>  <Genealogy>  (13) 
FC1CCN(Cc2ccc(-c3c[nH+]c4ccccc4c3)cc2)CC1 (protonated)
FC1CCN(Cc2ccc(-c3c[nH+]c4ccccc4c3)cc2)CC1 (3D coordinates assigned)
FC1CCN(Cc2ccc(-c3c[nH+]c4ccccc4c3)cc2)CC1 (nonaromatic ring conformer: 65.05707247621726 kcal/mol)

>  <smiles>  (13) 
FC1CCN(Cc2ccc(-c3cnc4ccccc4c3)cc2)CC1

>  <score_type>  (13) 
oracle

>  <origin>  (13) 
adg

>  <m_score__min__energy>  (13) 
-6.7599999999999998

>  <m_primary>  (13) 
energy

$$$$
13:0
     RDKit          3D

 83 88  0  0  0  0  0  0  0  0999 V2000
   62.8830   28.4530   55.3390 C   0  0  0  0  0  0  0  0  0  0  0  0
   62.2690   27.3370   54.4780 C   0  0  0  0  0  0  0  0  0  0  0  0
   62.3290   27.5880   53.0020 N   0  0  0  0  0  0  0  0  0  0  0  0
   63.6770   27.2960   52.4110 C   0  0  0  0  0  0  0  0  0  0  0  0
   64.6140   28.5230   52.3120 C   0  0  0  0  0  0  0  0  0  0  0  0
   61.2980   26.8120   52.2340 C   0  0  0  0  0  0  0  0  0  0  0  0
   61.0480   27.2980   50.7940 C   0  0  0  0  0  0  0  0  0  0  0  0
   60.3980   28.6200   50.8270 N   0  0  0  0  0  0  0  0  0  0  0  0
   60.9080   29.7380   50.0580 C   0  0  0  0  0  0  0  0  0  0  0  0
   60.5150   29.8330   48.7070 C   0  0  0  0  0  0  0  0  0  0  0  0
   59.2800   29.3240   48.2640 C   0  0  0  0  0  0  0  0  0  0  0  0
   58.9830   29.3000   46.9050 C   0  0  0  0  0  0  0  0  0  0  0  0
   59.9110   29.7010   45.9670 C   0  0  0  0  0  0  0  0  0  0  0  0
   61.1450   30.2000   46.3900 C   0  0  0  0  0  0  0  0  0  0  0  0
   61.4060   30.4050   47.7710 C   0  0  0  0  0  0  0  0  0  0  0  0
   62.4430   31.2060   48.2200 N   0  0  0  0  0  0  0  0  0  0  0  0
   63.2220   32.0170   47.2500 C   0  0  0  0  0  0  0  0  0  0  0  0
   62.7050   31.3110   49.5800 C   0  0  0  0  0  0  0  0  0  0  0  0
   63.8050   32.0750   50.0360 C   0  0  0  0  0  0  0  0  0  0  0  0
   64.0260   32.2820   51.3840 C   0  0  0  0  0  0  0  0  0  0  0  0
   63.1850   31.7030   52.3320 C   0  0  0  0  0  0  0  0  0  0  0  0
   63.3220   31.9530   53.6970 O   0  0  0  0  0  0  0  0  0  0  0  0
   64.5690   32.2080   54.3520 C   0  0  0  0  0  0  0  0  0  0  0  0
   62.1760   30.8280   51.9280 C   0  0  0  0  0  0  0  0  0  0  0  0
   61.4080   30.2620   52.9480 O   0  0  0  0  0  0  0  0  0  0  0  0
   60.9870   31.0190   54.0820 C   0  0  0  0  0  0  0  0  0  0  0  0
   59.5810   31.5670   53.8460 C   0  0  0  0  0  0  0  0  0  0  0  0
   59.3800   31.9030   52.4150 N   0  0  0  0  0  0  0  0  0  0  0  0
   58.5100   31.1250   51.6760 C   0  0  0  0  0  0  0  0  0  0  0  0
   58.2350   31.3880   50.3200 C   0  0  0  0  0  0  0  0  0  0  0  0
   58.8850   32.4770   49.7530 C   0  0  0  0  0  0  0  0  0  0  0  0
   59.7590   33.2660   50.4730 C   0  0  0  0  0  0  0  0  0  0  0  0
   60.2280   34.2510   49.7370 O   0  0  0  0  0  0  0  0  0  0  0  0
   59.6690   34.1290   48.5470 C   0  0  0  0  0  0  0  0  0  0  0  0
   59.8370   34.9540   47.4350 C   0  0  0  0  0  0  0  0  0  0  0  0
   59.1100   34.6670   46.2740 C   0  0  0  0  0  0  0  0  0  0  0  0
   58.2430   33.5560   46.2310 C   0  0  0  0  0  0  0  0  0  0  0  0
   58.0810   32.7300   47.3580 C   0  0  0  0  0  0  0  0  0  0  0  0
   58.8130   33.0470   48.5030 C   0  0  0  0  0  0  0  0  0  0  0  0
   60.0300   32.9790   51.8180 C   0  0  0  0  0  0  0  0  0  0  0  0
   61.0270   33.8400   52.5660 C   0  0  0  0  0  0  0  0  0  0  0  0
   61.9250   30.5950   50.5470 C   0  0  0  0  0  0  0  0  0  0  0  0
   62.7495   28.2103   56.4035 H   0  0  0  0  0  0  0  0  0  0  0  0
   63.9563   28.5406   55.1147 H   0  0  0  0  0  0  0  0  0  0  0  0
   62.3825   29.4065   55.1147 H   0  0  0  0  0  0  0  0  0  0  0  0
   62.8093   26.4026   54.6900 H   0  0  0  0  0  0  0  0  0  0  0  0
   61.2029   27.2867   54.7441 H   0  0  0  0  0  0  0  0  0  0  0  0
   62.1340   28.6070   52.8490 H   0  0  0  0  0  0  0  0  0  0  0  0
   64.1695   26.5373   53.0370 H   0  0  0  0  0  0  0  0  0  0  0  0
   63.4993   26.9544   51.3806 H   0  0  0  0  0  0  0  0  0  0  0  0
   64.8764   28.8666   53.3235 H   0  0  0  0  0  0  0  0  0  0  0  0
   65.5298   28.2423   51.7711 H   0  0  0  0  0  0  0  0  0  0  0  0
   64.1021   29.3325   51.7711 H   0  0  0  0  0  0  0  0  0  0  0  0
   61.6271   25.7635   52.1867 H   0  0  0  0  0  0  0  0  0  0  0  0
   60.3486   26.9514   52.7718 H   0  0  0  0  0  0  0  0  0  0  0  0
   62.0073   27.3744   50.2612 H   0  0  0  0  0  0  0  0  0  0  0  0
   60.3952   26.5817   50.2737 H   0  0  0  0  0  0  0  0  0  0  0  0
   59.7970   28.7630   51.6690 H   0  0  0  0  0  0  0  0  0  0  0  0
   58.5487   28.9447   48.9930 H   0  0  0  0  0  0  0  0  0  0  0  0
   57.9923   28.9557   46.5735 H   0  0  0  0  0  0  0  0  0  0  0  0
   59.6811   29.6284   44.8938 H   0  0  0  0  0  0  0  0  0  0  0  0
   61.9213   30.4362   45.6473 H   0  0  0  0  0  0  0  0  0  0  0  0
   63.8836   32.7058   47.7958 H   0  0  0  0  0  0  0  0  0  0  0  0
   63.8274   31.3508   46.6179 H   0  0  0  0  0  0  0  0  0  0  0  0
   62.5320   32.5951   46.6179 H   0  0  0  0  0  0  0  0  0  0  0  0
   64.4981   32.5129   49.3027 H   0  0  0  0  0  0  0  0  0  0  0  0
   64.8702   32.9071   51.7105 H   0  0  0  0  0  0  0  0  0  0  0  0
   64.4235   32.1782   55.4419 H   0  0  0  0  0  0  0  0  0  0  0  0
   65.3008   31.4409   54.0587 H   0  0  0  0  0  0  0  0  0  0  0  0
   64.9409   33.2008   54.0587 H   0  0  0  0  0  0  0  0  0  0  0  0
   60.9821   30.3719   54.9715 H   0  0  0  0  0  0  0  0  0  0  0  0
   61.6820   31.8574   54.2371 H   0  0  0  0  0  0  0  0  0  0  0  0
   58.8432   30.8081   54.1454 H   0  0  0  0  0  0  0  0  0  0  0  0
   59.4539   32.4814   54.4442 H   0  0  0  0  0  0  0  0  0  0  0  0
   58.0155   30.2716   52.1629 H   0  0  0  0  0  0  0  0  0  0  0  0
   57.5408   30.7628   49.7393 H   0  0  0  0  0  0  0  0  0  0  0  0
   60.5256   35.8111   47.4697 H   0  0  0  0  0  0  0  0  0  0  0  0
   59.2157   35.3123   45.3895 H   0  0  0  0  0  0  0  0  0  0  0  0
   57.6882   33.3331   45.3077 H   0  0  0  0  0  0  0  0  0  0  0  0
   57.4016   31.8651   47.3375 H   0  0  0  0  0  0  0  0  0  0  0  0
   60.8807   33.7137   53.6489 H   0  0  0  0  0  0  0  0  0  0  0  0
   62.0491   33.5360   52.2961 H   0  0  0  0  0  0  0  0  0  0  0  0
   60.8751   34.8955   52.2961 H   0  0  0  0  0  0  0  0  0  0  0  0
  1  2  1  0
  2  3  1  0
  3  4  1  0
  4  5  1  0
  3  6  1  0
  6  7  1  0
  7  8  1  0
  8  9  1  0
  9 10  2  0
 10 11  1  0
 11 12  2  0
 12 13  1  0
 13 14  2  0
 14 15  1  0
 15 16  2  0
 16 17  1  0
 16 18  1  0
 18 19  2  0
 19 20  1  0
 20 21  2  0
 21 22  1  0
 22 23  1  0
 21 24  1  0
 24 25  1  0
 25 26  1  0
 26 27  1  0
 27 28  1  0
 28 29  2  0
 29 30  1  0
 30 31  2  0
 31 32  1  0
 32 33  1  0
 33 34  1  0
 34 35  2  0
 35 36  1  0
 36 37  2  0
 37 38  1  0
 38 39  2  0
 32 40  2  0
 40 41  1  0
 24 42  2  0
 42  9  1  0
 15 10  1  0
 42 18  1  0
 40 28  1  0
 39 31  1  0
 39 34  1  0
  1 43  1  0
  1 44  1  0
  1 45  1  0
  2 46  1  0
  2 47  1  0
  3 48  1  0
  4 49  1  0
  4 50  1  0
  5 51  1  0
  5 52  1  0
  5 53  1  0
  6 54  1  0
  6 55  1  0
  7 56  1  0
  7 57  1  0
  8 58  1  0
 11 59  1  0
 12 60  1  0
 13 61  1  0
 14 62  1  0
 17 63  1  0
 17 64  1  0
 17 65  1  0
 19 66  1  0
 20 67  1  0
 23 68  1  0
 23 69  1  0
 23 70  1  0
 26 71  1  0
 26 72  1  0
 27 73  1  0
 27 74  1  0
 29 75  1  0
 30 76  1  0
 35 77  1  0
 36 78  1  0
 37 79  1  0
 38 80  1  0
 41 81  1  0
 41 82  1  0
 41 83  1  0
M  CHG  3   3   1  16   1  28   1
M  END
>  <UniqueID>  (14) 
14

>  <SMILES>  (14) 
CC[NH+](CC)CCNc1c2ccccc2[n+](C)c2ccc(OC)c(OCC[n+]3ccc4c(oc5ccccc54)c3C)c12

>  <Energy>  (14) 
189.51349008484405

>  <Genealogy>  (14) 
CC[NH+](CC)CCNc1c2ccccc2[n+](C)c2ccc(OC)c(OCC[n+]3ccc4c(oc5ccccc54)c3C)c12 (protonated)
CC[NH+](CC)CCNc1c2ccccc2[n+](C)c2ccc(OC)c(OCC[n+]3ccc4c(oc5ccccc54)c3C)c12 (3D coordinates assigned)
CC[NH+](CC)CCNc1c2ccccc2[n+](C)c2ccc(OC)c(OCC[n+]3ccc4c(oc5ccccc54)c3C)c12 (optimized conformer: 189.51349008484405 kcal/mol)

>  <smiles>  (14) 
CCN(CC)CCNc1c2ccccc2[n+](C)c2ccc(OC)c(OCC[n+]3ccc4c(oc5ccccc54)c3C)c12

>  <score_type>  (14) 
oracle

>  <origin>  (14) 
adg

>  <m_score__min__energy>  (14) 
-4.9500000000000002

>  <m_primary>  (14) 
energy

$$$$
14:0
     RDKit          3D

 38 39  0  0  0  0  0  0  0  0999 V2000
   58.7750   32.0930   49.1740 C   0  0  0  0  0  0  0  0  0  0  0  0
   58.8800   30.5960   49.4570 C   0  0  0  0  0  0  0  0  0  0  0  0
   59.5220   29.8900   48.3370 N   0  0  0  0  0  0  0  0  0  0  0  0
   60.2670   30.8160   47.4480 C   0  0  0  0  0  0  0  0  0  0  0  0
   59.8880   30.6900   45.9470 C   0  0  2  0  0  0  0  0  0  0  0  0
   58.5060   31.3500   45.6370 C   0  0  0  0  0  0  0  0  0  0  0  0
   57.6100   30.5170   44.7050 C   0  0  0  0  0  0  0  0  0  0  0  0
   57.5510   29.0860   45.1790 C   0  0  0  0  0  0  0  0  0  0  0  0
   58.7570   28.4610   45.5360 C   0  0  0  0  0  0  0  0  0  0  0  0
   58.7540   27.1260   45.9600 C   0  0  0  0  0  0  0  0  0  0  0  0
   57.5530   26.4200   46.0440 C   0  0  0  0  0  0  0  0  0  0  0  0
   56.3380   27.0350   45.6870 C   0  0  0  0  0  0  0  0  0  0  0  0
   55.1100   26.3580   45.7530 O   0  0  0  0  0  0  0  0  0  0  0  0
   54.9580   24.9500   45.6000 C   0  0  0  0  0  0  0  0  0  0  0  0
   56.3440   28.3670   45.2470 C   0  0  0  0  0  0  0  0  0  0  0  0
   55.1440   28.9700   44.8810 O   0  0  0  0  0  0  0  0  0  0  0  0
   60.0400   29.2390   45.4180 C   0  0  0  0  0  0  0  0  0  0  0  0
   58.7363   32.6441   50.1252 H   0  0  0  0  0  0  0  0  0  0  0  0
   59.6525   32.4194   48.5965 H   0  0  0  0  0  0  0  0  0  0  0  0
   57.8606   32.2937   48.5965 H   0  0  0  0  0  0  0  0  0  0  0  0
   59.4775   30.4434   50.3679 H   0  0  0  0  0  0  0  0  0  0  0  0
   57.8651   30.1929   49.5890 H   0  0  0  0  0  0  0  0  0  0  0  0
   60.1390   29.1350   48.7130 H   0  0  0  0  0  0  0  0  0  0  0  0
   58.7730   29.4210   47.7740 H   0  0  0  0  0  0  0  0  0  0  0  0
   60.0613   31.8470   47.7716 H   0  0  0  0  0  0  0  0  0  0  0  0
   61.3313   30.5510   47.5315 H   0  0  0  0  0  0  0  0  0  0  0  0
   60.6209   31.2730   45.3700 H   0  0  0  0  0  0  0  0  0  0  0  0
   57.9727   31.4987   46.5875 H   0  0  0  0  0  0  0  0  0  0  0  0
   58.7148   32.2960   45.1159 H   0  0  0  0  0  0  0  0  0  0  0  0
   56.5950   30.9409   44.7027 H   0  0  0  0  0  0  0  0  0  0  0  0
   58.0299   30.5409   43.6886 H   0  0  0  0  0  0  0  0  0  0  0  0
   59.7003   26.6330   46.2273 H   0  0  0  0  0  0  0  0  0  0  0  0
   57.5558   25.3763   46.3914 H   0  0  0  0  0  0  0  0  0  0  0  0
   54.9069   24.4768   46.5917 H   0  0  0  0  0  0  0  0  0  0  0  0
   54.0319   24.7393   45.0451 H   0  0  0  0  0  0  0  0  0  0  0  0
   55.8178   24.5465   45.0451 H   0  0  0  0  0  0  0  0  0  0  0  0
   60.8206   28.7280   46.0008 H   0  0  0  0  0  0  0  0  0  0  0  0
   60.3102   29.2911   44.3530 H   0  0  0  0  0  0  0  0  0  0  0  0
  1  2  1  0
  2  3  1  0
  3  4  1  0
  4  5  1  0
  5  6  1  0
  6  7  1  0
  7  8  1  0
  8  9  2  0
  9 10  1  0
 10 11  2  0
 11 12  1  0
 12 13  1  0
 13 14  1  0
 12 15  2  0
 15 16  1  0
  9 17  1  0
 17  5  1  0
 15  8  1  0
  1 18  1  0
  1 19  1  0
  1 20  1  0
  2 21  1  0
  2 22  1  0
  3 23  1  0
  3 24  1  0
  4 25  1  0
  4 26  1  0
  5 27  1  6
  6 28  1  0
  6 29  1  0
  7 30  1  0
  7 31  1  0
 10 32  1  0
 11 33  1  0
 14 34  1  0
 14 35  1  0
 14 36  1  0
 17 37  1  0
 17 38  1  0
M  CHG  2   3   1  16  -1
M  END
>  <UniqueID>  (15) 
15

>  <SMILES>  (15) 
CC[NH2+]C[C@@H]1CCc2c(ccc(OC)c2[O-])C1

>  <Energy>  (15) 
41.77171665796546

>  <Genealogy>  (15) 
CC[NH2+]CC1CCc2c(ccc(OC)c2[O-])C1 (protonated)
CC[NH2+]C[C@@H]1CCc2c(ccc(OC)c2[O-])C1 (chirality)
CC[NH2+]C[C@@H]1CCc2c(ccc(OC)c2[O-])C1 (3D coordinates assigned)
CC[NH2+]C[C@@H]1CCc2c(ccc(OC)c2[O-])C1 (nonaromatic ring conformer: 41.77171665796546 kcal/mol)

>  <smiles>  (15) 
CCNCC1CCc2c(ccc(OC)c2O)C1

>  <score_type>  (15) 
oracle

>  <origin>  (15) 
adg

>  <m_score__min__energy>  (15) 
-8.4100000000000001

>  <m_primary>  (15) 
energy

$$$$
15:0
     RDKit          3D

 56 58  0  0  0  0  0  0  0  0999 V2000
   63.3840   33.5170   47.2170 C   0  0  0  0  0  0  0  0  0  0  0  0
   62.4720   32.2910   47.1360 C   0  0  0  0  0  0  0  0  0  0  0  0
   61.8820   31.9820   48.4590 N   0  0  0  0  0  0  0  0  0  0  0  0
   61.1040   33.1330   48.9560 C   0  0  0  0  0  0  0  0  0  0  0  0
   62.9320   31.6340   49.4450 C   0  0  0  0  0  0  0  0  0  0  0  0
   62.4490   30.5560   50.4190 C   0  0  0  0  0  0  0  0  0  0  0  0
   61.4700   29.6710   49.7590 N   0  0  0  0  0  0  0  0  0  0  0  0
   60.1160   29.8100   50.3120 C   0  0  0  0  0  0  0  0  0  0  0  0
   59.0570   30.0410   49.2130 C   0  0  0  0  0  0  0  0  0  0  0  0
   59.6750   30.2750   47.9030 N   0  0  0  0  0  0  0  0  0  0  0  0
   58.9230   30.2470   46.6730 C   0  0  0  0  0  0  0  0  0  0  0  0
   58.5650   29.0220   46.0810 C   0  0  0  0  0  0  0  0  0  0  0  0
   58.7760   27.8000   46.7550 C   0  0  0  0  0  0  0  0  0  0  0  0
   58.5330   26.5860   46.1210 C   0  0  0  0  0  0  0  0  0  0  0  0
   58.0550   26.5650   44.8140 C   0  0  0  0  0  0  0  0  0  0  0  0
   57.7800   27.7610   44.1510 C   0  0  0  0  0  0  0  0  0  0  0  0
   57.9740   29.0130   44.7880 C   0  0  0  0  0  0  0  0  0  0  0  0
   57.6160   30.2020   44.1810 N   0  0  0  0  0  0  0  0  0  0  0  0
   56.7460   30.1890   42.9830 C   0  0  0  0  0  0  0  0  0  0  0  0
   58.0410   31.4070   44.7080 C   0  0  0  0  0  0  0  0  0  0  0  0
   57.9000   32.6220   43.9920 C   0  0  0  0  0  0  0  0  0  0  0  0
   58.3030   33.8370   44.5390 C   0  0  0  0  0  0  0  0  0  0  0  0
   58.8900   33.8850   45.8080 C   0  0  0  0  0  0  0  0  0  0  0  0
   59.3030   35.1420   46.3760 N   0  0  0  0  0  0  0  0  0  0  0  0
   59.7080   36.0680   45.6430 O   0  0  0  0  0  0  0  0  0  0  0  0
   59.2410   35.3500   47.7350 O   0  0  0  0  0  0  0  0  0  0  0  0
   59.0830   32.6900   46.5120 C   0  0  0  0  0  0  0  0  0  0  0  0
   58.6730   31.4480   45.9790 C   0  0  0  0  0  0  0  0  0  0  0  0
   63.5698   33.7667   48.2720 H   0  0  0  0  0  0  0  0  0  0  0  0
   64.3395   33.2967   46.7186 H   0  0  0  0  0  0  0  0  0  0  0  0
   62.8983   34.3689   46.7186 H   0  0  0  0  0  0  0  0  0  0  0  0
   61.6625   32.4913   46.4187 H   0  0  0  0  0  0  0  0  0  0  0  0
   63.0712   31.4286   46.8087 H   0  0  0  0  0  0  0  0  0  0  0  0
   61.1063   33.1296   50.0560 H   0  0  0  0  0  0  0  0  0  0  0  0
   61.5570   34.0667   48.5913 H   0  0  0  0  0  0  0  0  0  0  0  0
   60.0687   33.0608   48.5913 H   0  0  0  0  0  0  0  0  0  0  0  0
   63.8170   31.2611   48.9087 H   0  0  0  0  0  0  0  0  0  0  0  0
   63.1773   32.5374   50.0226 H   0  0  0  0  0  0  0  0  0  0  0  0
   63.3094   29.9587   50.7550 H   0  0  0  0  0  0  0  0  0  0  0  0
   61.9681   31.0419   51.2808 H   0  0  0  0  0  0  0  0  0  0  0  0
   61.4470   29.8750   48.7320 H   0  0  0  0  0  0  0  0  0  0  0  0
   59.8618   28.8914   50.8611 H   0  0  0  0  0  0  0  0  0  0  0  0
   60.1110   30.6878   50.9750 H   0  0  0  0  0  0  0  0  0  0  0  0
   58.4108   29.1531   49.1486 H   0  0  0  0  0  0  0  0  0  0  0  0
   58.4744   30.9346   49.4813 H   0  0  0  0  0  0  0  0  0  0  0  0
   60.7190   30.2440   47.8490 H   0  0  0  0  0  0  0  0  0  0  0  0
   59.1369   27.8078   47.7941 H   0  0  0  0  0  0  0  0  0  0  0  0
   58.7188   25.6414   46.6532 H   0  0  0  0  0  0  0  0  0  0  0  0
   57.8939   25.6041   44.3033 H   0  0  0  0  0  0  0  0  0  0  0  0
   57.4064   27.7325   43.1168 H   0  0  0  0  0  0  0  0  0  0  0  0
   55.6915   30.1732   43.2958 H   0  0  0  0  0  0  0  0  0  0  0  0
   56.9366   31.0901   42.3816 H   0  0  0  0  0  0  0  0  0  0  0  0
   56.9635   29.2940   42.3816 H   0  0  0  0  0  0  0  0  0  0  0  0
   57.4629   32.6045   42.9827 H   0  0  0  0  0  0  0  0  0  0  0  0
   58.1588   34.7667   43.9690 H   0  0  0  0  0  0  0  0  0  0  0  0
   59.5640   32.7192   47.5008 H   0  0  0  0  0  0  0  0  0  0  0  0
  1  2  1  0
  2  3  1  0
  3  4  1  0
  3  5  1  0
  5  6  1  0
  6  7  1  0
  7  8  1  0
  8  9  1  0
  9 10  1  0
 10 11  1  0
 11 12  2  0
 12 13  1  0
 13 14  2  0
 14 15  1  0
 15 16  2  0
 16 17  1  0
 17 18  2  0
 18 19  1  0
 18 20  1  0
 20 21  2  0
 21 22  1  0
 22 23  2  0
 23 24  1  0
 24 25  2  0
 24 26  1  0
 23 27  1  0
 27 28  2  0
 28 11  1  0
 17 12  1  0
 28 20  1  0
  1 29  1  0
  1 30  1  0
  1 31  1  0
  2 32  1  0
  2 33  1  0
  4 34  1  0
  4 35  1  0
  4 36  1  0
  5 37  1  0
  5 38  1  0
  6 39  1  0
  6 40  1  0
  7 41  1  0
  8 42  1  0
  8 43  1  0
  9 44  1  0
  9 45  1  0
 10 46  1  0
 13 47  1  0
 14 48  1  0
 15 49  1  0
 16 50  1  0
 19 51  1  0
 19 52  1  0
 19 53  1  0
 21 54  1  0
 22 55  1  0
 27 56  1  0
M  CHG  3  18   1  24   1  26  -1
M  END
>  <UniqueID>  (16) 
16

>  <SMILES>  (16) 
CCN(C)CCNCCNc1c2ccccc2[n+](C)c2ccc([N+](=O)[O-])cc12

>  <Energy>  (16) 
80.59919328830365

>  <Genealogy>  (16) 
CCN(C)CCNCCNc1c2ccccc2[n+](C)c2ccc([N+](=O)[O-])cc12 (3D coordinates assigned)
CCN(C)CCNCCNc1c2ccccc2[n+](C)c2ccc([N+](=O)[O-])cc12 (optimized conformer: 80.59919328830365 kcal/mol)

>  <smiles>  (16) 
CCN(C)CCNCCNc1c2ccccc2[n+](C)c2ccc([N+](=O)[O-])cc12

>  <score_type>  (16) 
oracle

>  <origin>  (16) 
adg

>  <m_score__min__energy>  (16) 
-6.4100000000000001

>  <m_primary>  (16) 
energy

$$$$
16:0
     RDKit          3D

 46 47  0  0  0  0  0  0  0  0999 V2000
   55.8190   24.5250   46.7090 O   0  0  0  0  0  0  0  0  0  0  0  0
   55.8090   25.7360   46.3630 C   0  0  0  0  0  0  0  0  0  0  0  0
   54.6130   26.3360   45.9790 O   0  0  0  0  0  0  0  0  0  0  0  0
   57.0770   26.5310   46.3720 C   0  0  0  0  0  0  0  0  0  0  0  0
   57.3710   27.0990   44.9790 C   0  0  0  0  0  0  0  0  0  0  0  0
   57.6950   28.5920   45.0550 C   0  0  0  0  0  0  0  0  0  0  0  0
   56.4620   29.3570   45.3030 N   0  0  0  0  0  0  0  0  0  0  0  0
   55.9720   30.0090   44.0760 C   0  0  0  0  0  0  0  0  0  0  0  0
   56.7050   31.3310   43.8480 C   0  0  0  0  0  0  0  0  0  0  0  0
   56.7170   32.0910   45.0530 O   0  0  0  0  0  0  0  0  0  0  0  0
   57.7570   32.9350   45.4670 C   0  0  0  0  0  0  0  0  0  0  0  0
   58.0740   34.1250   44.7850 C   0  0  0  0  0  0  0  0  0  0  0  0
   59.0990   34.9500   45.2520 C   0  0  0  0  0  0  0  0  0  0  0  0
   59.8170   34.5950   46.3960 C   0  0  0  0  0  0  0  0  0  0  0  0
   59.5190   33.4100   47.0710 C   0  0  0  0  0  0  0  0  0  0  0  0
   58.4890   32.5680   46.6070 C   0  0  0  0  0  0  0  0  0  0  0  0
   58.1660   31.3530   47.2350 O   0  0  0  0  0  0  0  0  0  0  0  0
   59.0080   30.6330   48.1350 C   0  0  0  0  0  0  0  0  0  0  0  0
   59.6060   29.4360   47.4500 C   0  0  0  0  0  0  0  0  0  0  0  0
   60.2640   29.5910   46.2180 C   0  0  0  0  0  0  0  0  0  0  0  0
   60.8240   28.4830   45.5750 C   0  0  0  0  0  0  0  0  0  0  0  0
   60.7360   27.2160   46.1580 C   0  0  0  0  0  0  0  0  0  0  0  0
   60.0910   27.0550   47.3870 C   0  0  0  0  0  0  0  0  0  0  0  0
   59.5300   28.1610   48.0350 C   0  0  0  0  0  0  0  0  0  0  0  0
   56.9775   27.3612   47.0867 H   0  0  0  0  0  0  0  0  0  0  0  0
   57.9060   25.8707   46.6666 H   0  0  0  0  0  0  0  0  0  0  0  0
   58.2304   26.5656   44.5467 H   0  0  0  0  0  0  0  0  0  0  0  0
   56.4790   26.9648   44.3495 H   0  0  0  0  0  0  0  0  0  0  0  0
   58.4066   28.7701   45.8747 H   0  0  0  0  0  0  0  0  0  0  0  0
   58.1388   28.9166   44.1023 H   0  0  0  0  0  0  0  0  0  0  0  0
   56.6870   30.1030   46.0050 H   0  0  0  0  0  0  0  0  0  0  0  0
   56.1472   29.3443   43.2172 H   0  0  0  0  0  0  0  0  0  0  0  0
   54.8960   30.2107   44.1835 H   0  0  0  0  0  0  0  0  0  0  0  0
   57.7395   31.1256   43.5356 H   0  0  0  0  0  0  0  0  0  0  0  0
   56.1871   31.9025   43.0637 H   0  0  0  0  0  0  0  0  0  0  0  0
   57.5126   34.4057   43.8816 H   0  0  0  0  0  0  0  0  0  0  0  0
   59.3413   35.8808   44.7182 H   0  0  0  0  0  0  0  0  0  0  0  0
   60.6191   35.2506   46.7660 H   0  0  0  0  0  0  0  0  0  0  0  0
   60.0907   33.1324   47.9689 H   0  0  0  0  0  0  0  0  0  0  0  0
   59.8164   31.2935   48.4817 H   0  0  0  0  0  0  0  0  0  0  0  0
   58.4062   30.2909   48.9898 H   0  0  0  0  0  0  0  0  0  0  0  0
   60.3387   30.5874   45.7580 H   0  0  0  0  0  0  0  0  0  0  0  0
   61.3346   28.6087   44.6088 H   0  0  0  0  0  0  0  0  0  0  0  0
   61.1747   26.3450   45.6491 H   0  0  0  0  0  0  0  0  0  0  0  0
   60.0242   26.0574   47.8457 H   0  0  0  0  0  0  0  0  0  0  0  0
   59.0280   28.0318   49.0052 H   0  0  0  0  0  0  0  0  0  0  0  0
  1  2  2  0
  2  3  1  0
  2  4  1  0
  4  5  1  0
  5  6  1  0
  6  7  1  0
  7  8  1  0
  8  9  1  0
  9 10  1  0
 10 11  1  0
 11 12  2  0
 12 13  1  0
 13 14  2  0
 14 15  1  0
 15 16  2  0
 16 17  1  0
 17 18  1  0
 18 19  1  0
 19 20  2  0
 20 21  1  0
 21 22  2  0
 22 23  1  0
 23 24  2  0
 16 11  1  0
 24 19  1  0
  4 25  1  0
  4 26  1  0
  5 27  1  0
  5 28  1  0
  6 29  1  0
  6 30  1  0
  7 31  1  0
  8 32  1  0
  8 33  1  0
  9 34  1  0
  9 35  1  0
 12 36  1  0
 13 37  1  0
 14 38  1  0
 15 39  1  0
 18 40  1  0
 18 41  1  0
 20 42  1  0
 21 43  1  0
 22 44  1  0
 23 45  1  0
 24 46  1  0
M  CHG  1   3  -1
M  END
>  <UniqueID>  (17) 
17

>  <SMILES>  (17) 
O=C([O-])CCCNCCOc1ccccc1OCc1ccccc1

>  <Energy>  (17) 
36.761899757628015

>  <Genealogy>  (17) 
O=C([O-])CCCNCCOc1ccccc1OCc1ccccc1 (3D coordinates assigned)
O=C([O-])CCCNCCOc1ccccc1OCc1ccccc1 (optimized conformer: 36.761899757628015 kcal/mol)

>  <smiles>  (17) 
O=C([O-])CCCNCCOc1ccccc1OCc1ccccc1

>  <score_type>  (17) 
oracle

>  <origin>  (17) 
adg

>  <m_score__min__energy>  (17) 
-11.16

>  <m_primary>  (17) 
energy

$$$$
17:0
     RDKit          3D

 42 43  0  0  0  0  0  0  0  0999 V2000
   57.4050   34.0320   44.8570 C   0  0  0  0  0  0  0  0  0  0  0  0
   57.9100   32.6430   44.5020 C   0  0  0  0  0  0  0  0  0  0  0  0
   56.9210   31.6920   44.8320 O   0  0  0  0  0  0  0  0  0  0  0  0
   57.1000   30.5340   44.0460 C   0  0  0  0  0  0  0  0  0  0  0  0
   56.6330   29.3380   44.8160 C   0  0  0  0  0  0  0  0  0  0  0  0
   55.4390   29.3070   45.2220 O   0  0  0  0  0  0  0  0  0  0  0  0
   57.5180   28.2340   45.1000 N   0  0  0  0  0  0  0  0  0  0  0  0
   58.4010   27.7370   44.0330 C   0  0  0  0  0  0  0  0  0  0  0  0
   59.8600   28.2020   44.1960 C   0  0  0  0  0  0  0  0  0  0  0  0
   60.4280   27.9840   45.6120 C   0  0  0  0  0  0  0  0  0  0  0  0
   59.6100   28.5760   46.6920 N   0  0  0  0  0  0  0  0  0  0  0  0
   59.8950   29.9370   47.0860 C   0  0  0  0  0  0  0  0  0  0  0  0
   61.2090   30.3910   47.3080 C   0  0  0  0  0  0  0  0  0  0  0  0
   61.4190   31.6750   47.6990 N   0  0  0  0  0  0  0  0  0  0  0  0
   60.3880   32.5380   47.8790 C   0  0  0  0  0  0  0  0  0  0  0  0
   59.0790   32.0980   47.6660 C   0  0  0  0  0  0  0  0  0  0  0  0
   57.9190   33.0160   47.8810 C   0  0  0  0  0  0  0  0  0  0  0  0
   58.8670   30.8110   47.2840 N   0  0  0  0  0  0  0  0  0  0  0  0
   58.5350   27.8060   47.3440 C   0  0  0  0  0  0  0  0  0  0  0  0
   57.3950   27.4870   46.3640 C   0  0  0  0  0  0  0  0  0  0  0  0
   57.3659   34.1394   45.9510 H   0  0  0  0  0  0  0  0  0  0  0  0
   58.0859   34.7878   44.4384 H   0  0  0  0  0  0  0  0  0  0  0  0
   56.3977   34.1740   44.4384 H   0  0  0  0  0  0  0  0  0  0  0  0
   58.1232   32.5933   43.4240 H   0  0  0  0  0  0  0  0  0  0  0  0
   58.8309   32.4293   45.0645 H   0  0  0  0  0  0  0  0  0  0  0  0
   56.5158   30.6252   43.1185 H   0  0  0  0  0  0  0  0  0  0  0  0
   58.1649   30.4189   43.7955 H   0  0  0  0  0  0  0  0  0  0  0  0
   58.3800   26.6373   44.0441 H   0  0  0  0  0  0  0  0  0  0  0  0
   58.0295   28.1445   43.0812 H   0  0  0  0  0  0  0  0  0  0  0  0
   60.4837   27.6436   43.4824 H   0  0  0  0  0  0  0  0  0  0  0  0
   59.8735   29.2859   44.0088 H   0  0  0  0  0  0  0  0  0  0  0  0
   60.5031   26.9012   45.7904 H   0  0  0  0  0  0  0  0  0  0  0  0
   61.4042   28.4901   45.6419 H   0  0  0  0  0  0  0  0  0  0  0  0
   62.0609   29.7099   47.1657 H   0  0  0  0  0  0  0  0  0  0  0  0
   60.5808   33.5754   48.1900 H   0  0  0  0  0  0  0  0  0  0  0  0
   57.7514   33.1486   48.9600 H   0  0  0  0  0  0  0  0  0  0  0  0
   58.1333   33.9917   47.4206 H   0  0  0  0  0  0  0  0  0  0  0  0
   57.0186   32.5832   47.4206 H   0  0  0  0  0  0  0  0  0  0  0  0
   58.9524   26.8626   47.7257 H   0  0  0  0  0  0  0  0  0  0  0  0
   58.1246   28.4135   48.1640 H   0  0  0  0  0  0  0  0  0  0  0  0
   57.4112   26.4099   46.1412 H   0  0  0  0  0  0  0  0  0  0  0  0
   56.4491   27.7849   46.8400 H   0  0  0  0  0  0  0  0  0  0  0  0
  1  2  1  0
  2  3  1  0
  3  4  1  0
  4  5  1  0
  5  6  2  0
  5  7  1  0
  7  8  1  0
  8  9  1  0
  9 10  1  0
 10 11  1  0
 11 12  1  0
 12 13  2  0
 13 14  1  0
 14 15  2  0
 15 16  1  0
 16 17  1  0
 16 18  2  0
 11 19  1  0
 19 20  1  0
 20  7  1  0
 18 12  1  0
  1 21  1  0
  1 22  1  0
  1 23  1  0
  2 24  1  0
  2 25  1  0
  4 26  1  0
  4 27  1  0
  8 28  1  0
  8 29  1  0
  9 30  1  0
  9 31  1  0
 10 32  1  0
 10 33  1  0
 13 34  1  0
 15 35  1  0
 17 36  1  0
 17 37  1  0
 17 38  1  0
 19 39  1  0
 19 40  1  0
 20 41  1  0
 20 42  1  0
M  END
>  <UniqueID>  (18) 
18

>  <SMILES>  (18) 
CCOCC(=O)N1CCCN(c2cncc(C)n2)CC1

>  <Energy>  (18) 
47.21352321162588

>  <Genealogy>  (18) 
CCOCC(=O)N1CCCN(c2cncc(C)n2)CC1 (3D coordinates assigned)
CCOCC(=O)N1CCCN(c2cncc(C)n2)CC1 (nonaromatic ring conformer: 47.21352321162588 kcal/mol)

>  <smiles>  (18) 
CCOCC(=O)N1CCCN(c2cncc(C)n2)CC1

>  <score_type>  (18) 
oracle

>  <origin>  (18) 
adg

>  <m_score__min__energy>  (18) 
-4.0700000000000003

>  <m_primary>  (18) 
energy

$$$$
18:0
     RDKit          3D

 66 69  0  0  0  0  0  0  0  0999 V2000
   55.9040   29.7170   43.6150 C   0  0  0  0  0  0  0  0  0  0  0  0
   56.8880   30.8370   43.9090 C   0  0  0  0  0  0  0  0  0  0  0  0
   57.2990   30.7580   45.2700 O   0  0  0  0  0  0  0  0  0  0  0  0
   58.3140   31.5370   45.8490 C   0  0  0  0  0  0  0  0  0  0  0  0
   58.0860   32.8660   46.2520 C   0  0  0  0  0  0  0  0  0  0  0  0
   59.1200   33.6270   46.8040 C   0  0  0  0  0  0  0  0  0  0  0  0
   60.4000   33.0780   46.9560 C   0  0  0  0  0  0  0  0  0  0  0  0
   61.5250   33.9170   47.5060 C   0  0  0  0  0  0  0  0  0  0  0  0
   62.8360   33.6850   46.7400 C   0  0  0  0  0  0  0  0  0  0  0  0
   63.6850   32.6830   47.4040 N   0  0  0  0  0  0  0  0  0  0  0  0
   64.1000   33.0640   48.7670 C   0  0  0  0  0  0  0  0  0  0  0  0
   63.6320   32.0840   49.8610 C   0  0  0  0  0  0  0  0  0  0  0  0
   62.1620   32.1950   50.1440 C   0  0  0  0  0  0  0  0  0  0  0  0
   61.5240   33.2500   50.7920 C   0  0  0  0  0  0  0  0  0  0  0  0
   60.2010   32.9870   50.9190 N   0  0  0  0  0  0  0  0  0  0  0  0
   59.2100   33.8380   51.5700 C   0  0  0  0  0  0  0  0  0  0  0  0
   59.9990   31.7700   50.3730 C   0  0  0  0  0  0  0  0  0  0  0  0
   58.8010   31.0560   50.2860 C   0  0  0  0  0  0  0  0  0  0  0  0
   58.8340   29.7860   49.6790 C   0  0  0  0  0  0  0  0  0  0  0  0
   60.0470   29.2630   49.1790 C   0  0  0  0  0  0  0  0  0  0  0  0
   61.2390   30.0030   49.2820 C   0  0  0  0  0  0  0  0  0  0  0  0
   61.1770   31.2580   49.8880 C   0  0  0  0  0  0  0  0  0  0  0  0
   60.6340   31.7590   46.5470 C   0  0  0  0  0  0  0  0  0  0  0  0
   59.5950   30.9690   46.0250 C   0  0  0  0  0  0  0  0  0  0  0  0
   59.8850   29.5380   45.5980 C   0  0  0  0  0  0  0  0  0  0  0  0
   58.7070   28.6340   45.5760 N   0  0  0  0  0  0  0  0  0  0  0  0
   58.6480   27.7170   44.4330 C   0  0  0  0  0  0  0  0  0  0  0  0
   57.6830   26.6050   44.8290 C   0  0  0  0  0  0  0  0  0  0  0  0
   57.6050   26.6590   46.3520 C   0  0  0  0  0  0  0  0  0  0  0  0
   58.5460   27.7850   46.7620 C   0  0  0  0  0  0  0  0  0  0  0  0
   55.5341   29.2960   44.5616 H   0  0  0  0  0  0  0  0  0  0  0  0
   55.0581   30.1149   43.0353 H   0  0  0  0  0  0  0  0  0  0  0  0
   56.4075   28.9293   43.0353 H   0  0  0  0  0  0  0  0  0  0  0  0
   57.7658   30.7362   43.2538 H   0  0  0  0  0  0  0  0  0  0  0  0
   56.4056   31.8085   43.7259 H   0  0  0  0  0  0  0  0  0  0  0  0
   57.0864   33.3091   46.1316 H   0  0  0  0  0  0  0  0  0  0  0  0
   58.9279   34.6627   47.1209 H   0  0  0  0  0  0  0  0  0  0  0  0
   61.2492   34.9789   47.4265 H   0  0  0  0  0  0  0  0  0  0  0  0
   61.6860   33.6281   48.5551 H   0  0  0  0  0  0  0  0  0  0  0  0
   62.5983   33.3343   45.7248 H   0  0  0  0  0  0  0  0  0  0  0  0
   63.3881   34.6360   46.7097 H   0  0  0  0  0  0  0  0  0  0  0  0
   64.5240   32.4920   46.8090 H   0  0  0  0  0  0  0  0  0  0  0  0
   65.1986   33.1130   48.7933 H   0  0  0  0  0  0  0  0  0  0  0  0
   63.6279   34.0334   48.9845 H   0  0  0  0  0  0  0  0  0  0  0  0
   63.8510   31.0575   49.5318 H   0  0  0  0  0  0  0  0  0  0  0  0
   64.1698   32.3362   50.7868 H   0  0  0  0  0  0  0  0  0  0  0  0
   62.0218   34.1637   51.1487 H   0  0  0  0  0  0  0  0  0  0  0  0
   59.3120   33.7504   52.6618 H   0  0  0  0  0  0  0  0  0  0  0  0
   59.3707   34.8839   51.2694 H   0  0  0  0  0  0  0  0  0  0  0  0
   58.2004   33.5211   51.2694 H   0  0  0  0  0  0  0  0  0  0  0  0
   57.8621   31.4728   50.6792 H   0  0  0  0  0  0  0  0  0  0  0  0
   57.9088   29.1971   49.5936 H   0  0  0  0  0  0  0  0  0  0  0  0
   60.0597   28.2701   48.7057 H   0  0  0  0  0  0  0  0  0  0  0  0
   62.1894   29.6048   48.8971 H   0  0  0  0  0  0  0  0  0  0  0  0
   61.6452   31.3352   46.6355 H   0  0  0  0  0  0  0  0  0  0  0  0
   60.3122   29.5651   44.5847 H   0  0  0  0  0  0  0  0  0  0  0  0
   60.5712   29.1271   46.3531 H   0  0  0  0  0  0  0  0  0  0  0  0
   57.8580   29.2500   45.5220 H   0  0  0  0  0  0  0  0  0  0  0  0
   58.2779   28.2432   43.5407 H   0  0  0  0  0  0  0  0  0  0  0  0
   59.6429   27.3162   44.1889 H   0  0  0  0  0  0  0  0  0  0  0  0
   56.6913   26.7804   44.3864 H   0  0  0  0  0  0  0  0  0  0  0  0
   58.0231   25.6219   44.4715 H   0  0  0  0  0  0  0  0  0  0  0  0
   56.5774   26.8775   46.6779 H   0  0  0  0  0  0  0  0  0  0  0  0
   57.8871   25.7003   46.8118 H   0  0  0  0  0  0  0  0  0  0  0  0
   58.1104   28.3641   47.5896 H   0  0  0  0  0  0  0  0  0  0  0  0
   59.5133   27.3933   47.1098 H   0  0  0  0  0  0  0  0  0  0  0  0
  1  2  1  0
  2  3  1  0
  3  4  1  0
  4  5  2  0
  5  6  1  0
  6  7  2  0
  7  8  1  0
  8  9  1  0
  9 10  1  0
 10 11  1  0
 11 12  1  0
 12 13  1  0
 13 14  2  0
 14 15  1  0
 15 16  1  0
 15 17  1  0
 17 18  2  0
 18 19  1  0
 19 20  2  0
 20 21  1  0
 21 22  2  0
  7 23  1  0
 23 24  2  0
 24 25  1  0
 25 26  1  0
 26 27  1  0
 27 28  1  0
 28 29  1  0
 29 30  1  0
 24  4  1  0
 30 26  1  0
 22 13  1  0
 22 17  1  0
  1 31  1  0
  1 32  1  0
  1 33  1  0
  2 34  1  0
  2 35  1  0
  5 36  1  0
  6 37  1  0
  8 38  1  0
  8 39  1  0
  9 40  1  0
  9 41  1  0
 10 42  1  0
 11 43  1  0
 11 44  1  0
 12 45  1  0
 12 46  1  0
 14 47  1  0
 16 48  1  0
 16 49  1  0
 16 50  1  0
 18 51  1  0
 19 52  1  0
 20 53  1  0
 21 54  1  0
 23 55  1  0
 25 56  1  0
 25 57  1  0
 26 58  1  0
 27 59  1  0
 27 60  1  0
 28 61  1  0
 28 62  1  0
 29 63  1  0
 29 64  1  0
 30 65  1  0
 30 66  1  0
M  CHG  1  26   1
M  END
>  <UniqueID>  (19) 
19

>  <SMILES>  (19) 
CCOc1ccc(CCNCCc2cn(C)c3ccccc23)cc1C[NH+]1CCCC1

>  <Energy>  (19) 
101.88083354972412

>  <Genealogy>  (19) 
CCOc1ccc(CCNCCc2cn(C)c3ccccc23)cc1C[NH+]1CCCC1 (protonated)
CCOc1ccc(CCNCCc2cn(C)c3ccccc23)cc1C[NH+]1CCCC1 (3D coordinates assigned)
CCOc1ccc(CCNCCc2cn(C)c3ccccc23)cc1C[NH+]1CCCC1 (nonaromatic ring conformer: 101.88083354972412 kcal/mol)

>  <smiles>  (19) 
CCOc1ccc(CCNCCc2cn(C)c3ccccc23)cc1CN1CCCC1

>  <score_type>  (19) 
oracle

>  <origin>  (19) 
adg

>  <m_score__min__energy>  (19) 
-6.7000000000000002

>  <m_primary>  (19) 
energy

$$$$
19:0
     RDKit          3D

 46 48  0  0  0  0  0  0  0  0999 V2000
   65.0260   32.7280   49.7600 C   0  0  0  0  0  0  0  0  0  0  0  0
   63.8570   31.9560   49.1300 C   0  0  0  0  0  0  0  0  0  0  0  0
   62.8100   32.8290   48.5490 N   0  0  0  0  0  0  0  0  0  0  0  0
   63.3840   34.0210   47.8840 C   0  0  0  0  0  0  0  0  0  0  0  0
   63.3710   33.8700   46.3650 C   0  0  0  0  0  0  0  0  0  0  0  0
   61.7300   33.1540   49.5150 C   0  0  0  0  0  0  0  0  0  0  0  0
   60.3560   32.9090   48.8800 C   0  0  0  0  0  0  0  0  0  0  0  0
   60.4650   32.6890   47.4380 N   0  0  0  0  0  0  0  0  0  0  0  0
   59.3290   32.8920   46.5900 C   0  0  0  0  0  0  0  0  0  0  0  0
   58.6040   31.8000   46.1080 C   0  0  0  0  0  0  0  0  0  0  0  0
   57.5440   31.9780   45.2500 C   0  0  0  0  0  0  0  0  0  0  0  0
   57.1520   33.2460   44.8460 C   0  0  0  0  0  0  0  0  0  0  0  0
   57.8770   34.3400   45.3500 C   0  0  0  0  0  0  0  0  0  0  0  0
   58.9320   34.1600   46.2180 N   0  0  0  0  0  0  0  0  0  0  0  0
   59.6620   35.3400   46.6940 C   0  0  0  0  0  0  0  0  0  0  0  0
   57.0080   30.8270   44.8990 O   0  0  0  0  0  0  0  0  0  0  0  0
   57.7000   29.8890   45.5150 C   0  0  0  0  0  0  0  0  0  0  0  0
   57.5020   28.5120   45.4480 C   0  0  0  0  0  0  0  0  0  0  0  0
   58.3630   27.6850   46.1930 C   0  0  0  0  0  0  0  0  0  0  0  0
   59.3880   28.2470   46.9860 C   0  0  0  0  0  0  0  0  0  0  0  0
   59.5660   29.6410   47.0420 C   0  0  0  0  0  0  0  0  0  0  0  0
   58.7060   30.4360   46.2840 C   0  0  0  0  0  0  0  0  0  0  0  0
   64.9501   32.6779   50.8562 H   0  0  0  0  0  0  0  0  0  0  0  0
   65.9775   32.2800   49.4375 H   0  0  0  0  0  0  0  0  0  0  0  0
   64.9876   33.7789   49.4375 H   0  0  0  0  0  0  0  0  0  0  0  0
   64.2557   31.3133   48.3312 H   0  0  0  0  0  0  0  0  0  0  0  0
   63.3821   31.3780   49.9365 H   0  0  0  0  0  0  0  0  0  0  0  0
   62.7918   34.9056   48.1611 H   0  0  0  0  0  0  0  0  0  0  0  0
   64.4279   34.1324   48.2125 H   0  0  0  0  0  0  0  0  0  0  0  0
   63.2794   32.8056   46.1031 H   0  0  0  0  0  0  0  0  0  0  0  0
   62.5173   34.4249   45.9487 H   0  0  0  0  0  0  0  0  0  0  0  0
   64.3070   34.2708   45.9487 H   0  0  0  0  0  0  0  0  0  0  0  0
   61.8366   32.5177   50.4059 H   0  0  0  0  0  0  0  0  0  0  0  0
   61.8097   34.2142   49.7971 H   0  0  0  0  0  0  0  0  0  0  0  0
   59.9007   32.0216   49.3438 H   0  0  0  0  0  0  0  0  0  0  0  0
   59.7337   33.8004   49.0477 H   0  0  0  0  0  0  0  0  0  0  0  0
   61.3650   32.3940   46.9990 H   0  0  0  0  0  0  0  0  0  0  0  0
   56.3062   33.3899   44.1576 H   0  0  0  0  0  0  0  0  0  0  0  0
   57.5967   35.3592   45.0456 H   0  0  0  0  0  0  0  0  0  0  0  0
   59.6674   35.3488   47.7940 H   0  0  0  0  0  0  0  0  0  0  0  0
   60.6968   35.3055   46.3225 H   0  0  0  0  0  0  0  0  0  0  0  0
   59.1692   36.2506   46.3225 H   0  0  0  0  0  0  0  0  0  0  0  0
   56.6975   28.0841   44.8318 H   0  0  0  0  0  0  0  0  0  0  0  0
   58.2369   26.5928   46.1576 H   0  0  0  0  0  0  0  0  0  0  0  0
   60.0527   27.5887   47.5647 H   0  0  0  0  0  0  0  0  0  0  0  0
   60.3563   30.0891   47.6622 H   0  0  0  0  0  0  0  0  0  0  0  0
  1  2  1  0
  2  3  1  0
  3  4  1  0
  4  5  1  0
  3  6  1  0
  6  7  1  0
  7  8  1  0
  8  9  1  0
  9 10  2  0
 10 11  1  0
 11 12  2  0
 12 13  1  0
 13 14  2  0
 14 15  1  0
 11 16  1  0
 16 17  1  0
 17 18  2  0
 18 19  1  0
 19 20  2  0
 20 21  1  0
 21 22  2  0
 14  9  1  0
 22 17  1  0
 22 10  1  0
  1 23  1  0
  1 24  1  0
  1 25  1  0
  2 26  1  0
  2 27  1  0
  4 28  1  0
  4 29  1  0
  5 30  1  0
  5 31  1  0
  5 32  1  0
  6 33  1  0
  6 34  1  0
  7 35  1  0
  7 36  1  0
  8 37  1  0
 12 38  1  0
 13 39  1  0
 15 40  1  0
 15 41  1  0
 15 42  1  0
 18 43  1  0
 19 44  1  0
 20 45  1  0
 21 46  1  0
M  CHG  1  14   1
M  END
>  <UniqueID>  (20) 
20

>  <SMILES>  (20) 
CCN(CC)CCNc1c2c(cc[n+]1C)oc1ccccc12

>  <Energy>  (20) 
95.25378151844961

>  <Genealogy>  (20) 
CCN(CC)CCNc1c2c(cc[n+]1C)oc1ccccc12 (3D coordinates assigned)
CCN(CC)CCNc1c2c(cc[n+]1C)oc1ccccc12 (optimized conformer: 95.25378151844961 kcal/mol)

>  <smiles>  (20) 
CCN(CC)CCNc1c2c(cc[n+]1C)oc1ccccc12

>  <score_type>  (20) 
oracle

>  <origin>  (20) 
adg

>  <m_score__min__energy>  (20) 
-5.3799999999999999

>  <m_primary>  (20) 
energy

$$$$
20:0
     RDKit          3D

 42 44  0  0  0  0  0  0  0  0999 V2000
   62.9460   33.8730   48.2140 C   0  0  0  0  0  0  0  0  0  0  0  0
   63.2670   33.1040   46.9260 C   0  0  0  0  0  0  0  0  0  0  0  0
   63.1760   31.6470   47.1130 N   0  0  0  0  0  0  0  0  0  0  0  0
   62.4760   31.2810   48.3560 C   0  0  0  0  0  0  0  0  0  0  0  0
   61.1330   30.6200   48.0280 C   0  0  0  0  0  0  0  0  0  0  0  0
   60.9350   30.5340   46.5760 N   0  0  0  0  0  0  0  0  0  0  0  0
   59.6030   30.9700   46.2350 C   0  0  0  0  0  0  0  0  0  0  0  0
   58.5560   30.1710   45.7760 C   0  0  0  0  0  0  0  0  0  0  0  0
   58.5050   28.6970   45.7320 C   0  0  0  0  0  0  0  0  0  0  0  0
   58.8830   27.9560   46.8620 C   0  0  0  0  0  0  0  0  0  0  0  0
   58.8530   26.5580   46.8290 C   0  0  0  0  0  0  0  0  0  0  0  0
   58.4610   25.8890   45.6650 C   0  0  0  0  0  0  0  0  0  0  0  0
   58.4260   23.9780   45.6190 Br  0  0  0  0  0  0  0  0  0  0  0  0
   58.1070   26.6200   44.5290 C   0  0  0  0  0  0  0  0  0  0  0  0
   58.1360   28.0190   44.5580 C   0  0  0  0  0  0  0  0  0  0  0  0
   57.5670   30.9540   45.2780 N   0  0  0  0  0  0  0  0  0  0  0  0
   58.0360   32.2070   45.4490 C   0  0  0  0  0  0  0  0  0  0  0  0
   57.3870   33.3750   45.0550 C   0  0  0  0  0  0  0  0  0  0  0  0
   58.0530   34.5930   45.2590 C   0  0  0  0  0  0  0  0  0  0  0  0
   59.3360   34.6130   45.8360 C   0  0  0  0  0  0  0  0  0  0  0  0
   59.9450   33.4070   46.2100 C   0  0  0  0  0  0  0  0  0  0  0  0
   59.2590   32.2510   46.0090 N   0  0  0  0  0  0  0  0  0  0  0  0
   63.2047   33.2533   49.0852 H   0  0  0  0  0  0  0  0  0  0  0  0
   63.5304   34.8046   48.2402 H   0  0  0  0  0  0  0  0  0  0  0  0
   61.8727   34.1126   48.2402 H   0  0  0  0  0  0  0  0  0  0  0  0
   62.5536   33.4065   46.1453 H   0  0  0  0  0  0  0  0  0  0  0  0
   64.3009   33.3442   46.6372 H   0  0  0  0  0  0  0  0  0  0  0  0
   64.1360   31.2300   47.1190 H   0  0  0  0  0  0  0  0  0  0  0  0
   63.0972   30.5777   48.9300 H   0  0  0  0  0  0  0  0  0  0  0  0
   62.2951   32.1898   48.9487 H   0  0  0  0  0  0  0  0  0  0  0  0
   61.1162   29.6064   48.4549 H   0  0  0  0  0  0  0  0  0  0  0  0
   60.3253   31.2303   48.4584 H   0  0  0  0  0  0  0  0  0  0  0  0
   61.6450   31.1280   46.0910 H   0  0  0  0  0  0  0  0  0  0  0  0
   61.0680   29.5460   46.2530 H   0  0  0  0  0  0  0  0  0  0  0  0
   59.2039   28.4761   47.7766 H   0  0  0  0  0  0  0  0  0  0  0  0
   59.1388   25.9826   47.7219 H   0  0  0  0  0  0  0  0  0  0  0  0
   57.8050   26.0957   43.6104 H   0  0  0  0  0  0  0  0  0  0  0  0
   57.8685   28.5906   43.6571 H   0  0  0  0  0  0  0  0  0  0  0  0
   56.3863   33.3435   44.5994 H   0  0  0  0  0  0  0  0  0  0  0  0
   57.5697   35.5368   44.9664 H   0  0  0  0  0  0  0  0  0  0  0  0
   59.8578   35.5686   45.9926 H   0  0  0  0  0  0  0  0  0  0  0  0
   60.9512   33.3965   46.6543 H   0  0  0  0  0  0  0  0  0  0  0  0
  1  2  1  0
  2  3  1  0
  3  4  1  0
  4  5  1  0
  5  6  1  0
  6  7  1  0
  7  8  2  0
  8  9  1  0
  9 10  2  0
 10 11  1  0
 11 12  2  0
 12 13  1  0
 12 14  1  0
 14 15  2  0
  8 16  1  0
 16 17  2  0
 17 18  1  0
 18 19  2  0
 19 20  1  0
 20 21  2  0
 21 22  1  0
 22  7  1  0
 15  9  1  0
 22 17  1  0
  1 23  1  0
  1 24  1  0
  1 25  1  0
  2 26  1  0
  2 27  1  0
  3 28  1  0
  4 29  1  0
  4 30  1  0
  5 31  1  0
  5 32  1  0
  6 33  1  0
  6 34  1  0
 10 35  1  0
 11 36  1  0
 14 37  1  0
 15 38  1  0
 18 39  1  0
 19 40  1  0
 20 41  1  0
 21 42  1  0
M  CHG  1   6   1
M  END
>  <UniqueID>  (21) 
21

>  <SMILES>  (21) 
CCNCC[NH2+]c1c(-c2ccc(Br)cc2)nc2ccccn12

>  <Energy>  (21) 
81.80565652295516

>  <Genealogy>  (21) 
CCNCC[NH2+]c1c(-c2ccc(Br)cc2)nc2ccccn12 (protonated)
CCNCC[NH2+]c1c(-c2ccc(Br)cc2)nc2ccccn12 (3D coordinates assigned)
CCNCC[NH2+]c1c(-c2ccc(Br)cc2)nc2ccccn12 (optimized conformer: 81.80565652295516 kcal/mol)

>  <smiles>  (21) 
CCNCCNc1c(-c2ccc(Br)cc2)nc2ccccn12

>  <score_type>  (21) 
oracle

>  <origin>  (21) 
adg

>  <m_score__min__energy>  (21) 
-5.5300000000000002

>  <m_primary>  (21) 
energy

$$$$
21:0
     RDKit          3D

 60 64  0  0  0  0  0  0  0  0999 V2000
   59.3650   33.7770   51.8800 C   0  0  0  0  0  0  0  0  0  0  0  0
   57.9310   33.4220   52.2830 C   0  0  0  0  0  0  0  0  0  0  0  0
   57.7040   31.9670   52.3270 N   0  0  0  0  0  0  0  0  0  0  0  0
   56.2930   31.6180   52.5560 C   0  0  0  0  0  0  0  0  0  0  0  0
   55.9960   30.2130   52.0350 C   0  0  0  0  0  0  0  0  0  0  0  0
   57.2130   29.5500   51.7570 O   0  0  0  0  0  0  0  0  0  0  0  0
   57.8550   29.1520   52.9540 C   0  0  0  0  0  0  0  0  0  0  0  0
   59.3740   29.3380   52.8650 C   0  0  0  0  0  0  0  0  0  0  0  0
   59.8520   29.1700   51.4930 N   0  0  0  0  0  0  0  0  0  0  0  0
   61.1140   29.7160   51.0900 C   0  0  0  0  0  0  0  0  0  0  0  0
   61.1810   30.7470   50.1310 C   0  0  0  0  0  0  0  0  0  0  0  0
   62.4470   31.2270   49.7250 C   0  0  0  0  0  0  0  0  0  0  0  0
   63.5660   30.9020   50.4670 N   0  0  0  0  0  0  0  0  0  0  0  0
   64.7410   31.7970   50.4840 C   0  0  0  0  0  0  0  0  0  0  0  0
   63.5370   29.8150   51.3160 C   0  0  0  0  0  0  0  0  0  0  0  0
   64.7210   29.2950   51.8960 C   0  0  0  0  0  0  0  0  0  0  0  0
   64.6760   28.1970   52.7560 C   0  0  0  0  0  0  0  0  0  0  0  0
   63.4580   27.5940   53.0580 C   0  0  0  0  0  0  0  0  0  0  0  0
   62.2800   28.0850   52.5010 C   0  0  0  0  0  0  0  0  0  0  0  0
   62.3030   29.1920   51.6280 C   0  0  0  0  0  0  0  0  0  0  0  0
   62.5110   32.1160   48.5100 C   0  0  0  0  0  0  0  0  0  0  0  0
   63.6520   32.2120   47.7580 N   0  0  0  0  0  0  0  0  0  0  0  0
   63.7660   33.0960   46.7310 C   0  0  0  0  0  0  0  0  0  0  0  0
   62.6890   33.9040   46.3720 C   0  0  0  0  0  0  0  0  0  0  0  0
   61.4650   33.7430   47.0260 C   0  0  0  0  0  0  0  0  0  0  0  0
   60.3380   34.4730   46.6230 C   0  0  0  0  0  0  0  0  0  0  0  0
   59.1020   34.2400   47.2280 C   0  0  0  0  0  0  0  0  0  0  0  0
   58.9750   33.2590   48.2130 C   0  0  0  0  0  0  0  0  0  0  0  0
   60.0970   32.5220   48.6330 C   0  0  0  0  0  0  0  0  0  0  0  0
   61.3580   32.8030   48.0780 C   0  0  0  0  0  0  0  0  0  0  0  0
   59.9580   31.3970   49.5780 C   0  0  0  0  0  0  0  0  0  0  0  0
   58.8080   31.0040   49.9070 O   0  0  0  0  0  0  0  0  0  0  0  0
   59.9733   33.9276   52.7840 H   0  0  0  0  0  0  0  0  0  0  0  0
   59.7917   32.9574   51.2832 H   0  0  0  0  0  0  0  0  0  0  0  0
   59.3601   34.7010   51.2832 H   0  0  0  0  0  0  0  0  0  0  0  0
   57.7302   33.8412   53.2800 H   0  0  0  0  0  0  0  0  0  0  0  0
   57.2552   33.8442   51.5247 H   0  0  0  0  0  0  0  0  0  0  0  0
   58.0260   31.5360   51.4280 H   0  0  0  0  0  0  0  0  0  0  0  0
   56.0816   31.6558   53.6348 H   0  0  0  0  0  0  0  0  0  0  0  0
   55.6577   32.3375   52.0186 H   0  0  0  0  0  0  0  0  0  0  0  0
   55.4364   29.6497   52.7963 H   0  0  0  0  0  0  0  0  0  0  0  0
   55.3953   30.2805   51.1160 H   0  0  0  0  0  0  0  0  0  0  0  0
   57.4686   29.7592   53.7859 H   0  0  0  0  0  0  0  0  0  0  0  0
   57.6469   28.0845   53.1190 H   0  0  0  0  0  0  0  0  0  0  0  0
   59.6319   30.3493   53.2127 H   0  0  0  0  0  0  0  0  0  0  0  0
   59.8541   28.5748   53.4951 H   0  0  0  0  0  0  0  0  0  0  0  0
   59.3140   28.6030   50.8000 H   0  0  0  0  0  0  0  0  0  0  0  0
   65.0232   32.0119   51.5252 H   0  0  0  0  0  0  0  0  0  0  0  0
   65.5816   31.3083   49.9697 H   0  0  0  0  0  0  0  0  0  0  0  0
   64.4932   32.7373   49.9697 H   0  0  0  0  0  0  0  0  0  0  0  0
   65.6890   29.7635   51.6650 H   0  0  0  0  0  0  0  0  0  0  0  0
   65.6054   27.8068   53.1965 H   0  0  0  0  0  0  0  0  0  0  0  0
   63.4262   26.7292   53.7370 H   0  0  0  0  0  0  0  0  0  0  0  0
   61.3212   27.6041   52.7447 H   0  0  0  0  0  0  0  0  0  0  0  0
   64.4620   31.5830   47.9390 H   0  0  0  0  0  0  0  0  0  0  0  0
   64.7148   33.1738   46.1799 H   0  0  0  0  0  0  0  0  0  0  0  0
   62.8014   34.6609   45.5817 H   0  0  0  0  0  0  0  0  0  0  0  0
   60.4279   35.2297   45.8297 H   0  0  0  0  0  0  0  0  0  0  0  0
   58.2247   34.8316   46.9275 H   0  0  0  0  0  0  0  0  0  0  0  0
   57.9912   33.0611   48.6636 H   0  0  0  0  0  0  0  0  0  0  0  0
  1  2  1  0
  2  3  1  0
  3  4  1  0
  4  5  1  0
  5  6  1  0
  6  7  1  0
  7  8  1  0
  8  9  1  0
  9 10  1  0
 10 11  2  0
 11 12  1  0
 12 13  2  0
 13 14  1  0
 13 15  1  0
 15 16  2  0
 16 17  1  0
 17 18  2  0
 18 19  1  0
 19 20  2  0
 12 21  1  0
 21 22  2  0
 22 23  1  0
 23 24  2  0
 24 25  1  0
 25 26  2  0
 26 27  1  0
 27 28  2  0
 28 29  1  0
 29 30  2  0
 29 31  1  0
 31 32  2  0
 20 10  1  0
 30 21  1  0
 31 11  1  0
 20 15  1  0
 30 25  1  0
  1 33  1  0
  1 34  1  0
  1 35  1  0
  2 36  1  0
  2 37  1  0
  3 38  1  0
  4 39  1  0
  4 40  1  0
  5 41  1  0
  5 42  1  0
  7 43  1  0
  7 44  1  0
  8 45  1  0
  8 46  1  0
  9 47  1  0
 14 48  1  0
 14 49  1  0
 14 50  1  0
 16 51  1  0
 17 52  1  0
 18 53  1  0
 19 54  1  0
 22 55  1  0
 23 56  1  0
 24 57  1  0
 26 58  1  0
 27 59  1  0
 28 60  1  0
M  CHG  2  13   1  22   1
M  END
>  <UniqueID>  (22) 
22

>  <SMILES>  (22) 
CCNCCOCCNc1c2c([n+](C)c3ccccc13)-c1[nH+]ccc3cccc(c13)C2=O

>  <Energy>  (22) 
101.63129305596145

>  <Genealogy>  (22) 
CCNCCOCCNc1c2c([n+](C)c3ccccc13)-c1[nH+]ccc3cccc(c13)C2=O (protonated)
CCNCCOCCNc1c2c([n+](C)c3ccccc13)-c1[nH+]ccc3cccc(c13)C2=O (3D coordinates assigned)
CCNCCOCCNc1c2c([n+](C)c3ccccc13)-c1[nH+]ccc3cccc(c13)C2=O (nonaromatic ring conformer: 101.63129305596145 kcal/mol)

>  <smiles>  (22) 
CCNCCOCCNc1c2c([n+](C)c3ccccc13)-c1nccc3cccc(c13)C2=O

>  <score_type>  (22) 
oracle

>  <origin>  (22) 
adg

>  <m_score__min__energy>  (22) 
-6.2199999999999998

>  <m_primary>  (22) 
energy

$$$$
22:0
     RDKit          3D

 74 76  0  0  0  0  0  0  0  0999 V2000
   61.6000   26.8900   51.5670 C   0  0  0  0  0  0  0  0  0  0  0  0
   60.7860   27.3570   50.3510 C   0  0  0  0  0  0  0  0  0  0  0  0
   60.6970   28.8310   50.2200 N   0  0  0  0  0  0  0  0  0  0  0  0
   61.8590   29.5310   50.8190 C   0  0  0  0  0  0  0  0  0  0  0  0
   62.1970   30.7600   49.9860 C   0  0  0  0  0  0  0  0  0  0  0  0
   59.3910   29.3660   50.6650 C   0  0  0  0  0  0  0  0  0  0  0  0
   58.6200   30.0050   49.5060 C   0  0  0  0  0  0  0  0  0  0  0  0
   59.4210   30.0190   48.2810 N   0  0  0  0  0  0  0  0  0  0  0  0
   59.0240   30.7990   47.1370 C   0  0  0  0  0  0  0  0  0  0  0  0
   59.3120   32.1750   47.0870 C   0  0  0  0  0  0  0  0  0  0  0  0
   59.9370   32.8230   48.1750 C   0  0  0  0  0  0  0  0  0  0  0  0
   60.2850   34.1680   48.0990 C   0  0  0  0  0  0  0  0  0  0  0  0
   60.0340   34.8890   46.9380 C   0  0  0  0  0  0  0  0  0  0  0  0
   59.4040   34.2750   45.8550 C   0  0  0  0  0  0  0  0  0  0  0  0
   58.9920   32.9170   45.9180 C   0  0  0  0  0  0  0  0  0  0  0  0
   58.3150   32.3120   44.8740 N   0  0  0  0  0  0  0  0  0  0  0  0
   57.7550   33.1360   43.7800 C   0  0  0  0  0  0  0  0  0  0  0  0
   58.1300   30.9400   44.8690 C   0  0  0  0  0  0  0  0  0  0  0  0
   57.6610   30.2540   43.7200 C   0  0  0  0  0  0  0  0  0  0  0  0
   57.3980   28.8850   43.7540 C   0  0  0  0  0  0  0  0  0  0  0  0
   57.5940   28.1530   44.9280 C   0  0  0  0  0  0  0  0  0  0  0  0
   57.2700   26.7470   44.9760 N   0  0  0  0  0  0  0  0  0  0  0  0
   57.1860   26.2860   46.3730 C   0  0  0  0  0  0  0  0  0  0  0  0
   56.4670   24.9310   46.4970 C   0  0  0  0  0  0  0  0  0  0  0  0
   55.7570   24.4500   45.2140 C   0  0  0  0  0  0  0  0  0  0  0  0
   56.6070   24.4790   44.0130 N   0  0  0  0  0  0  0  0  0  0  0  0
   57.7700   23.5890   44.1150 C   0  0  0  0  0  0  0  0  0  0  0  0
   57.3120   22.1380   44.2960 C   0  0  0  0  0  0  0  0  0  0  0  0
   56.9660   21.4820   42.9540 C   0  0  0  0  0  0  0  0  0  0  0  0
   55.9450   22.2600   42.2600 N   0  0  0  0  0  0  0  0  0  0  0  0
   58.0920   28.8050   46.0620 C   0  0  0  0  0  0  0  0  0  0  0  0
   58.4220   30.1770   46.0290 C   0  0  0  0  0  0  0  0  0  0  0  0
   61.0822   27.1871   52.4909 H   0  0  0  0  0  0  0  0  0  0  0  0
   61.7034   25.7952   51.5405 H   0  0  0  0  0  0  0  0  0  0  0  0
   62.5973   27.3533   51.5405 H   0  0  0  0  0  0  0  0  0  0  0  0
   61.2591   26.9562   49.4424 H   0  0  0  0  0  0  0  0  0  0  0  0
   59.7601   26.9856   50.4908 H   0  0  0  0  0  0  0  0  0  0  0  0
   61.6113   29.8405   51.8451 H   0  0  0  0  0  0  0  0  0  0  0  0
   62.7247   28.8527   50.8390 H   0  0  0  0  0  0  0  0  0  0  0  0
   62.4288   31.6030   50.6536 H   0  0  0  0  0  0  0  0  0  0  0  0
   63.0692   30.5443   49.3513 H   0  0  0  0  0  0  0  0  0  0  0  0
   61.3372   31.0206   49.3513 H   0  0  0  0  0  0  0  0  0  0  0  0
   58.7916   28.5435   51.0823 H   0  0  0  0  0  0  0  0  0  0  0  0
   59.5765   30.1405   51.4238 H   0  0  0  0  0  0  0  0  0  0  0  0
   57.7000   29.4293   49.3265 H   0  0  0  0  0  0  0  0  0  0  0  0
   58.3809   31.0438   49.7776 H   0  0  0  0  0  0  0  0  0  0  0  0
   60.1580   29.2870   48.1610 H   0  0  0  0  0  0  0  0  0  0  0  0
   60.1513   32.2575   49.0938 H   0  0  0  0  0  0  0  0  0  0  0  0
   60.7598   34.6616   48.9598 H   0  0  0  0  0  0  0  0  0  0  0  0
   60.3325   35.9457   46.8726 H   0  0  0  0  0  0  0  0  0  0  0  0
   59.2232   34.8526   44.9364 H   0  0  0  0  0  0  0  0  0  0  0  0
   57.1852   33.9744   44.2072 H   0  0  0  0  0  0  0  0  0  0  0  0
   58.5746   33.5279   43.1598 H   0  0  0  0  0  0  0  0  0  0  0  0
   57.0889   32.5183   43.1598 H   0  0  0  0  0  0  0  0  0  0  0  0
   57.5018   30.8117   42.7853 H   0  0  0  0  0  0  0  0  0  0  0  0
   57.0332   28.3771   42.8491 H   0  0  0  0  0  0  0  0  0  0  0  0
   57.9950   26.1970   44.4580 H   0  0  0  0  0  0  0  0  0  0  0  0
   56.3510   26.5940   44.4980 H   0  0  0  0  0  0  0  0  0  0  0  0
   58.2052   26.1840   46.7740 H   0  0  0  0  0  0  0  0  0  0  0  0
   56.6050   27.0291   46.9389 H   0  0  0  0  0  0  0  0  0  0  0  0
   57.2130   24.1733   46.7788 H   0  0  0  0  0  0  0  0  0  0  0  0
   55.6786   25.0691   47.2515 H   0  0  0  0  0  0  0  0  0  0  0  0
   55.4182   23.4156   45.3732 H   0  0  0  0  0  0  0  0  0  0  0  0
   54.9242   25.1450   45.0314 H   0  0  0  0  0  0  0  0  0  0  0  0
   56.0460   24.2290   43.1650 H   0  0  0  0  0  0  0  0  0  0  0  0
   58.3701   23.6687   43.1966 H   0  0  0  0  0  0  0  0  0  0  0  0
   58.3738   23.8859   44.9852 H   0  0  0  0  0  0  0  0  0  0  0  0
   58.1204   21.5659   44.7747 H   0  0  0  0  0  0  0  0  0  0  0  0
   56.4069   22.1391   44.9211 H   0  0  0  0  0  0  0  0  0  0  0  0
   57.8707   21.4318   42.3303 H   0  0  0  0  0  0  0  0  0  0  0  0
   56.5803   20.4686   43.1392 H   0  0  0  0  0  0  0  0  0  0  0  0
   56.2730   23.2530   42.2250 H   0  0  0  0  0  0  0  0  0  0  0  0
   55.8970   21.9290   41.2680 H   0  0  0  0  0  0  0  0  0  0  0  0
   58.2285   28.2385   46.9950 H   0  0  0  0  0  0  0  0  0  0  0  0
  1  2  1  0
  2  3  1  0
  3  4  1  0
  4  5  1  0
  3  6  1  0
  6  7  1  0
  7  8  1  0
  8  9  1  0
  9 10  2  0
 10 11  1  0
 11 12  2  0
 12 13  1  0
 13 14  2  0
 14 15  1  0
 15 16  2  0
 16 17  1  0
 16 18  1  0
 18 19  2  0
 19 20  1  0
 20 21  2  0
 21 22  1  0
 22 23  1  0
 23 24  1  0
 24 25  1  0
 25 26  1  0
 26 27  1  0
 27 28  1  0
 28 29  1  0
 29 30  1  0
 21 31  1  0
 31 32  2  0
 32  9  1  0
 15 10  1  0
 32 18  1  0
  1 33  1  0
  1 34  1  0
  1 35  1  0
  2 36  1  0
  2 37  1  0
  4 38  1  0
  4 39  1  0
  5 40  1  0
  5 41  1  0
  5 42  1  0
  6 43  1  0
  6 44  1  0
  7 45  1  0
  7 46  1  0
  8 47  1  0
 11 48  1  0
 12 49  1  0
 13 50  1  0
 14 51  1  0
 17 52  1  0
 17 53  1  0
 17 54  1  0
 19 55  1  0
 20 56  1  0
 22 57  1  0
 22 58  1  0
 23 59  1  0
 23 60  1  0
 24 61  1  0
 24 62  1  0
 25 63  1  0
 25 64  1  0
 26 65  1  0
 27 66  1  0
 27 67  1  0
 28 68  1  0
 28 69  1  0
 29 70  1  0
 29 71  1  0
 30 72  1  0
 30 73  1  0
 31 74  1  0
M  CHG  2  16   1  22   1
M  END
>  <UniqueID>  (23) 
23

>  <SMILES>  (23) 
CCN(CC)CCNc1c2ccccc2[n+](C)c2ccc([NH2+]CCCNCCCN)cc12

>  <Energy>  (23) 
93.88851664981833

>  <Genealogy>  (23) 
CCN(CC)CCNc1c2ccccc2[n+](C)c2ccc([NH2+]CCCNCCCN)cc12 (protonated)
CCN(CC)CCNc1c2ccccc2[n+](C)c2ccc([NH2+]CCCNCCCN)cc12 (3D coordinates assigned)
CCN(CC)CCNc1c2ccccc2[n+](C)c2ccc([NH2+]CCCNCCCN)cc12 (optimized conformer: 93.88851664981833 kcal/mol)

>  <smiles>  (23) 
CCN(CC)CCNc1c2ccccc2[n+](C)c2ccc(NCCCNCCCN)cc12

>  <score_type>  (23) 
oracle

>  <origin>  (23) 
adg

>  <m_score__min__energy>  (23) 
-5.2199999999999998

>  <m_primary>  (23) 
energy

$$$$
