0:0
     RDKit          3D

 36 38  0  0  0  0  0  0  0  0999 V2000
   60.4860   34.5470   48.4810 C   0  0  0  0  0  0  0  0  0  0  0  0
   59.9030   34.5750   47.1450 N   0  0  0  0  0  0  0  0  0  0  0  0
   59.9390   35.6300   46.3390 N   0  0  0  0  0  0  0  0  0  0  0  0
   59.2680   35.3190   45.2030 C   0  0  0  0  0  0  0  0  0  0  0  0
   58.7960   34.0290   45.3180 C   0  0  0  0  0  0  0  0  0  0  0  0
   58.0210   33.2420   44.4730 C   0  0  0  0  0  0  0  0  0  0  0  0
   57.6490   31.9560   44.9280 C   0  0  0  0  0  0  0  0  0  0  0  0
   56.7250   31.0990   44.1050 C   0  0  0  0  0  0  0  0  0  0  0  0
   56.2570   29.9370   44.8790 N   0  0  0  0  0  0  0  0  0  0  0  0
   56.9080   28.6800   44.4690 C   0  0  0  0  0  0  0  0  0  0  0  0
   58.1240   28.3970   45.3150 C   0  0  0  0  0  0  0  0  0  0  0  0
   59.4100   28.6610   44.8150 C   0  0  0  0  0  0  0  0  0  0  0  0
   60.5360   28.4530   45.6190 C   0  0  0  0  0  0  0  0  0  0  0  0
   60.3870   27.9660   46.9200 C   0  0  0  0  0  0  0  0  0  0  0  0
   59.1130   27.6770   47.4160 C   0  0  0  0  0  0  0  0  0  0  0  0
   57.9850   27.8840   46.6160 C   0  0  0  0  0  0  0  0  0  0  0  0
   58.0980   31.4980   46.1950 C   0  0  0  0  0  0  0  0  0  0  0  0
   58.8820   32.3250   47.0210 C   0  0  0  0  0  0  0  0  0  0  0  0
   59.2070   33.5930   46.5440 C   0  0  0  0  0  0  0  0  0  0  0  0
   59.6834   34.5855   49.2322 H   0  0  0  0  0  0  0  0  0  0  0  0
   61.0642   33.6201   48.6094 H   0  0  0  0  0  0  0  0  0  0  0  0
   61.1503   35.4143   48.6094 H   0  0  0  0  0  0  0  0  0  0  0  0
   59.1247   35.9825   44.3374 H   0  0  0  0  0  0  0  0  0  0  0  0
   57.7079   33.6077   43.4839 H   0  0  0  0  0  0  0  0  0  0  0  0
   55.8566   31.6994   43.7962 H   0  0  0  0  0  0  0  0  0  0  0  0
   57.2742   30.7360   43.2237 H   0  0  0  0  0  0  0  0  0  0  0  0
   56.5170   30.1060   45.8790 H   0  0  0  0  0  0  0  0  0  0  0  0
   56.1924   27.8520   44.5802 H   0  0  0  0  0  0  0  0  0  0  0  0
   57.2268   28.7775   43.4207 H   0  0  0  0  0  0  0  0  0  0  0  0
   59.5322   29.0328   43.7870 H   0  0  0  0  0  0  0  0  0  0  0  0
   61.5397   28.6731   45.2264 H   0  0  0  0  0  0  0  0  0  0  0  0
   61.2725   27.8101   47.5538 H   0  0  0  0  0  0  0  0  0  0  0  0
   58.9973   27.2860   48.4376 H   0  0  0  0  0  0  0  0  0  0  0  0
   56.9849   27.6444   47.0065 H   0  0  0  0  0  0  0  0  0  0  0  0
   57.8303   30.4865   46.5343 H   0  0  0  0  0  0  0  0  0  0  0  0
   59.2259   31.9824   48.0081 H   0  0  0  0  0  0  0  0  0  0  0  0
  1  2  1  0
  2  3  1  0
  3  4  2  0
  4  5  1  0
  5  6  2  0
  6  7  1  0
  7  8  1  0
  8  9  1  0
  9 10  1  0
 10 11  1  0
 11 12  2  0
 12 13  1  0
 13 14  2  0
 14 15  1  0
 15 16  2  0
  7 17  2  0
 17 18  1  0
 18 19  2  0
 19  2  1  0
 19  5  1  0
 16 11  1  0
  1 20  1  0
  1 21  1  0
  1 22  1  0
  4 23  1  0
  6 24  1  0
  8 25  1  0
  8 26  1  0
  9 27  1  0
 10 28  1  0
 10 29  1  0
 12 30  1  0
 13 31  1  0
 14 32  1  0
 15 33  1  0
 16 34  1  0
 17 35  1  0
 18 36  1  0
M  END
>  <UniqueID>  (1) 
1

>  <SMILES>  (1) 
Cn1ncc2cc(CNCc3ccccc3)ccc21

>  <Energy>  (1) 
72.40683479702845

>  <Genealogy>  (1) 
Cn1ncc2cc(CNCc3ccccc3)ccc21 (3D coordinates assigned)
Cn1ncc2cc(CNCc3ccccc3)ccc21 (optimized conformer: 72.40683479702845 kcal/mol)

>  <smiles>  (1) 
Cn1ncc2cc(CNCc3ccccc3)ccc21

>  <score_type>  (1) 
oracle

>  <origin>  (1) 
adg

>  <m_score__min__energy>  (1) 
-6.9800000000000004

>  <m_primary>  (1) 
energy

$$$$
1:0
     RDKit          3D

 71 74  0  0  0  0  0  0  0  0999 V2000
   55.9900   29.7220   42.9860 C   0  0  0  0  0  0  0  0  0  0  0  0
   56.0870   29.7010   44.5120 C   0  0  0  0  0  0  0  0  0  0  0  0
   57.1930   30.5640   44.9870 N   0  0  0  0  0  0  0  0  0  0  0  0
   57.0450   31.9630   44.5080 C   0  0  0  0  0  0  0  0  0  0  0  0
   58.1140   32.2610   43.4640 C   0  0  0  0  0  0  0  0  0  0  0  0
   58.5030   29.9850   44.6050 C   0  0  0  0  0  0  0  0  0  0  0  0
   59.3260   29.6150   45.8510 C   0  0  0  0  0  0  0  0  0  0  0  0
   58.6220   29.9240   47.1140 N   0  0  0  0  0  0  0  0  0  0  0  0
   59.4160   30.7520   48.0160 C   0  0  0  0  0  0  0  0  0  0  0  0
   59.4730   32.1680   47.8660 C   0  0  0  0  0  0  0  0  0  0  0  0
   58.8440   32.8430   46.7870 C   0  0  0  0  0  0  0  0  0  0  0  0
   58.9570   34.2220   46.6310 C   0  0  0  0  0  0  0  0  0  0  0  0
   59.7030   34.9670   47.5310 C   0  0  0  0  0  0  0  0  0  0  0  0
   60.3170   34.3400   48.6100 C   0  0  0  0  0  0  0  0  0  0  0  0
   60.1860   32.9440   48.8250 C   0  0  0  0  0  0  0  0  0  0  0  0
   60.7490   32.3410   49.9290 N   0  0  0  0  0  0  0  0  0  0  0  0
   61.1760   33.1670   51.0830 C   0  0  0  0  0  0  0  0  0  0  0  0
   60.8840   30.9690   49.9760 C   0  0  0  0  0  0  0  0  0  0  0  0
   61.7300   30.3510   50.9310 C   0  0  0  0  0  0  0  0  0  0  0  0
   61.8250   28.9550   51.0350 C   0  0  0  0  0  0  0  0  0  0  0  0
   62.6600   28.3220   51.9720 O   0  0  0  0  0  0  0  0  0  0  0  0
   64.0010   28.6960   52.2890 C   0  0  0  0  0  0  0  0  0  0  0  0
   64.8780   27.4630   52.5350 C   0  0  0  0  0  0  0  0  0  0  0  0
   66.0430   27.4660   51.6380 N   0  0  0  0  0  0  0  0  0  0  0  0
   66.4150   26.3130   51.0000 C   0  0  0  0  0  0  0  0  0  0  0  0
   67.5410   26.2920   50.1740 C   0  0  0  0  0  0  0  0  0  0  0  0
   68.2880   27.4570   50.0030 C   0  0  0  0  0  0  0  0  0  0  0  0
   67.9050   28.6250   50.6610 C   0  0  0  0  0  0  0  0  0  0  0  0
   66.7750   28.6110   51.4840 C   0  0  0  0  0  0  0  0  0  0  0  0
   61.0730   28.1500   50.1830 C   0  0  0  0  0  0  0  0  0  0  0  0
   61.1800   26.7560   50.3260 O   0  0  0  0  0  0  0  0  0  0  0  0
   60.8860   26.0360   51.5200 C   0  0  0  0  0  0  0  0  0  0  0  0
   60.2600   28.7420   49.2040 C   0  0  0  0  0  0  0  0  0  0  0  0
   60.1790   30.1480   49.0570 C   0  0  0  0  0  0  0  0  0  0  0  0
   54.9553   29.9460   42.6874 H   0  0  0  0  0  0  0  0  0  0  0  0
   56.6625   30.4954   42.5865 H   0  0  0  0  0  0  0  0  0  0  0  0
   56.2824   28.7397   42.5865 H   0  0  0  0  0  0  0  0  0  0  0  0
   55.1398   30.0640   44.9374 H   0  0  0  0  0  0  0  0  0  0  0  0
   56.2852   28.6686   44.8357 H   0  0  0  0  0  0  0  0  0  0  0  0
   56.0490   32.0931   44.0597 H   0  0  0  0  0  0  0  0  0  0  0  0
   57.1598   32.6539   45.3562 H   0  0  0  0  0  0  0  0  0  0  0  0
   59.0558   32.5235   43.9681 H   0  0  0  0  0  0  0  0  0  0  0  0
   58.2702   31.3721   42.8351 H   0  0  0  0  0  0  0  0  0  0  0  0
   57.7878   33.1025   42.8351 H   0  0  0  0  0  0  0  0  0  0  0  0
   58.3346   29.0798   44.0032 H   0  0  0  0  0  0  0  0  0  0  0  0
   59.0620   30.7343   44.0253 H   0  0  0  0  0  0  0  0  0  0  0  0
   59.5409   28.5366   45.8230 H   0  0  0  0  0  0  0  0  0  0  0  0
   60.2478   30.2149   45.8298 H   0  0  0  0  0  0  0  0  0  0  0  0
   57.6800   30.3230   46.9170 H   0  0  0  0  0  0  0  0  0  0  0  0
   58.3780   29.0310   47.5970 H   0  0  0  0  0  0  0  0  0  0  0  0
   58.2554   32.2648   46.0594 H   0  0  0  0  0  0  0  0  0  0  0  0
   58.4527   34.7218   45.7909 H   0  0  0  0  0  0  0  0  0  0  0  0
   59.8093   36.0530   47.3919 H   0  0  0  0  0  0  0  0  0  0  0  0
   60.9166   34.9390   49.3112 H   0  0  0  0  0  0  0  0  0  0  0  0
   60.9108   32.6540   52.0192 H   0  0  0  0  0  0  0  0  0  0  0  0
   62.2649   33.3176   51.0432 H   0  0  0  0  0  0  0  0  0  0  0  0
   60.6692   34.1425   51.0432 H   0  0  0  0  0  0  0  0  0  0  0  0
   62.3265   30.9813   51.6070 H   0  0  0  0  0  0  0  0  0  0  0  0
   64.4200   29.2728   51.4513 H   0  0  0  0  0  0  0  0  0  0  0  0
   63.9856   29.3008   53.2077 H   0  0  0  0  0  0  0  0  0  0  0  0
   65.2258   27.4698   53.5785 H   0  0  0  0  0  0  0  0  0  0  0  0
   64.2818   26.5600   52.3370 H   0  0  0  0  0  0  0  0  0  0  0  0
   65.8227   25.3966   51.1390 H   0  0  0  0  0  0  0  0  0  0  0  0
   67.8362   25.3640   49.6625 H   0  0  0  0  0  0  0  0  0  0  0  0
   69.1749   27.4545   49.3523 H   0  0  0  0  0  0  0  0  0  0  0  0
   68.4870   29.5497   50.5337 H   0  0  0  0  0  0  0  0  0  0  0  0
   66.4724   29.5276   52.0116 H   0  0  0  0  0  0  0  0  0  0  0  0
   61.1389   26.6553   52.3933 H   0  0  0  0  0  0  0  0  0  0  0  0
   59.8146   25.7880   51.5442 H   0  0  0  0  0  0  0  0  0  0  0  0
   61.4776   25.1089   51.5442 H   0  0  0  0  0  0  0  0  0  0  0  0
   59.6712   28.0978   48.5344 H   0  0  0  0  0  0  0  0  0  0  0  0
  1  2  1  0
  2  3  1  0
  3  4  1  0
  4  5  1  0
  3  6  1  0
  6  7  1  0
  7  8  1  0
  8  9  1  0
  9 10  2  0
 10 11  1  0
 11 12  2  0
 12 13  1  0
 13 14  2  0
 14 15  1  0
 15 16  2  0
 16 17  1  0
 16 18  1  0
 18 19  2  0
 19 20  1  0
 20 21  1  0
 21 22  1  0
 22 23  1  0
 23 24  1  0
 24 25  2  0
 25 26  1  0
 26 27  2  0
 27 28  1  0
 28 29  2  0
 20 30  2  0
 30 31  1  0
 31 32  1  0
 30 33  1  0
 33 34  2  0
 34  9  1  0
 15 10  1  0
 34 18  1  0
 29 24  1  0
  1 35  1  0
  1 36  1  0
  1 37  1  0
  2 38  1  0
  2 39  1  0
  4 40  1  0
  4 41  1  0
  5 42  1  0
  5 43  1  0
  5 44  1  0
  6 45  1  0
  6 46  1  0
  7 47  1  0
  7 48  1  0
  8 49  1  0
  8 50  1  0
 11 51  1  0
 12 52  1  0
 13 53  1  0
 14 54  1  0
 17 55  1  0
 17 56  1  0
 17 57  1  0
 19 58  1  0
 22 59  1  0
 22 60  1  0
 23 61  1  0
 23 62  1  0
 25 63  1  0
 26 64  1  0
 27 65  1  0
 28 66  1  0
 29 67  1  0
 32 68  1  0
 32 69  1  0
 32 70  1  0
 33 71  1  0
M  CHG  3   8   1  16   1  24   1
M  END
>  <UniqueID>  (2) 
2

>  <SMILES>  (2) 
CCN(CC)CC[NH2+]c1c2ccccc2[n+](C)c2cc(OCC[n+]3ccccc3)c(OC)cc12

>  <Energy>  (2) 
100.58419525366456

>  <Genealogy>  (2) 
CCN(CC)CC[NH2+]c1c2ccccc2[n+](C)c2cc(OCC[n+]3ccccc3)c(OC)cc12 (protonated)
CCN(CC)CC[NH2+]c1c2ccccc2[n+](C)c2cc(OCC[n+]3ccccc3)c(OC)cc12 (3D coordinates assigned)
CCN(CC)CC[NH2+]c1c2ccccc2[n+](C)c2cc(OCC[n+]3ccccc3)c(OC)cc12 (optimized conformer: 100.58419525366456 kcal/mol)

>  <smiles>  (2) 
CCN(CC)CCNc1c2ccccc2[n+](C)c2cc(OCC[n+]3ccccc3)c(OC)cc12

>  <score_type>  (2) 
oracle

>  <origin>  (2) 
adg

>  <m_score__min__energy>  (2) 
-3.3300000000000001

>  <m_primary>  (2) 
energy

$$$$
2:0
     RDKit          3D

 68 71  0  0  0  0  0  0  0  0999 V2000
   55.8780   29.5230   52.8050 C   0  0  0  0  0  0  0  0  0  0  0  0
   56.1510   30.7930   51.9980 C   0  0  0  0  0  0  0  0  0  0  0  0
   57.4490   30.7230   51.3140 N   0  0  0  0  0  0  0  0  0  0  0  0
   58.3180   29.6980   51.9050 C   0  0  0  0  0  0  0  0  0  0  0  0
   59.7360   29.7550   51.3140 C   0  0  0  0  0  0  0  0  0  0  0  0
   59.8090   29.6800   49.7730 C   0  0  0  0  0  0  0  0  0  0  0  0
   58.5820   30.1640   49.1170 N   0  0  0  0  0  0  0  0  0  0  0  0
   58.8890   30.6190   47.7710 C   0  0  0  0  0  0  0  0  0  0  0  0
   58.9780   29.6760   46.7000 C   0  0  0  0  0  0  0  0  0  0  0  0
   59.2490   28.2920   46.9110 C   0  0  0  0  0  0  0  0  0  0  0  0
   59.2800   27.3920   45.8480 C   0  0  0  0  0  0  0  0  0  0  0  0
   59.0940   27.8430   44.5500 C   0  0  0  0  0  0  0  0  0  0  0  0
   58.8660   29.1910   44.3050 C   0  0  0  0  0  0  0  0  0  0  0  0
   58.7980   30.1280   45.3650 C   0  0  0  0  0  0  0  0  0  0  0  0
   58.5760   31.4600   45.1130 N   0  0  0  0  0  0  0  0  0  0  0  0
   57.9830   31.8630   43.8200 C   0  0  0  0  0  0  0  0  0  0  0  0
   58.8670   32.3980   46.0740 C   0  0  0  0  0  0  0  0  0  0  0  0
   59.0870   33.7480   45.7030 C   0  0  0  0  0  0  0  0  0  0  0  0
   59.3130   34.7320   46.6540 C   0  0  0  0  0  0  0  0  0  0  0  0
   59.2960   34.4030   47.9970 C   0  0  0  0  0  0  0  0  0  0  0  0
   59.1200   33.0800   48.4190 C   0  0  0  0  0  0  0  0  0  0  0  0
   59.0830   32.8680   49.8310 N   0  0  0  0  0  0  0  0  0  0  0  0
   59.7690   33.8100   50.7200 C   0  0  0  0  0  0  0  0  0  0  0  0
   60.8550   33.1260   51.5670 C   0  0  0  0  0  0  0  0  0  0  0  0
   62.2840   33.5270   51.1720 C   0  0  0  0  0  0  0  0  0  0  0  0
   62.5580   33.1900   49.7680 N   0  0  0  0  0  0  0  0  0  0  0  0
   63.0220   34.1520   48.9070 C   0  0  0  0  0  0  0  0  0  0  0  0
   63.3330   33.8360   47.5790 C   0  0  0  0  0  0  0  0  0  0  0  0
   63.1490   32.5240   47.1300 C   0  0  0  0  0  0  0  0  0  0  0  0
   62.6610   31.5540   48.0080 C   0  0  0  0  0  0  0  0  0  0  0  0
   62.3820   31.9020   49.3370 C   0  0  0  0  0  0  0  0  0  0  0  0
   58.9500   32.0260   47.4510 C   0  0  0  0  0  0  0  0  0  0  0  0
   55.9276   29.7536   53.8794 H   0  0  0  0  0  0  0  0  0  0  0  0
   54.8769   29.1397   52.5580 H   0  0  0  0  0  0  0  0  0  0  0  0
   56.6331   28.7622   52.5580 H   0  0  0  0  0  0  0  0  0  0  0  0
   55.3568   30.9179   51.2472 H   0  0  0  0  0  0  0  0  0  0  0  0
   56.1698   31.6470   52.6911 H   0  0  0  0  0  0  0  0  0  0  0  0
   57.9200   31.6490   51.4150 H   0  0  0  0  0  0  0  0  0  0  0  0
   58.3763   29.8614   52.9912 H   0  0  0  0  0  0  0  0  0  0  0  0
   57.8894   28.7100   51.6809 H   0  0  0  0  0  0  0  0  0  0  0  0
   60.1992   30.7010   51.6311 H   0  0  0  0  0  0  0  0  0  0  0  0
   60.2592   28.8628   51.6884 H   0  0  0  0  0  0  0  0  0  0  0  0
   60.6553   30.2940   49.4314 H   0  0  0  0  0  0  0  0  0  0  0  0
   59.9343   28.6220   49.4995 H   0  0  0  0  0  0  0  0  0  0  0  0
   58.2070   30.9200   49.7190 H   0  0  0  0  0  0  0  0  0  0  0  0
   57.8020   29.4710   49.1120 H   0  0  0  0  0  0  0  0  0  0  0  0
   59.4371   27.9283   47.9319 H   0  0  0  0  0  0  0  0  0  0  0  0
   59.4522   26.3224   46.0386 H   0  0  0  0  0  0  0  0  0  0  0  0
   59.1271   27.1312   43.7120 H   0  0  0  0  0  0  0  0  0  0  0  0
   58.7359   29.5372   43.2690 H   0  0  0  0  0  0  0  0  0  0  0  0
   57.0858   32.4727   44.0023 H   0  0  0  0  0  0  0  0  0  0  0  0
   58.7158   32.4509   43.2479 H   0  0  0  0  0  0  0  0  0  0  0  0
   57.7062   30.9652   43.2479 H   0  0  0  0  0  0  0  0  0  0  0  0
   59.0783   34.0214   44.6376 H   0  0  0  0  0  0  0  0  0  0  0  0
   59.5048   35.7691   46.3414 H   0  0  0  0  0  0  0  0  0  0  0  0
   59.4233   35.1963   48.7483 H   0  0  0  0  0  0  0  0  0  0  0  0
   58.1960   32.4240   50.1640 H   0  0  0  0  0  0  0  0  0  0  0  0
   60.2386   34.5951   50.1092 H   0  0  0  0  0  0  0  0  0  0  0  0
   59.0205   34.2306   51.4076 H   0  0  0  0  0  0  0  0  0  0  0  0
   60.6963   33.3970   52.6212 H   0  0  0  0  0  0  0  0  0  0  0  0
   60.7641   32.0432   51.3960 H   0  0  0  0  0  0  0  0  0  0  0  0
   62.4046   34.6114   51.3115 H   0  0  0  0  0  0  0  0  0  0  0  0
   62.9909   32.9749   51.8087 H   0  0  0  0  0  0  0  0  0  0  0  0
   63.1513   35.1843   49.2644 H   0  0  0  0  0  0  0  0  0  0  0  0
   63.7171   34.6094   46.8975 H   0  0  0  0  0  0  0  0  0  0  0  0
   63.3877   32.2576   46.0898 H   0  0  0  0  0  0  0  0  0  0  0  0
   62.4966   30.5238   47.6592 H   0  0  0  0  0  0  0  0  0  0  0  0
   62.0195   31.1358   50.0380 H   0  0  0  0  0  0  0  0  0  0  0  0
  1  2  1  0
  2  3  1  0
  3  4  1  0
  4  5  1  0
  5  6  1  0
  6  7  1  0
  7  8  1  0
  8  9  2  0
  9 10  1  0
 10 11  2  0
 11 12  1  0
 12 13  2  0
 13 14  1  0
 14 15  2  0
 15 16  1  0
 15 17  1  0
 17 18  2  0
 18 19  1  0
 19 20  2  0
 20 21  1  0
 21 22  1  0
 22 23  1  0
 23 24  1  0
 24 25  1  0
 25 26  1  0
 26 27  2  0
 27 28  1  0
 28 29  2  0
 29 30  1  0
 30 31  2  0
 21 32  2  0
 32  8  1  0
 14  9  1  0
 32 17  1  0
 31 26  1  0
  1 33  1  0
  1 34  1  0
  1 35  1  0
  2 36  1  0
  2 37  1  0
  3 38  1  0
  4 39  1  0
  4 40  1  0
  5 41  1  0
  5 42  1  0
  6 43  1  0
  6 44  1  0
  7 45  1  0
  7 46  1  0
 10 47  1  0
 11 48  1  0
 12 49  1  0
 13 50  1  0
 16 51  1  0
 16 52  1  0
 16 53  1  0
 18 54  1  0
 19 55  1  0
 20 56  1  0
 22 57  1  0
 23 58  1  0
 23 59  1  0
 24 60  1  0
 24 61  1  0
 25 62  1  0
 25 63  1  0
 27 64  1  0
 28 65  1  0
 29 66  1  0
 30 67  1  0
 31 68  1  0
M  CHG  3   7   1  15   1  26   1
M  END
>  <UniqueID>  (3) 
3

>  <SMILES>  (3) 
CCNCCC[NH2+]c1c2ccccc2[n+](C)c2cccc(NCCC[n+]3ccccc3)c12

>  <Energy>  (3) 
110.2110540676466

>  <Genealogy>  (3) 
CCNCCC[NH2+]c1c2ccccc2[n+](C)c2cccc(NCCC[n+]3ccccc3)c12 (protonated)
CCNCCC[NH2+]c1c2ccccc2[n+](C)c2cccc(NCCC[n+]3ccccc3)c12 (3D coordinates assigned)
CCNCCC[NH2+]c1c2ccccc2[n+](C)c2cccc(NCCC[n+]3ccccc3)c12 (optimized conformer: 110.2110540676466 kcal/mol)

>  <smiles>  (3) 
CCNCCCNc1c2ccccc2[n+](C)c2cccc(NCCC[n+]3ccccc3)c12

>  <score_type>  (3) 
oracle

>  <origin>  (3) 
adg

>  <m_score__min__energy>  (3) 
-3.3799999999999999

>  <m_primary>  (3) 
energy

$$$$
3:0
     RDKit          3D

 56 58  0  0  0  0  0  0  0  0999 V2000
   63.3820   33.8310   46.7670 C   0  0  0  0  0  0  0  0  0  0  0  0
   63.1530   32.3760   47.1480 C   0  0  0  0  0  0  0  0  0  0  0  0
   62.2610   32.3230   48.2400 O   0  0  0  0  0  0  0  0  0  0  0  0
   62.9390   32.6890   49.4250 C   0  0  0  0  0  0  0  0  0  0  0  0
   63.2850   31.4330   50.2180 C   0  0  0  0  0  0  0  0  0  0  0  0
   62.2820   30.4510   50.0110 O   0  0  0  0  0  0  0  0  0  0  0  0
   61.8050   29.9140   51.2300 C   0  0  0  0  0  0  0  0  0  0  0  0
   60.5170   30.6080   51.6790 C   0  0  0  0  0  0  0  0  0  0  0  0
   60.4670   31.9050   51.1170 O   0  0  0  0  0  0  0  0  0  0  0  0
   59.1250   32.3280   51.0030 C   0  0  0  0  0  0  0  0  0  0  0  0
   58.5180   31.7180   49.7410 C   0  0  0  0  0  0  0  0  0  0  0  0
   59.5490   31.4470   48.7380 N   0  0  0  0  0  0  0  0  0  0  0  0
   59.2610   31.5090   47.3320 C   0  0  0  0  0  0  0  0  0  0  0  0
   59.3100   32.7560   46.6840 C   0  0  0  0  0  0  0  0  0  0  0  0
   59.8140   33.8950   47.3510 C   0  0  0  0  0  0  0  0  0  0  0  0
   59.7980   35.1460   46.7420 C   0  0  0  0  0  0  0  0  0  0  0  0
   59.2660   35.2910   45.4670 C   0  0  0  0  0  0  0  0  0  0  0  0
   58.7730   34.1800   44.7830 C   0  0  0  0  0  0  0  0  0  0  0  0
   58.8160   32.8840   45.3600 C   0  0  0  0  0  0  0  0  0  0  0  0
   58.3590   31.7710   44.6810 N   0  0  0  0  0  0  0  0  0  0  0  0
   58.0830   31.8590   43.2280 C   0  0  0  0  0  0  0  0  0  0  0  0
   58.2090   30.5660   45.3410 C   0  0  0  0  0  0  0  0  0  0  0  0
   57.4980   29.4910   44.7510 C   0  0  0  0  0  0  0  0  0  0  0  0
   57.4550   28.2400   45.3520 C   0  0  0  0  0  0  0  0  0  0  0  0
   58.1250   28.0190   46.5460 C   0  0  0  0  0  0  0  0  0  0  0  0
   58.7850   29.0630   47.1950 C   0  0  0  0  0  0  0  0  0  0  0  0
   59.7360   28.5970   48.6070 Cl  0  0  0  0  0  0  0  0  0  0  0  0
   58.7590   30.3790   46.6440 C   0  0  0  0  0  0  0  0  0  0  0  0
   63.4776   34.4382   47.6792 H   0  0  0  0  0  0  0  0  0  0  0  0
   64.3042   33.9138   46.1732 H   0  0  0  0  0  0  0  0  0  0  0  0
   62.5298   34.1930   46.1732 H   0  0  0  0  0  0  0  0  0  0  0  0
   62.7223   31.8341   46.2931 H   0  0  0  0  0  0  0  0  0  0  0  0
   64.1095   31.9092   47.4259 H   0  0  0  0  0  0  0  0  0  0  0  0
   63.8633   33.2272   49.1679 H   0  0  0  0  0  0  0  0  0  0  0  0
   62.2934   33.3409   50.0318 H   0  0  0  0  0  0  0  0  0  0  0  0
   64.2561   31.0420   49.8801 H   0  0  0  0  0  0  0  0  0  0  0  0
   63.3411   31.6795   51.2886 H   0  0  0  0  0  0  0  0  0  0  0  0
   61.6050   28.8409   51.0945 H   0  0  0  0  0  0  0  0  0  0  0  0
   62.5718   30.0733   52.0024 H   0  0  0  0  0  0  0  0  0  0  0  0
   59.6477   30.0260   51.3389 H   0  0  0  0  0  0  0  0  0  0  0  0
   60.4994   30.6800   52.7765 H   0  0  0  0  0  0  0  0  0  0  0  0
   58.5569   31.9946   51.8840 H   0  0  0  0  0  0  0  0  0  0  0  0
   59.0847   33.4256   50.9422 H   0  0  0  0  0  0  0  0  0  0  0  0
   58.0156   30.7753   50.0035 H   0  0  0  0  0  0  0  0  0  0  0  0
   57.7988   32.4347   49.3178 H   0  0  0  0  0  0  0  0  0  0  0  0
   60.5380   31.3100   49.0470 H   0  0  0  0  0  0  0  0  0  0  0  0
   60.2249   33.7913   48.3661 H   0  0  0  0  0  0  0  0  0  0  0  0
   60.2066   36.0201   47.2702 H   0  0  0  0  0  0  0  0  0  0  0  0
   59.2335   36.2844   44.9957 H   0  0  0  0  0  0  0  0  0  0  0  0
   58.3433   34.3105   43.7788 H   0  0  0  0  0  0  0  0  0  0  0  0
   57.0457   32.1897   43.0712 H   0  0  0  0  0  0  0  0  0  0  0  0
   58.7720   32.5820   42.7670 H   0  0  0  0  0  0  0  0  0  0  0  0
   58.2264   30.8706   42.7670 H   0  0  0  0  0  0  0  0  0  0  0  0
   56.9704   29.6508   43.7991 H   0  0  0  0  0  0  0  0  0  0  0  0
   56.8888   27.4232   44.8805 H   0  0  0  0  0  0  0  0  0  0  0  0
   58.1362   27.0108   46.9857 H   0  0  0  0  0  0  0  0  0  0  0  0
  1  2  1  0
  2  3  1  0
  3  4  1  0
  4  5  1  0
  5  6  1  0
  6  7  1  0
  7  8  1  0
  8  9  1  0
  9 10  1  0
 10 11  1  0
 11 12  1  0
 12 13  1  0
 13 14  2  0
 14 15  1  0
 15 16  2  0
 16 17  1  0
 17 18  2  0
 18 19  1  0
 19 20  2  0
 20 21  1  0
 20 22  1  0
 22 23  2  0
 23 24  1  0
 24 25  2  0
 25 26  1  0
 26 27  1  0
 26 28  2  0
 28 13  1  0
 19 14  1  0
 28 22  1  0
  1 29  1  0
  1 30  1  0
  1 31  1  0
  2 32  1  0
  2 33  1  0
  4 34  1  0
  4 35  1  0
  5 36  1  0
  5 37  1  0
  7 38  1  0
  7 39  1  0
  8 40  1  0
  8 41  1  0
 10 42  1  0
 10 43  1  0
 11 44  1  0
 11 45  1  0
 12 46  1  0
 15 47  1  0
 16 48  1  0
 17 49  1  0
 18 50  1  0
 21 51  1  0
 21 52  1  0
 21 53  1  0
 23 54  1  0
 24 55  1  0
 25 56  1  0
M  CHG  1  20   1
M  END
>  <UniqueID>  (4) 
4

>  <SMILES>  (4) 
CCOCCOCCOCCNc1c2ccccc2[n+](C)c2cccc(Cl)c12

>  <Energy>  (4) 
83.01387547323128

>  <Genealogy>  (4) 
CCOCCOCCOCCNc1c2ccccc2[n+](C)c2cccc(Cl)c12 (3D coordinates assigned)
CCOCCOCCOCCNc1c2ccccc2[n+](C)c2cccc(Cl)c12 (optimized conformer: 83.01387547323128 kcal/mol)

>  <smiles>  (4) 
CCOCCOCCOCCNc1c2ccccc2[n+](C)c2cccc(Cl)c12

>  <score_type>  (4) 
oracle

>  <origin>  (4) 
adg

>  <m_score__min__energy>  (4) 
-6.5999999999999996

>  <m_primary>  (4) 
energy

$$$$
4:0
     RDKit          3D

 77 80  0  0  0  0  0  0  0  0999 V2000
   60.4100   28.9220   50.2210 C   0  0  0  0  0  0  0  0  0  0  0  0
   61.1340   30.1950   50.6310 C   0  0  0  0  0  0  0  0  0  0  0  0
   62.2860   30.3560   49.8140 O   0  0  0  0  0  0  0  0  0  0  0  0
   62.5600   31.6850   49.5680 N   0  0  0  0  0  0  0  0  0  0  0  0
   63.1840   32.4000   50.7010 C   0  0  0  0  0  0  0  0  0  0  0  0
   63.4980   33.8400   50.3100 C   0  0  0  0  0  0  0  0  0  0  0  0
   63.1870   31.8980   48.2470 C   0  0  0  0  0  0  0  0  0  0  0  0
   62.2260   31.4620   47.1360 C   0  0  0  0  0  0  0  0  0  0  0  0
   61.0130   30.8270   47.6860 N   0  0  0  0  0  0  0  0  0  0  0  0
   59.9020   30.8750   46.7440 C   0  0  0  0  0  0  0  0  0  0  0  0
   59.5340   29.6960   46.0340 C   0  0  0  0  0  0  0  0  0  0  0  0
   60.0970   28.4320   46.3490 C   0  0  0  0  0  0  0  0  0  0  0  0
   59.7640   27.2910   45.6250 C   0  0  0  0  0  0  0  0  0  0  0  0
   58.8780   27.3760   44.5630 C   0  0  0  0  0  0  0  0  0  0  0  0
   58.3030   28.5990   44.2310 C   0  0  0  0  0  0  0  0  0  0  0  0
   58.5900   29.7750   44.9730 C   0  0  0  0  0  0  0  0  0  0  0  0
   58.0050   30.9810   44.6500 N   0  0  0  0  0  0  0  0  0  0  0  0
   56.8510   31.0160   43.7230 C   0  0  0  0  0  0  0  0  0  0  0  0
   58.4640   32.1500   45.2170 C   0  0  0  0  0  0  0  0  0  0  0  0
   58.1410   33.4060   44.6510 C   0  0  0  0  0  0  0  0  0  0  0  0
   58.5230   34.5910   45.2650 C   0  0  0  0  0  0  0  0  0  0  0  0
   59.1700   34.5600   46.4890 C   0  0  0  0  0  0  0  0  0  0  0  0
   59.4990   33.3350   47.0940 C   0  0  0  0  0  0  0  0  0  0  0  0
   59.9630   33.3020   48.4190 O   0  0  0  0  0  0  0  0  0  0  0  0
   59.7790   34.3030   49.4200 C   0  0  0  0  0  0  0  0  0  0  0  0
   60.1200   33.8280   50.8620 C   0  0  0  0  0  0  0  0  0  0  0  0
   59.0230   33.1580   51.6440 N   0  0  0  0  0  0  0  0  0  0  0  0
   58.2410   34.2010   52.3690 C   0  0  0  0  0  0  0  0  0  0  0  0
   59.6930   32.2800   52.6540 C   0  0  0  0  0  0  0  0  0  0  0  0
   58.7140   31.4750   53.5410 C   0  0  0  0  0  0  0  0  0  0  0  0
   57.4440   31.0360   52.8010 C   0  0  0  0  0  0  0  0  0  0  0  0
   57.6690   30.9890   51.2970 C   0  0  0  0  0  0  0  0  0  0  0  0
   58.1420   32.3480   50.7320 C   0  0  0  0  0  0  0  0  0  0  0  0
   59.2960   32.1170   46.3740 C   0  0  0  0  0  0  0  0  0  0  0  0
   60.0972   28.3720   51.1208 H   0  0  0  0  0  0  0  0  0  0  0  0
   59.5238   29.1806   49.6228 H   0  0  0  0  0  0  0  0  0  0  0  0
   61.0853   28.2926   49.6228 H   0  0  0  0  0  0  0  0  0  0  0  0
   60.4651   31.0583   50.4996 H   0  0  0  0  0  0  0  0  0  0  0  0
   61.4339   30.1281   51.6872 H   0  0  0  0  0  0  0  0  0  0  0  0
   62.4920   32.3989   51.5561 H   0  0  0  0  0  0  0  0  0  0  0  0
   64.1204   31.8909   50.9731 H   0  0  0  0  0  0  0  0  0  0  0  0
   63.6302   34.4461   51.2184 H   0  0  0  0  0  0  0  0  0  0  0  0
   64.4227   33.8650   49.7148 H   0  0  0  0  0  0  0  0  0  0  0  0
   62.6677   34.2477   49.7148 H   0  0  0  0  0  0  0  0  0  0  0  0
   63.4258   32.9648   48.1246 H   0  0  0  0  0  0  0  0  0  0  0  0
   64.1084   31.3005   48.1834 H   0  0  0  0  0  0  0  0  0  0  0  0
   61.9323   32.3458   46.5507 H   0  0  0  0  0  0  0  0  0  0  0  0
   62.7430   30.7259   46.5028 H   0  0  0  0  0  0  0  0  0  0  0  0
   61.2130   29.8520   47.9970 H   0  0  0  0  0  0  0  0  0  0  0  0
   60.7330   31.2940   48.5790 H   0  0  0  0  0  0  0  0  0  0  0  0
   60.8109   28.3525   47.1821 H   0  0  0  0  0  0  0  0  0  0  0  0
   60.2048   26.3203   45.8962 H   0  0  0  0  0  0  0  0  0  0  0  0
   58.6289   26.4759   43.9818 H   0  0  0  0  0  0  0  0  0  0  0  0
   57.6124   28.6558   43.3767 H   0  0  0  0  0  0  0  0  0  0  0  0
   55.9162   31.0444   44.3021 H   0  0  0  0  0  0  0  0  0  0  0  0
   56.9170   31.9126   43.0891 H   0  0  0  0  0  0  0  0  0  0  0  0
   56.8625   30.1171   43.0891 H   0  0  0  0  0  0  0  0  0  0  0  0
   57.5770   33.4441   43.7074 H   0  0  0  0  0  0  0  0  0  0  0  0
   58.3117   35.5550   44.7791 H   0  0  0  0  0  0  0  0  0  0  0  0
   59.4288   35.5032   46.9924 H   0  0  0  0  0  0  0  0  0  0  0  0
   60.4256   35.1588   49.1760 H   0  0  0  0  0  0  0  0  0  0  0  0
   58.7104   34.5639   49.4158 H   0  0  0  0  0  0  0  0  0  0  0  0
   60.9549   33.1158   50.7868 H   0  0  0  0  0  0  0  0  0  0  0  0
   60.3416   34.7504   51.4188 H   0  0  0  0  0  0  0  0  0  0  0  0
   58.3512   34.0541   53.4536 H   0  0  0  0  0  0  0  0  0  0  0  0
   58.6162   35.1978   52.0940 H   0  0  0  0  0  0  0  0  0  0  0  0
   57.1790   34.1203   52.0940 H   0  0  0  0  0  0  0  0  0  0  0  0
   60.3387   31.5683   52.1186 H   0  0  0  0  0  0  0  0  0  0  0  0
   60.2569   32.9435   53.3261 H   0  0  0  0  0  0  0  0  0  0  0  0
   59.2328   30.5767   53.9069 H   0  0  0  0  0  0  0  0  0  0  0  0
   58.4000   32.1363   54.3620 H   0  0  0  0  0  0  0  0  0  0  0  0
   57.1532   30.0346   53.1513 H   0  0  0  0  0  0  0  0  0  0  0  0
   56.6496   31.7675   53.0106 H   0  0  0  0  0  0  0  0  0  0  0  0
   58.4334   30.2291   51.0772 H   0  0  0  0  0  0  0  0  0  0  0  0
   56.7087   30.7422   50.8205 H   0  0  0  0  0  0  0  0  0  0  0  0
   58.7017   32.1533   49.8053 H   0  0  0  0  0  0  0  0  0  0  0  0
   57.2311   32.9463   50.5828 H   0  0  0  0  0  0  0  0  0  0  0  0
  1  2  1  0
  2  3  1  0
  3  4  1  0
  4  5  1  0
  5  6  1  0
  4  7  1  0
  7  8  1  0
  8  9  1  0
  9 10  1  0
 10 11  2  0
 11 12  1  0
 12 13  2  0
 13 14  1  0
 14 15  2  0
 15 16  1  0
 16 17  2  0
 17 18  1  0
 17 19  1  0
 19 20  2  0
 20 21  1  0
 21 22  2  0
 22 23  1  0
 23 24  1  0
 24 25  1  0
 25 26  1  0
 26 27  1  0
 27 28  1  0
 27 29  1  0
 29 30  1  0
 30 31  1  0
 31 32  1  0
 32 33  1  0
 23 34  2  0
 34 10  1  0
 16 11  1  0
 34 19  1  0
 33 27  1  0
  1 35  1  0
  1 36  1  0
  1 37  1  0
  2 38  1  0
  2 39  1  0
  5 40  1  0
  5 41  1  0
  6 42  1  0
  6 43  1  0
  6 44  1  0
  7 45  1  0
  7 46  1  0
  8 47  1  0
  8 48  1  0
  9 49  1  0
  9 50  1  0
 12 51  1  0
 13 52  1  0
 14 53  1  0
 15 54  1  0
 18 55  1  0
 18 56  1  0
 18 57  1  0
 20 58  1  0
 21 59  1  0
 22 60  1  0
 25 61  1  0
 25 62  1  0
 26 63  1  0
 26 64  1  0
 28 65  1  0
 28 66  1  0
 28 67  1  0
 29 68  1  0
 29 69  1  0
 30 70  1  0
 30 71  1  0
 31 72  1  0
 31 73  1  0
 32 74  1  0
 32 75  1  0
 33 76  1  0
 33 77  1  0
M  CHG  3   9   1  17   1  27   1
M  END
>  <UniqueID>  (5) 
5

>  <SMILES>  (5) 
CCON(CC)CC[NH2+]c1c2ccccc2[n+](C)c2cccc(OCC[N+]3(C)CCCCC3)c12

>  <Energy>  (5) 
136.95098644906628

>  <Genealogy>  (5) 
CCON(CC)CC[NH2+]c1c2ccccc2[n+](C)c2cccc(OCC[N+]3(C)CCCCC3)c12 (protonated)
CCON(CC)CC[NH2+]c1c2ccccc2[n+](C)c2cccc(OCC[N+]3(C)CCCCC3)c12 (3D coordinates assigned)
CCON(CC)CC[NH2+]c1c2ccccc2[n+](C)c2cccc(OCC[N+]3(C)CCCCC3)c12 (nonaromatic ring conformer: 136.95098644906628 kcal/mol)

>  <smiles>  (5) 
CCON(CC)CCNc1c2ccccc2[n+](C)c2cccc(OCC[N+]3(C)CCCCC3)c12

>  <score_type>  (5) 
oracle

>  <origin>  (5) 
adg

>  <m_score__min__energy>  (5) 
-3.5099999999999998

>  <m_primary>  (5) 
energy

$$$$
5:0
     RDKit          3D

 57 60  0  0  0  0  0  0  0  0999 V2000
   60.4150   29.9470   46.2600 C   0  0  0  0  0  0  0  0  0  0  0  0
   59.1320   29.9690   47.0840 C   0  0  0  0  0  0  0  0  0  0  0  0
   58.1510   30.8680   46.4620 N   0  0  0  0  0  0  0  0  0  0  0  0
   58.5020   31.1630   45.0640 C   0  0  0  0  0  0  0  0  0  0  0  0
   57.5790   32.2300   44.4500 C   0  0  0  0  0  0  0  0  0  0  0  0
   57.9080   33.6840   44.8580 C   0  0  0  0  0  0  0  0  0  0  0  0
   58.0960   33.8740   46.3090 N   0  0  0  0  0  0  0  0  0  0  0  0
   59.0240   34.9640   46.6400 C   0  0  0  0  0  0  0  0  0  0  0  0
   60.4220   34.4070   46.9190 C   0  0  0  0  0  0  0  0  0  0  0  0
   60.3290   33.0110   47.3390 N   0  0  0  0  0  0  0  0  0  0  0  0
   60.8550   32.5820   48.6030 C   0  0  0  0  0  0  0  0  0  0  0  0
   59.9960   32.1540   49.6100 C   0  0  0  0  0  0  0  0  0  0  0  0
   60.4810   31.7470   50.8410 C   0  0  0  0  0  0  0  0  0  0  0  0
   61.8210   31.7020   51.1210 N   0  0  0  0  0  0  0  0  0  0  0  0
   62.2850   31.1270   52.3960 C   0  0  0  0  0  0  0  0  0  0  0  0
   62.7090   32.2090   50.1820 C   0  0  0  0  0  0  0  0  0  0  0  0
   64.0910   32.3410   50.4610 C   0  0  0  0  0  0  0  0  0  0  0  0
   64.9790   32.8120   49.4940 C   0  0  0  0  0  0  0  0  0  0  0  0
   64.5170   33.1750   48.2320 C   0  0  0  0  0  0  0  0  0  0  0  0
   63.1590   33.0940   47.9330 C   0  0  0  0  0  0  0  0  0  0  0  0
   62.2370   32.6330   48.8940 C   0  0  0  0  0  0  0  0  0  0  0  0
   59.3190   31.4650   51.7040 C   0  0  0  0  0  0  0  0  0  0  0  0
   59.2840   31.1520   53.0240 N   0  0  0  0  0  0  0  0  0  0  0  0
   58.0800   31.0060   53.6530 C   0  0  0  0  0  0  0  0  0  0  0  0
   56.8750   31.2060   52.9470 C   0  0  0  0  0  0  0  0  0  0  0  0
   56.9130   31.5650   51.5910 C   0  0  0  0  0  0  0  0  0  0  0  0
   58.1620   31.6870   50.9880 C   0  0  0  0  0  0  0  0  0  0  0  0
   58.5300   32.1260   49.6510 C   0  0  0  0  0  0  0  0  0  0  0  0
   57.7390   32.4690   48.7340 O   0  0  0  0  0  0  0  0  0  0  0  0
   61.2838   29.9321   46.9345 H   0  0  0  0  0  0  0  0  0  0  0  0
   60.4279   29.0485   45.6255 H   0  0  0  0  0  0  0  0  0  0  0  0
   60.4587   30.8445   45.6255 H   0  0  0  0  0  0  0  0  0  0  0  0
   58.7141   28.9527   47.1346 H   0  0  0  0  0  0  0  0  0  0  0  0
   59.3601   30.3294   48.0979 H   0  0  0  0  0  0  0  0  0  0  0  0
   58.1740   31.7740   46.9870 H   0  0  0  0  0  0  0  0  0  0  0  0
   59.5392   31.5275   45.0277 H   0  0  0  0  0  0  0  0  0  0  0  0
   58.3846   30.2370   44.4819 H   0  0  0  0  0  0  0  0  0  0  0  0
   57.6525   32.1569   43.3549 H   0  0  0  0  0  0  0  0  0  0  0  0
   56.5686   32.0223   44.8320 H   0  0  0  0  0  0  0  0  0  0  0  0
   58.8345   33.9850   44.3472 H   0  0  0  0  0  0  0  0  0  0  0  0
   57.0436   34.2988   44.5667 H   0  0  0  0  0  0  0  0  0  0  0  0
   58.4190   32.9850   46.7540 H   0  0  0  0  0  0  0  0  0  0  0  0
   59.0754   35.6658   45.7945 H   0  0  0  0  0  0  0  0  0  0  0  0
   58.6600   35.4823   47.5393 H   0  0  0  0  0  0  0  0  0  0  0  0
   61.0294   34.4725   46.0043 H   0  0  0  0  0  0  0  0  0  0  0  0
   60.8914   34.9950   47.7215 H   0  0  0  0  0  0  0  0  0  0  0  0
   59.6470   32.3930   46.8430 H   0  0  0  0  0  0  0  0  0  0  0  0
   61.8369   31.6822   53.2332 H   0  0  0  0  0  0  0  0  0  0  0  0
   61.9833   30.0707   52.4533 H   0  0  0  0  0  0  0  0  0  0  0  0
   63.3812   31.1988   52.4533 H   0  0  0  0  0  0  0  0  0  0  0  0
   64.4705   32.0676   51.4566 H   0  0  0  0  0  0  0  0  0  0  0  0
   66.0500   32.8971   49.7298 H   0  0  0  0  0  0  0  0  0  0  0  0
   65.2265   33.5269   47.4686 H   0  0  0  0  0  0  0  0  0  0  0  0
   62.8024   33.3930   46.9363 H   0  0  0  0  0  0  0  0  0  0  0  0
   58.0499   30.7305   54.7175 H   0  0  0  0  0  0  0  0  0  0  0  0
   55.9089   31.0809   53.4578 H   0  0  0  0  0  0  0  0  0  0  0  0
   55.9876   31.7439   51.0238 H   0  0  0  0  0  0  0  0  0  0  0  0
  1  2  1  0
  2  3  1  0
  3  4  1  0
  4  5  1  0
  5  6  1  0
  6  7  1  0
  7  8  1  0
  8  9  1  0
  9 10  1  0
 10 11  1  0
 11 12  2  0
 12 13  1  0
 13 14  2  0
 14 15  1  0
 14 16  1  0
 16 17  2  0
 17 18  1  0
 18 19  2  0
 19 20  1  0
 20 21  2  0
 13 22  1  0
 22 23  2  0
 23 24  1  0
 24 25  2  0
 25 26  1  0
 26 27  2  0
 27 28  1  0
 28 29  2  0
 21 11  1  0
 27 22  1  0
 28 12  1  0
 21 16  1  0
  1 30  1  0
  1 31  1  0
  1 32  1  0
  2 33  1  0
  2 34  1  0
  3 35  1  0
  4 36  1  0
  4 37  1  0
  5 38  1  0
  5 39  1  0
  6 40  1  0
  6 41  1  0
  7 42  1  0
  8 43  1  0
  8 44  1  0
  9 45  1  0
  9 46  1  0
 10 47  1  0
 15 48  1  0
 15 49  1  0
 15 50  1  0
 17 51  1  0
 18 52  1  0
 19 53  1  0
 20 54  1  0
 24 55  1  0
 25 56  1  0
 26 57  1  0
M  CHG  1  14   1
M  END
>  <UniqueID>  (6) 
6

>  <SMILES>  (6) 
CCNCCCNCCNc1c2c([n+](C)c3ccccc13)-c1ncccc1C2=O

>  <Energy>  (6) 
108.01315660137197

>  <Genealogy>  (6) 
CCNCCCNCCNc1c2c([n+](C)c3ccccc13)-c1ncccc1C2=O (3D coordinates assigned)
CCNCCCNCCNc1c2c([n+](C)c3ccccc13)-c1ncccc1C2=O (nonaromatic ring conformer: 108.01315660137197 kcal/mol)

>  <smiles>  (6) 
CCNCCCNCCNc1c2c([n+](C)c3ccccc13)-c1ncccc1C2=O

>  <score_type>  (6) 
oracle

>  <origin>  (6) 
adg

>  <m_score__min__energy>  (6) 
-5.75

>  <m_primary>  (6) 
energy

$$$$
6:0
     RDKit          3D

 32 33  0  0  0  0  0  0  0  0999 V2000
   59.2850   34.9730   47.3180 C   0  0  0  0  0  0  0  0  0  0  0  0
   58.8120   33.7580   46.5740 C   0  0  0  0  0  0  0  0  0  0  0  0
   57.8790   33.8850   45.5350 C   0  0  0  0  0  0  0  0  0  0  0  0
   57.4090   32.7500   44.8660 C   0  0  0  0  0  0  0  0  0  0  0  0
   57.8730   31.4720   45.2270 C   0  0  0  0  0  0  0  0  0  0  0  0
   57.3970   30.2830   44.5810 N   0  0  0  0  0  0  0  0  0  0  0  0
   56.0490   29.8010   44.5880 C   0  0  0  0  0  0  0  0  0  0  0  0
   55.1430   30.5230   44.0970 O   0  0  0  0  0  0  0  0  0  0  0  0
   55.7210   28.5690   45.2420 N   0  0  0  0  0  0  0  0  0  0  0  0
   56.6400   27.5490   45.6600 C   0  0  0  0  0  0  0  0  0  0  0  0
   58.0220   27.7930   45.7660 C   0  0  0  0  0  0  0  0  0  0  0  0
   58.8930   26.7770   46.1920 C   0  0  0  0  0  0  0  0  0  0  0  0
   60.3610   27.0530   46.3370 C   0  0  0  0  0  0  0  0  0  0  0  0
   58.3710   25.5270   46.5560 C   0  0  0  0  0  0  0  0  0  0  0  0
   56.9970   25.2900   46.4750 C   0  0  0  0  0  0  0  0  0  0  0  0
   56.1340   26.2970   46.0350 C   0  0  0  0  0  0  0  0  0  0  0  0
   54.8010   26.0530   45.9680 F   0  0  0  0  0  0  0  0  0  0  0  0
   58.7710   31.3460   46.2940 C   0  0  0  0  0  0  0  0  0  0  0  0
   59.2400   32.4800   46.9630 C   0  0  0  0  0  0  0  0  0  0  0  0
   59.2141   34.7908   48.4005 H   0  0  0  0  0  0  0  0  0  0  0  0
   60.3307   35.1834   47.0493 H   0  0  0  0  0  0  0  0  0  0  0  0
   58.6568   35.8351   47.0493 H   0  0  0  0  0  0  0  0  0  0  0  0
   57.5150   34.8816   45.2447 H   0  0  0  0  0  0  0  0  0  0  0  0
   56.6739   32.8572   44.0547 H   0  0  0  0  0  0  0  0  0  0  0  0
   58.4225   28.7859   45.5136 H   0  0  0  0  0  0  0  0  0  0  0  0
   60.6212   27.1019   47.4047 H   0  0  0  0  0  0  0  0  0  0  0  0
   60.9349   26.2470   45.8563 H   0  0  0  0  0  0  0  0  0  0  0  0
   60.6030   28.0124   45.8563 H   0  0  0  0  0  0  0  0  0  0  0  0
   59.0453   24.7316   46.9061 H   0  0  0  0  0  0  0  0  0  0  0  0
   56.5928   24.3071   46.7586 H   0  0  0  0  0  0  0  0  0  0  0  0
   59.1097   30.3476   46.6078 H   0  0  0  0  0  0  0  0  0  0  0  0
   59.9476   32.3699   47.7980 H   0  0  0  0  0  0  0  0  0  0  0  0
  1  2  1  0
  2  3  2  0
  3  4  1  0
  4  5  2  0
  5  6  1  0
  6  7  1  0
  7  8  2  0
  7  9  1  0
  9 10  1  0
 10 11  2  0
 11 12  1  0
 12 13  1  0
 12 14  2  0
 14 15  1  0
 15 16  2  0
 16 17  1  0
  5 18  1  0
 18 19  2  0
 19  2  1  0
 16 10  1  0
  1 20  1  0
  1 21  1  0
  1 22  1  0
  3 23  1  0
  4 24  1  0
 11 25  1  0
 13 26  1  0
 13 27  1  0
 13 28  1  0
 14 29  1  0
 15 30  1  0
 18 31  1  0
 19 32  1  0
M  CHG  2   6  -1   9  -1
M  END
>  <UniqueID>  (7) 
7

>  <SMILES>  (7) 
Cc1ccc([N-]C(=O)[N-]c2cc(C)ccc2F)cc1

>  <Energy>  (7) 
37.59346559385688

>  <Genealogy>  (7) 
Cc1ccc([N-]C(=O)[N-]c2cc(C)ccc2F)cc1 (protonated)
Cc1ccc([N-]C(=O)[N-]c2cc(C)ccc2F)cc1 (3D coordinates assigned)
Cc1ccc([N-]C(=O)[N-]c2cc(C)ccc2F)cc1 (optimized conformer: 37.59346559385688 kcal/mol)

>  <smiles>  (7) 
Cc1ccc(NC(=O)Nc2cc(C)ccc2F)cc1

>  <score_type>  (7) 
oracle

>  <origin>  (7) 
adg

>  <m_score__min__energy>  (7) 
-10.4

>  <m_primary>  (7) 
energy

$$$$
7:0
     RDKit          3D

 43 43  0  0  0  0  0  0  0  0999 V2000
   56.3050   29.5730   42.6340 C   0  0  0  0  0  0  0  0  0  0  0  0
   55.1800   29.7280   43.6600 C   0  0  0  0  0  0  0  0  0  0  0  0
   55.5190   29.0780   44.8710 O   0  0  0  0  0  0  0  0  0  0  0  0
   56.8830   28.6960   44.8920 C   0  0  0  0  0  0  0  0  0  0  0  0
   57.7460   29.8180   45.4600 C   0  0  0  0  0  0  0  0  0  0  0  0
   57.1130   31.0570   45.2080 O   0  0  0  0  0  0  0  0  0  0  0  0
   58.0570   32.0210   44.7800 C   0  0  0  0  0  0  0  0  0  0  0  0
   57.5900   33.4330   45.1450 C   0  0  0  0  0  0  0  0  0  0  0  0
   57.5870   33.6000   46.5520 O   0  0  0  0  0  0  0  0  0  0  0  0
   58.5360   34.5710   46.9440 C   0  0  0  0  0  0  0  0  0  0  0  0
   59.6790   34.5910   45.9300 C   0  0  0  0  0  0  0  0  0  0  0  0
   60.4280   33.3760   45.9810 O   0  0  0  0  0  0  0  0  0  0  0  0
   61.5350   33.1310   46.8150 C   0  0  0  0  0  0  0  0  0  0  0  0
   62.7730   33.7850   46.6400 C   0  0  0  0  0  0  0  0  0  0  0  0
   63.8350   33.5310   47.5110 C   0  0  0  0  0  0  0  0  0  0  0  0
   63.6870   32.6180   48.5660 C   0  0  0  0  0  0  0  0  0  0  0  0
   64.8060   32.3710   49.5340 C   0  0  0  0  0  0  0  0  0  0  0  0
   62.4660   31.9450   48.7270 C   0  0  0  0  0  0  0  0  0  0  0  0
   61.3980   32.1990   47.8580 C   0  0  0  0  0  0  0  0  0  0  0  0
   59.7440   31.2750   48.1280 Br  0  0  0  0  0  0  0  0  0  0  0  0
   57.2633   29.4410   43.1577 H   0  0  0  0  0  0  0  0  0  0  0  0
   56.1076   28.6936   42.0034 H   0  0  0  0  0  0  0  0  0  0  0  0
   56.3527   30.4731   42.0034 H   0  0  0  0  0  0  0  0  0  0  0  0
   55.0151   30.7975   43.8573 H   0  0  0  0  0  0  0  0  0  0  0  0
   54.2648   29.2709   43.2556 H   0  0  0  0  0  0  0  0  0  0  0  0
   56.9977   27.7992   45.5186 H   0  0  0  0  0  0  0  0  0  0  0  0
   57.2081   28.4850   43.8625 H   0  0  0  0  0  0  0  0  0  0  0  0
   57.8655   29.6786   46.5446 H   0  0  0  0  0  0  0  0  0  0  0  0
   58.7371   29.8028   44.9831 H   0  0  0  0  0  0  0  0  0  0  0  0
   59.0228   31.8224   45.2677 H   0  0  0  0  0  0  0  0  0  0  0  0
   58.1613   31.9538   43.6870 H   0  0  0  0  0  0  0  0  0  0  0  0
   58.2714   34.1690   44.6934 H   0  0  0  0  0  0  0  0  0  0  0  0
   56.5690   33.5826   44.7641 H   0  0  0  0  0  0  0  0  0  0  0  0
   58.0573   35.5608   46.9790 H   0  0  0  0  0  0  0  0  0  0  0  0
   58.9294   34.3234   47.9410 H   0  0  0  0  0  0  0  0  0  0  0  0
   59.2618   34.7146   44.9197 H   0  0  0  0  0  0  0  0  0  0  0  0
   60.3502   35.4277   46.1740 H   0  0  0  0  0  0  0  0  0  0  0  0
   62.9025   34.4988   45.8131 H   0  0  0  0  0  0  0  0  0  0  0  0
   64.7941   34.0504   47.3688 H   0  0  0  0  0  0  0  0  0  0  0  0
   64.4260   32.4549   50.5629 H   0  0  0  0  0  0  0  0  0  0  0  0
   65.2127   31.3615   49.3745 H   0  0  0  0  0  0  0  0  0  0  0  0
   65.5999   33.1155   49.3745 H   0  0  0  0  0  0  0  0  0  0  0  0
   62.3474   31.2140   49.5404 H   0  0  0  0  0  0  0  0  0  0  0  0
  1  2  1  0
  2  3  1  0
  3  4  1  0
  4  5  1  0
  5  6  1  0
  6  7  1  0
  7  8  1  0
  8  9  1  0
  9 10  1  0
 10 11  1  0
 11 12  1  0
 12 13  1  0
 13 14  2  0
 14 15  1  0
 15 16  2  0
 16 17  1  0
 16 18  1  0
 18 19  2  0
 19 20  1  0
 19 13  1  0
  1 21  1  0
  1 22  1  0
  1 23  1  0
  2 24  1  0
  2 25  1  0
  4 26  1  0
  4 27  1  0
  5 28  1  0
  5 29  1  0
  7 30  1  0
  7 31  1  0
  8 32  1  0
  8 33  1  0
 10 34  1  0
 10 35  1  0
 11 36  1  0
 11 37  1  0
 14 38  1  0
 15 39  1  0
 17 40  1  0
 17 41  1  0
 17 42  1  0
 18 43  1  0
M  END
>  <UniqueID>  (8) 
8

>  <SMILES>  (8) 
CCOCCOCCOCCOc1ccc(C)cc1Br

>  <Energy>  (8) 
36.41865769252771

>  <Genealogy>  (8) 
CCOCCOCCOCCOc1ccc(C)cc1Br (3D coordinates assigned)
CCOCCOCCOCCOc1ccc(C)cc1Br (optimized conformer: 36.41865769252771 kcal/mol)

>  <smiles>  (8) 
CCOCCOCCOCCOc1ccc(C)cc1Br

>  <score_type>  (8) 
oracle

>  <origin>  (8) 
adg

>  <m_score__min__energy>  (8) 
-6.6399999999999997

>  <m_primary>  (8) 
energy

$$$$
8:0
     RDKit          3D

 47 48  0  0  0  0  0  0  0  0999 V2000
   58.8960   28.7200   48.3740 C   0  0  0  0  0  0  0  0  0  0  0  0
   58.4190   27.6280   47.4230 C   0  0  0  0  0  0  0  0  0  0  0  0
   57.6560   28.1930   46.3730 O   0  0  0  0  0  0  0  0  0  0  0  0
   57.2490   27.1950   45.4610 C   0  0  0  0  0  0  0  0  0  0  0  0
   58.1500   27.2360   44.2280 C   0  0  0  0  0  0  0  0  0  0  0  0
   58.8440   28.4690   44.1600 O   0  0  0  0  0  0  0  0  0  0  0  0
   60.1980   28.3240   44.5520 C   0  0  0  0  0  0  0  0  0  0  0  0
   60.5880   29.4040   45.5640 C   0  0  0  0  0  0  0  0  0  0  0  0
   59.4680   30.3130   45.8030 N   0  0  0  0  0  0  0  0  0  0  0  0
   59.6420   31.6260   46.3530 C   0  0  0  0  0  0  0  0  0  0  0  0
   58.7440   32.6920   46.2490 C   0  0  0  0  0  0  0  0  0  0  0  0
   57.4120   32.6700   45.6250 C   0  0  0  0  0  0  0  0  0  0  0  0
   56.7080   33.7140   45.5880 O   0  0  0  0  0  0  0  0  0  0  0  0
   56.9460   31.4790   45.0560 O   0  0  0  0  0  0  0  0  0  0  0  0
   57.1860   31.1100   43.7000 C   0  0  0  0  0  0  0  0  0  0  0  0
   56.2340   30.0000   43.2640 C   0  0  0  0  0  0  0  0  0  0  0  0
   59.2490   33.7860   46.8680 N   0  0  0  0  0  0  0  0  0  0  0  0
   60.4500   33.4200   47.3530 C   0  0  0  0  0  0  0  0  0  0  0  0
   61.3450   34.2200   48.0620 C   0  0  0  0  0  0  0  0  0  0  0  0
   62.5680   33.6480   48.4580 C   0  0  0  0  0  0  0  0  0  0  0  0
   62.8690   32.3090   48.1340 C   0  0  0  0  0  0  0  0  0  0  0  0
   61.9480   31.5230   47.4200 C   0  0  0  0  0  0  0  0  0  0  0  0
   60.7320   32.1080   47.0570 C   0  0  0  0  0  0  0  0  0  0  0  0
   58.7518   28.3898   49.4133 H   0  0  0  0  0  0  0  0  0  0  0  0
   59.9632   28.9195   48.1974 H   0  0  0  0  0  0  0  0  0  0  0  0
   58.3171   29.6386   48.1974 H   0  0  0  0  0  0  0  0  0  0  0  0
   59.2912   27.1086   46.9995 H   0  0  0  0  0  0  0  0  0  0  0  0
   57.7917   26.9162   47.9796 H   0  0  0  0  0  0  0  0  0  0  0  0
   57.3262   26.2074   45.9392 H   0  0  0  0  0  0  0  0  0  0  0  0
   56.2064   27.3754   45.1602 H   0  0  0  0  0  0  0  0  0  0  0  0
   58.8783   26.4136   44.2846 H   0  0  0  0  0  0  0  0  0  0  0  0
   57.5260   27.1295   43.3284 H   0  0  0  0  0  0  0  0  0  0  0  0
   60.3371   27.3335   45.0097 H   0  0  0  0  0  0  0  0  0  0  0  0
   60.8363   28.4269   43.6621 H   0  0  0  0  0  0  0  0  0  0  0  0
   60.8736   28.9249   46.5121 H   0  0  0  0  0  0  0  0  0  0  0  0
   61.4330   29.9806   45.1597 H   0  0  0  0  0  0  0  0  0  0  0  0
   58.5040   29.9970   45.5620 H   0  0  0  0  0  0  0  0  0  0  0  0
   57.0353   31.9883   43.0551 H   0  0  0  0  0  0  0  0  0  0  0  0
   58.2193   30.7432   43.6120 H   0  0  0  0  0  0  0  0  0  0  0  0
   55.8123   29.5084   44.1531 H   0  0  0  0  0  0  0  0  0  0  0  0
   55.4200   30.4304   42.6623 H   0  0  0  0  0  0  0  0  0  0  0  0
   56.7835   29.2610   42.6623 H   0  0  0  0  0  0  0  0  0  0  0  0
   58.7980   34.7230   46.9610 H   0  0  0  0  0  0  0  0  0  0  0  0
   61.1027   35.2653   48.3041 H   0  0  0  0  0  0  0  0  0  0  0  0
   63.2944   34.2495   49.0242 H   0  0  0  0  0  0  0  0  0  0  0  0
   63.8321   31.8762   48.4424 H   0  0  0  0  0  0  0  0  0  0  0  0
   62.1773   30.4802   47.1553 H   0  0  0  0  0  0  0  0  0  0  0  0
  1  2  1  0
  2  3  1  0
  3  4  1  0
  4  5  1  0
  5  6  1  0
  6  7  1  0
  7  8  1  0
  8  9  1  0
  9 10  1  0
 10 11  2  0
 11 12  1  0
 12 13  2  0
 12 14  1  0
 14 15  1  0
 15 16  1  0
 11 17  1  0
 17 18  1  0
 18 19  2  0
 19 20  1  0
 20 21  2  0
 21 22  1  0
 22 23  2  0
 23 10  1  0
 23 18  1  0
  1 24  1  0
  1 25  1  0
  1 26  1  0
  2 27  1  0
  2 28  1  0
  4 29  1  0
  4 30  1  0
  5 31  1  0
  5 32  1  0
  7 33  1  0
  7 34  1  0
  8 35  1  0
  8 36  1  0
  9 37  1  0
 15 38  1  0
 15 39  1  0
 16 40  1  0
 16 41  1  0
 16 42  1  0
 17 43  1  0
 19 44  1  0
 20 45  1  0
 21 46  1  0
 22 47  1  0
M  END
>  <UniqueID>  (9) 
9

>  <SMILES>  (9) 
CCOCCOCCNc1c(C(=O)OCC)[nH]c2ccccc12

>  <Energy>  (9) 
77.62027235223792

>  <Genealogy>  (9) 
CCOCCOCCNc1c(C(=O)OCC)[nH]c2ccccc12 (3D coordinates assigned)
CCOCCOCCNc1c(C(=O)OCC)[nH]c2ccccc12 (optimized conformer: 77.62027235223792 kcal/mol)

>  <smiles>  (9) 
CCOCCOCCNc1c(C(=O)OCC)[nH]c2ccccc12

>  <score_type>  (9) 
oracle

>  <origin>  (9) 
adg

>  <m_score__min__energy>  (9) 
-5.6600000000000001

>  <m_primary>  (9) 
energy

$$$$
9:0
     RDKit          3D

 45 47  0  0  0  0  0  0  0  0999 V2000
   58.1490   27.1010   42.9530 C   0  0  0  0  0  0  0  0  0  0  0  0
   58.0570   26.5350   44.3620 C   0  0  0  0  0  0  0  0  0  0  0  0
   58.2510   27.5790   45.2920 O   0  0  0  0  0  0  0  0  0  0  0  0
   59.6320   27.8530   45.4120 C   0  0  0  0  0  0  0  0  0  0  0  0
   59.8300   28.9890   46.4240 C   0  0  0  0  0  0  0  0  0  0  0  0
   58.5460   29.5390   46.9070 N   0  0  0  0  0  0  0  0  0  0  0  0
   58.3180   30.9030   46.4440 C   0  0  0  0  0  0  0  0  0  0  0  0
   58.7520   32.0060   47.2150 C   0  0  0  0  0  0  0  0  0  0  0  0
   58.8940   31.9150   48.6160 C   0  0  0  0  0  0  0  0  0  0  0  0
   59.3030   33.0170   49.3630 C   0  0  0  0  0  0  0  0  0  0  0  0
   59.5660   34.2280   48.7330 C   0  0  0  0  0  0  0  0  0  0  0  0
   59.4390   34.3390   47.3500 C   0  0  0  0  0  0  0  0  0  0  0  0
   59.0540   33.2280   46.5600 C   0  0  0  0  0  0  0  0  0  0  0  0
   58.9820   33.3050   45.1840 N   0  0  0  0  0  0  0  0  0  0  0  0
   59.6550   34.4090   44.4680 C   0  0  0  0  0  0  0  0  0  0  0  0
   58.2630   32.3540   44.4860 C   0  0  0  0  0  0  0  0  0  0  0  0
   57.9160   32.5440   43.1240 C   0  0  0  0  0  0  0  0  0  0  0  0
   57.1640   31.5980   42.4370 C   0  0  0  0  0  0  0  0  0  0  0  0
   56.6630   30.4880   43.1020 C   0  0  0  0  0  0  0  0  0  0  0  0
   56.9330   30.2890   44.4590 C   0  0  0  0  0  0  0  0  0  0  0  0
   56.1380   29.3250   45.1630 N   0  0  0  0  0  0  0  0  0  0  0  0
   57.8340   31.1620   45.1360 C   0  0  0  0  0  0  0  0  0  0  0  0
   58.3253   28.1856   43.0043 H   0  0  0  0  0  0  0  0  0  0  0  0
   58.9806   26.6193   42.4179 H   0  0  0  0  0  0  0  0  0  0  0  0
   57.2076   26.9075   42.4179 H   0  0  0  0  0  0  0  0  0  0  0  0
   57.0647   26.0854   44.5144 H   0  0  0  0  0  0  0  0  0  0  0  0
   58.8290   25.7643   44.5032 H   0  0  0  0  0  0  0  0  0  0  0  0
   60.1577   26.9521   45.7614 H   0  0  0  0  0  0  0  0  0  0  0  0
   60.0379   28.1516   44.4342 H   0  0  0  0  0  0  0  0  0  0  0  0
   60.3952   28.6018   47.2846 H   0  0  0  0  0  0  0  0  0  0  0  0
   60.3747   29.7997   45.9181 H   0  0  0  0  0  0  0  0  0  0  0  0
   57.8160   28.8770   46.5670 H   0  0  0  0  0  0  0  0  0  0  0  0
   58.5180   29.5080   47.9510 H   0  0  0  0  0  0  0  0  0  0  0  0
   58.6793   30.9631   49.1238 H   0  0  0  0  0  0  0  0  0  0  0  0
   59.4181   32.9290   50.4534 H   0  0  0  0  0  0  0  0  0  0  0  0
   59.8750   35.1003   49.3276 H   0  0  0  0  0  0  0  0  0  0  0  0
   59.6409   35.3048   46.8638 H   0  0  0  0  0  0  0  0  0  0  0  0
   60.0835   35.1119   45.1976 H   0  0  0  0  0  0  0  0  0  0  0  0
   60.4581   34.0009   43.8367 H   0  0  0  0  0  0  0  0  0  0  0  0
   58.9243   34.9359   43.8367 H   0  0  0  0  0  0  0  0  0  0  0  0
   58.2472   33.4544   42.6030 H   0  0  0  0  0  0  0  0  0  0  0  0
   56.9655   31.7298   41.3631 H   0  0  0  0  0  0  0  0  0  0  0  0
   56.0475   29.7577   42.5562 H   0  0  0  0  0  0  0  0  0  0  0  0
   56.2180   28.3050   44.9590 H   0  0  0  0  0  0  0  0  0  0  0  0
   55.5830   29.6030   46.0040 H   0  0  0  0  0  0  0  0  0  0  0  0
  1  2  1  0
  2  3  1  0
  3  4  1  0
  4  5  1  0
  5  6  1  0
  6  7  1  0
  7  8  2  0
  8  9  1  0
  9 10  2  0
 10 11  1  0
 11 12  2  0
 12 13  1  0
 13 14  2  0
 14 15  1  0
 14 16  1  0
 16 17  2  0
 17 18  1  0
 18 19  2  0
 19 20  1  0
 20 21  1  0
 20 22  2  0
 22  7  1  0
 13  8  1  0
 22 16  1  0
  1 23  1  0
  1 24  1  0
  1 25  1  0
  2 26  1  0
  2 27  1  0
  4 28  1  0
  4 29  1  0
  5 30  1  0
  5 31  1  0
  6 32  1  0
  6 33  1  0
  9 34  1  0
 10 35  1  0
 11 36  1  0
 12 37  1  0
 15 38  1  0
 15 39  1  0
 15 40  1  0
 17 41  1  0
 18 42  1  0
 19 43  1  0
 21 44  1  0
 21 45  1  0
M  CHG  2   6   1  14   1
M  END
>  <UniqueID>  (10) 
10

>  <SMILES>  (10) 
CCOCC[NH2+]c1c2ccccc2[n+](C)c2cccc(N)c12

>  <Energy>  (10) 
82.95707480243658

>  <Genealogy>  (10) 
CCOCC[NH2+]c1c2ccccc2[n+](C)c2cccc(N)c12 (protonated)
CCOCC[NH2+]c1c2ccccc2[n+](C)c2cccc(N)c12 (3D coordinates assigned)
CCOCC[NH2+]c1c2ccccc2[n+](C)c2cccc(N)c12 (optimized conformer: 82.95707480243658 kcal/mol)

>  <smiles>  (10) 
CCOCCNc1c2ccccc2[n+](C)c2cccc(N)c12

>  <score_type>  (10) 
oracle

>  <origin>  (10) 
adg

>  <m_score__min__energy>  (10) 
-3.6800000000000002

>  <m_primary>  (10) 
energy

$$$$
10:0
     RDKit          3D

 62 65  0  0  0  0  0  0  0  0999 V2000
   58.9870   29.6250   47.7180 C   0  0  0  0  0  0  0  0  0  0  0  0
   59.8230   29.3790   48.9700 C   0  0  0  0  0  0  0  0  0  0  0  0
   59.0680   29.6640   50.1340 O   0  0  0  0  0  0  0  0  0  0  0  0
   59.6930   29.1530   51.3010 C   0  0  0  0  0  0  0  0  0  0  0  0
   58.6950   29.1130   52.4530 C   0  0  0  0  0  0  0  0  0  0  0  0
   57.3950   29.3450   51.9570 O   0  0  0  0  0  0  0  0  0  0  0  0
   56.8140   30.4400   52.6300 C   0  0  0  0  0  0  0  0  0  0  0  0
   56.5960   31.5730   51.6350 C   0  0  0  0  0  0  0  0  0  0  0  0
   57.6190   32.5360   51.7870 O   0  0  0  0  0  0  0  0  0  0  0  0
   58.2670   32.3800   53.0370 C   0  0  0  0  0  0  0  0  0  0  0  0
   59.5220   33.2620   53.0860 C   0  0  0  0  0  0  0  0  0  0  0  0
   60.7120   32.6190   52.3650 C   0  0  0  0  0  0  0  0  0  0  0  0
   60.3370   32.1160   51.0420 N   0  0  0  0  0  0  0  0  0  0  0  0
   61.0320   32.5760   49.8760 C   0  0  0  0  0  0  0  0  0  0  0  0
   60.3320   32.9370   48.7300 C   0  0  0  0  0  0  0  0  0  0  0  0
   60.9940   33.3730   47.5940 C   0  0  0  0  0  0  0  0  0  0  0  0
   62.3570   33.5340   47.5580 N   0  0  0  0  0  0  0  0  0  0  0  0
   63.0030   34.1540   46.3880 C   0  0  0  0  0  0  0  0  0  0  0  0
   63.1000   33.1060   48.6500 C   0  0  0  0  0  0  0  0  0  0  0  0
   64.5170   33.0900   48.6270 C   0  0  0  0  0  0  0  0  0  0  0  0
   65.2520   32.6790   49.7400 C   0  0  0  0  0  0  0  0  0  0  0  0
   64.6020   32.2650   50.8980 C   0  0  0  0  0  0  0  0  0  0  0  0
   63.2100   32.2370   50.9500 C   0  0  0  0  0  0  0  0  0  0  0  0
   62.4420   32.6440   49.8380 C   0  0  0  0  0  0  0  0  0  0  0  0
   59.9730   33.6380   46.5620 C   0  0  0  0  0  0  0  0  0  0  0  0
   60.1290   33.9810   45.2580 N   0  0  0  0  0  0  0  0  0  0  0  0
   59.0310   34.1330   44.4620 C   0  0  0  0  0  0  0  0  0  0  0  0
   57.7360   33.9170   44.9790 C   0  0  0  0  0  0  0  0  0  0  0  0
   57.5760   33.5350   46.3200 C   0  0  0  0  0  0  0  0  0  0  0  0
   58.7230   33.3980   47.0940 C   0  0  0  0  0  0  0  0  0  0  0  0
   58.8880   32.9680   48.4730 C   0  0  0  0  0  0  0  0  0  0  0  0
   57.9660   32.7090   49.2890 O   0  0  0  0  0  0  0  0  0  0  0  0
   57.9695   29.9244   48.0095 H   0  0  0  0  0  0  0  0  0  0  0  0
   59.4479   30.4256   47.1208 H   0  0  0  0  0  0  0  0  0  0  0  0
   58.9408   28.7024   47.1208 H   0  0  0  0  0  0  0  0  0  0  0  0
   60.1397   28.3258   48.9927 H   0  0  0  0  0  0  0  0  0  0  0  0
   60.7027   30.0389   48.9459 H   0  0  0  0  0  0  0  0  0  0  0  0
   60.0600   28.1354   51.1016 H   0  0  0  0  0  0  0  0  0  0  0  0
   60.5344   29.8064   51.5751 H   0  0  0  0  0  0  0  0  0  0  0  0
   58.7323   28.1256   52.9363 H   0  0  0  0  0  0  0  0  0  0  0  0
   58.9514   29.8906   53.1875 H   0  0  0  0  0  0  0  0  0  0  0  0
   55.8487   30.1376   53.0622 H   0  0  0  0  0  0  0  0  0  0  0  0
   57.4807   30.7769   53.4375 H   0  0  0  0  0  0  0  0  0  0  0  0
   56.6194   31.1716   50.6111 H   0  0  0  0  0  0  0  0  0  0  0  0
   55.6191   32.0428   51.8221 H   0  0  0  0  0  0  0  0  0  0  0  0
   57.5805   32.6767   53.8437 H   0  0  0  0  0  0  0  0  0  0  0  0
   58.5580   31.3271   53.1662 H   0  0  0  0  0  0  0  0  0  0  0  0
   59.2962   34.2258   52.6063 H   0  0  0  0  0  0  0  0  0  0  0  0
   59.7995   33.3948   54.1421 H   0  0  0  0  0  0  0  0  0  0  0  0
   61.5065   33.3707   52.2484 H   0  0  0  0  0  0  0  0  0  0  0  0
   61.0596   31.7680   52.9692 H   0  0  0  0  0  0  0  0  0  0  0  0
   59.4140   31.6470   50.9010 H   0  0  0  0  0  0  0  0  0  0  0  0
   63.7580   34.8786   46.7271 H   0  0  0  0  0  0  0  0  0  0  0  0
   63.4886   33.3752   45.7817 H   0  0  0  0  0  0  0  0  0  0  0  0
   62.2448   34.6712   45.7817 H   0  0  0  0  0  0  0  0  0  0  0  0
   65.0465   33.4069   47.7164 H   0  0  0  0  0  0  0  0  0  0  0  0
   66.3513   32.6825   49.7013 H   0  0  0  0  0  0  0  0  0  0  0  0
   65.1893   31.9585   51.7761 H   0  0  0  0  0  0  0  0  0  0  0  0
   62.7053   31.8948   51.8655 H   0  0  0  0  0  0  0  0  0  0  0  0
   59.1565   34.4262   43.4092 H   0  0  0  0  0  0  0  0  0  0  0  0
   56.8550   34.0475   44.3334 H   0  0  0  0  0  0  0  0  0  0  0  0
   56.5779   33.3504   46.7440 H   0  0  0  0  0  0  0  0  0  0  0  0
  1  2  1  0
  2  3  1  0
  3  4  1  0
  4  5  1  0
  5  6  1  0
  6  7  1  0
  7  8  1  0
  8  9  1  0
  9 10  1  0
 10 11  1  0
 11 12  1  0
 12 13  1  0
 13 14  1  0
 14 15  2  0
 15 16  1  0
 16 17  2  0
 17 18  1  0
 17 19  1  0
 19 20  2  0
 20 21  1  0
 21 22  2  0
 22 23  1  0
 23 24  2  0
 16 25  1  0
 25 26  2  0
 26 27  1  0
 27 28  2  0
 28 29  1  0
 29 30  2  0
 30 31  1  0
 31 32  2  0
 24 14  1  0
 30 25  1  0
 31 15  1  0
 24 19  1  0
  1 33  1  0
  1 34  1  0
  1 35  1  0
  2 36  1  0
  2 37  1  0
  4 38  1  0
  4 39  1  0
  5 40  1  0
  5 41  1  0
  7 42  1  0
  7 43  1  0
  8 44  1  0
  8 45  1  0
 10 46  1  0
 10 47  1  0
 11 48  1  0
 11 49  1  0
 12 50  1  0
 12 51  1  0
 13 52  1  0
 18 53  1  0
 18 54  1  0
 18 55  1  0
 20 56  1  0
 21 57  1  0
 22 58  1  0
 23 59  1  0
 27 60  1  0
 28 61  1  0
 29 62  1  0
M  CHG  1  17   1
M  END
>  <UniqueID>  (11) 
11

>  <SMILES>  (11) 
CCOCCOCCOCCCNc1c2c([n+](C)c3ccccc13)-c1ncccc1C2=O

>  <Energy>  (11) 
115.61170784460586

>  <Genealogy>  (11) 
CCOCCOCCOCCCNc1c2c([n+](C)c3ccccc13)-c1ncccc1C2=O (3D coordinates assigned)
CCOCCOCCOCCCNc1c2c([n+](C)c3ccccc13)-c1ncccc1C2=O (nonaromatic ring conformer: 115.61170784460586 kcal/mol)

>  <smiles>  (11) 
CCOCCOCCOCCCNc1c2c([n+](C)c3ccccc13)-c1ncccc1C2=O

>  <score_type>  (11) 
oracle

>  <origin>  (11) 
adg

>  <m_score__min__energy>  (11) 
-6.5599999999999996

>  <m_primary>  (11) 
energy

$$$$
11:0
     RDKit          3D

 60 63  0  0  0  0  0  0  0  0999 V2000
   58.1510   32.3410   42.2080 C   0  0  0  0  0  0  0  0  0  0  0  0
   57.4220   31.3610   43.0040 N   0  0  0  0  0  0  0  0  0  0  0  0
   57.0100   30.1870   42.5600 N   0  0  0  0  0  0  0  0  0  0  0  0
   56.2670   29.6310   43.5050 N   0  0  0  0  0  0  0  0  0  0  0  0
   56.1590   30.4300   44.5590 N   0  0  0  0  0  0  0  0  0  0  0  0
   56.8930   31.5110   44.2320 C   0  0  0  0  0  0  0  0  0  0  0  0
   57.0550   32.9700   45.2630 S   0  0  0  0  0  0  0  0  0  0  0  0
   58.8860   33.0160   45.2440 C   0  0  0  0  0  0  0  0  0  0  0  0
   59.5130   31.7400   45.8250 C   0  0  0  0  0  0  0  0  0  0  0  0
   60.3350   32.0150   47.0950 C   0  0  0  0  0  0  0  0  0  0  0  0
   60.2970   30.8320   48.0690 C   0  0  0  0  0  0  0  0  0  0  0  0
   59.8140   29.6100   47.3890 N   0  0  0  0  0  0  0  0  0  0  0  0
   60.3990   28.3490   47.8900 C   0  0  0  0  0  0  0  0  0  0  0  0
   60.2540   27.1250   46.9440 C   0  0  0  0  0  0  0  0  0  0  0  0
   58.8600   26.5520   46.7500 C   0  0  0  0  0  0  0  0  0  0  0  0
   58.6430   25.2010   47.0730 C   0  0  0  0  0  0  0  0  0  0  0  0
   57.3870   24.6160   46.9060 C   0  0  0  0  0  0  0  0  0  0  0  0
   56.3160   25.3690   46.3980 C   0  0  0  0  0  0  0  0  0  0  0  0
   55.0300   24.8330   46.2200 O   0  0  0  0  0  0  0  0  0  0  0  0
   54.7200   23.4410   46.1470 C   0  0  0  0  0  0  0  0  0  0  0  0
   55.5440   22.7760   45.0760 C   0  0  0  0  0  0  0  0  0  0  0  0
   55.9920   21.4540   45.2310 C   0  0  0  0  0  0  0  0  0  0  0  0
   56.7440   20.8430   44.2220 C   0  0  0  0  0  0  0  0  0  0  0  0
   57.0560   21.5490   43.0560 C   0  0  0  0  0  0  0  0  0  0  0  0
   56.6210   22.8680   42.9010 C   0  0  0  0  0  0  0  0  0  0  0  0
   55.8680   23.4800   43.9060 C   0  0  0  0  0  0  0  0  0  0  0  0
   56.5290   26.7040   46.0500 C   0  0  0  0  0  0  0  0  0  0  0  0
   57.7900   27.3040   46.2100 C   0  0  0  0  0  0  0  0  0  0  0  0
   57.9560   28.7610   45.8840 C   0  0  0  0  0  0  0  0  0  0  0  0
   58.3550   29.5680   47.1290 C   0  0  0  0  0  0  0  0  0  0  0  0
   58.6723   33.0418   42.8767 H   0  0  0  0  0  0  0  0  0  0  0  0
   58.8860   31.8243   41.5734 H   0  0  0  0  0  0  0  0  0  0  0  0
   57.4447   32.8964   41.5734 H   0  0  0  0  0  0  0  0  0  0  0  0
   55.8110   28.6960   43.4240 H   0  0  0  0  0  0  0  0  0  0  0  0
   59.2250   33.1336   44.2042 H   0  0  0  0  0  0  0  0  0  0  0  0
   59.2054   33.8608   45.8719 H   0  0  0  0  0  0  0  0  0  0  0  0
   58.7081   31.0320   46.0719 H   0  0  0  0  0  0  0  0  0  0  0  0
   60.1954   31.3274   45.0673 H   0  0  0  0  0  0  0  0  0  0  0  0
   61.3796   32.2056   46.8079 H   0  0  0  0  0  0  0  0  0  0  0  0
   59.8969   32.8875   47.6018 H   0  0  0  0  0  0  0  0  0  0  0  0
   61.3100   30.6522   48.4583 H   0  0  0  0  0  0  0  0  0  0  0  0
   59.6090   31.0739   48.8925 H   0  0  0  0  0  0  0  0  0  0  0  0
   61.4719   28.5182   48.0640 H   0  0  0  0  0  0  0  0  0  0  0  0
   59.8379   28.0957   48.8016 H   0  0  0  0  0  0  0  0  0  0  0  0
   60.6272   27.4270   45.9543 H   0  0  0  0  0  0  0  0  0  0  0  0
   60.8225   26.3214   47.4349 H   0  0  0  0  0  0  0  0  0  0  0  0
   59.4751   24.5964   47.4629 H   0  0  0  0  0  0  0  0  0  0  0  0
   57.2352   23.5599   47.1736 H   0  0  0  0  0  0  0  0  0  0  0  0
   54.9375   22.9697   47.1168 H   0  0  0  0  0  0  0  0  0  0  0  0
   53.6541   23.3248   45.9014 H   0  0  0  0  0  0  0  0  0  0  0  0
   55.7508   20.8973   46.1486 H   0  0  0  0  0  0  0  0  0  0  0  0
   57.0902   19.8063   44.3459 H   0  0  0  0  0  0  0  0  0  0  0  0
   57.6436   21.0664   42.2611 H   0  0  0  0  0  0  0  0  0  0  0  0
   56.8719   23.4251   41.9863 H   0  0  0  0  0  0  0  0  0  0  0  0
   55.5275   24.5183   43.7797 H   0  0  0  0  0  0  0  0  0  0  0  0
   55.6959   27.2964   45.6437 H   0  0  0  0  0  0  0  0  0  0  0  0
   58.7393   28.8704   45.1195 H   0  0  0  0  0  0  0  0  0  0  0  0
   56.9947   29.1462   45.5131 H   0  0  0  0  0  0  0  0  0  0  0  0
   57.9988   30.6005   46.9986 H   0  0  0  0  0  0  0  0  0  0  0  0
   57.8965   29.0623   47.9916 H   0  0  0  0  0  0  0  0  0  0  0  0
  1  2  1  0
  2  3  1  0
  3  4  2  0
  4  5  1  0
  5  6  2  0
  6  7  1  0
  7  8  1  0
  8  9  1  0
  9 10  1  0
 10 11  1  0
 11 12  1  0
 12 13  1  0
 13 14  1  0
 14 15  1  0
 15 16  2  0
 16 17  1  0
 17 18  2  0
 18 19  1  0
 19 20  1  0
 20 21  1  0
 21 22  2  0
 22 23  1  0
 23 24  2  0
 24 25  1  0
 25 26  2  0
 18 27  1  0
 27 28  2  0
 28 29  1  0
 29 30  1  0
  6  2  1  0
 30 12  1  0
 28 15  1  0
 26 21  1  0
  1 31  1  0
  1 32  1  0
  1 33  1  0
  4 34  1  0
  8 35  1  0
  8 36  1  0
  9 37  1  0
  9 38  1  0
 10 39  1  0
 10 40  1  0
 11 41  1  0
 11 42  1  0
 13 43  1  0
 13 44  1  0
 14 45  1  0
 14 46  1  0
 16 47  1  0
 17 48  1  0
 20 49  1  0
 20 50  1  0
 22 51  1  0
 23 52  1  0
 24 53  1  0
 25 54  1  0
 26 55  1  0
 27 56  1  0
 29 57  1  0
 29 58  1  0
 30 59  1  0
 30 60  1  0
M  CHG  1   4   1
M  END
>  <UniqueID>  (12) 
12

>  <SMILES>  (12) 
Cn1n[nH+]nc1SCCCCN1CCc2ccc(OCc3ccccc3)cc2CC1

>  <Energy>  (12) 
111.15160007584637

>  <Genealogy>  (12) 
Cn1n[nH+]nc1SCCCCN1CCc2ccc(OCc3ccccc3)cc2CC1 (protonated)
Cn1n[nH+]nc1SCCCCN1CCc2ccc(OCc3ccccc3)cc2CC1 (3D coordinates assigned)
Cn1n[nH+]nc1SCCCCN1CCc2ccc(OCc3ccccc3)cc2CC1 (nonaromatic ring conformer: 111.15160007584637 kcal/mol)

>  <smiles>  (12) 
Cn1nnnc1SCCCCN1CCc2ccc(OCc3ccccc3)cc2CC1

>  <score_type>  (12) 
oracle

>  <origin>  (12) 
adg

>  <m_score__min__energy>  (12) 
-6.46

>  <m_primary>  (12) 
energy

$$$$
12:0
     RDKit          3D

 43 45  0  0  0  0  0  0  0  0999 V2000
   60.3410   27.6440   45.9810 C   0  0  0  0  0  0  0  0  0  0  0  0
   58.8820   27.3010   46.2340 C   0  0  0  0  0  0  0  0  0  0  0  0
   58.3130   26.7870   45.0430 O   0  0  0  0  0  0  0  0  0  0  0  0
   57.3950   27.6790   44.5420 N   0  0  0  0  0  0  0  0  0  0  0  0
   57.7620   28.0440   43.1660 C   0  0  0  0  0  0  0  0  0  0  0  0
   57.0130   29.3020   42.6920 C   0  0  0  0  0  0  0  0  0  0  0  0
   55.9170   29.7150   43.6830 C   0  0  0  0  0  0  0  0  0  0  0  0
   56.4590   29.9790   44.9780 O   0  0  0  0  0  0  0  0  0  0  0  0
   57.4130   30.9670   45.2810 C   0  0  0  0  0  0  0  0  0  0  0  0
   57.2500   32.3180   44.9210 C   0  0  0  0  0  0  0  0  0  0  0  0
   58.2300   33.2610   45.2480 C   0  0  0  0  0  0  0  0  0  0  0  0
   59.3900   32.8660   45.9370 C   0  0  0  0  0  0  0  0  0  0  0  0
   60.4000   33.7810   46.2860 C   0  0  0  0  0  0  0  0  0  0  0  0
   60.2870   35.0030   45.9850 O   0  0  0  0  0  0  0  0  0  0  0  0
   61.5360   33.3200   46.9740 C   0  0  0  0  0  0  0  0  0  0  0  0
   62.5830   34.1810   47.3530 C   0  0  0  0  0  0  0  0  0  0  0  0
   63.6940   33.6760   48.0350 C   0  0  0  0  0  0  0  0  0  0  0  0
   63.7710   32.3160   48.3460 C   0  0  0  0  0  0  0  0  0  0  0  0
   62.7370   31.4520   47.9740 C   0  0  0  0  0  0  0  0  0  0  0  0
   61.6200   31.9440   47.2900 C   0  0  0  0  0  0  0  0  0  0  0  0
   60.6460   31.1110   46.9420 O   0  0  0  0  0  0  0  0  0  0  0  0
   59.5570   31.5090   46.2920 C   0  0  0  0  0  0  0  0  0  0  0  0
   58.5710   30.5750   45.9610 C   0  0  0  0  0  0  0  0  0  0  0  0
   60.8610   27.7662   46.9426 H   0  0  0  0  0  0  0  0  0  0  0  0
   60.8145   26.8327   45.4087 H   0  0  0  0  0  0  0  0  0  0  0  0
   60.4034   28.5813   45.4087 H   0  0  0  0  0  0  0  0  0  0  0  0
   58.8141   26.5454   47.0305 H   0  0  0  0  0  0  0  0  0  0  0  0
   58.3375   28.2049   46.5446 H   0  0  0  0  0  0  0  0  0  0  0  0
   57.2780   28.5470   45.1230 H   0  0  0  0  0  0  0  0  0  0  0  0
   56.4670   27.1970   44.5290 H   0  0  0  0  0  0  0  0  0  0  0  0
   58.8442   28.2367   43.1249 H   0  0  0  0  0  0  0  0  0  0  0  0
   57.4848   27.2101   42.5044 H   0  0  0  0  0  0  0  0  0  0  0  0
   57.7320   30.1283   42.5905 H   0  0  0  0  0  0  0  0  0  0  0  0
   56.5360   29.0748   41.7272 H   0  0  0  0  0  0  0  0  0  0  0  0
   55.4212   30.6235   43.3104 H   0  0  0  0  0  0  0  0  0  0  0  0
   55.1986   28.8866   43.7703 H   0  0  0  0  0  0  0  0  0  0  0  0
   56.3464   32.6341   44.3792 H   0  0  0  0  0  0  0  0  0  0  0  0
   58.0926   34.3151   44.9651 H   0  0  0  0  0  0  0  0  0  0  0  0
   62.5270   35.2529   47.1122 H   0  0  0  0  0  0  0  0  0  0  0  0
   64.5108   34.3520   48.3279 H   0  0  0  0  0  0  0  0  0  0  0  0
   64.6467   31.9246   48.8844 H   0  0  0  0  0  0  0  0  0  0  0  0
   62.8017   30.3818   48.2198 H   0  0  0  0  0  0  0  0  0  0  0  0
   58.7073   29.5193   46.2385 H   0  0  0  0  0  0  0  0  0  0  0  0
  1  2  1  0
  2  3  1  0
  3  4  1  0
  4  5  1  0
  5  6  1  0
  6  7  1  0
  7  8  1  0
  8  9  1  0
  9 10  2  0
 10 11  1  0
 11 12  2  0
 12 13  1  0
 13 14  2  0
 13 15  1  0
 15 16  2  0
 16 17  1  0
 17 18  2  0
 18 19  1  0
 19 20  2  0
 20 21  1  0
 21 22  1  0
 22 23  2  0
 23  9  1  0
 22 12  1  0
 20 15  1  0
  1 24  1  0
  1 25  1  0
  1 26  1  0
  2 27  1  0
  2 28  1  0
  4 29  1  0
  4 30  1  0
  5 31  1  0
  5 32  1  0
  6 33  1  0
  6 34  1  0
  7 35  1  0
  7 36  1  0
 10 37  1  0
 11 38  1  0
 16 39  1  0
 17 40  1  0
 18 41  1  0
 19 42  1  0
 23 43  1  0
M  CHG  1   4   1
M  END
>  <UniqueID>  (13) 
13

>  <SMILES>  (13) 
CCO[NH2+]CCCOc1ccc2c(=O)c3ccccc3oc2c1

>  <Energy>  (13) 
51.95768774480036

>  <Genealogy>  (13) 
CCO[NH2+]CCCOc1ccc2c(=O)c3ccccc3oc2c1 (protonated)
CCO[NH2+]CCCOc1ccc2c(=O)c3ccccc3oc2c1 (3D coordinates assigned)
CCO[NH2+]CCCOc1ccc2c(=O)c3ccccc3oc2c1 (optimized conformer: 51.95768774480036 kcal/mol)

>  <smiles>  (13) 
CCONCCCOc1ccc2c(=O)c3ccccc3oc2c1

>  <score_type>  (13) 
oracle

>  <origin>  (13) 
adg

>  <m_score__min__energy>  (13) 
-6.2300000000000004

>  <m_primary>  (13) 
energy

$$$$
13:0
     RDKit          3D

 48 50  0  0  0  0  0  0  0  0999 V2000
   62.3780   34.1590   48.8860 C   0  0  0  0  0  0  0  0  0  0  0  0
   63.4890   33.7260   47.9370 C   0  0  0  0  0  0  0  0  0  0  0  0
   63.5100   32.2630   47.8150 N   0  0  0  0  0  0  0  0  0  0  0  0
   62.6560   31.6120   48.8270 C   0  0  0  0  0  0  0  0  0  0  0  0
   61.4310   30.9030   48.2150 C   0  0  0  0  0  0  0  0  0  0  0  0
   61.4450   30.9530   46.7420 N   0  0  0  0  0  0  0  0  0  0  0  0
   60.1030   30.7800   46.2050 C   0  0  0  0  0  0  0  0  0  0  0  0
   59.3260   31.9230   45.9380 C   0  0  0  0  0  0  0  0  0  0  0  0
   59.6830   33.2690   46.1690 C   0  0  0  0  0  0  0  0  0  0  0  0
   58.6890   34.1720   45.8110 C   0  0  0  0  0  0  0  0  0  0  0  0
   57.3780   33.3120   45.2060 S   0  0  0  0  0  0  0  0  0  0  0  0
   58.0680   31.7870   45.4030 C   0  0  0  0  0  0  0  0  0  0  0  0
   57.5410   30.5500   45.0560 C   0  0  0  0  0  0  0  0  0  0  0  0
   56.1570   30.4740   44.4470 C   0  0  0  0  0  0  0  0  0  0  0  0
   58.3690   29.4030   45.2320 C   0  0  0  0  0  0  0  0  0  0  0  0
   59.5710   29.5150   45.9470 N   0  0  0  0  0  0  0  0  0  0  0  0
   60.3490   28.3320   46.4180 C   0  0  0  0  0  0  0  0  0  0  0  0
   60.0490   27.0190   45.6790 C   0  0  0  0  0  0  0  0  0  0  0  0
   58.7760   26.3590   46.2090 C   0  0  0  0  0  0  0  0  0  0  0  0
   57.5140   26.9750   45.6060 C   0  0  0  0  0  0  0  0  0  0  0  0
   57.8540   28.0920   44.6210 C   0  0  0  0  0  0  0  0  0  0  0  0
   62.7124   34.0287   49.9258 H   0  0  0  0  0  0  0  0  0  0  0  0
   62.1360   35.2173   48.7086 H   0  0  0  0  0  0  0  0  0  0  0  0
   61.4837   33.5436   48.7086 H   0  0  0  0  0  0  0  0  0  0  0  0
   63.3144   34.1708   46.9462 H   0  0  0  0  0  0  0  0  0  0  0  0
   64.4555   34.0668   48.3366 H   0  0  0  0  0  0  0  0  0  0  0  0
   64.4980   31.9240   47.8860 H   0  0  0  0  0  0  0  0  0  0  0  0
   63.2585   30.8671   49.3674 H   0  0  0  0  0  0  0  0  0  0  0  0
   62.2801   32.3997   49.4965 H   0  0  0  0  0  0  0  0  0  0  0  0
   61.4328   29.8506   48.5350 H   0  0  0  0  0  0  0  0  0  0  0  0
   60.5268   31.4227   48.5648 H   0  0  0  0  0  0  0  0  0  0  0  0
   62.1100   30.2510   46.3470 H   0  0  0  0  0  0  0  0  0  0  0  0
   61.8250   31.8740   46.4280 H   0  0  0  0  0  0  0  0  0  0  0  0
   60.6523   33.5732   46.5908 H   0  0  0  0  0  0  0  0  0  0  0  0
   58.7501   35.2661   45.9075 H   0  0  0  0  0  0  0  0  0  0  0  0
   55.4053   30.4327   45.2490 H   0  0  0  0  0  0  0  0  0  0  0  0
   55.9808   31.3638   43.8248 H   0  0  0  0  0  0  0  0  0  0  0  0
   56.0793   29.5702   43.8248 H   0  0  0  0  0  0  0  0  0  0  0  0
   61.4187   28.5562   46.2939 H   0  0  0  0  0  0  0  0  0  0  0  0
   60.0544   28.1686   47.4651 H   0  0  0  0  0  0  0  0  0  0  0  0
   59.9220   27.2324   44.6074 H   0  0  0  0  0  0  0  0  0  0  0  0
   60.8904   26.3296   45.8427 H   0  0  0  0  0  0  0  0  0  0  0  0
   58.8017   25.2880   45.9596 H   0  0  0  0  0  0  0  0  0  0  0  0
   58.7419   26.5151   47.2973 H   0  0  0  0  0  0  0  0  0  0  0  0
   56.9507   26.1916   45.0779 H   0  0  0  0  0  0  0  0  0  0  0  0
   56.9146   27.4043   46.4224 H   0  0  0  0  0  0  0  0  0  0  0  0
   58.6290   27.7129   43.9386 H   0  0  0  0  0  0  0  0  0  0  0  0
   56.9040   28.3500   44.1301 H   0  0  0  0  0  0  0  0  0  0  0  0
  1  2  1  0
  2  3  1  0
  3  4  1  0
  4  5  1  0
  5  6  1  0
  6  7  1  0
  7  8  2  0
  8  9  1  0
  9 10  2  0
 10 11  1  0
 11 12  1  0
 12 13  2  0
 13 14  1  0
 13 15  1  0
 15 16  2  0
 16 17  1  0
 17 18  1  0
 18 19  1  0
 19 20  1  0
 20 21  1  0
 16  7  1  0
 12  8  1  0
 21 15  1  0
  1 22  1  0
  1 23  1  0
  1 24  1  0
  2 25  1  0
  2 26  1  0
  3 27  1  0
  4 28  1  0
  4 29  1  0
  5 30  1  0
  5 31  1  0
  6 32  1  0
  6 33  1  0
  9 34  1  0
 10 35  1  0
 14 36  1  0
 14 37  1  0
 14 38  1  0
 17 39  1  0
 17 40  1  0
 18 41  1  0
 18 42  1  0
 19 43  1  0
 19 44  1  0
 20 45  1  0
 20 46  1  0
 21 47  1  0
 21 48  1  0
M  CHG  2   6   1  16   1
M  END
>  <UniqueID>  (14) 
14

>  <SMILES>  (14) 
CCNCC[NH2+]c1c2ccsc2c(C)c2[n+]1CCCCC2

>  <Energy>  (14) 
99.43073666906982

>  <Genealogy>  (14) 
CCNCC[NH2+]c1c2ccsc2c(C)c2[n+]1CCCCC2 (protonated)
CCNCC[NH2+]c1c2ccsc2c(C)c2[n+]1CCCCC2 (3D coordinates assigned)
CCNCC[NH2+]c1c2ccsc2c(C)c2[n+]1CCCCC2 (nonaromatic ring conformer: 99.43073666906982 kcal/mol)

>  <smiles>  (14) 
CCNCCNc1c2ccsc2c(C)c2[n+]1CCCCC2

>  <score_type>  (14) 
oracle

>  <origin>  (14) 
adg

>  <m_score__min__energy>  (14) 
-2.2599999999999998

>  <m_primary>  (14) 
energy

$$$$
14:0
     RDKit          3D

 51 55  0  0  0  0  0  0  0  0999 V2000
   58.8070   27.7590   43.9840 C   0  0  0  0  0  0  0  0  0  0  0  0
   58.6220   27.8450   45.4330 N   0  0  0  0  0  0  0  0  0  0  0  0
   57.6930   27.2390   46.2150 C   0  0  0  0  0  0  0  0  0  0  0  0
   56.7100   26.2190   45.7990 C   0  0  0  0  0  0  0  0  0  0  0  0
   56.9010   25.0700   45.0590 C   0  0  0  0  0  0  0  0  0  0  0  0
   55.7230   24.4290   44.9390 N   0  0  0  0  0  0  0  0  0  0  0  0
   54.8610   25.2130   45.6150 C   0  0  0  0  0  0  0  0  0  0  0  0
   55.4420   26.2720   46.1290 O   0  0  0  0  0  0  0  0  0  0  0  0
   57.7640   27.6780   47.4880 N   0  0  0  0  0  0  0  0  0  0  0  0
   58.7480   28.5600   47.5270 N   0  0  0  0  0  0  0  0  0  0  0  0
   59.2770   28.6490   46.2980 C   0  0  0  0  0  0  0  0  0  0  0  0
   60.6700   29.7120   45.8880 S   0  0  0  0  0  0  0  0  0  0  0  0
   60.6720   30.6490   47.4650 C   0  0  0  0  0  0  0  0  0  0  0  0
   61.4010   31.9900   47.3410 C   0  0  0  0  0  0  0  0  0  0  0  0
   60.6140   33.1820   47.9010 C   0  0  0  0  0  0  0  0  0  0  0  0
   59.6970   33.7320   46.8730 N   0  0  0  0  0  0  0  0  0  0  0  0
   58.3120   33.8740   47.3470 C   0  0  0  0  0  0  0  0  0  0  0  0
   57.3890   33.7240   46.1460 C   0  0  1  0  0  0  0  0  0  0  0  0
   57.7200   34.5580   44.9130 C   0  0  0  0  0  0  0  0  0  0  0  0
   58.2450   33.1320   45.0510 C   0  0  2  0  0  0  0  0  0  0  0  0
   57.6060   32.0440   44.2300 C   0  0  0  0  0  0  0  0  0  0  0  0
   57.6100   32.1120   42.8280 C   0  0  0  0  0  0  0  0  0  0  0  0
   56.9660   31.1260   42.0740 C   0  0  0  0  0  0  0  0  0  0  0  0
   56.2980   30.0790   42.7150 C   0  0  0  0  0  0  0  0  0  0  0  0
   56.2680   30.0200   44.1110 C   0  0  0  0  0  0  0  0  0  0  0  0
   55.6040   29.0130   44.7310 F   0  0  0  0  0  0  0  0  0  0  0  0
   56.9150   31.0020   44.8670 C   0  0  0  0  0  0  0  0  0  0  0  0
   59.6220   32.9180   45.6500 C   0  0  0  0  0  0  0  0  0  0  0  0
   59.7846   27.3045   43.7655 H   0  0  0  0  0  0  0  0  0  0  0  0
   58.0091   27.1395   43.5486 H   0  0  0  0  0  0  0  0  0  0  0  0
   58.7663   28.7684   43.5486 H   0  0  0  0  0  0  0  0  0  0  0  0
   57.8590   24.7329   44.6363 H   0  0  0  0  0  0  0  0  0  0  0  0
   53.7893   24.9905   45.7242 H   0  0  0  0  0  0  0  0  0  0  0  0
   59.0550   29.0720   48.3840 H   0  0  0  0  0  0  0  0  0  0  0  0
   59.6310   30.8383   47.7657 H   0  0  0  0  0  0  0  0  0  0  0  0
   61.2024   30.0448   48.2158 H   0  0  0  0  0  0  0  0  0  0  0  0
   62.3536   31.9176   47.8862 H   0  0  0  0  0  0  0  0  0  0  0  0
   61.5414   32.1778   46.2663 H   0  0  0  0  0  0  0  0  0  0  0  0
   60.0261   32.8509   48.7698 H   0  0  0  0  0  0  0  0  0  0  0  0
   61.3244   33.9673   48.1989 H   0  0  0  0  0  0  0  0  0  0  0  0
   58.0892   33.0935   48.0894 H   0  0  0  0  0  0  0  0  0  0  0  0
   58.1679   34.8562   47.8208 H   0  0  0  0  0  0  0  0  0  0  0  0
   56.4316   33.5493   46.6587 H   0  0  0  0  0  0  0  0  0  0  0  0
   56.9364   34.7886   44.1762 H   0  0  0  0  0  0  0  0  0  0  0  0
   58.1738   35.5441   44.7353 H   0  0  0  0  0  0  0  0  0  0  0  0
   58.1213   32.9435   42.3208 H   0  0  0  0  0  0  0  0  0  0  0  0
   56.9852   31.1745   40.9752 H   0  0  0  0  0  0  0  0  0  0  0  0
   55.7959   29.3014   42.1207 H   0  0  0  0  0  0  0  0  0  0  0  0
   56.8823   30.9576   45.9656 H   0  0  0  0  0  0  0  0  0  0  0  0
   59.7650   31.8553   45.8955 H   0  0  0  0  0  0  0  0  0  0  0  0
   60.4071   33.2114   44.9375 H   0  0  0  0  0  0  0  0  0  0  0  0
  1  2  1  0
  2  3  1  0
  3  4  1  0
  4  5  2  0
  5  6  1  0
  6  7  2  0
  7  8  1  0
  3  9  2  0
  9 10  1  0
 10 11  2  0
 11 12  1  0
 12 13  1  0
 13 14  1  0
 14 15  1  0
 15 16  1  0
 16 17  1  0
 17 18  1  0
 18 19  1  0
 19 20  1  0
 20 21  1  6
 21 22  2  0
 22 23  1  0
 23 24  2  0
 24 25  1  0
 25 26  1  0
 25 27  2  0
 20 28  1  0
 11  2  1  0
 28 16  1  0
  8  4  1  0
 20 18  1  0
 27 21  1  0
  1 29  1  0
  1 30  1  0
  1 31  1  0
  5 32  1  0
  7 33  1  0
 10 34  1  0
 13 35  1  0
 13 36  1  0
 14 37  1  0
 14 38  1  0
 15 39  1  0
 15 40  1  0
 17 41  1  0
 17 42  1  0
 18 43  1  1
 19 44  1  0
 19 45  1  0
 22 46  1  0
 23 47  1  0
 24 48  1  0
 27 49  1  0
 28 50  1  0
 28 51  1  0
M  CHG  1  10   1
M  END
>  <UniqueID>  (15) 
15

>  <SMILES>  (15) 
Cn1c(-c2cnco2)n[nH+]c1SCCCN1C[C@H]2C[C@@]2(c2cccc(F)c2)C1

>  <Energy>  (15) 
386.1687507514955

>  <Genealogy>  (15) 
Cn1c(-c2cnco2)n[nH+]c1SCCCN1CC2CC2(c2cccc(F)c2)C1 (protonated)
Cn1c(-c2cnco2)n[nH+]c1SCCCN1C[C@H]2C[C@@]2(c2cccc(F)c2)C1 (chirality)
Cn1c(-c2cnco2)n[nH+]c1SCCCN1C[C@H]2C[C@@]2(c2cccc(F)c2)C1 (3D coordinates assigned)
Cn1c(-c2cnco2)n[nH+]c1SCCCN1C[C@H]2C[C@@]2(c2cccc(F)c2)C1 (nonaromatic ring conformer: 386.1687507514955 kcal/mol)

>  <smiles>  (15) 
Cn1c(SCCCN2CC3CC3(c3cccc(F)c3)C2)nnc1-c1cnco1

>  <score_type>  (15) 
oracle

>  <origin>  (15) 
adg

>  <m_score__min__energy>  (15) 
-7.9100000000000001

>  <m_primary>  (15) 
energy

$$$$
15:0
     RDKit          3D

 49 51  0  0  0  0  0  0  0  0999 V2000
   57.8910   31.8370   43.1130 C   0  0  0  0  0  0  0  0  0  0  0  0
   57.5060   31.6390   44.5430 C   0  0  0  0  0  0  0  0  0  0  0  0
   56.5960   30.8150   44.8250 O   0  0  0  0  0  0  0  0  0  0  0  0
   58.1140   32.4270   45.5840 N   0  0  0  0  0  0  0  0  0  0  0  0
   59.0560   31.7160   46.4630 C   0  0  0  0  0  0  0  0  0  0  0  0
   59.3720   32.5100   47.7350 C   0  0  0  0  0  0  0  0  0  0  0  0
   59.6930   33.9240   47.4620 N   0  0  0  0  0  0  0  0  0  0  0  0
   60.9870   34.1250   46.7730 C   0  0  0  0  0  0  0  0  0  0  0  0
   62.1280   33.6770   47.6460 C   0  0  0  0  0  0  0  0  0  0  0  0
   62.2300   34.1160   48.9690 C   0  0  0  0  0  0  0  0  0  0  0  0
   63.2590   33.6950   49.7460 N   0  0  0  0  0  0  0  0  0  0  0  0
   64.2060   32.8390   49.2720 C   0  0  0  0  0  0  0  0  0  0  0  0
   65.2900   32.4290   50.1320 N   0  0  0  0  0  0  0  0  0  0  0  0
   66.6160   33.0520   50.0220 C   0  0  0  0  0  0  0  0  0  0  0  0
   67.3600   32.9620   51.3570 C   0  0  0  0  0  0  0  0  0  0  0  0
   67.3590   31.6380   51.8490 O   0  0  0  0  0  0  0  0  0  0  0  0
   66.0350   31.2520   52.1630 C   0  0  0  0  0  0  0  0  0  0  0  0
   65.1750   31.1810   50.8990 C   0  0  0  0  0  0  0  0  0  0  0  0
   64.1110   32.3840   47.9860 N   0  0  0  0  0  0  0  0  0  0  0  0
   63.0980   32.7870   47.1740 C   0  0  0  0  0  0  0  0  0  0  0  0
   58.5730   34.5760   46.7630 C   0  0  0  0  0  0  0  0  0  0  0  0
   58.2270   33.8940   45.4210 C   0  0  2  0  0  0  0  0  0  0  0  0
   56.9180   34.5060   44.8860 C   0  0  0  0  0  0  0  0  0  0  0  0
   58.8682   32.3396   43.0626 H   0  0  0  0  0  0  0  0  0  0  0  0
   57.9549   30.8599   42.6118 H   0  0  0  0  0  0  0  0  0  0  0  0
   57.1334   32.4573   42.6118 H   0  0  0  0  0  0  0  0  0  0  0  0
   58.6138   30.7502   46.7489 H   0  0  0  0  0  0  0  0  0  0  0  0
   59.9961   31.5773   45.9090 H   0  0  0  0  0  0  0  0  0  0  0  0
   58.4969   32.4705   48.4004 H   0  0  0  0  0  0  0  0  0  0  0  0
   60.2586   32.0529   48.1988 H   0  0  0  0  0  0  0  0  0  0  0  0
   60.9945   33.5412   45.8407 H   0  0  0  0  0  0  0  0  0  0  0  0
   61.1086   35.1959   46.5529 H   0  0  0  0  0  0  0  0  0  0  0  0
   61.4757   34.8030   49.3802 H   0  0  0  0  0  0  0  0  0  0  0  0
   67.1978   32.5316   49.2469 H   0  0  0  0  0  0  0  0  0  0  0  0
   66.4915   34.1114   49.7535 H   0  0  0  0  0  0  0  0  0  0  0  0
   68.3996   33.2912   51.2123 H   0  0  0  0  0  0  0  0  0  0  0  0
   66.8494   33.6074   52.0869 H   0  0  0  0  0  0  0  0  0  0  0  0
   66.0522   30.2626   52.6435 H   0  0  0  0  0  0  0  0  0  0  0  0
   65.6015   32.0004   52.8427 H   0  0  0  0  0  0  0  0  0  0  0  0
   65.5142   30.3400   50.2763 H   0  0  0  0  0  0  0  0  0  0  0  0
   64.1241   31.0356   51.1895 H   0  0  0  0  0  0  0  0  0  0  0  0
   64.8030   31.7010   47.6060 H   0  0  0  0  0  0  0  0  0  0  0  0
   63.0410   32.4116   46.1416 H   0  0  0  0  0  0  0  0  0  0  0  0
   57.6861   34.5432   47.4129 H   0  0  0  0  0  0  0  0  0  0  0  0
   58.8777   35.6093   46.5406 H   0  0  0  0  0  0  0  0  0  0  0  0
   59.0342   34.0691   44.6945 H   0  0  0  0  0  0  0  0  0  0  0  0
   56.2803   34.8041   45.7313 H   0  0  0  0  0  0  0  0  0  0  0  0
   57.1500   35.3890   44.2724 H   0  0  0  0  0  0  0  0  0  0  0  0
   56.3892   33.7618   44.2724 H   0  0  0  0  0  0  0  0  0  0  0  0
  1  2  1  0
  2  3  2  0
  2  4  1  0
  4  5  1  0
  5  6  1  0
  6  7  1  0
  7  8  1  0
  8  9  1  0
  9 10  2  0
 10 11  1  0
 11 12  2  0
 12 13  1  0
 13 14  1  0
 14 15  1  0
 15 16  1  0
 16 17  1  0
 17 18  1  0
 12 19  1  0
 19 20  2  0
  7 21  1  0
 21 22  1  0
 22 23  1  0
 22  4  1  0
 20  9  1  0
 18 13  1  0
  1 24  1  0
  1 25  1  0
  1 26  1  0
  5 27  1  0
  5 28  1  0
  6 29  1  0
  6 30  1  0
  8 31  1  0
  8 32  1  0
 10 33  1  0
 14 34  1  0
 14 35  1  0
 15 36  1  0
 15 37  1  0
 17 38  1  0
 17 39  1  0
 18 40  1  0
 18 41  1  0
 19 42  1  0
 20 43  1  0
 21 44  1  0
 21 45  1  0
 22 46  1  6
 23 47  1  0
 23 48  1  0
 23 49  1  0
M  CHG  1  19   1
M  END
>  <UniqueID>  (16) 
16

>  <SMILES>  (16) 
CC(=O)N1CCN(Cc2cnc(N3CCOCC3)[nH+]c2)C[C@@H]1C

>  <Energy>  (16) 
58.80365875538962

>  <Genealogy>  (16) 
CC(=O)N1CCN(Cc2cnc(N3CCOCC3)[nH+]c2)CC1C (protonated)
CC(=O)N1CCN(Cc2cnc(N3CCOCC3)[nH+]c2)C[C@@H]1C (chirality)
CC(=O)N1CCN(Cc2cnc(N3CCOCC3)[nH+]c2)C[C@@H]1C (3D coordinates assigned)
CC(=O)N1CCN(Cc2cnc(N3CCOCC3)[nH+]c2)C[C@@H]1C (nonaromatic ring conformer: 58.80365875538962 kcal/mol)

>  <smiles>  (16) 
CC(=O)N1CCN(Cc2cnc(N3CCOCC3)nc2)CC1C

>  <score_type>  (16) 
oracle

>  <origin>  (16) 
adg

>  <m_score__min__energy>  (16) 
-6.8099999999999996

>  <m_primary>  (16) 
energy

$$$$
16:0
     RDKit          3D

 52 55  0  0  0  0  0  0  0  0999 V2000
   63.2080   33.5470   49.0220 C   0  0  0  0  0  0  0  0  0  0  0  0
   61.8510   34.2160   48.7590 C   0  0  0  0  0  0  0  0  0  0  0  0
   61.2650   33.8900   47.4370 N   0  0  0  0  0  0  0  0  0  0  0  0
   62.2890   33.8220   46.3780 C   0  0  0  0  0  0  0  0  0  0  0  0
   60.1450   34.7880   47.0750 C   0  0  0  0  0  0  0  0  0  0  0  0
   59.5580   34.3910   45.7160 C   0  0  0  0  0  0  0  0  0  0  0  0
   58.0380   34.2150   45.7970 C   0  0  0  0  0  0  0  0  0  0  0  0
   57.6680   33.5020   47.0200 N   0  0  0  0  0  0  0  0  0  0  0  0
   58.2950   32.2630   47.3810 C   0  0  0  0  0  0  0  0  0  0  0  0
   58.2550   31.1820   46.5090 C   0  0  0  0  0  0  0  0  0  0  0  0
   58.9080   29.9980   46.8030 C   0  0  0  0  0  0  0  0  0  0  0  0
   59.6510   29.8370   47.9440 N   0  0  0  0  0  0  0  0  0  0  0  0
   60.4470   28.6120   48.1370 C   0  0  0  0  0  0  0  0  0  0  0  0
   59.6120   30.8410   48.9010 C   0  0  0  0  0  0  0  0  0  0  0  0
   60.1950   30.6700   50.1810 C   0  0  0  0  0  0  0  0  0  0  0  0
   60.1440   31.6850   51.1360 C   0  0  0  0  0  0  0  0  0  0  0  0
   59.5000   32.8850   50.8540 C   0  0  0  0  0  0  0  0  0  0  0  0
   58.8920   33.0810   49.6150 C   0  0  0  0  0  0  0  0  0  0  0  0
   58.9430   32.0800   48.6250 C   0  0  0  0  0  0  0  0  0  0  0  0
   58.6390   29.0590   45.6980 C   0  0  0  0  0  0  0  0  0  0  0  0
   58.9600   27.7440   45.5870 N   0  0  0  0  0  0  0  0  0  0  0  0
   58.5390   27.0350   44.4970 C   0  0  0  0  0  0  0  0  0  0  0  0
   57.7540   27.6510   43.5010 C   0  0  0  0  0  0  0  0  0  0  0  0
   57.3950   29.0010   43.6330 C   0  0  0  0  0  0  0  0  0  0  0  0
   57.8550   29.6880   44.7520 C   0  0  0  0  0  0  0  0  0  0  0  0
   57.5870   31.0410   45.2110 C   0  0  0  0  0  0  0  0  0  0  0  0
   56.8910   31.9070   44.6180 O   0  0  0  0  0  0  0  0  0  0  0  0
   63.3727   33.4658   50.1066 H   0  0  0  0  0  0  0  0  0  0  0  0
   63.2145   32.5424   48.5739 H   0  0  0  0  0  0  0  0  0  0  0  0
   64.0088   34.1536   48.5739 H   0  0  0  0  0  0  0  0  0  0  0  0
   61.1475   33.8900   49.5392 H   0  0  0  0  0  0  0  0  0  0  0  0
   62.0236   35.3023   48.7718 H   0  0  0  0  0  0  0  0  0  0  0  0
   63.2867   33.7557   46.8364 H   0  0  0  0  0  0  0  0  0  0  0  0
   62.1125   32.9336   45.7538 H   0  0  0  0  0  0  0  0  0  0  0  0
   62.2316   34.7259   45.7538 H   0  0  0  0  0  0  0  0  0  0  0  0
   59.3608   34.7167   47.8431 H   0  0  0  0  0  0  0  0  0  0  0  0
   60.5214   35.8197   47.0128 H   0  0  0  0  0  0  0  0  0  0  0  0
   59.7892   35.1772   44.9822 H   0  0  0  0  0  0  0  0  0  0  0  0
   60.0032   33.4322   45.4118 H   0  0  0  0  0  0  0  0  0  0  0  0
   57.5586   35.2050   45.7963 H   0  0  0  0  0  0  0  0  0  0  0  0
   57.7014   33.6295   44.9288 H   0  0  0  0  0  0  0  0  0  0  0  0
   56.7890   33.7790   47.5110 H   0  0  0  0  0  0  0  0  0  0  0  0
   60.5711   28.4211   49.2132 H   0  0  0  0  0  0  0  0  0  0  0  0
   59.9290   27.7609   47.6709 H   0  0  0  0  0  0  0  0  0  0  0  0
   61.4352   28.7396   47.6709 H   0  0  0  0  0  0  0  0  0  0  0  0
   60.6958   29.7216   50.4253 H   0  0  0  0  0  0  0  0  0  0  0  0
   60.6160   31.5356   52.1183 H   0  0  0  0  0  0  0  0  0  0  0  0
   59.4703   33.6822   51.6113 H   0  0  0  0  0  0  0  0  0  0  0  0
   58.3677   34.0257   49.4085 H   0  0  0  0  0  0  0  0  0  0  0  0
   58.8149   25.9750   44.3960 H   0  0  0  0  0  0  0  0  0  0  0  0
   57.4242   27.0754   42.6236 H   0  0  0  0  0  0  0  0  0  0  0  0
   56.7707   29.4996   42.8769 H   0  0  0  0  0  0  0  0  0  0  0  0
  1  2  1  0
  2  3  1  0
  3  4  1  0
  3  5  1  0
  5  6  1  0
  6  7  1  0
  7  8  1  0
  8  9  1  0
  9 10  2  0
 10 11  1  0
 11 12  2  0
 12 13  1  0
 12 14  1  0
 14 15  2  0
 15 16  1  0
 16 17  2  0
 17 18  1  0
 18 19  2  0
 11 20  1  0
 20 21  2  0
 21 22  1  0
 22 23  2  0
 23 24  1  0
 24 25  2  0
 25 26  1  0
 26 27  2  0
 19  9  1  0
 25 20  1  0
 26 10  1  0
 19 14  1  0
  1 28  1  0
  1 29  1  0
  1 30  1  0
  2 31  1  0
  2 32  1  0
  4 33  1  0
  4 34  1  0
  4 35  1  0
  5 36  1  0
  5 37  1  0
  6 38  1  0
  6 39  1  0
  7 40  1  0
  7 41  1  0
  8 42  1  0
 13 43  1  0
 13 44  1  0
 13 45  1  0
 15 46  1  0
 16 47  1  0
 17 48  1  0
 18 49  1  0
 22 50  1  0
 23 51  1  0
 24 52  1  0
M  CHG  1  12   1
M  END
>  <UniqueID>  (17) 
17

>  <SMILES>  (17) 
CCN(C)CCCNc1c2c([n+](C)c3ccccc13)-c1ncccc1C2=O

>  <Energy>  (17) 
106.60811759585997

>  <Genealogy>  (17) 
CCN(C)CCCNc1c2c([n+](C)c3ccccc13)-c1ncccc1C2=O (3D coordinates assigned)
CCN(C)CCCNc1c2c([n+](C)c3ccccc13)-c1ncccc1C2=O (nonaromatic ring conformer: 106.60811759585997 kcal/mol)

>  <smiles>  (17) 
CCN(C)CCCNc1c2c([n+](C)c3ccccc13)-c1ncccc1C2=O

>  <score_type>  (17) 
oracle

>  <origin>  (17) 
adg

>  <m_score__min__energy>  (17) 
-5.9800000000000004

>  <m_primary>  (17) 
energy

$$$$
17:0
     RDKit          3D

 38 40  0  0  0  0  0  0  0  0999 V2000
   63.5320   31.9680   47.3690 C   0  0  0  0  0  0  0  0  0  0  0  0
   62.0860   32.3200   47.4730 C   0  0  0  0  0  0  0  0  0  0  0  0
   61.1010   31.4100   47.6370 N   0  0  0  0  0  0  0  0  0  0  0  0
   59.8610   31.9600   47.5690 C   0  0  0  0  0  0  0  0  0  0  0  0
   59.8490   33.3380   47.3590 C   0  0  0  0  0  0  0  0  0  0  0  0
   58.6200   34.1890   47.1210 C   0  0  0  0  0  0  0  0  0  0  0  0
   58.3500   34.5850   45.7150 N   0  0  0  0  0  0  0  0  0  0  0  0
   57.0620   34.1150   45.1880 C   0  0  0  0  0  0  0  0  0  0  0  0
   57.7240   33.2340   44.1350 C   0  0  0  0  0  0  0  0  0  0  0  0
   57.4980   31.7650   44.3580 C   0  0  0  0  0  0  0  0  0  0  0  0
   56.3140   31.2280   44.7080 N   0  0  0  0  0  0  0  0  0  0  0  0
   56.5560   29.9630   44.8680 O   0  0  0  0  0  0  0  0  0  0  0  0
   57.8260   29.7230   44.6430 C   0  0  0  0  0  0  0  0  0  0  0  0
   58.4790   28.3720   44.7840 C   0  0  0  0  0  0  0  0  0  0  0  0
   59.9970   28.5130   44.9460 C   0  0  0  0  0  0  0  0  0  0  0  0
   58.1530   27.4730   43.5850 C   0  0  0  0  0  0  0  0  0  0  0  0
   58.4910   30.8510   44.3280 N   0  0  0  0  0  0  0  0  0  0  0  0
   59.0350   33.7700   44.7010 C   0  0  0  0  0  0  0  0  0  0  0  0
   61.4490   33.8550   47.2060 S   0  0  0  0  0  0  0  0  0  0  0  0
   63.9576   31.8644   48.3780 H   0  0  0  0  0  0  0  0  0  0  0  0
   63.6398   31.0174   46.8262 H   0  0  0  0  0  0  0  0  0  0  0  0
   64.0647   32.7627   46.8262 H   0  0  0  0  0  0  0  0  0  0  0  0
   61.2700   30.3880   47.7680 H   0  0  0  0  0  0  0  0  0  0  0  0
   58.9408   31.3661   47.6713 H   0  0  0  0  0  0  0  0  0  0  0  0
   57.7477   33.6248   47.4827 H   0  0  0  0  0  0  0  0  0  0  0  0
   58.8096   35.1305   47.6573 H   0  0  0  0  0  0  0  0  0  0  0  0
   56.4696   33.5490   45.9220 H   0  0  0  0  0  0  0  0  0  0  0  0
   56.3184   34.8586   44.8654 H   0  0  0  0  0  0  0  0  0  0  0  0
   57.4806   33.2765   43.0631 H   0  0  0  0  0  0  0  0  0  0  0  0
   58.0736   27.8984   45.6903 H   0  0  0  0  0  0  0  0  0  0  0  0
   60.2509   28.5366   46.0160 H   0  0  0  0  0  0  0  0  0  0  0  0
   60.4977   27.6575   44.4691 H   0  0  0  0  0  0  0  0  0  0  0  0
   60.3315   29.4461   44.4691 H   0  0  0  0  0  0  0  0  0  0  0  0
   57.7987   26.4958   43.9450 H   0  0  0  0  0  0  0  0  0  0  0  0
   57.3689   27.9454   42.9750 H   0  0  0  0  0  0  0  0  0  0  0  0
   59.0576   27.3330   42.9750 H   0  0  0  0  0  0  0  0  0  0  0  0
   59.6787   32.9879   45.1299 H   0  0  0  0  0  0  0  0  0  0  0  0
   59.7469   34.2587   44.0196 H   0  0  0  0  0  0  0  0  0  0  0  0
  1  2  1  0
  2  3  2  0
  3  4  1  0
  4  5  2  0
  5  6  1  0
  6  7  1  0
  7  8  1  0
  8  9  1  0
  9 10  1  0
 10 11  2  0
 11 12  1  0
 12 13  1  0
 13 14  1  0
 14 15  1  0
 14 16  1  0
 13 17  2  0
  9 18  1  0
  5 19  1  0
 19  2  1  0
 18  7  1  0
 17 10  1  0
  1 20  1  0
  1 21  1  0
  1 22  1  0
  3 23  1  0
  4 24  1  0
  6 25  1  0
  6 26  1  0
  8 27  1  0
  8 28  1  0
  9 29  1  0
 14 30  1  0
 15 31  1  0
 15 32  1  0
 15 33  1  0
 16 34  1  0
 16 35  1  0
 16 36  1  0
 18 37  1  0
 18 38  1  0
M  CHG  1   3   1
M  END
>  <UniqueID>  (18) 
18

>  <SMILES>  (18) 
Cc1[nH+]cc(CN2CC(c3noc(C(C)C)n3)C2)s1

>  <Energy>  (18) 
166.78788535414176

>  <Genealogy>  (18) 
Cc1[nH+]cc(CN2CC(c3noc(C(C)C)n3)C2)s1 (protonated)
Cc1[nH+]cc(CN2CC(c3noc(C(C)C)n3)C2)s1 (3D coordinates assigned)
Cc1[nH+]cc(CN2CC(c3noc(C(C)C)n3)C2)s1 (nonaromatic ring conformer: 166.78788535414176 kcal/mol)

>  <smiles>  (18) 
Cc1ncc(CN2CC(c3noc(C(C)C)n3)C2)s1

>  <score_type>  (18) 
oracle

>  <origin>  (18) 
adg

>  <m_score__min__energy>  (18) 
-6.7300000000000004

>  <m_primary>  (18) 
energy

$$$$
18:0
     RDKit          3D

 40 42  0  0  0  0  0  0  0  0999 V2000
   55.2860   24.7720   46.4960 O   0  0  0  0  0  0  0  0  0  0  0  0
   56.0360   25.7310   46.1770 C   0  0  0  0  0  0  0  0  0  0  0  0
   55.5630   26.8970   45.6810 N   0  0  0  0  0  0  0  0  0  0  0  0
   56.5850   27.7550   45.4250 C   0  0  0  0  0  0  0  0  0  0  0  0
   56.4170   29.0420   44.9090 C   0  0  0  0  0  0  0  0  0  0  0  0
   55.1430   29.5230   44.6150 O   0  0  0  0  0  0  0  0  0  0  0  0
   57.5570   29.8390   44.6980 C   0  0  0  0  0  0  0  0  0  0  0  0
   58.8400   29.3470   45.0000 C   0  0  0  0  0  0  0  0  0  0  0  0
   59.0090   28.0440   45.5100 C   0  0  0  0  0  0  0  0  0  0  0  0
   60.3820   27.5360   45.8740 C   0  0  0  0  0  0  0  0  0  0  0  0
   60.6030   27.5480   47.3920 C   0  0  0  0  0  0  0  0  0  0  0  0
   60.5950   28.9230   47.9180 N   0  0  0  0  0  0  0  0  0  0  0  0
   59.6440   29.1020   49.0290 C   0  0  0  0  0  0  0  0  0  0  0  0
   58.8940   30.4350   48.9420 C   0  0  0  0  0  0  0  0  0  0  0  0
   58.7190   30.7860   47.5710 O   0  0  0  0  0  0  0  0  0  0  0  0
   58.9450   32.0680   47.0460 C   0  0  0  0  0  0  0  0  0  0  0  0
   57.8350   32.8590   46.7220 C   0  0  0  0  0  0  0  0  0  0  0  0
   58.0090   34.1470   46.2070 C   0  0  0  0  0  0  0  0  0  0  0  0
   59.2960   34.6520   46.0050 C   0  0  0  0  0  0  0  0  0  0  0  0
   60.4110   33.8680   46.3150 C   0  0  0  0  0  0  0  0  0  0  0  0
   60.2410   32.5820   46.8340 C   0  0  0  0  0  0  0  0  0  0  0  0
   57.8560   27.2730   45.7170 C   0  0  0  0  0  0  0  0  0  0  0  0
   57.7180   25.7060   46.3230 S   0  0  0  0  0  0  0  0  0  0  0  0
   54.3570   28.8950   44.4960 H   0  0  0  0  0  0  0  0  0  0  0  0
   57.4442   30.8556   44.2934 H   0  0  0  0  0  0  0  0  0  0  0  0
   59.7204   29.9859   44.8364 H   0  0  0  0  0  0  0  0  0  0  0  0
   60.4909   26.5054   45.5053 H   0  0  0  0  0  0  0  0  0  0  0  0
   61.1284   28.1988   45.4118 H   0  0  0  0  0  0  0  0  0  0  0  0
   59.7999   26.9733   47.8765 H   0  0  0  0  0  0  0  0  0  0  0  0
   61.5837   27.0979   47.6058 H   0  0  0  0  0  0  0  0  0  0  0  0
   60.3630   29.5860   47.1410 H   0  0  0  0  0  0  0  0  0  0  0  0
   58.9117   28.2816   49.0037 H   0  0  0  0  0  0  0  0  0  0  0  0
   60.2178   29.0989   49.9675 H   0  0  0  0  0  0  0  0  0  0  0  0
   57.9106   30.3360   49.4248 H   0  0  0  0  0  0  0  0  0  0  0  0
   59.4726   31.2186   49.4531 H   0  0  0  0  0  0  0  0  0  0  0  0
   56.8197   32.4639   46.8739 H   0  0  0  0  0  0  0  0  0  0  0  0
   57.1319   34.7634   45.9606 H   0  0  0  0  0  0  0  0  0  0  0  0
   59.4318   35.6665   45.6020 H   0  0  0  0  0  0  0  0  0  0  0  0
   61.4238   34.2642   46.1501 H   0  0  0  0  0  0  0  0  0  0  0  0
   61.1208   31.9685   47.0780 H   0  0  0  0  0  0  0  0  0  0  0  0
  1  2  2  0
  2  3  1  0
  3  4  1  0
  4  5  2  0
  5  6  1  0
  5  7  1  0
  7  8  2  0
  8  9  1  0
  9 10  1  0
 10 11  1  0
 11 12  1  0
 12 13  1  0
 13 14  1  0
 14 15  1  0
 15 16  1  0
 16 17  2  0
 17 18  1  0
 18 19  2  0
 19 20  1  0
 20 21  2  0
  9 22  2  0
 22 23  1  0
 23  2  1  0
 22  4  1  0
 21 16  1  0
  6 24  1  0
  7 25  1  0
  8 26  1  0
 10 27  1  0
 10 28  1  0
 11 29  1  0
 11 30  1  0
 12 31  1  0
 13 32  1  0
 13 33  1  0
 14 34  1  0
 14 35  1  0
 17 36  1  0
 18 37  1  0
 19 38  1  0
 20 39  1  0
 21 40  1  0
M  CHG  1   3  -1
M  END
>  <UniqueID>  (19) 
19

>  <SMILES>  (19) 
O=c1[n-]c2c(O)ccc(CCNCCOc3ccccc3)c2s1

>  <Energy>  (19) 
73.88856256957463

>  <Genealogy>  (19) 
O=c1[n-]c2c(O)ccc(CCNCCOc3ccccc3)c2s1 (protonated)
O=c1[n-]c2c(O)ccc(CCNCCOc3ccccc3)c2s1 (3D coordinates assigned)
O=c1[n-]c2c(O)ccc(CCNCCOc3ccccc3)c2s1 (optimized conformer: 73.88856256957463 kcal/mol)

>  <smiles>  (19) 
O=c1[nH]c2c(O)ccc(CCNCCOc3ccccc3)c2s1

>  <score_type>  (19) 
oracle

>  <origin>  (19) 
adg

>  <m_score__min__energy>  (19) 
-10.17

>  <m_primary>  (19) 
energy

$$$$
19:0
     RDKit          3D

 66 70  0  0  0  0  0  0  0  0999 V2000
   59.4655   35.8101   44.2920 H   0  0  0  0  0  0  0  0  0  0  0  0
   59.2610   35.0620   45.0720 C   0  0  0  0  0  0  0  0  0  0  0  0
   58.6600   33.8500   44.7320 C   0  0  0  0  0  0  0  0  0  0  0  0
   58.3895   33.6471   43.6853 H   0  0  0  0  0  0  0  0  0  0  0  0
   58.3990   32.8880   45.7210 C   0  0  0  0  0  0  0  0  0  0  0  0
   57.7490   31.6060   45.3810 C   0  0  0  0  0  0  0  0  0  0  0  0
   56.7090   31.4980   44.5130 N   0  0  0  0  0  0  0  0  0  0  0  0
   56.3530   30.2180   44.4490 N   0  0  0  0  0  0  0  0  0  0  0  0
   55.2150   29.7180   43.6900 C   0  0  0  0  0  0  0  0  0  0  0  0
   54.4337   29.3747   44.3840 H   0  0  0  0  0  0  0  0  0  0  0  0
   54.8146   30.5231   43.0563 H   0  0  0  0  0  0  0  0  0  0  0  0
   55.5372   28.8785   43.0563 H   0  0  0  0  0  0  0  0  0  0  0  0
   57.1330   29.5200   45.2890 C   0  0  0  0  0  0  0  0  0  0  0  0
   57.0410   28.2030   45.5900 N   0  0  0  0  0  0  0  0  0  0  0  0
   57.8870   27.6940   46.5390 C   0  0  0  0  0  0  0  0  0  0  0  0
   57.8420   26.4360   46.8670 N   0  0  0  0  0  0  0  0  0  0  0  0
   56.9490   25.4440   46.2660 C   0  0  0  0  0  0  0  0  0  0  0  0
   56.0071   25.4230   46.8338 H   0  0  0  0  0  0  0  0  0  0  0  0
   56.7742   25.7324   45.2190 H   0  0  0  0  0  0  0  0  0  0  0  0
   57.5680   24.0340   46.2760 C   0  0  0  0  0  0  0  0  0  0  0  0
   58.6575   24.1231   46.1532 H   0  0  0  0  0  0  0  0  0  0  0  0
   57.3145   23.5573   47.2344 H   0  0  0  0  0  0  0  0  0  0  0  0
   57.0310   23.1870   45.1860 N   0  0  0  0  0  0  0  0  0  0  0  0
   58.1360   22.5120   44.4780 C   0  0  0  0  0  0  0  0  0  0  0  0
   58.7356   23.2628   43.9425 H   0  0  0  0  0  0  0  0  0  0  0  0
   58.7607   21.9836   45.2132 H   0  0  0  0  0  0  0  0  0  0  0  0
   57.5810   21.4890   43.4660 C   0  0  0  0  0  0  0  0  0  0  0  0
   58.2407   21.4727   42.5859 H   0  0  0  0  0  0  0  0  0  0  0  0
   57.5463   20.5118   43.9699 H   0  0  0  0  0  0  0  0  0  0  0  0
   56.2130   21.8060   43.0220 N   0  0  0  0  0  0  0  0  0  0  0  0
   55.5350   21.4510   43.7370 H   0  0  0  0  0  0  0  0  0  0  0  0
   56.0270   23.2540   42.8810 C   0  0  0  0  0  0  0  0  0  0  0  0
   56.7648   23.6425   42.1636 H   0  0  0  0  0  0  0  0  0  0  0  0
   55.0035   23.4408   42.5238 H   0  0  0  0  0  0  0  0  0  0  0  0
   56.2120   23.9740   44.2330 C   0  0  0  0  0  0  0  0  0  0  0  0
   56.7085   24.9391   44.0540 H   0  0  0  0  0  0  0  0  0  0  0  0
   55.2159   24.1093   44.6796 H   0  0  0  0  0  0  0  0  0  0  0  0
   58.7850   28.5170   47.1710 N   0  0  0  0  0  0  0  0  0  0  0  0
   58.8710   29.8480   46.8760 C   0  0  0  0  0  0  0  0  0  0  0  0
   59.5861   30.5019   47.3966 H   0  0  0  0  0  0  0  0  0  0  0  0
   58.0230   30.3460   45.8950 C   0  0  0  0  0  0  0  0  0  0  0  0
   58.7250   33.1700   47.0580 C   0  0  0  0  0  0  0  0  0  0  0  0
   58.4936   32.4334   47.8415 H   0  0  0  0  0  0  0  0  0  0  0  0
   59.3450   34.3860   47.4060 C   0  0  0  0  0  0  0  0  0  0  0  0
   59.7100   34.6960   48.7660 N   0  0  0  0  0  0  0  0  0  0  0  0
   59.2860   35.5410   49.2140 H   0  0  0  0  0  0  0  0  0  0  0  0
   60.6610   33.9250   49.5700 C   0  0  0  0  0  0  0  0  0  0  0  0
   60.7477   34.3875   50.5643 H   0  0  0  0  0  0  0  0  0  0  0  0
   60.2899   32.8928   49.6528 H   0  0  0  0  0  0  0  0  0  0  0  0
   62.0540   33.8910   48.9080 C   0  0  0  0  0  0  0  0  0  0  0  0
   62.2360   34.8889   48.4825 H   0  0  0  0  0  0  0  0  0  0  0  0
   62.0970   32.8510   47.7780 C   0  0  0  0  0  0  0  0  0  0  0  0
   61.8299   31.8651   48.1862 H   0  0  0  0  0  0  0  0  0  0  0  0
   61.3823   33.1515   46.9977 H   0  0  0  0  0  0  0  0  0  0  0  0
   63.5080   32.7730   47.1500 C   0  0  0  0  0  0  0  0  0  0  0  0
   63.8004   31.7150   47.0788 H   0  0  0  0  0  0  0  0  0  0  0  0
   63.4522   33.2552   46.1629 H   0  0  0  0  0  0  0  0  0  0  0  0
   64.4960   33.4640   47.9000 O   0  0  0  0  0  0  0  0  0  0  0  0
   64.4420   33.0660   49.2560 C   0  0  0  0  0  0  0  0  0  0  0  0
   64.4464   31.9673   49.3089 H   0  0  0  0  0  0  0  0  0  0  0  0
   65.3171   33.4804   49.7780 H   0  0  0  0  0  0  0  0  0  0  0  0
   63.1670   33.5980   49.9370 C   0  0  0  0  0  0  0  0  0  0  0  0
   62.8033   32.8452   50.6518 H   0  0  0  0  0  0  0  0  0  0  0  0
   63.4174   34.5380   50.4504 H   0  0  0  0  0  0  0  0  0  0  0  0
   59.6040   35.3290   46.3990 C   0  0  0  0  0  0  0  0  0  0  0  0
   60.0810   36.2860   46.6573 H   0  0  0  0  0  0  0  0  0  0  0  0
  1  2  1  0
  2  3  2  0
  3  4  1  0
  3  5  1  0
  5  6  1  0
  6  7  2  0
  7  8  1  0
  8  9  1  0
  9 10  1  0
  9 11  1  0
  9 12  1  0
  8 13  1  0
 13 14  2  0
 14 15  1  0
 15 16  2  0
 16 17  1  0
 17 18  1  0
 17 19  1  0
 17 20  1  0
 20 21  1  0
 20 22  1  0
 20 23  1  0
 23 24  1  0
 24 25  1  0
 24 26  1  0
 24 27  1  0
 27 28  1  0
 27 29  1  0
 27 30  1  0
 30 31  1  0
 30 32  1  0
 32 33  1  0
 32 34  1  0
 32 35  1  0
 35 36  1  0
 35 37  1  0
 15 38  1  0
 38 39  1  0
 39 40  1  0
 39 41  2  0
  5 42  2  0
 42 43  1  0
 42 44  1  0
 44 45  1  0
 45 46  1  0
 45 47  1  0
 47 48  1  0
 47 49  1  0
 47 50  1  0
 50 51  1  0
 50 52  1  0
 52 53  1  0
 52 54  1  0
 52 55  1  0
 55 56  1  0
 55 57  1  0
 55 58  1  0
 58 59  1  0
 59 60  1  0
 59 61  1  0
 59 62  1  0
 62 63  1  0
 62 64  1  0
 44 65  2  0
 65 66  1  0
 65  2  1  0
 41  6  1  0
 62 50  1  0
 41 13  1  0
 35 23  1  0
M  CHG  1  38  -1
M  END
>  <UniqueID>  (20) 
20

>  <SMILES>  (20) 
Cn1nc(-c2cccc(NCC3CCOCC3)c2)c2c[n-]/c(=N/CCN3CCNCC3)nc21

>  <Energy>  (20) 
125.92181879202622

>  <Genealogy>  (20) 
Cn1nc(-c2cccc(NCC3CCOCC3)c2)c2c[n-]c(=NCCN3CCNCC3)nc21 (protonated)
Cn1nc(-c2cccc(NCC3CCOCC3)c2)c2c[n-]/c(=N/CCN3CCNCC3)nc21 (cis-trans isomerization)
Cn1nc(-c2cccc(NCC3CCOCC3)c2)c2c[n-]/c(=N/CCN3CCNCC3)nc21 (3D coordinates assigned)
Cn1nc(-c2cccc(NCC3CCOCC3)c2)c2c[n-]/c(=N/CCN3CCNCC3)nc21 (nonaromatic ring conformer: 125.92181879202622 kcal/mol)

>  <smiles>  (20) 
Cn1nc(-c2cccc(NCC3CCOCC3)c2)c2c[nH]c(=NCCN3CCNCC3)nc21

>  <score_type>  (20) 
oracle

>  <origin>  (20) 
adg

>  <m_score__min__energy>  (20) 
-12.26

>  <m_primary>  (20) 
energy

$$$$
20:0
     RDKit          3D

 63 66  0  0  0  0  0  0  0  0999 V2000
   63.2620   33.0520   47.1590 C   0  0  0  0  0  0  0  0  0  0  0  0
   62.7300   31.8980   48.0030 C   0  0  0  0  0  0  0  0  0  0  0  0
   61.3150   31.7750   47.8540 O   0  0  0  0  0  0  0  0  0  0  0  0
   60.4260   31.2620   48.8150 C   0  0  0  0  0  0  0  0  0  0  0  0
   60.0740   31.9780   49.9770 C   0  0  0  0  0  0  0  0  0  0  0  0
   59.2010   31.4180   50.9140 C   0  0  0  0  0  0  0  0  0  0  0  0
   58.6710   30.1450   50.7040 C   0  0  0  0  0  0  0  0  0  0  0  0
   59.0050   29.4290   49.5530 C   0  0  0  0  0  0  0  0  0  0  0  0
   59.8740   29.9840   48.6010 C   0  0  0  0  0  0  0  0  0  0  0  0
   60.2040   29.2400   47.4190 N   0  0  0  0  0  0  0  0  0  0  0  0
   60.3710   27.7880   47.4730 C   0  0  0  0  0  0  0  0  0  0  0  0
   59.6230   27.1610   46.2920 C   0  0  0  0  0  0  0  0  0  0  0  0
   60.0140   27.7310   44.9700 N   0  0  0  0  0  0  0  0  0  0  0  0
   58.8520   27.8980   44.0690 C   0  0  0  0  0  0  0  0  0  0  0  0
   57.5370   27.5750   44.7980 C   0  0  0  0  0  0  0  0  0  0  0  0
   57.0630   28.7500   45.6600 C   0  0  0  0  0  0  0  0  0  0  0  0
   56.7380   29.8860   44.8560 O   0  0  0  0  0  0  0  0  0  0  0  0
   57.3770   31.1360   44.9100 C   0  0  0  0  0  0  0  0  0  0  0  0
   57.5250   31.8510   43.7180 C   0  0  0  0  0  0  0  0  0  0  0  0
   58.1490   33.0990   43.7090 C   0  0  0  0  0  0  0  0  0  0  0  0
   58.6500   33.6530   44.8960 C   0  0  0  0  0  0  0  0  0  0  0  0
   58.4900   32.9530   46.1160 C   0  0  0  0  0  0  0  0  0  0  0  0
   57.8740   31.6880   46.1060 C   0  0  0  0  0  0  0  0  0  0  0  0
   59.0580   33.4470   47.3530 N   0  0  0  0  0  0  0  0  0  0  0  0
   59.2200   34.9080   47.3620 C   0  0  0  0  0  0  0  0  0  0  0  0
   60.0150   35.3690   46.1390 C   0  0  0  0  0  0  0  0  0  0  0  0
   59.2460   35.0380   44.8600 C   0  0  0  0  0  0  0  0  0  0  0  0
   60.8320   28.9670   45.0460 C   0  0  0  0  0  0  0  0  0  0  0  0
   60.3430   29.9340   46.1350 C   0  0  0  0  0  0  0  0  0  0  0  0
   63.6301   33.8505   47.8200 H   0  0  0  0  0  0  0  0  0  0  0  0
   64.0854   32.6928   46.5242 H   0  0  0  0  0  0  0  0  0  0  0  0
   62.4541   33.4449   46.5242 H   0  0  0  0  0  0  0  0  0  0  0  0
   63.2100   30.9626   47.6795 H   0  0  0  0  0  0  0  0  0  0  0  0
   62.9585   32.0980   49.0603 H   0  0  0  0  0  0  0  0  0  0  0  0
   60.4885   32.9826   50.1473 H   0  0  0  0  0  0  0  0  0  0  0  0
   58.9314   31.9824   51.8189 H   0  0  0  0  0  0  0  0  0  0  0  0
   57.9890   29.7047   51.4462 H   0  0  0  0  0  0  0  0  0  0  0  0
   58.5851   28.4252   49.3916 H   0  0  0  0  0  0  0  0  0  0  0  0
   61.4399   27.5361   47.4094 H   0  0  0  0  0  0  0  0  0  0  0  0
   59.9670   27.4002   48.4198 H   0  0  0  0  0  0  0  0  0  0  0  0
   59.8321   26.0811   46.2812 H   0  0  0  0  0  0  0  0  0  0  0  0
   58.5539   27.3774   46.4343 H   0  0  0  0  0  0  0  0  0  0  0  0
   58.8196   28.9383   43.7131 H   0  0  0  0  0  0  0  0  0  0  0  0
   58.9627   27.2039   43.2228 H   0  0  0  0  0  0  0  0  0  0  0  0
   56.7626   27.3456   44.0513 H   0  0  0  0  0  0  0  0  0  0  0  0
   57.7143   26.7142   45.4595 H   0  0  0  0  0  0  0  0  0  0  0  0
   56.1700   28.4431   46.2243 H   0  0  0  0  0  0  0  0  0  0  0  0
   57.8781   29.0302   46.3435 H   0  0  0  0  0  0  0  0  0  0  0  0
   57.1456   31.4254   42.7773 H   0  0  0  0  0  0  0  0  0  0  0  0
   58.2487   33.6526   42.7637 H   0  0  0  0  0  0  0  0  0  0  0  0
   57.7795   31.1229   47.0450 H   0  0  0  0  0  0  0  0  0  0  0  0
   59.9930   32.9960   47.4920 H   0  0  0  0  0  0  0  0  0  0  0  0
   58.4400   33.1850   48.1560 H   0  0  0  0  0  0  0  0  0  0  0  0
   58.2274   35.3819   47.3476 H   0  0  0  0  0  0  0  0  0  0  0  0
   59.7672   35.1986   48.2709 H   0  0  0  0  0  0  0  0  0  0  0  0
   60.1748   36.4558   46.1970 H   0  0  0  0  0  0  0  0  0  0  0  0
   60.9845   34.8496   46.1219 H   0  0  0  0  0  0  0  0  0  0  0  0
   58.4343   35.7698   44.7352 H   0  0  0  0  0  0  0  0  0  0  0  0
   59.9546   35.0790   44.0197 H   0  0  0  0  0  0  0  0  0  0  0  0
   61.8731   28.6874   45.2650 H   0  0  0  0  0  0  0  0  0  0  0  0
   60.7451   29.4836   44.0788 H   0  0  0  0  0  0  0  0  0  0  0  0
   61.0695   30.7528   46.2437 H   0  0  0  0  0  0  0  0  0  0  0  0
   59.3610   30.3322   45.8398 H   0  0  0  0  0  0  0  0  0  0  0  0
  1  2  1  0
  2  3  1  0
  3  4  1  0
  4  5  2  0
  5  6  1  0
  6  7  2  0
  7  8  1  0
  8  9  2  0
  9 10  1  0
 10 11  1  0
 11 12  1  0
 12 13  1  0
 13 14  1  0
 14 15  1  0
 15 16  1  0
 16 17  1  0
 17 18  1  0
 18 19  2  0
 19 20  1  0
 20 21  2  0
 21 22  1  0
 22 23  2  0
 22 24  1  0
 24 25  1  0
 25 26  1  0
 26 27  1  0
 13 28  1  0
 28 29  1  0
  9  4  1  0
 29 10  1  0
 23 18  1  0
 27 21  1  0
  1 30  1  0
  1 31  1  0
  1 32  1  0
  2 33  1  0
  2 34  1  0
  5 35  1  0
  6 36  1  0
  7 37  1  0
  8 38  1  0
 11 39  1  0
 11 40  1  0
 12 41  1  0
 12 42  1  0
 14 43  1  0
 14 44  1  0
 15 45  1  0
 15 46  1  0
 16 47  1  0
 16 48  1  0
 19 49  1  0
 20 50  1  0
 23 51  1  0
 24 52  1  0
 24 53  1  0
 25 54  1  0
 25 55  1  0
 26 56  1  0
 26 57  1  0
 27 58  1  0
 27 59  1  0
 28 60  1  0
 28 61  1  0
 29 62  1  0
 29 63  1  0
M  CHG  1  24   1
M  END
>  <UniqueID>  (21) 
21

>  <SMILES>  (21) 
CCOc1ccccc1N1CCN(CCCOc2ccc3c(c2)[NH2+]CCC3)CC1

>  <Energy>  (21) 
75.5679776058947

>  <Genealogy>  (21) 
CCOc1ccccc1N1CCN(CCCOc2ccc3c(c2)[NH2+]CCC3)CC1 (protonated)
CCOc1ccccc1N1CCN(CCCOc2ccc3c(c2)[NH2+]CCC3)CC1 (3D coordinates assigned)
CCOc1ccccc1N1CCN(CCCOc2ccc3c(c2)[NH2+]CCC3)CC1 (nonaromatic ring conformer: 75.5679776058947 kcal/mol)

>  <smiles>  (21) 
CCOc1ccccc1N1CCN(CCCOc2ccc3c(c2)NCCC3)CC1

>  <score_type>  (21) 
oracle

>  <origin>  (21) 
adg

>  <m_score__min__energy>  (21) 
-6.5

>  <m_primary>  (21) 
energy

$$$$
21:0
     RDKit          3D

 66 68  0  0  0  0  0  0  0  0999 V2000
   57.7630   31.5810   43.4950 C   0  0  0  0  0  0  0  0  0  0  0  0
   56.5370   30.8000   43.9580 C   0  0  0  0  0  0  0  0  0  0  0  0
   56.8210   30.0400   45.1830 N   0  0  0  0  0  0  0  0  0  0  0  0
   57.0030   28.5960   44.9360 C   0  0  0  0  0  0  0  0  0  0  0  0
   58.4950   28.2330   44.9410 C   0  0  0  0  0  0  0  0  0  0  0  0
   59.1290   28.2630   46.3390 C   0  0  0  0  0  0  0  0  0  0  0  0
   58.3280   29.0750   47.2660 N   0  0  0  0  0  0  0  0  0  0  0  0
   59.2020   29.7770   48.2100 C   0  0  0  0  0  0  0  0  0  0  0  0
   60.3100   30.5260   47.4560 C   0  0  0  0  0  0  0  0  0  0  0  0
   59.7460   31.3590   46.2980 C   0  0  0  0  0  0  0  0  0  0  0  0
   58.4260   31.9010   46.6530 N   0  0  0  0  0  0  0  0  0  0  0  0
   58.4780   32.7320   47.8680 C   0  0  0  0  0  0  0  0  0  0  0  0
   58.6420   34.2110   47.4890 C   0  0  0  0  0  0  0  0  0  0  0  0
   59.4940   34.9270   48.4530 N   0  0  0  0  0  0  0  0  0  0  0  0
   60.4560   34.0200   49.0620 C   0  0  0  0  0  0  0  0  0  0  0  0
   60.2700   33.5600   50.3920 C   0  0  0  0  0  0  0  0  0  0  0  0
   59.0810   33.8300   51.1150 C   0  0  0  0  0  0  0  0  0  0  0  0
   58.9570   33.4780   52.4550 C   0  0  0  0  0  0  0  0  0  0  0  0
   60.0060   32.8460   53.1070 C   0  0  0  0  0  0  0  0  0  0  0  0
   61.1610   32.5120   52.4080 C   0  0  0  0  0  0  0  0  0  0  0  0
   61.2980   32.8060   51.0260 C   0  0  0  0  0  0  0  0  0  0  0  0
   62.4010   32.3890   50.3090 N   0  0  0  0  0  0  0  0  0  0  0  0
   63.3060   31.3620   50.8780 C   0  0  0  0  0  0  0  0  0  0  0  0
   62.6340   32.8830   49.0410 C   0  0  0  0  0  0  0  0  0  0  0  0
   63.8710   32.6600   48.3770 C   0  0  0  0  0  0  0  0  0  0  0  0
   64.0720   33.0760   47.0660 C   0  0  0  0  0  0  0  0  0  0  0  0
   63.0590   33.7280   46.3790 C   0  0  0  0  0  0  0  0  0  0  0  0
   61.8560   34.0160   47.0180 C   0  0  0  0  0  0  0  0  0  0  0  0
   61.6370   33.6470   48.3690 C   0  0  0  0  0  0  0  0  0  0  0  0
   58.3231   31.9378   44.3719 H   0  0  0  0  0  0  0  0  0  0  0  0
   58.4075   30.9267   42.8896 H   0  0  0  0  0  0  0  0  0  0  0  0
   57.4424   32.4417   42.8896 H   0  0  0  0  0  0  0  0  0  0  0  0
   55.7163   31.5052   44.1557 H   0  0  0  0  0  0  0  0  0  0  0  0
   56.2571   30.0903   43.1655 H   0  0  0  0  0  0  0  0  0  0  0  0
   57.7130   30.4150   45.5810 H   0  0  0  0  0  0  0  0  0  0  0  0
   56.4893   28.0264   45.7244 H   0  0  0  0  0  0  0  0  0  0  0  0
   56.5799   28.3475   43.9515 H   0  0  0  0  0  0  0  0  0  0  0  0
   58.6078   27.2192   44.5294 H   0  0  0  0  0  0  0  0  0  0  0  0
   59.0138   28.9901   44.3347 H   0  0  0  0  0  0  0  0  0  0  0  0
   59.1943   27.2354   46.7260 H   0  0  0  0  0  0  0  0  0  0  0  0
   60.1307   28.7104   46.2588 H   0  0  0  0  0  0  0  0  0  0  0  0
   57.8340   29.8050   46.7000 H   0  0  0  0  0  0  0  0  0  0  0  0
   58.6060   30.4979   48.7888 H   0  0  0  0  0  0  0  0  0  0  0  0
   59.6635   29.0410   48.8848 H   0  0  0  0  0  0  0  0  0  0  0  0
   60.8283   31.1961   48.1577 H   0  0  0  0  0  0  0  0  0  0  0  0
   61.0028   29.7815   47.0368 H   0  0  0  0  0  0  0  0  0  0  0  0
   60.4329   32.1903   46.0811 H   0  0  0  0  0  0  0  0  0  0  0  0
   59.6413   30.7149   45.4125 H   0  0  0  0  0  0  0  0  0  0  0  0
   57.7830   31.0910   46.8270 H   0  0  0  0  0  0  0  0  0  0  0  0
   57.5454   32.6034   48.4369 H   0  0  0  0  0  0  0  0  0  0  0  0
   59.3364   32.4201   48.4811 H   0  0  0  0  0  0  0  0  0  0  0  0
   59.1006   34.2749   46.4912 H   0  0  0  0  0  0  0  0  0  0  0  0
   57.6469   34.6798   47.4952 H   0  0  0  0  0  0  0  0  0  0  0  0
   59.9720   35.7300   47.9890 H   0  0  0  0  0  0  0  0  0  0  0  0
   58.9140   35.3900   49.1840 H   0  0  0  0  0  0  0  0  0  0  0  0
   58.2412   34.3269   50.6072 H   0  0  0  0  0  0  0  0  0  0  0  0
   58.0267   33.7008   52.9981 H   0  0  0  0  0  0  0  0  0  0  0  0
   59.9241   32.6088   54.1780 H   0  0  0  0  0  0  0  0  0  0  0  0
   61.9848   32.0100   52.9366 H   0  0  0  0  0  0  0  0  0  0  0  0
   63.2667   31.4066   51.9764 H   0  0  0  0  0  0  0  0  0  0  0  0
   62.9876   30.3648   50.5399 H   0  0  0  0  0  0  0  0  0  0  0  0
   64.3353   31.5524   50.5399 H   0  0  0  0  0  0  0  0  0  0  0  0
   64.6851   32.1482   48.9111 H   0  0  0  0  0  0  0  0  0  0  0  0
   65.0368   32.8876   46.5723 H   0  0  0  0  0  0  0  0  0  0  0  0
   63.2061   34.0179   45.3281 H   0  0  0  0  0  0  0  0  0  0  0  0
   61.0618   34.5389   46.4649 H   0  0  0  0  0  0  0  0  0  0  0  0
  1  2  1  0
  2  3  1  0
  3  4  1  0
  4  5  1  0
  5  6  1  0
  6  7  1  0
  7  8  1  0
  8  9  1  0
  9 10  1  0
 10 11  1  0
 11 12  1  0
 12 13  1  0
 13 14  1  0
 14 15  1  0
 15 16  2  0
 16 17  1  0
 17 18  2  0
 18 19  1  0
 19 20  2  0
 20 21  1  0
 21 22  2  0
 22 23  1  0
 22 24  1  0
 24 25  2  0
 25 26  1  0
 26 27  2  0
 27 28  1  0
 28 29  2  0
 29 15  1  0
 21 16  1  0
 29 24  1  0
  1 30  1  0
  1 31  1  0
  1 32  1  0
  2 33  1  0
  2 34  1  0
  3 35  1  0
  4 36  1  0
  4 37  1  0
  5 38  1  0
  5 39  1  0
  6 40  1  0
  6 41  1  0
  7 42  1  0
  8 43  1  0
  8 44  1  0
  9 45  1  0
  9 46  1  0
 10 47  1  0
 10 48  1  0
 11 49  1  0
 12 50  1  0
 12 51  1  0
 13 52  1  0
 13 53  1  0
 14 54  1  0
 14 55  1  0
 17 56  1  0
 18 57  1  0
 19 58  1  0
 20 59  1  0
 23 60  1  0
 23 61  1  0
 23 62  1  0
 25 63  1  0
 26 64  1  0
 27 65  1  0
 28 66  1  0
M  CHG  2  14   1  22   1
M  END
>  <UniqueID>  (22) 
22

>  <SMILES>  (22) 
CCNCCCNCCCNCC[NH2+]c1c2ccccc2[n+](C)c2ccccc12

>  <Energy>  (22) 
83.16925697882404

>  <Genealogy>  (22) 
CCNCCCNCCCNCC[NH2+]c1c2ccccc2[n+](C)c2ccccc12 (protonated)
CCNCCCNCCCNCC[NH2+]c1c2ccccc2[n+](C)c2ccccc12 (3D coordinates assigned)
CCNCCCNCCCNCC[NH2+]c1c2ccccc2[n+](C)c2ccccc12 (optimized conformer: 83.16925697882404 kcal/mol)

>  <smiles>  (22) 
CCNCCCNCCCNCCNc1c2ccccc2[n+](C)c2ccccc12

>  <score_type>  (22) 
oracle

>  <origin>  (22) 
adg

>  <m_score__min__energy>  (22) 
-3.8399999999999999

>  <m_primary>  (22) 
energy

$$$$
22:0
     RDKit          3D

 52 54  0  0  0  0  0  0  0  0999 V2000
   62.7820   34.2180   51.1800 C   0  0  0  0  0  0  0  0  0  0  0  0
   62.9760   33.9900   49.6610 C   0  0  0  0  0  0  0  0  0  0  0  0
   63.6860   32.7350   49.2250 N   0  0  0  0  0  0  0  0  0  0  0  0
   63.3980   32.3720   47.7910 C   0  0  0  0  0  0  0  0  0  0  0  0
   63.1540   33.5220   46.8000 C   0  0  0  0  0  0  0  0  0  0  0  0
   65.1830   32.8280   49.3890 C   0  0  0  0  0  0  0  0  0  0  0  0
   65.7990   31.9720   50.5200 C   0  0  0  0  0  0  0  0  0  0  0  0
   63.2250   31.5590   50.0680 C   0  0  0  0  0  0  0  0  0  0  0  0
   61.8960   30.8340   49.6920 C   0  0  0  0  0  0  0  0  0  0  0  0
   60.6130   31.6490   49.9000 C   0  0  0  0  0  0  0  0  0  0  0  0
   59.8930   31.7900   48.6250 N   0  0  0  0  0  0  0  0  0  0  0  0
   59.7580   33.0810   48.0020 C   0  0  0  0  0  0  0  0  0  0  0  0
   60.2390   34.1070   48.5580 O   0  0  0  0  0  0  0  0  0  0  0  0
   59.0590   33.2060   46.7020 C   0  0  0  0  0  0  0  0  0  0  0  0
   58.8920   34.4650   46.0980 C   0  0  0  0  0  0  0  0  0  0  0  0
   58.2340   34.5840   44.8730 C   0  0  0  0  0  0  0  0  0  0  0  0
   57.7330   33.4510   44.2310 C   0  0  0  0  0  0  0  0  0  0  0  0
   57.8880   32.1840   44.8120 C   0  0  0  0  0  0  0  0  0  0  0  0
   57.3870   31.0460   44.1640 C   0  0  0  0  0  0  0  0  0  0  0  0
   57.5450   29.7850   44.7390 C   0  0  0  0  0  0  0  0  0  0  0  0
   58.2000   29.6470   45.9640 C   0  0  0  0  0  0  0  0  0  0  0  0
   58.7090   30.7730   46.6340 C   0  0  0  0  0  0  0  0  0  0  0  0
   58.5550   32.0540   46.0570 C   0  0  0  0  0  0  0  0  0  0  0  0
   59.4040   30.6250   47.9340 C   0  0  0  0  0  0  0  0  0  0  0  0
   59.5700   29.4770   48.4310 O   0  0  0  0  0  0  0  0  0  0  0  0
   63.3955   33.4970   51.7403 H   0  0  0  0  0  0  0  0  0  0  0  0
   63.0904   35.2415   51.4395 H   0  0  0  0  0  0  0  0  0  0  0  0
   61.7223   34.0774   51.4395 H   0  0  0  0  0  0  0  0  0  0  0  0
   61.9771   33.9788   49.2005 H   0  0  0  0  0  0  0  0  0  0  0  0
   63.6370   34.8085   49.3398 H   0  0  0  0  0  0  0  0  0  0  0  0
   64.2568   31.7940   47.4191 H   0  0  0  0  0  0  0  0  0  0  0  0
   62.4428   31.8277   47.8274 H   0  0  0  0  0  0  0  0  0  0  0  0
   62.9571   34.4501   47.3566 H   0  0  0  0  0  0  0  0  0  0  0  0
   64.0438   33.6557   46.1672 H   0  0  0  0  0  0  0  0  0  0  0  0
   62.2866   33.2829   46.1672 H   0  0  0  0  0  0  0  0  0  0  0  0
   65.6448   32.5147   48.4411 H   0  0  0  0  0  0  0  0  0  0  0  0
   65.3850   33.8731   49.6666 H   0  0  0  0  0  0  0  0  0  0  0  0
   65.5020   32.3847   51.4954 H   0  0  0  0  0  0  0  0  0  0  0  0
   65.4376   30.9366   50.4345 H   0  0  0  0  0  0  0  0  0  0  0  0
   66.8956   31.9858   50.4345 H   0  0  0  0  0  0  0  0  0  0  0  0
   64.0247   30.8045   50.0335 H   0  0  0  0  0  0  0  0  0  0  0  0
   63.0129   32.0058   51.0506 H   0  0  0  0  0  0  0  0  0  0  0  0
   61.9514   30.5560   48.6292 H   0  0  0  0  0  0  0  0  0  0  0  0
   61.8196   29.9743   50.3740 H   0  0  0  0  0  0  0  0  0  0  0  0
   59.9682   31.1337   50.6272 H   0  0  0  0  0  0  0  0  0  0  0  0
   60.8775   32.6479   50.2772 H   0  0  0  0  0  0  0  0  0  0  0  0
   59.2837   35.3644   46.5957 H   0  0  0  0  0  0  0  0  0  0  0  0
   58.1099   35.5749   44.4118 H   0  0  0  0  0  0  0  0  0  0  0  0
   57.2148   33.5519   43.2660 H   0  0  0  0  0  0  0  0  0  0  0  0
   56.8679   31.1479   43.1995 H   0  0  0  0  0  0  0  0  0  0  0  0
   57.1518   28.8955   44.2250 H   0  0  0  0  0  0  0  0  0  0  0  0
   58.3189   28.6481   46.4090 H   0  0  0  0  0  0  0  0  0  0  0  0
  1  2  1  0
  2  3  1  0
  3  4  1  0
  4  5  1  0
  3  6  1  0
  6  7  1  0
  3  8  1  0
  8  9  1  0
  9 10  1  0
 10 11  1  0
 11 12  1  0
 12 13  2  0
 12 14  1  0
 14 15  1  0
 15 16  2  0
 16 17  1  0
 17 18  2  0
 18 19  1  0
 19 20  2  0
 20 21  1  0
 21 22  2  0
 22 23  1  0
 22 24  1  0
 24 25  2  0
 24 11  1  0
 23 14  2  0
 23 18  1  0
  1 26  1  0
  1 27  1  0
  1 28  1  0
  2 29  1  0
  2 30  1  0
  4 31  1  0
  4 32  1  0
  5 33  1  0
  5 34  1  0
  5 35  1  0
  6 36  1  0
  6 37  1  0
  7 38  1  0
  7 39  1  0
  7 40  1  0
  8 41  1  0
  8 42  1  0
  9 43  1  0
  9 44  1  0
 10 45  1  0
 10 46  1  0
 15 47  1  0
 16 48  1  0
 17 49  1  0
 19 50  1  0
 20 51  1  0
 21 52  1  0
M  CHG  1   3   1
M  END
>  <UniqueID>  (23) 
23

>  <SMILES>  (23) 
CC[N+](CC)(CC)CCCN1C(=O)c2cccc3cccc(c23)C1=O

>  <Energy>  (23) 
88.54237291574033

>  <Genealogy>  (23) 
CC[N+](CC)(CC)CCCN1C(=O)c2cccc3cccc(c23)C1=O (3D coordinates assigned)
CC[N+](CC)(CC)CCCN1C(=O)c2cccc3cccc(c23)C1=O (nonaromatic ring conformer: 88.54237291574033 kcal/mol)

>  <smiles>  (23) 
CC[N+](CC)(CC)CCCN1C(=O)c2cccc3cccc(c23)C1=O

>  <score_type>  (23) 
oracle

>  <origin>  (23) 
adg

>  <m_score__min__energy>  (23) 
-5.75

>  <m_primary>  (23) 
energy

$$$$
23:0
     RDKit          3D

 51 53  0  0  0  0  0  0  0  0999 V2000
   62.3260   33.8490   46.7140 C   0  0  0  0  0  0  0  0  0  0  0  0
   61.1780   33.6680   47.6290 N   0  0  0  0  0  0  0  0  0  0  0  0
   59.8930   33.6060   47.1250 C   0  0  0  0  0  0  0  0  0  0  0  0
   58.8230   33.1860   47.9610 C   0  0  0  0  0  0  0  0  0  0  0  0
   59.0800   32.9040   49.3170 C   0  0  0  0  0  0  0  0  0  0  0  0
   58.0640   32.2710   50.1230 N   0  0  0  0  0  0  0  0  0  0  0  0
   58.2980   31.0650   50.9340 C   0  0  0  0  0  0  0  0  0  0  0  0
   57.0210   30.5080   51.5870 C   0  0  0  0  0  0  0  0  0  0  0  0
   56.0500   31.6150   52.0230 C   0  0  0  0  0  0  0  0  0  0  0  0
   54.6690   31.0740   52.4350 C   0  0  0  0  0  0  0  0  0  0  0  0
   53.6650   30.9120   51.2800 C   0  0  0  0  0  0  0  0  0  0  0  0
   52.2080   31.0080   51.7400 C   0  0  0  0  0  0  0  0  0  0  0  0
   51.3900   32.3540   50.9090 S   0  0  0  0  0  0  0  0  0  0  0  0
   60.3340   33.2370   49.8620 C   0  0  0  0  0  0  0  0  0  0  0  0
   60.5400   33.2540   51.2570 C   0  0  0  0  0  0  0  0  0  0  0  0
   61.7860   33.5760   51.7900 C   0  0  0  0  0  0  0  0  0  0  0  0
   62.8360   33.9170   50.9480 C   0  0  0  0  0  0  0  0  0  0  0  0
   62.6440   33.9520   49.5670 C   0  0  0  0  0  0  0  0  0  0  0  0
   61.3910   33.6130   48.9920 C   0  0  0  0  0  0  0  0  0  0  0  0
   57.3870   33.1520   47.4540 C   0  0  0  0  0  0  0  0  0  0  0  0
   57.2790   33.1220   45.9330 C   0  0  0  0  0  0  0  0  0  0  0  0
   58.1660   34.2010   45.3350 C   0  0  0  0  0  0  0  0  0  0  0  0
   59.6280   33.8970   45.6500 C   0  0  0  0  0  0  0  0  0  0  0  0
   63.2443   33.9938   47.3020 H   0  0  0  0  0  0  0  0  0  0  0  0
   62.4336   32.9567   46.0798 H   0  0  0  0  0  0  0  0  0  0  0  0
   62.1538   34.7311   46.0798 H   0  0  0  0  0  0  0  0  0  0  0  0
   57.0710   32.5710   49.9980 H   0  0  0  0  0  0  0  0  0  0  0  0
   58.7254   30.2864   50.2851 H   0  0  0  0  0  0  0  0  0  0  0  0
   58.9804   31.3498   51.7484 H   0  0  0  0  0  0  0  0  0  0  0  0
   56.5103   29.8564   50.8627 H   0  0  0  0  0  0  0  0  0  0  0  0
   57.3219   29.9544   52.4887 H   0  0  0  0  0  0  0  0  0  0  0  0
   56.4878   32.1481   52.8798 H   0  0  0  0  0  0  0  0  0  0  0  0
   55.8993   32.2800   51.1599 H   0  0  0  0  0  0  0  0  0  0  0  0
   54.8137   30.0889   52.9026 H   0  0  0  0  0  0  0  0  0  0  0  0
   54.2364   31.8207   53.1170 H   0  0  0  0  0  0  0  0  0  0  0  0
   53.8520   31.7029   50.5387 H   0  0  0  0  0  0  0  0  0  0  0  0
   53.8113   29.9087   50.8534 H   0  0  0  0  0  0  0  0  0  0  0  0
   51.6897   30.0667   51.5048 H   0  0  0  0  0  0  0  0  0  0  0  0
   52.1846   31.1879   52.8249 H   0  0  0  0  0  0  0  0  0  0  0  0
   59.7067   33.0100   51.9323 H   0  0  0  0  0  0  0  0  0  0  0  0
   61.9383   33.5601   52.8793 H   0  0  0  0  0  0  0  0  0  0  0  0
   63.8218   34.1602   51.3712 H   0  0  0  0  0  0  0  0  0  0  0  0
   63.4773   34.2472   48.9124 H   0  0  0  0  0  0  0  0  0  0  0  0
   56.8973   32.2526   47.8556 H   0  0  0  0  0  0  0  0  0  0  0  0
   56.9018   34.0787   47.7944 H   0  0  0  0  0  0  0  0  0  0  0  0
   57.6010   32.1374   45.5630 H   0  0  0  0  0  0  0  0  0  0  0  0
   56.2350   33.3041   45.6384 H   0  0  0  0  0  0  0  0  0  0  0  0
   58.0247   34.2278   44.2444 H   0  0  0  0  0  0  0  0  0  0  0  0
   57.8952   35.1760   45.7663 H   0  0  0  0  0  0  0  0  0  0  0  0
   59.9338   33.0185   45.0628 H   0  0  0  0  0  0  0  0  0  0  0  0
   60.2051   34.7974   45.3924 H   0  0  0  0  0  0  0  0  0  0  0  0
  1  2  1  0
  2  3  2  0
  3  4  1  0
  4  5  2  0
  5  6  1  0
  6  7  1  0
  7  8  1  0
  8  9  1  0
  9 10  1  0
 10 11  1  0
 11 12  1  0
 12 13  1  0
  5 14  1  0
 14 15  2  0
 15 16  1  0
 16 17  2  0
 17 18  1  0
 18 19  2  0
  4 20  1  0
 20 21  1  0
 21 22  1  0
 22 23  1  0
 19  2  1  0
 23  3  1  0
 19 14  1  0
  1 24  1  0
  1 25  1  0
  1 26  1  0
  6 27  1  0
  7 28  1  0
  7 29  1  0
  8 30  1  0
  8 31  1  0
  9 32  1  0
  9 33  1  0
 10 34  1  0
 10 35  1  0
 11 36  1  0
 11 37  1  0
 12 38  1  0
 12 39  1  0
 15 40  1  0
 16 41  1  0
 17 42  1  0
 18 43  1  0
 20 44  1  0
 20 45  1  0
 21 46  1  0
 21 47  1  0
 22 48  1  0
 22 49  1  0
 23 50  1  0
 23 51  1  0
M  CHG  2   2   1  13  -1
M  END
>  <UniqueID>  (24) 
24

>  <SMILES>  (24) 
C[n+]1c2c(c(NCCCCCC[S-])c3ccccc31)CCCC2

>  <Energy>  (24) 
65.472121927161

>  <Genealogy>  (24) 
C[n+]1c2c(c(NCCCCCC[S-])c3ccccc31)CCCC2 (protonated)
C[n+]1c2c(c(NCCCCCC[S-])c3ccccc31)CCCC2 (3D coordinates assigned)
C[n+]1c2c(c(NCCCCCC[S-])c3ccccc31)CCCC2 (nonaromatic ring conformer: 65.472121927161 kcal/mol)

>  <smiles>  (24) 
C[n+]1c2c(c(NCCCCCCS)c3ccccc31)CCCC2

>  <score_type>  (24) 
oracle

>  <origin>  (24) 
adg

>  <m_score__min__energy>  (24) 
-8.6899999999999995

>  <m_primary>  (24) 
energy

$$$$
24:0
     RDKit          3D

 40 42  0  0  0  0  0  0  0  0999 V2000
   56.6192   33.3712   43.8064 H   0  0  0  0  0  0  0  0  0  0  0  0
   57.4090   33.3840   44.5720 C   0  0  0  0  0  0  0  0  0  0  0  0
   58.0770   34.5720   44.8620 C   0  0  0  0  0  0  0  0  0  0  0  0
   57.8199   35.4925   44.3173 H   0  0  0  0  0  0  0  0  0  0  0  0
   59.0720   34.5980   45.8420 C   0  0  0  0  0  0  0  0  0  0  0  0
   59.6900   35.7730   46.1240 F   0  0  0  0  0  0  0  0  0  0  0  0
   59.4110   33.4250   46.5430 C   0  0  0  0  0  0  0  0  0  0  0  0
   60.4540   33.4900   47.5920 C   0  0  0  0  0  0  0  0  0  0  0  0
   60.1000   33.7950   48.9170 C   0  0  0  0  0  0  0  0  0  0  0  0
   59.0473   33.9868   49.1719 H   0  0  0  0  0  0  0  0  0  0  0  0
   61.0800   33.8560   49.9140 C   0  0  0  0  0  0  0  0  0  0  0  0
   60.7972   34.0984   50.9490 H   0  0  0  0  0  0  0  0  0  0  0  0
   62.4180   33.6090   49.5950 C   0  0  0  0  0  0  0  0  0  0  0  0
   63.3730   33.6690   50.5580 N   0  0  0  0  0  0  0  0  0  0  0  0
   64.6820   33.4300   50.2720 C   0  0  0  0  0  0  0  0  0  0  0  0
   65.5950   33.4880   51.2010 N   0  0  0  0  0  0  0  0  0  0  0  0
   66.8660   32.7540   51.2550 C   0  0  0  0  0  0  0  0  0  0  0  0
   67.1844   32.7298   52.3076 H   0  0  0  0  0  0  0  0  0  0  0  0
   66.6990   31.2980   50.8050 C   0  0  0  0  0  0  0  0  0  0  0  0
   66.6244   30.6473   51.6888 H   0  0  0  0  0  0  0  0  0  0  0  0
   65.7841   31.2033   50.2017 H   0  0  0  0  0  0  0  0  0  0  0  0
   67.5687   30.9986   50.2017 H   0  0  0  0  0  0  0  0  0  0  0  0
   67.9700   33.4740   50.4700 C   0  0  0  0  0  0  0  0  0  0  0  0
   68.6784   33.9360   51.1734 H   0  0  0  0  0  0  0  0  0  0  0  0
   68.5022   32.7488   49.8369 H   0  0  0  0  0  0  0  0  0  0  0  0
   67.5210   34.2534   49.8369 H   0  0  0  0  0  0  0  0  0  0  0  0
   65.0480   33.1240   48.9950 N   0  0  0  0  0  0  0  0  0  0  0  0
   66.0520   32.9400   48.7680 H   0  0  0  0  0  0  0  0  0  0  0  0
   64.1270   33.0530   47.9970 C   0  0  0  0  0  0  0  0  0  0  0  0
   64.4434   32.8043   46.9733 H   0  0  0  0  0  0  0  0  0  0  0  0
   62.7790   33.2960   48.2720 C   0  0  0  0  0  0  0  0  0  0  0  0
   61.7970   33.2340   47.2740 C   0  0  0  0  0  0  0  0  0  0  0  0
   62.0790   32.9845   46.2405 H   0  0  0  0  0  0  0  0  0  0  0  0
   58.7500   32.2100   46.2270 C   0  0  0  0  0  0  0  0  0  0  0  0
   59.0880   30.9190   46.9270 C   0  0  0  0  0  0  0  0  0  0  0  0
   59.0482   31.0709   48.0157 H   0  0  0  0  0  0  0  0  0  0  0  0
   58.3624   30.1444   46.6381 H   0  0  0  0  0  0  0  0  0  0  0  0
   60.1001   30.5993   46.6381 H   0  0  0  0  0  0  0  0  0  0  0  0
   57.7400   32.2100   45.2510 C   0  0  0  0  0  0  0  0  0  0  0  0
   57.2052   31.2770   45.0197 H   0  0  0  0  0  0  0  0  0  0  0  0
  1  2  1  0
  2  3  2  0
  3  4  1  0
  3  5  1  0
  5  6  1  0
  5  7  2  0
  7  8  1  0
  8  9  1  0
  9 10  1  0
  9 11  2  0
 11 12  1  0
 11 13  1  0
 13 14  2  0
 14 15  1  0
 15 16  2  0
 16 17  1  0
 17 18  1  0
 17 19  1  0
 19 20  1  0
 19 21  1  0
 19 22  1  0
 17 23  1  0
 23 24  1  0
 23 25  1  0
 23 26  1  0
 15 27  1  0
 27 28  1  0
 27 29  1  0
 29 30  1  0
 29 31  2  0
 31 32  1  0
 32 33  1  0
  7 34  1  0
 34 35  1  0
 35 36  1  0
 35 37  1  0
 35 38  1  0
 34 39  2  0
 39 40  1  0
 39  2  1  0
 32  8  2  0
 31 13  1  0
M  END
>  <UniqueID>  (25) 
25

>  <SMILES>  (25) 
Cc1cccc(F)c1-c1ccc2n/c(=N\C(C)C)[nH]cc2c1

>  <Energy>  (25) 
50.283438817852144

>  <Genealogy>  (25) 
Cc1cccc(F)c1-c1ccc2n/c(=N\C(C)C)[nH]cc2c1 (cis-trans isomerization)
Cc1cccc(F)c1-c1ccc2n/c(=N\C(C)C)[nH]cc2c1 (3D coordinates assigned)
Cc1cccc(F)c1-c1ccc2n/c(=N\C(C)C)[nH]cc2c1 (optimized conformer: 50.283438817852144 kcal/mol)

>  <smiles>  (25) 
Cc1cccc(F)c1-c1ccc2nc(=NC(C)C)[nH]cc2c1

>  <score_type>  (25) 
oracle

>  <origin>  (25) 
adg

>  <m_score__min__energy>  (25) 
-7.04

>  <m_primary>  (25) 
energy

$$$$
25:0
     RDKit          3D

 44 46  0  0  1  0  0  0  0  0999 V2000
   64.4660   32.7050   49.3820 C   0  0  0  0  0  0  0  0  0  0  0  0
   63.9720   33.7310   48.5750 O   0  0  0  0  0  0  0  0  0  0  0  0
   62.6690   33.7970   48.1030 C   0  0  0  0  0  0  0  0  0  0  0  0
   62.3740   33.6540   46.7470 C   0  0  0  0  0  0  0  0  0  0  0  0
   61.0400   33.7370   46.3820 C   0  0  0  0  0  0  0  0  0  0  0  0
   60.0270   33.9520   47.2950 C   0  0  0  0  0  0  0  0  0  0  0  0
   58.7020   34.0150   46.7790 N   0  0  0  0  0  0  0  0  0  0  0  0
   58.2710   33.2360   45.8580 C   0  0  0  0  0  0  0  0  0  0  0  0
   57.7330   32.0180   46.0330 N   0  0  0  0  0  0  0  0  0  0  0  0
   57.4280   31.5730   44.7990 C   0  0  0  0  0  0  0  0  0  0  0  0
   56.8430   30.3560   44.4010 C   0  0  0  0  0  0  0  0  0  0  0  0
   56.4560   29.4110   45.3540 N   0  0  0  0  0  0  0  0  0  0  0  0
   57.0150   28.1090   45.5810 C   0  0  0  0  0  0  0  0  0  0  0  0
   58.4850   28.0870   45.8750 C   0  0  0  0  0  0  0  0  0  0  0  0
   58.9840   29.1160   46.8280 C   0  0  0  0  0  0  0  0  0  0  0  0
   59.2940   28.1880   44.5710 C   0  0  0  0  0  0  0  0  0  0  0  0
   56.6710   30.2300   43.0340 C   0  0  0  0  0  0  0  0  0  0  0  0
   57.0360   31.2030   42.1310 C   0  0  0  0  0  0  0  0  0  0  0  0
   57.6020   32.3680   42.5720 C   0  0  0  0  0  0  0  0  0  0  0  0
   57.7770   32.5090   43.8980 N   0  0  0  0  0  0  0  0  0  0  0  0
   58.2940   33.5300   44.5500 N   0  0  0  0  0  0  0  0  0  0  0  0
   60.3240   34.0940   48.6360 C   0  0  0  0  0  0  0  0  0  0  0  0
   61.6540   34.0120   49.0160 C   0  0  0  0  0  0  0  0  0  0  0  0
   64.3356   32.9757   50.4402 H   0  0  0  0  0  0  0  0  0  0  0  0
   63.9166   31.7757   49.1709 H   0  0  0  0  0  0  0  0  0  0  0  0
   65.5351   32.5549   49.1709 H   0  0  0  0  0  0  0  0  0  0  0  0
   63.1646   33.4831   46.0015 H   0  0  0  0  0  0  0  0  0  0  0  0
   60.7769   33.6269   45.3196 H   0  0  0  0  0  0  0  0  0  0  0  0
   55.6480   29.6870   45.9960 H   0  0  0  0  0  0  0  0  0  0  0  0
   56.4903   27.6579   46.4361 H   0  0  0  0  0  0  0  0  0  0  0  0
   56.8837   27.5527   44.6412 H   0  0  0  0  0  0  0  0  0  0  0  0
   58.6342   27.1214   46.3804 H   0  0  0  0  0  0  0  0  0  0  0  0
   58.8172   28.7721   47.8594 H   0  0  0  0  0  0  0  0  0  0  0  0
   60.0599   29.2763   46.6644 H   0  0  0  0  0  0  0  0  0  0  0  0
   58.4436   30.0600   46.6644 H   0  0  0  0  0  0  0  0  0  0  0  0
   60.3595   28.3210   44.8099 H   0  0  0  0  0  0  0  0  0  0  0  0
   59.1619   27.2664   43.9852 H   0  0  0  0  0  0  0  0  0  0  0  0
   58.9393   29.0488   43.9852 H   0  0  0  0  0  0  0  0  0  0  0  0
   56.2191   29.3042   42.6486 H   0  0  0  0  0  0  0  0  0  0  0  0
   56.8726   31.0438   41.0549 H   0  0  0  0  0  0  0  0  0  0  0  0
   57.9024   33.1589   41.8690 H   0  0  0  0  0  0  0  0  0  0  0  0
   58.6640   34.4220   44.1370 H   0  0  0  0  0  0  0  0  0  0  0  0
   59.5308   34.2666   49.3783 H   0  0  0  0  0  0  0  0  0  0  0  0
   61.9106   34.1217   50.0800 H   0  0  0  0  0  0  0  0  0  0  0  0
  1  2  1  0
  2  3  1  0
  3  4  2  0
  4  5  1  0
  5  6  2  0
  6  7  1  0
  7  8  2  0
  8  9  1  0
  9 10  2  0
 10 11  1  0
 11 12  1  0
 12 13  1  0
 13 14  1  0
 14 15  1  0
 14 16  1  0
 11 17  2  0
 17 18  1  0
 18 19  2  0
 19 20  1  0
 20 21  1  0
  6 22  1  0
 22 23  2  0
 23  3  1  0
 21  8  1  0
 20 10  1  0
  1 24  1  0
  1 25  1  0
  1 26  1  0
  4 27  1  0
  5 28  1  0
 12 29  1  0
 13 30  1  0
 13 31  1  0
 14 32  1  0
 15 33  1  0
 15 34  1  0
 15 35  1  0
 16 36  1  0
 16 37  1  0
 16 38  1  0
 17 39  1  0
 18 40  1  0
 19 41  1  0
 21 42  1  0
 22 43  1  0
 23 44  1  0
M  END
>  <smiles>  (26) 
COc1ccc(N=c2nc3c(NCC(C)C)cccn3[nH]2)cc1

>  <score_type>  (26) 
oracle

>  <origin>  (26) 
adg

>  <m_score__min__energy>  (26) 
-7.4000000000000004

>  <m_primary>  (26) 
energy

$$$$
