0:0
     RDKit          3D

 40 41  0  0  0  0  0  0  0  0999 V2000
   59.9540   30.0160   47.1470 C   0  0  0  0  0  0  0  0  0  0  0  0
   59.1620   29.6870   45.8820 C   0  0  0  0  0  0  0  0  0  0  0  0
   57.7780   29.5680   46.1510 O   0  0  0  0  0  0  0  0  0  0  0  0
   57.1510   28.6840   45.2390 C   0  0  0  0  0  0  0  0  0  0  0  0
   56.0130   29.4160   44.5350 C   0  0  0  0  0  0  0  0  0  0  0  0
   56.2790   30.8590   44.5190 N   0  0  0  0  0  0  0  0  0  0  0  0
   57.3030   31.1880   43.5220 C   0  0  0  0  0  0  0  0  0  0  0  0
   57.6950   32.6540   43.6670 C   0  0  0  0  0  0  0  0  0  0  0  0
   57.3600   33.1120   44.9760 O   0  0  0  0  0  0  0  0  0  0  0  0
   58.2950   33.4520   45.9650 C   0  0  0  0  0  0  0  0  0  0  0  0
   59.4080   34.2810   45.7040 C   0  0  0  0  0  0  0  0  0  0  0  0
   60.3470   34.5390   46.7030 C   0  0  0  0  0  0  0  0  0  0  0  0
   60.1770   33.9990   47.9860 C   0  0  0  0  0  0  0  0  0  0  0  0
   61.1320   34.2290   48.9880 C   0  0  0  0  0  0  0  0  0  0  0  0
   60.9580   33.6790   50.2620 C   0  0  0  0  0  0  0  0  0  0  0  0
   59.8250   32.9030   50.5460 C   0  0  0  0  0  0  0  0  0  0  0  0
   58.8690   32.6670   49.5540 C   0  0  0  0  0  0  0  0  0  0  0  0
   59.0410   33.2040   48.2680 C   0  0  0  0  0  0  0  0  0  0  0  0
   58.1080   32.9370   47.2550 C   0  0  0  0  0  0  0  0  0  0  0  0
   59.3513   29.7656   48.0325 H   0  0  0  0  0  0  0  0  0  0  0  0
   60.8849   29.4302   47.1595 H   0  0  0  0  0  0  0  0  0  0  0  0
   60.1958   31.0890   47.1595 H   0  0  0  0  0  0  0  0  0  0  0  0
   59.3150   30.4900   45.1459 H   0  0  0  0  0  0  0  0  0  0  0  0
   59.5211   28.7233   45.4918 H   0  0  0  0  0  0  0  0  0  0  0  0
   57.8848   28.3417   44.4945 H   0  0  0  0  0  0  0  0  0  0  0  0
   56.7520   27.8142   45.7815 H   0  0  0  0  0  0  0  0  0  0  0  0
   55.9285   29.0496   43.5013 H   0  0  0  0  0  0  0  0  0  0  0  0
   55.0735   29.2278   45.0753 H   0  0  0  0  0  0  0  0  0  0  0  0
   56.6520   31.1330   45.4620 H   0  0  0  0  0  0  0  0  0  0  0  0
   58.1876   30.5537   43.6808 H   0  0  0  0  0  0  0  0  0  0  0  0
   56.9042   31.0114   42.5122 H   0  0  0  0  0  0  0  0  0  0  0  0
   58.7782   32.7607   43.5079 H   0  0  0  0  0  0  0  0  0  0  0  0
   57.1523   33.2527   42.9206 H   0  0  0  0  0  0  0  0  0  0  0  0
   59.5355   34.7263   44.7063 H   0  0  0  0  0  0  0  0  0  0  0  0
   61.2228   35.1675   46.4838 H   0  0  0  0  0  0  0  0  0  0  0  0
   62.0187   34.8427   48.7711 H   0  0  0  0  0  0  0  0  0  0  0  0
   61.7119   33.8556   51.0434 H   0  0  0  0  0  0  0  0  0  0  0  0
   59.6883   32.4790   51.5518 H   0  0  0  0  0  0  0  0  0  0  0  0
   57.9805   32.0596   49.7811 H   0  0  0  0  0  0  0  0  0  0  0  0
   57.2244   32.3197   47.4745 H   0  0  0  0  0  0  0  0  0  0  0  0
  1  2  1  0
  2  3  1  0
  3  4  1  0
  4  5  1  0
  5  6  1  0
  6  7  1  0
  7  8  1  0
  8  9  1  0
  9 10  1  0
 10 11  2  0
 11 12  1  0
 12 13  2  0
 13 14  1  0
 14 15  2  0
 15 16  1  0
 16 17  2  0
 17 18  1  0
 18 19  2  0
 19 10  1  0
 18 13  1  0
  1 20  1  0
  1 21  1  0
  1 22  1  0
  2 23  1  0
  2 24  1  0
  4 25  1  0
  4 26  1  0
  5 27  1  0
  5 28  1  0
  6 29  1  0
  7 30  1  0
  7 31  1  0
  8 32  1  0
  8 33  1  0
 11 34  1  0
 12 35  1  0
 14 36  1  0
 15 37  1  0
 16 38  1  0
 17 39  1  0
 19 40  1  0
M  END
>  <UniqueID>  (1) 
1

>  <SMILES>  (1) 
CCOCCNCCOc1ccc2ccccc2c1

>  <Energy>  (1) 
38.05838749679365

>  <Genealogy>  (1) 
CCOCCNCCOc1ccc2ccccc2c1 (3D coordinates assigned)
CCOCCNCCOc1ccc2ccccc2c1 (optimized conformer: 38.05838749679365 kcal/mol)

>  <smiles>  (1) 
CCOCCNCCOc1ccc2ccccc2c1

>  <score_type>  (1) 
oracle

>  <origin>  (1) 
adg

>  <m_score__min__energy>  (1) 
-7.1100000000000003

>  <m_primary>  (1) 
energy

$$$$
1:0
     RDKit          3D

 74 77  0  0  0  0  0  0  0  0999 V2000
   59.6620   35.3010   46.0770 C   0  0  0  0  0  0  0  0  0  0  0  0
   60.3900   33.9600   46.0200 C   0  0  0  0  0  0  0  0  0  0  0  0
   60.8430   33.5770   47.3760 N   0  0  0  0  0  0  0  0  0  0  0  0
   59.8500   33.9370   48.4110 C   0  0  0  0  0  0  0  0  0  0  0  0
   58.9880   32.7300   48.7780 C   0  0  0  0  0  0  0  0  0  0  0  0
   62.1740   34.1550   47.6830 C   0  0  0  0  0  0  0  0  0  0  0  0
   63.2360   33.5770   46.7360 C   0  0  0  0  0  0  0  0  0  0  0  0
   64.0260   32.5240   47.4060 N   0  0  0  0  0  0  0  0  0  0  0  0
   63.2800   31.9380   48.5070 C   0  0  0  0  0  0  0  0  0  0  0  0
   63.5710   32.2870   49.8500 C   0  0  0  0  0  0  0  0  0  0  0  0
   64.4660   33.3320   50.1640 C   0  0  0  0  0  0  0  0  0  0  0  0
   64.6990   33.7120   51.4830 C   0  0  0  0  0  0  0  0  0  0  0  0
   64.0260   33.0720   52.5160 C   0  0  0  0  0  0  0  0  0  0  0  0
   63.1440   32.0340   52.2410 C   0  0  0  0  0  0  0  0  0  0  0  0
   62.9240   31.5860   50.9080 C   0  0  0  0  0  0  0  0  0  0  0  0
   62.1020   30.5170   50.6350 N   0  0  0  0  0  0  0  0  0  0  0  0
   61.6670   29.5980   51.7110 C   0  0  0  0  0  0  0  0  0  0  0  0
   61.6450   30.3060   49.3390 C   0  0  0  0  0  0  0  0  0  0  0  0
   60.5790   29.4060   49.0660 C   0  0  0  0  0  0  0  0  0  0  0  0
   60.0350   29.2860   47.7820 C   0  0  0  0  0  0  0  0  0  0  0  0
   58.9010   28.5170   47.4990 O   0  0  0  0  0  0  0  0  0  0  0  0
   58.6950   27.6500   46.3830 C   0  0  0  0  0  0  0  0  0  0  0  0
   57.2750   27.7890   45.7790 C   0  0  0  0  0  0  0  0  0  0  0  0
   56.9860   29.0170   44.9740 N   0  0  0  0  0  0  0  0  0  0  0  0
   55.6580   29.3510   45.0820 O   0  0  0  0  0  0  0  0  0  0  0  0
   57.3900   28.8330   43.5470 C   0  0  0  0  0  0  0  0  0  0  0  0
   56.9280   30.0000   42.6610 C   0  0  0  0  0  0  0  0  0  0  0  0
   57.0490   31.3600   43.3720 C   0  0  0  0  0  0  0  0  0  0  0  0
   58.0280   31.3270   44.5530 C   0  0  0  0  0  0  0  0  0  0  0  0
   57.7530   30.1670   45.5500 C   0  0  0  0  0  0  0  0  0  0  0  0
   60.6170   29.9850   46.7330 C   0  0  0  0  0  0  0  0  0  0  0  0
   61.6940   30.8400   46.9580 C   0  0  0  0  0  0  0  0  0  0  0  0
   62.2160   31.0360   48.2610 C   0  0  0  0  0  0  0  0  0  0  0  0
   59.5057   35.5890   47.1271 H   0  0  0  0  0  0  0  0  0  0  0  0
   60.2673   36.0685   45.5725 H   0  0  0  0  0  0  0  0  0  0  0  0
   58.6886   35.2115   45.5725 H   0  0  0  0  0  0  0  0  0  0  0  0
   59.7069   33.1899   45.6322 H   0  0  0  0  0  0  0  0  0  0  0  0
   61.2633   34.0489   45.3571 H   0  0  0  0  0  0  0  0  0  0  0  0
   60.3773   34.2903   49.3094 H   0  0  0  0  0  0  0  0  0  0  0  0
   59.1978   34.7288   48.0140 H   0  0  0  0  0  0  0  0  0  0  0  0
   58.9259   32.6431   49.8728 H   0  0  0  0  0  0  0  0  0  0  0  0
   57.9779   32.8610   48.3627 H   0  0  0  0  0  0  0  0  0  0  0  0
   59.4396   31.8170   48.3627 H   0  0  0  0  0  0  0  0  0  0  0  0
   62.1329   35.2472   47.5591 H   0  0  0  0  0  0  0  0  0  0  0  0
   62.4433   33.9038   48.7195 H   0  0  0  0  0  0  0  0  0  0  0  0
   62.7367   33.1467   45.8554 H   0  0  0  0  0  0  0  0  0  0  0  0
   63.9161   34.3877   46.4356 H   0  0  0  0  0  0  0  0  0  0  0  0
   64.3090   31.7800   46.7310 H   0  0  0  0  0  0  0  0  0  0  0  0
   64.9440   32.9000   47.7330 H   0  0  0  0  0  0  0  0  0  0  0  0
   64.9896   33.8564   49.3510 H   0  0  0  0  0  0  0  0  0  0  0  0
   65.4143   34.5172   51.7066 H   0  0  0  0  0  0  0  0  0  0  0  0
   64.1920   33.3883   53.5564 H   0  0  0  0  0  0  0  0  0  0  0  0
   62.6058   31.5495   53.0690 H   0  0  0  0  0  0  0  0  0  0  0  0
   61.8818   30.0517   52.6898 H   0  0  0  0  0  0  0  0  0  0  0  0
   60.5862   29.4140   51.6214 H   0  0  0  0  0  0  0  0  0  0  0  0
   62.2098   28.6455   51.6214 H   0  0  0  0  0  0  0  0  0  0  0  0
   60.1727   28.7903   49.8819 H   0  0  0  0  0  0  0  0  0  0  0  0
   59.4345   27.8933   45.6058 H   0  0  0  0  0  0  0  0  0  0  0  0
   58.8078   26.6150   46.7381 H   0  0  0  0  0  0  0  0  0  0  0  0
   57.1076   26.9196   45.1262 H   0  0  0  0  0  0  0  0  0  0  0  0
   56.6051   27.8588   46.6487 H   0  0  0  0  0  0  0  0  0  0  0  0
   55.1190   28.5340   45.2450 H   0  0  0  0  0  0  0  0  0  0  0  0
   58.4864   28.7606   43.4952 H   0  0  0  0  0  0  0  0  0  0  0  0
   56.9116   27.9150   43.1750 H   0  0  0  0  0  0  0  0  0  0  0  0
   57.5472   30.0202   41.7521 H   0  0  0  0  0  0  0  0  0  0  0  0
   55.8663   29.8398   42.4218 H   0  0  0  0  0  0  0  0  0  0  0  0
   57.4001   32.1070   42.6449 H   0  0  0  0  0  0  0  0  0  0  0  0
   56.0562   31.6152   43.7711 H   0  0  0  0  0  0  0  0  0  0  0  0
   59.0480   31.2124   44.1574 H   0  0  0  0  0  0  0  0  0  0  0  0
   57.9005   32.2687   45.1071 H   0  0  0  0  0  0  0  0  0  0  0  0
   58.7207   29.7877   45.9101 H   0  0  0  0  0  0  0  0  0  0  0  0
   57.1282   30.5873   46.3518 H   0  0  0  0  0  0  0  0  0  0  0  0
   60.2236   29.8625   45.7131 H   0  0  0  0  0  0  0  0  0  0  0  0
   62.1473   31.3725   46.1089 H   0  0  0  0  0  0  0  0  0  0  0  0
  1  2  1  0
  2  3  1  0
  3  4  1  0
  4  5  1  0
  3  6  1  0
  6  7  1  0
  7  8  1  0
  8  9  1  0
  9 10  2  0
 10 11  1  0
 11 12  2  0
 12 13  1  0
 13 14  2  0
 14 15  1  0
 15 16  2  0
 16 17  1  0
 16 18  1  0
 18 19  2  0
 19 20  1  0
 20 21  1  0
 21 22  1  0
 22 23  1  0
 23 24  1  0
 24 25  1  0
 24 26  1  0
 26 27  1  0
 27 28  1  0
 28 29  1  0
 29 30  1  0
 20 31  2  0
 31 32  1  0
 32 33  2  0
 33  9  1  0
 15 10  1  0
 33 18  1  0
 30 24  1  0
  1 34  1  0
  1 35  1  0
  1 36  1  0
  2 37  1  0
  2 38  1  0
  4 39  1  0
  4 40  1  0
  5 41  1  0
  5 42  1  0
  5 43  1  0
  6 44  1  0
  6 45  1  0
  7 46  1  0
  7 47  1  0
  8 48  1  0
  8 49  1  0
 11 50  1  0
 12 51  1  0
 13 52  1  0
 14 53  1  0
 17 54  1  0
 17 55  1  0
 17 56  1  0
 19 57  1  0
 22 58  1  0
 22 59  1  0
 23 60  1  0
 23 61  1  0
 25 62  1  0
 26 63  1  0
 26 64  1  0
 27 65  1  0
 27 66  1  0
 28 67  1  0
 28 68  1  0
 29 69  1  0
 29 70  1  0
 30 71  1  0
 30 72  1  0
 31 73  1  0
 32 74  1  0
M  CHG  3   8   1  16   1  24   1
M  END
>  <UniqueID>  (2) 
2

>  <SMILES>  (2) 
CCN(CC)CC[NH2+]c1c2ccccc2[n+](C)c2cc(OCC[N+]3(O)CCCCC3)ccc12

>  <Energy>  (2) 
124.90225131089797

>  <Genealogy>  (2) 
CCN(CC)CC[NH2+]c1c2ccccc2[n+](C)c2cc(OCC[N+]3(O)CCCCC3)ccc12 (protonated)
CCN(CC)CC[NH2+]c1c2ccccc2[n+](C)c2cc(OCC[N+]3(O)CCCCC3)ccc12 (3D coordinates assigned)
CCN(CC)CC[NH2+]c1c2ccccc2[n+](C)c2cc(OCC[N+]3(O)CCCCC3)ccc12 (nonaromatic ring conformer: 124.90225131089797 kcal/mol)

>  <smiles>  (2) 
CCN(CC)CCNc1c2ccccc2[n+](C)c2cc(OCC[N+]3([O-])CCCCC3)ccc12

>  <score_type>  (2) 
oracle

>  <origin>  (2) 
adg

>  <m_score__min__energy>  (2) 
-4.7400000000000002

>  <m_primary>  (2) 
energy

$$$$
2:0
     RDKit          3D

 53 56  0  0  0  0  0  0  0  0999 V2000
   66.1960   31.4250   50.8570 C   0  0  0  0  0  0  0  0  0  0  0  0
   66.3490   32.7500   50.1170 C   0  0  0  0  0  0  0  0  0  0  0  0
   65.1440   33.5680   50.2630 N   0  0  0  0  0  0  0  0  0  0  0  0
   63.9980   33.5080   49.3880 C   0  0  0  0  0  0  0  0  0  0  0  0
   64.0900   32.9960   48.0780 C   0  0  0  0  0  0  0  0  0  0  0  0
   62.9630   32.9420   47.2560 C   0  0  0  0  0  0  0  0  0  0  0  0
   61.7200   33.3840   47.7280 C   0  0  0  0  0  0  0  0  0  0  0  0
   60.5300   33.3410   46.8470 C   0  0  0  0  0  0  0  0  0  0  0  0
   60.0290   34.5540   46.3470 C   0  0  0  0  0  0  0  0  0  0  0  0
   58.8880   34.5770   45.5460 C   0  0  0  0  0  0  0  0  0  0  0  0
   58.2290   33.3910   45.2260 C   0  0  0  0  0  0  0  0  0  0  0  0
   58.7140   32.1620   45.6980 C   0  0  0  0  0  0  0  0  0  0  0  0
   58.0740   31.0030   45.3650 N   0  0  0  0  0  0  0  0  0  0  0  0
   58.5250   29.7850   45.7830 C   0  0  0  0  0  0  0  0  0  0  0  0
   57.8260   28.5860   45.4040 N   0  0  0  0  0  0  0  0  0  0  0  0
   57.3560   27.6560   46.4380 C   0  0  0  0  0  0  0  0  0  0  0  0
   56.6400   26.4500   45.8110 C   0  0  0  0  0  0  0  0  0  0  0  0
   57.4230   25.8140   44.7240 N   0  0  0  0  0  0  0  0  0  0  0  0
   58.3210   24.7720   45.2480 C   0  0  0  0  0  0  0  0  0  0  0  0
   58.1550   26.7560   43.8350 C   0  0  0  0  0  0  0  0  0  0  0  0
   57.6990   28.2080   43.9950 C   0  0  0  0  0  0  0  0  0  0  0  0
   59.6840   29.7070   46.5640 C   0  0  0  0  0  0  0  0  0  0  0  0
   60.3570   30.8720   46.9230 C   0  0  0  0  0  0  0  0  0  0  0  0
   59.8770   32.1280   46.5080 C   0  0  0  0  0  0  0  0  0  0  0  0
   61.6230   33.9040   49.0270 C   0  0  0  0  0  0  0  0  0  0  0  0
   62.7490   33.9590   49.8530 C   0  0  0  0  0  0  0  0  0  0  0  0
   62.6210   34.4650   51.1050 F   0  0  0  0  0  0  0  0  0  0  0  0
   66.2169   31.6063   51.9418 H   0  0  0  0  0  0  0  0  0  0  0  0
   65.2381   30.9596   50.5814 H   0  0  0  0  0  0  0  0  0  0  0  0
   67.0226   30.7536   50.5814 H   0  0  0  0  0  0  0  0  0  0  0  0
   67.2089   33.2972   50.5308 H   0  0  0  0  0  0  0  0  0  0  0  0
   66.5067   32.5414   49.0485 H   0  0  0  0  0  0  0  0  0  0  0  0
   65.1230   34.2320   51.0710 H   0  0  0  0  0  0  0  0  0  0  0  0
   65.0582   32.6359   47.7001 H   0  0  0  0  0  0  0  0  0  0  0  0
   63.0513   32.5502   46.2319 H   0  0  0  0  0  0  0  0  0  0  0  0
   60.5423   35.4961   46.5899 H   0  0  0  0  0  0  0  0  0  0  0  0
   58.5060   35.5355   45.1648 H   0  0  0  0  0  0  0  0  0  0  0  0
   57.3246   33.4188   44.6005 H   0  0  0  0  0  0  0  0  0  0  0  0
   57.2280   31.0420   44.7510 H   0  0  0  0  0  0  0  0  0  0  0  0
   58.2187   27.2993   47.0198 H   0  0  0  0  0  0  0  0  0  0  0  0
   56.6446   28.1861   47.0883 H   0  0  0  0  0  0  0  0  0  0  0  0
   56.4590   25.7020   46.5969 H   0  0  0  0  0  0  0  0  0  0  0  0
   55.7013   26.8166   45.3701 H   0  0  0  0  0  0  0  0  0  0  0  0
   58.3037   24.7921   46.3477 H   0  0  0  0  0  0  0  0  0  0  0  0
   57.9848   23.7863   44.8940 H   0  0  0  0  0  0  0  0  0  0  0  0
   59.3455   24.9589   44.8940 H   0  0  0  0  0  0  0  0  0  0  0  0
   59.2279   26.6978   44.0706 H   0  0  0  0  0  0  0  0  0  0  0  0
   57.9450   26.4583   42.7971 H   0  0  0  0  0  0  0  0  0  0  0  0
   58.3294   28.8644   43.3771 H   0  0  0  0  0  0  0  0  0  0  0  0
   56.6526   28.3106   43.6717 H   0  0  0  0  0  0  0  0  0  0  0  0
   60.0622   28.7280   46.8933 H   0  0  0  0  0  0  0  0  0  0  0  0
   61.2692   30.8101   47.5346 H   0  0  0  0  0  0  0  0  0  0  0  0
   60.6546   34.2708   49.3980 H   0  0  0  0  0  0  0  0  0  0  0  0
  1  2  1  0
  2  3  1  0
  3  4  1  0
  4  5  2  0
  5  6  1  0
  6  7  2  0
  7  8  1  0
  8  9  2  0
  9 10  1  0
 10 11  2  0
 11 12  1  0
 12 13  2  0
 13 14  1  0
 14 15  1  0
 15 16  1  0
 16 17  1  0
 17 18  1  0
 18 19  1  0
 18 20  1  0
 20 21  1  0
 14 22  2  0
 22 23  1  0
 23 24  2  0
  7 25  1  0
 25 26  2  0
 26 27  1  0
 26  4  1  0
 24  8  1  0
 24 12  1  0
 21 15  1  0
  1 28  1  0
  1 29  1  0
  1 30  1  0
  2 31  1  0
  2 32  1  0
  3 33  1  0
  5 34  1  0
  6 35  1  0
  9 36  1  0
 10 37  1  0
 11 38  1  0
 13 39  1  0
 16 40  1  0
 16 41  1  0
 17 42  1  0
 17 43  1  0
 19 44  1  0
 19 45  1  0
 19 46  1  0
 20 47  1  0
 20 48  1  0
 21 49  1  0
 21 50  1  0
 22 51  1  0
 23 52  1  0
 25 53  1  0
M  CHG  1  13   1
M  END
>  <UniqueID>  (3) 
3

>  <SMILES>  (3) 
CCNc1ccc(-c2cccc3[nH+]c(N4CCN(C)CC4)ccc23)cc1F

>  <Energy>  (3) 
76.87509517516725

>  <Genealogy>  (3) 
CCNc1ccc(-c2cccc3[nH+]c(N4CCN(C)CC4)ccc23)cc1F (protonated)
CCNc1ccc(-c2cccc3[nH+]c(N4CCN(C)CC4)ccc23)cc1F (3D coordinates assigned)
CCNc1ccc(-c2cccc3[nH+]c(N4CCN(C)CC4)ccc23)cc1F (nonaromatic ring conformer: 76.87509517516725 kcal/mol)

>  <smiles>  (3) 
CCNc1ccc(-c2cccc3nc(N4CCN(C)CC4)ccc23)cc1F

>  <score_type>  (3) 
oracle

>  <origin>  (3) 
adg

>  <m_score__min__energy>  (3) 
-6.7699999999999996

>  <m_primary>  (3) 
energy

$$$$
3:0
     RDKit          3D

 34 36  0  0  0  0  0  0  0  0999 V2000
   60.0553   25.9078   45.8613 H   0  0  0  0  0  0  0  0  0  0  0  0
   59.2830   26.6490   45.6080 C   0  0  0  0  0  0  0  0  0  0  0  0
   59.6350   27.8260   44.9440 C   0  0  0  0  0  0  0  0  0  0  0  0
   60.6854   28.0115   44.6754 H   0  0  0  0  0  0  0  0  0  0  0  0
   58.6550   28.7690   44.6200 C   0  0  0  0  0  0  0  0  0  0  0  0
   58.9395   29.6968   44.1022 H   0  0  0  0  0  0  0  0  0  0  0  0
   57.3070   28.5390   44.9520 C   0  0  0  0  0  0  0  0  0  0  0  0
   56.2740   29.5490   44.6130 C   0  0  0  0  0  0  0  0  0  0  0  0
   55.0730   29.1890   44.4930 O   0  0  0  0  0  0  0  0  0  0  0  0
   56.5850   30.9440   44.5000 N   0  0  0  0  0  0  0  0  0  0  0  0
   57.4000   31.6090   45.2650 C   0  0  0  0  0  0  0  0  0  0  0  0
   57.7940   32.8690   44.9640 N   0  0  0  0  0  0  0  0  0  0  0  0
   58.6700   33.3350   45.8920 C   0  0  0  0  0  0  0  0  0  0  0  0
   59.2500   34.6020   45.8580 C   0  0  0  0  0  0  0  0  0  0  0  0
   59.0115   35.3056   45.0468 H   0  0  0  0  0  0  0  0  0  0  0  0
   60.1450   34.9640   46.8790 C   0  0  0  0  0  0  0  0  0  0  0  0
   60.6101   35.9607   46.8639 H   0  0  0  0  0  0  0  0  0  0  0  0
   60.4560   34.0670   47.9240 C   0  0  0  0  0  0  0  0  0  0  0  0
   61.3590   34.4940   48.9110 O   0  0  0  0  0  0  0  0  0  0  0  0
   62.7460   34.1600   48.9670 C   0  0  0  0  0  0  0  0  0  0  0  0
   62.9152   33.4597   49.7983 H   0  0  0  0  0  0  0  0  0  0  0  0
   63.3253   35.0825   49.1201 H   0  0  0  0  0  0  0  0  0  0  0  0
   63.1980   33.5090   47.6650 C   0  0  0  0  0  0  0  0  0  0  0  0
   63.8120   32.6247   47.8910 H   0  0  0  0  0  0  0  0  0  0  0  0
   62.3164   33.2040   47.0822 H   0  0  0  0  0  0  0  0  0  0  0  0
   63.7919   34.2285   47.0822 H   0  0  0  0  0  0  0  0  0  0  0  0
   59.8610   32.7840   47.9380 C   0  0  0  0  0  0  0  0  0  0  0  0
   60.0909   32.0651   48.7382 H   0  0  0  0  0  0  0  0  0  0  0  0
   58.9770   32.4530   46.9140 C   0  0  0  0  0  0  0  0  0  0  0  0
   58.1390   31.0190   46.6800 S   0  0  0  0  0  0  0  0  0  0  0  0
   56.9630   27.3520   45.6300 C   0  0  0  0  0  0  0  0  0  0  0  0
   55.6730   27.0890   45.9610 F   0  0  0  0  0  0  0  0  0  0  0  0
   57.9500   26.4140   45.9500 C   0  0  0  0  0  0  0  0  0  0  0  0
   57.6746   25.4867   46.4737 H   0  0  0  0  0  0  0  0  0  0  0  0
  1  2  1  0
  2  3  2  0
  3  4  1  0
  3  5  1  0
  5  6  1  0
  5  7  2  0
  7  8  1  0
  8  9  2  0
  8 10  1  0
 10 11  2  0
 11 12  1  0
 12 13  1  0
 13 14  2  0
 14 15  1  0
 14 16  1  0
 16 17  1  0
 16 18  2  0
 18 19  1  0
 19 20  1  0
 20 21  1  0
 20 22  1  0
 20 23  1  0
 23 24  1  0
 23 25  1  0
 23 26  1  0
 18 27  1  0
 27 28  1  0
 27 29  2  0
 29 30  1  0
  7 31  1  0
 31 32  1  0
 31 33  2  0
 33 34  1  0
 33  2  1  0
 30 11  1  0
 29 13  1  0
M  CHG  1  12  -1
M  END
>  <UniqueID>  (4) 
4

>  <SMILES>  (4) 
CCOc1ccc2[n-]/c(=N/C(=O)c3ccccc3F)sc2c1

>  <Energy>  (4) 
78.46557282199181

>  <Genealogy>  (4) 
CCOc1ccc2[n-]c(=NC(=O)c3ccccc3F)sc2c1 (protonated)
CCOc1ccc2[n-]/c(=N/C(=O)c3ccccc3F)sc2c1 (cis-trans isomerization)
CCOc1ccc2[n-]/c(=N/C(=O)c3ccccc3F)sc2c1 (3D coordinates assigned)
CCOc1ccc2[n-]/c(=N/C(=O)c3ccccc3F)sc2c1 (optimized conformer: 78.46557282199181 kcal/mol)

>  <smiles>  (4) 
CCOc1ccc2[nH]c(=NC(=O)c3ccccc3F)sc2c1

>  <score_type>  (4) 
oracle

>  <origin>  (4) 
adg

>  <m_score__min__energy>  (4) 
-8.9800000000000004

>  <m_primary>  (4) 
energy

$$$$
4:0
     RDKit          3D

 59 63  0  0  0  0  0  0  0  0999 V2000
   62.6180   33.4250   50.5470 C   0  0  0  0  0  0  0  0  0  0  0  0
   61.2410   33.2990   50.0650 N   0  0  0  0  0  0  0  0  0  0  0  0
   60.1560   32.9360   50.7990 C   0  0  0  0  0  0  0  0  0  0  0  0
   60.0960   32.5680   52.1470 C   0  0  0  0  0  0  0  0  0  0  0  0
   58.9240   32.0620   52.6310 N   0  0  0  0  0  0  0  0  0  0  0  0
   57.8070   31.9150   51.8490 C   0  0  0  0  0  0  0  0  0  0  0  0
   56.5980   31.2240   52.4040 C   0  0  0  0  0  0  0  0  0  0  0  0
   56.8090   30.8530   53.8150 N   0  0  0  0  0  0  0  0  0  0  0  0
   56.1090   29.6150   54.2100 C   0  0  0  0  0  0  0  0  0  0  0  0
   56.9160   28.3630   53.8350 C   0  0  0  0  0  0  0  0  0  0  0  0
   58.3790   28.4420   54.3200 C   0  0  0  0  0  0  0  0  0  0  0  0
   59.2500   29.1640   53.3760 N   0  0  0  0  0  0  0  0  0  0  0  0
   59.6550   28.3180   52.2440 C   0  0  0  0  0  0  0  0  0  0  0  0
   60.6630   29.0300   51.3730 C   0  0  0  0  0  0  0  0  0  0  0  0
   61.8450   29.4970   51.9650 C   0  0  0  0  0  0  0  0  0  0  0  0
   62.7590   30.2350   51.2160 C   0  0  0  0  0  0  0  0  0  0  0  0
   62.5100   30.5150   49.9120 N   0  0  0  0  0  0  0  0  0  0  0  0
   61.3840   30.0690   49.2860 C   0  0  0  0  0  0  0  0  0  0  0  0
   61.1590   30.3800   47.9370 C   0  0  0  0  0  0  0  0  0  0  0  0
   60.0080   29.9300   47.2900 C   0  0  0  0  0  0  0  0  0  0  0  0
   59.0710   29.1630   47.9830 C   0  0  0  0  0  0  0  0  0  0  0  0
   59.2750   28.8480   49.3260 C   0  0  0  0  0  0  0  0  0  0  0  0
   60.4300   29.2990   50.0020 C   0  0  0  0  0  0  0  0  0  0  0  0
   57.8340   32.3210   50.4990 C   0  0  0  0  0  0  0  0  0  0  0  0
   59.0330   32.8300   50.0110 C   0  0  0  0  0  0  0  0  0  0  0  0
   59.4300   33.1190   48.7290 C   0  0  0  0  0  0  0  0  0  0  0  0
   58.7200   33.0580   47.5320 C   0  0  0  0  0  0  0  0  0  0  0  0
   59.4230   33.2950   46.3420 C   0  0  0  0  0  0  0  0  0  0  0  0
   60.8070   33.5530   46.3680 C   0  0  0  0  0  0  0  0  0  0  0  0
   61.5170   33.5910   47.5850 C   0  0  0  0  0  0  0  0  0  0  0  0
   63.4120   33.8650   47.4850 Br  0  0  0  0  0  0  0  0  0  0  0  0
   60.7910   33.3830   48.7800 C   0  0  0  0  0  0  0  0  0  0  0  0
   62.6228   33.4254   51.6470 H   0  0  0  0  0  0  0  0  0  0  0  0
   63.2146   32.5777   50.1780 H   0  0  0  0  0  0  0  0  0  0  0  0
   63.0509   34.3665   50.1780 H   0  0  0  0  0  0  0  0  0  0  0  0
   60.9724   32.6835   52.8017 H   0  0  0  0  0  0  0  0  0  0  0  0
   55.7327   31.8995   52.3342 H   0  0  0  0  0  0  0  0  0  0  0  0
   56.4168   30.3084   51.8219 H   0  0  0  0  0  0  0  0  0  0  0  0
   57.8360   30.6910   53.9400 H   0  0  0  0  0  0  0  0  0  0  0  0
   55.9525   29.6256   55.2988 H   0  0  0  0  0  0  0  0  0  0  0  0
   55.1488   29.5777   53.6746 H   0  0  0  0  0  0  0  0  0  0  0  0
   56.4385   27.4841   54.2929 H   0  0  0  0  0  0  0  0  0  0  0  0
   56.9289   28.2872   52.7377 H   0  0  0  0  0  0  0  0  0  0  0  0
   58.4015   28.9624   55.2889 H   0  0  0  0  0  0  0  0  0  0  0  0
   58.7586   27.4130   54.4037 H   0  0  0  0  0  0  0  0  0  0  0  0
   58.7450   30.0070   53.0090 H   0  0  0  0  0  0  0  0  0  0  0  0
   60.1036   27.3906   52.6297 H   0  0  0  0  0  0  0  0  0  0  0  0
   58.7651   28.0912   51.6385 H   0  0  0  0  0  0  0  0  0  0  0  0
   62.0513   29.2802   53.0235 H   0  0  0  0  0  0  0  0  0  0  0  0
   63.6877   30.5927   51.6845 H   0  0  0  0  0  0  0  0  0  0  0  0
   63.2070   31.0930   49.3910 H   0  0  0  0  0  0  0  0  0  0  0  0
   61.8953   30.9830   47.3854 H   0  0  0  0  0  0  0  0  0  0  0  0
   59.8389   30.1802   46.2322 H   0  0  0  0  0  0  0  0  0  0  0  0
   58.1674   28.8052   47.4677 H   0  0  0  0  0  0  0  0  0  0  0  0
   58.5299   28.2430   49.8635 H   0  0  0  0  0  0  0  0  0  0  0  0
   56.9437   32.2386   49.8582 H   0  0  0  0  0  0  0  0  0  0  0  0
   57.6436   32.8314   47.5207 H   0  0  0  0  0  0  0  0  0  0  0  0
   58.8889   33.2792   45.3805 H   0  0  0  0  0  0  0  0  0  0  0  0
   61.3427   33.7277   45.4233 H   0  0  0  0  0  0  0  0  0  0  0  0
  1  2  1  0
  2  3  1  0
  3  4  2  0
  4  5  1  0
  5  6  2  0
  6  7  1  0
  7  8  1  0
  8  9  1  0
  9 10  1  0
 10 11  1  0
 11 12  1  0
 12 13  1  0
 13 14  1  0
 14 15  2  0
 15 16  1  0
 16 17  2  0
 17 18  1  0
 18 19  2  0
 19 20  1  0
 20 21  2  0
 21 22  1  0
 22 23  2  0
  6 24  1  0
 24 25  2  0
 25 26  1  0
 26 27  2  0
 27 28  1  0
 28 29  2  0
 29 30  1  0
 30 31  1  0
 30 32  2  0
 32  2  1  0
 25  3  1  0
 32 26  1  0
 23 14  1  0
 23 18  1  0
  1 33  1  0
  1 34  1  0
  1 35  1  0
  4 36  1  0
  7 37  1  0
  7 38  1  0
  8 39  1  0
  9 40  1  0
  9 41  1  0
 10 42  1  0
 10 43  1  0
 11 44  1  0
 11 45  1  0
 12 46  1  0
 13 47  1  0
 13 48  1  0
 15 49  1  0
 16 50  1  0
 17 51  1  0
 19 52  1  0
 20 53  1  0
 21 54  1  0
 22 55  1  0
 24 56  1  0
 27 57  1  0
 28 58  1  0
 29 59  1  0
M  CHG  1  17   1
M  END
>  <UniqueID>  (5) 
5

>  <SMILES>  (5) 
Cn1c2cnc(CNCCCNCc3cc[nH+]c4ccccc34)cc2c2cccc(Br)c21

>  <Energy>  (5) 
105.67267607846297

>  <Genealogy>  (5) 
Cn1c2cnc(CNCCCNCc3cc[nH+]c4ccccc34)cc2c2cccc(Br)c21 (protonated)
Cn1c2cnc(CNCCCNCc3cc[nH+]c4ccccc34)cc2c2cccc(Br)c21 (3D coordinates assigned)
Cn1c2cnc(CNCCCNCc3cc[nH+]c4ccccc34)cc2c2cccc(Br)c21 (optimized conformer: 105.67267607846297 kcal/mol)

>  <smiles>  (5) 
Cn1c2cnc(CNCCCNCc3ccnc4ccccc34)cc2c2cccc(Br)c21

>  <score_type>  (5) 
oracle

>  <origin>  (5) 
adg

>  <m_score__min__energy>  (5) 
-7.7199999999999998

>  <m_primary>  (5) 
energy

$$$$
5:0
     RDKit          3D

 52 54  0  0  0  0  0  0  0  0999 V2000
   58.3663   26.3772   44.0764 H   0  0  0  0  0  0  0  0  0  0  0  0
   57.5250   25.7590   44.4230 C   0  0  0  0  0  0  0  0  0  0  0  0
   57.2490   24.5440   43.7910 C   0  0  0  0  0  0  0  0  0  0  0  0
   57.8666   24.2162   42.9418 H   0  0  0  0  0  0  0  0  0  0  0  0
   56.1830   23.7360   44.2360 C   0  0  0  0  0  0  0  0  0  0  0  0
   55.8550   22.5090   43.6360 O   0  0  0  0  0  0  0  0  0  0  0  0
   56.6070   21.8660   42.6060 C   0  0  0  0  0  0  0  0  0  0  0  0
   56.9803   22.6252   41.9030 H   0  0  0  0  0  0  0  0  0  0  0  0
   55.9542   21.1520   42.0825 H   0  0  0  0  0  0  0  0  0  0  0  0
   57.7990   21.1020   43.2050 C   0  0  0  0  0  0  0  0  0  0  0  0
   58.6908   21.7444   43.1602 H   0  0  0  0  0  0  0  0  0  0  0  0
   57.9404   20.1817   42.6193 H   0  0  0  0  0  0  0  0  0  0  0  0
   57.5610   20.7150   44.6100 N   0  0  0  0  0  0  0  0  0  0  0  0
   57.7490   19.6910   44.7160 H   0  0  0  0  0  0  0  0  0  0  0  0
   56.5520   20.8620   44.8480 H   0  0  0  0  0  0  0  0  0  0  0  0
   58.3920   21.4720   45.5680 C   0  0  0  0  0  0  0  0  0  0  0  0
   58.7880   20.7746   46.3209 H   0  0  0  0  0  0  0  0  0  0  0  0
   57.7566   22.2426   46.0289 H   0  0  0  0  0  0  0  0  0  0  0  0
   59.5670   22.1800   44.8860 C   0  0  0  0  0  0  0  0  0  0  0  0
   60.2437   22.5877   45.6514 H   0  0  0  0  0  0  0  0  0  0  0  0
   60.1140   21.4610   44.2584 H   0  0  0  0  0  0  0  0  0  0  0  0
   59.1870   22.9996   44.2584 H   0  0  0  0  0  0  0  0  0  0  0  0
   55.4210   24.1610   45.3300 C   0  0  0  0  0  0  0  0  0  0  0  0
   54.5950   23.5330   45.6952 H   0  0  0  0  0  0  0  0  0  0  0  0
   55.6990   25.3750   45.9630 C   0  0  0  0  0  0  0  0  0  0  0  0
   55.1007   25.6876   46.8315 H   0  0  0  0  0  0  0  0  0  0  0  0
   56.7330   26.1960   45.5000 C   0  0  0  0  0  0  0  0  0  0  0  0
   57.0060   27.4230   46.2000 N   0  0  0  0  0  0  0  0  0  0  0  0
   57.1020   28.6130   45.6830 C   0  0  0  0  0  0  0  0  0  0  0  0
   57.9660   29.5040   46.2320 N   0  0  0  0  0  0  0  0  0  0  0  0
   58.1000   30.7740   45.7580 C   0  0  0  0  0  0  0  0  0  0  0  0
   57.3030   31.1670   44.6610 C   0  0  0  0  0  0  0  0  0  0  0  0
   56.4090   30.2430   44.1120 C   0  0  0  0  0  0  0  0  0  0  0  0
   55.7763   30.5287   43.2587 H   0  0  0  0  0  0  0  0  0  0  0  0
   56.3230   28.9940   44.6330 N   0  0  0  0  0  0  0  0  0  0  0  0
   57.4140   32.4570   44.1520 C   0  0  0  0  0  0  0  0  0  0  0  0
   56.7953   32.7719   43.2988 H   0  0  0  0  0  0  0  0  0  0  0  0
   58.3120   33.3430   44.7300 C   0  0  0  0  0  0  0  0  0  0  0  0
   58.4078   34.3647   44.3338 H   0  0  0  0  0  0  0  0  0  0  0  0
   59.0950   32.9390   45.8150 C   0  0  0  0  0  0  0  0  0  0  0  0
   59.8970   33.7780   46.3100 O   0  0  0  0  0  0  0  0  0  0  0  0
   58.9930   31.6610   46.3310 N   0  0  0  0  0  0  0  0  0  0  0  0
   59.8450   31.2680   47.4900 C   0  0  0  0  0  0  0  0  0  0  0  0
   59.5952   30.2250   47.7343 H   0  0  0  0  0  0  0  0  0  0  0  0
   59.5310   32.1040   48.7410 C   0  0  0  0  0  0  0  0  0  0  0  0
   59.7529   31.5132   49.6420 H   0  0  0  0  0  0  0  0  0  0  0  0
   60.1485   33.0143   48.7382 H   0  0  0  0  0  0  0  0  0  0  0  0
   58.4669   32.3827   48.7382 H   0  0  0  0  0  0  0  0  0  0  0  0
   61.3400   31.2940   47.1370 C   0  0  0  0  0  0  0  0  0  0  0  0
   61.9351   31.3043   48.0621 H   0  0  0  0  0  0  0  0  0  0  0  0
   61.5933   30.4001   46.5481 H   0  0  0  0  0  0  0  0  0  0  0  0
   61.5621   32.1961   46.5481 H   0  0  0  0  0  0  0  0  0  0  0  0
  1  2  1  0
  2  3  2  0
  3  4  1  0
  3  5  1  0
  5  6  1  0
  6  7  1  0
  7  8  1  0
  7  9  1  0
  7 10  1  0
 10 11  1  0
 10 12  1  0
 10 13  1  0
 13 14  1  0
 13 15  1  0
 13 16  1  0
 16 17  1  0
 16 18  1  0
 16 19  1  0
 19 20  1  0
 19 21  1  0
 19 22  1  0
  5 23  2  0
 23 24  1  0
 23 25  1  0
 25 26  1  0
 25 27  2  0
 27 28  1  0
 28 29  2  0
 29 30  1  0
 30 31  2  0
 31 32  1  0
 32 33  2  0
 33 34  1  0
 33 35  1  0
 32 36  1  0
 36 37  1  0
 36 38  2  0
 38 39  1  0
 38 40  1  0
 40 41  2  0
 40 42  1  0
 42 43  1  0
 43 44  1  0
 43 45  1  0
 45 46  1  0
 45 47  1  0
 45 48  1  0
 43 49  1  0
 49 50  1  0
 49 51  1  0
 49 52  1  0
 27  2  1  0
 35 29  1  0
 42 31  1  0
M  CHG  2  13   1  35  -1
M  END
>  <UniqueID>  (6) 
6

>  <SMILES>  (6) 
CC[NH2+]CCOc1ccc(/N=c2/nc3c(ccc(=O)n3C(C)C)c[n-]2)cc1

>  <Energy>  (6) 
66.19836272305452

>  <Genealogy>  (6) 
CC[NH2+]CCOc1ccc(N=c2nc3c(ccc(=O)n3C(C)C)c[n-]2)cc1 (protonated)
CC[NH2+]CCOc1ccc(/N=c2/nc3c(ccc(=O)n3C(C)C)c[n-]2)cc1 (cis-trans isomerization)
CC[NH2+]CCOc1ccc(/N=c2/nc3c(ccc(=O)n3C(C)C)c[n-]2)cc1 (3D coordinates assigned)
CC[NH2+]CCOc1ccc(/N=c2/nc3c(ccc(=O)n3C(C)C)c[n-]2)cc1 (optimized conformer: 66.19836272305452 kcal/mol)

>  <smiles>  (6) 
CCNCCOc1ccc(N=c2nc3c(ccc(=O)n3C(C)C)c[nH]2)cc1

>  <score_type>  (6) 
oracle

>  <origin>  (6) 
adg

>  <m_score__min__energy>  (6) 
-8.0500000000000007

>  <m_primary>  (6) 
energy

$$$$
6:0
     RDKit          3D

 28 29  0  0  0  0  0  0  0  0999 V2000
   56.9120   26.6080   44.5590 H   0  0  0  0  0  0  0  0  0  0  0  0
   57.1250   27.4900   45.0770 N   0  0  0  0  0  0  0  0  0  0  0  0
   56.7880   28.6410   44.5960 C   0  0  0  0  0  0  0  0  0  0  0  0
   55.5860   29.2530   44.8670 O   0  0  0  0  0  0  0  0  0  0  0  0
   55.5190   30.4950   44.1760 C   0  0  0  0  0  0  0  0  0  0  0  0
   55.4003   31.3253   44.8877 H   0  0  0  0  0  0  0  0  0  0  0  0
   54.6593   30.5359   43.4909 H   0  0  0  0  0  0  0  0  0  0  0  0
   56.8720   30.6190   43.4150 C   0  0  1  0  0  0  0  0  0  0  0  0
   56.6878   30.7178   42.3350 H   0  0  0  0  0  0  0  0  0  0  0  0
   57.6770   31.8960   43.7510 C   0  0  0  0  0  0  0  0  0  0  0  0
   58.6858   31.5862   44.0614 H   0  0  0  0  0  0  0  0  0  0  0  0
   57.6560   32.5091   42.8379 H   0  0  0  0  0  0  0  0  0  0  0  0
   57.0930   32.7890   44.8660 C   0  0  0  0  0  0  0  0  0  0  0  0
   56.7146   33.7156   44.4096 H   0  0  0  0  0  0  0  0  0  0  0  0
   56.2946   32.2155   45.3596 H   0  0  0  0  0  0  0  0  0  0  0  0
   58.1030   33.1540   45.9250 C   0  0  0  0  0  0  0  0  0  0  0  0
   59.0080   34.2070   45.7150 C   0  0  0  0  0  0  0  0  0  0  0  0
   58.9725   34.7809   44.7772 H   0  0  0  0  0  0  0  0  0  0  0  0
   59.9540   34.5290   46.6930 C   0  0  0  0  0  0  0  0  0  0  0  0
   60.6657   35.3496   46.5194 H   0  0  0  0  0  0  0  0  0  0  0  0
   59.9970   33.8100   47.8910 C   0  0  0  0  0  0  0  0  0  0  0  0
   61.1860   34.2140   49.1160 Cl  0  0  0  0  0  0  0  0  0  0  0  0
   59.0900   32.7680   48.1130 C   0  0  0  0  0  0  0  0  0  0  0  0
   59.1212   32.2040   49.0569 H   0  0  0  0  0  0  0  0  0  0  0  0
   58.1440   32.4430   47.1360 C   0  0  0  0  0  0  0  0  0  0  0  0
   57.4287   31.6270   47.3164 H   0  0  0  0  0  0  0  0  0  0  0  0
   57.6110   29.4080   43.7450 N   0  0  0  0  0  0  0  0  0  0  0  0
   58.5410   29.1250   43.3640 H   0  0  0  0  0  0  0  0  0  0  0  0
  1  2  1  0
  2  3  2  0
  3  4  1  0
  4  5  1  0
  5  6  1  0
  5  7  1  0
  5  8  1  0
  8  9  1  6
  8 10  1  0
 10 11  1  0
 10 12  1  0
 10 13  1  0
 13 14  1  0
 13 15  1  0
 13 16  1  0
 16 17  2  0
 17 18  1  0
 17 19  1  0
 19 20  1  0
 19 21  2  0
 21 22  1  0
 21 23  1  0
 23 24  1  0
 23 25  2  0
 25 26  1  0
  8 27  1  0
 27 28  1  0
 27  3  1  0
 25 16  1  0
M  END
>  <UniqueID>  (7) 
7

>  <SMILES>  (7) 
[H]/N=C1\N[C@H](CCc2ccc(Cl)cc2)CO1

>  <Energy>  (7) 
39.379921764346285

>  <Genealogy>  (7) 
N=C1N[C@H](CCc2ccc(Cl)cc2)CO1 (chirality)
[H]/N=C1\N[C@H](CCc2ccc(Cl)cc2)CO1 (cis-trans isomerization)
[H]/N=C1\N[C@H](CCc2ccc(Cl)cc2)CO1 (3D coordinates assigned)
[H]/N=C1\N[C@H](CCc2ccc(Cl)cc2)CO1 (nonaromatic ring conformer: 39.379921764346285 kcal/mol)

>  <smiles>  (7) 
N=C1NC(CCc2ccc(Cl)cc2)CO1

>  <score_type>  (7) 
oracle

>  <origin>  (7) 
adg

>  <m_score__min__energy>  (7) 
-6.4699999999999998

>  <m_primary>  (7) 
energy

$$$$
7:0
     RDKit          3D

 55 59  0  0  0  0  0  0  0  0999 V2000
   59.6460   35.0640   46.0420 C   0  0  0  0  0  0  0  0  0  0  0  0
   59.1930   33.7580   46.4960 N   0  0  0  0  0  0  0  0  0  0  0  0
   59.8520   32.9220   47.3190 C   0  0  0  0  0  0  0  0  0  0  0  0
   59.0160   31.8440   47.5240 C   0  0  0  0  0  0  0  0  0  0  0  0
   59.3040   30.6170   48.2930 C   0  0  0  0  0  0  0  0  0  0  0  0
   59.1310   30.4670   49.6660 C   0  0  0  0  0  0  0  0  0  0  0  0
   58.5250   31.4130   50.6310 C   0  0  0  0  0  0  0  0  0  0  0  0
   57.3300   31.0870   51.2970 C   0  0  0  0  0  0  0  0  0  0  0  0
   56.7620   31.9850   52.2070 C   0  0  0  0  0  0  0  0  0  0  0  0
   57.3830   33.2090   52.4640 C   0  0  0  0  0  0  0  0  0  0  0  0
   58.5750   33.5380   51.8140 C   0  0  0  0  0  0  0  0  0  0  0  0
   59.1460   32.6440   50.9020 C   0  0  0  0  0  0  0  0  0  0  0  0
   59.6260   29.2040   49.9310 C   0  0  0  0  0  0  0  0  0  0  0  0
   59.6370   28.6410   51.0590 O   0  0  0  0  0  0  0  0  0  0  0  0
   60.0830   28.6400   48.7970 N   0  0  0  0  0  0  0  0  0  0  0  0
   59.8730   29.4880   47.7950 N   0  0  0  0  0  0  0  0  0  0  0  0
   60.3900   29.2790   46.4400 C   0  0  0  0  0  0  0  0  0  0  0  0
   59.7020   28.1360   45.8080 N   0  0  0  0  0  0  0  0  0  0  0  0
   58.2260   28.2480   45.8390 C   0  0  0  0  0  0  0  0  0  0  0  0
   57.6760   29.2710   44.8700 C   0  0  0  0  0  0  0  0  0  0  0  0
   56.3220   29.2370   44.4930 C   0  0  0  0  0  0  0  0  0  0  0  0
   55.8160   30.1750   43.5880 C   0  0  0  0  0  0  0  0  0  0  0  0
   56.6550   31.1610   43.0600 C   0  0  0  0  0  0  0  0  0  0  0  0
   57.9990   31.2110   43.4390 C   0  0  0  0  0  0  0  0  0  0  0  0
   58.5070   30.2750   44.3440 C   0  0  0  0  0  0  0  0  0  0  0  0
   60.2250   26.7930   46.1680 C   0  0  0  0  0  0  0  0  0  0  0  0
   59.9690   26.3930   47.6360 C   0  0  0  0  0  0  0  0  0  0  0  0
   60.6660   27.2930   48.6810 C   0  0  0  0  0  0  0  0  0  0  0  0
   57.8910   32.0620   46.8160 N   0  0  0  0  0  0  0  0  0  0  0  0
   58.0110   33.2330   46.2110 N   0  0  0  0  0  0  0  0  0  0  0  0
   59.8662   35.6989   46.9129 H   0  0  0  0  0  0  0  0  0  0  0  0
   60.5557   34.9459   45.4349 H   0  0  0  0  0  0  0  0  0  0  0  0
   58.8586   35.5346   45.4349 H   0  0  0  0  0  0  0  0  0  0  0  0
   60.8562   33.0688   47.7433 H   0  0  0  0  0  0  0  0  0  0  0  0
   56.8399   30.1218   51.1016 H   0  0  0  0  0  0  0  0  0  0  0  0
   55.8245   31.7264   52.7210 H   0  0  0  0  0  0  0  0  0  0  0  0
   56.9335   33.9143   53.1785 H   0  0  0  0  0  0  0  0  0  0  0  0
   59.0651   34.5011   52.0195 H   0  0  0  0  0  0  0  0  0  0  0  0
   60.0860   32.9061   50.3944 H   0  0  0  0  0  0  0  0  0  0  0  0
   60.2174   30.1849   45.8404 H   0  0  0  0  0  0  0  0  0  0  0  0
   61.4680   29.0670   46.4935 H   0  0  0  0  0  0  0  0  0  0  0  0
   57.7974   27.2663   45.5888 H   0  0  0  0  0  0  0  0  0  0  0  0
   57.9488   28.5799   46.8504 H   0  0  0  0  0  0  0  0  0  0  0  0
   55.6568   28.4679   44.9125 H   0  0  0  0  0  0  0  0  0  0  0  0
   54.7574   30.1372   43.2913 H   0  0  0  0  0  0  0  0  0  0  0  0
   56.2570   31.8973   42.3463 H   0  0  0  0  0  0  0  0  0  0  0  0
   58.6580   31.9881   43.0245 H   0  0  0  0  0  0  0  0  0  0  0  0
   59.5635   30.3244   44.6464 H   0  0  0  0  0  0  0  0  0  0  0  0
   59.7431   26.0483   45.5174 H   0  0  0  0  0  0  0  0  0  0  0  0
   61.3161   26.8297   46.0337 H   0  0  0  0  0  0  0  0  0  0  0  0
   58.8849   26.4328   47.8180 H   0  0  0  0  0  0  0  0  0  0  0  0
   60.3920   25.3854   47.7619 H   0  0  0  0  0  0  0  0  0  0  0  0
   60.5968   26.8007   49.6623 H   0  0  0  0  0  0  0  0  0  0  0  0
   61.7050   27.4244   48.3446 H   0  0  0  0  0  0  0  0  0  0  0  0
   57.0560   31.4380   46.7450 H   0  0  0  0  0  0  0  0  0  0  0  0
  1  2  1  0
  2  3  1  0
  3  4  2  0
  4  5  1  0
  5  6  2  0
  6  7  1  0
  7  8  2  0
  8  9  1  0
  9 10  2  0
 10 11  1  0
 11 12  2  0
  6 13  1  0
 13 14  2  0
 13 15  1  0
 15 16  1  0
 16 17  1  0
 17 18  1  0
 18 19  1  0
 19 20  1  0
 20 21  2  0
 21 22  1  0
 22 23  2  0
 23 24  1  0
 24 25  2  0
 18 26  1  0
 26 27  1  0
 27 28  1  0
  4 29  1  0
 29 30  2  0
 30  2  1  0
 16  5  1  0
 25 20  1  0
 12  7  1  0
 28 15  1  0
  1 31  1  0
  1 32  1  0
  1 33  1  0
  3 34  1  0
  8 35  1  0
  9 36  1  0
 10 37  1  0
 11 38  1  0
 12 39  1  0
 17 40  1  0
 17 41  1  0
 19 42  1  0
 19 43  1  0
 21 44  1  0
 22 45  1  0
 23 46  1  0
 24 47  1  0
 25 48  1  0
 26 49  1  0
 26 50  1  0
 27 51  1  0
 27 52  1  0
 28 53  1  0
 28 54  1  0
 29 55  1  0
M  CHG  1  29   1
M  END
>  <UniqueID>  (8) 
8

>  <SMILES>  (8) 
Cn1cc(-c2c(-c3ccccc3)c(=O)n3n2CN(Cc2ccccc2)CCC3)[nH+]n1

>  <Energy>  (8) 
151.9953646249927

>  <Genealogy>  (8) 
Cn1cc(-c2c(-c3ccccc3)c(=O)n3n2CN(Cc2ccccc2)CCC3)[nH+]n1 (protonated)
Cn1cc(-c2c(-c3ccccc3)c(=O)n3n2CN(Cc2ccccc2)CCC3)[nH+]n1 (3D coordinates assigned)
Cn1cc(-c2c(-c3ccccc3)c(=O)n3n2CN(Cc2ccccc2)CCC3)[nH+]n1 (nonaromatic ring conformer: 151.9953646249927 kcal/mol)

>  <smiles>  (8) 
Cn1cc(-c2c(-c3ccccc3)c(=O)n3n2CN(Cc2ccccc2)CCC3)nn1

>  <score_type>  (8) 
oracle

>  <origin>  (8) 
adg

>  <m_score__min__energy>  (8) 
-5.7599999999999998

>  <m_primary>  (8) 
energy

$$$$
8:0
     RDKit          3D

 41 42  0  0  0  0  0  0  0  0999 V2000
   56.5470   29.9780   44.1220 C   0  0  0  0  0  0  0  0  0  0  0  0
   56.6230   31.2090   44.8060 O   0  0  0  0  0  0  0  0  0  0  0  0
   57.4040   32.1370   44.0760 C   0  0  0  0  0  0  0  0  0  0  0  0
   57.4990   33.4570   44.8390 C   0  0  0  0  0  0  0  0  0  0  0  0
   58.5090   33.3440   45.9170 N   0  0  0  0  0  0  0  0  0  0  0  0
   59.2580   34.5960   46.1540 C   0  0  0  0  0  0  0  0  0  0  0  0
   60.4850   34.3110   46.9770 C   0  0  0  0  0  0  0  0  0  0  0  0
   60.4570   34.5020   48.3670 C   0  0  0  0  0  0  0  0  0  0  0  0
   61.5920   34.2030   49.1250 C   0  0  0  0  0  0  0  0  0  0  0  0
   62.7110   33.7270   48.5190 N   0  0  0  0  0  0  0  0  0  0  0  0
   62.7650   33.5290   47.1750 C   0  0  0  0  0  0  0  0  0  0  0  0
   61.6530   33.8140   46.3790 C   0  0  0  0  0  0  0  0  0  0  0  0
   58.0270   32.6830   47.1540 C   0  0  0  0  0  0  0  0  0  0  0  0
   58.8560   31.4770   47.5790 C   0  0  0  0  0  0  0  0  0  0  0  0
   59.3480   30.6000   46.5970 C   0  0  0  0  0  0  0  0  0  0  0  0
   60.1230   29.4980   46.9550 C   0  0  0  0  0  0  0  0  0  0  0  0
   60.3870   29.2570   48.2990 C   0  0  0  0  0  0  0  0  0  0  0  0
   59.8740   30.0800   49.2500 N   0  0  0  0  0  0  0  0  0  0  0  0
   59.1190   31.1700   48.9410 C   0  0  0  0  0  0  0  0  0  0  0  0
   58.5380   31.9650   50.0770 C   0  0  0  0  0  0  0  0  0  0  0  0
   56.4962   29.1559   44.8511 H   0  0  0  0  0  0  0  0  0  0  0  0
   55.6463   29.9643   43.4907 H   0  0  0  0  0  0  0  0  0  0  0  0
   57.4392   29.8536   43.4907 H   0  0  0  0  0  0  0  0  0  0  0  0
   58.4144   31.7273   43.9304 H   0  0  0  0  0  0  0  0  0  0  0  0
   56.9297   32.3182   43.1002 H   0  0  0  0  0  0  0  0  0  0  0  0
   57.7934   34.2587   44.1458 H   0  0  0  0  0  0  0  0  0  0  0  0
   56.5199   33.6904   45.2827 H   0  0  0  0  0  0  0  0  0  0  0  0
   59.5589   35.0293   45.1887 H   0  0  0  0  0  0  0  0  0  0  0  0
   58.6153   35.3054   46.6959 H   0  0  0  0  0  0  0  0  0  0  0  0
   59.5487   34.8841   48.8559 H   0  0  0  0  0  0  0  0  0  0  0  0
   61.5796   34.3533   50.2146 H   0  0  0  0  0  0  0  0  0  0  0  0
   63.6861   33.1436   46.7135 H   0  0  0  0  0  0  0  0  0  0  0  0
   61.6927   33.6501   45.2920 H   0  0  0  0  0  0  0  0  0  0  0  0
   58.0468   33.4205   47.9699 H   0  0  0  0  0  0  0  0  0  0  0  0
   57.0136   32.3119   46.9409 H   0  0  0  0  0  0  0  0  0  0  0  0
   59.1196   30.7848   45.5370 H   0  0  0  0  0  0  0  0  0  0  0  0
   60.5221   28.8252   46.1816 H   0  0  0  0  0  0  0  0  0  0  0  0
   61.0112   28.3999   48.5919 H   0  0  0  0  0  0  0  0  0  0  0  0
   58.8587   31.5262   51.0333 H   0  0  0  0  0  0  0  0  0  0  0  0
   58.8902   33.0052   50.0144 H   0  0  0  0  0  0  0  0  0  0  0  0
   57.4400   31.9453   50.0144 H   0  0  0  0  0  0  0  0  0  0  0  0
  1  2  1  0
  2  3  1  0
  3  4  1  0
  4  5  1  0
  5  6  1  0
  6  7  1  0
  7  8  2  0
  8  9  1  0
  9 10  2  0
 10 11  1  0
 11 12  2  0
  5 13  1  0
 13 14  1  0
 14 15  2  0
 15 16  1  0
 16 17  2  0
 17 18  1  0
 18 19  2  0
 19 20  1  0
 12  7  1  0
 19 14  1  0
  1 21  1  0
  1 22  1  0
  1 23  1  0
  3 24  1  0
  3 25  1  0
  4 26  1  0
  4 27  1  0
  6 28  1  0
  6 29  1  0
  8 30  1  0
  9 31  1  0
 11 32  1  0
 12 33  1  0
 13 34  1  0
 13 35  1  0
 15 36  1  0
 16 37  1  0
 17 38  1  0
 20 39  1  0
 20 40  1  0
 20 41  1  0
M  END
>  <UniqueID>  (9) 
9

>  <SMILES>  (9) 
COCCN(Cc1ccncc1)Cc1cccnc1C

>  <Energy>  (9) 
49.863910475309545

>  <Genealogy>  (9) 
COCCN(Cc1ccncc1)Cc1cccnc1C (3D coordinates assigned)
COCCN(Cc1ccncc1)Cc1cccnc1C (optimized conformer: 49.863910475309545 kcal/mol)

>  <smiles>  (9) 
COCCN(Cc1ccncc1)Cc1cccnc1C

>  <score_type>  (9) 
oracle

>  <origin>  (9) 
adg

>  <m_score__min__energy>  (9) 
-6.3300000000000001

>  <m_primary>  (9) 
energy

$$$$
9:0
     RDKit          3D

 51 53  0  0  0  0  0  0  0  0999 V2000
   61.8920   31.1950   47.2730 C   0  0  0  0  0  0  0  0  0  0  0  0
   63.3300   31.6710   47.4420 C   0  0  0  0  0  0  0  0  0  0  0  0
   63.3770   32.7860   48.4160 N   0  0  0  0  0  0  0  0  0  0  0  0
   63.3520   34.1200   47.7680 C   0  0  0  0  0  0  0  0  0  0  0  0
   63.3830   34.0730   46.2290 C   0  0  0  0  0  0  0  0  0  0  0  0
   64.4450   32.6480   49.4330 C   0  0  0  0  0  0  0  0  0  0  0  0
   63.9050   31.9930   50.7120 C   0  0  0  0  0  0  0  0  0  0  0  0
   62.4470   32.1530   50.8320 N   0  0  0  0  0  0  0  0  0  0  0  0
   62.0610   33.2640   51.7230 C   0  0  0  0  0  0  0  0  0  0  0  0
   60.6000   33.4540   51.7480 N   0  0  0  0  0  0  0  0  0  0  0  0
   60.0500   33.2200   50.4340 C   0  0  0  0  0  0  0  0  0  0  0  0
   59.4080   32.0100   50.1420 C   0  0  0  0  0  0  0  0  0  0  0  0
   58.8940   31.7670   48.8660 C   0  0  0  0  0  0  0  0  0  0  0  0
   59.0080   32.7330   47.8370 C   0  0  0  0  0  0  0  0  0  0  0  0
   59.6760   33.9520   48.1390 C   0  0  0  0  0  0  0  0  0  0  0  0
   59.8220   34.9390   47.1580 C   0  0  0  0  0  0  0  0  0  0  0  0
   59.3190   34.7450   45.8760 C   0  0  0  0  0  0  0  0  0  0  0  0
   58.6540   33.5590   45.5490 C   0  0  0  0  0  0  0  0  0  0  0  0
   58.1520   33.3860   44.2520 C   0  0  0  0  0  0  0  0  0  0  0  0
   57.4890   32.2090   43.9240 C   0  0  0  0  0  0  0  0  0  0  0  0
   57.3300   31.2370   44.8540 N   0  0  0  0  0  0  0  0  0  0  0  0
   57.7990   31.3650   46.1230 C   0  0  0  0  0  0  0  0  0  0  0  0
   58.4880   32.5360   46.5220 C   0  0  0  0  0  0  0  0  0  0  0  0
   60.1950   34.1800   49.4230 C   0  0  0  0  0  0  0  0  0  0  0  0
   61.4369   31.0444   48.2630 H   0  0  0  0  0  0  0  0  0  0  0  0
   61.3184   31.9512   46.7170 H   0  0  0  0  0  0  0  0  0  0  0  0
   61.8829   30.2459   46.7170 H   0  0  0  0  0  0  0  0  0  0  0  0
   63.9495   30.8392   47.8086 H   0  0  0  0  0  0  0  0  0  0  0  0
   63.7143   32.0191   46.4719 H   0  0  0  0  0  0  0  0  0  0  0  0
   62.4328   34.6379   48.0792 H   0  0  0  0  0  0  0  0  0  0  0  0
   64.2646   34.6446   48.0874 H   0  0  0  0  0  0  0  0  0  0  0  0
   63.9610   33.1967   45.9005 H   0  0  0  0  0  0  0  0  0  0  0  0
   62.3553   33.9999   45.8436 H   0  0  0  0  0  0  0  0  0  0  0  0
   63.8548   34.9889   45.8436 H   0  0  0  0  0  0  0  0  0  0  0  0
   65.2535   32.0247   49.0234 H   0  0  0  0  0  0  0  0  0  0  0  0
   64.8212   33.6506   49.6845 H   0  0  0  0  0  0  0  0  0  0  0  0
   64.1453   30.9198   50.6916 H   0  0  0  0  0  0  0  0  0  0  0  0
   64.3761   32.4863   51.5750 H   0  0  0  0  0  0  0  0  0  0  0  0
   62.0370   32.3070   49.8830 H   0  0  0  0  0  0  0  0  0  0  0  0
   62.4101   33.0424   52.7423 H   0  0  0  0  0  0  0  0  0  0  0  0
   62.5225   34.1873   51.3429 H   0  0  0  0  0  0  0  0  0  0  0  0
   60.3720   34.4290   52.0560 H   0  0  0  0  0  0  0  0  0  0  0  0
   60.1580   32.7940   52.4280 H   0  0  0  0  0  0  0  0  0  0  0  0
   59.3076   31.2438   50.9248 H   0  0  0  0  0  0  0  0  0  0  0  0
   58.3929   30.8103   48.6573 H   0  0  0  0  0  0  0  0  0  0  0  0
   60.3399   35.8779   47.4033 H   0  0  0  0  0  0  0  0  0  0  0  0
   59.4450   35.5290   45.1148 H   0  0  0  0  0  0  0  0  0  0  0  0
   58.2818   34.1766   43.4983 H   0  0  0  0  0  0  0  0  0  0  0  0
   57.0929   32.0667   42.9077 H   0  0  0  0  0  0  0  0  0  0  0  0
   57.6420   30.5517   46.8468 H   0  0  0  0  0  0  0  0  0  0  0  0
   60.7210   35.1218   49.6381 H   0  0  0  0  0  0  0  0  0  0  0  0
  1  2  1  0
  2  3  1  0
  3  4  1  0
  4  5  1  0
  3  6  1  0
  6  7  1  0
  7  8  1  0
  8  9  1  0
  9 10  1  0
 10 11  1  0
 11 12  2  0
 12 13  1  0
 13 14  2  0
 14 15  1  0
 15 16  1  0
 16 17  2  0
 17 18  1  0
 18 19  2  0
 19 20  1  0
 20 21  2  0
 21 22  1  0
 22 23  2  0
 15 24  2  0
 24 11  1  0
 23 14  1  0
 23 18  1  0
  1 25  1  0
  1 26  1  0
  1 27  1  0
  2 28  1  0
  2 29  1  0
  4 30  1  0
  4 31  1  0
  5 32  1  0
  5 33  1  0
  5 34  1  0
  6 35  1  0
  6 36  1  0
  7 37  1  0
  7 38  1  0
  8 39  1  0
  9 40  1  0
  9 41  1  0
 10 42  1  0
 10 43  1  0
 12 44  1  0
 13 45  1  0
 16 46  1  0
 17 47  1  0
 19 48  1  0
 20 49  1  0
 22 50  1  0
 24 51  1  0
M  CHG  1  10   1
M  END
>  <UniqueID>  (10) 
10

>  <SMILES>  (10) 
CCN(CC)CCNC[NH2+]c1ccc2c(ccc3ccncc32)c1

>  <Energy>  (10) 
67.53687555100143

>  <Genealogy>  (10) 
CCN(CC)CCNC[NH2+]c1ccc2c(ccc3ccncc32)c1 (protonated)
CCN(CC)CCNC[NH2+]c1ccc2c(ccc3ccncc32)c1 (3D coordinates assigned)
CCN(CC)CCNC[NH2+]c1ccc2c(ccc3ccncc32)c1 (optimized conformer: 67.53687555100143 kcal/mol)

>  <smiles>  (10) 
CCN(CC)CCNCNc1ccc2c(ccc3ccncc32)c1

>  <score_type>  (10) 
oracle

>  <origin>  (10) 
adg

>  <m_score__min__energy>  (10) 
-5.9800000000000004

>  <m_primary>  (10) 
energy

$$$$
10:0
     RDKit          3D

 73 76  0  0  0  0  0  0  0  0999 V2000
   57.4180   25.3650   47.0210 C   0  0  0  0  0  0  0  0  0  0  0  0
   56.3200   26.0580   46.2210 C   0  0  0  0  0  0  0  0  0  0  0  0
   56.8430   27.2890   45.6120 N   0  0  0  0  0  0  0  0  0  0  0  0
   58.3130   27.2660   45.5260 C   0  0  0  0  0  0  0  0  0  0  0  0
   58.9270   28.4670   46.2640 C   0  0  0  0  0  0  0  0  0  0  0  0
   57.9070   29.4110   46.7720 N   0  0  0  0  0  0  0  0  0  0  0  0
   58.1360   30.7710   46.2920 C   0  0  0  0  0  0  0  0  0  0  0  0
   57.8260   31.1060   44.9430 C   0  0  0  0  0  0  0  0  0  0  0  0
   57.2580   30.1600   44.0510 C   0  0  0  0  0  0  0  0  0  0  0  0
   57.0240   30.4750   42.7170 C   0  0  0  0  0  0  0  0  0  0  0  0
   57.3570   31.7290   42.2300 C   0  0  0  0  0  0  0  0  0  0  0  0
   57.8850   32.6900   43.0840 C   0  0  0  0  0  0  0  0  0  0  0  0
   58.0870   32.4190   44.4640 C   0  0  0  0  0  0  0  0  0  0  0  0
   58.5400   33.3970   45.3220 N   0  0  0  0  0  0  0  0  0  0  0  0
   58.4910   34.8190   44.9110 C   0  0  0  0  0  0  0  0  0  0  0  0
   58.9870   33.0620   46.5820 C   0  0  0  0  0  0  0  0  0  0  0  0
   59.7210   33.9890   47.3610 C   0  0  0  0  0  0  0  0  0  0  0  0
   60.0920   33.7020   48.6680 C   0  0  0  0  0  0  0  0  0  0  0  0
   59.7510   32.4880   49.2480 C   0  0  0  0  0  0  0  0  0  0  0  0
   60.1070   32.2870   50.5930 O   0  0  0  0  0  0  0  0  0  0  0  0
   60.9160   33.1570   51.3850 C   0  0  0  0  0  0  0  0  0  0  0  0
   62.1910   32.4540   51.8680 C   0  0  0  0  0  0  0  0  0  0  0  0
   63.4670   33.1920   51.3930 C   0  0  0  0  0  0  0  0  0  0  0  0
   63.8710   32.9460   49.9670 N   0  0  0  0  0  0  0  0  0  0  0  0
   65.3590   32.9480   49.8680 C   0  0  0  0  0  0  0  0  0  0  0  0
   63.3030   34.0170   49.0890 C   0  0  0  0  0  0  0  0  0  0  0  0
   63.5750   33.7890   47.5850 C   0  0  0  0  0  0  0  0  0  0  0  0
   63.4640   32.3180   47.1620 C   0  0  0  0  0  0  0  0  0  0  0  0
   62.6920   31.4990   48.1880 C   0  0  0  0  0  0  0  0  0  0  0  0
   63.3510   31.5800   49.5800 C   0  0  0  0  0  0  0  0  0  0  0  0
   59.0860   31.5210   48.4760 C   0  0  0  0  0  0  0  0  0  0  0  0
   58.7310   31.7680   47.1230 C   0  0  0  0  0  0  0  0  0  0  0  0
   57.2219   25.4887   48.0963 H   0  0  0  0  0  0  0  0  0  0  0  0
   57.4326   24.2937   46.7719 H   0  0  0  0  0  0  0  0  0  0  0  0
   58.3914   25.8127   46.7719 H   0  0  0  0  0  0  0  0  0  0  0  0
   55.9645   25.3823   45.4291 H   0  0  0  0  0  0  0  0  0  0  0  0
   55.4886   26.3132   46.8945 H   0  0  0  0  0  0  0  0  0  0  0  0
   56.4690   27.3320   44.6360 H   0  0  0  0  0  0  0  0  0  0  0  0
   58.6854   26.3360   45.9803 H   0  0  0  0  0  0  0  0  0  0  0  0
   58.6029   27.3203   44.4663 H   0  0  0  0  0  0  0  0  0  0  0  0
   59.5148   28.0932   47.1153 H   0  0  0  0  0  0  0  0  0  0  0  0
   59.5537   29.0131   45.5435 H   0  0  0  0  0  0  0  0  0  0  0  0
   56.9450   29.0610   46.5910 H   0  0  0  0  0  0  0  0  0  0  0  0
   57.9280   29.4080   47.8160 H   0  0  0  0  0  0  0  0  0  0  0  0
   56.9976   29.1577   44.4220 H   0  0  0  0  0  0  0  0  0  0  0  0
   56.5738   29.7276   42.0471 H   0  0  0  0  0  0  0  0  0  0  0  0
   57.2033   31.9640   41.1664 H   0  0  0  0  0  0  0  0  0  0  0  0
   58.1516   33.6793   42.6838 H   0  0  0  0  0  0  0  0  0  0  0  0
   58.4690   35.4587   45.8056 H   0  0  0  0  0  0  0  0  0  0  0  0
   59.3814   35.0582   44.3111 H   0  0  0  0  0  0  0  0  0  0  0  0
   57.5862   34.9963   44.3111 H   0  0  0  0  0  0  0  0  0  0  0  0
   60.0033   34.9571   46.9215 H   0  0  0  0  0  0  0  0  0  0  0  0
   60.6610   34.4431   49.2486 H   0  0  0  0  0  0  0  0  0  0  0  0
   61.1973   34.0321   50.7808 H   0  0  0  0  0  0  0  0  0  0  0  0
   60.3341   33.4613   52.2675 H   0  0  0  0  0  0  0  0  0  0  0  0
   62.1859   32.4224   52.9675 H   0  0  0  0  0  0  0  0  0  0  0  0
   62.2043   31.4389   51.4445 H   0  0  0  0  0  0  0  0  0  0  0  0
   63.2973   34.2720   51.5144 H   0  0  0  0  0  0  0  0  0  0  0  0
   64.2881   32.7966   52.0090 H   0  0  0  0  0  0  0  0  0  0  0  0
   65.7937   32.9486   50.8785 H   0  0  0  0  0  0  0  0  0  0  0  0
   65.6916   32.0503   49.3263 H   0  0  0  0  0  0  0  0  0  0  0  0
   65.6892   33.8466   49.3263 H   0  0  0  0  0  0  0  0  0  0  0  0
   62.2147   34.0540   49.2444 H   0  0  0  0  0  0  0  0  0  0  0  0
   63.7962   34.9598   49.3680 H   0  0  0  0  0  0  0  0  0  0  0  0
   62.8455   34.3744   47.0060 H   0  0  0  0  0  0  0  0  0  0  0  0
   64.6103   34.1057   47.3904 H   0  0  0  0  0  0  0  0  0  0  0  0
   62.9428   32.2625   46.1949 H   0  0  0  0  0  0  0  0  0  0  0  0
   64.4800   31.9038   47.0835 H   0  0  0  0  0  0  0  0  0  0  0  0
   61.6643   31.8854   48.2550 H   0  0  0  0  0  0  0  0  0  0  0  0
   62.6921   30.4477   47.8644 H   0  0  0  0  0  0  0  0  0  0  0  0
   62.6045   31.2754   50.3283 H   0  0  0  0  0  0  0  0  0  0  0  0
   64.2291   30.9186   49.5413 H   0  0  0  0  0  0  0  0  0  0  0  0
   58.8346   30.5508   48.9294 H   0  0  0  0  0  0  0  0  0  0  0  0
  1  2  1  0
  2  3  1  0
  3  4  1  0
  4  5  1  0
  5  6  1  0
  6  7  1  0
  7  8  2  0
  8  9  1  0
  9 10  2  0
 10 11  1  0
 11 12  2  0
 12 13  1  0
 13 14  2  0
 14 15  1  0
 14 16  1  0
 16 17  2  0
 17 18  1  0
 18 19  2  0
 19 20  1  0
 20 21  1  0
 21 22  1  0
 22 23  1  0
 23 24  1  0
 24 25  1  0
 24 26  1  0
 26 27  1  0
 27 28  1  0
 28 29  1  0
 29 30  1  0
 19 31  1  0
 31 32  2  0
 32  7  1  0
 13  8  1  0
 32 16  1  0
 30 24  1  0
  1 33  1  0
  1 34  1  0
  1 35  1  0
  2 36  1  0
  2 37  1  0
  3 38  1  0
  4 39  1  0
  4 40  1  0
  5 41  1  0
  5 42  1  0
  6 43  1  0
  6 44  1  0
  9 45  1  0
 10 46  1  0
 11 47  1  0
 12 48  1  0
 15 49  1  0
 15 50  1  0
 15 51  1  0
 17 52  1  0
 18 53  1  0
 21 54  1  0
 21 55  1  0
 22 56  1  0
 22 57  1  0
 23 58  1  0
 23 59  1  0
 25 60  1  0
 25 61  1  0
 25 62  1  0
 26 63  1  0
 26 64  1  0
 27 65  1  0
 27 66  1  0
 28 67  1  0
 28 68  1  0
 29 69  1  0
 29 70  1  0
 30 71  1  0
 30 72  1  0
 31 73  1  0
M  CHG  3   6   1  14   1  24   1
M  END
>  <UniqueID>  (11) 
11

>  <SMILES>  (11) 
CCNCC[NH2+]c1c2ccccc2[n+](C)c2ccc(OCCC[N+]3(C)CCCCC3)cc12

>  <Energy>  (11) 
115.01159393131007

>  <Genealogy>  (11) 
CCNCC[NH2+]c1c2ccccc2[n+](C)c2ccc(OCCC[N+]3(C)CCCCC3)cc12 (protonated)
CCNCC[NH2+]c1c2ccccc2[n+](C)c2ccc(OCCC[N+]3(C)CCCCC3)cc12 (3D coordinates assigned)
CCNCC[NH2+]c1c2ccccc2[n+](C)c2ccc(OCCC[N+]3(C)CCCCC3)cc12 (nonaromatic ring conformer: 115.01159393131007 kcal/mol)

>  <smiles>  (11) 
CCNCCNc1c2ccccc2[n+](C)c2ccc(OCCC[N+]3(C)CCCCC3)cc12

>  <score_type>  (11) 
oracle

>  <origin>  (11) 
adg

>  <m_score__min__energy>  (11) 
-3.5699999999999998

>  <m_primary>  (11) 
energy

$$$$
11:0
     RDKit          3D

 55 58  0  0  0  0  0  0  0  0999 V2000
   59.3730   35.0910   45.4910 C   0  0  0  0  0  0  0  0  0  0  0  0
   59.6370   33.5960   45.6590 C   0  0  0  0  0  0  0  0  0  0  0  0
   60.3840   33.2970   46.9050 N   0  0  0  0  0  0  0  0  0  0  0  0
   59.4760   33.2510   48.0780 C   0  0  0  0  0  0  0  0  0  0  0  0
   60.0770   33.8530   49.3550 C   0  0  0  0  0  0  0  0  0  0  0  0
   61.5440   34.1950   47.1280 C   0  0  0  0  0  0  0  0  0  0  0  0
   62.7860   33.7030   46.3700 C   0  0  0  0  0  0  0  0  0  0  0  0
   63.5540   32.7050   47.1230 N   0  0  0  0  0  0  0  0  0  0  0  0
   63.0400   31.9360   48.2280 C   0  0  0  0  0  0  0  0  0  0  0  0
   62.0220   30.9790   48.0290 C   0  0  0  0  0  0  0  0  0  0  0  0
   61.5340   30.2590   49.1420 C   0  0  0  0  0  0  0  0  0  0  0  0
   62.0560   30.4480   50.3970 N   0  0  0  0  0  0  0  0  0  0  0  0
   61.5670   29.6050   51.5060 C   0  0  0  0  0  0  0  0  0  0  0  0
   62.9870   31.4410   50.6250 C   0  0  0  0  0  0  0  0  0  0  0  0
   63.4570   31.7320   51.9310 C   0  0  0  0  0  0  0  0  0  0  0  0
   64.4070   32.7280   52.1460 C   0  0  0  0  0  0  0  0  0  0  0  0
   64.9120   33.4560   51.0760 C   0  0  0  0  0  0  0  0  0  0  0  0
   64.4630   33.2000   49.7820 C   0  0  0  0  0  0  0  0  0  0  0  0
   63.4910   32.2060   49.5370 C   0  0  0  0  0  0  0  0  0  0  0  0
   60.4740   29.3650   48.9570 O   0  0  0  0  0  0  0  0  0  0  0  0
   59.7980   29.2780   47.7480 C   0  0  0  0  0  0  0  0  0  0  0  0
   58.6350   28.5050   47.6520 C   0  0  0  0  0  0  0  0  0  0  0  0
   57.9420   28.4320   46.4400 C   0  0  0  0  0  0  0  0  0  0  0  0
   58.4130   29.1290   45.3240 C   0  0  0  0  0  0  0  0  0  0  0  0
   59.5780   29.8980   45.4180 C   0  0  0  0  0  0  0  0  0  0  0  0
   60.2740   29.9890   46.6360 C   0  0  0  0  0  0  0  0  0  0  0  0
   61.5300   30.6970   46.6920 N   0  0  0  0  0  0  0  0  0  0  0  0
   59.2898   35.5622   46.4815 H   0  0  0  0  0  0  0  0  0  0  0  0
   60.2040   35.5499   44.9353 H   0  0  0  0  0  0  0  0  0  0  0  0
   58.4351   35.2375   44.9353 H   0  0  0  0  0  0  0  0  0  0  0  0
   58.6731   33.0668   45.6879 H   0  0  0  0  0  0  0  0  0  0  0  0
   60.2503   33.2631   44.8087 H   0  0  0  0  0  0  0  0  0  0  0  0
   58.5612   33.8090   47.8296 H   0  0  0  0  0  0  0  0  0  0  0  0
   59.2799   32.1892   48.2879 H   0  0  0  0  0  0  0  0  0  0  0  0
   59.6108   33.3860   50.2351 H   0  0  0  0  0  0  0  0  0  0  0  0
   61.1611   33.6677   49.3727 H   0  0  0  0  0  0  0  0  0  0  0  0
   59.8899   34.9368   49.3727 H   0  0  0  0  0  0  0  0  0  0  0  0
   61.2873   35.2054   46.7771 H   0  0  0  0  0  0  0  0  0  0  0  0
   61.7747   34.2027   48.2035 H   0  0  0  0  0  0  0  0  0  0  0  0
   62.4624   33.2535   45.4196 H   0  0  0  0  0  0  0  0  0  0  0  0
   63.4410   34.5719   46.2086 H   0  0  0  0  0  0  0  0  0  0  0  0
   64.4980   32.4490   46.7520 H   0  0  0  0  0  0  0  0  0  0  0  0
   61.8364   30.0695   52.4660 H   0  0  0  0  0  0  0  0  0  0  0  0
   60.4732   29.5094   51.4391 H   0  0  0  0  0  0  0  0  0  0  0  0
   62.0270   28.6080   51.4391 H   0  0  0  0  0  0  0  0  0  0  0  0
   63.0656   31.1628   52.7870 H   0  0  0  0  0  0  0  0  0  0  0  0
   64.7585   32.9388   53.1668 H   0  0  0  0  0  0  0  0  0  0  0  0
   65.6677   34.2360   51.2506 H   0  0  0  0  0  0  0  0  0  0  0  0
   64.8710   33.7797   48.9409 H   0  0  0  0  0  0  0  0  0  0  0  0
   58.2663   27.9549   48.5303 H   0  0  0  0  0  0  0  0  0  0  0  0
   57.0268   27.8264   46.3648 H   0  0  0  0  0  0  0  0  0  0  0  0
   57.8672   29.0729   44.3706 H   0  0  0  0  0  0  0  0  0  0  0  0
   59.9516   30.4347   44.5335 H   0  0  0  0  0  0  0  0  0  0  0  0
   61.4130   31.5970   46.1730 H   0  0  0  0  0  0  0  0  0  0  0  0
   62.2380   30.0970   46.2120 H   0  0  0  0  0  0  0  0  0  0  0  0
  1  2  1  0
  2  3  1  0
  3  4  1  0
  4  5  1  0
  3  6  1  0
  6  7  1  0
  7  8  1  0
  8  9  1  0
  9 10  2  0
 10 11  1  0
 11 12  2  0
 12 13  1  0
 12 14  1  0
 14 15  2  0
 15 16  1  0
 16 17  2  0
 17 18  1  0
 18 19  2  0
 11 20  1  0
 20 21  1  0
 21 22  2  0
 22 23  1  0
 23 24  2  0
 24 25  1  0
 25 26  2  0
 26 27  1  0
 19  9  1  0
 26 21  1  0
 27 10  1  0
 19 14  1  0
  1 28  1  0
  1 29  1  0
  1 30  1  0
  2 31  1  0
  2 32  1  0
  4 33  1  0
  4 34  1  0
  5 35  1  0
  5 36  1  0
  5 37  1  0
  6 38  1  0
  6 39  1  0
  7 40  1  0
  7 41  1  0
  8 42  1  0
 13 43  1  0
 13 44  1  0
 13 45  1  0
 15 46  1  0
 16 47  1  0
 17 48  1  0
 18 49  1  0
 22 50  1  0
 23 51  1  0
 24 52  1  0
 25 53  1  0
 27 54  1  0
 27 55  1  0
M  CHG  2  12   1  27   1
M  END
>  <UniqueID>  (12) 
12

>  <SMILES>  (12) 
CCN(CC)CCNc1c2c([n+](C)c3ccccc13)Oc1ccccc1[NH2+]2

>  <Energy>  (12) 
81.56222339198229

>  <Genealogy>  (12) 
CCN(CC)CCNc1c2c([n+](C)c3ccccc13)Oc1ccccc1[NH2+]2 (protonated)
CCN(CC)CCNc1c2c([n+](C)c3ccccc13)Oc1ccccc1[NH2+]2 (3D coordinates assigned)
CCN(CC)CCNc1c2c([n+](C)c3ccccc13)Oc1ccccc1[NH2+]2 (nonaromatic ring conformer: 81.56222339198229 kcal/mol)

>  <smiles>  (12) 
CCN(CC)CCNc1c2c([n+](C)c3ccccc13)Oc1ccccc1N2

>  <score_type>  (12) 
oracle

>  <origin>  (12) 
adg

>  <m_score__min__energy>  (12) 
-4.4500000000000002

>  <m_primary>  (12) 
energy

$$$$
12:0
     RDKit          3D

 51 53  0  0  0  0  0  0  0  0999 V2000
   62.9760   33.9570   48.6940 C   0  0  0  0  0  0  0  0  0  0  0  0
   63.3920   34.0420   47.2290 C   0  0  0  0  0  0  0  0  0  0  0  0
   63.8410   32.7270   46.7610 N   0  0  0  0  0  0  0  0  0  0  0  0
   63.3910   31.6550   47.6590 C   0  0  0  0  0  0  0  0  0  0  0  0
   62.1540   30.9430   47.0810 C   0  0  0  0  0  0  0  0  0  0  0  0
   60.9340   31.1190   47.9030 N   0  0  0  0  0  0  0  0  0  0  0  0
   59.7200   31.2590   47.1060 C   0  0  0  0  0  0  0  0  0  0  0  0
   59.4020   32.4880   46.4870 C   0  0  0  0  0  0  0  0  0  0  0  0
   59.8500   33.7180   47.0140 C   0  0  0  0  0  0  0  0  0  0  0  0
   59.5210   34.9200   46.3930 C   0  0  0  0  0  0  0  0  0  0  0  0
   58.7320   34.9200   45.2460 C   0  0  0  0  0  0  0  0  0  0  0  0
   58.2810   33.7160   44.7060 C   0  0  0  0  0  0  0  0  0  0  0  0
   58.6200   32.4770   45.3040 C   0  0  0  0  0  0  0  0  0  0  0  0
   58.2230   31.2740   44.7600 N   0  0  0  0  0  0  0  0  0  0  0  0
   57.7830   31.2090   43.3500 C   0  0  0  0  0  0  0  0  0  0  0  0
   58.2210   30.1380   45.5490 C   0  0  0  0  0  0  0  0  0  0  0  0
   57.5420   28.9640   45.1460 C   0  0  0  0  0  0  0  0  0  0  0  0
   57.5100   27.8250   45.9620 C   0  0  0  0  0  0  0  0  0  0  0  0
   56.8830   26.6310   45.5690 O   0  0  0  0  0  0  0  0  0  0  0  0
   57.4820   25.6360   44.7460 C   0  0  0  0  0  0  0  0  0  0  0  0
   58.0850   27.8770   47.2250 C   0  0  0  0  0  0  0  0  0  0  0  0
   58.7150   29.0370   47.6890 C   0  0  0  0  0  0  0  0  0  0  0  0
   59.0150   29.0950   49.1680 C   0  0  0  0  0  0  0  0  0  0  0  0
   58.8970   30.1410   46.8030 C   0  0  0  0  0  0  0  0  0  0  0  0
   63.8519   34.1360   49.3349 H   0  0  0  0  0  0  0  0  0  0  0  0
   62.2082   34.7168   48.9018 H   0  0  0  0  0  0  0  0  0  0  0  0
   62.5678   32.9569   48.9018 H   0  0  0  0  0  0  0  0  0  0  0  0
   62.5338   34.3708   46.6246 H   0  0  0  0  0  0  0  0  0  0  0  0
   64.2162   34.7634   47.1277 H   0  0  0  0  0  0  0  0  0  0  0  0
   64.8870   32.7350   46.7870 H   0  0  0  0  0  0  0  0  0  0  0  0
   64.2032   30.9236   47.7833 H   0  0  0  0  0  0  0  0  0  0  0  0
   63.1227   32.0969   48.6300 H   0  0  0  0  0  0  0  0  0  0  0  0
   61.9581   31.3456   46.0762 H   0  0  0  0  0  0  0  0  0  0  0  0
   62.3793   29.8665   47.0620 H   0  0  0  0  0  0  0  0  0  0  0  0
   60.8920   30.2920   48.5330 H   0  0  0  0  0  0  0  0  0  0  0  0
   61.0410   31.9610   48.5130 H   0  0  0  0  0  0  0  0  0  0  0  0
   60.4659   33.7273   47.9254 H   0  0  0  0  0  0  0  0  0  0  0  0
   59.8850   35.8709   46.8093 H   0  0  0  0  0  0  0  0  0  0  0  0
   58.4637   35.8720   44.7645 H   0  0  0  0  0  0  0  0  0  0  0  0
   57.6531   33.7283   43.8029 H   0  0  0  0  0  0  0  0  0  0  0  0
   56.6955   31.0483   43.3123 H   0  0  0  0  0  0  0  0  0  0  0  0
   58.0318   32.1537   42.8443 H   0  0  0  0  0  0  0  0  0  0  0  0
   58.2944   30.3766   42.8443 H   0  0  0  0  0  0  0  0  0  0  0  0
   57.0291   28.9448   44.1731 H   0  0  0  0  0  0  0  0  0  0  0  0
   57.9456   24.8660   45.3802 H   0  0  0  0  0  0  0  0  0  0  0  0
   56.7122   25.1733   44.1109 H   0  0  0  0  0  0  0  0  0  0  0  0
   58.2511   26.0998   44.1109 H   0  0  0  0  0  0  0  0  0  0  0  0
   58.0444   26.9892   47.8731 H   0  0  0  0  0  0  0  0  0  0  0  0
   58.0907   28.9163   49.7369 H   0  0  0  0  0  0  0  0  0  0  0  0
   59.7569   28.3237   49.4222 H   0  0  0  0  0  0  0  0  0  0  0  0
   59.4159   30.0873   49.4222 H   0  0  0  0  0  0  0  0  0  0  0  0
  1  2  1  0
  2  3  1  0
  3  4  1  0
  4  5  1  0
  5  6  1  0
  6  7  1  0
  7  8  2  0
  8  9  1  0
  9 10  2  0
 10 11  1  0
 11 12  2  0
 12 13  1  0
 13 14  2  0
 14 15  1  0
 14 16  1  0
 16 17  2  0
 17 18  1  0
 18 19  1  0
 19 20  1  0
 18 21  2  0
 21 22  1  0
 22 23  1  0
 22 24  2  0
 24  7  1  0
 13  8  1  0
 24 16  1  0
  1 25  1  0
  1 26  1  0
  1 27  1  0
  2 28  1  0
  2 29  1  0
  3 30  1  0
  4 31  1  0
  4 32  1  0
  5 33  1  0
  5 34  1  0
  6 35  1  0
  6 36  1  0
  9 37  1  0
 10 38  1  0
 11 39  1  0
 12 40  1  0
 15 41  1  0
 15 42  1  0
 15 43  1  0
 17 44  1  0
 20 45  1  0
 20 46  1  0
 20 47  1  0
 21 48  1  0
 23 49  1  0
 23 50  1  0
 23 51  1  0
M  CHG  2   6   1  14   1
M  END
>  <UniqueID>  (13) 
13

>  <SMILES>  (13) 
CCNCC[NH2+]c1c2ccccc2[n+](C)c2cc(OC)cc(C)c12

>  <Energy>  (13) 
88.29380730709121

>  <Genealogy>  (13) 
CCNCC[NH2+]c1c2ccccc2[n+](C)c2cc(OC)cc(C)c12 (protonated)
CCNCC[NH2+]c1c2ccccc2[n+](C)c2cc(OC)cc(C)c12 (3D coordinates assigned)
CCNCC[NH2+]c1c2ccccc2[n+](C)c2cc(OC)cc(C)c12 (optimized conformer: 88.29380730709121 kcal/mol)

>  <smiles>  (13) 
CCNCCNc1c2ccccc2[n+](C)c2cc(OC)cc(C)c12

>  <score_type>  (13) 
oracle

>  <origin>  (13) 
adg

>  <m_score__min__energy>  (13) 
-4.3799999999999999

>  <m_primary>  (13) 
energy

$$$$
13:0
     RDKit          3D

 74 77  0  0  0  0  0  0  0  0999 V2000
   63.3620   33.8430   46.5940 C   0  0  0  0  0  0  0  0  0  0  0  0
   63.7390   32.4700   47.1470 C   0  0  0  0  0  0  0  0  0  0  0  0
   63.7100   32.4180   48.6800 C   0  0  0  0  0  0  0  0  0  0  0  0
   62.5390   33.2240   49.2790 C   0  0  0  0  0  0  0  0  0  0  0  0
   61.4520   32.3540   49.8010 N   0  0  2  0  0  0  0  0  0  0  0  0
   61.1720   32.5640   51.2480 C   0  0  0  0  0  0  0  0  0  0  0  0
   59.9350   33.4300   51.5380 C   0  0  0  0  0  0  0  0  0  0  0  0
   61.7310   30.9190   49.5130 C   0  0  0  0  0  0  0  0  0  0  0  0
   61.1530   30.4530   48.1630 C   0  0  0  0  0  0  0  0  0  0  0  0
   59.7490   30.8430   48.0210 N   0  0  0  0  0  0  0  0  0  0  0  0
   59.2480   31.2970   46.7560 C   0  0  0  0  0  0  0  0  0  0  0  0
   59.3550   32.6540   46.4070 C   0  0  0  0  0  0  0  0  0  0  0  0
   59.9340   33.5820   47.2990 C   0  0  0  0  0  0  0  0  0  0  0  0
   59.9910   34.9350   46.9770 C   0  0  0  0  0  0  0  0  0  0  0  0
   59.4610   35.3870   45.7740 C   0  0  0  0  0  0  0  0  0  0  0  0
   58.8960   34.4850   44.8720 C   0  0  0  0  0  0  0  0  0  0  0  0
   58.8590   33.0950   45.1520 C   0  0  0  0  0  0  0  0  0  0  0  0
   58.3410   32.1830   44.2520 N   0  0  0  0  0  0  0  0  0  0  0  0
   58.0870   32.5910   42.8520 C   0  0  0  0  0  0  0  0  0  0  0  0
   58.0940   30.8810   44.6490 C   0  0  0  0  0  0  0  0  0  0  0  0
   57.3330   29.9920   43.8530 C   0  0  0  0  0  0  0  0  0  0  0  0
   57.1620   28.6590   44.2190 C   0  0  0  0  0  0  0  0  0  0  0  0
   57.7350   28.1630   45.3960 C   0  0  0  0  0  0  0  0  0  0  0  0
   57.5820   26.7290   45.7550 C   0  0  0  0  0  0  0  0  0  0  0  0
   58.6850   25.8620   45.7230 C   0  0  0  0  0  0  0  0  0  0  0  0
   58.5270   24.4990   45.9920 C   0  0  0  0  0  0  0  0  0  0  0  0
   57.2600   23.9670   46.3030 C   0  0  0  0  0  0  0  0  0  0  0  0
   57.0830   22.5470   46.5360 N   0  0  0  0  0  0  0  0  0  0  0  0
   57.6940   21.5590   45.6410 C   0  0  0  0  0  0  0  0  0  0  0  0
   56.2860   22.0800   47.6780 C   0  0  0  0  0  0  0  0  0  0  0  0
   56.1630   24.8470   46.3600 C   0  0  0  0  0  0  0  0  0  0  0  0
   56.3220   26.2080   46.0910 C   0  0  0  0  0  0  0  0  0  0  0  0
   58.4460   29.0410   46.2260 C   0  0  0  0  0  0  0  0  0  0  0  0
   58.5980   30.4040   45.8860 C   0  0  0  0  0  0  0  0  0  0  0  0
   63.1721   34.5347   47.4280 H   0  0  0  0  0  0  0  0  0  0  0  0
   64.1873   34.2294   45.9779 H   0  0  0  0  0  0  0  0  0  0  0  0
   62.4551   33.7537   45.9779 H   0  0  0  0  0  0  0  0  0  0  0  0
   63.0283   31.7267   46.7566 H   0  0  0  0  0  0  0  0  0  0  0  0
   64.7697   32.2561   46.8278 H   0  0  0  0  0  0  0  0  0  0  0  0
   63.6129   31.3686   48.9951 H   0  0  0  0  0  0  0  0  0  0  0  0
   64.6451   32.8668   49.0463 H   0  0  0  0  0  0  0  0  0  0  0  0
   62.9226   33.8416   50.1045 H   0  0  0  0  0  0  0  0  0  0  0  0
   62.1135   33.8407   48.4736 H   0  0  0  0  0  0  0  0  0  0  0  0
   60.5710   32.6240   49.3020 H   0  0  0  0  0  0  0  0  0  0  0  0
   61.0197   31.5798   51.7150 H   0  0  0  0  0  0  0  0  0  0  0  0
   62.0368   33.1054   51.6591 H   0  0  0  0  0  0  0  0  0  0  0  0
   59.8003   33.5243   52.6256 H   0  0  0  0  0  0  0  0  0  0  0  0
   60.0750   34.4284   51.0979 H   0  0  0  0  0  0  0  0  0  0  0  0
   59.0448   32.9568   51.0979 H   0  0  0  0  0  0  0  0  0  0  0  0
   62.8207   30.7698   49.4981 H   0  0  0  0  0  0  0  0  0  0  0  0
   61.2462   30.3246   50.3015 H   0  0  0  0  0  0  0  0  0  0  0  0
   61.7352   30.9079   47.3481 H   0  0  0  0  0  0  0  0  0  0  0  0
   61.2140   29.3555   48.1201 H   0  0  0  0  0  0  0  0  0  0  0  0
   59.0550   30.5780   48.7550 H   0  0  0  0  0  0  0  0  0  0  0  0
   60.3442   33.2326   48.2580 H   0  0  0  0  0  0  0  0  0  0  0  0
   60.4557   35.6470   47.6749 H   0  0  0  0  0  0  0  0  0  0  0  0
   59.4872   36.4598   45.5323 H   0  0  0  0  0  0  0  0  0  0  0  0
   58.4722   34.8580   43.9280 H   0  0  0  0  0  0  0  0  0  0  0  0
   57.5057   33.5248   42.8419 H   0  0  0  0  0  0  0  0  0  0  0  0
   59.0458   32.7504   42.3368 H   0  0  0  0  0  0  0  0  0  0  0  0
   57.5208   31.8010   42.3368 H   0  0  0  0  0  0  0  0  0  0  0  0
   56.8675   30.3610   42.9272 H   0  0  0  0  0  0  0  0  0  0  0  0
   56.5709   27.9895   43.5769 H   0  0  0  0  0  0  0  0  0  0  0  0
   59.6830   26.2583   45.4841 H   0  0  0  0  0  0  0  0  0  0  0  0
   59.4026   23.8339   45.9604 H   0  0  0  0  0  0  0  0  0  0  0  0
   58.1797   20.7736   46.2388 H   0  0  0  0  0  0  0  0  0  0  0  0
   56.9164   21.1087   45.0064 H   0  0  0  0  0  0  0  0  0  0  0  0
   58.4442   22.0535   45.0064 H   0  0  0  0  0  0  0  0  0  0  0  0
   56.7827   22.3711   48.6153 H   0  0  0  0  0  0  0  0  0  0  0  0
   55.2851   22.5345   47.6370 H   0  0  0  0  0  0  0  0  0  0  0  0
   56.1933   20.9847   47.6370 H   0  0  0  0  0  0  0  0  0  0  0  0
   55.1676   24.4576   46.6198 H   0  0  0  0  0  0  0  0  0  0  0  0
   55.4516   26.8786   46.1428 H   0  0  0  0  0  0  0  0  0  0  0  0
   58.8929   28.6626   47.1572 H   0  0  0  0  0  0  0  0  0  0  0  0
  1  2  1  0
  2  3  1  0
  3  4  1  0
  4  5  1  0
  5  6  1  0
  6  7  1  0
  5  8  1  0
  8  9  1  0
  9 10  1  0
 10 11  1  0
 11 12  2  0
 12 13  1  0
 13 14  2  0
 14 15  1  0
 15 16  2  0
 16 17  1  0
 17 18  2  0
 18 19  1  0
 18 20  1  0
 20 21  2  0
 21 22  1  0
 22 23  2  0
 23 24  1  0
 24 25  2  0
 25 26  1  0
 26 27  2  0
 27 28  1  0
 28 29  1  0
 28 30  1  0
 27 31  1  0
 31 32  2  0
 23 33  1  0
 33 34  2  0
 34 11  1  0
 17 12  1  0
 34 20  1  0
 32 24  1  0
  1 35  1  0
  1 36  1  0
  1 37  1  0
  2 38  1  0
  2 39  1  0
  3 40  1  0
  3 41  1  0
  4 42  1  0
  4 43  1  0
  5 44  1  6
  6 45  1  0
  6 46  1  0
  7 47  1  0
  7 48  1  0
  7 49  1  0
  8 50  1  0
  8 51  1  0
  9 52  1  0
  9 53  1  0
 10 54  1  0
 13 55  1  0
 14 56  1  0
 15 57  1  0
 16 58  1  0
 19 59  1  0
 19 60  1  0
 19 61  1  0
 21 62  1  0
 22 63  1  0
 25 64  1  0
 26 65  1  0
 29 66  1  0
 29 67  1  0
 29 68  1  0
 30 69  1  0
 30 70  1  0
 30 71  1  0
 31 72  1  0
 32 73  1  0
 33 74  1  0
M  CHG  2   5   1  18   1
M  END
>  <UniqueID>  (14) 
14

>  <SMILES>  (14) 
CCCC[N@H+](CC)CCNc1c2ccccc2[n+](C)c2ccc(-c3ccc(N(C)C)cc3)cc12

>  <Energy>  (14) 
104.53586600053941

>  <Genealogy>  (14) 
CCCC[NH+](CC)CCNc1c2ccccc2[n+](C)c2ccc(-c3ccc(N(C)C)cc3)cc12 (protonated)
CCCC[N@H+](CC)CCNc1c2ccccc2[n+](C)c2ccc(-c3ccc(N(C)C)cc3)cc12 (chirality)
CCCC[N@H+](CC)CCNc1c2ccccc2[n+](C)c2ccc(-c3ccc(N(C)C)cc3)cc12 (3D coordinates assigned)
CCCC[N@H+](CC)CCNc1c2ccccc2[n+](C)c2ccc(-c3ccc(N(C)C)cc3)cc12 (optimized conformer: 104.53586600053941 kcal/mol)

>  <smiles>  (14) 
CCCCN(CC)CCNc1c2ccccc2[n+](C)c2ccc(-c3ccc(N(C)C)cc3)cc12

>  <score_type>  (14) 
oracle

>  <origin>  (14) 
adg

>  <m_score__min__energy>  (14) 
-5.79

>  <m_primary>  (14) 
energy

$$$$
14:0
     RDKit          3D

 46 49  0  0  0  0  0  0  0  0999 V2000
   64.2810   31.9880   49.4230 C   0  0  0  0  0  0  0  0  0  0  0  0
   63.0860   31.8130   48.5790 N   0  0  0  0  0  0  0  0  0  0  0  0
   63.1230   32.7810   47.4720 C   0  0  0  0  0  0  0  0  0  0  0  0
   61.8410   31.9820   49.3600 C   0  0  0  0  0  0  0  0  0  0  0  0
   60.7200   31.0440   48.8840 C   0  0  0  0  0  0  0  0  0  0  0  0
   60.9850   30.5080   47.5460 N   0  0  0  0  0  0  0  0  0  0  0  0
   59.9230   30.1470   46.6510 C   0  0  0  0  0  0  0  0  0  0  0  0
   59.5900   28.7860   46.4510 C   0  0  0  0  0  0  0  0  0  0  0  0
   60.1530   27.7810   47.2640 C   0  0  0  0  0  0  0  0  0  0  0  0
   59.8340   26.4400   47.0630 C   0  0  0  0  0  0  0  0  0  0  0  0
   58.9430   26.0770   46.0590 C   0  0  0  0  0  0  0  0  0  0  0  0
   58.3570   27.0510   45.2520 C   0  0  0  0  0  0  0  0  0  0  0  0
   58.6600   28.4240   45.4270 C   0  0  0  0  0  0  0  0  0  0  0  0
   58.0780   29.3990   44.6380 N   0  0  0  0  0  0  0  0  0  0  0  0
   57.1550   29.0350   43.5460 C   0  0  0  0  0  0  0  0  0  0  0  0
   58.3570   30.7150   44.9020 C   0  0  0  0  0  0  0  0  0  0  0  0
   57.7360   32.0670   44.0930 S   0  0  0  0  0  0  0  0  0  0  0  0
   58.5700   33.1850   45.0200 C   0  0  0  0  0  0  0  0  0  0  0  0
   58.5230   34.5710   44.8990 C   0  0  0  0  0  0  0  0  0  0  0  0
   59.2780   35.3430   45.7890 C   0  0  0  0  0  0  0  0  0  0  0  0
   60.0500   34.7210   46.7830 C   0  0  0  0  0  0  0  0  0  0  0  0
   60.0840   33.3210   46.8910 C   0  0  0  0  0  0  0  0  0  0  0  0
   59.3460   32.5390   45.9830 C   0  0  0  0  0  0  0  0  0  0  0  0
   59.2400   31.1230   45.9050 C   0  0  0  0  0  0  0  0  0  0  0  0
   63.9906   31.9455   50.4831 H   0  0  0  0  0  0  0  0  0  0  0  0
   65.0024   31.1859   49.2080 H   0  0  0  0  0  0  0  0  0  0  0  0
   64.7421   32.9633   49.2080 H   0  0  0  0  0  0  0  0  0  0  0  0
   63.1620   33.8022   47.8790 H   0  0  0  0  0  0  0  0  0  0  0  0
   64.0148   32.5980   46.8546 H   0  0  0  0  0  0  0  0  0  0  0  0
   62.2198   32.6666   46.8546 H   0  0  0  0  0  0  0  0  0  0  0  0
   62.0554   31.7683   50.4175 H   0  0  0  0  0  0  0  0  0  0  0  0
   61.4949   33.0168   49.2205 H   0  0  0  0  0  0  0  0  0  0  0  0
   60.6333   30.2063   49.5916 H   0  0  0  0  0  0  0  0  0  0  0  0
   59.7868   31.6246   48.8392 H   0  0  0  0  0  0  0  0  0  0  0  0
   61.9500   30.5860   47.1550 H   0  0  0  0  0  0  0  0  0  0  0  0
   60.8523   28.0591   48.0663 H   0  0  0  0  0  0  0  0  0  0  0  0
   60.2879   25.6665   47.6999 H   0  0  0  0  0  0  0  0  0  0  0  0
   58.6994   25.0160   45.9008 H   0  0  0  0  0  0  0  0  0  0  0  0
   57.6482   26.7489   44.4670 H   0  0  0  0  0  0  0  0  0  0  0  0
   56.2116   28.6629   43.9720 H   0  0  0  0  0  0  0  0  0  0  0  0
   56.9531   29.9209   42.9259 H   0  0  0  0  0  0  0  0  0  0  0  0
   57.6121   28.2498   42.9259 H   0  0  0  0  0  0  0  0  0  0  0  0
   57.9071   35.0479   44.1223 H   0  0  0  0  0  0  0  0  0  0  0  0
   59.2666   36.4401   45.7096 H   0  0  0  0  0  0  0  0  0  0  0  0
   60.6338   35.3358   47.4839 H   0  0  0  0  0  0  0  0  0  0  0  0
   60.6824   32.8399   47.6786 H   0  0  0  0  0  0  0  0  0  0  0  0
  1  2  1  0
  2  3  1  0
  2  4  1  0
  4  5  1  0
  5  6  1  0
  6  7  1  0
  7  8  2  0
  8  9  1  0
  9 10  2  0
 10 11  1  0
 11 12  2  0
 12 13  1  0
 13 14  2  0
 14 15  1  0
 14 16  1  0
 16 17  1  0
 17 18  1  0
 18 19  2  0
 19 20  1  0
 20 21  2  0
 21 22  1  0
 22 23  2  0
 23 24  1  0
 24  7  1  0
 13  8  1  0
 24 16  2  0
 23 18  1  0
  1 25  1  0
  1 26  1  0
  1 27  1  0
  3 28  1  0
  3 29  1  0
  3 30  1  0
  4 31  1  0
  4 32  1  0
  5 33  1  0
  5 34  1  0
  6 35  1  0
  9 36  1  0
 10 37  1  0
 11 38  1  0
 12 39  1  0
 15 40  1  0
 15 41  1  0
 15 42  1  0
 19 43  1  0
 20 44  1  0
 21 45  1  0
 22 46  1  0
M  CHG  1  14   1
M  END
>  <UniqueID>  (15) 
15

>  <SMILES>  (15) 
CN(C)CCNc1c2ccccc2[n+](C)c2sc3ccccc3c12

>  <Energy>  (15) 
101.62152916102046

>  <Genealogy>  (15) 
CN(C)CCNc1c2ccccc2[n+](C)c2sc3ccccc3c12 (3D coordinates assigned)
CN(C)CCNc1c2ccccc2[n+](C)c2sc3ccccc3c12 (optimized conformer: 101.62152916102046 kcal/mol)

>  <smiles>  (15) 
CN(C)CCNc1c2ccccc2[n+](C)c2sc3ccccc3c12

>  <score_type>  (15) 
oracle

>  <origin>  (15) 
adg

>  <m_score__min__energy>  (15) 
-5.9900000000000002

>  <m_primary>  (15) 
energy

$$$$
15:0
     RDKit          3D

 50 53  0  0  0  0  0  0  0  0999 V2000
   58.2700   26.3140   46.8330 C   0  0  0  0  0  0  0  0  0  0  0  0
   59.6530   26.0850   46.2130 C   0  0  0  0  0  0  0  0  0  0  0  0
   60.7080   26.8550   46.8930 N   0  0  0  0  0  0  0  0  0  0  0  0
   60.2930   27.2820   48.2380 C   0  0  0  0  0  0  0  0  0  0  0  0
   60.3710   28.8100   48.3890 C   0  0  0  0  0  0  0  0  0  0  0  0
   60.7580   29.4690   47.1360 N   0  0  0  0  0  0  0  0  0  0  0  0
   60.5270   30.8650   46.8920 C   0  0  0  0  0  0  0  0  0  0  0  0
   61.2690   31.8640   47.5570 C   0  0  0  0  0  0  0  0  0  0  0  0
   62.3890   31.5300   48.3430 C   0  0  0  0  0  0  0  0  0  0  0  0
   63.0880   32.5100   49.0430 C   0  0  0  0  0  0  0  0  0  0  0  0
   62.6860   33.8400   48.9720 C   0  0  0  0  0  0  0  0  0  0  0  0
   61.6040   34.2060   48.1710 C   0  0  0  0  0  0  0  0  0  0  0  0
   60.8940   33.2410   47.4140 C   0  0  0  0  0  0  0  0  0  0  0  0
   59.8600   33.6040   46.5640 N   0  0  0  0  0  0  0  0  0  0  0  0
   59.6940   35.0110   46.1540 C   0  0  0  0  0  0  0  0  0  0  0  0
   59.0910   32.6070   46.0060 C   0  0  0  0  0  0  0  0  0  0  0  0
   59.4610   31.2770   46.0940 C   0  0  0  0  0  0  0  0  0  0  0  0
   58.5340   30.5630   45.3520 C   0  0  0  0  0  0  0  0  0  0  0  0
   58.4280   29.2040   45.0400 C   0  0  0  0  0  0  0  0  0  0  0  0
   57.3350   28.7870   44.2630 C   0  0  0  0  0  0  0  0  0  0  0  0
   56.3840   29.7210   43.8070 C   0  0  0  0  0  0  0  0  0  0  0  0
   56.5170   31.0840   44.1200 C   0  0  0  0  0  0  0  0  0  0  0  0
   57.6120   31.4840   44.8970 C   0  0  0  0  0  0  0  0  0  0  0  0
   57.9170   32.7370   45.3160 N   0  0  0  0  0  0  0  0  0  0  0  0
   57.0210   33.8940   45.2150 C   0  0  0  0  0  0  0  0  0  0  0  0
   58.3530   26.3003   47.9298 H   0  0  0  0  0  0  0  0  0  0  0  0
   57.8790   27.2891   46.5071 H   0  0  0  0  0  0  0  0  0  0  0  0
   57.5855   25.5170   46.5071 H   0  0  0  0  0  0  0  0  0  0  0  0
   59.8976   25.0147   46.2808 H   0  0  0  0  0  0  0  0  0  0  0  0
   59.6118   26.4239   45.1673 H   0  0  0  0  0  0  0  0  0  0  0  0
   61.5770   26.2780   46.9400 H   0  0  0  0  0  0  0  0  0  0  0  0
   59.2567   26.9573   48.4130 H   0  0  0  0  0  0  0  0  0  0  0  0
   60.9735   26.8258   48.9720 H   0  0  0  0  0  0  0  0  0  0  0  0
   59.3849   29.1868   48.6982 H   0  0  0  0  0  0  0  0  0  0  0  0
   61.1391   29.0374   49.1429 H   0  0  0  0  0  0  0  0  0  0  0  0
   61.2480   28.9130   46.4010 H   0  0  0  0  0  0  0  0  0  0  0  0
   62.7157   30.4815   48.4047 H   0  0  0  0  0  0  0  0  0  0  0  0
   63.9599   32.2320   49.6534 H   0  0  0  0  0  0  0  0  0  0  0  0
   63.2236   34.6062   49.5499 H   0  0  0  0  0  0  0  0  0  0  0  0
   61.2968   35.2613   48.1263 H   0  0  0  0  0  0  0  0  0  0  0  0
   59.6190   35.6471   47.0483 H   0  0  0  0  0  0  0  0  0  0  0  0
   60.5616   35.3229   45.5540 H   0  0  0  0  0  0  0  0  0  0  0  0
   58.7777   35.1124   45.5540 H   0  0  0  0  0  0  0  0  0  0  0  0
   59.1793   28.4822   45.3931 H   0  0  0  0  0  0  0  0  0  0  0  0
   57.2206   27.7230   44.0085 H   0  0  0  0  0  0  0  0  0  0  0  0
   55.5311   29.3805   43.2015 H   0  0  0  0  0  0  0  0  0  0  0  0
   55.7799   31.8188   43.7640 H   0  0  0  0  0  0  0  0  0  0  0  0
   56.7533   34.2397   46.2244 H   0  0  0  0  0  0  0  0  0  0  0  0
   57.5290   34.7049   44.6724 H   0  0  0  0  0  0  0  0  0  0  0  0
   56.1088   33.6051   44.6724 H   0  0  0  0  0  0  0  0  0  0  0  0
  1  2  1  0
  2  3  1  0
  3  4  1  0
  4  5  1  0
  5  6  1  0
  6  7  1  0
  7  8  2  0
  8  9  1  0
  9 10  2  0
 10 11  1  0
 11 12  2  0
 12 13  1  0
 13 14  2  0
 14 15  1  0
 14 16  1  0
 16 17  2  0
 17 18  1  0
 18 19  2  0
 19 20  1  0
 20 21  2  0
 21 22  1  0
 22 23  2  0
 23 24  1  0
 24 25  1  0
 17  7  1  0
 23 18  1  0
 13  8  1  0
 24 16  1  0
  1 26  1  0
  1 27  1  0
  1 28  1  0
  2 29  1  0
  2 30  1  0
  3 31  1  0
  4 32  1  0
  4 33  1  0
  5 34  1  0
  5 35  1  0
  6 36  1  0
  9 37  1  0
 10 38  1  0
 11 39  1  0
 12 40  1  0
 15 41  1  0
 15 42  1  0
 15 43  1  0
 19 44  1  0
 20 45  1  0
 21 46  1  0
 22 47  1  0
 25 48  1  0
 25 49  1  0
 25 50  1  0
M  CHG  1  14   1
M  END
>  <UniqueID>  (16) 
16

>  <SMILES>  (16) 
CCNCCNc1c2ccccc2[n+](C)c2c1c1ccccc1n2C

>  <Energy>  (16) 
114.90354429803025

>  <Genealogy>  (16) 
CCNCCNc1c2ccccc2[n+](C)c2c1c1ccccc1n2C (3D coordinates assigned)
CCNCCNc1c2ccccc2[n+](C)c2c1c1ccccc1n2C (optimized conformer: 114.90354429803025 kcal/mol)

>  <smiles>  (16) 
CCNCCNc1c2ccccc2[n+](C)c2c1c1ccccc1n2C

>  <score_type>  (16) 
oracle

>  <origin>  (16) 
adg

>  <m_score__min__energy>  (16) 
-6.5999999999999996

>  <m_primary>  (16) 
energy

$$$$
16:0
     RDKit          3D

 39 40  0  0  0  0  0  0  0  0999 V2000
   55.8840   30.0280   43.9610 C   0  0  0  0  0  0  0  0  0  0  0  0
   57.1650   30.8540   43.9830 C   0  0  0  0  0  0  0  0  0  0  0  0
   57.3690   31.4400   45.2690 O   0  0  0  0  0  0  0  0  0  0  0  0
   58.0860   32.6200   45.5320 C   0  0  0  0  0  0  0  0  0  0  0  0
   58.2290   33.6420   44.5700 C   0  0  0  0  0  0  0  0  0  0  0  0
   58.9480   34.8010   44.8700 C   0  0  0  0  0  0  0  0  0  0  0  0
   59.5280   34.9610   46.1270 C   0  0  0  0  0  0  0  0  0  0  0  0
   59.3940   33.9610   47.0910 C   0  0  0  0  0  0  0  0  0  0  0  0
   58.6750   32.7860   46.8070 C   0  0  0  0  0  0  0  0  0  0  0  0
   58.5280   31.7690   47.8250 N   0  0  0  0  0  0  0  0  0  0  0  0
   59.8290   31.3620   48.3880 C   0  0  0  0  0  0  0  0  0  0  0  0
   59.9400   29.8460   48.6050 C   0  0  0  0  0  0  0  0  0  0  0  0
   58.8130   29.1840   48.0340 O   0  0  0  0  0  0  0  0  0  0  0  0
   58.7700   28.6760   46.7280 C   0  0  0  0  0  0  0  0  0  0  0  0
   57.7650   27.7870   46.2960 C   0  0  0  0  0  0  0  0  0  0  0  0
   57.7700   27.3060   44.9820 C   0  0  0  0  0  0  0  0  0  0  0  0
   58.7720   27.7050   44.0930 C   0  0  0  0  0  0  0  0  0  0  0  0
   59.7700   28.5870   44.5160 C   0  0  0  0  0  0  0  0  0  0  0  0
   59.7680   29.0700   45.8280 C   0  0  0  0  0  0  0  0  0  0  0  0
   55.5633   29.8212   44.9927 H   0  0  0  0  0  0  0  0  0  0  0  0
   55.0954   30.5882   43.4372 H   0  0  0  0  0  0  0  0  0  0  0  0
   56.0689   29.0785   43.4372 H   0  0  0  0  0  0  0  0  0  0  0  0
   58.0184   30.2023   43.7443 H   0  0  0  0  0  0  0  0  0  0  0  0
   57.0779   31.6592   43.2387 H   0  0  0  0  0  0  0  0  0  0  0  0
   57.7710   33.5251   43.5767 H   0  0  0  0  0  0  0  0  0  0  0  0
   59.0569   35.5903   44.1116 H   0  0  0  0  0  0  0  0  0  0  0  0
   60.0919   35.8764   46.3595 H   0  0  0  0  0  0  0  0  0  0  0  0
   59.8545   34.0928   48.0812 H   0  0  0  0  0  0  0  0  0  0  0  0
   58.0270   30.9330   47.4420 H   0  0  0  0  0  0  0  0  0  0  0  0
   57.9310   32.1400   48.5990 H   0  0  0  0  0  0  0  0  0  0  0  0
   60.6243   31.6764   47.6962 H   0  0  0  0  0  0  0  0  0  0  0  0
   59.9273   31.8437   49.3720 H   0  0  0  0  0  0  0  0  0  0  0  0
   60.8593   29.4766   48.1270 H   0  0  0  0  0  0  0  0  0  0  0  0
   59.9696   29.6387   49.6849 H   0  0  0  0  0  0  0  0  0  0  0  0
   56.9752   27.4707   46.9933 H   0  0  0  0  0  0  0  0  0  0  0  0
   56.9840   26.6127   44.6481 H   0  0  0  0  0  0  0  0  0  0  0  0
   58.7750   27.3249   43.0608 H   0  0  0  0  0  0  0  0  0  0  0  0
   60.5580   28.9016   43.8159 H   0  0  0  0  0  0  0  0  0  0  0  0
   60.5558   29.7643   46.1556 H   0  0  0  0  0  0  0  0  0  0  0  0
  1  2  1  0
  2  3  1  0
  3  4  1  0
  4  5  2  0
  5  6  1  0
  6  7  2  0
  7  8  1  0
  8  9  2  0
  9 10  1  0
 10 11  1  0
 11 12  1  0
 12 13  1  0
 13 14  1  0
 14 15  2  0
 15 16  1  0
 16 17  2  0
 17 18  1  0
 18 19  2  0
  9  4  1  0
 19 14  1  0
  1 20  1  0
  1 21  1  0
  1 22  1  0
  2 23  1  0
  2 24  1  0
  5 25  1  0
  6 26  1  0
  7 27  1  0
  8 28  1  0
 10 29  1  0
 10 30  1  0
 11 31  1  0
 11 32  1  0
 12 33  1  0
 12 34  1  0
 15 35  1  0
 16 36  1  0
 17 37  1  0
 18 38  1  0
 19 39  1  0
M  CHG  1  10   1
M  END
>  <UniqueID>  (17) 
17

>  <SMILES>  (17) 
CCOc1ccccc1[NH2+]CCOc1ccccc1

>  <Energy>  (17) 
36.37614243281581

>  <Genealogy>  (17) 
CCOc1ccccc1[NH2+]CCOc1ccccc1 (protonated)
CCOc1ccccc1[NH2+]CCOc1ccccc1 (3D coordinates assigned)
CCOc1ccccc1[NH2+]CCOc1ccccc1 (optimized conformer: 36.37614243281581 kcal/mol)

>  <smiles>  (17) 
CCOc1ccccc1NCCOc1ccccc1

>  <score_type>  (17) 
oracle

>  <origin>  (17) 
adg

>  <m_score__min__energy>  (17) 
-6.0700000000000003

>  <m_primary>  (17) 
energy

$$$$
17:0
     RDKit          3D

 50 53  0  0  0  0  0  0  0  0999 V2000
   59.3680   30.3300   48.2610 C   0  0  0  0  0  0  0  0  0  0  0  0
   60.2070   31.2290   47.5430 O   0  0  0  0  0  0  0  0  0  0  0  0
   61.4350   31.7260   48.0130 C   0  0  0  0  0  0  0  0  0  0  0  0
   62.1550   31.0710   49.0330 C   0  0  0  0  0  0  0  0  0  0  0  0
   63.3750   31.5870   49.4810 C   0  0  0  0  0  0  0  0  0  0  0  0
   63.8890   32.7550   48.9210 C   0  0  0  0  0  0  0  0  0  0  0  0
   63.1880   33.4140   47.9100 C   0  0  0  0  0  0  0  0  0  0  0  0
   61.9600   32.9100   47.4490 C   0  0  0  0  0  0  0  0  0  0  0  0
   61.2230   33.6610   46.3640 C   0  0  0  0  0  0  0  0  0  0  0  0
   60.2600   34.6190   46.9510 N   0  0  0  0  0  0  0  0  0  0  0  0
   59.2070   33.9510   47.7650 C   0  0  0  0  0  0  0  0  0  0  0  0
   57.8730   33.7600   47.0190 C   0  0  0  0  0  0  0  0  0  0  0  0
   58.1170   33.6480   45.5800 N   0  0  0  0  0  0  0  0  0  0  0  0
   57.8450   32.4270   44.8700 C   0  0  0  0  0  0  0  0  0  0  0  0
   58.0000   31.1960   45.4050 N   0  0  0  0  0  0  0  0  0  0  0  0
   57.7530   30.2000   44.5050 C   0  0  0  0  0  0  0  0  0  0  0  0
   57.8810   28.7630   44.8560 C   0  0  0  0  0  0  0  0  0  0  0  0
   57.8170   28.3420   46.1990 C   0  0  0  0  0  0  0  0  0  0  0  0
   57.9160   26.9860   46.5200 C   0  0  0  0  0  0  0  0  0  0  0  0
   58.0820   26.0350   45.5100 C   0  0  0  0  0  0  0  0  0  0  0  0
   58.2120   24.1820   45.9530 Br  0  0  0  0  0  0  0  0  0  0  0  0
   58.1520   26.4420   44.1750 C   0  0  0  0  0  0  0  0  0  0  0  0
   58.0540   27.7960   43.8480 C   0  0  0  0  0  0  0  0  0  0  0  0
   57.4000   30.6540   43.2310 C   0  0  0  0  0  0  0  0  0  0  0  0
   57.4110   32.3380   43.2490 S   0  0  0  0  0  0  0  0  0  0  0  0
   58.8180   34.7480   44.9120 C   0  0  0  0  0  0  0  0  0  0  0  0
   59.6890   35.5200   45.9230 C   0  0  0  0  0  0  0  0  0  0  0  0
   59.5088   30.4808   49.3415 H   0  0  0  0  0  0  0  0  0  0  0  0
   58.3169   30.5201   47.9981 H   0  0  0  0  0  0  0  0  0  0  0  0
   59.6302   29.2946   47.9981 H   0  0  0  0  0  0  0  0  0  0  0  0
   61.7547   30.1486   49.4790 H   0  0  0  0  0  0  0  0  0  0  0  0
   63.9303   31.0697   50.2773 H   0  0  0  0  0  0  0  0  0  0  0  0
   64.8488   33.1582   49.2764 H   0  0  0  0  0  0  0  0  0  0  0  0
   63.5998   34.3346   47.4708 H   0  0  0  0  0  0  0  0  0  0  0  0
   61.9498   34.2113   45.7485 H   0  0  0  0  0  0  0  0  0  0  0  0
   60.6699   32.9375   45.7470 H   0  0  0  0  0  0  0  0  0  0  0  0
   59.5792   32.9615   48.0691 H   0  0  0  0  0  0  0  0  0  0  0  0
   59.0026   34.6061   48.6247 H   0  0  0  0  0  0  0  0  0  0  0  0
   57.3827   32.8431   47.3780 H   0  0  0  0  0  0  0  0  0  0  0  0
   57.2248   34.6281   47.2093 H   0  0  0  0  0  0  0  0  0  0  0  0
   58.3400   31.0290   46.3780 H   0  0  0  0  0  0  0  0  0  0  0  0
   57.6883   29.0854   46.9995 H   0  0  0  0  0  0  0  0  0  0  0  0
   57.8631   26.6660   47.5711 H   0  0  0  0  0  0  0  0  0  0  0  0
   58.2846   25.6938   43.3796 H   0  0  0  0  0  0  0  0  0  0  0  0
   58.1124   28.1091   42.7951 H   0  0  0  0  0  0  0  0  0  0  0  0
   57.1568   30.0203   42.3654 H   0  0  0  0  0  0  0  0  0  0  0  0
   59.4599   34.3398   44.1174 H   0  0  0  0  0  0  0  0  0  0  0  0
   58.0757   35.4358   44.4808 H   0  0  0  0  0  0  0  0  0  0  0  0
   60.5114   36.0120   45.3831 H   0  0  0  0  0  0  0  0  0  0  0  0
   59.0530   36.2607   46.4298 H   0  0  0  0  0  0  0  0  0  0  0  0
  1  2  1  0
  2  3  1  0
  3  4  2  0
  4  5  1  0
  5  6  2  0
  6  7  1  0
  7  8  2  0
  8  9  1  0
  9 10  1  0
 10 11  1  0
 11 12  1  0
 12 13  1  0
 13 14  1  0
 14 15  2  0
 15 16  1  0
 16 17  1  0
 17 18  2  0
 18 19  1  0
 19 20  2  0
 20 21  1  0
 20 22  1  0
 22 23  2  0
 16 24  2  0
 24 25  1  0
 13 26  1  0
 26 27  1  0
  8  3  1  0
 27 10  1  0
 25 14  1  0
 23 17  1  0
  1 28  1  0
  1 29  1  0
  1 30  1  0
  4 31  1  0
  5 32  1  0
  6 33  1  0
  7 34  1  0
  9 35  1  0
  9 36  1  0
 11 37  1  0
 11 38  1  0
 12 39  1  0
 12 40  1  0
 15 41  1  0
 18 42  1  0
 19 43  1  0
 22 44  1  0
 23 45  1  0
 24 46  1  0
 26 47  1  0
 26 48  1  0
 27 49  1  0
 27 50  1  0
M  CHG  1  15   1
M  END
>  <UniqueID>  (18) 
18

>  <SMILES>  (18) 
COc1ccccc1CN1CCN(c2[nH+]c(-c3ccc(Br)cc3)cs2)CC1

>  <Energy>  (18) 
94.23596266697835

>  <Genealogy>  (18) 
COc1ccccc1CN1CCN(c2[nH+]c(-c3ccc(Br)cc3)cs2)CC1 (protonated)
COc1ccccc1CN1CCN(c2[nH+]c(-c3ccc(Br)cc3)cs2)CC1 (3D coordinates assigned)
COc1ccccc1CN1CCN(c2[nH+]c(-c3ccc(Br)cc3)cs2)CC1 (nonaromatic ring conformer: 94.23596266697835 kcal/mol)

>  <smiles>  (18) 
COc1ccccc1CN1CCN(c2nc(-c3ccc(Br)cc3)cs2)CC1

>  <score_type>  (18) 
oracle

>  <origin>  (18) 
adg

>  <m_score__min__energy>  (18) 
-6.6900000000000004

>  <m_primary>  (18) 
energy

$$$$
18:0
     RDKit          3D

 41 41  0  0  0  0  0  0  0  0999 V2000
   60.8650   30.6310   48.1790 C   0  0  0  0  0  0  0  0  0  0  0  0
   59.3480   30.6720   47.9770 C   0  0  0  0  0  0  0  0  0  0  0  0
   58.9660   30.7100   46.5570 N   0  0  0  0  0  0  0  0  0  0  0  0
   59.3670   29.4930   45.8370 C   0  0  0  0  0  0  0  0  0  0  0  0
   58.1770   28.5350   45.7000 C   0  0  0  0  0  0  0  0  0  0  0  0
   57.1920   28.9670   44.6050 C   0  0  0  0  0  0  0  0  0  0  0  0
   56.6430   30.2440   44.8810 O   0  0  0  0  0  0  0  0  0  0  0  0
   56.9470   31.1710   43.8560 C   0  0  0  0  0  0  0  0  0  0  0  0
   57.4700   32.4960   44.4380 C   0  0  0  0  0  0  0  0  0  0  0  0
   57.0610   32.7020   45.8390 N   0  0  0  0  0  0  0  0  0  0  0  0
   57.8700   33.7170   46.5370 C   0  0  0  0  0  0  0  0  0  0  0  0
   59.2020   33.9250   45.8120 C   0  0  0  0  0  0  0  0  0  0  0  0
   60.3490   33.9990   46.7780 C   0  0  0  0  0  0  0  0  0  0  0  0
   61.6810   33.7490   46.4130 C   0  0  0  0  0  0  0  0  0  0  0  0
   62.5680   33.8150   47.4770 C   0  0  0  0  0  0  0  0  0  0  0  0
   61.6920   34.1690   48.8670 S   0  0  0  0  0  0  0  0  0  0  0  0
   60.1810   34.2480   48.1370 C   0  0  0  0  0  0  0  0  0  0  0  0
   61.0915   30.6249   49.2554 H   0  0  0  0  0  0  0  0  0  0  0  0
   61.2725   29.7215   47.7134 H   0  0  0  0  0  0  0  0  0  0  0  0
   61.3210   31.5171   47.7134 H   0  0  0  0  0  0  0  0  0  0  0  0
   58.9073   29.7748   48.4362 H   0  0  0  0  0  0  0  0  0  0  0  0
   58.9747   31.5940   48.4466 H   0  0  0  0  0  0  0  0  0  0  0  0
   57.9290   30.8280   46.4800 H   0  0  0  0  0  0  0  0  0  0  0  0
   59.7284   29.7674   44.8350 H   0  0  0  0  0  0  0  0  0  0  0  0
   60.1655   28.9908   46.4029 H   0  0  0  0  0  0  0  0  0  0  0  0
   58.5584   27.5328   45.4548 H   0  0  0  0  0  0  0  0  0  0  0  0
   57.6339   28.5407   46.6566 H   0  0  0  0  0  0  0  0  0  0  0  0
   57.7214   29.0052   43.6415 H   0  0  0  0  0  0  0  0  0  0  0  0
   56.3705   28.2363   44.5689 H   0  0  0  0  0  0  0  0  0  0  0  0
   57.7167   30.7395   43.1992 H   0  0  0  0  0  0  0  0  0  0  0  0
   56.0261   31.3791   43.2915 H   0  0  0  0  0  0  0  0  0  0  0  0
   58.5689   32.4926   44.3890 H   0  0  0  0  0  0  0  0  0  0  0  0
   57.0390   33.3140   43.8421 H   0  0  0  0  0  0  0  0  0  0  0  0
   57.1000   31.7960   46.3630 H   0  0  0  0  0  0  0  0  0  0  0  0
   57.3175   34.6679   46.5609 H   0  0  0  0  0  0  0  0  0  0  0  0
   58.0705   33.3719   47.5620 H   0  0  0  0  0  0  0  0  0  0  0  0
   59.3689   33.0841   45.1228 H   0  0  0  0  0  0  0  0  0  0  0  0
   59.1511   34.8770   45.2633 H   0  0  0  0  0  0  0  0  0  0  0  0
   61.9914   33.5225   45.3823 H   0  0  0  0  0  0  0  0  0  0  0  0
   63.6559   33.6622   47.4210 H   0  0  0  0  0  0  0  0  0  0  0  0
   59.2276   34.4591   48.6434 H   0  0  0  0  0  0  0  0  0  0  0  0
  1  2  1  0
  2  3  1  0
  3  4  1  0
  4  5  1  0
  5  6  1  0
  6  7  1  0
  7  8  1  0
  8  9  1  0
  9 10  1  0
 10 11  1  0
 11 12  1  0
 12 13  1  0
 13 14  1  0
 14 15  2  0
 15 16  1  0
 16 17  1  0
 17 13  2  0
  1 18  1  0
  1 19  1  0
  1 20  1  0
  2 21  1  0
  2 22  1  0
  3 23  1  0
  4 24  1  0
  4 25  1  0
  5 26  1  0
  5 27  1  0
  6 28  1  0
  6 29  1  0
  8 30  1  0
  8 31  1  0
  9 32  1  0
  9 33  1  0
 10 34  1  0
 11 35  1  0
 11 36  1  0
 12 37  1  0
 12 38  1  0
 14 39  1  0
 15 40  1  0
 17 41  1  0
M  END
>  <UniqueID>  (19) 
19

>  <SMILES>  (19) 
CCNCCCOCCNCCc1ccsc1

>  <Energy>  (19) 
58.22816668615849

>  <Genealogy>  (19) 
CCNCCCOCCNCCc1ccsc1 (3D coordinates assigned)
CCNCCCOCCNCCc1ccsc1 (optimized conformer: 58.22816668615849 kcal/mol)

>  <smiles>  (19) 
CCNCCCOCCNCCc1ccsc1

>  <score_type>  (19) 
oracle

>  <origin>  (19) 
adg

>  <m_score__min__energy>  (19) 
-4.6900000000000004

>  <m_primary>  (19) 
energy

$$$$
19:0
     RDKit          3D

 43 45  0  0  0  0  0  0  0  0999 V2000
   64.2490   33.1700   49.3360 C   0  0  0  0  0  0  0  0  0  0  0  0
   63.6190   32.0510   48.6190 N   0  0  0  0  0  0  0  0  0  0  0  0
   62.4590   31.5420   49.3840 C   0  0  0  0  0  0  0  0  0  0  0  0
   61.5610   30.6480   48.5240 C   0  0  0  0  0  0  0  0  0  0  0  0
   61.0900   31.3850   47.3450 N   0  0  0  0  0  0  0  0  0  0  0  0
   59.8570   31.0140   46.6910 C   0  0  0  0  0  0  0  0  0  0  0  0
   59.4680   29.6590   46.5700 C   0  0  0  0  0  0  0  0  0  0  0  0
   58.2510   29.2880   45.9270 C   0  0  0  0  0  0  0  0  0  0  0  0
   57.9120   27.8960   45.7530 N   0  0  0  0  0  0  0  0  0  0  0  0
   58.0840   26.8940   46.8090 C   0  0  0  0  0  0  0  0  0  0  0  0
   56.9390   25.8760   46.8180 C   0  0  0  0  0  0  0  0  0  0  0  0
   55.7800   26.3930   46.0960 N   0  0  0  0  0  0  0  0  0  0  0  0
   57.3970   30.3050   45.4090 C   0  0  0  0  0  0  0  0  0  0  0  0
   56.1310   30.0030   44.8070 N   0  0  0  0  0  0  0  0  0  0  0  0
   55.5470   30.8570   44.1080 O   0  0  0  0  0  0  0  0  0  0  0  0
   55.6090   28.7330   44.8890 O   0  0  0  0  0  0  0  0  0  0  0  0
   57.8270   31.6270   45.5380 C   0  0  0  0  0  0  0  0  0  0  0  0
   57.2080   32.7670   45.1960 N   0  0  0  0  0  0  0  0  0  0  0  0
   57.9950   33.7330   45.5900 O   0  0  0  0  0  0  0  0  0  0  0  0
   59.0880   33.3100   46.1740 N   0  0  0  0  0  0  0  0  0  0  0  0
   58.9940   31.9680   46.1470 C   0  0  0  0  0  0  0  0  0  0  0  0
   61.8280   32.5800   46.9150 C   0  0  0  0  0  0  0  0  0  0  0  0
   63.3260   32.4080   47.2050 C   0  0  0  0  0  0  0  0  0  0  0  0
   64.1580   33.0084   50.4203 H   0  0  0  0  0  0  0  0  0  0  0  0
   65.3127   33.2286   49.0620 H   0  0  0  0  0  0  0  0  0  0  0  0
   63.7474   34.1099   49.0620 H   0  0  0  0  0  0  0  0  0  0  0  0
   62.8258   30.9590   50.2417 H   0  0  0  0  0  0  0  0  0  0  0  0
   61.8641   32.4046   49.7188 H   0  0  0  0  0  0  0  0  0  0  0  0
   62.1323   29.7667   48.1970 H   0  0  0  0  0  0  0  0  0  0  0  0
   60.6921   30.3329   49.1205 H   0  0  0  0  0  0  0  0  0  0  0  0
   60.1195   28.8740   46.9815 H   0  0  0  0  0  0  0  0  0  0  0  0
   57.5010   27.5930   44.8420 H   0  0  0  0  0  0  0  0  0  0  0  0
   59.0325   26.3619   46.6441 H   0  0  0  0  0  0  0  0  0  0  0  0
   58.0867   27.4148   47.7779 H   0  0  0  0  0  0  0  0  0  0  0  0
   57.2786   24.9469   46.3369 H   0  0  0  0  0  0  0  0  0  0  0  0
   56.6473   25.6826   47.8608 H   0  0  0  0  0  0  0  0  0  0  0  0
   55.5080   27.3010   46.5370 H   0  0  0  0  0  0  0  0  0  0  0  0
   56.0690   26.6190   45.1170 H   0  0  0  0  0  0  0  0  0  0  0  0
   56.2790   32.8930   44.7360 H   0  0  0  0  0  0  0  0  0  0  0  0
   61.6813   32.7292   45.8351 H   0  0  0  0  0  0  0  0  0  0  0  0
   61.4523   33.4535   47.4680 H   0  0  0  0  0  0  0  0  0  0  0  0
   63.7170   31.6104   46.5562 H   0  0  0  0  0  0  0  0  0  0  0  0
   63.8070   33.3777   47.0096 H   0  0  0  0  0  0  0  0  0  0  0  0
  1  2  1  0
  2  3  1  0
  3  4  1  0
  4  5  1  0
  5  6  1  0
  6  7  2  0
  7  8  1  0
  8  9  1  0
  9 10  1  0
 10 11  1  0
 11 12  1  0
  8 13  2  0
 13 14  1  0
 14 15  2  0
 14 16  1  0
 13 17  1  0
 17 18  2  0
 18 19  1  0
 19 20  1  0
 20 21  2  0
  5 22  1  0
 22 23  1  0
 23  2  1  0
 21  6  1  0
 21 17  1  0
  1 24  1  0
  1 25  1  0
  1 26  1  0
  3 27  1  0
  3 28  1  0
  4 29  1  0
  4 30  1  0
  7 31  1  0
  9 32  1  0
 10 33  1  0
 10 34  1  0
 11 35  1  0
 11 36  1  0
 12 37  1  0
 12 38  1  0
 18 39  1  0
 22 40  1  0
 22 41  1  0
 23 42  1  0
 23 43  1  0
M  CHG  3  14   1  16  -1  18   1
M  END
>  <UniqueID>  (20) 
20

>  <SMILES>  (20) 
CN1CCN(c2cc(NCCN)c([N+](=O)[O-])c3[nH+]onc23)CC1

>  <Energy>  (20) 
100.91928804958079

>  <Genealogy>  (20) 
CN1CCN(c2cc(NCCN)c([N+](=O)[O-])c3[nH+]onc23)CC1 (protonated)
CN1CCN(c2cc(NCCN)c([N+](=O)[O-])c3[nH+]onc23)CC1 (3D coordinates assigned)
CN1CCN(c2cc(NCCN)c([N+](=O)[O-])c3[nH+]onc23)CC1 (nonaromatic ring conformer: 100.91928804958079 kcal/mol)

>  <smiles>  (20) 
CN1CCN(c2cc(NCCN)c([N+](=O)[O-])c3nonc23)CC1

>  <score_type>  (20) 
oracle

>  <origin>  (20) 
adg

>  <m_score__min__energy>  (20) 
-6.0700000000000003

>  <m_primary>  (20) 
energy

$$$$
20:0
     RDKit          3D

 53 55  0  0  0  0  0  0  0  0999 V2000
   57.9684   35.1362   46.8140 H   0  0  0  0  0  0  0  0  0  0  0  0
   58.8210   34.4970   46.5410 C   0  0  0  0  0  0  0  0  0  0  0  0
   60.0200   34.9340   46.8080 N   0  0  0  0  0  0  0  0  0  0  0  0
   61.0540   34.2490   47.5340 C   0  0  0  0  0  0  0  0  0  0  0  0
   60.9480   34.1380   48.9240 C   0  0  0  0  0  0  0  0  0  0  0  0
   60.0753   34.5637   49.4409 H   0  0  0  0  0  0  0  0  0  0  0  0
   61.9430   33.4900   49.6610 C   0  0  0  0  0  0  0  0  0  0  0  0
   61.8377   33.3914   50.7515 H   0  0  0  0  0  0  0  0  0  0  0  0
   63.0780   32.9630   49.0190 C   0  0  0  0  0  0  0  0  0  0  0  0
   64.1300   32.2620   49.7990 C   0  0  0  0  0  0  0  0  0  0  0  0
   63.8080   31.1390   50.5850 C   0  0  0  0  0  0  0  0  0  0  0  0
   62.7689   30.7801   50.6248 H   0  0  0  0  0  0  0  0  0  0  0  0
   64.7990   30.4770   51.3150 C   0  0  0  0  0  0  0  0  0  0  0  0
   64.5375   29.5987   51.9235 H   0  0  0  0  0  0  0  0  0  0  0  0
   66.1220   30.9280   51.2740 C   0  0  0  0  0  0  0  0  0  0  0  0
   67.3930   30.0730   52.2080 S   0  0  0  0  0  0  0  0  0  0  0  0
   67.5080   28.6970   51.0240 C   0  0  0  0  0  0  0  0  0  0  0  0
   67.5874   27.7469   51.5726 H   0  0  0  0  0  0  0  0  0  0  0  0
   66.6080   28.6812   50.3917 H   0  0  0  0  0  0  0  0  0  0  0  0
   68.3981   28.8308   50.3917 H   0  0  0  0  0  0  0  0  0  0  0  0
   66.4540   32.0410   50.4950 C   0  0  0  0  0  0  0  0  0  0  0  0
   67.4952   32.3940   50.4582 H   0  0  0  0  0  0  0  0  0  0  0  0
   65.4660   32.7060   49.7630 C   0  0  0  0  0  0  0  0  0  0  0  0
   65.7340   33.5823   49.1545 H   0  0  0  0  0  0  0  0  0  0  0  0
   63.2020   33.1140   47.6250 C   0  0  0  0  0  0  0  0  0  0  0  0
   64.0903   32.7201   47.1095 H   0  0  0  0  0  0  0  0  0  0  0  0
   62.2040   33.7610   46.8920 C   0  0  0  0  0  0  0  0  0  0  0  0
   62.3196   33.8890   45.8056 H   0  0  0  0  0  0  0  0  0  0  0  0
   58.5320   33.1980   45.8950 C   0  0  0  0  0  0  0  0  0  0  0  0
   58.0960   33.1750   44.5650 C   0  0  0  0  0  0  0  0  0  0  0  0
   57.9745   34.1193   44.0141 H   0  0  0  0  0  0  0  0  0  0  0  0
   57.8140   31.9620   43.9320 C   0  0  0  0  0  0  0  0  0  0  0  0
   57.4860   31.9582   42.8821 H   0  0  0  0  0  0  0  0  0  0  0  0
   57.9460   30.7450   44.6260 C   0  0  0  0  0  0  0  0  0  0  0  0
   57.6860   29.4870   43.9620 N   0  0  0  0  0  0  0  0  0  0  0  0
   58.5610   28.3280   44.1990 C   0  0  0  0  0  0  0  0  0  0  0  0
   58.4859   28.0311   45.2555 H   0  0  0  0  0  0  0  0  0  0  0  0
   59.5939   28.6130   43.9504 H   0  0  0  0  0  0  0  0  0  0  0  0
   58.1580   27.1470   43.3190 C   0  0  0  0  0  0  0  0  0  0  0  0
   57.8682   26.2977   43.9552 H   0  0  0  0  0  0  0  0  0  0  0  0
   57.3077   27.4363   42.6839 H   0  0  0  0  0  0  0  0  0  0  0  0
   59.0078   26.8562   42.6839 H   0  0  0  0  0  0  0  0  0  0  0  0
   56.5440   29.3460   43.0440 C   0  0  0  0  0  0  0  0  0  0  0  0
   56.6905   30.0131   42.1817 H   0  0  0  0  0  0  0  0  0  0  0  0
   56.4858   28.2984   42.7136 H   0  0  0  0  0  0  0  0  0  0  0  0
   55.2360   29.7110   43.7420 C   0  0  0  0  0  0  0  0  0  0  0  0
   55.3786   29.6712   44.8320 H   0  0  0  0  0  0  0  0  0  0  0  0
   54.9350   30.7275   43.4484 H   0  0  0  0  0  0  0  0  0  0  0  0
   54.4522   28.9973   43.4484 H   0  0  0  0  0  0  0  0  0  0  0  0
   58.3410   30.7760   45.9760 C   0  0  0  0  0  0  0  0  0  0  0  0
   58.4316   29.8355   46.5393 H   0  0  0  0  0  0  0  0  0  0  0  0
   58.6190   31.9900   46.6070 C   0  0  0  0  0  0  0  0  0  0  0  0
   58.9080   32.0007   47.6683 H   0  0  0  0  0  0  0  0  0  0  0  0
  1  2  1  0
  2  3  2  0
  3  4  1  0
  4  5  2  0
  5  6  1  0
  5  7  1  0
  7  8  1  0
  7  9  2  0
  9 10  1  0
 10 11  2  0
 11 12  1  0
 11 13  1  0
 13 14  1  0
 13 15  2  0
 15 16  1  0
 16 17  1  0
 17 18  1  0
 17 19  1  0
 17 20  1  0
 15 21  1  0
 21 22  1  0
 21 23  2  0
 23 24  1  0
  9 25  1  0
 25 26  1  0
 25 27  2  0
 27 28  1  0
  2 29  1  0
 29 30  2  0
 30 31  1  0
 30 32  1  0
 32 33  1  0
 32 34  2  0
 34 35  1  0
 35 36  1  0
 36 37  1  0
 36 38  1  0
 36 39  1  0
 39 40  1  0
 39 41  1  0
 39 42  1  0
 35 43  1  0
 43 44  1  0
 43 45  1  0
 43 46  1  0
 46 47  1  0
 46 48  1  0
 46 49  1  0
 34 50  1  0
 50 51  1  0
 50 52  2  0
 52 53  1  0
 27  4  1  0
 52 29  1  0
 23 10  1  0
M  END
>  <UniqueID>  (21) 
21

>  <SMILES>  (21) 
CCN(CC)c1ccc(/C=N\c2ccc(-c3ccc(SC)cc3)cc2)cc1

>  <Energy>  (21) 
64.20499510092971

>  <Genealogy>  (21) 
CCN(CC)c1ccc(/C=N\c2ccc(-c3ccc(SC)cc3)cc2)cc1 (cis-trans isomerization)
CCN(CC)c1ccc(/C=N\c2ccc(-c3ccc(SC)cc3)cc2)cc1 (3D coordinates assigned)
CCN(CC)c1ccc(/C=N\c2ccc(-c3ccc(SC)cc3)cc2)cc1 (optimized conformer: 64.20499510092971 kcal/mol)

>  <smiles>  (21) 
CCN(CC)c1ccc(C=Nc2ccc(-c3ccc(SC)cc3)cc2)cc1

>  <score_type>  (21) 
oracle

>  <origin>  (21) 
adg

>  <m_score__min__energy>  (21) 
-8.1699999999999999

>  <m_primary>  (21) 
energy

$$$$
21:0
     RDKit          3D

 48 51  0  0  0  0  0  0  0  0999 V2000
   61.3340   33.4660   51.1710 C   0  0  0  0  0  0  0  0  0  0  0  0
   61.3910   33.5900   49.6730 C   0  0  0  0  0  0  0  0  0  0  0  0
   60.3050   34.1500   48.9830 C   0  0  0  0  0  0  0  0  0  0  0  0
   60.3250   34.2650   47.5880 C   0  0  0  0  0  0  0  0  0  0  0  0
   59.1680   34.8970   46.8630 C   0  0  0  0  0  0  0  0  0  0  0  0
   59.4320   34.9050   45.4220 N   0  0  0  0  0  0  0  0  0  0  0  0
   58.5650   33.9130   44.7660 C   0  0  2  0  0  0  0  0  0  0  0  0
   57.1050   33.9950   45.2090 C   0  0  0  0  0  0  0  0  0  0  0  0
   57.9850   32.8420   45.6880 C   0  0  1  0  0  0  0  0  0  0  0  0
   57.7610   31.4760   45.0620 C   0  0  0  0  0  0  0  0  0  0  0  0
   56.7170   31.1920   44.1530 C   0  0  0  0  0  0  0  0  0  0  0  0
   56.5760   29.9110   43.6130 C   0  0  0  0  0  0  0  0  0  0  0  0
   57.4720   28.8990   43.9640 C   0  0  0  0  0  0  0  0  0  0  0  0
   58.5110   29.1660   44.8570 C   0  0  0  0  0  0  0  0  0  0  0  0
   58.6560   30.4450   45.4020 C   0  0  0  0  0  0  0  0  0  0  0  0
   61.4590   33.8530   46.8790 C   0  0  0  0  0  0  0  0  0  0  0  0
   62.5670   33.3130   47.5480 C   0  0  0  0  0  0  0  0  0  0  0  0
   63.7710   32.8760   46.7590 C   0  0  0  0  0  0  0  0  0  0  0  0
   62.5320   33.1720   48.9530 C   0  0  0  0  0  0  0  0  0  0  0  0
   63.6560   32.6130   49.6480 N   0  0  0  0  0  0  0  0  0  0  0  0
   64.8550   33.1940   49.8430 C   0  0  0  0  0  0  0  0  0  0  0  0
   65.6440   32.3140   50.5550 C   0  0  0  0  0  0  0  0  0  0  0  0
   64.9300   31.1960   50.7980 N   0  0  0  0  0  0  0  0  0  0  0  0
   63.7240   31.4030   50.2340 C   0  0  0  0  0  0  0  0  0  0  0  0
   61.7515   34.3742   51.6302 H   0  0  0  0  0  0  0  0  0  0  0  0
   60.2884   33.3417   51.4891 H   0  0  0  0  0  0  0  0  0  0  0  0
   61.9205   32.5914   51.4891 H   0  0  0  0  0  0  0  0  0  0  0  0
   59.4276   34.5028   49.5449 H   0  0  0  0  0  0  0  0  0  0  0  0
   58.2525   34.3212   47.0636 H   0  0  0  0  0  0  0  0  0  0  0  0
   59.0391   35.9311   47.2151 H   0  0  0  0  0  0  0  0  0  0  0  0
   59.2410   35.8710   45.0620 H   0  0  0  0  0  0  0  0  0  0  0  0
   59.1003   33.8939   43.8052 H   0  0  0  0  0  0  0  0  0  0  0  0
   56.7878   34.7755   45.9163 H   0  0  0  0  0  0  0  0  0  0  0  0
   56.1379   34.0720   44.6905 H   0  0  0  0  0  0  0  0  0  0  0  0
   58.2403   32.4286   46.6749 H   0  0  0  0  0  0  0  0  0  0  0  0
   56.0101   31.9853   43.8684 H   0  0  0  0  0  0  0  0  0  0  0  0
   55.7572   29.6992   42.9097 H   0  0  0  0  0  0  0  0  0  0  0  0
   57.3590   27.8917   43.5368 H   0  0  0  0  0  0  0  0  0  0  0  0
   59.2169   28.3686   45.1323 H   0  0  0  0  0  0  0  0  0  0  0  0
   59.4783   30.6475   46.1040 H   0  0  0  0  0  0  0  0  0  0  0  0
   61.4816   33.9539   45.7839 H   0  0  0  0  0  0  0  0  0  0  0  0
   64.5757   32.5839   47.4497 H   0  0  0  0  0  0  0  0  0  0  0  0
   63.5024   32.0180   46.1252 H   0  0  0  0  0  0  0  0  0  0  0  0
   64.1152   33.7065   46.1252 H   0  0  0  0  0  0  0  0  0  0  0  0
   65.1531   34.1943   49.4957 H   0  0  0  0  0  0  0  0  0  0  0  0
   66.6819   32.4942   50.8715 H   0  0  0  0  0  0  0  0  0  0  0  0
   65.2470   30.3470   51.3140 H   0  0  0  0  0  0  0  0  0  0  0  0
   62.8993   30.6753   50.2503 H   0  0  0  0  0  0  0  0  0  0  0  0
  1  2  1  0
  2  3  2  0
  3  4  1  0
  4  5  1  0
  5  6  1  0
  6  7  1  0
  7  8  1  0
  8  9  1  0
  9 10  1  0
 10 11  2  0
 11 12  1  0
 12 13  2  0
 13 14  1  0
 14 15  2  0
  4 16  2  0
 16 17  1  0
 17 18  1  0
 17 19  2  0
 19 20  1  0
 20 21  1  0
 21 22  2  0
 22 23  1  0
 23 24  2  0
 19  2  1  0
 24 20  1  0
  9  7  1  0
 15 10  1  0
  1 25  1  0
  1 26  1  0
  1 27  1  0
  3 28  1  0
  5 29  1  0
  5 30  1  0
  6 31  1  0
  7 32  1  6
  8 33  1  0
  8 34  1  0
  9 35  1  1
 11 36  1  0
 12 37  1  0
 13 38  1  0
 14 39  1  0
 15 40  1  0
 16 41  1  0
 18 42  1  0
 18 43  1  0
 18 44  1  0
 21 45  1  0
 22 46  1  0
 23 47  1  0
 24 48  1  0
M  CHG  1  23   1
M  END
>  <UniqueID>  (22) 
22

>  <SMILES>  (22) 
Cc1cc(CN[C@@H]2C[C@H]2c2ccccc2)cc(C)c1-n1cc[nH+]c1

>  <Energy>  (22) 
357.8007640134564

>  <Genealogy>  (22) 
Cc1cc(CNC2CC2c2ccccc2)cc(C)c1-n1cc[nH+]c1 (protonated)
Cc1cc(CN[C@@H]2C[C@H]2c2ccccc2)cc(C)c1-n1cc[nH+]c1 (chirality)
Cc1cc(CN[C@@H]2C[C@H]2c2ccccc2)cc(C)c1-n1cc[nH+]c1 (3D coordinates assigned)
Cc1cc(CN[C@@H]2C[C@H]2c2ccccc2)cc(C)c1-n1cc[nH+]c1 (nonaromatic ring conformer: 357.8007640134564 kcal/mol)

>  <smiles>  (22) 
Cc1cc(CNC2CC2c2ccccc2)cc(C)c1-n1ccnc1

>  <score_type>  (22) 
oracle

>  <origin>  (22) 
adg

>  <m_score__min__energy>  (22) 
-7.1600000000000001

>  <m_primary>  (22) 
energy

$$$$
22:0
     RDKit          3D

 48 50  0  0  0  0  0  0  0  0999 V2000
   57.8070   27.4610   44.3500 C   0  0  0  0  0  0  0  0  0  0  0  0
   57.6100   27.4720   45.8630 C   0  0  0  0  0  0  0  0  0  0  0  0
   58.9180   27.4770   46.5550 N   0  0  0  0  0  0  0  0  0  0  0  0
   59.0100   26.3220   47.4670 C   0  0  0  0  0  0  0  0  0  0  0  0
   60.0420   27.4690   45.5910 C   0  0  0  0  0  0  0  0  0  0  0  0
   60.7880   28.8070   45.6340 C   0  0  0  0  0  0  0  0  0  0  0  0
   60.3350   29.6220   46.7630 N   0  0  0  0  0  0  0  0  0  0  0  0
   60.2790   31.0590   46.6910 C   0  0  0  0  0  0  0  0  0  0  0  0
   61.3500   31.8380   47.1630 C   0  0  0  0  0  0  0  0  0  0  0  0
   62.4530   31.2380   47.8060 C   0  0  0  0  0  0  0  0  0  0  0  0
   63.5470   32.0020   48.2040 C   0  0  0  0  0  0  0  0  0  0  0  0
   63.5610   33.3710   47.9680 C   0  0  0  0  0  0  0  0  0  0  0  0
   62.4630   33.9920   47.3750 C   0  0  0  0  0  0  0  0  0  0  0  0
   61.3120   33.2500   47.0050 C   0  0  0  0  0  0  0  0  0  0  0  0
   60.1820   33.8620   46.4950 N   0  0  0  0  0  0  0  0  0  0  0  0
   60.0330   35.3330   46.5890 C   0  0  0  0  0  0  0  0  0  0  0  0
   59.1720   33.1000   45.9360 C   0  0  0  0  0  0  0  0  0  0  0  0
   58.1170   33.6890   45.1940 C   0  0  0  0  0  0  0  0  0  0  0  0
   57.0750   32.9160   44.6820 C   0  0  0  0  0  0  0  0  0  0  0  0
   57.0500   31.5390   44.8800 C   0  0  0  0  0  0  0  0  0  0  0  0
   55.9570   30.7820   44.3420 N   0  0  0  0  0  0  0  0  0  0  0  0
   56.0800   30.0580   43.3530 N   0  0  0  0  0  0  0  0  0  0  0  0
   56.2030   29.3340   42.3660 N   0  0  0  0  0  0  0  0  0  0  0  0
   58.1030   30.9280   45.5770 C   0  0  0  0  0  0  0  0  0  0  0  0
   59.1810   31.6880   46.0770 C   0  0  0  0  0  0  0  0  0  0  0  0
   58.8811   27.4010   44.1205 H   0  0  0  0  0  0  0  0  0  0  0  0
   57.2909   26.5903   43.9194 H   0  0  0  0  0  0  0  0  0  0  0  0
   57.3910   28.3838   43.9194 H   0  0  0  0  0  0  0  0  0  0  0  0
   57.0459   28.3723   46.1482 H   0  0  0  0  0  0  0  0  0  0  0  0
   57.0552   26.5686   46.1565 H   0  0  0  0  0  0  0  0  0  0  0  0
   58.9819   26.6742   48.5087 H   0  0  0  0  0  0  0  0  0  0  0  0
   58.1630   25.6438   47.2863 H   0  0  0  0  0  0  0  0  0  0  0  0
   59.9537   25.7864   47.2863 H   0  0  0  0  0  0  0  0  0  0  0  0
   60.7373   26.6572   45.8508 H   0  0  0  0  0  0  0  0  0  0  0  0
   59.6436   27.3135   44.5776 H   0  0  0  0  0  0  0  0  0  0  0  0
   61.8661   28.6150   45.7381 H   0  0  0  0  0  0  0  0  0  0  0  0
   60.5832   29.3536   44.7016 H   0  0  0  0  0  0  0  0  0  0  0  0
   59.9770   29.1480   47.6220 H   0  0  0  0  0  0  0  0  0  0  0  0
   62.4488   30.1544   47.9951 H   0  0  0  0  0  0  0  0  0  0  0  0
   64.4002   31.5216   48.7053 H   0  0  0  0  0  0  0  0  0  0  0  0
   64.4415   33.9669   48.2501 H   0  0  0  0  0  0  0  0  0  0  0  0
   62.4895   35.0761   47.1908 H   0  0  0  0  0  0  0  0  0  0  0  0
   60.0028   35.6316   47.6473 H   0  0  0  0  0  0  0  0  0  0  0  0
   60.8864   35.8203   46.0948 H   0  0  0  0  0  0  0  0  0  0  0  0
   59.0992   35.6393   46.0948 H   0  0  0  0  0  0  0  0  0  0  0  0
   58.1204   34.7750   45.0190 H   0  0  0  0  0  0  0  0  0  0  0  0
   56.2651   33.3997   44.1162 H   0  0  0  0  0  0  0  0  0  0  0  0
   58.0878   29.8397   45.7360 H   0  0  0  0  0  0  0  0  0  0  0  0
  1  2  1  0
  2  3  1  0
  3  4  1  0
  3  5  1  0
  5  6  1  0
  6  7  1  0
  7  8  1  0
  8  9  2  0
  9 10  1  0
 10 11  2  0
 11 12  1  0
 12 13  2  0
 13 14  1  0
 14 15  2  0
 15 16  1  0
 15 17  1  0
 17 18  2  0
 18 19  1  0
 19 20  2  0
 20 21  1  0
 21 22  2  0
 22 23  2  0
 20 24  1  0
 24 25  2  0
 25  8  1  0
 14  9  1  0
 25 17  1  0
  1 26  1  0
  1 27  1  0
  1 28  1  0
  2 29  1  0
  2 30  1  0
  4 31  1  0
  4 32  1  0
  4 33  1  0
  5 34  1  0
  5 35  1  0
  6 36  1  0
  6 37  1  0
  7 38  1  0
 10 39  1  0
 11 40  1  0
 12 41  1  0
 13 42  1  0
 16 43  1  0
 16 44  1  0
 16 45  1  0
 18 46  1  0
 19 47  1  0
 24 48  1  0
M  CHG  3  15   1  22   1  23  -1
M  END
>  <UniqueID>  (23) 
23

>  <SMILES>  (23) 
CCN(C)CCNc1c2ccccc2[n+](C)c2ccc(N=[N+]=[N-])cc12

>  <Energy>  (23) 
74.00071542486683

>  <Genealogy>  (23) 
CCN(C)CCNc1c2ccccc2[n+](C)c2ccc(N=[N+]=[N-])cc12 (3D coordinates assigned)
CCN(C)CCNc1c2ccccc2[n+](C)c2ccc(N=[N+]=[N-])cc12 (optimized conformer: 74.00071542486683 kcal/mol)

>  <smiles>  (23) 
CCN(C)CCNc1c2ccccc2[n+](C)c2ccc(N=[N+]=[N-])cc12

>  <score_type>  (23) 
oracle

>  <origin>  (23) 
adg

>  <m_score__min__energy>  (23) 
-6.3099999999999996

>  <m_primary>  (23) 
energy

$$$$
23:0
     RDKit          3D

 64 67  0  0  0  0  0  0  0  0999 V2000
   58.9340   22.3630   44.5680 C   0  0  0  0  0  0  0  0  0  0  0  0
   57.6810   22.6050   43.8360 N   0  0  0  0  0  0  0  0  0  0  0  0
   57.3180   21.4510   43.0010 C   0  0  0  0  0  0  0  0  0  0  0  0
   56.5780   23.0590   44.7130 C   0  0  0  0  0  0  0  0  0  0  0  0
   56.2080   24.5540   44.5500 C   0  0  0  0  0  0  0  0  0  0  0  0
   57.3440   25.3580   44.0650 N   0  0  0  0  0  0  0  0  0  0  0  0
   57.9560   26.1200   45.1270 C   0  0  0  0  0  0  0  0  0  0  0  0
   58.5090   25.4710   46.2550 C   0  0  0  0  0  0  0  0  0  0  0  0
   59.0910   26.2130   47.2980 C   0  0  0  0  0  0  0  0  0  0  0  0
   59.1370   27.6120   47.2360 C   0  0  0  0  0  0  0  0  0  0  0  0
   58.5920   28.2410   46.1170 C   0  0  0  0  0  0  0  0  0  0  0  0
   58.0150   27.5260   45.0850 C   0  0  0  0  0  0  0  0  0  0  0  0
   57.5320   28.4490   43.9990 C   0  0  0  0  0  0  0  0  0  0  0  0
   57.9120   29.7950   44.5670 C   0  0  0  0  0  0  0  0  0  0  0  0
   58.5240   29.6490   45.7920 C   0  0  0  0  0  0  0  0  0  0  0  0
   58.9650   30.7430   46.5160 C   0  0  0  0  0  0  0  0  0  0  0  0
   58.7750   32.0240   45.9710 C   0  0  0  0  0  0  0  0  0  0  0  0
   59.2080   33.1680   46.6760 C   0  0  0  0  0  0  0  0  0  0  0  0
   59.8330   33.0050   47.9250 O   0  0  0  0  0  0  0  0  0  0  0  0
   60.5370   34.0280   48.6250 C   0  0  0  0  0  0  0  0  0  0  0  0
   62.0430   33.8180   48.4600 C   0  0  0  0  0  0  0  0  0  0  0  0
   62.3460   33.1060   47.1990 N   0  0  0  0  0  0  0  0  0  0  0  0
   62.8490   31.7470   47.4650 C   0  0  0  0  0  0  0  0  0  0  0  0
   63.3470   33.8550   46.4230 C   0  0  0  0  0  0  0  0  0  0  0  0
   59.0050   34.4400   46.1170 C   0  0  0  0  0  0  0  0  0  0  0  0
   58.3840   34.5780   44.8790 C   0  0  0  0  0  0  0  0  0  0  0  0
   57.9530   33.4570   44.1730 C   0  0  0  0  0  0  0  0  0  0  0  0
   58.1350   32.1560   44.6960 C   0  0  0  0  0  0  0  0  0  0  0  0
   57.7110   31.0290   44.0050 N   0  0  0  0  0  0  0  0  0  0  0  0
   57.0520   31.1430   42.6920 C   0  0  0  0  0  0  0  0  0  0  0  0
   58.7396   22.4005   45.6500 H   0  0  0  0  0  0  0  0  0  0  0  0
   59.3293   21.3719   44.3006 H   0  0  0  0  0  0  0  0  0  0  0  0
   59.6699   23.1356   44.3006 H   0  0  0  0  0  0  0  0  0  0  0  0
   57.0507   20.6012   43.6462 H   0  0  0  0  0  0  0  0  0  0  0  0
   56.4591   21.7136   42.3660 H   0  0  0  0  0  0  0  0  0  0  0  0
   58.1726   21.1746   42.3660 H   0  0  0  0  0  0  0  0  0  0  0  0
   55.6863   22.4566   44.4849 H   0  0  0  0  0  0  0  0  0  0  0  0
   56.9264   22.9319   45.7486 H   0  0  0  0  0  0  0  0  0  0  0  0
   55.3811   24.6380   43.8294 H   0  0  0  0  0  0  0  0  0  0  0  0
   55.9179   24.9402   45.5383 H   0  0  0  0  0  0  0  0  0  0  0  0
   58.0510   24.7360   43.6060 H   0  0  0  0  0  0  0  0  0  0  0  0
   57.0000   26.0130   43.3250 H   0  0  0  0  0  0  0  0  0  0  0  0
   58.4836   24.3731   46.3173 H   0  0  0  0  0  0  0  0  0  0  0  0
   59.5134   25.6911   48.1693 H   0  0  0  0  0  0  0  0  0  0  0  0
   59.5909   28.1986   48.0483 H   0  0  0  0  0  0  0  0  0  0  0  0
   58.0459   28.2540   43.0462 H   0  0  0  0  0  0  0  0  0  0  0  0
   56.4631   28.3452   43.7608 H   0  0  0  0  0  0  0  0  0  0  0  0
   59.4521   30.6129   47.4937 H   0  0  0  0  0  0  0  0  0  0  0  0
   60.2572   35.0103   48.2166 H   0  0  0  0  0  0  0  0  0  0  0  0
   60.2767   33.9861   49.6929 H   0  0  0  0  0  0  0  0  0  0  0  0
   62.5433   34.7976   48.4487 H   0  0  0  0  0  0  0  0  0  0  0  0
   62.4053   33.2088   49.3012 H   0  0  0  0  0  0  0  0  0  0  0  0
   62.9092   31.5844   48.5512 H   0  0  0  0  0  0  0  0  0  0  0  0
   62.1644   31.0092   47.0212 H   0  0  0  0  0  0  0  0  0  0  0  0
   63.8490   31.6327   47.0212 H   0  0  0  0  0  0  0  0  0  0  0  0
   64.0343   34.3693   47.1108 H   0  0  0  0  0  0  0  0  0  0  0  0
   63.9156   33.1587   45.7891 H   0  0  0  0  0  0  0  0  0  0  0  0
   62.8394   34.5969   45.7891 H   0  0  0  0  0  0  0  0  0  0  0  0
   59.3396   35.3350   46.6621 H   0  0  0  0  0  0  0  0  0  0  0  0
   58.2322   35.5812   44.4542 H   0  0  0  0  0  0  0  0  0  0  0  0
   57.4647   33.5857   43.1958 H   0  0  0  0  0  0  0  0  0  0  0  0
   55.9774   31.3289   42.8360 H   0  0  0  0  0  0  0  0  0  0  0  0
   57.4964   31.9776   42.1299 H   0  0  0  0  0  0  0  0  0  0  0  0
   57.1902   30.2076   42.1299 H   0  0  0  0  0  0  0  0  0  0  0  0
  1  2  1  0
  2  3  1  0
  2  4  1  0
  4  5  1  0
  5  6  1  0
  6  7  1  0
  7  8  2  0
  8  9  1  0
  9 10  2  0
 10 11  1  0
 11 12  2  0
 12 13  1  0
 13 14  1  0
 14 15  2  0
 15 16  1  0
 16 17  2  0
 17 18  1  0
 18 19  1  0
 19 20  1  0
 20 21  1  0
 21 22  1  0
 22 23  1  0
 22 24  1  0
 18 25  2  0
 25 26  1  0
 26 27  2  0
 27 28  1  0
 28 29  2  0
 29 30  1  0
 12  7  1  0
 29 14  1  0
 15 11  1  0
 28 17  1  0
  1 31  1  0
  1 32  1  0
  1 33  1  0
  3 34  1  0
  3 35  1  0
  3 36  1  0
  4 37  1  0
  4 38  1  0
  5 39  1  0
  5 40  1  0
  6 41  1  0
  6 42  1  0
  8 43  1  0
  9 44  1  0
 10 45  1  0
 13 46  1  0
 13 47  1  0
 16 48  1  0
 20 49  1  0
 20 50  1  0
 21 51  1  0
 21 52  1  0
 23 53  1  0
 23 54  1  0
 23 55  1  0
 24 56  1  0
 24 57  1  0
 24 58  1  0
 25 59  1  0
 26 60  1  0
 27 61  1  0
 30 62  1  0
 30 63  1  0
 30 64  1  0
M  CHG  2   6   1  29   1
M  END
>  <UniqueID>  (24) 
24

>  <SMILES>  (24) 
CN(C)CC[NH2+]c1cccc2c1Cc1c-2cc2c(OCCN(C)C)cccc2[n+]1C

>  <Energy>  (24) 
99.11098738481027

>  <Genealogy>  (24) 
CN(C)CC[NH2+]c1cccc2c1Cc1c-2cc2c(OCCN(C)C)cccc2[n+]1C (protonated)
CN(C)CC[NH2+]c1cccc2c1Cc1c-2cc2c(OCCN(C)C)cccc2[n+]1C (3D coordinates assigned)
CN(C)CC[NH2+]c1cccc2c1Cc1c-2cc2c(OCCN(C)C)cccc2[n+]1C (nonaromatic ring conformer: 99.11098738481027 kcal/mol)

>  <smiles>  (24) 
CN(C)CCNc1cccc2c1Cc1c-2cc2c(OCCN(C)C)cccc2[n+]1C

>  <score_type>  (24) 
oracle

>  <origin>  (24) 
adg

>  <m_score__min__energy>  (24) 
-6.4199999999999999

>  <m_primary>  (24) 
energy

$$$$
24:0
     RDKit          3D

 41 44  0  0  0  0  0  0  0  0999 V2000
   56.3000   23.3450   43.2400 C   0  0  0  0  0  0  0  0  0  0  0  0
   57.5290   23.2200   44.1310 C   0  0  0  0  0  0  0  0  0  0  0  0
   57.6380   24.3810   45.0060 N   0  0  0  0  0  0  0  0  0  0  0  0
   57.7560   25.6620   44.6100 C   0  0  0  0  0  0  0  0  0  0  0  0
   57.7660   26.4570   45.7370 C   0  0  0  0  0  0  0  0  0  0  0  0
   57.9480   27.9190   45.7750 C   0  0  0  0  0  0  0  0  0  0  0  0
   58.5470   28.6350   46.8000 C   0  0  0  0  0  0  0  0  0  0  0  0
   58.5040   29.9610   46.5260 N   0  0  0  0  0  0  0  0  0  0  0  0
   57.8900   30.0210   45.3260 C   0  0  0  0  0  0  0  0  0  0  0  0
   57.6100   31.1760   44.5870 C   0  0  0  0  0  0  0  0  0  0  0  0
   57.9590   32.4920   45.0550 N   0  0  0  0  0  0  0  0  0  0  0  0
   58.5300   33.4730   44.1280 C   0  0  0  0  0  0  0  0  0  0  0  0
   59.4870   34.3980   44.8860 C   0  0  0  0  0  0  0  0  0  0  0  0
   58.8530   34.9590   46.0200 O   0  0  0  0  0  0  0  0  0  0  0  0
   58.5340   33.9370   46.9460 C   0  0  0  0  0  0  0  0  0  0  0  0
   57.4970   32.9740   46.3590 C   0  0  0  0  0  0  0  0  0  0  0  0
   56.9790   30.9980   43.3430 C   0  0  0  0  0  0  0  0  0  0  0  0
   56.6780   29.7030   42.8870 C   0  0  0  0  0  0  0  0  0  0  0  0
   56.9820   28.6220   43.6600 N   0  0  0  0  0  0  0  0  0  0  0  0
   57.5460   28.8130   44.8530 N   0  0  0  0  0  0  0  0  0  0  0  0
   57.6630   25.5760   46.8010 C   0  0  0  0  0  0  0  0  0  0  0  0
   57.5760   24.3170   46.3280 N   0  0  0  0  0  0  0  0  0  0  0  0
   55.4006   23.4365   43.8666 H   0  0  0  0  0  0  0  0  0  0  0  0
   56.3968   24.2379   42.6049 H   0  0  0  0  0  0  0  0  0  0  0  0
   56.2150   22.4509   42.6049 H   0  0  0  0  0  0  0  0  0  0  0  0
   57.4425   22.3105   44.7436 H   0  0  0  0  0  0  0  0  0  0  0  0
   58.4266   23.1629   43.4977 H   0  0  0  0  0  0  0  0  0  0  0  0
   57.8312   26.0131   43.5703 H   0  0  0  0  0  0  0  0  0  0  0  0
   58.9918   28.1916   47.7030 H   0  0  0  0  0  0  0  0  0  0  0  0
   59.0803   32.9486   43.3329 H   0  0  0  0  0  0  0  0  0  0  0  0
   57.7204   34.0698   43.6826 H   0  0  0  0  0  0  0  0  0  0  0  0
   60.3639   33.8198   45.2126 H   0  0  0  0  0  0  0  0  0  0  0  0
   59.7936   35.2137   44.2147 H   0  0  0  0  0  0  0  0  0  0  0  0
   59.4476   33.3762   47.1928 H   0  0  0  0  0  0  0  0  0  0  0  0
   58.1124   34.4001   47.8503 H   0  0  0  0  0  0  0  0  0  0  0  0
   57.3639   32.1198   47.0392 H   0  0  0  0  0  0  0  0  0  0  0  0
   56.5382   33.4990   46.2364 H   0  0  0  0  0  0  0  0  0  0  0  0
   56.7210   31.8720   42.7269 H   0  0  0  0  0  0  0  0  0  0  0  0
   56.1977   29.5619   41.9075 H   0  0  0  0  0  0  0  0  0  0  0  0
   56.7960   27.6650   43.2920 H   0  0  0  0  0  0  0  0  0  0  0  0
   57.6537   25.8592   47.8639 H   0  0  0  0  0  0  0  0  0  0  0  0
  1  2  1  0
  2  3  1  0
  3  4  1  0
  4  5  2  0
  5  6  1  0
  6  7  2  0
  7  8  1  0
  8  9  2  0
  9 10  1  0
 10 11  1  0
 11 12  1  0
 12 13  1  0
 13 14  1  0
 14 15  1  0
 15 16  1  0
 10 17  2  0
 17 18  1  0
 18 19  2  0
 19 20  1  0
  5 21  1  0
 21 22  2  0
 22  3  1  0
 20  6  1  0
 20  9  1  0
 16 11  1  0
  1 23  1  0
  1 24  1  0
  1 25  1  0
  2 26  1  0
  2 27  1  0
  4 28  1  0
  7 29  1  0
 12 30  1  0
 12 31  1  0
 13 32  1  0
 13 33  1  0
 15 34  1  0
 15 35  1  0
 16 36  1  0
 16 37  1  0
 17 38  1  0
 18 39  1  0
 19 40  1  0
 21 41  1  0
M  CHG  1  19   1
M  END
>  <UniqueID>  (25) 
25

>  <SMILES>  (25) 
CCn1cc(-c2cnc3c(N4CCOCC4)cc[nH+]n23)cn1

>  <Energy>  (25) 
115.43789632585406

>  <Genealogy>  (25) 
CCn1cc(-c2cnc3c(N4CCOCC4)cc[nH+]n23)cn1 (protonated)
CCn1cc(-c2cnc3c(N4CCOCC4)cc[nH+]n23)cn1 (3D coordinates assigned)
CCn1cc(-c2cnc3c(N4CCOCC4)cc[nH+]n23)cn1 (nonaromatic ring conformer: 115.43789632585406 kcal/mol)

>  <smiles>  (25) 
CCn1cc(-c2cnc3c(N4CCOCC4)ccnn23)cn1

>  <score_type>  (25) 
oracle

>  <origin>  (25) 
adg

>  <m_score__min__energy>  (25) 
-5.6100000000000003

>  <m_primary>  (25) 
energy

$$$$
25:0
     RDKit          3D

 71 74  0  0  0  0  0  0  0  0999 V2000
   63.3630   33.8300   46.3920 C   0  0  0  0  0  0  0  0  0  0  0  0
   63.2980   32.4860   47.1330 C   0  0  0  0  0  0  0  0  0  0  0  0
   62.4650   32.5170   48.3620 N   0  0  0  0  0  0  0  0  0  0  0  0
   63.1050   33.3490   49.4140 C   0  0  0  0  0  0  0  0  0  0  0  0
   64.5950   33.0410   49.5560 C   0  0  0  0  0  0  0  0  0  0  0  0
   62.1040   31.1510   48.8250 C   0  0  0  0  0  0  0  0  0  0  0  0
   60.9500   31.1750   49.8400 C   0  0  0  0  0  0  0  0  0  0  0  0
   59.7260   31.7580   49.2800 N   0  0  0  0  0  0  0  0  0  0  0  0
   59.3440   31.6040   47.9030 C   0  0  0  0  0  0  0  0  0  0  0  0
   59.3540   32.7200   47.0480 C   0  0  0  0  0  0  0  0  0  0  0  0
   59.8880   33.9590   47.4640 C   0  0  0  0  0  0  0  0  0  0  0  0
   59.8280   35.0730   46.6300 C   0  0  0  0  0  0  0  0  0  0  0  0
   59.2340   34.9740   45.3760 C   0  0  0  0  0  0  0  0  0  0  0  0
   58.6940   33.7600   44.9480 C   0  0  0  0  0  0  0  0  0  0  0  0
   58.7430   32.6120   45.7740 C   0  0  0  0  0  0  0  0  0  0  0  0
   58.1840   31.4170   45.3780 N   0  0  0  0  0  0  0  0  0  0  0  0
   57.0650   31.4500   44.4120 C   0  0  0  0  0  0  0  0  0  0  0  0
   58.5070   30.2510   46.0480 C   0  0  0  0  0  0  0  0  0  0  0  0
   58.9890   30.3440   47.3820 C   0  0  0  0  0  0  0  0  0  0  0  0
   59.1470   29.1770   48.1490 C   0  0  0  0  0  0  0  0  0  0  0  0
   58.8170   27.9330   47.6310 C   0  0  0  0  0  0  0  0  0  0  0  0
   58.4540   27.7930   46.2850 C   0  0  0  0  0  0  0  0  0  0  0  0
   58.2620   26.5060   45.7250 C   0  0  0  0  0  0  0  0  0  0  0  0
   58.2340   25.3270   46.5420 N   0  0  0  0  0  0  0  0  0  0  0  0
   56.9640   24.8270   47.0690 C   0  0  0  0  0  0  0  0  0  0  0  0
   56.6360   23.4600   46.4610 C   0  0  0  0  0  0  0  0  0  0  0  0
   57.6600   23.0870   45.4590 N   0  0  0  0  0  0  0  0  0  0  0  0
   57.1210   23.2400   44.0980 C   0  0  0  0  0  0  0  0  0  0  0  0
   58.1040   21.6930   45.6560 C   0  0  0  0  0  0  0  0  0  0  0  0
   58.1280   26.3670   44.3400 C   0  0  0  0  0  0  0  0  0  0  0  0
   58.1790   27.4830   43.5150 C   0  0  0  0  0  0  0  0  0  0  0  0
   58.3240   28.7560   44.0610 C   0  0  0  0  0  0  0  0  0  0  0  0
   58.3820   28.9500   45.4600 C   0  0  0  0  0  0  0  0  0  0  0  0
   63.4027   34.6505   47.1236 H   0  0  0  0  0  0  0  0  0  0  0  0
   64.2635   33.8576   45.7609 H   0  0  0  0  0  0  0  0  0  0  0  0
   62.4693   33.9444   45.7609 H   0  0  0  0  0  0  0  0  0  0  0  0
   62.8788   31.7332   46.4492 H   0  0  0  0  0  0  0  0  0  0  0  0
   64.3239   32.2449   47.4482 H   0  0  0  0  0  0  0  0  0  0  0  0
   62.9847   34.4101   49.1503 H   0  0  0  0  0  0  0  0  0  0  0  0
   62.6168   33.1209   50.3730 H   0  0  0  0  0  0  0  0  0  0  0  0
   64.8581   32.9866   50.6227 H   0  0  0  0  0  0  0  0  0  0  0  0
   64.8179   32.0778   49.0738 H   0  0  0  0  0  0  0  0  0  0  0  0
   65.1815   33.8369   49.0738 H   0  0  0  0  0  0  0  0  0  0  0  0
   61.8001   30.5497   47.9555 H   0  0  0  0  0  0  0  0  0  0  0  0
   62.9843   30.7158   49.3206 H   0  0  0  0  0  0  0  0  0  0  0  0
   60.7370   30.1436   50.1575 H   0  0  0  0  0  0  0  0  0  0  0  0
   61.2623   31.8011   50.6888 H   0  0  0  0  0  0  0  0  0  0  0  0
   59.0820   32.2770   49.9210 H   0  0  0  0  0  0  0  0  0  0  0  0
   60.3557   34.0454   48.4559 H   0  0  0  0  0  0  0  0  0  0  0  0
   60.2508   36.0322   46.9634 H   0  0  0  0  0  0  0  0  0  0  0  0
   59.1897   35.8554   44.7194 H   0  0  0  0  0  0  0  0  0  0  0  0
   58.2242   33.6948   43.9555 H   0  0  0  0  0  0  0  0  0  0  0  0
   56.1103   31.4782   44.9576 H   0  0  0  0  0  0  0  0  0  0  0  0
   57.1526   32.3460   43.7799 H   0  0  0  0  0  0  0  0  0  0  0  0
   57.0997   30.5504   43.7799 H   0  0  0  0  0  0  0  0  0  0  0  0
   59.5378   29.2510   49.1746 H   0  0  0  0  0  0  0  0  0  0  0  0
   58.8406   27.0478   48.2835 H   0  0  0  0  0  0  0  0  0  0  0  0
   58.9980   24.6230   46.3990 H   0  0  0  0  0  0  0  0  0  0  0  0
   57.0383   24.7293   48.1621 H   0  0  0  0  0  0  0  0  0  0  0  0
   56.1646   25.5357   46.8068 H   0  0  0  0  0  0  0  0  0  0  0  0
   56.6156   22.7030   47.2588 H   0  0  0  0  0  0  0  0  0  0  0  0
   55.6540   23.5127   45.9681 H   0  0  0  0  0  0  0  0  0  0  0  0
   56.0642   23.5400   44.1537 H   0  0  0  0  0  0  0  0  0  0  0  0
   57.6933   24.0112   43.5615 H   0  0  0  0  0  0  0  0  0  0  0  0
   57.2027   22.2832   43.5615 H   0  0  0  0  0  0  0  0  0  0  0  0
   58.1723   21.4786   46.7327 H   0  0  0  0  0  0  0  0  0  0  0  0
   57.3795   21.0082   45.1910 H   0  0  0  0  0  0  0  0  0  0  0  0
   59.0911   21.5534   45.1910 H   0  0  0  0  0  0  0  0  0  0  0  0
   57.9815   25.3687   43.9018 H   0  0  0  0  0  0  0  0  0  0  0  0
   58.1045   27.3608   42.4243 H   0  0  0  0  0  0  0  0  0  0  0  0
   58.3947   29.6260   43.3916 H   0  0  0  0  0  0  0  0  0  0  0  0
  1  2  1  0
  2  3  1  0
  3  4  1  0
  4  5  1  0
  3  6  1  0
  6  7  1  0
  7  8  1  0
  8  9  1  0
  9 10  2  0
 10 11  1  0
 11 12  2  0
 12 13  1  0
 13 14  2  0
 14 15  1  0
 15 16  2  0
 16 17  1  0
 16 18  1  0
 18 19  2  0
 19 20  1  0
 20 21  2  0
 21 22  1  0
 22 23  2  0
 23 24  1  0
 24 25  1  0
 25 26  1  0
 26 27  1  0
 27 28  1  0
 27 29  1  0
 23 30  1  0
 30 31  2  0
 31 32  1  0
 32 33  2  0
 19  9  1  0
 33 22  1  0
 15 10  1  0
 33 18  1  0
  1 34  1  0
  1 35  1  0
  1 36  1  0
  2 37  1  0
  2 38  1  0
  4 39  1  0
  4 40  1  0
  5 41  1  0
  5 42  1  0
  5 43  1  0
  6 44  1  0
  6 45  1  0
  7 46  1  0
  7 47  1  0
  8 48  1  0
 11 49  1  0
 12 50  1  0
 13 51  1  0
 14 52  1  0
 17 53  1  0
 17 54  1  0
 17 55  1  0
 20 56  1  0
 21 57  1  0
 24 58  1  0
 25 59  1  0
 25 60  1  0
 26 61  1  0
 26 62  1  0
 28 63  1  0
 28 64  1  0
 28 65  1  0
 29 66  1  0
 29 67  1  0
 29 68  1  0
 30 69  1  0
 31 70  1  0
 32 71  1  0
M  CHG  1  16   1
M  END
>  <UniqueID>  (26) 
26

>  <SMILES>  (26) 
CCN(CC)CCNc1c2ccccc2[n+](C)c2c1ccc1c(NCCN(C)C)cccc12

>  <Energy>  (26) 
118.29774789662123

>  <Genealogy>  (26) 
CCN(CC)CCNc1c2ccccc2[n+](C)c2c1ccc1c(NCCN(C)C)cccc12 (3D coordinates assigned)
CCN(CC)CCNc1c2ccccc2[n+](C)c2c1ccc1c(NCCN(C)C)cccc12 (optimized conformer: 118.29774789662123 kcal/mol)

>  <smiles>  (26) 
CCN(CC)CCNc1c2ccccc2[n+](C)c2c1ccc1c(NCCN(C)C)cccc12

>  <score_type>  (26) 
oracle

>  <origin>  (26) 
adg

>  <m_score__min__energy>  (26) 
-7.25

>  <m_primary>  (26) 
energy

$$$$
26:0
     RDKit          3D

 47 48  0  0  1  0  0  0  0  0999 V2000
   58.5140   31.1620   50.1410 C   0  0  0  0  0  0  0  0  0  0  0  0
   59.1670   31.6300   48.8600 C   0  0  0  0  0  0  0  0  0  0  0  0
   59.3950   30.5370   47.9680 N   0  0  0  0  0  0  0  0  0  0  0  0
   60.2010   30.9410   46.8550 C   0  0  0  0  0  0  0  0  0  0  0  0
   61.1650   32.0510   47.1770 C   0  0  0  0  0  0  0  0  0  0  0  0
   59.8180   29.3250   48.6020 C   0  0  0  0  0  0  0  0  0  0  0  0
   59.8800   28.1390   47.7080 C   0  0  0  0  0  0  0  0  0  0  0  0
   58.5650   27.8250   47.2000 N   0  0  0  0  0  0  0  0  0  0  0  0
   58.1420   28.2230   46.0530 C   0  0  0  0  0  0  0  0  0  0  0  0
   58.2330   27.4510   44.9540 N   0  0  0  0  0  0  0  0  0  0  0  0
   57.7660   27.9490   43.8070 C   0  0  0  0  0  0  0  0  0  0  0  0
   57.2060   29.2040   43.7090 C   0  0  0  0  0  0  0  0  0  0  0  0
   57.1310   29.9570   44.8490 C   0  0  0  0  0  0  0  0  0  0  0  0
   56.6310   31.1380   44.8590 N   0  0  0  0  0  0  0  0  0  0  0  0
   57.3960   32.2980   45.1680 C   0  0  0  0  0  0  0  0  0  0  0  0
   57.4250   32.8450   46.4420 C   0  0  0  0  0  0  0  0  0  0  0  0
   58.1510   33.9640   46.7670 C   0  0  0  0  0  0  0  0  0  0  0  0
   58.8940   34.5860   45.7790 C   0  0  0  0  0  0  0  0  0  0  0  0
   58.8860   34.0610   44.4880 C   0  0  0  0  0  0  0  0  0  0  0  0
   58.1450   32.9330   44.1940 C   0  0  0  0  0  0  0  0  0  0  0  0
   58.1350   32.3690   42.8130 C   0  0  0  0  0  0  0  0  0  0  0  0
   57.5980   29.4670   46.0130 N   0  0  0  0  0  0  0  0  0  0  0  0
   59.0698   31.5603   51.0026 H   0  0  0  0  0  0  0  0  0  0  0  0
   57.4754   31.5226   50.1761 H   0  0  0  0  0  0  0  0  0  0  0  0
   58.5218   30.0626   50.1761 H   0  0  0  0  0  0  0  0  0  0  0  0
   58.5099   32.3630   48.3691 H   0  0  0  0  0  0  0  0  0  0  0  0
   60.1370   32.0851   49.1091 H   0  0  0  0  0  0  0  0  0  0  0  0
   60.7772   30.0701   46.5093 H   0  0  0  0  0  0  0  0  0  0  0  0
   59.5159   31.3239   46.0843 H   0  0  0  0  0  0  0  0  0  0  0  0
   61.2544   32.1539   48.2685 H   0  0  0  0  0  0  0  0  0  0  0  0
   62.1507   31.8163   46.7489 H   0  0  0  0  0  0  0  0  0  0  0  0
   60.7945   32.9941   46.7489 H   0  0  0  0  0  0  0  0  0  0  0  0
   60.8219   29.4905   49.0200 H   0  0  0  0  0  0  0  0  0  0  0  0
   59.0603   29.0960   49.3658 H   0  0  0  0  0  0  0  0  0  0  0  0
   60.5527   28.3549   46.8649 H   0  0  0  0  0  0  0  0  0  0  0  0
   60.2573   27.2788   48.2804 H   0  0  0  0  0  0  0  0  0  0  0  0
   58.6650   26.5070   45.0620 H   0  0  0  0  0  0  0  0  0  0  0  0
   57.8311   27.3301   42.9000 H   0  0  0  0  0  0  0  0  0  0  0  0
   56.8323   29.5872   42.7480 H   0  0  0  0  0  0  0  0  0  0  0  0
   56.8361   32.3573   47.2328 H   0  0  0  0  0  0  0  0  0  0  0  0
   58.1423   34.3588   47.7937 H   0  0  0  0  0  0  0  0  0  0  0  0
   59.4844   35.4849   46.0101 H   0  0  0  0  0  0  0  0  0  0  0  0
   59.4744   34.5488   43.6969 H   0  0  0  0  0  0  0  0  0  0  0  0
   58.1155   31.2704   42.8657 H   0  0  0  0  0  0  0  0  0  0  0  0
   57.2430   32.7263   42.2775 H   0  0  0  0  0  0  0  0  0  0  0  0
   59.0391   32.6944   42.2775 H   0  0  0  0  0  0  0  0  0  0  0  0
   57.5430   30.0480   46.8930 H   0  0  0  0  0  0  0  0  0  0  0  0
  1  2  1  0
  2  3  1  0
  3  4  1  0
  4  5  1  0
  3  6  1  0
  6  7  1  0
  7  8  1  0
  8  9  2  0
  9 10  1  0
 10 11  1  0
 11 12  2  0
 12 13  1  0
 13 14  2  0
 14 15  1  0
 15 16  2  0
 16 17  1  0
 17 18  2  0
 18 19  1  0
 19 20  2  0
 20 21  1  0
 13 22  1  0
 22  9  1  0
 20 15  1  0
  1 23  1  0
  1 24  1  0
  1 25  1  0
  2 26  1  0
  2 27  1  0
  4 28  1  0
  4 29  1  0
  5 30  1  0
  5 31  1  0
  5 32  1  0
  6 33  1  0
  6 34  1  0
  7 35  1  0
  7 36  1  0
 10 37  1  0
 11 38  1  0
 12 39  1  0
 16 40  1  0
 17 41  1  0
 18 42  1  0
 19 43  1  0
 21 44  1  0
 21 45  1  0
 21 46  1  0
 22 47  1  0
M  END
>  <smiles>  (27) 
CCN(CC)CCN=c1[nH]ccc(=Nc2ccccc2C)[nH]1

>  <score_type>  (27) 
oracle

>  <origin>  (27) 
adg

>  <m_score__min__energy>  (27) 
-7.1100000000000003

>  <m_primary>  (27) 
energy

$$$$
27:0
     RDKit          3D

 53 56  0  0  0  0  0  0  0  0999 V2000
   60.5650   31.2000   52.0670 C   0  0  0  0  0  0  0  0  0  0  0  0
   59.8860   29.9840   51.5830 N   0  0  0  0  0  0  0  0  0  0  0  0
   59.0040   29.4290   52.6350 C   0  0  0  0  0  0  0  0  0  0  0  0
   57.5470   29.8120   52.3670 C   0  0  0  0  0  0  0  0  0  0  0  0
   57.3860   30.2390   51.0430 O   0  0  0  0  0  0  0  0  0  0  0  0
   60.8750   28.9890   51.1090 C   0  0  0  0  0  0  0  0  0  0  0  0
   60.6040   28.6330   49.6450 C   0  0  0  0  0  0  0  0  0  0  0  0
   59.2500   29.0300   49.2540 N   0  0  0  0  0  0  0  0  0  0  0  0
   58.9750   29.4310   47.9070 C   0  0  0  0  0  0  0  0  0  0  0  0
   59.1400   30.7640   47.5390 C   0  0  0  0  0  0  0  0  0  0  0  0
   58.8490   31.1850   46.2560 C   0  0  0  0  0  0  0  0  0  0  0  0
   58.4970   30.3040   45.2630 N   0  0  0  0  0  0  0  0  0  0  0  0
   58.5070   30.7360   43.8560 C   0  0  0  0  0  0  0  0  0  0  0  0
   58.2170   28.9920   45.6120 C   0  0  0  0  0  0  0  0  0  0  0  0
   57.6500   28.0790   44.6900 C   0  0  0  0  0  0  0  0  0  0  0  0
   57.4400   26.7450   45.0370 C   0  0  0  0  0  0  0  0  0  0  0  0
   57.7840   26.2840   46.3040 C   0  0  0  0  0  0  0  0  0  0  0  0
   58.3070   27.1640   47.2500 C   0  0  0  0  0  0  0  0  0  0  0  0
   58.4950   28.5250   46.9380 C   0  0  0  0  0  0  0  0  0  0  0  0
   59.0500   32.6400   46.2090 C   0  0  0  0  0  0  0  0  0  0  0  0
   58.7160   33.5960   45.2380 C   0  0  0  0  0  0  0  0  0  0  0  0
   58.9740   34.9490   45.5050 C   0  0  0  0  0  0  0  0  0  0  0  0
   59.5170   35.3400   46.7410 C   0  0  0  0  0  0  0  0  0  0  0  0
   59.7810   34.3830   47.7310 C   0  0  0  0  0  0  0  0  0  0  0  0
   59.5260   33.0380   47.4500 C   0  0  0  0  0  0  0  0  0  0  0  0
   59.6240   31.8900   48.4060 C   0  0  1  0  0  0  0  0  0  0  0  0
   58.7550   32.0750   49.4900 O   0  0  0  0  0  0  0  0  0  0  0  0
   60.5679   31.2052   53.1670 H   0  0  0  0  0  0  0  0  0  0  0  0
   61.6010   31.2131   51.6976 H   0  0  0  0  0  0  0  0  0  0  0  0
   60.0327   32.0889   51.6976 H   0  0  0  0  0  0  0  0  0  0  0  0
   59.0949   28.3328   52.6430 H   0  0  0  0  0  0  0  0  0  0  0  0
   59.3076   29.8408   53.6088 H   0  0  0  0  0  0  0  0  0  0  0  0
   56.9044   28.9373   52.5456 H   0  0  0  0  0  0  0  0  0  0  0  0
   57.2661   30.6341   53.0418 H   0  0  0  0  0  0  0  0  0  0  0  0
   58.3010   30.3350   50.6720 H   0  0  0  0  0  0  0  0  0  0  0  0
   61.8870   29.4105   51.1995 H   0  0  0  0  0  0  0  0  0  0  0  0
   60.7920   28.0792   51.7217 H   0  0  0  0  0  0  0  0  0  0  0  0
   61.3313   29.1557   49.0064 H   0  0  0  0  0  0  0  0  0  0  0  0
   60.7002   27.5439   49.5240 H   0  0  0  0  0  0  0  0  0  0  0  0
   58.4370   28.7740   49.8590 H   0  0  0  0  0  0  0  0  0  0  0  0
   58.5324   31.8347   43.8100 H   0  0  0  0  0  0  0  0  0  0  0  0
   59.3959   30.3273   43.3533 H   0  0  0  0  0  0  0  0  0  0  0  0
   57.6001   30.3688   43.3533 H   0  0  0  0  0  0  0  0  0  0  0  0
   57.3710   28.4275   43.6847 H   0  0  0  0  0  0  0  0  0  0  0  0
   56.9996   26.0526   44.3045 H   0  0  0  0  0  0  0  0  0  0  0  0
   57.6430   25.2234   46.5595 H   0  0  0  0  0  0  0  0  0  0  0  0
   58.5756   26.7923   48.2498 H   0  0  0  0  0  0  0  0  0  0  0  0
   58.2601   33.2903   44.2847 H   0  0  0  0  0  0  0  0  0  0  0  0
   58.7498   35.7089   44.7419 H   0  0  0  0  0  0  0  0  0  0  0  0
   59.7357   36.4009   46.9323 H   0  0  0  0  0  0  0  0  0  0  0  0
   60.1812   34.6850   48.7101 H   0  0  0  0  0  0  0  0  0  0  0  0
   60.6221   31.7427   48.8443 H   0  0  0  0  0  0  0  0  0  0  0  0
   59.0130   31.4050   50.1760 H   0  0  0  0  0  0  0  0  0  0  0  0
  1  2  1  0
  2  3  1  0
  3  4  1  0
  4  5  1  0
  2  6  1  0
  6  7  1  0
  7  8  1  0
  8  9  1  0
  9 10  2  0
 10 11  1  0
 11 12  2  0
 12 13  1  0
 12 14  1  0
 14 15  2  0
 15 16  1  0
 16 17  2  0
 17 18  1  0
 18 19  2  0
 11 20  1  0
 20 21  2  0
 21 22  1  0
 22 23  2  0
 23 24  1  0
 24 25  2  0
 25 26  1  0
 26 27  1  0
 19  9  1  0
 25 20  1  0
 26 10  1  0
 19 14  1  0
  1 28  1  0
  1 29  1  0
  1 30  1  0
  3 31  1  0
  3 32  1  0
  4 33  1  0
  4 34  1  0
  5 35  1  0
  6 36  1  0
  6 37  1  0
  7 38  1  0
  7 39  1  0
  8 40  1  0
 13 41  1  0
 13 42  1  0
 13 43  1  0
 15 44  1  0
 16 45  1  0
 17 46  1  0
 18 47  1  0
 21 48  1  0
 22 49  1  0
 23 50  1  0
 24 51  1  0
 26 52  1  1
 27 53  1  0
M  CHG  1  12   1
M  END
>  <UniqueID>  (28) 
27

>  <SMILES>  (28) 
CN(CCO)CCNc1c2c([n+](C)c3ccccc13)-c1ccccc1[C@H]2O

>  <Energy>  (28) 
98.62317238711776

>  <Genealogy>  (28) 
CN(CCO)CCNc1c2c([n+](C)c3ccccc13)-c1ccccc1[C@H]2O (chirality)
CN(CCO)CCNc1c2c([n+](C)c3ccccc13)-c1ccccc1[C@H]2O (3D coordinates assigned)
CN(CCO)CCNc1c2c([n+](C)c3ccccc13)-c1ccccc1[C@H]2O (nonaromatic ring conformer: 98.62317238711776 kcal/mol)

>  <smiles>  (28) 
CN(CCO)CCNc1c2c([n+](C)c3ccccc13)-c1ccccc1C2O

>  <score_type>  (28) 
oracle

>  <origin>  (28) 
adg

>  <m_score__min__energy>  (28) 
-6.0700000000000003

>  <m_primary>  (28) 
energy

$$$$
28:0
     RDKit          3D

 28 30  0  0  0  0  0  0  0  0999 V2000
   62.8154   30.6660   48.2718 H   0  0  0  0  0  0  0  0  0  0  0  0
   62.4610   31.5660   47.7480 C   0  0  0  0  0  0  0  0  0  0  0  0
   63.3060   32.6100   47.5480 N   0  0  0  0  0  0  0  0  0  0  0  0
   62.9040   33.7380   46.9060 C   0  0  0  0  0  0  0  0  0  0  0  0
   63.6105   34.5687   46.7615 H   0  0  0  0  0  0  0  0  0  0  0  0
   61.5950   33.8450   46.4290 C   0  0  0  0  0  0  0  0  0  0  0  0
   61.2708   34.7571   45.9066 H   0  0  0  0  0  0  0  0  0  0  0  0
   60.6940   32.7830   46.6190 C   0  0  0  0  0  0  0  0  0  0  0  0
   59.2990   32.8790   46.1220 C   0  0  0  0  0  0  0  0  0  0  0  0
   58.5050   34.0200   46.2800 C   0  0  0  0  0  0  0  0  0  0  0  0
   58.8100   34.9537   46.7752 H   0  0  0  0  0  0  0  0  0  0  0  0
   57.0020   33.7190   45.5820 S   0  0  0  0  0  0  0  0  0  0  0  0
   57.4190   32.1580   45.0990 C   0  0  0  0  0  0  0  0  0  0  0  0
   56.6390   31.3020   44.5080 N   0  0  0  0  0  0  0  0  0  0  0  0
   56.5360   29.9060   44.8170 C   0  0  0  0  0  0  0  0  0  0  0  0
   55.3930   29.3860   44.9090 O   0  0  0  0  0  0  0  0  0  0  0  0
   57.7270   29.0930   45.1170 C   0  0  0  0  0  0  0  0  0  0  0  0
   58.3860   29.1390   46.2520 O   0  0  0  0  0  0  0  0  0  0  0  0
   59.3810   28.2840   46.1960 C   0  0  0  0  0  0  0  0  0  0  0  0
   60.1087   28.1050   47.0013 H   0  0  0  0  0  0  0  0  0  0  0  0
   59.3750   27.6440   44.9730 C   0  0  0  0  0  0  0  0  0  0  0  0
   60.0808   26.8751   44.6257 H   0  0  0  0  0  0  0  0  0  0  0  0
   58.3060   28.1630   44.2750 C   0  0  0  0  0  0  0  0  0  0  0  0
   57.9814   27.8931   43.2592 H   0  0  0  0  0  0  0  0  0  0  0  0
   58.6800   31.8520   45.4690 N   0  0  0  0  0  0  0  0  0  0  0  0
   59.1130   30.9180   45.2950 H   0  0  0  0  0  0  0  0  0  0  0  0
   61.1420   31.6320   47.2900 C   0  0  0  0  0  0  0  0  0  0  0  0
   60.4575   30.7867   47.4540 H   0  0  0  0  0  0  0  0  0  0  0  0
  1  2  1  0
  2  3  2  0
  3  4  1  0
  4  5  1  0
  4  6  2  0
  6  7  1  0
  6  8  1  0
  8  9  1  0
  9 10  2  0
 10 11  1  0
 10 12  1  0
 12 13  1  0
 13 14  2  0
 14 15  1  0
 15 16  2  0
 15 17  1  0
 17 18  1  0
 18 19  1  0
 19 20  1  0
 19 21  2  0
 21 22  1  0
 21 23  1  0
 23 24  1  0
 13 25  1  0
 25 26  1  0
  8 27  2  0
 27 28  1  0
 27  2  1  0
 25  9  1  0
 23 17  2  0
M  END
>  <UniqueID>  (29) 
28

>  <SMILES>  (29) 
O=C(/N=c1/[nH]c(-c2ccncc2)cs1)c1ccco1

>  <Energy>  (29) 
96.93571715886932

>  <Genealogy>  (29) 
O=C(/N=c1/[nH]c(-c2ccncc2)cs1)c1ccco1 (cis-trans isomerization)
O=C(/N=c1/[nH]c(-c2ccncc2)cs1)c1ccco1 (3D coordinates assigned)
O=C(/N=c1/[nH]c(-c2ccncc2)cs1)c1ccco1 (optimized conformer: 96.93571715886932 kcal/mol)

>  <smiles>  (29) 
O=C(N=c1[nH]c(-c2ccncc2)cs1)c1ccco1

>  <score_type>  (29) 
oracle

>  <origin>  (29) 
adg

>  <m_score__min__energy>  (29) 
-6.5700000000000003

>  <m_primary>  (29) 
energy

$$$$
29:0
     RDKit          3D

 72 74  0  0  0  0  0  0  0  0999 V2000
   57.3170   32.7490   44.8160 C   0  0  0  0  0  0  0  0  0  0  0  0
   58.2720   32.6860   43.6140 C   0  0  0  0  0  0  0  0  0  0  0  0
   57.8760   31.6960   42.5830 N   0  0  0  0  0  0  0  0  0  0  0  0
   57.7590   32.3040   41.2440 C   0  0  0  0  0  0  0  0  0  0  0  0
   56.6600   30.9440   42.9670 C   0  0  0  0  0  0  0  0  0  0  0  0
   57.0020   29.6790   43.7630 C   0  0  0  0  0  0  0  0  0  0  0  0
   58.4310   29.6290   44.0840 N   0  0  0  0  0  0  0  0  0  0  0  0
   58.9340   28.9070   45.2220 C   0  0  0  0  0  0  0  0  0  0  0  0
   58.7240   27.5160   45.3380 C   0  0  0  0  0  0  0  0  0  0  0  0
   57.9580   26.8140   44.3780 C   0  0  0  0  0  0  0  0  0  0  0  0
   57.7320   25.4470   44.5060 C   0  0  0  0  0  0  0  0  0  0  0  0
   58.2240   24.7600   45.6080 C   0  0  0  0  0  0  0  0  0  0  0  0
   58.9630   25.4320   46.5830 C   0  0  0  0  0  0  0  0  0  0  0  0
   59.2520   26.8170   46.4570 C   0  0  0  0  0  0  0  0  0  0  0  0
   59.9980   27.4920   47.4050 N   0  0  0  0  0  0  0  0  0  0  0  0
   60.7730   26.7370   48.4150 C   0  0  0  0  0  0  0  0  0  0  0  0
   60.0280   28.8760   47.4070 C   0  0  0  0  0  0  0  0  0  0  0  0
   60.5020   29.6060   48.5260 C   0  0  0  0  0  0  0  0  0  0  0  0
   60.5580   31.0100   48.5150 C   0  0  0  0  0  0  0  0  0  0  0  0
   60.9370   31.7340   49.7090 N   0  0  0  0  0  0  0  0  0  0  0  0
   60.5240   33.1480   49.6470 C   0  0  0  0  0  0  0  0  0  0  0  0
   61.6620   34.1100   50.0480 C   0  0  0  0  0  0  0  0  0  0  0  0
   62.7410   34.2220   48.9660 C   0  0  0  0  0  0  0  0  0  0  0  0
   63.4180   32.9120   48.7770 N   0  0  0  0  0  0  0  0  0  0  0  0
   63.4910   32.5310   47.3450 C   0  0  0  0  0  0  0  0  0  0  0  0
   63.3860   33.7660   46.4530 C   0  0  0  0  0  0  0  0  0  0  0  0
   64.7570   32.8920   49.4090 C   0  0  0  0  0  0  0  0  0  0  0  0
   64.8250   31.8080   50.4810 C   0  0  0  0  0  0  0  0  0  0  0  0
   60.1680   31.6970   47.3630 C   0  0  0  0  0  0  0  0  0  0  0  0
   59.6660   31.0070   46.2630 C   0  0  0  0  0  0  0  0  0  0  0  0
   59.5420   29.6010   46.2870 C   0  0  0  0  0  0  0  0  0  0  0  0
   57.8987   32.7106   45.7488 H   0  0  0  0  0  0  0  0  0  0  0  0
   56.7434   33.6869   44.7798 H   0  0  0  0  0  0  0  0  0  0  0  0
   56.6252   31.8945   44.7798 H   0  0  0  0  0  0  0  0  0  0  0  0
   58.3044   33.6804   43.1449 H   0  0  0  0  0  0  0  0  0  0  0  0
   59.2518   32.3694   44.0009 H   0  0  0  0  0  0  0  0  0  0  0  0
   57.5520   33.3795   41.3465 H   0  0  0  0  0  0  0  0  0  0  0  0
   58.7008   32.1627   40.6936 H   0  0  0  0  0  0  0  0  0  0  0  0
   56.9369   31.8232   40.6936 H   0  0  0  0  0  0  0  0  0  0  0  0
   56.0207   31.5918   43.5848 H   0  0  0  0  0  0  0  0  0  0  0  0
   56.1407   30.6394   42.0464 H   0  0  0  0  0  0  0  0  0  0  0  0
   56.4232   29.6754   44.6984 H   0  0  0  0  0  0  0  0  0  0  0  0
   56.7503   28.8011   43.1498 H   0  0  0  0  0  0  0  0  0  0  0  0
   59.1120   30.0140   43.3900 H   0  0  0  0  0  0  0  0  0  0  0  0
   57.5355   27.3559   43.5190 H   0  0  0  0  0  0  0  0  0  0  0  0
   57.1628   24.9097   43.7331 H   0  0  0  0  0  0  0  0  0  0  0  0
   58.0306   23.6822   45.7129 H   0  0  0  0  0  0  0  0  0  0  0  0
   59.3272   24.8806   47.4624 H   0  0  0  0  0  0  0  0  0  0  0  0
   60.4581   27.0438   49.4233 H   0  0  0  0  0  0  0  0  0  0  0  0
   60.5917   25.6597   48.2862 H   0  0  0  0  0  0  0  0  0  0  0  0
   61.8452   26.9464   48.2862 H   0  0  0  0  0  0  0  0  0  0  0  0
   60.8332   29.0614   49.4225 H   0  0  0  0  0  0  0  0  0  0  0  0
   60.5230   31.2930   50.5630 H   0  0  0  0  0  0  0  0  0  0  0  0
   61.9790   31.6880   49.8130 H   0  0  0  0  0  0  0  0  0  0  0  0
   60.2110   33.3801   48.6183 H   0  0  0  0  0  0  0  0  0  0  0  0
   59.6984   33.2884   50.3602 H   0  0  0  0  0  0  0  0  0  0  0  0
   61.2348   35.1080   50.2254 H   0  0  0  0  0  0  0  0  0  0  0  0
   62.1371   33.7077   50.9549 H   0  0  0  0  0  0  0  0  0  0  0  0
   62.2746   34.5298   48.0185 H   0  0  0  0  0  0  0  0  0  0  0  0
   63.4859   34.9687   49.2785 H   0  0  0  0  0  0  0  0  0  0  0  0
   64.4501   32.0275   47.1535 H   0  0  0  0  0  0  0  0  0  0  0  0
   62.6536   31.8558   47.1151 H   0  0  0  0  0  0  0  0  0  0  0  0
   63.3095   34.6662   47.0806 H   0  0  0  0  0  0  0  0  0  0  0  0
   64.2814   33.8368   45.8179 H   0  0  0  0  0  0  0  0  0  0  0  0
   62.4915   33.6846   45.8179 H   0  0  0  0  0  0  0  0  0  0  0  0
   65.5173   32.6893   48.6403 H   0  0  0  0  0  0  0  0  0  0  0  0
   64.9439   33.8692   49.8783 H   0  0  0  0  0  0  0  0  0  0  0  0
   64.7957   32.2746   51.4767 H   0  0  0  0  0  0  0  0  0  0  0  0
   63.9678   31.1278   50.3695 H   0  0  0  0  0  0  0  0  0  0  0  0
   65.7605   31.2402   50.3695 H   0  0  0  0  0  0  0  0  0  0  0  0
   60.2583   32.7926   47.3246 H   0  0  0  0  0  0  0  0  0  0  0  0
   59.3623   31.5641   45.3644 H   0  0  0  0  0  0  0  0  0  0  0  0
  1  2  1  0
  2  3  1  0
  3  4  1  0
  3  5  1  0
  5  6  1  0
  6  7  1  0
  7  8  1  0
  8  9  2  0
  9 10  1  0
 10 11  2  0
 11 12  1  0
 12 13  2  0
 13 14  1  0
 14 15  2  0
 15 16  1  0
 15 17  1  0
 17 18  2  0
 18 19  1  0
 19 20  1  0
 20 21  1  0
 21 22  1  0
 22 23  1  0
 23 24  1  0
 24 25  1  0
 25 26  1  0
 24 27  1  0
 27 28  1  0
 19 29  2  0
 29 30  1  0
 30 31  2  0
 31  8  1  0
 14  9  1  0
 31 17  1  0
  1 32  1  0
  1 33  1  0
  1 34  1  0
  2 35  1  0
  2 36  1  0
  4 37  1  0
  4 38  1  0
  4 39  1  0
  5 40  1  0
  5 41  1  0
  6 42  1  0
  6 43  1  0
  7 44  1  0
 10 45  1  0
 11 46  1  0
 12 47  1  0
 13 48  1  0
 16 49  1  0
 16 50  1  0
 16 51  1  0
 18 52  1  0
 20 53  1  0
 20 54  1  0
 21 55  1  0
 21 56  1  0
 22 57  1  0
 22 58  1  0
 23 59  1  0
 23 60  1  0
 25 61  1  0
 25 62  1  0
 26 63  1  0
 26 64  1  0
 26 65  1  0
 27 66  1  0
 27 67  1  0
 28 68  1  0
 28 69  1  0
 28 70  1  0
 29 71  1  0
 30 72  1  0
M  CHG  2  15   1  20   1
M  END
>  <UniqueID>  (30) 
29

>  <SMILES>  (30) 
CCN(C)CCNc1c2ccccc2[n+](C)c2cc([NH2+]CCCN(CC)CC)ccc12

>  <Energy>  (30) 
96.25983689826607

>  <Genealogy>  (30) 
CCN(C)CCNc1c2ccccc2[n+](C)c2cc([NH2+]CCCN(CC)CC)ccc12 (protonated)
CCN(C)CCNc1c2ccccc2[n+](C)c2cc([NH2+]CCCN(CC)CC)ccc12 (3D coordinates assigned)
CCN(C)CCNc1c2ccccc2[n+](C)c2cc([NH2+]CCCN(CC)CC)ccc12 (optimized conformer: 96.25983689826607 kcal/mol)

>  <smiles>  (30) 
CCN(C)CCNc1c2ccccc2[n+](C)c2cc(NCCCN(CC)CC)ccc12

>  <score_type>  (30) 
oracle

>  <origin>  (30) 
adg

>  <m_score__min__energy>  (30) 
-5.5800000000000001

>  <m_primary>  (30) 
energy

$$$$
30:0
     RDKit          3D

 37 39  0  0  0  0  0  0  0  0999 V2000
   54.2550   24.8690   45.6240 C   0  0  0  0  0  0  0  0  0  0  0  0
   54.7960   26.1330   45.9920 O   0  0  0  0  0  0  0  0  0  0  0  0
   56.1680   26.4260   46.0300 C   0  0  0  0  0  0  0  0  0  0  0  0
   57.0080   25.5800   46.7640 C   0  0  0  0  0  0  0  0  0  0  0  0
   58.3790   25.8320   46.8380 C   0  0  0  0  0  0  0  0  0  0  0  0
   58.9260   26.9310   46.1710 C   0  0  0  0  0  0  0  0  0  0  0  0
   58.1070   27.7840   45.4190 C   0  0  0  0  0  0  0  0  0  0  0  0
   58.6890   28.9160   44.7500 N   0  0  0  0  0  0  0  0  0  0  0  0
   59.1370   30.0610   45.4390 N   0  0  0  0  0  0  0  0  0  0  0  0
   60.3770   30.0450   45.9970 C   0  0  0  0  0  0  0  0  0  0  0  0
   60.8530   31.1260   46.6680 N   0  0  0  0  0  0  0  0  0  0  0  0
   60.1120   32.2670   46.7920 C   0  0  0  0  0  0  0  0  0  0  0  0
   60.6020   33.3970   47.4980 C   0  0  0  0  0  0  0  0  0  0  0  0
   61.9580   33.3940   48.1530 C   0  0  0  0  0  0  0  0  0  0  0  0
   59.8040   34.5500   47.5900 C   0  0  0  0  0  0  0  0  0  0  0  0
   58.5440   34.5930   46.9960 C   0  0  0  0  0  0  0  0  0  0  0  0
   58.0560   33.4880   46.3020 C   0  0  0  0  0  0  0  0  0  0  0  0
   58.8300   32.3190   46.1950 C   0  0  0  0  0  0  0  0  0  0  0  0
   58.3660   31.1890   45.5030 C   0  0  0  0  0  0  0  0  0  0  0  0
   57.2420   31.2150   44.9270 O   0  0  0  0  0  0  0  0  0  0  0  0
   56.7220   27.5350   45.3630 C   0  0  0  0  0  0  0  0  0  0  0  0
   54.0101   24.2969   46.5310 H   0  0  0  0  0  0  0  0  0  0  0  0
   53.3427   25.0200   45.0283 H   0  0  0  0  0  0  0  0  0  0  0  0
   54.9941   24.3132   45.0283 H   0  0  0  0  0  0  0  0  0  0  0  0
   56.5842   24.7097   47.2866 H   0  0  0  0  0  0  0  0  0  0  0  0
   59.0295   25.1645   47.4222 H   0  0  0  0  0  0  0  0  0  0  0  0
   60.0062   27.1280   46.2365 H   0  0  0  0  0  0  0  0  0  0  0  0
   58.8840   28.8440   43.7250 H   0  0  0  0  0  0  0  0  0  0  0  0
   61.0027   29.1451   45.9038 H   0  0  0  0  0  0  0  0  0  0  0  0
   61.8070   31.0480   47.0850 H   0  0  0  0  0  0  0  0  0  0  0  0
   61.8371   33.3943   49.2463 H   0  0  0  0  0  0  0  0  0  0  0  0
   62.5117   32.4946   47.8456 H   0  0  0  0  0  0  0  0  0  0  0  0
   62.5157   34.2909   47.8456 H   0  0  0  0  0  0  0  0  0  0  0  0
   60.1779   35.4282   48.1368 H   0  0  0  0  0  0  0  0  0  0  0  0
   57.9320   35.5036   47.0755 H   0  0  0  0  0  0  0  0  0  0  0  0
   57.0607   33.5302   45.8356 H   0  0  0  0  0  0  0  0  0  0  0  0
   56.0682   28.2122   44.7938 H   0  0  0  0  0  0  0  0  0  0  0  0
  1  2  1  0
  2  3  1  0
  3  4  2  0
  4  5  1  0
  5  6  2  0
  6  7  1  0
  7  8  1  0
  8  9  1  0
  9 10  1  0
 10 11  2  0
 11 12  1  0
 12 13  2  0
 13 14  1  0
 13 15  1  0
 15 16  2  0
 16 17  1  0
 17 18  2  0
 18 19  1  0
 19 20  2  0
  7 21  2  0
 21  3  1  0
 19  9  1  0
 18 12  1  0
  1 22  1  0
  1 23  1  0
  1 24  1  0
  4 25  1  0
  5 26  1  0
  6 27  1  0
  8 28  1  0
 10 29  1  0
 11 30  1  0
 14 31  1  0
 14 32  1  0
 14 33  1  0
 15 34  1  0
 16 35  1  0
 17 36  1  0
 21 37  1  0
M  CHG  1  11   1
M  END
>  <UniqueID>  (31) 
30

>  <SMILES>  (31) 
COc1cccc(Nn2c[nH+]c3c(C)cccc3c2=O)c1

>  <Energy>  (31) 
51.573930491772046

>  <Genealogy>  (31) 
COc1cccc(Nn2c[nH+]c3c(C)cccc3c2=O)c1 (protonated)
COc1cccc(Nn2c[nH+]c3c(C)cccc3c2=O)c1 (3D coordinates assigned)
COc1cccc(Nn2c[nH+]c3c(C)cccc3c2=O)c1 (optimized conformer: 51.573930491772046 kcal/mol)

>  <smiles>  (31) 
COc1cccc(Nn2cnc3c(C)cccc3c2=O)c1

>  <score_type>  (31) 
oracle

>  <origin>  (31) 
adg

>  <m_score__min__energy>  (31) 
-6.2199999999999998

>  <m_primary>  (31) 
energy

$$$$
31:0
     RDKit          3D

 46 46  0  0  0  0  0  0  0  0999 V2000
   61.9320   34.2240   49.5760 C   0  0  0  0  0  0  0  0  0  0  0  0
   60.6800   34.1810   48.6850 C   0  0  0  0  0  0  0  0  0  0  0  0
   60.9650   34.2590   47.2330 N   0  0  0  0  0  0  0  0  0  0  0  0
   61.9190   33.2280   46.7750 C   0  0  0  0  0  0  0  0  0  0  0  0
   63.3000   33.8380   46.5400 C   0  0  0  0  0  0  0  0  0  0  0  0
   59.7380   34.3370   46.4060 C   0  0  0  0  0  0  0  0  0  0  0  0
   58.5020   34.1010   47.2780 C   0  0  0  0  0  0  0  0  0  0  0  0
   57.4800   33.4610   46.5360 O   0  0  0  0  0  0  0  0  0  0  0  0
   57.5210   33.8650   45.1840 C   0  0  0  0  0  0  0  0  0  0  0  0
   57.4070   32.6330   44.2900 C   0  0  0  0  0  0  0  0  0  0  0  0
   57.0150   31.4920   45.0520 O   0  0  0  0  0  0  0  0  0  0  0  0
   57.6260   30.2380   44.9130 C   0  0  0  0  0  0  0  0  0  0  0  0
   57.1510   29.3410   43.9310 C   0  0  0  0  0  0  0  0  0  0  0  0
   56.0130   29.7180   43.0220 C   0  0  0  0  0  0  0  0  0  0  0  0
   57.8000   28.1110   43.7420 C   0  0  0  0  0  0  0  0  0  0  0  0
   58.8830   27.7540   44.5450 C   0  0  0  0  0  0  0  0  0  0  0  0
   59.3240   28.6140   45.5510 C   0  0  0  0  0  0  0  0  0  0  0  0
   58.6920   29.8510   45.7600 C   0  0  0  0  0  0  0  0  0  0  0  0
   59.1800   30.7360   46.8730 C   0  0  0  0  0  0  0  0  0  0  0  0
   61.6299   34.2136   50.6336 H   0  0  0  0  0  0  0  0  0  0  0  0
   62.5618   33.3470   49.3660 H   0  0  0  0  0  0  0  0  0  0  0  0
   62.5002   35.1422   49.3660 H   0  0  0  0  0  0  0  0  0  0  0  0
   60.1485   33.2383   48.8821 H   0  0  0  0  0  0  0  0  0  0  0  0
   60.0814   35.0686   48.9378 H   0  0  0  0  0  0  0  0  0  0  0  0
   61.9967   32.4420   47.5407 H   0  0  0  0  0  0  0  0  0  0  0  0
   61.5538   32.8031   45.8284 H   0  0  0  0  0  0  0  0  0  0  0  0
   63.7773   34.0488   47.5084 H   0  0  0  0  0  0  0  0  0  0  0  0
   63.9214   33.1306   45.9712 H   0  0  0  0  0  0  0  0  0  0  0  0
   63.1956   34.7737   45.9712 H   0  0  0  0  0  0  0  0  0  0  0  0
   59.6729   35.3332   45.9441 H   0  0  0  0  0  0  0  0  0  0  0  0
   59.7805   33.5647   45.6238 H   0  0  0  0  0  0  0  0  0  0  0  0
   58.7790   33.4663   48.1326 H   0  0  0  0  0  0  0  0  0  0  0  0
   58.1270   35.0734   47.6300 H   0  0  0  0  0  0  0  0  0  0  0  0
   56.6836   34.5480   44.9782 H   0  0  0  0  0  0  0  0  0  0  0  0
   58.4698   34.3832   44.9810 H   0  0  0  0  0  0  0  0  0  0  0  0
   56.6554   32.8216   43.5093 H   0  0  0  0  0  0  0  0  0  0  0  0
   58.3884   32.4342   43.8346 H   0  0  0  0  0  0  0  0  0  0  0  0
   55.1408   30.0069   43.6269 H   0  0  0  0  0  0  0  0  0  0  0  0
   56.3155   30.5639   42.3873 H   0  0  0  0  0  0  0  0  0  0  0  0
   55.7506   28.8588   42.3873 H   0  0  0  0  0  0  0  0  0  0  0  0
   57.4524   27.4245   42.9559 H   0  0  0  0  0  0  0  0  0  0  0  0
   59.3909   26.7915   44.3846 H   0  0  0  0  0  0  0  0  0  0  0  0
   60.1734   28.3211   46.1856 H   0  0  0  0  0  0  0  0  0  0  0  0
   58.9283   30.2795   47.8416 H   0  0  0  0  0  0  0  0  0  0  0  0
   60.2709   30.8543   46.7959 H   0  0  0  0  0  0  0  0  0  0  0  0
   58.6979   31.7217   46.7959 H   0  0  0  0  0  0  0  0  0  0  0  0
  1  2  1  0
  2  3  1  0
  3  4  1  0
  4  5  1  0
  3  6  1  0
  6  7  1  0
  7  8  1  0
  8  9  1  0
  9 10  1  0
 10 11  1  0
 11 12  1  0
 12 13  2  0
 13 14  1  0
 13 15  1  0
 15 16  2  0
 16 17  1  0
 17 18  2  0
 18 19  1  0
 18 12  1  0
  1 20  1  0
  1 21  1  0
  1 22  1  0
  2 23  1  0
  2 24  1  0
  4 25  1  0
  4 26  1  0
  5 27  1  0
  5 28  1  0
  5 29  1  0
  6 30  1  0
  6 31  1  0
  7 32  1  0
  7 33  1  0
  9 34  1  0
  9 35  1  0
 10 36  1  0
 10 37  1  0
 14 38  1  0
 14 39  1  0
 14 40  1  0
 15 41  1  0
 16 42  1  0
 17 43  1  0
 19 44  1  0
 19 45  1  0
 19 46  1  0
M  END
>  <UniqueID>  (32) 
31

>  <SMILES>  (32) 
CCN(CC)CCOCCOc1c(C)cccc1C

>  <Energy>  (32) 
47.68963533778401

>  <Genealogy>  (32) 
CCN(CC)CCOCCOc1c(C)cccc1C (3D coordinates assigned)
CCN(CC)CCOCCOc1c(C)cccc1C (optimized conformer: 47.68963533778401 kcal/mol)

>  <smiles>  (32) 
CCN(CC)CCOCCOc1c(C)cccc1C

>  <score_type>  (32) 
oracle

>  <origin>  (32) 
adg

>  <m_score__min__energy>  (32) 
-5.8499999999999996

>  <m_primary>  (32) 
energy

$$$$
