0:0
     RDKit          3D

 53 57  0  0  0  0  0  0  0  0999 V2000
   62.1730   33.7230   50.5310 C   0  0  0  0  0  0  0  0  0  0  0  0
   62.6860   33.4920   49.1810 N   0  0  0  0  0  0  0  0  0  0  0  0
   62.0760   33.7560   48.0050 C   0  0  0  0  0  0  0  0  0  0  0  0
   60.4210   34.4330   47.8280 S   0  0  0  0  0  0  0  0  0  0  0  0
   60.2570   33.9980   46.0560 C   0  0  0  0  0  0  0  0  0  0  0  0
   59.2850   34.9150   45.3020 C   0  0  0  0  0  0  0  0  0  0  0  0
   57.9920   34.2190   44.8540 C   0  0  0  0  0  0  0  0  0  0  0  0
   58.2570   32.7940   44.5490 N   0  0  0  0  0  0  0  0  0  0  0  0
   57.7530   32.3660   43.2360 C   0  0  0  0  0  0  0  0  0  0  0  0
   57.5030   30.8680   43.3220 C   0  0  2  0  0  0  0  0  0  0  0  0
   56.1860   30.4210   43.9410 C   0  0  0  0  0  0  0  0  0  0  0  0
   57.4340   30.5550   44.8070 C   0  0  1  0  0  0  0  0  0  0  0  0
   58.1760   29.3120   45.2200 C   0  0  0  0  0  0  0  0  0  0  0  0
   59.5780   29.2590   45.1410 C   0  0  0  0  0  0  0  0  0  0  0  0
   60.2630   28.1150   45.5600 C   0  0  0  0  0  0  0  0  0  0  0  0
   59.5570   27.0220   46.0720 C   0  0  0  0  0  0  0  0  0  0  0  0
   58.1640   27.0760   46.1720 C   0  0  0  0  0  0  0  0  0  0  0  0
   57.4800   26.0200   46.6790 F   0  0  0  0  0  0  0  0  0  0  0  0
   57.4750   28.2190   45.7540 C   0  0  0  0  0  0  0  0  0  0  0  0
   57.6790   31.8710   45.5330 C   0  0  0  0  0  0  0  0  0  0  0  0
   62.8610   33.4510   46.9550 N   0  0  0  0  0  0  0  0  0  0  0  0
   63.9860   32.9720   47.4640 N   0  0  0  0  0  0  0  0  0  0  0  0
   63.8840   32.9870   48.8080 C   0  0  0  0  0  0  0  0  0  0  0  0
   64.9330   32.4850   49.7270 C   0  0  0  0  0  0  0  0  0  0  0  0
   64.6900   31.3960   50.5780 C   0  0  0  0  0  0  0  0  0  0  0  0
   65.7080   30.9730   51.4330 C   0  0  0  0  0  0  0  0  0  0  0  0
   66.9040   31.6130   51.4340 N   0  0  0  0  0  0  0  0  0  0  0  0
   67.1290   32.6680   50.6090 C   0  0  0  0  0  0  0  0  0  0  0  0
   66.1500   33.0940   49.7680 N   0  0  0  0  0  0  0  0  0  0  0  0
   62.9173   33.3879   51.2684 H   0  0  0  0  0  0  0  0  0  0  0  0
   61.9767   34.7964   50.6700 H   0  0  0  0  0  0  0  0  0  0  0  0
   61.2392   33.1585   50.6700 H   0  0  0  0  0  0  0  0  0  0  0  0
   61.2475   34.0726   45.5834 H   0  0  0  0  0  0  0  0  0  0  0  0
   59.8535   32.9760   46.0036 H   0  0  0  0  0  0  0  0  0  0  0  0
   59.0163   35.7525   45.9626 H   0  0  0  0  0  0  0  0  0  0  0  0
   59.8019   35.2455   44.3890 H   0  0  0  0  0  0  0  0  0  0  0  0
   57.2458   34.2854   45.6595 H   0  0  0  0  0  0  0  0  0  0  0  0
   57.6126   34.7152   43.9485 H   0  0  0  0  0  0  0  0  0  0  0  0
   56.8161   32.8924   43.0011 H   0  0  0  0  0  0  0  0  0  0  0  0
   58.4787   32.5978   42.4425 H   0  0  0  0  0  0  0  0  0  0  0  0
   58.0165   30.5341   42.4083 H   0  0  0  0  0  0  0  0  0  0  0  0
   55.3589   31.1376   44.0526 H   0  0  0  0  0  0  0  0  0  0  0  0
   55.4621   29.6184   43.7368 H   0  0  0  0  0  0  0  0  0  0  0  0
   60.1380   30.1204   44.7482 H   0  0  0  0  0  0  0  0  0  0  0  0
   61.3598   28.0744   45.4868 H   0  0  0  0  0  0  0  0  0  0  0  0
   60.0975   26.1204   46.3958 H   0  0  0  0  0  0  0  0  0  0  0  0
   56.3795   28.2618   45.8440 H   0  0  0  0  0  0  0  0  0  0  0  0
   56.7308   32.2733   45.9189 H   0  0  0  0  0  0  0  0  0  0  0  0
   58.3554   31.7308   46.3891 H   0  0  0  0  0  0  0  0  0  0  0  0
   64.7820   32.6220   46.8880 H   0  0  0  0  0  0  0  0  0  0  0  0
   63.7156   30.8857   50.5711 H   0  0  0  0  0  0  0  0  0  0  0  0
   65.5407   30.1198   52.1069 H   0  0  0  0  0  0  0  0  0  0  0  0
   68.1037   33.1778   50.6214 H   0  0  0  0  0  0  0  0  0  0  0  0
  1  2  1  0
  2  3  1  0
  3  4  1  0
  4  5  1  0
  5  6  1  0
  6  7  1  0
  7  8  1  0
  8  9  1  0
  9 10  1  0
 10 11  1  0
 11 12  1  0
 12 13  1  1
 13 14  2  0
 14 15  1  0
 15 16  2  0
 16 17  1  0
 17 18  1  0
 17 19  2  0
 12 20  1  0
  3 21  2  0
 21 22  1  0
 22 23  2  0
 23 24  1  0
 24 25  2  0
 25 26  1  0
 26 27  2  0
 27 28  1  0
 28 29  2  0
 23  2  1  0
 29 24  1  0
 20  8  1  0
 12 10  1  0
 19 13  1  0
  1 30  1  0
  1 31  1  0
  1 32  1  0
  5 33  1  0
  5 34  1  0
  6 35  1  0
  6 36  1  0
  7 37  1  0
  7 38  1  0
  9 39  1  0
  9 40  1  0
 10 41  1  6
 11 42  1  0
 11 43  1  0
 14 44  1  0
 15 45  1  0
 16 46  1  0
 19 47  1  0
 20 48  1  0
 20 49  1  0
 22 50  1  0
 25 51  1  0
 26 52  1  0
 28 53  1  0
M  CHG  1  22   1
M  END
>  <UniqueID>  (1) 
1

>  <SMILES>  (1) 
Cn1c(SCCCN2C[C@@H]3C[C@]3(c3cccc(F)c3)C2)n[nH+]c1-c1ccncn1

>  <Energy>  (1) 
364.16166386941813

>  <Genealogy>  (1) 
Cn1c(SCCCN2CC3CC3(c3cccc(F)c3)C2)n[nH+]c1-c1ccncn1 (protonated)
Cn1c(SCCCN2C[C@@H]3C[C@]3(c3cccc(F)c3)C2)n[nH+]c1-c1ccncn1 (chirality)
Cn1c(SCCCN2C[C@@H]3C[C@]3(c3cccc(F)c3)C2)n[nH+]c1-c1ccncn1 (3D coordinates assigned)
Cn1c(SCCCN2C[C@@H]3C[C@]3(c3cccc(F)c3)C2)n[nH+]c1-c1ccncn1 (nonaromatic ring conformer: 364.16166386941813 kcal/mol)

>  <smiles>  (1) 
Cn1c(SCCCN2CC3CC3(c3cccc(F)c3)C2)nnc1-c1ccncn1

>  <score_type>  (1) 
oracle

>  <origin>  (1) 
adg

>  <m_score__min__energy>  (1) 
-8.3200000000000003

>  <m_primary>  (1) 
energy

$$$$
1:0
     RDKit          3D

 45 48  0  0  0  0  0  0  0  0999 V2000
   59.9200   30.6740   49.7860 C   0  0  0  0  0  0  0  0  0  0  0  0
   60.1050   31.8040   48.8840 N   0  0  0  0  0  0  0  0  0  0  0  0
   59.1390   32.6520   48.5460 N   0  0  0  0  0  0  0  0  0  0  0  0
   59.6590   33.5560   47.6790 C   0  0  0  0  0  0  0  0  0  0  0  0
   58.8890   34.7000   47.0790 C   0  0  0  0  0  0  0  0  0  0  0  0
   58.1100   34.2820   45.8250 C   0  0  0  0  0  0  0  0  0  0  0  0
   58.2860   32.8490   45.5390 N   0  0  0  0  0  0  0  0  0  0  0  0
   58.3800   32.5890   44.0970 C   0  0  0  0  0  0  0  0  0  0  0  0
   57.9500   31.1670   43.8080 C   0  0  0  0  0  0  0  0  0  0  0  0
   56.9240   30.9520   42.8750 C   0  0  0  0  0  0  0  0  0  0  0  0
   56.4770   29.6580   42.6130 C   0  0  0  0  0  0  0  0  0  0  0  0
   57.0200   28.5960   43.2640 N   0  0  0  0  0  0  0  0  0  0  0  0
   58.0100   28.7550   44.1880 C   0  0  0  0  0  0  0  0  0  0  0  0
   58.5380   27.6350   44.8500 C   0  0  0  0  0  0  0  0  0  0  0  0
   59.5450   27.7900   45.8050 C   0  0  0  0  0  0  0  0  0  0  0  0
   60.0370   29.0600   46.1020 C   0  0  0  0  0  0  0  0  0  0  0  0
   59.5270   30.1840   45.4490 C   0  0  0  0  0  0  0  0  0  0  0  0
   58.5050   30.0520   44.4850 C   0  0  0  0  0  0  0  0  0  0  0  0
   61.0000   33.2700   47.4910 C   0  0  0  0  0  0  0  0  0  0  0  0
   61.9980   33.8700   46.7250 C   0  0  0  0  0  0  0  0  0  0  0  0
   63.2790   33.2860   46.7520 C   0  0  0  0  0  0  0  0  0  0  0  0
   63.5260   32.1350   47.5340 C   0  0  0  0  0  0  0  0  0  0  0  0
   62.4970   31.5560   48.3000 C   0  0  0  0  0  0  0  0  0  0  0  0
   61.2380   32.1600   48.2520 C   0  0  0  0  0  0  0  0  0  0  0  0
   59.9771   31.0231   50.8276 H   0  0  0  0  0  0  0  0  0  0  0  0
   58.9353   30.2182   49.6056 H   0  0  0  0  0  0  0  0  0  0  0  0
   60.7080   29.9280   49.6056 H   0  0  0  0  0  0  0  0  0  0  0  0
   58.1777   35.0791   47.8275 H   0  0  0  0  0  0  0  0  0  0  0  0
   59.6119   35.4748   46.7840 H   0  0  0  0  0  0  0  0  0  0  0  0
   57.0408   34.4873   45.9823 H   0  0  0  0  0  0  0  0  0  0  0  0
   58.4949   34.8566   44.9696 H   0  0  0  0  0  0  0  0  0  0  0  0
   57.4380   32.3470   45.8950 H   0  0  0  0  0  0  0  0  0  0  0  0
   57.7242   33.2868   43.5558 H   0  0  0  0  0  0  0  0  0  0  0  0
   59.4200   32.7301   43.7676 H   0  0  0  0  0  0  0  0  0  0  0  0
   56.4718   31.8061   42.3496 H   0  0  0  0  0  0  0  0  0  0  0  0
   55.6788   29.4953   41.8738 H   0  0  0  0  0  0  0  0  0  0  0  0
   56.6540   27.6410   43.0430 H   0  0  0  0  0  0  0  0  0  0  0  0
   58.1565   26.6304   44.6152 H   0  0  0  0  0  0  0  0  0  0  0  0
   59.9505   26.9087   46.3236 H   0  0  0  0  0  0  0  0  0  0  0  0
   60.8308   29.1773   46.8544 H   0  0  0  0  0  0  0  0  0  0  0  0
   59.9254   31.1810   45.6882 H   0  0  0  0  0  0  0  0  0  0  0  0
   61.7925   34.7666   46.1217 H   0  0  0  0  0  0  0  0  0  0  0  0
   64.0935   33.7289   46.1600 H   0  0  0  0  0  0  0  0  0  0  0  0
   64.5310   31.6879   47.5441 H   0  0  0  0  0  0  0  0  0  0  0  0
   62.6773   30.6611   48.9137 H   0  0  0  0  0  0  0  0  0  0  0  0
  1  2  1  0
  2  3  1  0
  3  4  2  0
  4  5  1  0
  5  6  1  0
  6  7  1  0
  7  8  1  0
  8  9  1  0
  9 10  2  0
 10 11  1  0
 11 12  2  0
 12 13  1  0
 13 14  2  0
 14 15  1  0
 15 16  2  0
 16 17  1  0
 17 18  2  0
  4 19  1  0
 19 20  2  0
 20 21  1  0
 21 22  2  0
 22 23  1  0
 23 24  2  0
 24  2  1  0
 18  9  1  0
 24 19  1  0
 18 13  1  0
  1 25  1  0
  1 26  1  0
  1 27  1  0
  5 28  1  0
  5 29  1  0
  6 30  1  0
  6 31  1  0
  7 32  1  0
  8 33  1  0
  8 34  1  0
 10 35  1  0
 11 36  1  0
 12 37  1  0
 14 38  1  0
 15 39  1  0
 16 40  1  0
 17 41  1  0
 20 42  1  0
 21 43  1  0
 22 44  1  0
 23 45  1  0
M  CHG  1  12   1
M  END
>  <UniqueID>  (2) 
2

>  <SMILES>  (2) 
Cn1nc(CCNCc2cc[nH+]c3ccccc23)c2ccccc21

>  <Energy>  (2) 
86.92980866635894

>  <Genealogy>  (2) 
Cn1nc(CCNCc2cc[nH+]c3ccccc23)c2ccccc21 (protonated)
Cn1nc(CCNCc2cc[nH+]c3ccccc23)c2ccccc21 (3D coordinates assigned)
Cn1nc(CCNCc2cc[nH+]c3ccccc23)c2ccccc21 (optimized conformer: 86.92980866635894 kcal/mol)

>  <smiles>  (2) 
Cn1nc(CCNCc2ccnc3ccccc23)c2ccccc21

>  <score_type>  (2) 
oracle

>  <origin>  (2) 
adg

>  <m_score__min__energy>  (2) 
-7.3700000000000001

>  <m_primary>  (2) 
energy

$$$$
2:0
     RDKit          3D

 49 50  0  0  0  0  0  0  0  0999 V2000
   59.2450   30.3060   49.0700 C   0  0  0  0  0  0  0  0  0  0  0  0
   60.5510   30.6390   48.3640 C   0  0  0  0  0  0  0  0  0  0  0  0
   60.2820   31.5020   47.2790 O   0  0  0  0  0  0  0  0  0  0  0  0
   61.3720   32.3790   47.0590 C   0  0  0  0  0  0  0  0  0  0  0  0
   60.9830   33.8450   47.3340 C   0  0  0  0  0  0  0  0  0  0  0  0
   59.6450   34.0010   47.9420 N   0  0  0  0  0  0  0  0  0  0  0  0
   58.5630   34.3260   46.9800 C   0  0  0  0  0  0  0  0  0  0  0  0
   57.6990   33.0800   46.6440 C   0  0  0  0  0  0  0  0  0  0  0  0
   57.0510   33.1980   45.2580 C   0  0  0  0  0  0  0  0  0  0  0  0
   58.0550   33.3320   44.1710 N   0  0  0  0  0  0  0  0  0  0  0  0
   58.1650   32.1330   43.3000 C   0  0  2  0  0  0  0  0  0  0  0  0
   57.5340   32.3180   41.9030 C   0  0  0  0  0  0  0  0  0  0  0  0
   57.6710   30.8850   44.0210 C   0  0  0  0  0  0  0  0  0  0  0  0
   56.3230   30.5050   43.8860 C   0  0  0  0  0  0  0  0  0  0  0  0
   55.8470   29.3430   44.5000 C   0  0  0  0  0  0  0  0  0  0  0  0
   56.7130   28.5390   45.2450 C   0  0  0  0  0  0  0  0  0  0  0  0
   58.0590   28.8920   45.3720 C   0  0  0  0  0  0  0  0  0  0  0  0
   59.2470   27.7800   46.3720 Br  0  0  0  0  0  0  0  0  0  0  0  0
   58.5400   30.0550   44.7590 C   0  0  0  0  0  0  0  0  0  0  0  0
   59.3510   33.9290   44.5870 C   0  0  0  0  0  0  0  0  0  0  0  0
   59.1570   34.9670   45.6960 C   0  0  0  0  0  0  0  0  0  0  0  0
   59.3966   30.3446   50.1588 H   0  0  0  0  0  0  0  0  0  0  0  0
   58.4752   31.0366   48.7808 H   0  0  0  0  0  0  0  0  0  0  0  0
   58.9190   29.2960   48.7808 H   0  0  0  0  0  0  0  0  0  0  0  0
   61.2347   31.1350   49.0686 H   0  0  0  0  0  0  0  0  0  0  0  0
   61.0195   29.7146   47.9953 H   0  0  0  0  0  0  0  0  0  0  0  0
   62.1982   32.0970   47.7282 H   0  0  0  0  0  0  0  0  0  0  0  0
   61.6751   32.2946   46.0050 H   0  0  0  0  0  0  0  0  0  0  0  0
   61.7276   34.2795   48.0172 H   0  0  0  0  0  0  0  0  0  0  0  0
   60.9557   34.3580   46.3614 H   0  0  0  0  0  0  0  0  0  0  0  0
   59.4080   33.1170   48.4490 H   0  0  0  0  0  0  0  0  0  0  0  0
   59.7020   34.7600   48.6600 H   0  0  0  0  0  0  0  0  0  0  0  0
   57.8944   35.0588   47.4553 H   0  0  0  0  0  0  0  0  0  0  0  0
   58.3395   32.1859   46.6635 H   0  0  0  0  0  0  0  0  0  0  0  0
   56.8970   33.0057   47.3932 H   0  0  0  0  0  0  0  0  0  0  0  0
   56.4481   32.2969   45.0724 H   0  0  0  0  0  0  0  0  0  0  0  0
   56.4310   34.1066   45.2547 H   0  0  0  0  0  0  0  0  0  0  0  0
   59.2362   31.9902   43.0948 H   0  0  0  0  0  0  0  0  0  0  0  0
   56.4837   32.6259   42.0129 H   0  0  0  0  0  0  0  0  0  0  0  0
   58.0871   33.0918   41.3504 H   0  0  0  0  0  0  0  0  0  0  0  0
   57.5817   31.3681   41.3504 H   0  0  0  0  0  0  0  0  0  0  0  0
   55.6378   31.1278   43.2921 H   0  0  0  0  0  0  0  0  0  0  0  0
   54.7888   29.0612   44.3964 H   0  0  0  0  0  0  0  0  0  0  0  0
   56.3352   27.6278   45.7318 H   0  0  0  0  0  0  0  0  0  0  0  0
   59.6026   30.3232   44.8536 H   0  0  0  0  0  0  0  0  0  0  0  0
   60.0111   33.1302   44.9559 H   0  0  0  0  0  0  0  0  0  0  0  0
   59.7963   34.4319   43.7159 H   0  0  0  0  0  0  0  0  0  0  0  0
   60.1312   35.4164   45.9390 H   0  0  0  0  0  0  0  0  0  0  0  0
   58.4522   35.7301   45.3342 H   0  0  0  0  0  0  0  0  0  0  0  0
  1  2  1  0
  2  3  1  0
  3  4  1  0
  4  5  1  0
  5  6  1  0
  6  7  1  0
  7  8  1  0
  8  9  1  0
  9 10  1  0
 10 11  1  0
 11 12  1  0
 11 13  1  0
 13 14  2  0
 14 15  1  0
 15 16  2  0
 16 17  1  0
 17 18  1  0
 17 19  2  0
 10 20  1  0
 20 21  1  0
 21  7  1  0
 19 13  1  0
  1 22  1  0
  1 23  1  0
  1 24  1  0
  2 25  1  0
  2 26  1  0
  4 27  1  0
  4 28  1  0
  5 29  1  0
  5 30  1  0
  6 31  1  0
  6 32  1  0
  7 33  1  0
  8 34  1  0
  8 35  1  0
  9 36  1  0
  9 37  1  0
 11 38  1  6
 12 39  1  0
 12 40  1  0
 12 41  1  0
 14 42  1  0
 15 43  1  0
 16 44  1  0
 19 45  1  0
 20 46  1  0
 20 47  1  0
 21 48  1  0
 21 49  1  0
M  CHG  1   6   1
M  END
>  <UniqueID>  (3) 
3

>  <SMILES>  (3) 
CCOCC[NH2+]C1CCN([C@H](C)c2cccc(Br)c2)CC1

>  <Energy>  (3) 
60.861165616880974

>  <Genealogy>  (3) 
CCOCC[NH2+]C1CCN(C(C)c2cccc(Br)c2)CC1 (protonated)
CCOCC[NH2+]C1CCN([C@H](C)c2cccc(Br)c2)CC1 (chirality)
CCOCC[NH2+]C1CCN([C@H](C)c2cccc(Br)c2)CC1 (3D coordinates assigned)
CCOCC[NH2+]C1CCN([C@H](C)c2cccc(Br)c2)CC1 (nonaromatic ring conformer: 60.861165616880974 kcal/mol)

>  <smiles>  (3) 
CCOCCNC1CCN(C(C)c2cccc(Br)c2)CC1

>  <score_type>  (3) 
oracle

>  <origin>  (3) 
adg

>  <m_score__min__energy>  (3) 
-5.9400000000000004

>  <m_primary>  (3) 
energy

$$$$
3:0
     RDKit          3D

 76 79  0  0  0  0  0  0  0  0999 V2000
   57.3850   30.4490   51.7000 C   0  0  0  0  0  0  0  0  0  0  0  0
   57.2410   31.8850   51.4410 N   0  0  0  0  0  0  0  0  0  0  0  0
   57.4850   32.6780   52.6570 C   0  0  0  0  0  0  0  0  0  0  0  0
   58.3100   33.9410   52.3640 C   0  0  0  0  0  0  0  0  0  0  0  0
   59.5590   33.6800   51.5020 C   0  0  0  0  0  0  0  0  0  0  0  0
   59.2930   32.8490   50.3050 N   0  0  0  0  0  0  0  0  0  0  0  0
   60.2900   33.0450   49.2560 C   0  0  0  0  0  0  0  0  0  0  0  0
   59.8910   33.5380   47.9800 C   0  0  0  0  0  0  0  0  0  0  0  0
   58.5320   33.8130   47.6780 C   0  0  0  0  0  0  0  0  0  0  0  0
   58.1420   34.2180   46.4050 C   0  0  0  0  0  0  0  0  0  0  0  0
   59.0850   34.3480   45.3970 C   0  0  0  0  0  0  0  0  0  0  0  0
   60.4300   34.1180   45.6680 C   0  0  0  0  0  0  0  0  0  0  0  0
   60.8690   33.7620   46.9720 C   0  0  0  0  0  0  0  0  0  0  0  0
   62.2100   33.6310   47.2630 N   0  0  0  0  0  0  0  0  0  0  0  0
   63.2230   34.1910   46.3370 C   0  0  0  0  0  0  0  0  0  0  0  0
   62.6110   33.0140   48.4300 C   0  0  0  0  0  0  0  0  0  0  0  0
   63.9650   32.6470   48.6260 C   0  0  0  0  0  0  0  0  0  0  0  0
   64.4040   32.1180   49.8310 C   0  0  0  0  0  0  0  0  0  0  0  0
   63.5140   31.8840   50.8670 C   0  0  0  0  0  0  0  0  0  0  0  0
   64.0450   31.3950   52.0740 O   0  0  0  0  0  0  0  0  0  0  0  0
   65.1390   30.4900   52.2200 C   0  0  0  0  0  0  0  0  0  0  0  0
   64.6230   29.0910   52.6380 C   0  0  0  0  0  0  0  0  0  0  0  0
   65.6800   28.0920   53.0130 N   0  0  0  0  0  0  0  0  0  0  0  0
   65.4010   27.5360   54.3640 C   0  0  0  0  0  0  0  0  0  0  0  0
   65.6250   26.9680   52.0180 C   0  0  0  0  0  0  0  0  0  0  0  0
   66.9930   26.2880   51.8090 C   0  0  0  0  0  0  0  0  0  0  0  0
   68.0110   27.2310   51.2460 N   0  0  0  0  0  0  0  0  0  0  0  0
   69.3590   26.8240   51.7170 C   0  0  0  0  0  0  0  0  0  0  0  0
   68.0030   27.1470   49.7640 C   0  0  0  0  0  0  0  0  0  0  0  0
   67.7440   28.6470   51.6520 C   0  0  0  0  0  0  0  0  0  0  0  0
   67.0380   28.7370   53.0190 C   0  0  0  0  0  0  0  0  0  0  0  0
   62.1490   32.1560   50.6740 C   0  0  0  0  0  0  0  0  0  0  0  0
   61.6690   32.7290   49.4640 C   0  0  0  0  0  0  0  0  0  0  0  0
   57.4027   30.2722   52.7856 H   0  0  0  0  0  0  0  0  0  0  0  0
   56.5365   29.9091   51.2544 H   0  0  0  0  0  0  0  0  0  0  0  0
   58.3238   30.0884   51.2544 H   0  0  0  0  0  0  0  0  0  0  0  0
   56.2440   32.0420   51.1600 H   0  0  0  0  0  0  0  0  0  0  0  0
   56.5174   32.9774   53.0860 H   0  0  0  0  0  0  0  0  0  0  0  0
   58.0561   32.0545   53.3607 H   0  0  0  0  0  0  0  0  0  0  0  0
   57.6674   34.6603   51.8351 H   0  0  0  0  0  0  0  0  0  0  0  0
   58.6630   34.3255   53.3323 H   0  0  0  0  0  0  0  0  0  0  0  0
   59.9605   34.6488   51.1700 H   0  0  0  0  0  0  0  0  0  0  0  0
   60.2714   33.1230   52.1283 H   0  0  0  0  0  0  0  0  0  0  0  0
   59.2980   31.8420   50.5860 H   0  0  0  0  0  0  0  0  0  0  0  0
   58.3130   32.9640   49.9760 H   0  0  0  0  0  0  0  0  0  0  0  0
   57.7719   33.7039   48.4656 H   0  0  0  0  0  0  0  0  0  0  0  0
   57.0837   34.4354   46.1982 H   0  0  0  0  0  0  0  0  0  0  0  0
   58.7695   34.6331   44.3825 H   0  0  0  0  0  0  0  0  0  0  0  0
   61.1677   34.2135   44.8576 H   0  0  0  0  0  0  0  0  0  0  0  0
   64.0406   34.6430   46.9178 H   0  0  0  0  0  0  0  0  0  0  0  0
   63.6246   33.3868   45.7030 H   0  0  0  0  0  0  0  0  0  0  0  0
   62.7555   34.9588   45.7030 H   0  0  0  0  0  0  0  0  0  0  0  0
   64.6840   32.7844   47.8049 H   0  0  0  0  0  0  0  0  0  0  0  0
   65.4699   31.8818   49.9655 H   0  0  0  0  0  0  0  0  0  0  0  0
   65.6739   30.4089   51.2622 H   0  0  0  0  0  0  0  0  0  0  0  0
   65.8178   30.8696   52.9979 H   0  0  0  0  0  0  0  0  0  0  0  0
   63.9583   29.2211   53.5047 H   0  0  0  0  0  0  0  0  0  0  0  0
   64.1223   28.6785   51.7497 H   0  0  0  0  0  0  0  0  0  0  0  0
   65.7547   28.2409   55.1308 H   0  0  0  0  0  0  0  0  0  0  0  0
   64.3182   27.3808   54.4802 H   0  0  0  0  0  0  0  0  0  0  0  0
   65.9237   26.5751   54.4802 H   0  0  0  0  0  0  0  0  0  0  0  0
   64.9092   26.2144   52.3782 H   0  0  0  0  0  0  0  0  0  0  0  0
   65.3163   27.3951   51.0524 H   0  0  0  0  0  0  0  0  0  0  0  0
   67.3544   25.9131   52.7779 H   0  0  0  0  0  0  0  0  0  0  0  0
   66.8568   25.4675   51.0891 H   0  0  0  0  0  0  0  0  0  0  0  0
   69.3769   26.8186   52.8168 H   0  0  0  0  0  0  0  0  0  0  0  0
   69.5898   25.8161   51.3415 H   0  0  0  0  0  0  0  0  0  0  0  0
   70.1090   27.5358   51.3415 H   0  0  0  0  0  0  0  0  0  0  0  0
   67.9028   26.0955   49.4569 H   0  0  0  0  0  0  0  0  0  0  0  0
   67.1560   27.7268   49.3684 H   0  0  0  0  0  0  0  0  0  0  0  0
   68.9442   27.5564   49.3684 H   0  0  0  0  0  0  0  0  0  0  0  0
   68.7016   29.1851   51.7117 H   0  0  0  0  0  0  0  0  0  0  0  0
   67.0796   29.0950   50.8984 H   0  0  0  0  0  0  0  0  0  0  0  0
   67.6631   28.2346   53.7719 H   0  0  0  0  0  0  0  0  0  0  0  0
   66.8990   29.8030   53.2522 H   0  0  0  0  0  0  0  0  0  0  0  0
   61.4353   31.9203   51.4772 H   0  0  0  0  0  0  0  0  0  0  0  0
  1  2  1  0
  2  3  1  0
  3  4  1  0
  4  5  1  0
  5  6  1  0
  6  7  1  0
  7  8  2  0
  8  9  1  0
  9 10  2  0
 10 11  1  0
 11 12  2  0
 12 13  1  0
 13 14  2  0
 14 15  1  0
 14 16  1  0
 16 17  2  0
 17 18  1  0
 18 19  2  0
 19 20  1  0
 20 21  1  0
 21 22  1  0
 22 23  1  0
 23 24  1  0
 23 25  1  0
 25 26  1  0
 26 27  1  0
 27 28  1  0
 27 29  1  0
 27 30  1  0
 30 31  1  0
 19 32  1  0
 32 33  2  0
 33  7  1  0
 13  8  1  0
 33 16  1  0
 31 23  1  0
  1 34  1  0
  1 35  1  0
  1 36  1  0
  2 37  1  0
  3 38  1  0
  3 39  1  0
  4 40  1  0
  4 41  1  0
  5 42  1  0
  5 43  1  0
  6 44  1  0
  6 45  1  0
  9 46  1  0
 10 47  1  0
 11 48  1  0
 12 49  1  0
 15 50  1  0
 15 51  1  0
 15 52  1  0
 17 53  1  0
 18 54  1  0
 21 55  1  0
 21 56  1  0
 22 57  1  0
 22 58  1  0
 24 59  1  0
 24 60  1  0
 24 61  1  0
 25 62  1  0
 25 63  1  0
 26 64  1  0
 26 65  1  0
 28 66  1  0
 28 67  1  0
 28 68  1  0
 29 69  1  0
 29 70  1  0
 29 71  1  0
 30 72  1  0
 30 73  1  0
 31 74  1  0
 31 75  1  0
 32 76  1  0
M  CHG  4   6   1  14   1  23   1  27   1
M  END
>  <UniqueID>  (4) 
4

>  <SMILES>  (4) 
CNCCC[NH2+]c1c2ccccc2[n+](C)c2ccc(OCC[N+]3(C)CC[N+](C)(C)CC3)cc12

>  <Energy>  (4) 
131.6288403590275

>  <Genealogy>  (4) 
CNCCC[NH2+]c1c2ccccc2[n+](C)c2ccc(OCC[N+]3(C)CC[N+](C)(C)CC3)cc12 (protonated)
CNCCC[NH2+]c1c2ccccc2[n+](C)c2ccc(OCC[N+]3(C)CC[N+](C)(C)CC3)cc12 (3D coordinates assigned)
CNCCC[NH2+]c1c2ccccc2[n+](C)c2ccc(OCC[N+]3(C)CC[N+](C)(C)CC3)cc12 (nonaromatic ring conformer: 131.6288403590275 kcal/mol)

>  <smiles>  (4) 
CNCCCNc1c2ccccc2[n+](C)c2ccc(OCC[N+]3(C)CC[N+](C)(C)CC3)cc12

>  <score_type>  (4) 
oracle

>  <origin>  (4) 
adg

>  <m_score__min__energy>  (4) 
-2.3900000000000001

>  <m_primary>  (4) 
energy

$$$$
4:0
     RDKit          3D

 59 62  0  0  0  0  0  0  0  0999 V2000
   59.0050   33.3430   51.3780 C   0  0  0  0  0  0  0  0  0  0  0  0
   60.5190   33.4390   51.2640 C   0  0  0  0  0  0  0  0  0  0  0  0
   60.8640   33.7850   49.9350 O   0  0  0  0  0  0  0  0  0  0  0  0
   62.2300   33.8170   49.8000 N   0  0  0  0  0  0  0  0  0  0  0  0
   62.5580   33.9770   48.3760 C   0  0  0  0  0  0  0  0  0  0  0  0
   63.4820   32.8580   47.8650 C   0  0  0  0  0  0  0  0  0  0  0  0
   62.7110   31.5790   47.4970 C   0  0  0  0  0  0  0  0  0  0  0  0
   61.7770   31.1060   48.6240 C   0  0  0  0  0  0  0  0  0  0  0  0
   60.3820   31.4940   48.3870 N   0  0  0  0  0  0  0  0  0  0  0  0
   59.7140   31.3480   47.1230 C   0  0  0  0  0  0  0  0  0  0  0  0
   59.4120   30.0850   46.6160 C   0  0  0  0  0  0  0  0  0  0  0  0
   58.7210   29.9400   45.4220 C   0  0  0  0  0  0  0  0  0  0  0  0
   58.2370   31.0280   44.7280 N   0  0  0  0  0  0  0  0  0  0  0  0
   57.3030   30.8410   43.5990 C   0  0  0  0  0  0  0  0  0  0  0  0
   55.9590   30.2960   44.0850 C   0  0  0  0  0  0  0  0  0  0  0  0
   58.5940   32.3030   45.1550 C   0  0  0  0  0  0  0  0  0  0  0  0
   58.2600   33.4670   44.4140 C   0  0  0  0  0  0  0  0  0  0  0  0
   58.5920   34.7390   44.8790 C   0  0  0  0  0  0  0  0  0  0  0  0
   59.2640   34.8930   46.0850 C   0  0  0  0  0  0  0  0  0  0  0  0
   59.6250   33.7760   46.8320 C   0  0  0  0  0  0  0  0  0  0  0  0
   59.3140   32.4760   46.3800 C   0  0  0  0  0  0  0  0  0  0  0  0
   58.5310   28.4910   45.2000 C   0  0  0  0  0  0  0  0  0  0  0  0
   58.0640   27.7480   44.0990 C   0  0  0  0  0  0  0  0  0  0  0  0
   58.0490   26.3470   44.1790 C   0  0  0  0  0  0  0  0  0  0  0  0
   58.5290   25.6930   45.3230 C   0  0  0  0  0  0  0  0  0  0  0  0
   59.0490   26.4360   46.3900 C   0  0  0  0  0  0  0  0  0  0  0  0
   59.0470   27.8290   46.3040 C   0  0  0  0  0  0  0  0  0  0  0  0
   59.6650   28.7670   47.2820 C   0  0  0  0  0  0  0  0  0  0  0  0
   58.7177   33.3248   52.4396 H   0  0  0  0  0  0  0  0  0  0  0  0
   58.5445   34.2137   50.8884 H   0  0  0  0  0  0  0  0  0  0  0  0
   58.6582   32.4211   50.8884 H   0  0  0  0  0  0  0  0  0  0  0  0
   60.8919   34.2105   51.9538 H   0  0  0  0  0  0  0  0  0  0  0  0
   60.9717   32.4706   51.5235 H   0  0  0  0  0  0  0  0  0  0  0  0
   62.5770   32.8860   50.1270 H   0  0  0  0  0  0  0  0  0  0  0  0
   62.7030   34.5540   50.3820 H   0  0  0  0  0  0  0  0  0  0  0  0
   61.6252   33.9604   47.7932 H   0  0  0  0  0  0  0  0  0  0  0  0
   63.0870   34.9340   48.2560 H   0  0  0  0  0  0  0  0  0  0  0  0
   64.0127   33.2192   46.9718 H   0  0  0  0  0  0  0  0  0  0  0  0
   64.1806   32.6052   48.6762 H   0  0  0  0  0  0  0  0  0  0  0  0
   62.1072   31.7777   46.5992 H   0  0  0  0  0  0  0  0  0  0  0  0
   63.4501   30.7835   47.3212 H   0  0  0  0  0  0  0  0  0  0  0  0
   61.8328   30.0096   48.6937 H   0  0  0  0  0  0  0  0  0  0  0  0
   62.1064   31.5838   49.5585 H   0  0  0  0  0  0  0  0  0  0  0  0
   59.8830   32.0100   49.1460 H   0  0  0  0  0  0  0  0  0  0  0  0
   57.1404   31.8089   43.1023 H   0  0  0  0  0  0  0  0  0  0  0  0
   57.7419   30.1169   42.8968 H   0  0  0  0  0  0  0  0  0  0  0  0
   55.9422   30.2892   45.1848 H   0  0  0  0  0  0  0  0  0  0  0  0
   55.1466   30.9358   43.7098 H   0  0  0  0  0  0  0  0  0  0  0  0
   55.8216   29.2711   43.7098 H   0  0  0  0  0  0  0  0  0  0  0  0
   57.7298   33.3636   43.4558 H   0  0  0  0  0  0  0  0  0  0  0  0
   58.3202   35.6256   44.2874 H   0  0  0  0  0  0  0  0  0  0  0  0
   59.5114   35.9006   46.4504 H   0  0  0  0  0  0  0  0  0  0  0  0
   60.1584   33.9078   47.7849 H   0  0  0  0  0  0  0  0  0  0  0  0
   57.7158   28.2585   43.1889 H   0  0  0  0  0  0  0  0  0  0  0  0
   57.6575   25.7568   43.3373 H   0  0  0  0  0  0  0  0  0  0  0  0
   58.4970   24.5951   45.3822 H   0  0  0  0  0  0  0  0  0  0  0  0
   59.4519   25.9307   47.2801 H   0  0  0  0  0  0  0  0  0  0  0  0
   59.1718   28.7095   48.2636 H   0  0  0  0  0  0  0  0  0  0  0  0
   60.7247   28.5641   47.4964 H   0  0  0  0  0  0  0  0  0  0  0  0
  1  2  1  0
  2  3  1  0
  3  4  1  0
  4  5  1  0
  5  6  1  0
  6  7  1  0
  7  8  1  0
  8  9  1  0
  9 10  1  0
 10 11  2  0
 11 12  1  0
 12 13  2  0
 13 14  1  0
 14 15  1  0
 13 16  1  0
 16 17  2  0
 17 18  1  0
 18 19  2  0
 19 20  1  0
 20 21  2  0
 12 22  1  0
 22 23  2  0
 23 24  1  0
 24 25  2  0
 25 26  1  0
 26 27  2  0
 27 28  1  0
 21 10  1  0
 27 22  1  0
 28 11  1  0
 21 16  1  0
  1 29  1  0
  1 30  1  0
  1 31  1  0
  2 32  1  0
  2 33  1  0
  4 34  1  0
  4 35  1  0
  5 36  1  0
  5 37  1  0
  6 38  1  0
  6 39  1  0
  7 40  1  0
  7 41  1  0
  8 42  1  0
  8 43  1  0
  9 44  1  0
 14 45  1  0
 14 46  1  0
 15 47  1  0
 15 48  1  0
 15 49  1  0
 17 50  1  0
 18 51  1  0
 19 52  1  0
 20 53  1  0
 23 54  1  0
 24 55  1  0
 25 56  1  0
 26 57  1  0
 28 58  1  0
 28 59  1  0
M  CHG  2   4   1  13   1
M  END
>  <UniqueID>  (5) 
5

>  <SMILES>  (5) 
CCO[NH2+]CCCCNc1c2c([n+](CC)c3ccccc13)-c1ccccc1C2

>  <Energy>  (5) 
100.23050341373524

>  <Genealogy>  (5) 
CCO[NH2+]CCCCNc1c2c([n+](CC)c3ccccc13)-c1ccccc1C2 (protonated)
CCO[NH2+]CCCCNc1c2c([n+](CC)c3ccccc13)-c1ccccc1C2 (3D coordinates assigned)
CCO[NH2+]CCCCNc1c2c([n+](CC)c3ccccc13)-c1ccccc1C2 (nonaromatic ring conformer: 100.23050341373524 kcal/mol)

>  <smiles>  (5) 
CCONCCCCNc1c2c([n+](CC)c3ccccc13)-c1ccccc1C2

>  <score_type>  (5) 
oracle

>  <origin>  (5) 
adg

>  <m_score__min__energy>  (5) 
-5.5999999999999996

>  <m_primary>  (5) 
energy

$$$$
5:0
     RDKit          3D

 43 46  0  0  0  0  0  0  0  0999 V2000
   63.3710   33.8420   46.6600 C   0  0  0  0  0  0  0  0  0  0  0  0
   63.6020   32.4120   47.1260 C   0  0  0  0  0  0  0  0  0  0  0  0
   62.6110   32.0360   48.1890 C   0  0  0  0  0  0  0  0  0  0  0  0
   62.8530   31.9790   49.5530 C   0  0  0  0  0  0  0  0  0  0  0  0
   61.7090   31.6460   50.1880 N   0  0  0  0  0  0  0  0  0  0  0  0
   60.7910   31.5260   49.2090 C   0  0  0  0  0  0  0  0  0  0  0  0
   59.4450   31.1700   49.3410 C   0  0  0  0  0  0  0  0  0  0  0  0
   58.8270   30.9390   50.6170 N   0  0  0  0  0  0  0  0  0  0  0  0
   57.8790   31.9100   51.1790 C   0  0  0  0  0  0  0  0  0  0  0  0
   56.6510   31.2010   51.8040 C   0  0  0  0  0  0  0  0  0  0  0  0
   56.8090   29.8000   51.9880 O   0  0  0  0  0  0  0  0  0  0  0  0
   58.1010   29.5000   52.4660 C   0  0  0  0  0  0  0  0  0  0  0  0
   59.1050   29.6900   51.3310 C   0  0  0  0  0  0  0  0  0  0  0  0
   58.7080   31.0540   48.1980 N   0  0  0  0  0  0  0  0  0  0  0  0
   59.2290   31.2900   46.9530 C   0  0  0  0  0  0  0  0  0  0  0  0
   58.3590   31.1370   45.7580 C   0  0  0  0  0  0  0  0  0  0  0  0
   58.4190   32.0340   44.6760 C   0  0  0  0  0  0  0  0  0  0  0  0
   57.5840   31.8580   43.5700 C   0  0  0  0  0  0  0  0  0  0  0  0
   56.6850   30.7930   43.5530 C   0  0  0  0  0  0  0  0  0  0  0  0
   56.6230   29.9380   44.6070 N   0  0  0  0  0  0  0  0  0  0  0  0
   57.4250   30.0850   45.6960 C   0  0  0  0  0  0  0  0  0  0  0  0
   60.5880   31.6520   46.8460 C   0  0  0  0  0  0  0  0  0  0  0  0
   61.3100   31.7510   47.9900 N   0  0  0  0  0  0  0  0  0  0  0  0
   63.2647   34.5001   47.5350 H   0  0  0  0  0  0  0  0  0  0  0  0
   64.2273   34.1730   46.0541 H   0  0  0  0  0  0  0  0  0  0  0  0
   62.4540   33.8866   46.0541 H   0  0  0  0  0  0  0  0  0  0  0  0
   63.4900   31.7303   46.2700 H   0  0  0  0  0  0  0  0  0  0  0  0
   64.6166   32.3348   47.5438 H   0  0  0  0  0  0  0  0  0  0  0  0
   63.8204   32.1736   50.0391 H   0  0  0  0  0  0  0  0  0  0  0  0
   61.5890   31.4970   51.2130 H   0  0  0  0  0  0  0  0  0  0  0  0
   58.3876   32.4982   51.9571 H   0  0  0  0  0  0  0  0  0  0  0  0
   57.5269   32.5620   50.3660 H   0  0  0  0  0  0  0  0  0  0  0  0
   56.4544   31.6564   52.7858 H   0  0  0  0  0  0  0  0  0  0  0  0
   55.8202   31.3315   51.0949 H   0  0  0  0  0  0  0  0  0  0  0  0
   58.3525   30.1740   53.2981 H   0  0  0  0  0  0  0  0  0  0  0  0
   58.1342   28.4599   52.8226 H   0  0  0  0  0  0  0  0  0  0  0  0
   60.1223   29.7277   51.7476 H   0  0  0  0  0  0  0  0  0  0  0  0
   59.0191   28.8472   50.6293 H   0  0  0  0  0  0  0  0  0  0  0  0
   59.1256   32.8766   44.7009 H   0  0  0  0  0  0  0  0  0  0  0  0
   57.6355   32.5540   42.7197 H   0  0  0  0  0  0  0  0  0  0  0  0
   56.0252   30.6446   42.6855 H   0  0  0  0  0  0  0  0  0  0  0  0
   57.3433   29.3771   46.5340 H   0  0  0  0  0  0  0  0  0  0  0  0
   61.0477   31.8478   45.8660 H   0  0  0  0  0  0  0  0  0  0  0  0
  1  2  1  0
  2  3  1  0
  3  4  2  0
  4  5  1  0
  5  6  2  0
  6  7  1  0
  7  8  1  0
  8  9  1  0
  9 10  1  0
 10 11  1  0
 11 12  1  0
 12 13  1  0
  7 14  2  0
 14 15  1  0
 15 16  1  0
 16 17  2  0
 17 18  1  0
 18 19  2  0
 19 20  1  0
 20 21  2  0
 15 22  2  0
 22 23  1  0
 23  3  1  0
 23  6  1  0
 13  8  1  0
 21 16  1  0
  1 24  1  0
  1 25  1  0
  1 26  1  0
  2 27  1  0
  2 28  1  0
  4 29  1  0
  5 30  1  0
  9 31  1  0
  9 32  1  0
 10 33  1  0
 10 34  1  0
 12 35  1  0
 12 36  1  0
 13 37  1  0
 13 38  1  0
 17 39  1  0
 18 40  1  0
 19 41  1  0
 21 42  1  0
 22 43  1  0
M  CHG  1   5   1
M  END
>  <UniqueID>  (6) 
6

>  <SMILES>  (6) 
CCc1c[nH+]c2c(N3CCOCC3)nc(-c3cccnc3)cn12

>  <Energy>  (6) 
95.63271657540193

>  <Genealogy>  (6) 
CCc1c[nH+]c2c(N3CCOCC3)nc(-c3cccnc3)cn12 (protonated)
CCc1c[nH+]c2c(N3CCOCC3)nc(-c3cccnc3)cn12 (3D coordinates assigned)
CCc1c[nH+]c2c(N3CCOCC3)nc(-c3cccnc3)cn12 (nonaromatic ring conformer: 95.63271657540193 kcal/mol)

>  <smiles>  (6) 
CCc1cnc2c(N3CCOCC3)nc(-c3cccnc3)cn12

>  <score_type>  (6) 
oracle

>  <origin>  (6) 
adg

>  <m_score__min__energy>  (6) 
-5.4500000000000002

>  <m_primary>  (6) 
energy

$$$$
6:0
     RDKit          3D

 43 45  0  0  0  0  0  0  0  0999 V2000
   56.2690   30.1800   43.9580 C   0  0  0  0  0  0  0  0  0  0  0  0
   57.5620   30.3610   44.7360 C   0  0  0  0  0  0  0  0  0  0  0  0
   57.4280   31.4580   45.6140 O   0  0  0  0  0  0  0  0  0  0  0  0
   57.3550   32.6520   44.8670 C   0  0  0  0  0  0  0  0  0  0  0  0
   57.4040   33.8610   45.8060 C   0  0  0  0  0  0  0  0  0  0  0  0
   58.6720   33.8830   46.6930 C   0  0  0  0  0  0  0  0  0  0  0  0
   59.0010   32.5610   47.2650 N   0  0  0  0  0  0  0  0  0  0  0  0
   59.9330   32.6580   48.3740 C   0  0  0  0  0  0  0  0  0  0  0  0
   61.3180   32.9280   48.1880 C   0  0  0  0  0  0  0  0  0  0  0  0
   61.8560   33.1610   46.9030 C   0  0  0  0  0  0  0  0  0  0  0  0
   63.2040   33.4620   46.7330 C   0  0  0  0  0  0  0  0  0  0  0  0
   64.0440   33.5560   47.8350 C   0  0  0  0  0  0  0  0  0  0  0  0
   63.5470   33.3320   49.1170 C   0  0  0  0  0  0  0  0  0  0  0  0
   62.1880   32.9890   49.3290 C   0  0  0  0  0  0  0  0  0  0  0  0
   61.7010   32.7350   50.6030 N   0  0  0  0  0  0  0  0  0  0  0  0
   62.6130   32.6350   51.7610 C   0  0  0  0  0  0  0  0  0  0  0  0
   60.3460   32.5820   50.7780 C   0  0  0  0  0  0  0  0  0  0  0  0
   59.6720   32.4760   52.0150 C   0  0  0  0  0  0  0  0  0  0  0  0
   58.2980   32.3250   51.8850 C   0  0  0  0  0  0  0  0  0  0  0  0
   57.9080   32.3360   50.2510 S   0  0  0  0  0  0  0  0  0  0  0  0
   59.4850   32.5290   49.6920 C   0  0  0  0  0  0  0  0  0  0  0  0
   55.4313   30.0627   44.6612 H   0  0  0  0  0  0  0  0  0  0  0  0
   56.0954   31.0626   43.3248 H   0  0  0  0  0  0  0  0  0  0  0  0
   56.3444   29.2837   43.3248 H   0  0  0  0  0  0  0  0  0  0  0  0
   57.7728   29.4501   45.3155 H   0  0  0  0  0  0  0  0  0  0  0  0
   58.3901   30.5477   44.0365 H   0  0  0  0  0  0  0  0  0  0  0  0
   58.2043   32.6978   44.1695 H   0  0  0  0  0  0  0  0  0  0  0  0
   56.4095   32.6692   44.3051 H   0  0  0  0  0  0  0  0  0  0  0  0
   57.3843   34.7781   45.1989 H   0  0  0  0  0  0  0  0  0  0  0  0
   56.5337   33.7948   46.4755 H   0  0  0  0  0  0  0  0  0  0  0  0
   59.5214   34.2213   46.0814 H   0  0  0  0  0  0  0  0  0  0  0  0
   58.4731   34.5642   47.5335 H   0  0  0  0  0  0  0  0  0  0  0  0
   58.1250   32.0930   47.5890 H   0  0  0  0  0  0  0  0  0  0  0  0
   59.3670   31.9370   46.5100 H   0  0  0  0  0  0  0  0  0  0  0  0
   61.1990   33.1036   46.0226 H   0  0  0  0  0  0  0  0  0  0  0  0
   63.6056   33.6261   45.7222 H   0  0  0  0  0  0  0  0  0  0  0  0
   65.1055   33.8082   47.6950 H   0  0  0  0  0  0  0  0  0  0  0  0
   64.2218   33.4230   49.9810 H   0  0  0  0  0  0  0  0  0  0  0  0
   62.0313   32.6988   52.6924 H   0  0  0  0  0  0  0  0  0  0  0  0
   63.1455   31.6731   51.7264 H   0  0  0  0  0  0  0  0  0  0  0  0
   63.3413   33.4587   51.7264 H   0  0  0  0  0  0  0  0  0  0  0  0
   60.1860   32.5098   52.9870 H   0  0  0  0  0  0  0  0  0  0  0  0
   57.5834   32.2162   52.7142 H   0  0  0  0  0  0  0  0  0  0  0  0
  1  2  1  0
  2  3  1  0
  3  4  1  0
  4  5  1  0
  5  6  1  0
  6  7  1  0
  7  8  1  0
  8  9  2  0
  9 10  1  0
 10 11  2  0
 11 12  1  0
 12 13  2  0
 13 14  1  0
 14 15  2  0
 15 16  1  0
 15 17  1  0
 17 18  1  0
 18 19  2  0
 19 20  1  0
 20 21  1  0
 21  8  1  0
 14  9  1  0
 21 17  2  0
  1 22  1  0
  1 23  1  0
  1 24  1  0
  2 25  1  0
  2 26  1  0
  4 27  1  0
  4 28  1  0
  5 29  1  0
  5 30  1  0
  6 31  1  0
  6 32  1  0
  7 33  1  0
  7 34  1  0
 10 35  1  0
 11 36  1  0
 12 37  1  0
 13 38  1  0
 16 39  1  0
 16 40  1  0
 16 41  1  0
 18 42  1  0
 19 43  1  0
M  CHG  2   7   1  15   1
M  END
>  <UniqueID>  (7) 
7

>  <SMILES>  (7) 
CCOCCC[NH2+]c1c2ccccc2[n+](C)c2ccsc12

>  <Energy>  (7) 
86.23288102765622

>  <Genealogy>  (7) 
CCOCCC[NH2+]c1c2ccccc2[n+](C)c2ccsc12 (protonated)
CCOCCC[NH2+]c1c2ccccc2[n+](C)c2ccsc12 (3D coordinates assigned)
CCOCCC[NH2+]c1c2ccccc2[n+](C)c2ccsc12 (optimized conformer: 86.23288102765622 kcal/mol)

>  <smiles>  (7) 
CCOCCCNc1c2ccccc2[n+](C)c2ccsc12

>  <score_type>  (7) 
oracle

>  <origin>  (7) 
adg

>  <m_score__min__energy>  (7) 
-3.3399999999999999

>  <m_primary>  (7) 
energy

$$$$
7:0
     RDKit          3D

 48 48  0  0  0  0  0  0  0  0999 V2000
   55.7860   30.0660   44.0920 C   0  0  0  0  0  0  0  0  0  0  0  0
   56.9620   31.0350   44.0020 C   0  0  0  0  0  0  0  0  0  0  0  0
   57.5380   31.2690   45.2890 O   0  0  0  0  0  0  0  0  0  0  0  0
   58.3100   30.3530   46.0260 C   0  0  0  0  0  0  0  0  0  0  0  0
   58.6190   29.0700   45.5260 C   0  0  0  0  0  0  0  0  0  0  0  0
   59.4020   28.1870   46.2690 C   0  0  0  0  0  0  0  0  0  0  0  0
   59.9050   28.5740   47.5080 C   0  0  0  0  0  0  0  0  0  0  0  0
   59.6250   29.8440   48.0100 C   0  0  0  0  0  0  0  0  0  0  0  0
   58.8120   30.7400   47.2910 C   0  0  0  0  0  0  0  0  0  0  0  0
   58.5740   32.1350   47.8480 C   0  0  0  0  0  0  0  0  0  0  0  0
   59.5700   33.1610   47.4310 N   0  0  0  0  0  0  0  0  0  0  0  0
   59.0440   34.5450   47.4450 C   0  0  0  0  0  0  0  0  0  0  0  0
   59.5670   35.3440   46.2350 C   0  0  0  0  0  0  0  0  0  0  0  0
   59.2590   34.6700   44.8870 C   0  0  0  0  0  0  0  0  0  0  0  0
   58.6450   33.3540   45.0600 N   0  0  0  0  0  0  0  0  0  0  0  0
   60.8880   33.0520   48.1040 C   0  0  0  0  0  0  0  0  0  0  0  0
   62.0110   32.6750   47.1110 C   0  0  0  0  0  0  0  0  0  0  0  0
   62.7380   31.4130   47.5920 C   0  0  0  0  0  0  0  0  0  0  0  0
   63.0070   33.8290   46.9390 C   0  0  0  0  0  0  0  0  0  0  0  0
   55.5507   29.8721   45.1489 H   0  0  0  0  0  0  0  0  0  0  0  0
   54.9088   30.5069   43.5960 H   0  0  0  0  0  0  0  0  0  0  0  0
   56.0511   29.1206   43.5960 H   0  0  0  0  0  0  0  0  0  0  0  0
   57.7283   30.6086   43.3380 H   0  0  0  0  0  0  0  0  0  0  0  0
   56.5947   31.9929   43.6052 H   0  0  0  0  0  0  0  0  0  0  0  0
   58.2385   28.7634   44.5405 H   0  0  0  0  0  0  0  0  0  0  0  0
   59.6224   27.1837   45.8756 H   0  0  0  0  0  0  0  0  0  0  0  0
   60.5241   27.8768   48.0916 H   0  0  0  0  0  0  0  0  0  0  0  0
   60.0446   30.1495   48.9798 H   0  0  0  0  0  0  0  0  0  0  0  0
   57.5804   32.4697   47.5152 H   0  0  0  0  0  0  0  0  0  0  0  0
   58.6639   32.0476   48.9408 H   0  0  0  0  0  0  0  0  0  0  0  0
   57.9451   34.5131   47.4079 H   0  0  0  0  0  0  0  0  0  0  0  0
   59.3828   35.0406   48.3667 H   0  0  0  0  0  0  0  0  0  0  0  0
   59.0984   36.3392   46.2438 H   0  0  0  0  0  0  0  0  0  0  0  0
   60.6614   35.4027   46.3294 H   0  0  0  0  0  0  0  0  0  0  0  0
   58.5696   35.3115   44.3185 H   0  0  0  0  0  0  0  0  0  0  0  0
   60.2095   34.5335   44.3504 H   0  0  0  0  0  0  0  0  0  0  0  0
   58.1690   33.0590   44.1780 H   0  0  0  0  0  0  0  0  0  0  0  0
   57.9610   33.3760   45.8520 H   0  0  0  0  0  0  0  0  0  0  0  0
   59.3930   32.6580   45.2820 H   0  0  0  0  0  0  0  0  0  0  0  0
   61.1323   34.0194   48.5670 H   0  0  0  0  0  0  0  0  0  0  0  0
   60.8203   32.2568   48.8610 H   0  0  0  0  0  0  0  0  0  0  0  0
   61.5509   32.4739   46.1323 H   0  0  0  0  0  0  0  0  0  0  0  0
   62.7494   31.3931   48.6918 H   0  0  0  0  0  0  0  0  0  0  0  0
   62.2147   30.5221   47.2146 H   0  0  0  0  0  0  0  0  0  0  0  0
   63.7712   31.4187   47.2146 H   0  0  0  0  0  0  0  0  0  0  0  0
   63.3210   34.1929   47.9284 H   0  0  0  0  0  0  0  0  0  0  0  0
   63.8870   33.4740   46.3826 H   0  0  0  0  0  0  0  0  0  0  0  0
   62.5272   34.6476   46.3826 H   0  0  0  0  0  0  0  0  0  0  0  0
  1  2  1  0
  2  3  1  0
  3  4  1  0
  4  5  2  0
  5  6  1  0
  6  7  2  0
  7  8  1  0
  8  9  2  0
  9 10  1  0
 10 11  1  0
 11 12  1  0
 12 13  1  0
 13 14  1  0
 14 15  1  0
 11 16  1  0
 16 17  1  0
 17 18  1  0
 17 19  1  0
  9  4  1  0
  1 20  1  0
  1 21  1  0
  1 22  1  0
  2 23  1  0
  2 24  1  0
  5 25  1  0
  6 26  1  0
  7 27  1  0
  8 28  1  0
 10 29  1  0
 10 30  1  0
 12 31  1  0
 12 32  1  0
 13 33  1  0
 13 34  1  0
 14 35  1  0
 14 36  1  0
 15 37  1  0
 15 38  1  0
 15 39  1  0
 16 40  1  0
 16 41  1  0
 17 42  1  0
 18 43  1  0
 18 44  1  0
 18 45  1  0
 19 46  1  0
 19 47  1  0
 19 48  1  0
M  CHG  1  15   1
M  END
>  <UniqueID>  (8) 
8

>  <SMILES>  (8) 
CCOc1ccccc1CN(CCC[NH3+])CC(C)C

>  <Energy>  (8) 
40.617472547038325

>  <Genealogy>  (8) 
CCOc1ccccc1CN(CCC[NH3+])CC(C)C (protonated)
CCOc1ccccc1CN(CCC[NH3+])CC(C)C (3D coordinates assigned)
CCOc1ccccc1CN(CCC[NH3+])CC(C)C (optimized conformer: 40.617472547038325 kcal/mol)

>  <smiles>  (8) 
CCOc1ccccc1CN(CCCN)CC(C)C

>  <score_type>  (8) 
oracle

>  <origin>  (8) 
adg

>  <m_score__min__energy>  (8) 
-3.04

>  <m_primary>  (8) 
energy

$$$$
8:0
     RDKit          3D

 70 72  0  0  0  0  0  0  0  0999 V2000
   61.8621   35.0539   48.3590 H   0  0  0  0  0  0  0  0  0  0  0  0
   61.0300   34.4430   48.7390 C   0  0  0  0  0  0  0  0  0  0  0  0
   60.9200   34.2030   50.0650 N   0  0  0  0  0  0  0  0  0  0  0  0
   59.9260   33.4330   50.5790 C   0  0  0  0  0  0  0  0  0  0  0  0
   59.8940   33.2250   51.9630 C   0  0  0  0  0  0  0  0  0  0  0  0
   60.6459   33.7070   52.6052 H   0  0  0  0  0  0  0  0  0  0  0  0
   58.9180   32.4130   52.5320 C   0  0  0  0  0  0  0  0  0  0  0  0
   58.8890   32.1520   54.2670 Cl  0  0  0  0  0  0  0  0  0  0  0  0
   57.9780   31.7870   51.7170 C   0  0  0  0  0  0  0  0  0  0  0  0
   57.2172   31.1312   52.1654 H   0  0  0  0  0  0  0  0  0  0  0  0
   57.9940   31.9860   50.3320 C   0  0  0  0  0  0  0  0  0  0  0  0
   57.2541   31.4685   49.7037 H   0  0  0  0  0  0  0  0  0  0  0  0
   58.9470   32.8430   49.7230 C   0  0  0  0  0  0  0  0  0  0  0  0
   59.0230   33.1390   48.3160 C   0  0  0  0  0  0  0  0  0  0  0  0
   58.1590   32.7910   47.3970 N   0  0  0  0  0  0  0  0  0  0  0  0
   57.3850   33.5510   46.4230 C   0  0  0  0  0  0  0  0  0  0  0  0
   57.1600   34.5484   46.8287 H   0  0  0  0  0  0  0  0  0  0  0  0
   56.4423   33.0265   46.2080 H   0  0  0  0  0  0  0  0  0  0  0  0
   58.2000   33.6930   45.1380 C   0  0  0  0  0  0  0  0  0  0  0  0
   59.0479   32.9930   45.1702 H   0  0  0  0  0  0  0  0  0  0  0  0
   58.5601   34.7297   45.0630 H   0  0  0  0  0  0  0  0  0  0  0  0
   57.4060   33.4070   44.0020 O   0  0  0  0  0  0  0  0  0  0  0  0
   57.8200   32.2070   43.3850 C   0  0  0  0  0  0  0  0  0  0  0  0
   58.7854   32.3645   42.8819 H   0  0  0  0  0  0  0  0  0  0  0  0
   57.0732   31.8938   42.6406 H   0  0  0  0  0  0  0  0  0  0  0  0
   57.9690   31.1290   44.4520 C   0  0  0  0  0  0  0  0  0  0  0  0
   58.5303   31.5325   45.3077 H   0  0  0  0  0  0  0  0  0  0  0  0
   58.5130   30.2681   44.0362 H   0  0  0  0  0  0  0  0  0  0  0  0
   56.6820   30.7200   44.8790 O   0  0  0  0  0  0  0  0  0  0  0  0
   56.3880   29.3960   44.4710 C   0  0  0  0  0  0  0  0  0  0  0  0
   55.2969   29.2599   44.4395 H   0  0  0  0  0  0  0  0  0  0  0  0
   56.8351   28.6928   45.1891 H   0  0  0  0  0  0  0  0  0  0  0  0
   56.9710   29.1260   43.0810 C   0  0  0  0  0  0  0  0  0  0  0  0
   57.6528   29.9458   42.8107 H   0  0  0  0  0  0  0  0  0  0  0  0
   56.1438   29.0612   42.3588 H   0  0  0  0  0  0  0  0  0  0  0  0
   57.7130   27.8560   43.0620 N   0  0  0  0  0  0  0  0  0  0  0  0
   57.0190   27.0720   43.1120 H   0  0  0  0  0  0  0  0  0  0  0  0
   58.6050   27.7400   44.2220 C   0  0  0  0  0  0  0  0  0  0  0  0
   58.5512   28.6646   44.8156 H   0  0  0  0  0  0  0  0  0  0  0  0
   59.6343   27.5798   43.8686 H   0  0  0  0  0  0  0  0  0  0  0  0
   58.1870   26.5560   45.0930 C   0  0  0  0  0  0  0  0  0  0  0  0
   58.4017   25.6162   44.5632 H   0  0  0  0  0  0  0  0  0  0  0  0
   57.1094   26.6170   45.3052 H   0  0  0  0  0  0  0  0  0  0  0  0
   58.9110   26.5900   46.3060 O   0  0  0  0  0  0  0  0  0  0  0  0
   58.4660   27.6720   47.0950 C   0  0  0  0  0  0  0  0  0  0  0  0
   57.4472   27.4674   47.4557 H   0  0  0  0  0  0  0  0  0  0  0  0
   58.4646   28.5899   46.4888 H   0  0  0  0  0  0  0  0  0  0  0  0
   59.4010   27.8540   48.2890 C   0  0  0  0  0  0  0  0  0  0  0  0
   60.4131   27.5280   48.0073 H   0  0  0  0  0  0  0  0  0  0  0  0
   59.0235   27.2503   49.1274 H   0  0  0  0  0  0  0  0  0  0  0  0
   59.4460   29.2240   48.6950 O   0  0  0  0  0  0  0  0  0  0  0  0
   60.6210   29.9870   48.6580 C   0  0  0  0  0  0  0  0  0  0  0  0
   61.1260   30.4790   47.4320 C   0  0  0  0  0  0  0  0  0  0  0  0
   60.4940   30.1170   46.1150 C   0  0  0  0  0  0  0  0  0  0  0  0
   59.5525   29.5777   46.2960 H   0  0  0  0  0  0  0  0  0  0  0  0
   60.2874   31.0337   45.5432 H   0  0  0  0  0  0  0  0  0  0  0  0
   61.1802   29.4750   45.5432 H   0  0  0  0  0  0  0  0  0  0  0  0
   62.2500   31.3190   47.4360 C   0  0  0  0  0  0  0  0  0  0  0  0
   62.6266   31.7319   46.4886 H   0  0  0  0  0  0  0  0  0  0  0  0
   62.8930   31.6340   48.6330 C   0  0  0  0  0  0  0  0  0  0  0  0
   63.7595   32.3116   48.6286 H   0  0  0  0  0  0  0  0  0  0  0  0
   62.4400   31.0920   49.8350 C   0  0  0  0  0  0  0  0  0  0  0  0
   62.9631   31.3303   50.7729 H   0  0  0  0  0  0  0  0  0  0  0  0
   61.3220   30.2450   49.8570 C   0  0  0  0  0  0  0  0  0  0  0  0
   60.8780   29.6640   51.1720 C   0  0  0  0  0  0  0  0  0  0  0  0
   61.3202   30.2426   51.9965 H   0  0  0  0  0  0  0  0  0  0  0  0
   59.7810   29.7077   51.2405 H   0  0  0  0  0  0  0  0  0  0  0  0
   61.2082   28.6170   51.2405 H   0  0  0  0  0  0  0  0  0  0  0  0
   60.0950   33.9200   47.8560 C   0  0  0  0  0  0  0  0  0  0  0  0
   60.1957   34.1207   46.7792 H   0  0  0  0  0  0  0  0  0  0  0  0
  1  2  1  0
  2  3  1  0
  3  4  1  0
  4  5  2  0
  5  6  1  0
  5  7  1  0
  7  8  1  0
  7  9  2  0
  9 10  1  0
  9 11  1  0
 11 12  1  0
 11 13  2  0
 13 14  1  0
 14 15  2  0
 15 16  1  0
 16 17  1  0
 16 18  1  0
 16 19  1  0
 19 20  1  0
 19 21  1  0
 19 22  1  0
 22 23  1  0
 23 24  1  0
 23 25  1  0
 23 26  1  0
 26 27  1  0
 26 28  1  0
 26 29  1  0
 29 30  1  0
 30 31  1  0
 30 32  1  0
 30 33  1  0
 33 34  1  0
 33 35  1  0
 33 36  1  0
 36 37  1  0
 36 38  1  0
 38 39  1  0
 38 40  1  0
 38 41  1  0
 41 42  1  0
 41 43  1  0
 41 44  1  0
 44 45  1  0
 45 46  1  0
 45 47  1  0
 45 48  1  0
 48 49  1  0
 48 50  1  0
 48 51  1  0
 51 52  1  0
 52 53  2  0
 53 54  1  0
 54 55  1  0
 54 56  1  0
 54 57  1  0
 53 58  1  0
 58 59  1  0
 58 60  2  0
 60 61  1  0
 60 62  1  0
 62 63  1  0
 62 64  2  0
 64 65  1  0
 65 66  1  0
 65 67  1  0
 65 68  1  0
 14 69  1  0
 69 70  1  0
 69  2  2  0
 13  4  1  0
 64 52  1  0
M  CHG  1   3  -1
M  END
>  <UniqueID>  (9) 
9

>  <SMILES>  (9) 
Cc1cccc(C)c1OCCOCCNCCOCCOCC/N=c1/cc[n-]c2cc(Cl)ccc12

>  <Energy>  (9) 
84.39525911401654

>  <Genealogy>  (9) 
Cc1cccc(C)c1OCCOCCNCCOCCOCCN=c1cc[n-]c2cc(Cl)ccc12 (protonated)
Cc1cccc(C)c1OCCOCCNCCOCCOCC/N=c1/cc[n-]c2cc(Cl)ccc12 (cis-trans isomerization)
Cc1cccc(C)c1OCCOCCNCCOCCOCC/N=c1/cc[n-]c2cc(Cl)ccc12 (3D coordinates assigned)
Cc1cccc(C)c1OCCOCCNCCOCCOCC/N=c1/cc[n-]c2cc(Cl)ccc12 (optimized conformer: 84.39525911401654 kcal/mol)

>  <smiles>  (9) 
Cc1cccc(C)c1OCCOCCNCCOCCOCCN=c1cc[nH]c2cc(Cl)ccc12

>  <score_type>  (9) 
oracle

>  <origin>  (9) 
adg

>  <m_score__min__energy>  (9) 
-8.2599999999999998

>  <m_primary>  (9) 
energy

$$$$
9:0
     RDKit          3D

 48 49  0  0  0  0  0  0  0  0999 V2000
   57.8910   27.9110   44.1290 C   0  0  0  0  0  0  0  0  0  0  0  0
   56.9260   28.4000   45.1790 C   0  0  0  0  0  0  0  0  0  0  0  0
   56.3930   29.7170   44.8700 N   0  0  0  0  0  0  0  0  0  0  0  0
   55.7050   29.7170   43.5920 C   0  0  0  0  0  0  0  0  0  0  0  0
   57.4270   30.7290   44.9180 C   0  0  0  0  0  0  0  0  0  0  0  0
   57.4300   31.4100   43.5400 C   0  0  0  0  0  0  0  0  0  0  0  0
   57.3980   32.7590   43.7800 O   0  0  0  0  0  0  0  0  0  0  0  0
   57.3060   33.1330   45.1130 C   0  0  0  0  0  0  0  0  0  0  0  0
   57.8200   34.5010   45.3670 C   0  0  0  0  0  0  0  0  0  0  0  0
   59.2950   34.6420   45.1140 C   0  0  0  0  0  0  0  0  0  0  0  0
   60.0050   35.0950   46.3370 C   0  0  0  0  0  0  0  0  0  0  0  0
   59.7560   34.2040   47.5090 C   0  0  0  0  0  0  0  0  0  0  0  0
   59.4050   34.5880   48.7620 N   0  0  0  0  0  0  0  0  0  0  0  0
   59.2680   33.5350   49.5460 N   0  0  0  0  0  0  0  0  0  0  0  0
   59.5170   32.3960   48.8640 C   0  0  0  0  0  0  0  0  0  0  0  0
   59.5170   31.0550   49.1910 C   0  0  0  0  0  0  0  0  0  0  0  0
   59.8280   30.1320   48.2160 C   0  0  0  0  0  0  0  0  0  0  0  0
   60.1420   30.5130   46.9190 C   0  0  0  0  0  0  0  0  0  0  0  0
   60.4780   29.4880   45.8730 C   0  0  0  0  0  0  0  0  0  0  0  0
   60.1330   31.8630   46.6260 C   0  0  0  0  0  0  0  0  0  0  0  0
   59.8270   32.8220   47.5690 C   0  0  0  0  0  0  0  0  0  0  0  0
   58.7700   27.4656   44.6178 H   0  0  0  0  0  0  0  0  0  0  0  0
   57.3976   27.1542   43.5015 H   0  0  0  0  0  0  0  0  0  0  0  0
   58.2095   28.7565   43.5015 H   0  0  0  0  0  0  0  0  0  0  0  0
   56.0903   27.6882   45.2500 H   0  0  0  0  0  0  0  0  0  0  0  0
   57.4736   28.4739   46.1301 H   0  0  0  0  0  0  0  0  0  0  0  0
   55.5312   28.6799   43.2691 H   0  0  0  0  0  0  0  0  0  0  0  0
   54.7404   30.2355   43.6949 H   0  0  0  0  0  0  0  0  0  0  0  0
   56.3220   30.2355   42.8434 H   0  0  0  0  0  0  0  0  0  0  0  0
   57.2040   31.4640   45.7054 H   0  0  0  0  0  0  0  0  0  0  0  0
   58.4079   30.2871   45.1472 H   0  0  0  0  0  0  0  0  0  0  0  0
   58.3412   31.1430   42.9847 H   0  0  0  0  0  0  0  0  0  0  0  0
   56.5701   31.0904   42.9331 H   0  0  0  0  0  0  0  0  0  0  0  0
   56.2494   33.0935   45.4162 H   0  0  0  0  0  0  0  0  0  0  0  0
   57.9260   32.4349   45.6946 H   0  0  0  0  0  0  0  0  0  0  0  0
   57.2850   35.2020   44.7094 H   0  0  0  0  0  0  0  0  0  0  0  0
   57.6514   34.7183   46.4321 H   0  0  0  0  0  0  0  0  0  0  0  0
   59.7010   33.6683   44.8025 H   0  0  0  0  0  0  0  0  0  0  0  0
   59.4444   35.3930   44.3242 H   0  0  0  0  0  0  0  0  0  0  0  0
   61.0854   35.1125   46.1310 H   0  0  0  0  0  0  0  0  0  0  0  0
   59.6243   36.0950   46.5920 H   0  0  0  0  0  0  0  0  0  0  0  0
   59.2650   35.5970   49.0560 H   0  0  0  0  0  0  0  0  0  0  0  0
   59.2729   30.7285   50.2127 H   0  0  0  0  0  0  0  0  0  0  0  0
   59.8273   29.0625   48.4732 H   0  0  0  0  0  0  0  0  0  0  0  0
   60.7849   28.5518   46.3623 H   0  0  0  0  0  0  0  0  0  0  0  0
   59.5941   29.3011   45.2455 H   0  0  0  0  0  0  0  0  0  0  0  0
   61.3010   29.8607   45.2455 H   0  0  0  0  0  0  0  0  0  0  0  0
   60.3788   32.1849   45.6033 H   0  0  0  0  0  0  0  0  0  0  0  0
  1  2  1  0
  2  3  1  0
  3  4  1  0
  3  5  1  0
  5  6  1  0
  6  7  1  0
  7  8  1  0
  8  9  1  0
  9 10  1  0
 10 11  1  0
 11 12  1  0
 12 13  1  0
 13 14  1  0
 14 15  2  0
 15 16  1  0
 16 17  2  0
 17 18  1  0
 18 19  1  0
 18 20  2  0
 20 21  1  0
 21 12  2  0
 21 15  1  0
  1 22  1  0
  1 23  1  0
  1 24  1  0
  2 25  1  0
  2 26  1  0
  4 27  1  0
  4 28  1  0
  4 29  1  0
  5 30  1  0
  5 31  1  0
  6 32  1  0
  6 33  1  0
  8 34  1  0
  8 35  1  0
  9 36  1  0
  9 37  1  0
 10 38  1  0
 10 39  1  0
 11 40  1  0
 11 41  1  0
 13 42  1  0
 16 43  1  0
 17 44  1  0
 19 45  1  0
 19 46  1  0
 19 47  1  0
 20 48  1  0
M  END
>  <smiles>  (10) 
CCN(C)CCOCCCCc1[nH]nc2ccc(C)cc12

>  <score_type>  (10) 
oracle

>  <origin>  (10) 
adg

>  <m_score__min__energy>  (10) 
-7.3899999999999997

>  <m_primary>  (10) 
energy

$$$$
10:0
     RDKit          3D

 55 57  0  0  0  0  0  0  0  0999 V2000
   55.6290   30.6960   52.3080 C   0  0  0  0  0  0  0  0  0  0  0  0
   56.7640   30.1120   51.6770 O   0  0  0  0  0  0  0  0  0  0  0  0
   57.9250   30.8160   51.3190 C   0  0  0  0  0  0  0  0  0  0  0  0
   58.8820   31.0520   52.3010 C   0  0  0  0  0  0  0  0  0  0  0  0
   60.0570   31.7380   52.0020 C   0  0  0  0  0  0  0  0  0  0  0  0
   60.2990   32.2420   50.7000 C   0  0  0  0  0  0  0  0  0  0  0  0
   59.3300   31.9920   49.6940 C   0  0  0  0  0  0  0  0  0  0  0  0
   58.1590   31.2730   50.0130 C   0  0  0  0  0  0  0  0  0  0  0  0
   59.5720   32.4290   48.3790 C   0  0  0  0  0  0  0  0  0  0  0  0
   58.5410   32.3470   47.3780 N   0  0  0  0  0  0  0  0  0  0  0  0
   57.7310   33.5070   46.9940 C   0  0  0  0  0  0  0  0  0  0  0  0
   57.0940   33.3210   45.6110 C   0  0  0  0  0  0  0  0  0  0  0  0
   57.0220   31.8970   45.2560 N   0  0  0  0  0  0  0  0  0  0  0  0
   58.1350   31.4880   44.3880 C   0  0  0  0  0  0  0  0  0  0  0  0
   58.7170   30.1540   44.8740 C   0  0  0  0  0  0  0  0  0  0  0  0
   57.9090   29.5700   45.9680 N   0  0  0  0  0  0  0  0  0  0  0  0
   58.7680   29.0690   47.0550 C   0  0  0  0  0  0  0  0  0  0  0  0
   57.0810   28.4680   45.4520 C   0  0  0  0  0  0  0  0  0  0  0  0
   60.8420   32.9290   48.0430 C   0  0  0  0  0  0  0  0  0  0  0  0
   61.1820   33.2080   46.7020 C   0  0  0  0  0  0  0  0  0  0  0  0
   62.4480   33.6890   46.3740 C   0  0  0  0  0  0  0  0  0  0  0  0
   63.3990   33.8810   47.3680 C   0  0  0  0  0  0  0  0  0  0  0  0
   63.0860   33.6140   48.7000 C   0  0  0  0  0  0  0  0  0  0  0  0
   61.7940   33.1620   49.0720 C   0  0  0  0  0  0  0  0  0  0  0  0
   61.4520   32.9410   50.3930 N   0  0  0  0  0  0  0  0  0  0  0  0
   62.3140   33.4610   51.4770 C   0  0  0  0  0  0  0  0  0  0  0  0
   55.7454   30.6361   53.4002 H   0  0  0  0  0  0  0  0  0  0  0  0
   55.5433   31.7502   52.0056 H   0  0  0  0  0  0  0  0  0  0  0  0
   54.7215   30.1529   52.0056 H   0  0  0  0  0  0  0  0  0  0  0  0
   58.7087   30.6925   53.3260 H   0  0  0  0  0  0  0  0  0  0  0  0
   60.8094   31.8910   52.7897 H   0  0  0  0  0  0  0  0  0  0  0  0
   57.4182   31.0675   49.2262 H   0  0  0  0  0  0  0  0  0  0  0  0
   58.4310   31.4590   46.8380 H   0  0  0  0  0  0  0  0  0  0  0  0
   56.9331   33.6468   47.7382 H   0  0  0  0  0  0  0  0  0  0  0  0
   58.3898   34.3869   46.9527 H   0  0  0  0  0  0  0  0  0  0  0  0
   56.0776   33.7414   45.6228 H   0  0  0  0  0  0  0  0  0  0  0  0
   57.7145   33.8390   44.8649 H   0  0  0  0  0  0  0  0  0  0  0  0
   57.0870   31.3430   46.1420 H   0  0  0  0  0  0  0  0  0  0  0  0
   57.7692   31.3718   43.3571 H   0  0  0  0  0  0  0  0  0  0  0  0
   58.9201   32.2577   44.4209 H   0  0  0  0  0  0  0  0  0  0  0  0
   58.7401   29.4471   44.0315 H   0  0  0  0  0  0  0  0  0  0  0  0
   59.7302   30.3420   45.2589 H   0  0  0  0  0  0  0  0  0  0  0  0
   58.3208   29.3298   48.0256 H   0  0  0  0  0  0  0  0  0  0  0  0
   58.8598   27.9757   46.9755 H   0  0  0  0  0  0  0  0  0  0  0  0
   59.7648   29.5274   46.9755 H   0  0  0  0  0  0  0  0  0  0  0  0
   56.6563   27.9028   46.2947 H   0  0  0  0  0  0  0  0  0  0  0  0
   56.2659   28.8783   44.8378 H   0  0  0  0  0  0  0  0  0  0  0  0
   57.7020   27.7993   44.8378 H   0  0  0  0  0  0  0  0  0  0  0  0
   60.4396   33.0440   45.9071 H   0  0  0  0  0  0  0  0  0  0  0  0
   62.6946   33.9169   45.3265 H   0  0  0  0  0  0  0  0  0  0  0  0
   64.4027   34.2450   47.1032 H   0  0  0  0  0  0  0  0  0  0  0  0
   63.8534   33.7562   49.4751 H   0  0  0  0  0  0  0  0  0  0  0  0
   61.8769   33.1973   52.4514 H   0  0  0  0  0  0  0  0  0  0  0  0
   63.3169   33.0171   51.3928 H   0  0  0  0  0  0  0  0  0  0  0  0
   62.3891   34.5552   51.3928 H   0  0  0  0  0  0  0  0  0  0  0  0
  1  2  1  0
  2  3  1  0
  3  4  2  0
  4  5  1  0
  5  6  2  0
  6  7  1  0
  7  8  2  0
  7  9  1  0
  9 10  1  0
 10 11  1  0
 11 12  1  0
 12 13  1  0
 13 14  1  0
 14 15  1  0
 15 16  1  0
 16 17  1  0
 16 18  1  0
  9 19  2  0
 19 20  1  0
 20 21  2  0
 21 22  1  0
 22 23  2  0
 23 24  1  0
 24 25  2  0
 25 26  1  0
  8  3  1  0
 24 19  1  0
 25  6  1  0
  1 27  1  0
  1 28  1  0
  1 29  1  0
  4 30  1  0
  5 31  1  0
  8 32  1  0
 10 33  1  0
 11 34  1  0
 11 35  1  0
 12 36  1  0
 12 37  1  0
 13 38  1  0
 14 39  1  0
 14 40  1  0
 15 41  1  0
 15 42  1  0
 17 43  1  0
 17 44  1  0
 17 45  1  0
 18 46  1  0
 18 47  1  0
 18 48  1  0
 20 49  1  0
 21 50  1  0
 22 51  1  0
 23 52  1  0
 26 53  1  0
 26 54  1  0
 26 55  1  0
M  CHG  1  25   1
M  END
>  <UniqueID>  (11) 
10

>  <SMILES>  (11) 
COc1ccc2c(c1)c(NCCNCCN(C)C)c1ccccc1[n+]2C

>  <Energy>  (11) 
76.95690837884199

>  <Genealogy>  (11) 
COc1ccc2c(c1)c(NCCNCCN(C)C)c1ccccc1[n+]2C (3D coordinates assigned)
COc1ccc2c(c1)c(NCCNCCN(C)C)c1ccccc1[n+]2C (optimized conformer: 76.95690837884199 kcal/mol)

>  <smiles>  (11) 
COc1ccc2c(c1)c(NCCNCCN(C)C)c1ccccc1[n+]2C

>  <score_type>  (11) 
oracle

>  <origin>  (11) 
adg

>  <m_score__min__energy>  (11) 
-5.6100000000000003

>  <m_primary>  (11) 
energy

$$$$
11:0
     RDKit          3D

 39 40  0  0  0  0  0  0  0  0999 V2000
   56.3024   30.9399   42.7819 H   0  0  0  0  0  0  0  0  0  0  0  0
   56.8410   30.9830   43.7400 C   0  0  0  0  0  0  0  0  0  0  0  0
   56.2450   30.6200   44.8360 N   0  0  0  0  0  0  0  0  0  0  0  0
   56.0330   29.3050   45.2210 O   0  0  0  0  0  0  0  0  0  0  0  0
   57.0600   28.3160   45.2640 C   0  0  0  0  0  0  0  0  0  0  0  0
   57.5212   28.2232   44.2697 H   0  0  0  0  0  0  0  0  0  0  0  0
   56.6254   27.3495   45.5590 H   0  0  0  0  0  0  0  0  0  0  0  0
   58.1170   28.7250   46.2760 C   0  0  0  0  0  0  0  0  0  0  0  0
   57.7279   28.5744   47.2938 H   0  0  0  0  0  0  0  0  0  0  0  0
   59.0183   28.1107   46.1334 H   0  0  0  0  0  0  0  0  0  0  0  0
   58.3701   29.7860   46.1334 H   0  0  0  0  0  0  0  0  0  0  0  0
   58.2600   31.4600   43.7790 C   0  0  0  0  0  0  0  0  0  0  0  0
   58.9312   30.5887   43.7966 H   0  0  0  0  0  0  0  0  0  0  0  0
   58.4459   32.0744   42.8857 H   0  0  0  0  0  0  0  0  0  0  0  0
   58.5220   32.3190   45.0230 C   0  0  0  0  0  0  0  0  0  0  0  0
   57.8328   32.0162   45.8251 H   0  0  0  0  0  0  0  0  0  0  0  0
   59.5632   32.1729   45.3465 H   0  0  0  0  0  0  0  0  0  0  0  0
   58.3100   33.7520   44.7110 N   0  0  0  0  0  0  0  0  0  0  0  0
   57.0190   34.2150   45.2600 C   0  0  0  0  0  0  0  0  0  0  0  0
   57.0614   34.1998   46.3591 H   0  0  0  0  0  0  0  0  0  0  0  0
   56.8204   35.2404   44.9149 H   0  0  0  0  0  0  0  0  0  0  0  0
   56.2140   33.5496   44.9149 H   0  0  0  0  0  0  0  0  0  0  0  0
   59.4200   34.5750   45.2410 C   0  0  0  0  0  0  0  0  0  0  0  0
   60.2696   34.5267   44.5440 H   0  0  0  0  0  0  0  0  0  0  0  0
   59.0705   35.6126   45.3469 H   0  0  0  0  0  0  0  0  0  0  0  0
   59.8600   34.0730   46.5920 C   0  0  0  0  0  0  0  0  0  0  0  0
   58.9420   33.9090   47.6540 C   0  0  0  0  0  0  0  0  0  0  0  0
   57.8779   34.1383   47.4957 H   0  0  0  0  0  0  0  0  0  0  0  0
   59.3800   33.4530   48.9170 C   0  0  0  0  0  0  0  0  0  0  0  0
   58.6541   33.3277   49.7339 H   0  0  0  0  0  0  0  0  0  0  0  0
   60.7370   33.1580   49.1380 C   0  0  0  0  0  0  0  0  0  0  0  0
   61.0896   32.8019   50.1172 H   0  0  0  0  0  0  0  0  0  0  0  0
   61.6190   33.3320   48.0750 C   0  0  0  0  0  0  0  0  0  0  0  0
   62.9780   33.1350   47.9910 C   0  0  0  0  0  0  0  0  0  0  0  0
   63.6575   32.7840   48.7816 H   0  0  0  0  0  0  0  0  0  0  0  0
   63.3000   33.4790   46.6830 C   0  0  0  0  0  0  0  0  0  0  0  0
   64.3130   33.4418   46.2558 H   0  0  0  0  0  0  0  0  0  0  0  0
   62.2180   33.8570   46.0250 O   0  0  0  0  0  0  0  0  0  0  0  0
   61.2010   33.7730   46.8490 C   0  0  0  0  0  0  0  0  0  0  0  0
  1  2  1  0
  2  3  2  0
  3  4  1  0
  4  5  1  0
  5  6  1  0
  5  7  1  0
  5  8  1  0
  8  9  1  0
  8 10  1  0
  8 11  1  0
  2 12  1  0
 12 13  1  0
 12 14  1  0
 12 15  1  0
 15 16  1  0
 15 17  1  0
 15 18  1  0
 18 19  1  0
 19 20  1  0
 19 21  1  0
 19 22  1  0
 18 23  1  0
 23 24  1  0
 23 25  1  0
 23 26  1  0
 26 27  2  0
 27 28  1  0
 27 29  1  0
 29 30  1  0
 29 31  2  0
 31 32  1  0
 31 33  1  0
 33 34  1  0
 34 35  1  0
 34 36  2  0
 36 37  1  0
 36 38  1  0
 38 39  1  0
 39 26  1  0
 39 33  2  0
M  END
>  <UniqueID>  (12) 
11

>  <SMILES>  (12) 
CCO/N=C/CCN(C)Cc1cccc2ccoc12

>  <Energy>  (12) 
67.1283150929269

>  <Genealogy>  (12) 
CCO/N=C/CCN(C)Cc1cccc2ccoc12 (cis-trans isomerization)
CCO/N=C/CCN(C)Cc1cccc2ccoc12 (3D coordinates assigned)
CCO/N=C/CCN(C)Cc1cccc2ccoc12 (optimized conformer: 67.1283150929269 kcal/mol)

>  <smiles>  (12) 
CCON=CCCN(C)Cc1cccc2ccoc12

>  <score_type>  (12) 
oracle

>  <origin>  (12) 
adg

>  <m_score__min__energy>  (12) 
-6.6699999999999999

>  <m_primary>  (12) 
energy

$$$$
12:0
     RDKit          3D

 66 68  0  0  0  0  0  0  0  0999 V2000
   57.4060   33.2070   45.7640 C   0  0  0  0  0  0  0  0  0  0  0  0
   57.3420   32.3410   44.5150 C   0  0  0  0  0  0  0  0  0  0  0  0
   56.7580   31.0820   44.8390 O   0  0  0  0  0  0  0  0  0  0  0  0
   57.4500   29.8590   44.8380 C   0  0  0  0  0  0  0  0  0  0  0  0
   57.4580   29.0090   43.7200 C   0  0  0  0  0  0  0  0  0  0  0  0
   58.1770   27.8160   43.7500 C   0  0  0  0  0  0  0  0  0  0  0  0
   58.8730   27.4380   44.8980 C   0  0  0  0  0  0  0  0  0  0  0  0
   58.8510   28.2500   46.0580 C   0  0  0  0  0  0  0  0  0  0  0  0
   58.1570   29.4850   45.9910 C   0  0  0  0  0  0  0  0  0  0  0  0
   58.1950   30.3290   47.0480 N   0  0  0  0  0  0  0  0  0  0  0  0
   58.9080   30.0440   48.1590 C   0  0  0  0  0  0  0  0  0  0  0  0
   58.9650   30.9820   49.1930 C   0  0  0  0  0  0  0  0  0  0  0  0
   59.7450   30.7390   50.3200 C   0  0  0  0  0  0  0  0  0  0  0  0
   60.4900   29.5560   50.4220 C   0  0  0  0  0  0  0  0  0  0  0  0
   61.4080   29.3380   51.6020 C   0  0  0  0  0  0  0  0  0  0  0  0
   62.8200   29.5850   51.2600 N   0  0  0  0  0  0  0  0  0  0  0  0
   63.2000   30.9930   51.4670 C   0  0  0  0  0  0  0  0  0  0  0  0
   63.6600   31.6410   50.1550 C   0  0  0  0  0  0  0  0  0  0  0  0
   62.6600   31.5440   48.9580 C   0  0  0  0  0  0  0  0  0  0  0  0
   62.1760   32.8210   48.3050 N   0  0  0  0  0  0  0  0  0  0  0  0
   61.3510   32.3930   47.1380 C   0  0  0  0  0  0  0  0  0  0  0  0
   63.3770   33.5630   47.7850 C   0  0  0  0  0  0  0  0  0  0  0  0
   63.4050   33.8630   46.2790 C   0  0  0  0  0  0  0  0  0  0  0  0
   61.3500   33.6180   49.2810 C   0  0  0  0  0  0  0  0  0  0  0  0
   60.0130   34.1950   48.7650 C   0  0  0  0  0  0  0  0  0  0  0  0
   60.4270   28.6060   49.3900 C   0  0  0  0  0  0  0  0  0  0  0  0
   59.6080   28.8180   48.2530 C   0  0  0  0  0  0  0  0  0  0  0  0
   59.4900   27.8910   47.2320 N   0  0  0  0  0  0  0  0  0  0  0  0
   60.0200   26.5210   47.4060 C   0  0  0  0  0  0  0  0  0  0  0  0
   57.3587   32.5665   46.6571 H   0  0  0  0  0  0  0  0  0  0  0  0
   58.3485   33.7741   45.7691 H   0  0  0  0  0  0  0  0  0  0  0  0
   56.5571   33.9065   45.7691 H   0  0  0  0  0  0  0  0  0  0  0  0
   56.7300   32.8434   43.7515 H   0  0  0  0  0  0  0  0  0  0  0  0
   58.3586   32.1841   44.1252 H   0  0  0  0  0  0  0  0  0  0  0  0
   56.8943   29.2863   42.8170 H   0  0  0  0  0  0  0  0  0  0  0  0
   58.1959   27.1674   42.8617 H   0  0  0  0  0  0  0  0  0  0  0  0
   59.4454   26.4987   44.9024 H   0  0  0  0  0  0  0  0  0  0  0  0
   58.3907   31.9170   49.1161 H   0  0  0  0  0  0  0  0  0  0  0  0
   59.7769   31.4783   51.1339 H   0  0  0  0  0  0  0  0  0  0  0  0
   61.1141   30.0229   52.4111 H   0  0  0  0  0  0  0  0  0  0  0  0
   61.3142   28.2874   51.9141 H   0  0  0  0  0  0  0  0  0  0  0  0
   63.4080   28.9740   51.8750 H   0  0  0  0  0  0  0  0  0  0  0  0
   62.9940   29.3150   50.2630 H   0  0  0  0  0  0  0  0  0  0  0  0
   62.3319   31.5458   51.8553 H   0  0  0  0  0  0  0  0  0  0  0  0
   64.0335   31.0275   52.1840 H   0  0  0  0  0  0  0  0  0  0  0  0
   63.8463   32.7069   50.3528 H   0  0  0  0  0  0  0  0  0  0  0  0
   64.5529   31.0795   49.8429 H   0  0  0  0  0  0  0  0  0  0  0  0
   63.1502   30.9466   48.1752 H   0  0  0  0  0  0  0  0  0  0  0  0
   61.7517   31.1139   49.4053 H   0  0  0  0  0  0  0  0  0  0  0  0
   60.4281   31.9142   47.4973 H   0  0  0  0  0  0  0  0  0  0  0  0
   61.0947   33.2718   46.5281 H   0  0  0  0  0  0  0  0  0  0  0  0
   61.9219   31.6774   46.5281 H   0  0  0  0  0  0  0  0  0  0  0  0
   63.4308   34.5242   48.3172 H   0  0  0  0  0  0  0  0  0  0  0  0
   64.2299   32.8911   47.9613 H   0  0  0  0  0  0  0  0  0  0  0  0
   63.5062   34.9472   46.1229 H   0  0  0  0  0  0  0  0  0  0  0  0
   64.2587   33.3449   45.8177 H   0  0  0  0  0  0  0  0  0  0  0  0
   62.4702   33.5118   45.8177 H   0  0  0  0  0  0  0  0  0  0  0  0
   61.1207   32.9623   50.1339 H   0  0  0  0  0  0  0  0  0  0  0  0
   61.9650   34.4974   49.5225 H   0  0  0  0  0  0  0  0  0  0  0  0
   59.3776   34.4692   49.6201 H   0  0  0  0  0  0  0  0  0  0  0  0
   60.2106   35.0879   48.1538 H   0  0  0  0  0  0  0  0  0  0  0  0
   59.4988   33.4387   48.1538 H   0  0  0  0  0  0  0  0  0  0  0  0
   61.0219   27.6838   49.4651 H   0  0  0  0  0  0  0  0  0  0  0  0
   60.1074   26.2952   48.4790 H   0  0  0  0  0  0  0  0  0  0  0  0
   59.3357   25.8005   46.9342 H   0  0  0  0  0  0  0  0  0  0  0  0
   61.0110   26.4486   46.9342 H   0  0  0  0  0  0  0  0  0  0  0  0
  1  2  1  0
  2  3  1  0
  3  4  1  0
  4  5  2  0
  5  6  1  0
  6  7  2  0
  7  8  1  0
  8  9  2  0
  9 10  1  0
 10 11  2  0
 11 12  1  0
 12 13  2  0
 13 14  1  0
 14 15  1  0
 15 16  1  0
 16 17  1  0
 17 18  1  0
 18 19  1  0
 19 20  1  0
 20 21  1  0
 20 22  1  0
 22 23  1  0
 20 24  1  0
 24 25  1  0
 14 26  2  0
 26 27  1  0
 27 28  2  0
 28 29  1  0
  9  4  1  0
 27 11  1  0
 28  8  1  0
  1 30  1  0
  1 31  1  0
  1 32  1  0
  2 33  1  0
  2 34  1  0
  5 35  1  0
  6 36  1  0
  7 37  1  0
 12 38  1  0
 13 39  1  0
 15 40  1  0
 15 41  1  0
 16 42  1  0
 16 43  1  0
 17 44  1  0
 17 45  1  0
 18 46  1  0
 18 47  1  0
 19 48  1  0
 19 49  1  0
 21 50  1  0
 21 51  1  0
 21 52  1  0
 22 53  1  0
 22 54  1  0
 23 55  1  0
 23 56  1  0
 23 57  1  0
 24 58  1  0
 24 59  1  0
 25 60  1  0
 25 61  1  0
 25 62  1  0
 26 63  1  0
 29 64  1  0
 29 65  1  0
 29 66  1  0
M  CHG  3  16   1  20   1  28   1
M  END
>  <UniqueID>  (13) 
12

>  <SMILES>  (13) 
CCOc1cccc2c1nc1ccc(C[NH2+]CCC[N+](C)(CC)CC)cc1[n+]2C

>  <Energy>  (13) 
101.84998509374796

>  <Genealogy>  (13) 
CCOc1cccc2c1nc1ccc(C[NH2+]CCC[N+](C)(CC)CC)cc1[n+]2C (protonated)
CCOc1cccc2c1nc1ccc(C[NH2+]CCC[N+](C)(CC)CC)cc1[n+]2C (3D coordinates assigned)
CCOc1cccc2c1nc1ccc(C[NH2+]CCC[N+](C)(CC)CC)cc1[n+]2C (optimized conformer: 101.84998509374796 kcal/mol)

>  <smiles>  (13) 
CCOc1cccc2c1nc1ccc(CNCCC[N+](C)(CC)CC)cc1[n+]2C

>  <score_type>  (13) 
oracle

>  <origin>  (13) 
adg

>  <m_score__min__energy>  (13) 
-3.2000000000000002

>  <m_primary>  (13) 
energy

$$$$
13:0
     RDKit          3D

 58 60  0  0  0  0  0  0  0  0999 V2000
   63.3130   33.8110   46.7360 C   0  0  0  0  0  0  0  0  0  0  0  0
   63.4060   32.3350   47.1240 C   0  0  0  0  0  0  0  0  0  0  0  0
   62.6440   32.0770   48.2890 O   0  0  0  0  0  0  0  0  0  0  0  0
   63.4100   32.3320   49.4510 C   0  0  0  0  0  0  0  0  0  0  0  0
   62.4940   32.9020   50.5330 C   0  0  0  0  0  0  0  0  0  0  0  0
   61.7970   34.1880   50.0530 C   0  0  0  0  0  0  0  0  0  0  0  0
   60.6190   33.9110   49.2160 N   0  0  0  0  0  0  0  0  0  0  0  0
   59.6140   33.1020   49.9180 C   0  0  0  0  0  0  0  0  0  0  0  0
   59.1400   31.9490   49.0260 C   0  0  0  0  0  0  0  0  0  0  0  0
   60.2400   31.4230   48.1950 N   0  0  0  0  0  0  0  0  0  0  0  0
   59.7300   30.6370   47.0810 C   0  0  0  0  0  0  0  0  0  0  0  0
   59.7390   29.2150   47.1670 C   0  0  0  0  0  0  0  0  0  0  0  0
   60.3900   28.5360   48.2300 C   0  0  0  0  0  0  0  0  0  0  0  0
   60.3450   27.1490   48.3380 C   0  0  0  0  0  0  0  0  0  0  0  0
   59.6430   26.4010   47.4070 C   0  0  0  0  0  0  0  0  0  0  0  0
   59.0090   27.0340   46.3420 C   0  0  0  0  0  0  0  0  0  0  0  0
   59.0820   28.4420   46.1710 C   0  0  0  0  0  0  0  0  0  0  0  0
   58.5060   29.0570   45.0810 N   0  0  0  0  0  0  0  0  0  0  0  0
   58.0860   28.2480   43.9120 C   0  0  0  0  0  0  0  0  0  0  0  0
   58.3700   30.4300   45.0460 C   0  0  0  0  0  0  0  0  0  0  0  0
   57.5020   31.0430   44.1080 C   0  0  0  0  0  0  0  0  0  0  0  0
   57.4360   32.4210   43.9810 C   0  0  0  0  0  0  0  0  0  0  0  0
   58.2570   33.2270   44.7490 C   0  0  0  0  0  0  0  0  0  0  0  0
   59.1140   32.6710   45.7170 C   0  0  0  0  0  0  0  0  0  0  0  0
   60.0260   33.5030   46.3880 O   0  0  0  0  0  0  0  0  0  0  0  0
   60.0080   34.9280   46.3800 C   0  0  0  0  0  0  0  0  0  0  0  0
   59.0860   31.2580   45.9630 C   0  0  0  0  0  0  0  0  0  0  0  0
   63.2741   34.4276   47.6461 H   0  0  0  0  0  0  0  0  0  0  0  0
   64.1953   34.0901   46.1414 H   0  0  0  0  0  0  0  0  0  0  0  0
   62.4026   33.9772   46.1414 H   0  0  0  0  0  0  0  0  0  0  0  0
   63.0223   31.7190   46.2973 H   0  0  0  0  0  0  0  0  0  0  0  0
   64.4584   32.0872   47.3265 H   0  0  0  0  0  0  0  0  0  0  0  0
   63.8635   31.3953   49.8071 H   0  0  0  0  0  0  0  0  0  0  0  0
   64.2078   33.0534   49.2204 H   0  0  0  0  0  0  0  0  0  0  0  0
   61.7294   32.1530   50.7867 H   0  0  0  0  0  0  0  0  0  0  0  0
   63.1060   33.1460   51.4139 H   0  0  0  0  0  0  0  0  0  0  0  0
   61.4768   34.7653   50.9329 H   0  0  0  0  0  0  0  0  0  0  0  0
   62.5174   34.7504   49.4409 H   0  0  0  0  0  0  0  0  0  0  0  0
   60.9210   33.4030   48.3510 H   0  0  0  0  0  0  0  0  0  0  0  0
   60.0569   32.6910   50.8372 H   0  0  0  0  0  0  0  0  0  0  0  0
   58.7524   33.7391   50.1664 H   0  0  0  0  0  0  0  0  0  0  0  0
   58.7540   31.1394   49.6628 H   0  0  0  0  0  0  0  0  0  0  0  0
   58.3532   32.3294   48.3579 H   0  0  0  0  0  0  0  0  0  0  0  0
   60.8330   32.2070   47.8400 H   0  0  0  0  0  0  0  0  0  0  0  0
   60.9250   30.8820   48.7650 H   0  0  0  0  0  0  0  0  0  0  0  0
   60.9412   29.1176   48.9836 H   0  0  0  0  0  0  0  0  0  0  0  0
   60.8681   26.6457   49.1645 H   0  0  0  0  0  0  0  0  0  0  0  0
   59.5867   25.3072   47.5095 H   0  0  0  0  0  0  0  0  0  0  0  0
   58.4401   26.4318   45.6183 H   0  0  0  0  0  0  0  0  0  0  0  0
   57.6053   27.3220   44.2606 H   0  0  0  0  0  0  0  0  0  0  0  0
   57.3734   28.8247   43.3040 H   0  0  0  0  0  0  0  0  0  0  0  0
   58.9677   27.9970   43.3040 H   0  0  0  0  0  0  0  0  0  0  0  0
   56.8680   30.4119   43.4680 H   0  0  0  0  0  0  0  0  0  0  0  0
   56.7305   32.8744   43.2692 H   0  0  0  0  0  0  0  0  0  0  0  0
   58.2398   34.3169   44.6012 H   0  0  0  0  0  0  0  0  0  0  0  0
   60.0033   35.3004   47.4150 H   0  0  0  0  0  0  0  0  0  0  0  0
   60.9015   35.3031   45.8594 H   0  0  0  0  0  0  0  0  0  0  0  0
   59.1053   35.2804   45.8594 H   0  0  0  0  0  0  0  0  0  0  0  0
  1  2  1  0
  2  3  1  0
  3  4  1  0
  4  5  1  0
  5  6  1  0
  6  7  1  0
  7  8  1  0
  8  9  1  0
  9 10  1  0
 10 11  1  0
 11 12  2  0
 12 13  1  0
 13 14  2  0
 14 15  1  0
 15 16  2  0
 16 17  1  0
 17 18  2  0
 18 19  1  0
 18 20  1  0
 20 21  2  0
 21 22  1  0
 22 23  2  0
 23 24  1  0
 24 25  1  0
 25 26  1  0
 24 27  2  0
 27 11  1  0
 17 12  1  0
 27 20  1  0
  1 28  1  0
  1 29  1  0
  1 30  1  0
  2 31  1  0
  2 32  1  0
  4 33  1  0
  4 34  1  0
  5 35  1  0
  5 36  1  0
  6 37  1  0
  6 38  1  0
  7 39  1  0
  8 40  1  0
  8 41  1  0
  9 42  1  0
  9 43  1  0
 10 44  1  0
 10 45  1  0
 13 46  1  0
 14 47  1  0
 15 48  1  0
 16 49  1  0
 19 50  1  0
 19 51  1  0
 19 52  1  0
 21 53  1  0
 22 54  1  0
 23 55  1  0
 26 56  1  0
 26 57  1  0
 26 58  1  0
M  CHG  2  10   1  18   1
M  END
>  <UniqueID>  (14) 
13

>  <SMILES>  (14) 
CCOCCCNCC[NH2+]c1c2ccccc2[n+](C)c2cccc(OC)c12

>  <Energy>  (14) 
88.13644159799101

>  <Genealogy>  (14) 
CCOCCCNCC[NH2+]c1c2ccccc2[n+](C)c2cccc(OC)c12 (protonated)
CCOCCCNCC[NH2+]c1c2ccccc2[n+](C)c2cccc(OC)c12 (3D coordinates assigned)
CCOCCCNCC[NH2+]c1c2ccccc2[n+](C)c2cccc(OC)c12 (optimized conformer: 88.13644159799101 kcal/mol)

>  <smiles>  (14) 
CCOCCCNCCNc1c2ccccc2[n+](C)c2cccc(OC)c12

>  <score_type>  (14) 
oracle

>  <origin>  (14) 
adg

>  <m_score__min__energy>  (14) 
-2.71

>  <m_primary>  (14) 
energy

$$$$
14:0
     RDKit          3D

 32 33  0  0  0  0  0  0  0  0999 V2000
   57.4730   33.5200   46.1420 C   0  0  0  0  0  0  0  0  0  0  0  0
   57.5890   32.7710   44.8230 C   0  0  0  0  0  0  0  0  0  0  0  0
   56.7880   31.6090   44.8770 O   0  0  0  0  0  0  0  0  0  0  0  0
   56.8000   30.9380   43.6310 C   0  0  0  0  0  0  0  0  0  0  0  0
   56.2350   29.5180   43.7920 C   0  0  0  0  0  0  0  0  0  0  0  0
   55.9620   29.1830   45.1990 N   0  0  0  0  0  0  0  0  0  0  0  0
   57.0930   28.5390   45.8110 C   0  0  0  0  0  0  0  0  0  0  0  0
   58.2410   29.1210   46.0420 O   0  0  0  0  0  0  0  0  0  0  0  0
   59.0220   28.2090   46.5830 C   0  0  0  0  0  0  0  0  0  0  0  0
   60.4370   28.4990   46.9980 C   0  0  0  0  0  0  0  0  0  0  0  0
   60.6290   29.8050   47.7540 C   0  0  0  0  0  0  0  0  0  0  0  0
   60.7130   28.4790   48.4950 C   0  0  0  0  0  0  0  0  0  0  0  0
   58.4100   27.0070   46.7210 N   0  0  0  0  0  0  0  0  0  0  0  0
   57.1800   27.2290   46.2230 C   0  0  0  0  0  0  0  0  0  0  0  0
   56.1500   26.2300   46.1460 C   0  0  0  0  0  0  0  0  0  0  0  0
   55.3210   25.4250   46.0840 N   0  0  0  0  0  0  0  0  0  0  0  0
   57.5827   32.8119   46.9766 H   0  0  0  0  0  0  0  0  0  0  0  0
   58.2638   34.2823   46.2016 H   0  0  0  0  0  0  0  0  0  0  0  0
   56.4887   34.0074   46.2016 H   0  0  0  0  0  0  0  0  0  0  0  0
   57.2454   33.4169   44.0016 H   0  0  0  0  0  0  0  0  0  0  0  0
   58.6379   32.4891   44.6490 H   0  0  0  0  0  0  0  0  0  0  0  0
   56.1831   31.4958   42.9111 H   0  0  0  0  0  0  0  0  0  0  0  0
   57.8356   30.8748   43.2654 H   0  0  0  0  0  0  0  0  0  0  0  0
   55.2972   29.4434   43.2220 H   0  0  0  0  0  0  0  0  0  0  0  0
   56.9894   28.8106   43.4173 H   0  0  0  0  0  0  0  0  0  0  0  0
   55.7240   30.0490   45.7370 H   0  0  0  0  0  0  0  0  0  0  0  0
   55.1410   28.5370   45.2440 H   0  0  0  0  0  0  0  0  0  0  0  0
   60.8991   28.0235   46.1203 H   0  0  0  0  0  0  0  0  0  0  0  0
   61.5375   30.4043   47.5945 H   0  0  0  0  0  0  0  0  0  0  0  0
   60.0417   30.7272   47.8745 H   0  0  0  0  0  0  0  0  0  0  0  0
   61.6822   28.1194   48.8709 H   0  0  0  0  0  0  0  0  0  0  0  0
   60.2117   28.0452   49.3728 H   0  0  0  0  0  0  0  0  0  0  0  0
  1  2  1  0
  2  3  1  0
  3  4  1  0
  4  5  1  0
  5  6  1  0
  6  7  1  0
  7  8  1  0
  8  9  1  0
  9 10  1  0
 10 11  1  0
 11 12  1  0
  9 13  2  0
 13 14  1  0
 14 15  1  0
 15 16  3  0
 14  7  2  0
 12 10  1  0
  1 17  1  0
  1 18  1  0
  1 19  1  0
  2 20  1  0
  2 21  1  0
  4 22  1  0
  4 23  1  0
  5 24  1  0
  5 25  1  0
  6 26  1  0
  6 27  1  0
 10 28  1  0
 11 29  1  0
 11 30  1  0
 12 31  1  0
 12 32  1  0
M  CHG  1   6   1
M  END
>  <UniqueID>  (15) 
14

>  <SMILES>  (15) 
CCOCC[NH2+]c1oc(C2CC2)nc1C#N

>  <Energy>  (15) 
322.8572093535116

>  <Genealogy>  (15) 
CCOCC[NH2+]c1oc(C2CC2)nc1C#N (protonated)
CCOCC[NH2+]c1oc(C2CC2)nc1C#N (3D coordinates assigned)
CCOCC[NH2+]c1oc(C2CC2)nc1C#N (nonaromatic ring conformer: 322.8572093535116 kcal/mol)

>  <smiles>  (15) 
CCOCCNc1oc(C2CC2)nc1C#N

>  <score_type>  (15) 
oracle

>  <origin>  (15) 
adg

>  <m_score__min__energy>  (15) 
-3.4900000000000002

>  <m_primary>  (15) 
energy

$$$$
15:0
     RDKit          3D

 68 70  0  0  0  0  0  0  0  0999 V2000
   58.7540   34.0440   52.0670 C   0  0  0  0  0  0  0  0  0  0  0  0
   58.9030   33.1230   50.8520 C   0  0  0  0  0  0  0  0  0  0  0  0
   59.6120   31.8740   51.1800 N   0  0  0  0  0  0  0  0  0  0  0  0
   58.8450   30.6720   50.8200 C   0  0  0  0  0  0  0  0  0  0  0  0
   59.4390   29.4400   51.5120 C   0  0  0  0  0  0  0  0  0  0  0  0
   60.9570   29.3930   51.3510 C   0  0  0  0  0  0  0  0  0  0  0  0
   61.3310   30.1780   50.2330 O   0  0  0  0  0  0  0  0  0  0  0  0
   62.2230   31.1440   50.6250 N   0  0  0  0  0  0  0  0  0  0  0  0
   63.3220   31.2370   49.6550 C   0  0  0  0  0  0  0  0  0  0  0  0
   63.1220   32.4410   48.7230 C   0  0  0  0  0  0  0  0  0  0  0  0
   61.9390   32.2830   47.7480 C   0  0  0  0  0  0  0  0  0  0  0  0
   60.8100   31.5540   48.3540 N   0  0  0  0  0  0  0  0  0  0  0  0
   59.6820   31.5010   47.4390 C   0  0  0  0  0  0  0  0  0  0  0  0
   59.1710   32.6850   46.8560 C   0  0  0  0  0  0  0  0  0  0  0  0
   58.1880   32.6030   45.8470 C   0  0  0  0  0  0  0  0  0  0  0  0
   57.7370   31.3760   45.3980 N   0  0  0  0  0  0  0  0  0  0  0  0
   56.9080   31.3030   44.1690 C   0  0  0  0  0  0  0  0  0  0  0  0
   57.6980   31.7510   42.9380 C   0  0  0  0  0  0  0  0  0  0  0  0
   58.0750   30.2230   46.0900 C   0  0  0  0  0  0  0  0  0  0  0  0
   57.4500   28.9770   45.8100 C   0  0  0  0  0  0  0  0  0  0  0  0
   57.7940   27.8050   46.5020 C   0  0  0  0  0  0  0  0  0  0  0  0
   57.1530   26.5510   46.1960 N   0  0  0  0  0  0  0  0  0  0  0  0
   57.8140   25.5830   45.7660 O   0  0  0  0  0  0  0  0  0  0  0  0
   55.7990   26.3920   46.3840 O   0  0  0  0  0  0  0  0  0  0  0  0
   58.7570   27.8720   47.5080 C   0  0  0  0  0  0  0  0  0  0  0  0
   59.3710   29.0800   47.8200 C   0  0  0  0  0  0  0  0  0  0  0  0
   59.0560   30.2680   47.1210 C   0  0  0  0  0  0  0  0  0  0  0  0
   57.6340   33.9340   45.3440 C   0  0  0  0  0  0  0  0  0  0  0  0
   58.7780   34.9000   45.0020 C   0  0  0  0  0  0  0  0  0  0  0  0
   59.8610   34.9850   46.1010 C   0  0  0  0  0  0  0  0  0  0  0  0
   59.5810   34.0810   47.3100 C   0  0  0  0  0  0  0  0  0  0  0  0
   58.8497   33.4524   52.9894 H   0  0  0  0  0  0  0  0  0  0  0  0
   59.5393   34.8139   52.0420 H   0  0  0  0  0  0  0  0  0  0  0  0
   57.7660   34.5270   52.0420 H   0  0  0  0  0  0  0  0  0  0  0  0
   57.9011   32.8720   50.4736 H   0  0  0  0  0  0  0  0  0  0  0  0
   59.4962   33.6577   50.0955 H   0  0  0  0  0  0  0  0  0  0  0  0
   60.5380   31.8550   50.6890 H   0  0  0  0  0  0  0  0  0  0  0  0
   57.7996   30.7990   51.1379 H   0  0  0  0  0  0  0  0  0  0  0  0
   58.8907   30.5293   49.7303 H   0  0  0  0  0  0  0  0  0  0  0  0
   59.1930   29.4771   52.5835 H   0  0  0  0  0  0  0  0  0  0  0  0
   59.0118   28.5397   51.0463 H   0  0  0  0  0  0  0  0  0  0  0  0
   61.4357   29.7920   52.2575 H   0  0  0  0  0  0  0  0  0  0  0  0
   61.2804   28.3529   51.1972 H   0  0  0  0  0  0  0  0  0  0  0  0
   61.7780   32.0830   50.7830 H   0  0  0  0  0  0  0  0  0  0  0  0
   64.2726   31.3531   50.1962 H   0  0  0  0  0  0  0  0  0  0  0  0
   63.3379   30.3191   49.0490 H   0  0  0  0  0  0  0  0  0  0  0  0
   62.9446   33.3329   49.3419 H   0  0  0  0  0  0  0  0  0  0  0  0
   64.0321   32.5273   48.1112 H   0  0  0  0  0  0  0  0  0  0  0  0
   61.5935   33.2826   47.4456 H   0  0  0  0  0  0  0  0  0  0  0  0
   62.2904   31.7015   46.8829 H   0  0  0  0  0  0  0  0  0  0  0  0
   61.0860   30.5900   48.6270 H   0  0  0  0  0  0  0  0  0  0  0  0
   60.5340   31.9880   49.2630 H   0  0  0  0  0  0  0  0  0  0  0  0
   56.5749   30.2649   44.0227 H   0  0  0  0  0  0  0  0  0  0  0  0
   56.0457   31.9749   44.2915 H   0  0  0  0  0  0  0  0  0  0  0  0
   58.6133   32.2701   43.2586 H   0  0  0  0  0  0  0  0  0  0  0  0
   57.9674   30.8713   42.3351 H   0  0  0  0  0  0  0  0  0  0  0  0
   57.0813   32.4338   42.3351 H   0  0  0  0  0  0  0  0  0  0  0  0
   56.6759   28.9301   45.0299 H   0  0  0  0  0  0  0  0  0  0  0  0
   59.0335   26.9614   48.0597 H   0  0  0  0  0  0  0  0  0  0  0  0
   60.1173   29.1120   48.6274 H   0  0  0  0  0  0  0  0  0  0  0  0
   57.0289   33.7564   44.4427 H   0  0  0  0  0  0  0  0  0  0  0  0
   57.0151   34.3826   46.1350 H   0  0  0  0  0  0  0  0  0  0  0  0
   59.2535   34.5608   44.0699 H   0  0  0  0  0  0  0  0  0  0  0  0
   58.3368   35.9028   44.9037 H   0  0  0  0  0  0  0  0  0  0  0  0
   60.8257   34.6903   45.6623 H   0  0  0  0  0  0  0  0  0  0  0  0
   59.8680   36.0220   46.4679 H   0  0  0  0  0  0  0  0  0  0  0  0
   60.4904   34.0082   47.9246 H   0  0  0  0  0  0  0  0  0  0  0  0
   58.7585   34.5181   47.8952 H   0  0  0  0  0  0  0  0  0  0  0  0
  1  2  1  0
  2  3  1  0
  3  4  1  0
  4  5  1  0
  5  6  1  0
  6  7  1  0
  7  8  1  0
  8  9  1  0
  9 10  1  0
 10 11  1  0
 11 12  1  0
 12 13  1  0
 13 14  2  0
 14 15  1  0
 15 16  2  0
 16 17  1  0
 17 18  1  0
 16 19  1  0
 19 20  2  0
 20 21  1  0
 21 22  1  0
 22 23  2  0
 22 24  1  0
 21 25  2  0
 25 26  1  0
 26 27  2  0
 15 28  1  0
 28 29  1  0
 29 30  1  0
 30 31  1  0
 27 13  1  0
 31 14  1  0
 27 19  1  0
  1 32  1  0
  1 33  1  0
  1 34  1  0
  2 35  1  0
  2 36  1  0
  3 37  1  0
  4 38  1  0
  4 39  1  0
  5 40  1  0
  5 41  1  0
  6 42  1  0
  6 43  1  0
  8 44  1  0
  9 45  1  0
  9 46  1  0
 10 47  1  0
 10 48  1  0
 11 49  1  0
 11 50  1  0
 12 51  1  0
 12 52  1  0
 17 53  1  0
 17 54  1  0
 18 55  1  0
 18 56  1  0
 18 57  1  0
 20 58  1  0
 25 59  1  0
 26 60  1  0
 28 61  1  0
 28 62  1  0
 29 63  1  0
 29 64  1  0
 30 65  1  0
 30 66  1  0
 31 67  1  0
 31 68  1  0
M  CHG  4  12   1  16   1  22   1  24  -1
M  END
>  <UniqueID>  (16) 
15

>  <SMILES>  (16) 
CCNCCCONCCC[NH2+]c1c2c([n+](CC)c3cc([N+](=O)[O-])ccc13)CCCC2

>  <Energy>  (16) 
94.63704522877165

>  <Genealogy>  (16) 
CCNCCCONCCC[NH2+]c1c2c([n+](CC)c3cc([N+](=O)[O-])ccc13)CCCC2 (protonated)
CCNCCCONCCC[NH2+]c1c2c([n+](CC)c3cc([N+](=O)[O-])ccc13)CCCC2 (3D coordinates assigned)
CCNCCCONCCC[NH2+]c1c2c([n+](CC)c3cc([N+](=O)[O-])ccc13)CCCC2 (nonaromatic ring conformer: 94.63704522877165 kcal/mol)

>  <smiles>  (16) 
CCNCCCONCCCNc1c2c([n+](CC)c3cc([N+](=O)[O-])ccc13)CCCC2

>  <score_type>  (16) 
oracle

>  <origin>  (16) 
adg

>  <m_score__min__energy>  (16) 
-5.1600000000000001

>  <m_primary>  (16) 
energy

$$$$
16:0
     RDKit          3D

 50 52  0  0  0  0  0  0  0  0999 V2000
   57.0270   31.2130   42.2260 C   0  0  0  0  0  0  0  0  0  0  0  0
   56.5830   29.9300   42.9180 C   0  0  0  0  0  0  0  0  0  0  0  0
   56.0300   30.2340   44.2750 C   0  0  0  0  0  0  0  0  0  0  0  0
   55.4090   29.3370   44.9070 O   0  0  0  0  0  0  0  0  0  0  0  0
   56.2790   31.5180   44.8690 N   0  0  0  0  0  0  0  0  0  0  0  0
   57.6030   32.0610   45.1880 C   0  0  0  0  0  0  0  0  0  0  0  0
   57.9470   31.8620   46.6840 C   0  0  0  0  0  0  0  0  0  0  0  0
   58.6720   33.0700   47.2850 C   0  0  0  0  0  0  0  0  0  0  0  0
   59.6990   33.5440   46.3350 N   0  0  0  0  0  0  0  0  0  0  0  0
   60.6440   34.5000   46.9530 C   0  0  0  0  0  0  0  0  0  0  0  0
   61.7940   33.7960   47.7000 C   0  0  0  0  0  0  0  0  0  0  0  0
   62.0980   32.4690   47.1310 N   0  0  0  0  0  0  0  0  0  0  0  0
   61.7480   31.3880   48.0660 C   0  0  0  0  0  0  0  0  0  0  0  0
   60.8830   30.3430   47.4050 C   0  0  0  0  0  0  0  0  0  0  0  0
   60.0700   29.4310   48.0750 C   0  0  0  0  0  0  0  0  0  0  0  0
   59.4330   28.7450   47.0700 C   0  0  0  0  0  0  0  0  0  0  0  0
   58.4700   27.7440   47.1220 C   0  0  0  0  0  0  0  0  0  0  0  0
   57.9640   27.2600   45.9000 C   0  0  0  0  0  0  0  0  0  0  0  0
   58.4330   27.7790   44.6730 C   0  0  0  0  0  0  0  0  0  0  0  0
   59.4180   28.7840   44.6560 C   0  0  0  0  0  0  0  0  0  0  0  0
   59.8890   29.2520   45.8820 C   0  0  0  0  0  0  0  0  0  0  0  0
   60.7670   30.2040   46.0960 O   0  0  0  0  0  0  0  0  0  0  0  0
   59.0850   34.1340   45.1170 C   0  0  0  0  0  0  0  0  0  0  0  0
   57.7110   33.5300   44.7530 C   0  0  0  0  0  0  0  0  0  0  0  0
   57.2879   31.9668   42.9835 H   0  0  0  0  0  0  0  0  0  0  0  0
   57.9056   31.0055   41.5975 H   0  0  0  0  0  0  0  0  0  0  0  0
   56.2081   31.5929   41.5975 H   0  0  0  0  0  0  0  0  0  0  0  0
   55.8066   29.4410   42.3114 H   0  0  0  0  0  0  0  0  0  0  0  0
   57.4519   29.2644   43.0276 H   0  0  0  0  0  0  0  0  0  0  0  0
   58.3543   31.4979   44.6149 H   0  0  0  0  0  0  0  0  0  0  0  0
   57.0133   31.6976   47.2418 H   0  0  0  0  0  0  0  0  0  0  0  0
   58.6211   30.9961   46.7596 H   0  0  0  0  0  0  0  0  0  0  0  0
   57.9479   33.8758   47.4759 H   0  0  0  0  0  0  0  0  0  0  0  0
   59.1511   32.7793   48.2315 H   0  0  0  0  0  0  0  0  0  0  0  0
   61.0727   35.1330   46.1621 H   0  0  0  0  0  0  0  0  0  0  0  0
   60.0832   35.0951   47.6888 H   0  0  0  0  0  0  0  0  0  0  0  0
   62.6949   34.4239   47.6358 H   0  0  0  0  0  0  0  0  0  0  0  0
   61.4802   33.6519   48.7444 H   0  0  0  0  0  0  0  0  0  0  0  0
   61.5810   32.3110   46.2340 H   0  0  0  0  0  0  0  0  0  0  0  0
   62.6727   30.9120   48.4242 H   0  0  0  0  0  0  0  0  0  0  0  0
   61.1828   31.8249   48.9025 H   0  0  0  0  0  0  0  0  0  0  0  0
   59.9628   29.2922   49.1609 H   0  0  0  0  0  0  0  0  0  0  0  0
   58.1157   27.3440   48.0835 H   0  0  0  0  0  0  0  0  0  0  0  0
   57.1972   26.4713   45.9012 H   0  0  0  0  0  0  0  0  0  0  0  0
   58.0262   27.3956   43.7256 H   0  0  0  0  0  0  0  0  0  0  0  0
   59.8032   29.1867   43.7076 H   0  0  0  0  0  0  0  0  0  0  0  0
   58.9557   35.2137   45.2827 H   0  0  0  0  0  0  0  0  0  0  0  0
   59.7627   33.9133   44.2791 H   0  0  0  0  0  0  0  0  0  0  0  0
   56.9225   34.1095   45.2554 H   0  0  0  0  0  0  0  0  0  0  0  0
   57.5962   33.5732   43.6599 H   0  0  0  0  0  0  0  0  0  0  0  0
  1  2  1  0
  2  3  1  0
  3  4  2  0
  3  5  1  0
  5  6  1  0
  6  7  1  0
  7  8  1  0
  8  9  1  0
  9 10  1  0
 10 11  1  0
 11 12  1  0
 12 13  1  0
 13 14  1  0
 14 15  2  0
 15 16  1  0
 16 17  2  0
 17 18  1  0
 18 19  2  0
 19 20  1  0
 20 21  2  0
 21 22  1  0
  9 23  1  0
 23 24  1  0
 24  6  1  0
 22 14  1  0
 21 16  1  0
  1 25  1  0
  1 26  1  0
  1 27  1  0
  2 28  1  0
  2 29  1  0
  6 30  1  0
  7 31  1  0
  7 32  1  0
  8 33  1  0
  8 34  1  0
 10 35  1  0
 10 36  1  0
 11 37  1  0
 11 38  1  0
 12 39  1  0
 13 40  1  0
 13 41  1  0
 15 42  1  0
 17 43  1  0
 18 44  1  0
 19 45  1  0
 20 46  1  0
 23 47  1  0
 23 48  1  0
 24 49  1  0
 24 50  1  0
M  CHG  1   5  -1
M  END
>  <UniqueID>  (17) 
16

>  <SMILES>  (17) 
CCC(=O)[N-]C1CCN(CCNCc2cc3ccccc3o2)CC1

>  <Energy>  (17) 
84.83214551724699

>  <Genealogy>  (17) 
CCC(=O)[N-]C1CCN(CCNCc2cc3ccccc3o2)CC1 (protonated)
CCC(=O)[N-]C1CCN(CCNCc2cc3ccccc3o2)CC1 (3D coordinates assigned)
CCC(=O)[N-]C1CCN(CCNCc2cc3ccccc3o2)CC1 (nonaromatic ring conformer: 84.83214551724699 kcal/mol)

>  <smiles>  (17) 
CCC(=O)NC1CCN(CCNCc2cc3ccccc3o2)CC1

>  <score_type>  (17) 
oracle

>  <origin>  (17) 
adg

>  <m_score__min__energy>  (17) 
-10.300000000000001

>  <m_primary>  (17) 
energy

$$$$
17:0
     RDKit          3D

 50 52  0  0  0  0  0  0  0  0999 V2000
   63.2940   33.5470   46.7340 C   0  0  0  0  0  0  0  0  0  0  0  0
   63.1000   32.6670   47.5330 C   0  0  0  0  0  0  0  0  0  0  0  0
   62.8650   31.5900   48.5090 C   0  0  0  0  0  0  0  0  0  0  0  0
   61.4300   31.2890   48.6460 N   0  0  0  0  0  0  0  0  0  0  0  0
   61.1750   29.8370   48.6500 C   0  0  0  0  0  0  0  0  0  0  0  0
   59.8320   29.4900   47.9830 C   0  0  0  0  0  0  0  0  0  0  0  0
   58.9480   30.6560   47.8940 N   0  0  0  0  0  0  0  0  0  0  0  0
   58.6020   31.2650   46.6390 C   0  0  0  0  0  0  0  0  0  0  0  0
   57.9730   30.4950   45.6450 C   0  0  0  0  0  0  0  0  0  0  0  0
   57.4790   29.2030   45.9330 C   0  0  0  0  0  0  0  0  0  0  0  0
   56.8290   28.4540   44.9560 C   0  0  0  0  0  0  0  0  0  0  0  0
   56.6420   28.9830   43.6850 C   0  0  0  0  0  0  0  0  0  0  0  0
   57.1150   30.2590   43.3790 C   0  0  0  0  0  0  0  0  0  0  0  0
   57.8100   31.0320   44.3440 C   0  0  0  0  0  0  0  0  0  0  0  0
   58.3090   32.2840   44.0490 N   0  0  0  0  0  0  0  0  0  0  0  0
   58.4370   32.7120   42.6370 C   0  0  0  0  0  0  0  0  0  0  0  0
   58.7010   33.1310   45.0680 C   0  0  0  0  0  0  0  0  0  0  0  0
   58.9270   34.5070   44.8290 C   0  0  0  0  0  0  0  0  0  0  0  0
   59.3680   35.3510   45.8390 C   0  0  0  0  0  0  0  0  0  0  0  0
   59.5740   34.8620   47.1190 C   0  0  0  0  0  0  0  0  0  0  0  0
   59.3220   33.5140   47.4220 C   0  0  0  0  0  0  0  0  0  0  0  0
   59.4880   33.0420   48.7350 O   0  0  0  0  0  0  0  0  0  0  0  0
   59.7890   33.8490   49.8700 C   0  0  0  0  0  0  0  0  0  0  0  0
   59.2440   33.1790   51.1210 C   0  0  0  0  0  0  0  0  0  0  0  0
   58.8750   32.6330   46.3930 C   0  0  0  0  0  0  0  0  0  0  0  0
   63.4712   34.3508   46.0042 H   0  0  0  0  0  0  0  0  0  0  0  0
   63.3899   30.6833   48.1739 H   0  0  0  0  0  0  0  0  0  0  0  0
   63.2427   31.9224   49.4872 H   0  0  0  0  0  0  0  0  0  0  0  0
   60.9320   31.7140   47.8280 H   0  0  0  0  0  0  0  0  0  0  0  0
   61.0640   31.7380   49.5150 H   0  0  0  0  0  0  0  0  0  0  0  0
   61.9849   29.3319   48.1033 H   0  0  0  0  0  0  0  0  0  0  0  0
   61.1338   29.5003   49.6964 H   0  0  0  0  0  0  0  0  0  0  0  0
   60.0261   29.1127   46.9681 H   0  0  0  0  0  0  0  0  0  0  0  0
   59.3315   28.7293   48.6002 H   0  0  0  0  0  0  0  0  0  0  0  0
   58.4420   30.9700   48.7530 H   0  0  0  0  0  0  0  0  0  0  0  0
   57.6096   28.7838   46.9416 H   0  0  0  0  0  0  0  0  0  0  0  0
   56.4634   27.4433   45.1903 H   0  0  0  0  0  0  0  0  0  0  0  0
   56.1192   28.3936   42.9174 H   0  0  0  0  0  0  0  0  0  0  0  0
   56.9464   30.6722   42.3736 H   0  0  0  0  0  0  0  0  0  0  0  0
   58.7520   33.7653   42.6003 H   0  0  0  0  0  0  0  0  0  0  0  0
   59.1875   32.0870   42.1310 H   0  0  0  0  0  0  0  0  0  0  0  0
   57.4665   32.6017   42.1310 H   0  0  0  0  0  0  0  0  0  0  0  0
   58.7498   34.9160   43.8233 H   0  0  0  0  0  0  0  0  0  0  0  0
   59.5548   36.4131   45.6222 H   0  0  0  0  0  0  0  0  0  0  0  0
   59.9391   35.5373   47.9068 H   0  0  0  0  0  0  0  0  0  0  0  0
   60.8792   33.9645   49.9602 H   0  0  0  0  0  0  0  0  0  0  0  0
   59.3263   34.8398   49.7511 H   0  0  0  0  0  0  0  0  0  0  0  0
   59.6511   33.6795   52.0119 H   0  0  0  0  0  0  0  0  0  0  0  0
   58.1465   33.2531   51.1281 H   0  0  0  0  0  0  0  0  0  0  0  0
   59.5400   32.1196   51.1281 H   0  0  0  0  0  0  0  0  0  0  0  0
  1  2  3  0
  2  3  1  0
  3  4  1  0
  4  5  1  0
  5  6  1  0
  6  7  1  0
  7  8  1  0
  8  9  2  0
  9 10  1  0
 10 11  2  0
 11 12  1  0
 12 13  2  0
 13 14  1  0
 14 15  2  0
 15 16  1  0
 15 17  1  0
 17 18  2  0
 18 19  1  0
 19 20  2  0
 20 21  1  0
 21 22  1  0
 22 23  1  0
 23 24  1  0
 21 25  2  0
 25  8  1  0
 14  9  1  0
 25 17  1  0
  1 26  1  0
  3 27  1  0
  3 28  1  0
  4 29  1  0
  4 30  1  0
  5 31  1  0
  5 32  1  0
  6 33  1  0
  6 34  1  0
  7 35  1  0
 10 36  1  0
 11 37  1  0
 12 38  1  0
 13 39  1  0
 16 40  1  0
 16 41  1  0
 16 42  1  0
 18 43  1  0
 19 44  1  0
 20 45  1  0
 23 46  1  0
 23 47  1  0
 24 48  1  0
 24 49  1  0
 24 50  1  0
M  CHG  2   4   1  15   1
M  END
>  <UniqueID>  (18) 
17

>  <SMILES>  (18) 
C#CC[NH2+]CCNc1c2ccccc2[n+](C)c2cccc(OCC)c12

>  <Energy>  (18) 
71.73978382018042

>  <Genealogy>  (18) 
C#CC[NH2+]CCNc1c2ccccc2[n+](C)c2cccc(OCC)c12 (protonated)
C#CC[NH2+]CCNc1c2ccccc2[n+](C)c2cccc(OCC)c12 (3D coordinates assigned)
C#CC[NH2+]CCNc1c2ccccc2[n+](C)c2cccc(OCC)c12 (optimized conformer: 71.73978382018042 kcal/mol)

>  <smiles>  (18) 
C#CCNCCNc1c2ccccc2[n+](C)c2cccc(OCC)c12

>  <score_type>  (18) 
oracle

>  <origin>  (18) 
adg

>  <m_score__min__energy>  (18) 
-3.1400000000000001

>  <m_primary>  (18) 
energy

$$$$
18:0
     RDKit          3D

 40 42  0  0  0  0  0  0  0  0999 V2000
   64.0240   32.9220   48.5770 C   0  0  0  0  0  0  0  0  0  0  0  0
   62.6610   33.3210   48.0910 C   0  0  0  0  0  0  0  0  0  0  0  0
   62.4240   33.4610   46.7170 C   0  0  0  0  0  0  0  0  0  0  0  0
   61.1640   33.8460   46.2550 C   0  0  0  0  0  0  0  0  0  0  0  0
   60.1260   34.1090   47.1610 C   0  0  0  0  0  0  0  0  0  0  0  0
   58.7640   34.5180   46.6670 C   0  0  0  0  0  0  0  0  0  0  0  0
   58.5400   34.0180   45.3000 N   0  0  0  0  0  0  0  0  0  0  0  0
   57.3150   33.2100   45.1740 C   0  0  0  0  0  0  0  0  0  0  0  0
   57.4110   32.1690   44.0500 C   0  0  0  0  0  0  0  0  0  0  0  0
   57.0520   30.7750   44.4970 C   0  0  0  0  0  0  0  0  0  0  0  0
   55.8490   30.0950   44.2930 C   0  0  0  0  0  0  0  0  0  0  0  0
   55.8900   28.8750   44.8750 N   0  0  0  0  0  0  0  0  0  0  0  0
   57.0950   28.7830   45.4640 C   0  0  0  0  0  0  0  0  0  0  0  0
   57.5960   27.7070   46.1930 C   0  0  0  0  0  0  0  0  0  0  0  0
   58.8850   27.8310   46.7400 C   0  0  0  0  0  0  0  0  0  0  0  0
   59.6350   29.0140   46.5510 C   0  0  0  0  0  0  0  0  0  0  0  0
   59.1050   30.0810   45.8040 C   0  0  0  0  0  0  0  0  0  0  0  0
   57.8260   29.9270   45.2660 C   0  0  0  0  0  0  0  0  0  0  0  0
   60.3630   33.9570   48.5370 C   0  0  0  0  0  0  0  0  0  0  0  0
   61.6250   33.5800   49.0000 C   0  0  0  0  0  0  0  0  0  0  0  0
   64.0347   32.9189   49.6769 H   0  0  0  0  0  0  0  0  0  0  0  0
   64.2657   31.9154   48.2051 H   0  0  0  0  0  0  0  0  0  0  0  0
   64.7704   33.6393   48.2051 H   0  0  0  0  0  0  0  0  0  0  0  0
   63.2345   33.2667   45.9991 H   0  0  0  0  0  0  0  0  0  0  0  0
   60.9843   33.9437   45.1742 H   0  0  0  0  0  0  0  0  0  0  0  0
   57.9962   34.1011   47.3354 H   0  0  0  0  0  0  0  0  0  0  0  0
   58.7034   35.6163   46.6587 H   0  0  0  0  0  0  0  0  0  0  0  0
   58.4260   34.8460   44.6690 H   0  0  0  0  0  0  0  0  0  0  0  0
   57.1380   32.6868   46.1253 H   0  0  0  0  0  0  0  0  0  0  0  0
   56.4881   33.8924   44.9280 H   0  0  0  0  0  0  0  0  0  0  0  0
   56.7259   32.4638   43.2415 H   0  0  0  0  0  0  0  0  0  0  0  0
   58.4590   32.1448   43.7166 H   0  0  0  0  0  0  0  0  0  0  0  0
   54.9887   30.4958   43.7368 H   0  0  0  0  0  0  0  0  0  0  0  0
   55.1340   28.1550   44.8720 H   0  0  0  0  0  0  0  0  0  0  0  0
   57.0032   26.7915   46.3358 H   0  0  0  0  0  0  0  0  0  0  0  0
   59.3135   27.0004   47.3200 H   0  0  0  0  0  0  0  0  0  0  0  0
   60.6395   29.1006   46.9909 H   0  0  0  0  0  0  0  0  0  0  0  0
   59.6791   31.0063   45.6487 H   0  0  0  0  0  0  0  0  0  0  0  0
   59.5488   34.1362   49.2547 H   0  0  0  0  0  0  0  0  0  0  0  0
   61.8072   33.4859   50.0807 H   0  0  0  0  0  0  0  0  0  0  0  0
  1  2  1  0
  2  3  2  0
  3  4  1  0
  4  5  2  0
  5  6  1  0
  6  7  1  0
  7  8  1  0
  8  9  1  0
  9 10  1  0
 10 11  2  0
 11 12  1  0
 12 13  1  0
 13 14  2  0
 14 15  1  0
 15 16  2  0
 16 17  1  0
 17 18  2  0
  5 19  1  0
 19 20  2  0
 20  2  1  0
 18 10  1  0
 18 13  1  0
  1 21  1  0
  1 22  1  0
  1 23  1  0
  3 24  1  0
  4 25  1  0
  6 26  1  0
  6 27  1  0
  7 28  1  0
  8 29  1  0
  8 30  1  0
  9 31  1  0
  9 32  1  0
 11 33  1  0
 12 34  1  0
 14 35  1  0
 15 36  1  0
 16 37  1  0
 17 38  1  0
 19 39  1  0
 20 40  1  0
M  END
>  <UniqueID>  (19) 
18

>  <SMILES>  (19) 
Cc1ccc(CNCCc2c[nH]c3ccccc23)cc1

>  <Energy>  (19) 
68.14730584459993

>  <Genealogy>  (19) 
Cc1ccc(CNCCc2c[nH]c3ccccc23)cc1 (3D coordinates assigned)
Cc1ccc(CNCCc2c[nH]c3ccccc23)cc1 (optimized conformer: 68.14730584459993 kcal/mol)

>  <smiles>  (19) 
Cc1ccc(CNCCc2c[nH]c3ccccc23)cc1

>  <score_type>  (19) 
oracle

>  <origin>  (19) 
adg

>  <m_score__min__energy>  (19) 
-7.96

>  <m_primary>  (19) 
energy

$$$$
19:0
     RDKit          3D

 79 83  0  0  0  0  0  0  0  0999 V2000
   63.3850   33.9450   46.4130 C   0  0  0  0  0  0  0  0  0  0  0  0
   63.3600   33.9020   47.9100 C   0  0  0  0  0  0  0  0  0  0  0  0
   62.9200   32.6910   48.5230 N   0  0  0  0  0  0  0  0  0  0  0  0
   63.3000   32.6020   49.8760 C   0  0  0  0  0  0  0  0  0  0  0  0
   64.7600   32.3230   50.0530 C   0  0  0  0  0  0  0  0  0  0  0  0
   63.3290   31.5900   47.6970 C   0  0  0  0  0  0  0  0  0  0  0  0
   62.2530   30.8680   46.9790 C   0  0  0  0  0  0  0  0  0  0  0  0
   60.9130   31.2290   47.5030 N   0  0  0  0  0  0  0  0  0  0  0  0
   59.8660   31.1700   46.5560 C   0  0  0  0  0  0  0  0  0  0  0  0
   59.6120   29.8800   46.0560 C   0  0  0  0  0  0  0  0  0  0  0  0
   60.3330   28.8000   46.5270 C   0  0  0  0  0  0  0  0  0  0  0  0
   60.1550   27.5050   46.0970 C   0  0  0  0  0  0  0  0  0  0  0  0
   59.2010   27.2790   45.1420 C   0  0  0  0  0  0  0  0  0  0  0  0
   58.4650   28.3530   44.6580 C   0  0  0  0  0  0  0  0  0  0  0  0
   58.6570   29.6440   45.1020 C   0  0  0  0  0  0  0  0  0  0  0  0
   57.9250   30.6920   44.6190 N   0  0  0  0  0  0  0  0  0  0  0  0
   56.9290   30.3400   43.6370 C   0  0  0  0  0  0  0  0  0  0  0  0
   58.1510   31.9320   45.0840 C   0  0  0  0  0  0  0  0  0  0  0  0
   57.3790   32.9440   44.5620 C   0  0  0  0  0  0  0  0  0  0  0  0
   57.5910   34.2200   45.0320 C   0  0  0  0  0  0  0  0  0  0  0  0
   58.5440   34.4580   45.9910 C   0  0  0  0  0  0  0  0  0  0  0  0
   59.3480   33.4640   46.5450 C   0  0  0  0  0  0  0  0  0  0  0  0
   60.2230   33.8400   47.5670 N   0  0  0  0  0  0  0  0  0  0  0  0
   59.6980   34.5780   48.7150 C   0  0  0  0  0  0  0  0  0  0  0  0
   60.2480   34.2000   50.0360 C   0  0  0  0  0  0  0  0  0  0  0  0
   59.2570   33.3760   50.8760 C   0  0  0  0  0  0  0  0  0  0  0  0
   59.5550   31.9730   50.6850 N   0  0  0  0  0  0  0  0  0  0  0  0
   58.8480   31.2490   49.7980 C   0  0  0  0  0  0  0  0  0  0  0  0
   59.0890   29.8970   49.5740 C   0  0  0  0  0  0  0  0  0  0  0  0
   60.0840   29.2980   50.2910 C   0  0  0  0  0  0  0  0  0  0  0  0
   60.3910   27.9440   50.1250 C   0  0  0  0  0  0  0  0  0  0  0  0
   61.3960   27.3410   50.8470 C   0  0  0  0  0  0  0  0  0  0  0  0
   62.1160   28.0880   51.7530 C   0  0  0  0  0  0  0  0  0  0  0  0
   61.7970   29.4200   51.9020 C   0  0  0  0  0  0  0  0  0  0  0  0
   60.8020   30.0580   51.2010 C   0  0  0  0  0  0  0  0  0  0  0  0
   60.5320   31.3800   51.3890 N   0  0  0  0  0  0  0  0  0  0  0  0
   61.3250   32.0740   52.3560 C   0  0  0  0  0  0  0  0  0  0  0  0
   59.1300   32.1920   46.0660 C   0  0  0  0  0  0  0  0  0  0  0  0
   63.9121   34.8516   46.0810 H   0  0  0  0  0  0  0  0  0  0  0  0
   63.9071   33.0561   46.0293 H   0  0  0  0  0  0  0  0  0  0  0  0
   62.3542   33.9589   46.0293 H   0  0  0  0  0  0  0  0  0  0  0  0
   64.3831   34.0983   48.2632 H   0  0  0  0  0  0  0  0  0  0  0  0
   62.6118   34.6539   48.2015 H   0  0  0  0  0  0  0  0  0  0  0  0
   63.0621   33.5551   50.3710 H   0  0  0  0  0  0  0  0  0  0  0  0
   62.7467   31.7614   50.3200 H   0  0  0  0  0  0  0  0  0  0  0  0
   64.9972   32.2777   51.1262 H   0  0  0  0  0  0  0  0  0  0  0  0
   65.0093   31.3610   49.5814 H   0  0  0  0  0  0  0  0  0  0  0  0
   65.3464   33.1253   49.5814 H   0  0  0  0  0  0  0  0  0  0  0  0
   64.0304   31.9792   46.9443 H   0  0  0  0  0  0  0  0  0  0  0  0
   63.7638   30.8529   48.3881 H   0  0  0  0  0  0  0  0  0  0  0  0
   62.3005   31.1260   45.9107 H   0  0  0  0  0  0  0  0  0  0  0  0
   62.4026   29.7885   47.1280 H   0  0  0  0  0  0  0  0  0  0  0  0
   60.7780   31.4680   48.5190 H   0  0  0  0  0  0  0  0  0  0  0  0
   61.0982   28.9871   47.2947 H   0  0  0  0  0  0  0  0  0  0  0  0
   60.7579   26.6809   46.5062 H   0  0  0  0  0  0  0  0  0  0  0  0
   59.0198   26.2622   44.7635 H   0  0  0  0  0  0  0  0  0  0  0  0
   57.6993   28.1662   43.8907 H   0  0  0  0  0  0  0  0  0  0  0  0
   56.0100   30.0152   44.1469 H   0  0  0  0  0  0  0  0  0  0  0  0
   56.7094   31.2150   43.0076 H   0  0  0  0  0  0  0  0  0  0  0  0
   57.3079   29.5213   43.0076 H   0  0  0  0  0  0  0  0  0  0  0  0
   56.6177   32.7401   43.7946 H   0  0  0  0  0  0  0  0  0  0  0  0
   56.9931   35.0544   44.6367 H   0  0  0  0  0  0  0  0  0  0  0  0
   58.6806   35.4916   46.3418 H   0  0  0  0  0  0  0  0  0  0  0  0
   61.2340   33.6530   47.6640 H   0  0  0  0  0  0  0  0  0  0  0  0
   59.9107   35.6453   48.5548 H   0  0  0  0  0  0  0  0  0  0  0  0
   58.6263   34.3342   48.7593 H   0  0  0  0  0  0  0  0  0  0  0  0
   61.1591   33.6035   49.8806 H   0  0  0  0  0  0  0  0  0  0  0  0
   60.4597   35.1284   50.5866 H   0  0  0  0  0  0  0  0  0  0  0  0
   59.3637   33.6374   51.9392 H   0  0  0  0  0  0  0  0  0  0  0  0
   58.2248   33.5900   50.5616 H   0  0  0  0  0  0  0  0  0  0  0  0
   58.0487   31.7451   49.2280 H   0  0  0  0  0  0  0  0  0  0  0  0
   58.4962   29.3288   48.8420 H   0  0  0  0  0  0  0  0  0  0  0  0
   59.8165   27.3473   49.4012 H   0  0  0  0  0  0  0  0  0  0  0  0
   61.6216   26.2742   50.7020 H   0  0  0  0  0  0  0  0  0  0  0  0
   62.9252   27.6326   52.3427 H   0  0  0  0  0  0  0  0  0  0  0  0
   62.3754   30.0102   52.6281 H   0  0  0  0  0  0  0  0  0  0  0  0
   61.0006   31.7901   53.3680 H   0  0  0  0  0  0  0  0  0  0  0  0
   62.3836   31.8069   52.2218 H   0  0  0  0  0  0  0  0  0  0  0  0
   61.2006   33.1587   52.2218 H   0  0  0  0  0  0  0  0  0  0  0  0
  1  2  1  0
  2  3  1  0
  3  4  1  0
  4  5  1  0
  3  6  1  0
  6  7  1  0
  7  8  1  0
  8  9  1  0
  9 10  2  0
 10 11  1  0
 11 12  2  0
 12 13  1  0
 13 14  2  0
 14 15  1  0
 15 16  2  0
 16 17  1  0
 16 18  1  0
 18 19  2  0
 19 20  1  0
 20 21  2  0
 21 22  1  0
 22 23  1  0
 23 24  1  0
 24 25  1  0
 25 26  1  0
 26 27  1  0
 27 28  2  0
 28 29  1  0
 29 30  2  0
 30 31  1  0
 31 32  2  0
 32 33  1  0
 33 34  2  0
 34 35  1  0
 35 36  2  0
 36 37  1  0
 22 38  2  0
 38  9  1  0
 15 10  1  0
 38 18  1  0
 36 27  1  0
 35 30  1  0
  1 39  1  0
  1 40  1  0
  1 41  1  0
  2 42  1  0
  2 43  1  0
  4 44  1  0
  4 45  1  0
  5 46  1  0
  5 47  1  0
  5 48  1  0
  6 49  1  0
  6 50  1  0
  7 51  1  0
  7 52  1  0
  8 53  1  0
 11 54  1  0
 12 55  1  0
 13 56  1  0
 14 57  1  0
 17 58  1  0
 17 59  1  0
 17 60  1  0
 19 61  1  0
 20 62  1  0
 21 63  1  0
 23 64  1  0
 24 65  1  0
 24 66  1  0
 25 67  1  0
 25 68  1  0
 26 69  1  0
 26 70  1  0
 28 71  1  0
 29 72  1  0
 31 73  1  0
 32 74  1  0
 33 75  1  0
 34 76  1  0
 37 77  1  0
 37 78  1  0
 37 79  1  0
M  CHG  3  16   1  27   1  36   1
M  END
>  <smiles>  (20) 
CCN(CC)CCNc1c2ccccc2[n+](C)c2cccc(NCCC[n+]3ccc4ccccc4[n+]3C)c12

>  <score_type>  (20) 
oracle

>  <origin>  (20) 
adg

>  <m_score__min__energy>  (20) 
-5.21

>  <m_primary>  (20) 
energy

$$$$
20:0
     RDKit          3D

 47 46  0  0  0  0  0  0  0  0999 V2000
   57.7650   21.5080   43.5700 C   0  0  0  0  0  0  0  0  0  0  0  0
   56.6340   22.0560   42.7140 C   0  0  0  0  0  0  0  0  0  0  0  0
   55.5470   22.4030   43.5460 O   0  0  0  0  0  0  0  0  0  0  0  0
   55.7800   23.6510   44.1740 C   0  0  0  0  0  0  0  0  0  0  0  0
   54.5440   24.1010   44.9510 C   0  0  0  0  0  0  0  0  0  0  0  0
   54.8980   25.1610   45.8150 O   0  0  0  0  0  0  0  0  0  0  0  0
   56.2940   25.1690   46.0500 C   0  0  0  0  0  0  0  0  0  0  0  0
   56.7610   26.5380   46.5470 C   0  0  0  0  0  0  0  0  0  0  0  0
   56.3290   27.5360   45.6470 O   0  0  0  0  0  0  0  0  0  0  0  0
   57.4440   28.1670   45.0550 C   0  0  0  0  0  0  0  0  0  0  0  0
   58.2140   28.9520   46.1170 C   0  0  0  0  0  0  0  0  0  0  0  0
   57.6800   30.2550   46.2730 O   0  0  0  0  0  0  0  0  0  0  0  0
   58.6480   31.1720   46.7550 C   0  0  0  0  0  0  0  0  0  0  0  0
   58.1030   32.6000   46.7190 C   0  0  0  0  0  0  0  0  0  0  0  0
   57.1230   32.7530   45.6370 N   0  0  0  0  0  0  0  0  0  0  0  0
   57.7470   33.3970   44.4740 C   0  0  0  0  0  0  0  0  0  0  0  0
   57.7550   32.4450   43.2810 C   0  0  0  0  0  0  0  0  0  0  0  0
   57.5680   31.1060   43.7260 O   0  0  0  0  0  0  0  0  0  0  0  0
   56.3580   30.4530   43.5900 N   0  0  0  0  0  0  0  0  0  0  0  0
   55.5070   30.4810   44.5010 O   0  0  0  0  0  0  0  0  0  0  0  0
   56.0940   29.7510   42.4370 O   0  0  0  0  0  0  0  0  0  0  0  0
   57.5123   21.6304   44.6336 H   0  0  0  0  0  0  0  0  0  0  0  0
   57.9088   20.4403   43.3478 H   0  0  0  0  0  0  0  0  0  0  0  0
   58.6920   22.0568   43.3478 H   0  0  0  0  0  0  0  0  0  0  0  0
   56.9818   22.9479   42.1722 H   0  0  0  0  0  0  0  0  0  0  0  0
   56.3154   21.2917   41.9899 H   0  0  0  0  0  0  0  0  0  0  0  0
   56.6278   23.5537   44.8681 H   0  0  0  0  0  0  0  0  0  0  0  0
   56.0052   24.4004   43.4009 H   0  0  0  0  0  0  0  0  0  0  0  0
   53.7713   24.4430   44.2468 H   0  0  0  0  0  0  0  0  0  0  0  0
   54.1519   23.2593   45.5407 H   0  0  0  0  0  0  0  0  0  0  0  0
   56.5349   24.4100   46.8089 H   0  0  0  0  0  0  0  0  0  0  0  0
   56.8088   24.9467   45.1037 H   0  0  0  0  0  0  0  0  0  0  0  0
   56.3348   26.7320   47.5423 H   0  0  0  0  0  0  0  0  0  0  0  0
   57.8591   26.5509   46.6104 H   0  0  0  0  0  0  0  0  0  0  0  0
   58.1034   27.4055   44.6130 H   0  0  0  0  0  0  0  0  0  0  0  0
   57.0991   28.8564   44.2703 H   0  0  0  0  0  0  0  0  0  0  0  0
   58.1475   28.4189   47.0769 H   0  0  0  0  0  0  0  0  0  0  0  0
   59.2625   29.0395   45.7961 H   0  0  0  0  0  0  0  0  0  0  0  0
   58.9087   30.9108   47.7913 H   0  0  0  0  0  0  0  0  0  0  0  0
   59.5391   31.1167   46.1124 H   0  0  0  0  0  0  0  0  0  0  0  0
   57.6182   32.8260   47.6802 H   0  0  0  0  0  0  0  0  0  0  0  0
   58.9382   33.2934   46.5410 H   0  0  0  0  0  0  0  0  0  0  0  0
   56.8230   31.7940   45.3420 H   0  0  0  0  0  0  0  0  0  0  0  0
   57.1789   34.3018   44.2122 H   0  0  0  0  0  0  0  0  0  0  0  0
   58.7842   33.6626   44.7263 H   0  0  0  0  0  0  0  0  0  0  0  0
   56.9415   32.7170   42.5923 H   0  0  0  0  0  0  0  0  0  0  0  0
   58.7228   32.5220   42.7638 H   0  0  0  0  0  0  0  0  0  0  0  0
  1  2  1  0
  2  3  1  0
  3  4  1  0
  4  5  1  0
  5  6  1  0
  6  7  1  0
  7  8  1  0
  8  9  1  0
  9 10  1  0
 10 11  1  0
 11 12  1  0
 12 13  1  0
 13 14  1  0
 14 15  1  0
 15 16  1  0
 16 17  1  0
 17 18  1  0
 18 19  1  0
 19 20  2  0
 19 21  1  0
  1 22  1  0
  1 23  1  0
  1 24  1  0
  2 25  1  0
  2 26  1  0
  4 27  1  0
  4 28  1  0
  5 29  1  0
  5 30  1  0
  7 31  1  0
  7 32  1  0
  8 33  1  0
  8 34  1  0
 10 35  1  0
 10 36  1  0
 11 37  1  0
 11 38  1  0
 13 39  1  0
 13 40  1  0
 14 41  1  0
 14 42  1  0
 15 43  1  0
 16 44  1  0
 16 45  1  0
 17 46  1  0
 17 47  1  0
M  CHG  2  19   1  21  -1
M  END
>  <UniqueID>  (21) 
19

>  <SMILES>  (21) 
CCOCCOCCOCCOCCNCCO[N+](=O)[O-]

>  <Energy>  (21) 
31.59802537011085

>  <Genealogy>  (21) 
CCOCCOCCOCCOCCNCCO[N+](=O)[O-] (3D coordinates assigned)
CCOCCOCCOCCOCCNCCO[N+](=O)[O-] (optimized conformer: 31.59802537011085 kcal/mol)

>  <smiles>  (21) 
CCOCCOCCOCCOCCNCCO[N+](=O)[O-]

>  <score_type>  (21) 
oracle

>  <origin>  (21) 
adg

>  <m_score__min__energy>  (21) 
-4.6900000000000004

>  <m_primary>  (21) 
energy

$$$$
21:0
     RDKit          3D

 50 52  0  0  0  0  0  0  0  0999 V2000
   64.1370   32.3840   49.6100 C   0  0  0  0  0  0  0  0  0  0  0  0
   62.7150   31.9100   49.3140 C   0  0  0  0  0  0  0  0  0  0  0  0
   62.3890   32.1240   47.8850 N   0  0  0  0  0  0  0  0  0  0  0  0
   63.5280   32.7210   47.1500 C   0  0  0  0  0  0  0  0  0  0  0  0
   63.1060   33.9800   46.3860 C   0  0  0  0  0  0  0  0  0  0  0  0
   61.9540   30.8590   47.2370 C   0  0  0  0  0  0  0  0  0  0  0  0
   60.5810   30.5120   47.6410 N   0  0  0  0  0  0  0  0  0  0  0  0
   59.6710   30.5440   46.5010 C   0  0  0  0  0  0  0  0  0  0  0  0
   59.2500   29.3290   45.8870 C   0  0  0  0  0  0  0  0  0  0  0  0
   59.7290   28.0650   46.3190 C   0  0  0  0  0  0  0  0  0  0  0  0
   59.3610   26.8920   45.6670 C   0  0  0  0  0  0  0  0  0  0  0  0
   58.5170   26.9400   44.5690 C   0  0  0  0  0  0  0  0  0  0  0  0
   58.0020   28.1590   44.1410 C   0  0  0  0  0  0  0  0  0  0  0  0
   58.3170   29.3700   44.8140 C   0  0  0  0  0  0  0  0  0  0  0  0
   57.7400   30.5630   44.4370 N   0  0  0  0  0  0  0  0  0  0  0  0
   56.5390   30.5590   43.5690 C   0  0  0  0  0  0  0  0  0  0  0  0
   58.2520   31.7580   44.8970 C   0  0  0  0  0  0  0  0  0  0  0  0
   57.8770   32.9870   44.3000 C   0  0  0  0  0  0  0  0  0  0  0  0
   58.3210   34.2030   44.8050 C   0  0  0  0  0  0  0  0  0  0  0  0
   59.1470   34.2380   45.9220 C   0  0  0  0  0  0  0  0  0  0  0  0
   59.6380   35.5580   46.4460 C   0  0  0  0  0  0  0  0  0  0  0  0
   59.5880   33.0380   46.4910 C   0  0  0  0  0  0  0  0  0  0  0  0
   59.1810   31.7780   45.9770 C   0  0  0  0  0  0  0  0  0  0  0  0
   64.2876   32.4342   50.6985 H   0  0  0  0  0  0  0  0  0  0  0  0
   64.8576   31.6775   49.1723 H   0  0  0  0  0  0  0  0  0  0  0  0
   64.2896   33.3816   49.1723 H   0  0  0  0  0  0  0  0  0  0  0  0
   62.6335   30.8383   49.5483 H   0  0  0  0  0  0  0  0  0  0  0  0
   62.0100   32.4854   49.9320 H   0  0  0  0  0  0  0  0  0  0  0  0
   64.3171   32.9869   47.8687 H   0  0  0  0  0  0  0  0  0  0  0  0
   63.8939   31.9821   46.4218 H   0  0  0  0  0  0  0  0  0  0  0  0
   62.8406   34.7717   47.1021 H   0  0  0  0  0  0  0  0  0  0  0  0
   63.9388   34.3216   45.7537 H   0  0  0  0  0  0  0  0  0  0  0  0
   62.2356   33.7507   45.7537 H   0  0  0  0  0  0  0  0  0  0  0  0
   61.9885   30.9826   46.1445 H   0  0  0  0  0  0  0  0  0  0  0  0
   62.6300   30.0502   47.5514 H   0  0  0  0  0  0  0  0  0  0  0  0
   60.5780   29.6080   48.1530 H   0  0  0  0  0  0  0  0  0  0  0  0
   60.2590   31.1700   48.3850 H   0  0  0  0  0  0  0  0  0  0  0  0
   60.4041   28.0114   47.1858 H   0  0  0  0  0  0  0  0  0  0  0  0
   59.7413   25.9236   46.0243 H   0  0  0  0  0  0  0  0  0  0  0  0
   58.2544   26.0142   44.0361 H   0  0  0  0  0  0  0  0  0  0  0  0
   57.3379   28.1861   43.2645 H   0  0  0  0  0  0  0  0  0  0  0  0
   55.6343   30.5560   44.1948 H   0  0  0  0  0  0  0  0  0  0  0  0
   56.5426   31.4572   42.9339 H   0  0  0  0  0  0  0  0  0  0  0  0
   56.5486   29.6609   42.9339 H   0  0  0  0  0  0  0  0  0  0  0  0
   57.2202   32.9783   43.4177 H   0  0  0  0  0  0  0  0  0  0  0  0
   58.0174   35.1418   44.3186 H   0  0  0  0  0  0  0  0  0  0  0  0
   59.6317   35.5411   47.5459 H   0  0  0  0  0  0  0  0  0  0  0  0
   60.6626   35.7364   46.0879 H   0  0  0  0  0  0  0  0  0  0  0  0
   58.9791   36.3627   46.0879 H   0  0  0  0  0  0  0  0  0  0  0  0
   60.2658   33.0713   47.3567 H   0  0  0  0  0  0  0  0  0  0  0  0
  1  2  1  0
  2  3  1  0
  3  4  1  0
  4  5  1  0
  3  6  1  0
  6  7  1  0
  7  8  1  0
  8  9  2  0
  9 10  1  0
 10 11  2  0
 11 12  1  0
 12 13  2  0
 13 14  1  0
 14 15  2  0
 15 16  1  0
 15 17  1  0
 17 18  2  0
 18 19  1  0
 19 20  2  0
 20 21  1  0
 20 22  1  0
 22 23  2  0
 23  8  1  0
 14  9  1  0
 23 17  1  0
  1 24  1  0
  1 25  1  0
  1 26  1  0
  2 27  1  0
  2 28  1  0
  4 29  1  0
  4 30  1  0
  5 31  1  0
  5 32  1  0
  5 33  1  0
  6 34  1  0
  6 35  1  0
  7 36  1  0
  7 37  1  0
 10 38  1  0
 11 39  1  0
 12 40  1  0
 13 41  1  0
 16 42  1  0
 16 43  1  0
 16 44  1  0
 18 45  1  0
 19 46  1  0
 21 47  1  0
 21 48  1  0
 21 49  1  0
 22 50  1  0
M  CHG  2   7   1  15   1
M  END
>  <UniqueID>  (22) 
20

>  <SMILES>  (22) 
CCN(CC)C[NH2+]c1c2ccccc2[n+](C)c2ccc(C)cc12

>  <Energy>  (22) 
77.91901107680874

>  <Genealogy>  (22) 
CCN(CC)C[NH2+]c1c2ccccc2[n+](C)c2ccc(C)cc12 (protonated)
CCN(CC)C[NH2+]c1c2ccccc2[n+](C)c2ccc(C)cc12 (3D coordinates assigned)
CCN(CC)C[NH2+]c1c2ccccc2[n+](C)c2ccc(C)cc12 (optimized conformer: 77.91901107680874 kcal/mol)

>  <smiles>  (22) 
CCN(CC)CNc1c2ccccc2[n+](C)c2ccc(C)cc12

>  <score_type>  (22) 
oracle

>  <origin>  (22) 
adg

>  <m_score__min__energy>  (22) 
-4.3799999999999999

>  <m_primary>  (22) 
energy

$$$$
22:0
     RDKit          3D

 68 70  0  0  0  0  0  0  0  0999 V2000
   64.3273   31.4283   49.9425 H   0  0  0  0  0  0  0  0  0  0  0  0
   63.2390   31.5810   49.9900 C   0  0  0  0  0  0  0  0  0  0  0  0
   62.6380   31.3290   51.1060 N   0  0  0  0  0  0  0  0  0  0  0  0
   62.7610   32.1190   52.3120 C   0  0  0  0  0  0  0  0  0  0  0  0
   62.6592   31.4651   53.1907 H   0  0  0  0  0  0  0  0  0  0  0  0
   63.7461   32.6081   52.3311 H   0  0  0  0  0  0  0  0  0  0  0  0
   61.9712   32.8844   52.3311 H   0  0  0  0  0  0  0  0  0  0  0  0
   62.5370   32.0720   48.7490 C   0  0  0  0  0  0  0  0  0  0  0  0
   62.6987   31.3526   47.9328 H   0  0  0  0  0  0  0  0  0  0  0  0
   62.9462   33.0552   48.4736 H   0  0  0  0  0  0  0  0  0  0  0  0
   61.1010   32.2080   48.9940 N   0  0  0  0  0  0  0  0  0  0  0  0
   60.6950   31.7220   49.8220 H   0  0  0  0  0  0  0  0  0  0  0  0
   60.2140   32.9260   48.1140 C   0  0  0  0  0  0  0  0  0  0  0  0
   60.2860   34.3260   48.0810 C   0  0  0  0  0  0  0  0  0  0  0  0
   60.9058   34.8563   48.8190 H   0  0  0  0  0  0  0  0  0  0  0  0
   59.5850   35.0490   47.1290 C   0  0  0  0  0  0  0  0  0  0  0  0
   59.6031   36.1486   47.1521 H   0  0  0  0  0  0  0  0  0  0  0  0
   58.8590   34.3880   46.1450 C   0  0  0  0  0  0  0  0  0  0  0  0
   58.3335   34.9734   45.3761 H   0  0  0  0  0  0  0  0  0  0  0  0
   58.7840   32.9750   46.1150 C   0  0  0  0  0  0  0  0  0  0  0  0
   59.3700   32.2440   47.1880 C   0  0  0  0  0  0  0  0  0  0  0  0
   59.0710   30.8660   47.3080 C   0  0  0  0  0  0  0  0  0  0  0  0
   59.3800   30.1450   48.5130 N   0  0  0  0  0  0  0  0  0  0  0  0
   58.9430   30.4550   49.4110 H   0  0  0  0  0  0  0  0  0  0  0  0
   60.4070   29.1010   48.5530 C   0  0  0  0  0  0  0  0  0  0  0  0
   61.2586   29.4111   47.9296 H   0  0  0  0  0  0  0  0  0  0  0  0
   59.9689   28.1662   48.1732 H   0  0  0  0  0  0  0  0  0  0  0  0
   60.8950   28.8620   49.9800 C   0  0  0  0  0  0  0  0  0  0  0  0
   61.9909   28.9507   50.0142 H   0  0  0  0  0  0  0  0  0  0  0  0
   60.6028   27.8533   50.3075 H   0  0  0  0  0  0  0  0  0  0  0  0
   60.3150   29.8270   50.8350 O   0  0  0  0  0  0  0  0  0  0  0  0
   59.9450   29.2440   52.0710 C   0  0  0  0  0  0  0  0  0  0  0  0
   60.4770   29.7620   52.8825 H   0  0  0  0  0  0  0  0  0  0  0  0
   60.2132   28.1777   52.0401 H   0  0  0  0  0  0  0  0  0  0  0  0
   58.4340   29.3490   52.3210 C   0  0  0  0  0  0  0  0  0  0  0  0
   58.2582   29.9923   53.1958 H   0  0  0  0  0  0  0  0  0  0  0  0
   58.0377   28.3384   52.4991 H   0  0  0  0  0  0  0  0  0  0  0  0
   57.7700   29.9020   51.1990 O   0  0  0  0  0  0  0  0  0  0  0  0
   56.8290   30.8740   51.6090 C   0  0  0  0  0  0  0  0  0  0  0  0
   56.6284   30.7623   52.6848 H   0  0  0  0  0  0  0  0  0  0  0  0
   55.8905   30.7410   51.0509 H   0  0  0  0  0  0  0  0  0  0  0  0
   57.3990   32.2650   51.3360 C   0  0  0  0  0  0  0  0  0  0  0  0
   57.4246   32.8386   52.2743 H   0  0  0  0  0  0  0  0  0  0  0  0
   56.7610   32.7785   50.6016 H   0  0  0  0  0  0  0  0  0  0  0  0
   58.7600   32.1540   50.7970 N   0  0  0  0  0  0  0  0  0  0  0  0
   59.1440   31.2220   51.0880 H   0  0  0  0  0  0  0  0  0  0  0  0
   59.6210   33.1910   51.3770 C   0  0  0  0  0  0  0  0  0  0  0  0
   59.9665   33.8648   50.5791 H   0  0  0  0  0  0  0  0  0  0  0  0
   60.4837   32.7116   51.8627 H   0  0  0  0  0  0  0  0  0  0  0  0
   58.8470   33.9960   52.4170 C   0  0  0  0  0  0  0  0  0  0  0  0
   59.1509   33.6799   53.4258 H   0  0  0  0  0  0  0  0  0  0  0  0
   59.0635   35.0667   52.2874 H   0  0  0  0  0  0  0  0  0  0  0  0
   57.7687   33.8217   52.2874 H   0  0  0  0  0  0  0  0  0  0  0  0
   58.3040   30.2280   46.3140 C   0  0  0  0  0  0  0  0  0  0  0  0
   57.9900   28.8530   46.4160 C   0  0  0  0  0  0  0  0  0  0  0  0
   58.3969   28.2633   47.2507 H   0  0  0  0  0  0  0  0  0  0  0  0
   57.1730   28.2370   45.4740 C   0  0  0  0  0  0  0  0  0  0  0  0
   56.9441   27.1647   45.5622 H   0  0  0  0  0  0  0  0  0  0  0  0
   56.6460   28.9750   44.4220 C   0  0  0  0  0  0  0  0  0  0  0  0
   55.9836   28.4901   43.6898 H   0  0  0  0  0  0  0  0  0  0  0  0
   56.9540   30.3290   44.2910 C   0  0  0  0  0  0  0  0  0  0  0  0
   56.5228   30.9034   43.4579 H   0  0  0  0  0  0  0  0  0  0  0  0
   57.8140   30.9780   45.2140 C   0  0  0  0  0  0  0  0  0  0  0  0
   58.1410   32.3140   45.0850 N   0  0  0  0  0  0  0  0  0  0  0  0
   57.8440   33.0270   43.8220 C   0  0  0  0  0  0  0  0  0  0  0  0
   57.4302   34.0203   44.0503 H   0  0  0  0  0  0  0  0  0  0  0  0
   58.7696   33.1406   43.2387 H   0  0  0  0  0  0  0  0  0  0  0  0
   57.1115   32.4499   43.2387 H   0  0  0  0  0  0  0  0  0  0  0  0
  1  2  1  0
  2  3  2  0
  3  4  1  0
  4  5  1  0
  4  6  1  0
  4  7  1  0
  2  8  1  0
  8  9  1  0
  8 10  1  0
  8 11  1  0
 11 12  1  0
 11 13  1  0
 13 14  2  0
 14 15  1  0
 14 16  1  0
 16 17  1  0
 16 18  2  0
 18 19  1  0
 18 20  1  0
 20 21  2  0
 21 22  1  0
 22 23  1  0
 23 24  1  0
 23 25  1  0
 25 26  1  0
 25 27  1  0
 25 28  1  0
 28 29  1  0
 28 30  1  0
 28 31  1  0
 31 32  1  0
 32 33  1  0
 32 34  1  0
 32 35  1  0
 35 36  1  0
 35 37  1  0
 35 38  1  0
 38 39  1  0
 39 40  1  0
 39 41  1  0
 39 42  1  0
 42 43  1  0
 42 44  1  0
 42 45  1  0
 45 46  1  0
 45 47  1  0
 47 48  1  0
 47 49  1  0
 47 50  1  0
 50 51  1  0
 50 52  1  0
 50 53  1  0
 22 54  2  0
 54 55  1  0
 55 56  1  0
 55 57  2  0
 57 58  1  0
 57 59  1  0
 59 60  1  0
 59 61  2  0
 61 62  1  0
 61 63  1  0
 63 64  2  0
 64 65  1  0
 65 66  1  0
 65 67  1  0
 65 68  1  0
 21 13  1  0
 63 54  1  0
 64 20  1  0
M  CHG  1  64   1
M  END
>  <UniqueID>  (23) 
21

>  <SMILES>  (23) 
CCNCCOCCOCCNc1c2ccccc2[n+](C)c2cccc(NC/C=N\C)c12

>  <Energy>  (23) 
95.39368664467217

>  <Genealogy>  (23) 
CCNCCOCCOCCNc1c2ccccc2[n+](C)c2cccc(NC/C=N\C)c12 (cis-trans isomerization)
CCNCCOCCOCCNc1c2ccccc2[n+](C)c2cccc(NC/C=N\C)c12 (3D coordinates assigned)
CCNCCOCCOCCNc1c2ccccc2[n+](C)c2cccc(NC/C=N\C)c12 (optimized conformer: 95.39368664467217 kcal/mol)

>  <smiles>  (23) 
CCNCCOCCOCCNc1c2ccccc2[n+](C)c2cccc(NCC=NC)c12

>  <score_type>  (23) 
oracle

>  <origin>  (23) 
adg

>  <m_score__min__energy>  (23) 
-4.1500000000000004

>  <m_primary>  (23) 
energy

$$$$
23:0
     RDKit          3D

 38 39  0  0  0  0  0  0  0  0999 V2000
   63.3830   33.9240   46.3870 C   0  0  0  0  0  0  0  0  0  0  0  0
   63.3410   33.1250   47.4550 C   0  0  0  0  0  0  0  0  0  0  0  0
   62.0560   32.4870   47.9060 C   0  0  0  0  0  0  0  0  0  0  0  0
   61.2210   33.4640   48.6190 N   0  0  0  0  0  0  0  0  0  0  0  0
   61.7680   34.2030   49.7630 C   0  0  0  0  0  0  0  0  0  0  0  0
   59.8940   33.7610   48.1340 C   0  0  0  0  0  0  0  0  0  0  0  0
   59.2910   34.7890   48.5460 O   0  0  0  0  0  0  0  0  0  0  0  0
   59.2260   32.8950   47.1400 C   0  0  0  0  0  0  0  0  0  0  0  0
   58.8250   31.6120   47.5200 C   0  0  0  0  0  0  0  0  0  0  0  0
   58.2290   30.7780   46.6300 N   0  0  0  0  0  0  0  0  0  0  0  0
   58.0010   31.1440   45.3320 C   0  0  0  0  0  0  0  0  0  0  0  0
   57.3820   30.2530   44.4170 C   0  0  0  0  0  0  0  0  0  0  0  0
   56.9520   28.8680   44.8270 C   0  0  0  0  0  0  0  0  0  0  0  0
   57.1630   30.6640   43.0930 C   0  0  0  0  0  0  0  0  0  0  0  0
   57.5350   31.9420   42.6660 C   0  0  0  0  0  0  0  0  0  0  0  0
   57.3280   32.3480   41.2350 C   0  0  0  0  0  0  0  0  0  0  0  0
   58.1640   32.8150   43.5590 C   0  0  0  0  0  0  0  0  0  0  0  0
   58.3970   32.4370   44.8950 C   0  0  0  0  0  0  0  0  0  0  0  0
   59.0180   33.3140   45.8130 C   0  0  0  0  0  0  0  0  0  0  0  0
   59.4940   34.9520   45.3350 Cl  0  0  0  0  0  0  0  0  0  0  0  0
   64.3356   34.3787   46.0774 H   0  0  0  0  0  0  0  0  0  0  0  0
   62.4650   34.1279   45.8162 H   0  0  0  0  0  0  0  0  0  0  0  0
   64.2658   32.9289   48.0174 H   0  0  0  0  0  0  0  0  0  0  0  0
   61.5084   32.1149   47.0276 H   0  0  0  0  0  0  0  0  0  0  0  0
   62.2905   31.6547   48.5860 H   0  0  0  0  0  0  0  0  0  0  0  0
   61.4237   33.7379   50.6985 H   0  0  0  0  0  0  0  0  0  0  0  0
   62.8670   34.1782   49.7240 H   0  0  0  0  0  0  0  0  0  0  0  0
   61.4232   35.2468   49.7240 H   0  0  0  0  0  0  0  0  0  0  0  0
   58.9942   31.2734   48.5528 H   0  0  0  0  0  0  0  0  0  0  0  0
   57.9560   29.8340   46.9830 H   0  0  0  0  0  0  0  0  0  0  0  0
   56.9310   28.8005   45.9247 H   0  0  0  0  0  0  0  0  0  0  0  0
   55.9478   28.6626   44.4278 H   0  0  0  0  0  0  0  0  0  0  0  0
   57.6633   28.1300   44.4278 H   0  0  0  0  0  0  0  0  0  0  0  0
   56.6918   29.9704   42.3810 H   0  0  0  0  0  0  0  0  0  0  0  0
   56.8286   33.3275   41.2003 H   0  0  0  0  0  0  0  0  0  0  0  0
   58.3020   32.4149   40.7283 H   0  0  0  0  0  0  0  0  0  0  0  0
   56.7017   31.5990   40.7283 H   0  0  0  0  0  0  0  0  0  0  0  0
   58.4809   33.8100   43.2132 H   0  0  0  0  0  0  0  0  0  0  0  0
  1  2  2  0
  2  3  1  0
  3  4  1  0
  4  5  1  0
  4  6  1  0
  6  7  2  0
  6  8  1  0
  8  9  2  0
  9 10  1  0
 10 11  2  0
 11 12  1  0
 12 13  1  0
 12 14  2  0
 14 15  1  0
 15 16  1  0
 15 17  2  0
 17 18  1  0
 18 19  2  0
 19 20  1  0
 19  8  1  0
 18 11  1  0
  1 21  1  0
  1 22  1  0
  2 23  1  0
  3 24  1  0
  3 25  1  0
  5 26  1  0
  5 27  1  0
  5 28  1  0
  9 29  1  0
 10 30  1  0
 13 31  1  0
 13 32  1  0
 13 33  1  0
 14 34  1  0
 16 35  1  0
 16 36  1  0
 16 37  1  0
 17 38  1  0
M  CHG  1  10   1
M  END
>  <UniqueID>  (24) 
22

>  <SMILES>  (24) 
C=CCN(C)C(=O)c1c[nH+]c2c(C)cc(C)cc2c1Cl

>  <Energy>  (24) 
46.18019378483415

>  <Genealogy>  (24) 
C=CCN(C)C(=O)c1c[nH+]c2c(C)cc(C)cc2c1Cl (protonated)
C=CCN(C)C(=O)c1c[nH+]c2c(C)cc(C)cc2c1Cl (3D coordinates assigned)
C=CCN(C)C(=O)c1c[nH+]c2c(C)cc(C)cc2c1Cl (optimized conformer: 46.18019378483415 kcal/mol)

>  <smiles>  (24) 
C=CCN(C)C(=O)c1cnc2c(C)cc(C)cc2c1Cl

>  <score_type>  (24) 
oracle

>  <origin>  (24) 
adg

>  <m_score__min__energy>  (24) 
-5.54

>  <m_primary>  (24) 
energy

$$$$
24:0
     RDKit          3D

 53 55  0  0  0  0  0  0  0  0999 V2000
   63.3880   33.8060   46.6520 C   0  0  0  0  0  0  0  0  0  0  0  0
   63.3910   32.3830   47.1850 C   0  0  0  0  0  0  0  0  0  0  0  0
   62.9110   32.3890   48.5120 O   0  0  0  0  0  0  0  0  0  0  0  0
   63.3250   33.5580   49.1950 C   0  0  0  0  0  0  0  0  0  0  0  0
   62.1670   34.1760   49.9800 C   0  0  0  0  0  0  0  0  0  0  0  0
   61.2680   33.1620   50.3780 O   0  0  0  0  0  0  0  0  0  0  0  0
   59.9430   33.6400   50.2990 C   0  0  0  0  0  0  0  0  0  0  0  0
   58.9890   32.4470   50.1850 C   0  0  0  0  0  0  0  0  0  0  0  0
   59.6620   31.2030   49.5710 C   0  0  0  0  0  0  0  0  0  0  0  0
   60.5670   31.5070   48.4390 N   0  0  0  0  0  0  0  0  0  0  0  0
   59.8790   31.5880   47.1540 C   0  0  0  0  0  0  0  0  0  0  0  0
   59.6290   32.8430   46.5190 C   0  0  0  0  0  0  0  0  0  0  0  0
   60.0280   34.0810   47.0910 C   0  0  0  0  0  0  0  0  0  0  0  0
   59.8350   35.2850   46.4190 C   0  0  0  0  0  0  0  0  0  0  0  0
   59.2510   35.2990   45.1660 C   0  0  0  0  0  0  0  0  0  0  0  0
   58.8290   34.1110   44.5840 C   0  0  0  0  0  0  0  0  0  0  0  0
   58.9610   32.8680   45.2580 C   0  0  0  0  0  0  0  0  0  0  0  0
   58.4650   31.7070   44.7050 N   0  0  0  0  0  0  0  0  0  0  0  0
   57.5000   31.7780   43.5830 C   0  0  0  0  0  0  0  0  0  0  0  0
   58.8340   30.4820   45.2170 C   0  0  0  0  0  0  0  0  0  0  0  0
   58.5790   29.2840   44.5010 C   0  0  0  0  0  0  0  0  0  0  0  0
   58.8700   28.0390   45.0480 C   0  0  0  0  0  0  0  0  0  0  0  0
   59.4280   27.9500   46.3150 C   0  0  0  0  0  0  0  0  0  0  0  0
   59.7760   26.3760   47.0100 Cl  0  0  0  0  0  0  0  0  0  0  0  0
   59.7370   29.1100   47.0230 C   0  0  0  0  0  0  0  0  0  0  0  0
   59.4890   30.3960   46.4760 C   0  0  0  0  0  0  0  0  0  0  0  0
   63.3865   34.5131   47.4946 H   0  0  0  0  0  0  0  0  0  0  0  0
   64.2858   33.9694   46.0378 H   0  0  0  0  0  0  0  0  0  0  0  0
   62.4895   33.9656   46.0378 H   0  0  0  0  0  0  0  0  0  0  0  0
   62.7402   31.7537   46.5602 H   0  0  0  0  0  0  0  0  0  0  0  0
   64.4139   31.9792   47.1614 H   0  0  0  0  0  0  0  0  0  0  0  0
   64.1344   33.2985   49.8932 H   0  0  0  0  0  0  0  0  0  0  0  0
   63.6747   34.2909   48.4530 H   0  0  0  0  0  0  0  0  0  0  0  0
   62.5605   34.6865   50.8714 H   0  0  0  0  0  0  0  0  0  0  0  0
   61.6399   34.9009   49.3422 H   0  0  0  0  0  0  0  0  0  0  0  0
   59.7047   34.2177   51.2042 H   0  0  0  0  0  0  0  0  0  0  0  0
   59.8338   34.2890   49.4176 H   0  0  0  0  0  0  0  0  0  0  0  0
   58.6254   32.1899   51.1908 H   0  0  0  0  0  0  0  0  0  0  0  0
   58.1659   32.7426   49.5179 H   0  0  0  0  0  0  0  0  0  0  0  0
   60.2466   30.7022   50.3568 H   0  0  0  0  0  0  0  0  0  0  0  0
   58.8565   30.5678   49.1738 H   0  0  0  0  0  0  0  0  0  0  0  0
   61.3690   30.8470   48.4430 H   0  0  0  0  0  0  0  0  0  0  0  0
   61.0440   32.4180   48.6240 H   0  0  0  0  0  0  0  0  0  0  0  0
   60.4990   34.0883   48.0850 H   0  0  0  0  0  0  0  0  0  0  0  0
   60.1487   36.2296   46.8873 H   0  0  0  0  0  0  0  0  0  0  0  0
   59.1207   36.2509   44.6303 H   0  0  0  0  0  0  0  0  0  0  0  0
   58.3827   34.1332   43.5789 H   0  0  0  0  0  0  0  0  0  0  0  0
   56.4779   31.8532   43.9826 H   0  0  0  0  0  0  0  0  0  0  0  0
   57.7187   32.6625   42.9667 H   0  0  0  0  0  0  0  0  0  0  0  0
   57.5869   30.8710   42.9667 H   0  0  0  0  0  0  0  0  0  0  0  0
   58.1424   29.3411   43.4930 H   0  0  0  0  0  0  0  0  0  0  0  0
   58.6576   27.1240   44.4756 H   0  0  0  0  0  0  0  0  0  0  0  0
   60.1819   29.0273   48.0256 H   0  0  0  0  0  0  0  0  0  0  0  0
  1  2  1  0
  2  3  1  0
  3  4  1  0
  4  5  1  0
  5  6  1  0
  6  7  1  0
  7  8  1  0
  8  9  1  0
  9 10  1  0
 10 11  1  0
 11 12  2  0
 12 13  1  0
 13 14  2  0
 14 15  1  0
 15 16  2  0
 16 17  1  0
 17 18  2  0
 18 19  1  0
 18 20  1  0
 20 21  2  0
 21 22  1  0
 22 23  2  0
 23 24  1  0
 23 25  1  0
 25 26  2  0
 26 11  1  0
 17 12  1  0
 26 20  1  0
  1 27  1  0
  1 28  1  0
  1 29  1  0
  2 30  1  0
  2 31  1  0
  4 32  1  0
  4 33  1  0
  5 34  1  0
  5 35  1  0
  7 36  1  0
  7 37  1  0
  8 38  1  0
  8 39  1  0
  9 40  1  0
  9 41  1  0
 10 42  1  0
 10 43  1  0
 13 44  1  0
 14 45  1  0
 15 46  1  0
 16 47  1  0
 19 48  1  0
 19 49  1  0
 19 50  1  0
 21 51  1  0
 22 52  1  0
 25 53  1  0
M  CHG  2  10   1  18   1
M  END
>  <UniqueID>  (25) 
23

>  <SMILES>  (25) 
CCOCCOCCC[NH2+]c1c2ccccc2[n+](C)c2ccc(Cl)cc12

>  <Energy>  (25) 
80.32139259456386

>  <Genealogy>  (25) 
CCOCCOCCC[NH2+]c1c2ccccc2[n+](C)c2ccc(Cl)cc12 (protonated)
CCOCCOCCC[NH2+]c1c2ccccc2[n+](C)c2ccc(Cl)cc12 (3D coordinates assigned)
CCOCCOCCC[NH2+]c1c2ccccc2[n+](C)c2ccc(Cl)cc12 (optimized conformer: 80.32139259456386 kcal/mol)

>  <smiles>  (25) 
CCOCCOCCCNc1c2ccccc2[n+](C)c2ccc(Cl)cc12

>  <score_type>  (25) 
oracle

>  <origin>  (25) 
adg

>  <m_score__min__energy>  (25) 
-3.9700000000000002

>  <m_primary>  (25) 
energy

$$$$
25:0
     RDKit          3D

 45 45  0  0  0  0  0  0  0  0999 V2000
   57.7450   25.5820   43.2510 C   0  0  0  0  0  0  0  0  0  0  0  0
   58.1590   26.9390   42.6740 C   0  0  0  0  0  0  0  0  0  0  0  0
   57.8600   28.0560   43.5880 N   0  0  0  0  0  0  0  0  0  0  0  0
   58.6730   28.0070   44.8140 C   0  0  0  0  0  0  0  0  0  0  0  0
   58.8300   29.3920   45.3990 C   0  0  0  0  0  0  0  0  0  0  0  0
   60.0330   29.7420   46.0320 C   0  0  0  0  0  0  0  0  0  0  0  0
   60.2130   31.0240   46.5510 C   0  0  0  0  0  0  0  0  0  0  0  0
   59.1980   31.9820   46.4380 C   0  0  0  0  0  0  0  0  0  0  0  0
   59.3860   33.3060   46.9750 N   0  0  0  0  0  0  0  0  0  0  0  0
   58.7640   34.4600   46.3090 C   0  0  0  0  0  0  0  0  0  0  0  0
   59.2530   34.5700   44.8690 C   0  0  0  0  0  0  0  0  0  0  0  0
   60.1960   33.4950   48.1870 C   0  0  0  0  0  0  0  0  0  0  0  0
   61.6370   33.8360   47.8180 C   0  0  0  0  0  0  0  0  0  0  0  0
   58.0010   31.6460   45.7910 C   0  0  0  0  0  0  0  0  0  0  0  0
   57.8090   30.3540   45.2600 C   0  0  0  0  0  0  0  0  0  0  0  0
   56.6280   29.9980   44.5900 O   0  0  0  0  0  0  0  0  0  0  0  0
   56.2420   30.4870   43.3080 C   0  0  0  0  0  0  0  0  0  0  0  0
   57.3880   31.2860   42.7070 C   0  0  0  0  0  0  0  0  0  0  0  0
   57.7599   25.6308   44.3498 H   0  0  0  0  0  0  0  0  0  0  0  0
   56.7298   25.3324   42.9088 H   0  0  0  0  0  0  0  0  0  0  0  0
   58.4479   24.8082   42.9088 H   0  0  0  0  0  0  0  0  0  0  0  0
   59.2413   26.9236   42.4780 H   0  0  0  0  0  0  0  0  0  0  0  0
   57.5830   27.0993   41.7507 H   0  0  0  0  0  0  0  0  0  0  0  0
   56.8480   27.9900   43.8510 H   0  0  0  0  0  0  0  0  0  0  0  0
   58.0090   28.9690   43.0980 H   0  0  0  0  0  0  0  0  0  0  0  0
   58.1788   27.3565   45.5506 H   0  0  0  0  0  0  0  0  0  0  0  0
   59.6684   27.6099   44.5660 H   0  0  0  0  0  0  0  0  0  0  0  0
   60.8399   28.9995   46.1194 H   0  0  0  0  0  0  0  0  0  0  0  0
   61.1573   31.2839   47.0517 H   0  0  0  0  0  0  0  0  0  0  0  0
   57.6712   34.3345   46.3121 H   0  0  0  0  0  0  0  0  0  0  0  0
   59.0409   35.3764   46.8507 H   0  0  0  0  0  0  0  0  0  0  0  0
   60.3262   34.8114   44.8636 H   0  0  0  0  0  0  0  0  0  0  0  0
   59.0899   33.6127   44.3522 H   0  0  0  0  0  0  0  0  0  0  0  0
   58.6957   35.3652   44.3522 H   0  0  0  0  0  0  0  0  0  0  0  0
   59.7706   34.3163   48.7824 H   0  0  0  0  0  0  0  0  0  0  0  0
   60.1888   32.5618   48.7692 H   0  0  0  0  0  0  0  0  0  0  0  0
   62.2272   33.9757   48.7357 H   0  0  0  0  0  0  0  0  0  0  0  0
   62.0680   33.0151   47.2262 H   0  0  0  0  0  0  0  0  0  0  0  0
   61.6544   34.7631   47.2262 H   0  0  0  0  0  0  0  0  0  0  0  0
   57.2034   32.3977   45.6965 H   0  0  0  0  0  0  0  0  0  0  0  0
   56.0001   29.6398   42.6495 H   0  0  0  0  0  0  0  0  0  0  0  0
   55.3579   31.1332   43.4118 H   0  0  0  0  0  0  0  0  0  0  0  0
   58.0005   31.7130   43.5148 H   0  0  0  0  0  0  0  0  0  0  0  0
   58.0099   30.6247   42.0858 H   0  0  0  0  0  0  0  0  0  0  0  0
   56.9825   32.0982   42.0858 H   0  0  0  0  0  0  0  0  0  0  0  0
  1  2  1  0
  2  3  1  0
  3  4  1  0
  4  5  1  0
  5  6  2  0
  6  7  1  0
  7  8  2  0
  8  9  1  0
  9 10  1  0
 10 11  1  0
  9 12  1  0
 12 13  1  0
  8 14  1  0
 14 15  2  0
 15 16  1  0
 16 17  1  0
 17 18  1  0
 15  5  1  0
  1 19  1  0
  1 20  1  0
  1 21  1  0
  2 22  1  0
  2 23  1  0
  3 24  1  0
  3 25  1  0
  4 26  1  0
  4 27  1  0
  6 28  1  0
  7 29  1  0
 10 30  1  0
 10 31  1  0
 11 32  1  0
 11 33  1  0
 11 34  1  0
 12 35  1  0
 12 36  1  0
 13 37  1  0
 13 38  1  0
 13 39  1  0
 14 40  1  0
 17 41  1  0
 17 42  1  0
 18 43  1  0
 18 44  1  0
 18 45  1  0
M  CHG  1   3   1
M  END
>  <UniqueID>  (26) 
24

>  <SMILES>  (26) 
CC[NH2+]Cc1ccc(N(CC)CC)cc1OCC

>  <Energy>  (26) 
33.55665296629488

>  <Genealogy>  (26) 
CC[NH2+]Cc1ccc(N(CC)CC)cc1OCC (protonated)
CC[NH2+]Cc1ccc(N(CC)CC)cc1OCC (3D coordinates assigned)
CC[NH2+]Cc1ccc(N(CC)CC)cc1OCC (optimized conformer: 33.55665296629488 kcal/mol)

>  <smiles>  (26) 
CCNCc1ccc(N(CC)CC)cc1OCC

>  <score_type>  (26) 
oracle

>  <origin>  (26) 
adg

>  <m_score__min__energy>  (26) 
-4.1900000000000004

>  <m_primary>  (26) 
energy

$$$$
26:0
     RDKit          3D

 53 55  0  0  0  0  0  0  0  0999 V2000
   65.1970   32.6520   49.7710 C   0  0  0  0  0  0  0  0  0  0  0  0
   64.0130   33.3230   49.0690 C   0  0  0  0  0  0  0  0  0  0  0  0
   63.0200   32.3780   48.4990 N   0  0  0  0  0  0  0  0  0  0  0  0
   62.5770   32.7170   47.1210 C   0  0  0  0  0  0  0  0  0  0  0  0
   63.3790   33.8440   46.4460 C   0  0  0  0  0  0  0  0  0  0  0  0
   61.9270   31.9570   49.4050 C   0  0  0  0  0  0  0  0  0  0  0  0
   61.2550   30.6560   48.9500 C   0  0  0  0  0  0  0  0  0  0  0  0
   59.8420   30.8940   48.6520 N   0  0  0  0  0  0  0  0  0  0  0  0
   59.3700   31.0920   47.3070 C   0  0  0  0  0  0  0  0  0  0  0  0
   59.0700   32.3910   46.8550 C   0  0  0  0  0  0  0  0  0  0  0  0
   58.5250   32.5600   45.5620 C   0  0  0  0  0  0  0  0  0  0  0  0
   58.2040   31.4610   44.7900 N   0  0  0  0  0  0  0  0  0  0  0  0
   57.3850   31.6320   43.5690 C   0  0  0  0  0  0  0  0  0  0  0  0
   58.6540   30.2060   45.1520 C   0  0  0  0  0  0  0  0  0  0  0  0
   58.5650   29.0970   44.2720 C   0  0  0  0  0  0  0  0  0  0  0  0
   59.0020   27.8310   44.6600 C   0  0  0  0  0  0  0  0  0  0  0  0
   59.5610   27.6390   45.9200 C   0  0  0  0  0  0  0  0  0  0  0  0
   60.1220   26.0450   46.3970 Cl  0  0  0  0  0  0  0  0  0  0  0  0
   59.6980   28.7170   46.7920 C   0  0  0  0  0  0  0  0  0  0  0  0
   59.2400   30.0020   46.4290 C   0  0  0  0  0  0  0  0  0  0  0  0
   58.2730   33.9740   45.0690 C   0  0  0  0  0  0  0  0  0  0  0  0
   59.3190   34.9370   45.6220 C   0  0  0  0  0  0  0  0  0  0  0  0
   59.2610   34.9710   47.1500 C   0  0  0  0  0  0  0  0  0  0  0  0
   59.2030   33.5730   47.8070 C   0  0  0  0  0  0  0  0  0  0  0  0
   65.0669   32.7257   50.8608 H   0  0  0  0  0  0  0  0  0  0  0  0
   65.2445   31.5927   49.4782 H   0  0  0  0  0  0  0  0  0  0  0  0
   66.1302   33.1555   49.4782 H   0  0  0  0  0  0  0  0  0  0  0  0
   63.4978   33.9633   49.8002 H   0  0  0  0  0  0  0  0  0  0  0  0
   64.4301   33.8875   48.2220 H   0  0  0  0  0  0  0  0  0  0  0  0
   62.6670   31.8134   46.5002 H   0  0  0  0  0  0  0  0  0  0  0  0
   61.5427   33.0813   47.2082 H   0  0  0  0  0  0  0  0  0  0  0  0
   63.8338   34.4831   47.2172 H   0  0  0  0  0  0  0  0  0  0  0  0
   64.1700   33.4065   45.8192 H   0  0  0  0  0  0  0  0  0  0  0  0
   62.7064   34.4479   45.8192 H   0  0  0  0  0  0  0  0  0  0  0  0
   62.3423   31.8059   50.4123 H   0  0  0  0  0  0  0  0  0  0  0  0
   61.1629   32.7483   49.3969 H   0  0  0  0  0  0  0  0  0  0  0  0
   61.7592   30.2835   48.0461 H   0  0  0  0  0  0  0  0  0  0  0  0
   61.3312   29.9117   49.7564 H   0  0  0  0  0  0  0  0  0  0  0  0
   59.1540   30.9140   49.4420 H   0  0  0  0  0  0  0  0  0  0  0  0
   56.3447   31.8492   43.8528 H   0  0  0  0  0  0  0  0  0  0  0  0
   57.7844   32.4661   42.9734 H   0  0  0  0  0  0  0  0  0  0  0  0
   57.4173   30.7077   42.9734 H   0  0  0  0  0  0  0  0  0  0  0  0
   58.1438   29.2383   43.2657 H   0  0  0  0  0  0  0  0  0  0  0  0
   58.9046   26.9814   43.9681 H   0  0  0  0  0  0  0  0  0  0  0  0
   60.1685   28.5650   47.7746 H   0  0  0  0  0  0  0  0  0  0  0  0
   58.3178   33.9857   43.9700 H   0  0  0  0  0  0  0  0  0  0  0  0
   57.2801   34.2959   45.4161 H   0  0  0  0  0  0  0  0  0  0  0  0
   60.3191   34.6063   45.3050 H   0  0  0  0  0  0  0  0  0  0  0  0
   59.1131   35.9461   45.2356 H   0  0  0  0  0  0  0  0  0  0  0  0
   60.1580   35.4899   47.5190 H   0  0  0  0  0  0  0  0  0  0  0  0
   58.3301   35.4900   47.4222 H   0  0  0  0  0  0  0  0  0  0  0  0
   60.1276   33.4354   48.3869 H   0  0  0  0  0  0  0  0  0  0  0  0
   58.2854   33.5690   48.4136 H   0  0  0  0  0  0  0  0  0  0  0  0
  1  2  1  0
  2  3  1  0
  3  4  1  0
  4  5  1  0
  3  6  1  0
  6  7  1  0
  7  8  1  0
  8  9  1  0
  9 10  2  0
 10 11  1  0
 11 12  2  0
 12 13  1  0
 12 14  1  0
 14 15  2  0
 15 16  1  0
 16 17  2  0
 17 18  1  0
 17 19  1  0
 19 20  2  0
 11 21  1  0
 21 22  1  0
 22 23  1  0
 23 24  1  0
 20  9  1  0
 24 10  1  0
 20 14  1  0
  1 25  1  0
  1 26  1  0
  1 27  1  0
  2 28  1  0
  2 29  1  0
  4 30  1  0
  4 31  1  0
  5 32  1  0
  5 33  1  0
  5 34  1  0
  6 35  1  0
  6 36  1  0
  7 37  1  0
  7 38  1  0
  8 39  1  0
 13 40  1  0
 13 41  1  0
 13 42  1  0
 15 43  1  0
 16 44  1  0
 19 45  1  0
 21 46  1  0
 21 47  1  0
 22 48  1  0
 22 49  1  0
 23 50  1  0
 23 51  1  0
 24 52  1  0
 24 53  1  0
M  CHG  1  12   1
M  END
>  <UniqueID>  (27) 
25

>  <SMILES>  (27) 
CCN(CC)CCNc1c2c([n+](C)c3ccc(Cl)cc13)CCCC2

>  <Energy>  (27) 
82.14891854612658

>  <Genealogy>  (27) 
CCN(CC)CCNc1c2c([n+](C)c3ccc(Cl)cc13)CCCC2 (3D coordinates assigned)
CCN(CC)CCNc1c2c([n+](C)c3ccc(Cl)cc13)CCCC2 (nonaromatic ring conformer: 82.14891854612658 kcal/mol)

>  <smiles>  (27) 
CCN(CC)CCNc1c2c([n+](C)c3ccc(Cl)cc13)CCCC2

>  <score_type>  (27) 
oracle

>  <origin>  (27) 
adg

>  <m_score__min__energy>  (27) 
-6.1399999999999997

>  <m_primary>  (27) 
energy

$$$$
27:0
     RDKit          3D

 66 68  0  0  0  0  0  0  0  0999 V2000
   60.4190   28.6430   45.2280 C   0  0  0  0  0  0  0  0  0  0  0  0
   59.8870   29.8070   46.0610 C   0  0  0  0  0  0  0  0  0  0  0  0
   58.6760   29.4010   46.8090 N   0  0  0  0  0  0  0  0  0  0  0  0
   58.9070   29.3830   48.2710 C   0  0  0  0  0  0  0  0  0  0  0  0
   60.3870   29.1990   48.6160 C   0  0  0  0  0  0  0  0  0  0  0  0
   58.0430   28.1740   46.2610 C   0  0  0  0  0  0  0  0  0  0  0  0
   57.1780   28.3760   45.0040 C   0  0  0  0  0  0  0  0  0  0  0  0
   56.2350   29.4750   45.2570 N   0  0  0  0  0  0  0  0  0  0  0  0
   55.9750   30.2780   44.0540 C   0  0  0  0  0  0  0  0  0  0  0  0
   57.0790   31.3330   43.8260 C   0  0  0  0  0  0  0  0  0  0  0  0
   57.7540   31.7510   45.0670 N   0  0  0  0  0  0  0  0  0  0  0  0
   57.2460   33.0240   45.6010 C   0  0  0  0  0  0  0  0  0  0  0  0
   57.8300   33.2620   47.0000 C   0  0  0  0  0  0  0  0  0  0  0  0
   58.6520   32.1410   47.5110 N   0  0  0  0  0  0  0  0  0  0  0  0
   59.6150   32.5270   48.5400 C   0  0  0  0  0  0  0  0  0  0  0  0
   60.9280   32.9370   48.1780 C   0  0  0  0  0  0  0  0  0  0  0  0
   61.3480   32.9870   46.8240 C   0  0  0  0  0  0  0  0  0  0  0  0
   62.6020   33.4820   46.4760 C   0  0  0  0  0  0  0  0  0  0  0  0
   63.4660   33.9410   47.4580 C   0  0  0  0  0  0  0  0  0  0  0  0
   63.1020   33.8590   48.7980 C   0  0  0  0  0  0  0  0  0  0  0  0
   61.8550   33.3080   49.1910 C   0  0  0  0  0  0  0  0  0  0  0  0
   61.5410   33.1350   50.5230 N   0  0  0  0  0  0  0  0  0  0  0  0
   62.6090   33.2000   51.5480 C   0  0  0  0  0  0  0  0  0  0  0  0
   60.2390   32.8740   50.9010 C   0  0  0  0  0  0  0  0  0  0  0  0
   59.8430   32.9610   52.2640 C   0  0  0  0  0  0  0  0  0  0  0  0
   58.5420   32.6740   52.6600 C   0  0  0  0  0  0  0  0  0  0  0  0
   57.5920   32.3220   51.7150 C   0  0  0  0  0  0  0  0  0  0  0  0
   57.9330   32.2680   50.3670 C   0  0  0  0  0  0  0  0  0  0  0  0
   59.2530   32.5490   49.9220 C   0  0  0  0  0  0  0  0  0  0  0  0
   60.7819   27.8490   45.8972 H   0  0  0  0  0  0  0  0  0  0  0  0
   59.6123   28.2474   44.5934 H   0  0  0  0  0  0  0  0  0  0  0  0
   61.2460   28.9941   44.5934 H   0  0  0  0  0  0  0  0  0  0  0  0
   60.6621   30.1258   46.7734 H   0  0  0  0  0  0  0  0  0  0  0  0
   59.6262   30.6360   45.3866 H   0  0  0  0  0  0  0  0  0  0  0  0
   58.5588   30.3354   48.6972 H   0  0  0  0  0  0  0  0  0  0  0  0
   58.3518   28.5318   48.6920 H   0  0  0  0  0  0  0  0  0  0  0  0
   60.5096   29.1838   49.7090 H   0  0  0  0  0  0  0  0  0  0  0  0
   60.7467   28.2492   48.1934 H   0  0  0  0  0  0  0  0  0  0  0  0
   60.9683   30.0318   48.1934 H   0  0  0  0  0  0  0  0  0  0  0  0
   58.8441   27.4633   46.0098 H   0  0  0  0  0  0  0  0  0  0  0  0
   57.3579   27.8142   47.0428 H   0  0  0  0  0  0  0  0  0  0  0  0
   57.8210   28.6287   44.1480 H   0  0  0  0  0  0  0  0  0  0  0  0
   56.6266   27.4523   44.7741 H   0  0  0  0  0  0  0  0  0  0  0  0
   56.6560   30.1000   45.9860 H   0  0  0  0  0  0  0  0  0  0  0  0
   55.9336   29.6101   43.1809 H   0  0  0  0  0  0  0  0  0  0  0  0
   55.0189   30.8043   44.1914 H   0  0  0  0  0  0  0  0  0  0  0  0
   57.8318   30.9084   43.1456 H   0  0  0  0  0  0  0  0  0  0  0  0
   56.5934   32.2253   43.4041 H   0  0  0  0  0  0  0  0  0  0  0  0
   57.6460   31.0020   45.7910 H   0  0  0  0  0  0  0  0  0  0  0  0
   57.5447   33.8464   44.9343 H   0  0  0  0  0  0  0  0  0  0  0  0
   56.1486   32.9829   45.6642 H   0  0  0  0  0  0  0  0  0  0  0  0
   58.4598   34.1631   46.9627 H   0  0  0  0  0  0  0  0  0  0  0  0
   56.9767   33.3680   47.6860 H   0  0  0  0  0  0  0  0  0  0  0  0
   59.1590   31.7030   46.7100 H   0  0  0  0  0  0  0  0  0  0  0  0
   58.0280   31.3640   47.8110 H   0  0  0  0  0  0  0  0  0  0  0  0
   60.6709   32.6283   46.0348 H   0  0  0  0  0  0  0  0  0  0  0  0
   62.9077   33.5089   45.4197 H   0  0  0  0  0  0  0  0  0  0  0  0
   64.4393   34.3700   47.1776 H   0  0  0  0  0  0  0  0  0  0  0  0
   63.7947   34.2287   49.5683 H   0  0  0  0  0  0  0  0  0  0  0  0
   62.1572   33.1725   52.5506 H   0  0  0  0  0  0  0  0  0  0  0  0
   63.2859   32.3414   51.4272 H   0  0  0  0  0  0  0  0  0  0  0  0
   63.1768   34.1344   51.4272 H   0  0  0  0  0  0  0  0  0  0  0  0
   60.5821   33.2619   53.0211 H   0  0  0  0  0  0  0  0  0  0  0  0
   58.2666   32.7263   53.7237 H   0  0  0  0  0  0  0  0  0  0  0  0
   56.5655   32.0846   52.0311 H   0  0  0  0  0  0  0  0  0  0  0  0
   57.1626   32.0015   49.6284 H   0  0  0  0  0  0  0  0  0  0  0  0
  1  2  1  0
  2  3  1  0
  3  4  1  0
  4  5  1  0
  3  6  1  0
  6  7  1  0
  7  8  1  0
  8  9  1  0
  9 10  1  0
 10 11  1  0
 11 12  1  0
 12 13  1  0
 13 14  1  0
 14 15  1  0
 15 16  2  0
 16 17  1  0
 17 18  2  0
 18 19  1  0
 19 20  2  0
 20 21  1  0
 21 22  2  0
 22 23  1  0
 22 24  1  0
 24 25  2  0
 25 26  1  0
 26 27  2  0
 27 28  1  0
 28 29  2  0
 29 15  1  0
 21 16  1  0
 29 24  1  0
  1 30  1  0
  1 31  1  0
  1 32  1  0
  2 33  1  0
  2 34  1  0
  4 35  1  0
  4 36  1  0
  5 37  1  0
  5 38  1  0
  5 39  1  0
  6 40  1  0
  6 41  1  0
  7 42  1  0
  7 43  1  0
  8 44  1  0
  9 45  1  0
  9 46  1  0
 10 47  1  0
 10 48  1  0
 11 49  1  0
 12 50  1  0
 12 51  1  0
 13 52  1  0
 13 53  1  0
 14 54  1  0
 14 55  1  0
 17 56  1  0
 18 57  1  0
 19 58  1  0
 20 59  1  0
 23 60  1  0
 23 61  1  0
 23 62  1  0
 25 63  1  0
 26 64  1  0
 27 65  1  0
 28 66  1  0
M  CHG  2  14   1  22   1
M  END
>  <UniqueID>  (28) 
26

>  <SMILES>  (28) 
CCN(CC)CCNCCNCC[NH2+]c1c2ccccc2[n+](C)c2ccccc12

>  <Energy>  (28) 
90.70548848231056

>  <Genealogy>  (28) 
CCN(CC)CCNCCNCC[NH2+]c1c2ccccc2[n+](C)c2ccccc12 (protonated)
CCN(CC)CCNCCNCC[NH2+]c1c2ccccc2[n+](C)c2ccccc12 (3D coordinates assigned)
CCN(CC)CCNCCNCC[NH2+]c1c2ccccc2[n+](C)c2ccccc12 (optimized conformer: 90.70548848231056 kcal/mol)

>  <smiles>  (28) 
CCN(CC)CCNCCNCCNc1c2ccccc2[n+](C)c2ccccc12

>  <score_type>  (28) 
oracle

>  <origin>  (28) 
adg

>  <m_score__min__energy>  (28) 
-3.8799999999999999

>  <m_primary>  (28) 
energy

$$$$
