0:0
     RDKit          3D

 60 62  0  0  0  0  0  0  0  0999 V2000
   65.9100   32.6210   50.0610 C   0  0  0  0  0  0  0  0  0  0  0  0
   64.4090   32.8630   50.1960 C   0  0  0  0  0  0  0  0  0  0  0  0
   63.6070   31.6660   49.6420 C   0  0  0  0  0  0  0  0  0  0  0  0
   62.3160   32.0390   49.0110 N   0  0  0  0  0  0  0  0  0  0  0  0
   62.1790   33.4890   48.7340 C   0  0  0  0  0  0  0  0  0  0  0  0
   62.5060   33.8280   47.2650 C   0  0  0  0  0  0  0  0  0  0  0  0
   63.7450   33.0910   46.7580 C   0  0  0  0  0  0  0  0  0  0  0  0
   61.1530   31.5060   49.7540 C   0  0  0  0  0  0  0  0  0  0  0  0
   60.2710   30.6640   48.8250 C   0  0  0  0  0  0  0  0  0  0  0  0
   60.6090   30.9160   47.4250 N   0  0  0  0  0  0  0  0  0  0  0  0
   59.6010   30.9330   46.4000 C   0  0  0  0  0  0  0  0  0  0  0  0
   59.0540   32.1540   45.9720 C   0  0  0  0  0  0  0  0  0  0  0  0
   59.4090   33.3660   46.6010 C   0  0  0  0  0  0  0  0  0  0  0  0
   58.8410   34.5700   46.1960 C   0  0  0  0  0  0  0  0  0  0  0  0
   57.9020   34.5870   45.1710 C   0  0  0  0  0  0  0  0  0  0  0  0
   57.5460   33.4030   44.5260 C   0  0  0  0  0  0  0  0  0  0  0  0
   58.1370   32.1650   44.8870 C   0  0  0  0  0  0  0  0  0  0  0  0
   57.8350   30.9910   44.2230 N   0  0  0  0  0  0  0  0  0  0  0  0
   57.1350   31.0380   42.9200 C   0  0  0  0  0  0  0  0  0  0  0  0
   58.2090   29.7750   44.7660 C   0  0  0  0  0  0  0  0  0  0  0  0
   57.6830   28.5490   44.2830 C   0  0  0  0  0  0  0  0  0  0  0  0
   58.0920   27.3130   44.8150 C   0  0  0  0  0  0  0  0  0  0  0  0
   57.5730   26.0630   44.3230 N   0  0  0  0  0  0  0  0  0  0  0  0
   57.8320   24.7720   44.9530 C   0  0  0  0  0  0  0  0  0  0  0  0
   59.0160   27.2990   45.8610 C   0  0  0  0  0  0  0  0  0  0  0  0
   59.5170   28.4880   46.3820 C   0  0  0  0  0  0  0  0  0  0  0  0
   59.1240   29.7310   45.8490 C   0  0  0  0  0  0  0  0  0  0  0  0
   66.3611   32.5483   51.0616 H   0  0  0  0  0  0  0  0  0  0  0  0
   66.0823   31.6835   49.5121 H   0  0  0  0  0  0  0  0  0  0  0  0
   66.3683   33.4569   49.5121 H   0  0  0  0  0  0  0  0  0  0  0  0
   64.1606   33.0023   51.2585 H   0  0  0  0  0  0  0  0  0  0  0  0
   64.1441   33.7613   49.6190 H   0  0  0  0  0  0  0  0  0  0  0  0
   64.2248   31.1559   48.8883 H   0  0  0  0  0  0  0  0  0  0  0  0
   63.3652   31.0226   50.5008 H   0  0  0  0  0  0  0  0  0  0  0  0
   61.1445   33.7956   48.9478 H   0  0  0  0  0  0  0  0  0  0  0  0
   62.8929   34.0272   49.3749 H   0  0  0  0  0  0  0  0  0  0  0  0
   61.6469   33.5471   46.6381 H   0  0  0  0  0  0  0  0  0  0  0  0
   62.7114   34.9071   47.2080 H   0  0  0  0  0  0  0  0  0  0  0  0
   64.3380   32.7383   47.6147 H   0  0  0  0  0  0  0  0  0  0  0  0
   63.4353   32.2302   46.1472 H   0  0  0  0  0  0  0  0  0  0  0  0
   64.3536   33.7740   46.1472 H   0  0  0  0  0  0  0  0  0  0  0  0
   61.5090   30.8783   50.5842 H   0  0  0  0  0  0  0  0  0  0  0  0
   60.5615   32.3468   50.1453 H   0  0  0  0  0  0  0  0  0  0  0  0
   60.4259   29.5980   49.0479 H   0  0  0  0  0  0  0  0  0  0  0  0
   59.2188   30.9388   48.9904 H   0  0  0  0  0  0  0  0  0  0  0  0
   61.6120   31.0210   47.1520 H   0  0  0  0  0  0  0  0  0  0  0  0
   60.1428   33.3591   47.4205 H   0  0  0  0  0  0  0  0  0  0  0  0
   59.1352   35.5092   46.6873 H   0  0  0  0  0  0  0  0  0  0  0  0
   57.4384   35.5373   44.8678 H   0  0  0  0  0  0  0  0  0  0  0  0
   56.7941   33.4295   43.7236 H   0  0  0  0  0  0  0  0  0  0  0  0
   56.0505   31.1108   43.0888 H   0  0  0  0  0  0  0  0  0  0  0  0
   57.4773   31.9152   42.3513 H   0  0  0  0  0  0  0  0  0  0  0  0
   57.3569   30.1229   42.3513 H   0  0  0  0  0  0  0  0  0  0  0  0
   56.9381   28.5656   43.4738 H   0  0  0  0  0  0  0  0  0  0  0  0
   56.9630   26.0700   43.4740 H   0  0  0  0  0  0  0  0  0  0  0  0
   57.8090   24.8866   46.0468 H   0  0  0  0  0  0  0  0  0  0  0  0
   57.0605   24.0516   44.6435 H   0  0  0  0  0  0  0  0  0  0  0  0
   58.8217   24.4049   44.6435 H   0  0  0  0  0  0  0  0  0  0  0  0
   59.3517   26.3380   46.2779 H   0  0  0  0  0  0  0  0  0  0  0  0
   60.2286   28.4568   47.2203 H   0  0  0  0  0  0  0  0  0  0  0  0
  1  2  1  0
  2  3  1  0
  3  4  1  0
  4  5  1  0
  5  6  1  0
  6  7  1  0
  4  8  1  0
  8  9  1  0
  9 10  1  0
 10 11  1  0
 11 12  2  0
 12 13  1  0
 13 14  2  0
 14 15  1  0
 15 16  2  0
 16 17  1  0
 17 18  2  0
 18 19  1  0
 18 20  1  0
 20 21  2  0
 21 22  1  0
 22 23  1  0
 23 24  1  0
 22 25  2  0
 25 26  1  0
 26 27  2  0
 27 11  1  0
 17 12  1  0
 27 20  1  0
  1 28  1  0
  1 29  1  0
  1 30  1  0
  2 31  1  0
  2 32  1  0
  3 33  1  0
  3 34  1  0
  5 35  1  0
  5 36  1  0
  6 37  1  0
  6 38  1  0
  7 39  1  0
  7 40  1  0
  7 41  1  0
  8 42  1  0
  8 43  1  0
  9 44  1  0
  9 45  1  0
 10 46  1  0
 13 47  1  0
 14 48  1  0
 15 49  1  0
 16 50  1  0
 19 51  1  0
 19 52  1  0
 19 53  1  0
 21 54  1  0
 23 55  1  0
 24 56  1  0
 24 57  1  0
 24 58  1  0
 25 59  1  0
 26 60  1  0
M  CHG  1  18   1
M  END
>  <UniqueID>  (1) 
1

>  <SMILES>  (1) 
CCCN(CCC)CCNc1c2ccccc2[n+](C)c2cc(NC)ccc12

>  <Energy>  (1) 
83.28959981878195

>  <Genealogy>  (1) 
CCCN(CCC)CCNc1c2ccccc2[n+](C)c2cc(NC)ccc12 (3D coordinates assigned)
CCCN(CCC)CCNc1c2ccccc2[n+](C)c2cc(NC)ccc12 (optimized conformer: 83.28959981878195 kcal/mol)

>  <smiles>  (1) 
CCCN(CCC)CCNc1c2ccccc2[n+](C)c2cc(NC)ccc12

>  <score_type>  (1) 
oracle

>  <origin>  (1) 
adg

>  <m_score__min__energy>  (1) 
-5.6799999999999997

>  <m_primary>  (1) 
energy

$$$$
1:0
     RDKit          3D

 70 72  0  0  0  0  0  0  0  0999 V2000
   58.1300   32.6380   42.9780 C   0  0  0  0  0  0  0  0  0  0  0  0
   57.3720   31.7260   42.0160 C   0  0  0  0  0  0  0  0  0  0  0  0
   57.1040   30.4250   42.6450 N   0  0  0  0  0  0  0  0  0  0  0  0
   56.3580   30.5760   43.9060 C   0  0  0  0  0  0  0  0  0  0  0  0
   56.5560   29.3510   44.8100 C   0  0  0  0  0  0  0  0  0  0  0  0
   57.9710   28.7670   44.7440 C   0  0  0  0  0  0  0  0  0  0  0  0
   58.9180   29.8090   44.8570 O   0  0  0  0  0  0  0  0  0  0  0  0
   60.1870   29.2740   45.1680 C   0  0  0  0  0  0  0  0  0  0  0  0
   60.2220   28.8790   46.6430 C   0  0  0  0  0  0  0  0  0  0  0  0
   59.1550   29.5020   47.3370 O   0  0  0  0  0  0  0  0  0  0  0  0
   59.3690   29.4580   48.7350 C   0  0  0  0  0  0  0  0  0  0  0  0
   59.3670   30.8770   49.2880 C   0  0  0  0  0  0  0  0  0  0  0  0
   58.6170   30.9130   50.4820 O   0  0  0  0  0  0  0  0  0  0  0  0
   58.0080   32.1790   50.6190 C   0  0  0  0  0  0  0  0  0  0  0  0
   58.8980   33.0850   51.4660 C   0  0  0  0  0  0  0  0  0  0  0  0
   59.4600   34.1690   50.6580 N   0  0  0  0  0  0  0  0  0  0  0  0
   60.4930   33.9290   49.6850 C   0  0  0  0  0  0  0  0  0  0  0  0
   61.8200   33.7180   50.1010 C   0  0  0  0  0  0  0  0  0  0  0  0
   62.1540   33.6770   51.4720 C   0  0  0  0  0  0  0  0  0  0  0  0
   63.4610   33.4250   51.8800 C   0  0  0  0  0  0  0  0  0  0  0  0
   64.4530   33.1960   50.9330 C   0  0  0  0  0  0  0  0  0  0  0  0
   64.1530   33.2570   49.5730 C   0  0  0  0  0  0  0  0  0  0  0  0
   62.8410   33.5580   49.1250 C   0  0  0  0  0  0  0  0  0  0  0  0
   62.5420   33.6880   47.7810 N   0  0  0  0  0  0  0  0  0  0  0  0
   63.6350   33.8320   46.7940 C   0  0  0  0  0  0  0  0  0  0  0  0
   61.2240   33.7070   47.3650 C   0  0  0  0  0  0  0  0  0  0  0  0
   60.8710   33.5530   46.0000 C   0  0  0  0  0  0  0  0  0  0  0  0
   59.5400   33.6020   45.5890 C   0  0  0  0  0  0  0  0  0  0  0  0
   58.5180   33.7900   46.5200 C   0  0  0  0  0  0  0  0  0  0  0  0
   57.0850   33.8020   46.0740 C   0  0  0  0  0  0  0  0  0  0  0  0
   58.8350   33.8810   47.8790 C   0  0  0  0  0  0  0  0  0  0  0  0
   60.1780   33.8520   48.3160 C   0  0  0  0  0  0  0  0  0  0  0  0
   57.8944   32.3545   44.0144 H   0  0  0  0  0  0  0  0  0  0  0  0
   59.2115   32.5341   42.8063 H   0  0  0  0  0  0  0  0  0  0  0  0
   57.8301   33.6823   42.8063 H   0  0  0  0  0  0  0  0  0  0  0  0
   56.4175   32.2001   41.7437 H   0  0  0  0  0  0  0  0  0  0  0  0
   57.9860   31.5673   41.1172 H   0  0  0  0  0  0  0  0  0  0  0  0
   58.0310   29.9980   42.8810 H   0  0  0  0  0  0  0  0  0  0  0  0
   56.7170   31.4732   44.4316 H   0  0  0  0  0  0  0  0  0  0  0  0
   55.2874   30.6704   43.6717 H   0  0  0  0  0  0  0  0  0  0  0  0
   56.3495   29.6476   45.8489 H   0  0  0  0  0  0  0  0  0  0  0  0
   55.8664   28.5710   44.4548 H   0  0  0  0  0  0  0  0  0  0  0  0
   58.1116   28.0532   45.5690 H   0  0  0  0  0  0  0  0  0  0  0  0
   58.1089   28.2498   43.7830 H   0  0  0  0  0  0  0  0  0  0  0  0
   60.3739   28.3865   44.5456 H   0  0  0  0  0  0  0  0  0  0  0  0
   60.9628   30.0284   44.9706 H   0  0  0  0  0  0  0  0  0  0  0  0
   60.1247   27.7868   46.7300 H   0  0  0  0  0  0  0  0  0  0  0  0
   61.1769   29.2046   47.0815 H   0  0  0  0  0  0  0  0  0  0  0  0
   58.5662   28.8764   49.2117 H   0  0  0  0  0  0  0  0  0  0  0  0
   60.3378   28.9813   48.9452 H   0  0  0  0  0  0  0  0  0  0  0  0
   60.4006   31.1921   49.4941 H   0  0  0  0  0  0  0  0  0  0  0  0
   58.9172   31.5582   48.5507 H   0  0  0  0  0  0  0  0  0  0  0  0
   57.8689   32.6281   49.6245 H   0  0  0  0  0  0  0  0  0  0  0  0
   57.0306   32.0635   51.1102 H   0  0  0  0  0  0  0  0  0  0  0  0
   58.2997   33.5169   52.2818 H   0  0  0  0  0  0  0  0  0  0  0  0
   59.7252   32.4845   51.8724 H   0  0  0  0  0  0  0  0  0  0  0  0
   58.9750   35.0950   50.6630 H   0  0  0  0  0  0  0  0  0  0  0  0
   61.3721   33.8462   52.2270 H   0  0  0  0  0  0  0  0  0  0  0  0
   63.7089   33.4071   52.9516 H   0  0  0  0  0  0  0  0  0  0  0  0
   65.4783   32.9658   51.2582 H   0  0  0  0  0  0  0  0  0  0  0  0
   64.9467   33.0686   48.8350 H   0  0  0  0  0  0  0  0  0  0  0  0
   64.5917   33.9580   47.3221 H   0  0  0  0  0  0  0  0  0  0  0  0
   63.6802   32.9321   46.1631 H   0  0  0  0  0  0  0  0  0  0  0  0
   63.4456   34.7130   46.1631 H   0  0  0  0  0  0  0  0  0  0  0  0
   61.6617   33.3920   45.2524 H   0  0  0  0  0  0  0  0  0  0  0  0
   59.2935   33.4916   44.5227 H   0  0  0  0  0  0  0  0  0  0  0  0
   56.4267   33.8075   46.9553 H   0  0  0  0  0  0  0  0  0  0  0  0
   56.8965   34.7018   45.4699 H   0  0  0  0  0  0  0  0  0  0  0  0
   56.8815   32.9055   45.4699 H   0  0  0  0  0  0  0  0  0  0  0  0
   58.0265   33.9766   48.6187 H   0  0  0  0  0  0  0  0  0  0  0  0
  1  2  1  0
  2  3  1  0
  3  4  1  0
  4  5  1  0
  5  6  1  0
  6  7  1  0
  7  8  1  0
  8  9  1  0
  9 10  1  0
 10 11  1  0
 11 12  1  0
 12 13  1  0
 13 14  1  0
 14 15  1  0
 15 16  1  0
 16 17  1  0
 17 18  2  0
 18 19  1  0
 19 20  2  0
 20 21  1  0
 21 22  2  0
 22 23  1  0
 23 24  2  0
 24 25  1  0
 24 26  1  0
 26 27  2  0
 27 28  1  0
 28 29  2  0
 29 30  1  0
 29 31  1  0
 31 32  2  0
 32 17  1  0
 23 18  1  0
 32 26  1  0
  1 33  1  0
  1 34  1  0
  1 35  1  0
  2 36  1  0
  2 37  1  0
  3 38  1  0
  4 39  1  0
  4 40  1  0
  5 41  1  0
  5 42  1  0
  6 43  1  0
  6 44  1  0
  8 45  1  0
  8 46  1  0
  9 47  1  0
  9 48  1  0
 11 49  1  0
 11 50  1  0
 12 51  1  0
 12 52  1  0
 14 53  1  0
 14 54  1  0
 15 55  1  0
 15 56  1  0
 16 57  1  0
 19 58  1  0
 20 59  1  0
 21 60  1  0
 22 61  1  0
 25 62  1  0
 25 63  1  0
 25 64  1  0
 27 65  1  0
 28 66  1  0
 30 67  1  0
 30 68  1  0
 30 69  1  0
 31 70  1  0
M  CHG  1  24   1
M  END
>  <UniqueID>  (2) 
2

>  <SMILES>  (2) 
CCNCCCOCCOCCOCCNc1c2ccccc2[n+](C)c2ccc(C)cc12

>  <Energy>  (2) 
82.42773463023997

>  <Genealogy>  (2) 
CCNCCCOCCOCCOCCNc1c2ccccc2[n+](C)c2ccc(C)cc12 (3D coordinates assigned)
CCNCCCOCCOCCOCCNc1c2ccccc2[n+](C)c2ccc(C)cc12 (optimized conformer: 82.42773463023997 kcal/mol)

>  <smiles>  (2) 
CCNCCCOCCOCCOCCNc1c2ccccc2[n+](C)c2ccc(C)cc12

>  <score_type>  (2) 
oracle

>  <origin>  (2) 
adg

>  <m_score__min__energy>  (2) 
-6.0099999999999998

>  <m_primary>  (2) 
energy

$$$$
2:0
     RDKit          3D

 44 46  0  0  0  0  0  0  0  0999 V2000
   56.9930   30.8220   42.9380 C   0  0  0  0  0  0  0  0  0  0  0  0
   55.8520   30.0850   43.6210 C   0  0  0  0  0  0  0  0  0  0  0  0
   56.2390   29.7300   44.9460 O   0  0  0  0  0  0  0  0  0  0  0  0
   57.5340   29.3390   45.3180 C   0  0  0  0  0  0  0  0  0  0  0  0
   57.9370   28.0310   45.0320 C   0  0  0  0  0  0  0  0  0  0  0  0
   59.2170   27.5930   45.3760 C   0  0  0  0  0  0  0  0  0  0  0  0
   60.1080   28.4600   46.0130 C   0  0  0  0  0  0  0  0  0  0  0  0
   59.7260   29.7780   46.3160 C   0  0  0  0  0  0  0  0  0  0  0  0
   60.6900   30.6790   46.9900 C   0  0  0  0  0  0  0  0  0  0  0  0
   60.3730   31.6000   47.9260 N   0  0  0  0  0  0  0  0  0  0  0  0
   61.5460   32.1720   48.2460 C   0  0  0  0  0  0  0  0  0  0  0  0
   61.7080   33.2950   49.2240 C   0  0  0  0  0  0  0  0  0  0  0  0
   61.1430   34.5410   48.6870 N   0  0  0  0  0  0  0  0  0  0  0  0
   59.6690   34.5460   48.6710 C   0  0  0  0  0  0  0  0  0  0  0  0
   59.1080   34.3060   47.2880 C   0  0  0  0  0  0  0  0  0  0  0  0
   57.9090   33.5930   47.1200 C   0  0  0  0  0  0  0  0  0  0  0  0
   57.3870   33.3860   45.8400 C   0  0  0  0  0  0  0  0  0  0  0  0
   58.0570   33.8860   44.7200 C   0  0  0  0  0  0  0  0  0  0  0  0
   59.2510   34.5940   44.8790 C   0  0  0  0  0  0  0  0  0  0  0  0
   59.7760   34.8040   46.1570 C   0  0  0  0  0  0  0  0  0  0  0  0
   62.5430   31.5890   47.4960 C   0  0  0  0  0  0  0  0  0  0  0  0
   61.9840   30.6730   46.7370 O   0  0  0  0  0  0  0  0  0  0  0  0
   58.4340   30.2130   45.9610 C   0  0  0  0  0  0  0  0  0  0  0  0
   57.6595   31.2525   43.6998 H   0  0  0  0  0  0  0  0  0  0  0  0
   57.5598   30.1189   42.3100 H   0  0  0  0  0  0  0  0  0  0  0  0
   56.5852   31.6278   42.3100 H   0  0  0  0  0  0  0  0  0  0  0  0
   54.9665   30.7364   43.6601 H   0  0  0  0  0  0  0  0  0  0  0  0
   55.6131   29.1737   43.0531 H   0  0  0  0  0  0  0  0  0  0  0  0
   57.2402   27.3420   44.5322 H   0  0  0  0  0  0  0  0  0  0  0  0
   59.5248   26.5625   45.1449 H   0  0  0  0  0  0  0  0  0  0  0  0
   61.1158   28.1086   46.2793 H   0  0  0  0  0  0  0  0  0  0  0  0
   59.4380   31.8290   48.3300 H   0  0  0  0  0  0  0  0  0  0  0  0
   61.1885   33.0369   50.1586 H   0  0  0  0  0  0  0  0  0  0  0  0
   62.7812   33.4468   49.4116 H   0  0  0  0  0  0  0  0  0  0  0  0
   61.4820   35.3400   49.2740 H   0  0  0  0  0  0  0  0  0  0  0  0
   59.3055   33.7539   49.3422 H   0  0  0  0  0  0  0  0  0  0  0  0
   59.3329   35.5397   49.0020 H   0  0  0  0  0  0  0  0  0  0  0  0
   57.3794   33.1964   47.9987 H   0  0  0  0  0  0  0  0  0  0  0  0
   56.4471   32.8285   45.7139 H   0  0  0  0  0  0  0  0  0  0  0  0
   57.6444   33.7222   43.7136 H   0  0  0  0  0  0  0  0  0  0  0  0
   59.7784   34.9866   43.9971 H   0  0  0  0  0  0  0  0  0  0  0  0
   60.7164   35.3617   46.2778 H   0  0  0  0  0  0  0  0  0  0  0  0
   63.6127   31.8436   47.5266 H   0  0  0  0  0  0  0  0  0  0  0  0
   58.1246   31.2440   46.1876 H   0  0  0  0  0  0  0  0  0  0  0  0
  1  2  1  0
  2  3  1  0
  3  4  1  0
  4  5  2  0
  5  6  1  0
  6  7  2  0
  7  8  1  0
  8  9  1  0
  9 10  2  0
 10 11  1  0
 11 12  1  0
 12 13  1  0
 13 14  1  0
 14 15  1  0
 15 16  2  0
 16 17  1  0
 17 18  2  0
 18 19  1  0
 19 20  2  0
 11 21  2  0
 21 22  1  0
  8 23  2  0
 23  4  1  0
 22  9  1  0
 20 15  1  0
  1 24  1  0
  1 25  1  0
  1 26  1  0
  2 27  1  0
  2 28  1  0
  5 29  1  0
  6 30  1  0
  7 31  1  0
 10 32  1  0
 12 33  1  0
 12 34  1  0
 13 35  1  0
 14 36  1  0
 14 37  1  0
 16 38  1  0
 17 39  1  0
 18 40  1  0
 19 41  1  0
 20 42  1  0
 21 43  1  0
 23 44  1  0
M  CHG  1  10   1
M  END
>  <UniqueID>  (3) 
3

>  <SMILES>  (3) 
CCOc1cccc(-c2[nH+]c(CNCc3ccccc3)co2)c1

>  <Energy>  (3) 
73.41169129383098

>  <Genealogy>  (3) 
CCOc1cccc(-c2[nH+]c(CNCc3ccccc3)co2)c1 (protonated)
CCOc1cccc(-c2[nH+]c(CNCc3ccccc3)co2)c1 (3D coordinates assigned)
CCOc1cccc(-c2[nH+]c(CNCc3ccccc3)co2)c1 (optimized conformer: 73.41169129383098 kcal/mol)

>  <smiles>  (3) 
CCOc1cccc(-c2nc(CNCc3ccccc3)co2)c1

>  <score_type>  (3) 
oracle

>  <origin>  (3) 
adg

>  <m_score__min__energy>  (3) 
-6.0499999999999998

>  <m_primary>  (3) 
energy

$$$$
3:0
     RDKit          3D

 67 69  0  0  0  0  0  0  0  0999 V2000
   64.7930   31.5510   50.9020 C   0  0  0  0  0  0  0  0  0  0  0  0
   63.3340   31.1480   51.0490 C   0  0  0  0  0  0  0  0  0  0  0  0
   62.6510   32.1430   51.7840 O   0  0  0  0  0  0  0  0  0  0  0  0
   61.3200   32.0930   51.4600 N   0  0  0  0  0  0  0  0  0  0  0  0
   60.6720   33.2890   52.0100 C   0  0  0  0  0  0  0  0  0  0  0  0
   59.1460   33.1240   52.0800 C   0  0  0  0  0  0  0  0  0  0  0  0
   58.7720   31.8150   51.6930 O   0  0  0  0  0  0  0  0  0  0  0  0
   58.3110   31.7870   50.3530 C   0  0  0  0  0  0  0  0  0  0  0  0
   58.8830   30.5720   49.6180 C   0  0  0  0  0  0  0  0  0  0  0  0
   60.1360   30.2090   50.1690 O   0  0  0  0  0  0  0  0  0  0  0  0
   60.8800   29.4040   49.2750 C   0  0  0  0  0  0  0  0  0  0  0  0
   59.9770   28.8720   48.1600 C   0  0  0  0  0  0  0  0  0  0  0  0
   60.3220   29.4990   46.8880 N   0  0  0  0  0  0  0  0  0  0  0  0
   59.5500   30.6040   46.3880 C   0  0  0  0  0  0  0  0  0  0  0  0
   58.4510   30.3740   45.5420 C   0  0  0  0  0  0  0  0  0  0  0  0
   58.0880   29.0620   45.1670 C   0  0  0  0  0  0  0  0  0  0  0  0
   57.0300   28.8390   44.2890 C   0  0  0  0  0  0  0  0  0  0  0  0
   56.3240   29.9150   43.7630 C   0  0  0  0  0  0  0  0  0  0  0  0
   56.6490   31.2190   44.1390 C   0  0  0  0  0  0  0  0  0  0  0  0
   57.6900   31.4760   45.0690 C   0  0  0  0  0  0  0  0  0  0  0  0
   57.9770   32.7570   45.5050 N   0  0  0  0  0  0  0  0  0  0  0  0
   57.0220   33.8570   45.2440 C   0  0  0  0  0  0  0  0  0  0  0  0
   59.1420   33.0040   46.2080 C   0  0  0  0  0  0  0  0  0  0  0  0
   59.6030   34.3220   46.4500 C   0  0  0  0  0  0  0  0  0  0  0  0
   60.7550   34.5610   47.2000 C   0  0  0  0  0  0  0  0  0  0  0  0
   61.5040   33.5000   47.7220 C   0  0  0  0  0  0  0  0  0  0  0  0
   62.6950   33.7480   48.5080 N   0  0  0  0  0  0  0  0  0  0  0  0
   62.6270   34.5750   49.7210 C   0  0  0  0  0  0  0  0  0  0  0  0
   63.9880   33.1910   48.0940 C   0  0  0  0  0  0  0  0  0  0  0  0
   61.0890   32.1880   47.4460 C   0  0  0  0  0  0  0  0  0  0  0  0
   59.9260   31.9260   46.6910 C   0  0  0  0  0  0  0  0  0  0  0  0
   65.2414   31.6749   51.8988 H   0  0  0  0  0  0  0  0  0  0  0  0
   65.3356   30.7691   50.3504 H   0  0  0  0  0  0  0  0  0  0  0  0
   64.8573   32.5005   50.3504 H   0  0  0  0  0  0  0  0  0  0  0  0
   62.8776   31.0473   50.0532 H   0  0  0  0  0  0  0  0  0  0  0  0
   63.2669   30.1855   51.5774 H   0  0  0  0  0  0  0  0  0  0  0  0
   61.1860   32.0770   50.4200 H   0  0  0  0  0  0  0  0  0  0  0  0
   60.8740   31.2540   51.9040 H   0  0  0  0  0  0  0  0  0  0  0  0
   61.0584   33.4700   53.0239 H   0  0  0  0  0  0  0  0  0  0  0  0
   60.8962   34.1375   51.3468 H   0  0  0  0  0  0  0  0  0  0  0  0
   58.8087   33.3073   53.1109 H   0  0  0  0  0  0  0  0  0  0  0  0
   58.6777   33.8457   51.3946 H   0  0  0  0  0  0  0  0  0  0  0  0
   57.2125   31.7294   50.3486 H   0  0  0  0  0  0  0  0  0  0  0  0
   58.6431   32.7026   49.8418 H   0  0  0  0  0  0  0  0  0  0  0  0
   58.1853   29.7273   49.7157 H   0  0  0  0  0  0  0  0  0  0  0  0
   59.0194   30.8275   48.5568 H   0  0  0  0  0  0  0  0  0  0  0  0
   61.6875   30.0053   48.8318 H   0  0  0  0  0  0  0  0  0  0  0  0
   61.3033   28.5529   49.8285 H   0  0  0  0  0  0  0  0  0  0  0  0
   60.1077   27.7831   48.0753 H   0  0  0  0  0  0  0  0  0  0  0  0
   58.9304   29.1074   48.4034 H   0  0  0  0  0  0  0  0  0  0  0  0
   60.9090   28.9600   46.2130 H   0  0  0  0  0  0  0  0  0  0  0  0
   58.6472   28.2062   45.5729 H   0  0  0  0  0  0  0  0  0  0  0  0
   56.7529   27.8112   44.0117 H   0  0  0  0  0  0  0  0  0  0  0  0
   55.5068   29.7379   43.0483 H   0  0  0  0  0  0  0  0  0  0  0  0
   56.0891   32.0618   43.7074 H   0  0  0  0  0  0  0  0  0  0  0  0
   56.6655   34.2676   46.2002 H   0  0  0  0  0  0  0  0  0  0  0  0
   57.5235   34.6493   44.6689 H   0  0  0  0  0  0  0  0  0  0  0  0
   56.1671   33.4717   44.6689 H   0  0  0  0  0  0  0  0  0  0  0  0
   59.0414   35.1736   46.0384 H   0  0  0  0  0  0  0  0  0  0  0  0
   61.0787   35.5962   47.3834 H   0  0  0  0  0  0  0  0  0  0  0  0
   62.6802   33.9282   50.6092 H   0  0  0  0  0  0  0  0  0  0  0  0
   63.4701   35.2815   49.7309 H   0  0  0  0  0  0  0  0  0  0  0  0
   61.6798   35.1343   49.7309 H   0  0  0  0  0  0  0  0  0  0  0  0
   64.5798   32.9361   48.9855 H   0  0  0  0  0  0  0  0  0  0  0  0
   63.8214   32.2848   47.4931 H   0  0  0  0  0  0  0  0  0  0  0  0
   64.5321   33.9346   47.4931 H   0  0  0  0  0  0  0  0  0  0  0  0
   61.6839   31.3447   47.8269 H   0  0  0  0  0  0  0  0  0  0  0  0
  1  2  1  0
  2  3  1  0
  3  4  1  0
  4  5  1  0
  5  6  1  0
  6  7  1  0
  7  8  1  0
  8  9  1  0
  9 10  1  0
 10 11  1  0
 11 12  1  0
 12 13  1  0
 13 14  1  0
 14 15  2  0
 15 16  1  0
 16 17  2  0
 17 18  1  0
 18 19  2  0
 19 20  1  0
 20 21  2  0
 21 22  1  0
 21 23  1  0
 23 24  2  0
 24 25  1  0
 25 26  2  0
 26 27  1  0
 27 28  1  0
 27 29  1  0
 26 30  1  0
 30 31  2  0
 31 14  1  0
 20 15  1  0
 31 23  1  0
  1 32  1  0
  1 33  1  0
  1 34  1  0
  2 35  1  0
  2 36  1  0
  4 37  1  0
  4 38  1  0
  5 39  1  0
  5 40  1  0
  6 41  1  0
  6 42  1  0
  8 43  1  0
  8 44  1  0
  9 45  1  0
  9 46  1  0
 11 47  1  0
 11 48  1  0
 12 49  1  0
 12 50  1  0
 13 51  1  0
 16 52  1  0
 17 53  1  0
 18 54  1  0
 19 55  1  0
 22 56  1  0
 22 57  1  0
 22 58  1  0
 24 59  1  0
 25 60  1  0
 28 61  1  0
 28 62  1  0
 28 63  1  0
 29 64  1  0
 29 65  1  0
 29 66  1  0
 30 67  1  0
M  CHG  2   4   1  21   1
M  END
>  <UniqueID>  (4) 
4

>  <SMILES>  (4) 
CCO[NH2+]CCOCCOCCNc1c2ccccc2[n+](C)c2ccc(N(C)C)cc12

>  <Energy>  (4) 
93.71478896931067

>  <Genealogy>  (4) 
CCO[NH2+]CCOCCOCCNc1c2ccccc2[n+](C)c2ccc(N(C)C)cc12 (protonated)
CCO[NH2+]CCOCCOCCNc1c2ccccc2[n+](C)c2ccc(N(C)C)cc12 (3D coordinates assigned)
CCO[NH2+]CCOCCOCCNc1c2ccccc2[n+](C)c2ccc(N(C)C)cc12 (optimized conformer: 93.71478896931067 kcal/mol)

>  <smiles>  (4) 
CCONCCOCCOCCNc1c2ccccc2[n+](C)c2ccc(N(C)C)cc12

>  <score_type>  (4) 
oracle

>  <origin>  (4) 
adg

>  <m_score__min__energy>  (4) 
-4.5199999999999996

>  <m_primary>  (4) 
energy

$$$$
4:0
     RDKit          3D

 58 60  0  0  0  0  0  0  0  0999 V2000
   56.9610   30.8410   42.9720 C   0  0  0  0  0  0  0  0  0  0  0  0
   56.0190   30.1550   43.9700 C   0  0  0  0  0  0  0  0  0  0  0  0
   56.6430   29.9570   45.2910 N   0  0  0  0  0  0  0  0  0  0  0  0
   57.6560   28.8920   45.2890 C   0  0  0  0  0  0  0  0  0  0  0  0
   58.7460   29.1720   46.3300 C   0  0  0  0  0  0  0  0  0  0  0  0
   58.4000   30.3410   47.1370 N   0  0  0  0  0  0  0  0  0  0  0  0
   59.3510   31.3990   47.2980 C   0  0  0  0  0  0  0  0  0  0  0  0
   59.2110   32.5560   46.5150 C   0  0  0  0  0  0  0  0  0  0  0  0
   58.0160   32.8100   45.8070 C   0  0  0  0  0  0  0  0  0  0  0  0
   57.8580   33.9860   45.0770 C   0  0  0  0  0  0  0  0  0  0  0  0
   58.8820   34.9280   45.0460 C   0  0  0  0  0  0  0  0  0  0  0  0
   60.0820   34.6770   45.7130 C   0  0  0  0  0  0  0  0  0  0  0  0
   60.2830   33.4700   46.4270 C   0  0  0  0  0  0  0  0  0  0  0  0
   61.4930   33.1630   47.0080 N   0  0  0  0  0  0  0  0  0  0  0  0
   62.7080   33.9020   46.6010 C   0  0  0  0  0  0  0  0  0  0  0  0
   61.5680   32.1640   47.9610 C   0  0  0  0  0  0  0  0  0  0  0  0
   62.7180   32.0270   48.7740 C   0  0  0  0  0  0  0  0  0  0  0  0
   62.8010   31.0400   49.7430 C   0  0  0  0  0  0  0  0  0  0  0  0
   61.7270   30.2020   49.9780 C   0  0  0  0  0  0  0  0  0  0  0  0
   60.5390   30.3070   49.2350 C   0  0  0  0  0  0  0  0  0  0  0  0
   59.3900   29.5660   49.7270 N   0  0  0  0  0  0  0  0  0  0  0  0
   58.8920   30.1670   50.9780 C   0  0  0  0  0  0  0  0  0  0  0  0
   58.0560   31.4520   50.7570 C   0  0  0  0  0  0  0  0  0  0  0  0
   56.8460   31.5380   51.6960 C   0  0  0  0  0  0  0  0  0  0  0  0
   58.9110   32.7240   50.8490 C   0  0  0  0  0  0  0  0  0  0  0  0
   60.4700   31.2660   48.1630 C   0  0  0  0  0  0  0  0  0  0  0  0
   57.7314   31.4021   43.5212 H   0  0  0  0  0  0  0  0  0  0  0  0
   57.4422   30.0804   42.3396 H   0  0  0  0  0  0  0  0  0  0  0  0
   56.3847   31.5324   42.3396 H   0  0  0  0  0  0  0  0  0  0  0  0
   55.1214   30.7787   44.0938 H   0  0  0  0  0  0  0  0  0  0  0  0
   55.7695   29.1627   43.5662 H   0  0  0  0  0  0  0  0  0  0  0  0
   55.8990   29.7000   45.9800 H   0  0  0  0  0  0  0  0  0  0  0  0
   57.1710   27.9332   45.5243 H   0  0  0  0  0  0  0  0  0  0  0  0
   58.1225   28.8524   44.2936 H   0  0  0  0  0  0  0  0  0  0  0  0
   58.8506   28.2968   46.9881 H   0  0  0  0  0  0  0  0  0  0  0  0
   59.6930   29.3705   45.8067 H   0  0  0  0  0  0  0  0  0  0  0  0
   57.4050   30.5120   47.4150 H   0  0  0  0  0  0  0  0  0  0  0  0
   57.2012   32.0715   45.8321 H   0  0  0  0  0  0  0  0  0  0  0  0
   56.9243   34.1699   44.5253 H   0  0  0  0  0  0  0  0  0  0  0  0
   58.7455   35.8706   44.4957 H   0  0  0  0  0  0  0  0  0  0  0  0
   60.8847   35.4285   45.6838 H   0  0  0  0  0  0  0  0  0  0  0  0
   63.2530   34.2335   47.4972 H   0  0  0  0  0  0  0  0  0  0  0  0
   63.3540   33.2437   46.0016 H   0  0  0  0  0  0  0  0  0  0  0  0
   62.4206   34.7784   46.0016 H   0  0  0  0  0  0  0  0  0  0  0  0
   63.5627   32.7176   48.6340 H   0  0  0  0  0  0  0  0  0  0  0  0
   63.7253   30.9228   50.3277 H   0  0  0  0  0  0  0  0  0  0  0  0
   61.8041   29.4362   50.7639 H   0  0  0  0  0  0  0  0  0  0  0  0
   58.6440   29.4990   49.0070 H   0  0  0  0  0  0  0  0  0  0  0  0
   59.6660   28.5750   49.9190 H   0  0  0  0  0  0  0  0  0  0  0  0
   58.2625   29.4266   51.4933 H   0  0  0  0  0  0  0  0  0  0  0  0
   59.7725   30.4525   51.5723 H   0  0  0  0  0  0  0  0  0  0  0  0
   57.6680   31.3828   49.7300 H   0  0  0  0  0  0  0  0  0  0  0  0
   57.1900   31.5135   52.7405 H   0  0  0  0  0  0  0  0  0  0  0  0
   56.3038   32.4769   51.5104 H   0  0  0  0  0  0  0  0  0  0  0  0
   56.1765   30.6852   51.5104 H   0  0  0  0  0  0  0  0  0  0  0  0
   59.0805   32.9762   51.9062 H   0  0  0  0  0  0  0  0  0  0  0  0
   59.8779   32.5525   50.3534 H   0  0  0  0  0  0  0  0  0  0  0  0
   58.3871   33.5546   50.3534 H   0  0  0  0  0  0  0  0  0  0  0  0
  1  2  1  0
  2  3  1  0
  3  4  1  0
  4  5  1  0
  5  6  1  0
  6  7  1  0
  7  8  2  0
  8  9  1  0
  9 10  2  0
 10 11  1  0
 11 12  2  0
 12 13  1  0
 13 14  2  0
 14 15  1  0
 14 16  1  0
 16 17  2  0
 17 18  1  0
 18 19  2  0
 19 20  1  0
 20 21  1  0
 21 22  1  0
 22 23  1  0
 23 24  1  0
 23 25  1  0
 20 26  2  0
 26  7  1  0
 13  8  1  0
 26 16  1  0
  1 27  1  0
  1 28  1  0
  1 29  1  0
  2 30  1  0
  2 31  1  0
  3 32  1  0
  4 33  1  0
  4 34  1  0
  5 35  1  0
  5 36  1  0
  6 37  1  0
  9 38  1  0
 10 39  1  0
 11 40  1  0
 12 41  1  0
 15 42  1  0
 15 43  1  0
 15 44  1  0
 17 45  1  0
 18 46  1  0
 19 47  1  0
 21 48  1  0
 21 49  1  0
 22 50  1  0
 22 51  1  0
 23 52  1  0
 24 53  1  0
 24 54  1  0
 24 55  1  0
 25 56  1  0
 25 57  1  0
 25 58  1  0
M  CHG  2  14   1  21   1
M  END
>  <UniqueID>  (5) 
5

>  <SMILES>  (5) 
CCNCCNc1c2ccccc2[n+](C)c2cccc([NH2+]CC(C)C)c12

>  <Energy>  (5) 
90.10044191068737

>  <Genealogy>  (5) 
CCNCCNc1c2ccccc2[n+](C)c2cccc([NH2+]CC(C)C)c12 (protonated)
CCNCCNc1c2ccccc2[n+](C)c2cccc([NH2+]CC(C)C)c12 (3D coordinates assigned)
CCNCCNc1c2ccccc2[n+](C)c2cccc([NH2+]CC(C)C)c12 (optimized conformer: 90.10044191068737 kcal/mol)

>  <smiles>  (5) 
CCNCCNc1c2ccccc2[n+](C)c2cccc(NCC(C)C)c12

>  <score_type>  (5) 
oracle

>  <origin>  (5) 
adg

>  <m_score__min__energy>  (5) 
-4.4800000000000004

>  <m_primary>  (5) 
energy

$$$$
5:0
     RDKit          3D

 57 60  0  0  0  0  0  0  0  0999 V2000
   66.1360   32.7400   49.8380 C   0  0  0  0  0  0  0  0  0  0  0  0
   64.8580   31.9550   50.1830 C   0  0  0  0  0  0  0  0  0  0  0  0
   63.6100   32.4200   49.5030 N   0  0  2  0  0  0  0  0  0  0  0  0
   62.6010   31.3320   49.3900 C   0  0  0  0  0  0  0  0  0  0  0  0
   61.2910   31.8700   48.7560 C   0  0  0  0  0  0  0  0  0  0  0  0
   61.4260   33.3140   48.4100 N   0  0  2  0  0  0  0  0  0  0  0  0
   60.1520   33.8760   47.8520 C   0  0  0  0  0  0  0  0  0  0  0  0
   60.0510   34.0350   46.3110 C   0  0  0  0  0  0  0  0  0  0  0  0
   59.0730   33.0990   45.6490 C   0  0  0  0  0  0  0  0  0  0  0  0
   58.3660   33.5070   44.5090 C   0  0  0  0  0  0  0  0  0  0  0  0
   57.4890   32.6290   43.8720 C   0  0  0  0  0  0  0  0  0  0  0  0
   57.2940   31.3330   44.3710 C   0  0  0  0  0  0  0  0  0  0  0  0
   57.9960   30.9120   45.5220 C   0  0  0  0  0  0  0  0  0  0  0  0
   58.8640   31.8110   46.1650 C   0  0  0  0  0  0  0  0  0  0  0  0
   57.8070   29.5170   46.0890 C   0  0  0  0  0  0  0  0  0  0  0  0
   58.2560   28.3460   45.1700 C   0  0  0  0  0  0  0  0  0  0  0  0
   57.3390   28.0530   44.0510 N   0  0  0  0  0  0  0  0  0  0  0  0
   57.2080   29.1690   43.0900 C   0  0  0  0  0  0  0  0  0  0  0  0
   56.4070   30.3670   43.6310 C   0  0  0  0  0  0  0  0  0  0  0  0
   62.5830   33.4890   47.4890 C   0  0  0  0  0  0  0  0  0  0  0  0
   63.8890   32.9690   48.1470 C   0  0  0  0  0  0  0  0  0  0  0  0
   61.7300   34.0500   49.6710 C   0  0  0  0  0  0  0  0  0  0  0  0
   63.0200   33.5100   50.3280 C   0  0  0  0  0  0  0  0  0  0  0  0
   66.6386   33.0487   50.7665 H   0  0  0  0  0  0  0  0  0  0  0  0
   66.8115   32.1009   49.2505 H   0  0  0  0  0  0  0  0  0  0  0  0
   65.8714   33.6315   49.2505 H   0  0  0  0  0  0  0  0  0  0  0  0
   65.0221   30.9031   49.9064 H   0  0  0  0  0  0  0  0  0  0  0  0
   64.6903   32.1114   51.2588 H   0  0  0  0  0  0  0  0  0  0  0  0
   63.0053   30.5275   48.7581 H   0  0  0  0  0  0  0  0  0  0  0  0
   62.3778   30.9477   50.3962 H   0  0  0  0  0  0  0  0  0  0  0  0
   61.0714   31.2989   47.8419 H   0  0  0  0  0  0  0  0  0  0  0  0
   60.4738   31.7560   49.4835 H   0  0  0  0  0  0  0  0  0  0  0  0
   59.3333   33.2132   48.1689 H   0  0  0  0  0  0  0  0  0  0  0  0
   60.1051   34.9033   48.2426 H   0  0  0  0  0  0  0  0  0  0  0  0
   59.7408   35.0673   46.0917 H   0  0  0  0  0  0  0  0  0  0  0  0
   61.0434   33.7887   45.9054 H   0  0  0  0  0  0  0  0  0  0  0  0
   58.5036   34.5247   44.1149 H   0  0  0  0  0  0  0  0  0  0  0  0
   56.9468   32.9554   42.9723 H   0  0  0  0  0  0  0  0  0  0  0  0
   59.3853   31.5015   47.0829 H   0  0  0  0  0  0  0  0  0  0  0  0
   58.3828   29.4520   47.0240 H   0  0  0  0  0  0  0  0  0  0  0  0
   56.7221   29.3932   46.2218 H   0  0  0  0  0  0  0  0  0  0  0  0
   59.2403   28.5990   44.7490 H   0  0  0  0  0  0  0  0  0  0  0  0
   58.2735   27.4452   45.8011 H   0  0  0  0  0  0  0  0  0  0  0  0
   56.3890   27.8800   44.4540 H   0  0  0  0  0  0  0  0  0  0  0  0
   57.6130   27.1690   43.5620 H   0  0  0  0  0  0  0  0  0  0  0  0
   58.2169   29.5182   42.8250 H   0  0  0  0  0  0  0  0  0  0  0  0
   56.6544   28.7802   42.2226 H   0  0  0  0  0  0  0  0  0  0  0  0
   55.9331   30.8906   42.7877 H   0  0  0  0  0  0  0  0  0  0  0  0
   55.6485   29.9878   44.3316 H   0  0  0  0  0  0  0  0  0  0  0  0
   62.3960   32.9260   46.5627 H   0  0  0  0  0  0  0  0  0  0  0  0
   62.7002   34.5599   47.2666 H   0  0  0  0  0  0  0  0  0  0  0  0
   64.3201   32.1764   47.5177 H   0  0  0  0  0  0  0  0  0  0  0  0
   64.5961   33.8063   48.2419 H   0  0  0  0  0  0  0  0  0  0  0  0
   61.8625   35.1177   49.4417 H   0  0  0  0  0  0  0  0  0  0  0  0
   60.8934   33.9079   50.3710 H   0  0  0  0  0  0  0  0  0  0  0  0
   63.7489   34.3287   50.4205 H   0  0  0  0  0  0  0  0  0  0  0  0
   62.7714   33.1086   51.3215 H   0  0  0  0  0  0  0  0  0  0  0  0
  1  2  1  0
  3  2  1  1
  3  4  1  0
  4  5  1  0
  5  6  1  0
  6  7  1  6
  7  8  1  0
  8  9  1  0
  9 10  2  0
 10 11  1  0
 11 12  2  0
 12 13  1  0
 13 14  2  0
 13 15  1  0
 15 16  1  0
 16 17  1  0
 17 18  1  0
 18 19  1  0
  6 20  1  0
 20 21  1  0
  6 22  1  0
 22 23  1  0
 21  3  1  0
 23  3  1  0
 14  9  1  0
 19 12  1  0
  1 24  1  0
  1 25  1  0
  1 26  1  0
  2 27  1  0
  2 28  1  0
  4 29  1  0
  4 30  1  0
  5 31  1  0
  5 32  1  0
  7 33  1  0
  7 34  1  0
  8 35  1  0
  8 36  1  0
 10 37  1  0
 11 38  1  0
 14 39  1  0
 15 40  1  0
 15 41  1  0
 16 42  1  0
 16 43  1  0
 17 44  1  0
 17 45  1  0
 18 46  1  0
 18 47  1  0
 19 48  1  0
 19 49  1  0
 20 50  1  0
 20 51  1  0
 21 52  1  0
 21 53  1  0
 22 54  1  0
 22 55  1  0
 23 56  1  0
 23 57  1  0
M  CHG  3   3   1   6   1  17   1
M  END
>  <UniqueID>  (6) 
6

>  <SMILES>  (6) 
CC[N+]12CC[N+](CCc3ccc4c(c3)CC[NH2+]CC4)(CC1)CC2

>  <Energy>  (6) 
97.75505467439373

>  <Genealogy>  (6) 
CC[N+]12CC[N+](CCc3ccc4c(c3)CC[NH2+]CC4)(CC1)CC2 (protonated)
CC[N+]12CC[N+](CCc3ccc4c(c3)CC[NH2+]CC4)(CC1)CC2 (3D coordinates assigned)
CC[N+]12CC[N+](CCc3ccc4c(c3)CC[NH2+]CC4)(CC1)CC2 (nonaromatic ring conformer: 97.75505467439373 kcal/mol)

>  <smiles>  (6) 
CC[N+]12CC[N+](CCc3ccc4c(c3)CCNCC4)(CC1)CC2

>  <score_type>  (6) 
oracle

>  <origin>  (6) 
adg

>  <m_score__min__energy>  (6) 
-2.3199999999999998

>  <m_primary>  (6) 
energy

$$$$
6:0
     RDKit          3D

 65 67  0  0  0  0  0  0  0  0999 V2000
   59.6340   35.3640   45.7160 C   0  0  0  0  0  0  0  0  0  0  0  0
   60.0000   34.9580   47.1390 C   0  0  0  0  0  0  0  0  0  0  0  0
   60.7690   33.7030   47.1280 N   0  0  0  0  0  0  0  0  0  0  0  0
   62.0470   33.8560   46.4150 C   0  0  0  0  0  0  0  0  0  0  0  0
   63.2240   33.6460   47.3770 C   0  0  0  0  0  0  0  0  0  0  0  0
   63.3310   32.1800   47.8340 C   0  0  0  0  0  0  0  0  0  0  0  0
   62.1550   31.7450   48.5000 O   0  0  0  0  0  0  0  0  0  0  0  0
   62.2930   31.7930   49.9090 C   0  0  0  0  0  0  0  0  0  0  0  0
   61.2530   32.7110   50.5630 C   0  0  0  0  0  0  0  0  0  0  0  0
   60.2940   33.1050   49.5950 O   0  0  0  0  0  0  0  0  0  0  0  0
   59.0280   32.5180   49.8350 C   0  0  0  0  0  0  0  0  0  0  0  0
   58.6080   31.5820   48.6860 C   0  0  0  0  0  0  0  0  0  0  0  0
   59.7550   31.2130   47.8300 N   0  0  0  0  0  0  0  0  0  0  0  0
   59.3430   30.3080   46.7650 C   0  0  0  0  0  0  0  0  0  0  0  0
   58.7530   30.8540   45.5870 C   0  0  0  0  0  0  0  0  0  0  0  0
   58.7270   32.2530   45.3480 C   0  0  0  0  0  0  0  0  0  0  0  0
   58.0650   32.7890   44.2450 C   0  0  0  0  0  0  0  0  0  0  0  0
   57.4090   31.9510   43.3580 C   0  0  0  0  0  0  0  0  0  0  0  0
   57.4600   30.5730   43.5360 C   0  0  0  0  0  0  0  0  0  0  0  0
   58.1760   29.9920   44.6180 C   0  0  0  0  0  0  0  0  0  0  0  0
   58.2930   28.6260   44.7410 N   0  0  0  0  0  0  0  0  0  0  0  0
   57.9530   27.7670   43.5810 C   0  0  0  0  0  0  0  0  0  0  0  0
   58.7820   28.0700   45.9080 C   0  0  0  0  0  0  0  0  0  0  0  0
   58.6560   26.6800   46.1510 C   0  0  0  0  0  0  0  0  0  0  0  0
   59.2690   26.0770   47.2400 C   0  0  0  0  0  0  0  0  0  0  0  0
   60.0080   26.8340   48.1280 C   0  0  0  0  0  0  0  0  0  0  0  0
   60.1150   28.2270   47.9750 C   0  0  0  0  0  0  0  0  0  0  0  0
   60.9370   28.9490   48.8560 O   0  0  0  0  0  0  0  0  0  0  0  0
   61.1390   28.6500   50.2340 C   0  0  0  0  0  0  0  0  0  0  0  0
   59.4220   28.8840   46.8990 C   0  0  0  0  0  0  0  0  0  0  0  0
   58.8977   36.1807   45.7456 H   0  0  0  0  0  0  0  0  0  0  0  0
   60.5372   35.7035   45.1878 H   0  0  0  0  0  0  0  0  0  0  0  0
   59.2030   34.5007   45.1878 H   0  0  0  0  0  0  0  0  0  0  0  0
   60.6070   35.7520   47.5986 H   0  0  0  0  0  0  0  0  0  0  0  0
   59.0768   34.8080   47.7180 H   0  0  0  0  0  0  0  0  0  0  0  0
   60.9940   33.4520   48.1210 H   0  0  0  0  0  0  0  0  0  0  0  0
   62.1024   33.1122   45.6065 H   0  0  0  0  0  0  0  0  0  0  0  0
   62.1037   34.8722   45.9978 H   0  0  0  0  0  0  0  0  0  0  0  0
   64.1564   33.9293   46.8668 H   0  0  0  0  0  0  0  0  0  0  0  0
   63.0558   34.2711   48.2664 H   0  0  0  0  0  0  0  0  0  0  0  0
   63.4959   31.5438   46.9519 H   0  0  0  0  0  0  0  0  0  0  0  0
   64.1705   32.1041   48.5408 H   0  0  0  0  0  0  0  0  0  0  0  0
   62.1711   30.7766   50.3115 H   0  0  0  0  0  0  0  0  0  0  0  0
   63.2904   32.1973   50.1366 H   0  0  0  0  0  0  0  0  0  0  0  0
   60.7498   32.1719   51.3792 H   0  0  0  0  0  0  0  0  0  0  0  0
   61.7540   33.6032   50.9667 H   0  0  0  0  0  0  0  0  0  0  0  0
   59.0750   31.9380   50.7685 H   0  0  0  0  0  0  0  0  0  0  0  0
   58.2841   33.3249   49.9098 H   0  0  0  0  0  0  0  0  0  0  0  0
   58.1740   30.6662   49.1137 H   0  0  0  0  0  0  0  0  0  0  0  0
   57.8743   32.1143   48.0629 H   0  0  0  0  0  0  0  0  0  0  0  0
   60.5090   30.7600   48.3970 H   0  0  0  0  0  0  0  0  0  0  0  0
   60.2490   32.0570   47.4700 H   0  0  0  0  0  0  0  0  0  0  0  0
   59.2403   32.9284   46.0483 H   0  0  0  0  0  0  0  0  0  0  0  0
   58.0633   33.8764   44.0788 H   0  0  0  0  0  0  0  0  0  0  0  0
   56.8477   32.3759   42.5128 H   0  0  0  0  0  0  0  0  0  0  0  0
   56.9352   29.9185   42.8245 H   0  0  0  0  0  0  0  0  0  0  0  0
   57.5704   26.8003   43.9403 H   0  0  0  0  0  0  0  0  0  0  0  0
   57.1831   28.2623   42.9711 H   0  0  0  0  0  0  0  0  0  0  0  0
   58.8533   27.6012   42.9711 H   0  0  0  0  0  0  0  0  0  0  0  0
   58.0591   26.0653   45.4612 H   0  0  0  0  0  0  0  0  0  0  0  0
   59.1661   24.9931   47.3965 H   0  0  0  0  0  0  0  0  0  0  0  0
   60.5200   26.3397   48.9668 H   0  0  0  0  0  0  0  0  0  0  0  0
   60.6294   29.4044   50.8514 H   0  0  0  0  0  0  0  0  0  0  0  0
   60.7276   27.6546   50.4574 H   0  0  0  0  0  0  0  0  0  0  0  0
   62.2160   28.6602   50.4574 H   0  0  0  0  0  0  0  0  0  0  0  0
  1  2  1  0
  2  3  1  0
  3  4  1  0
  4  5  1  0
  5  6  1  0
  6  7  1  0
  7  8  1  0
  8  9  1  0
  9 10  1  0
 10 11  1  0
 11 12  1  0
 12 13  1  0
 13 14  1  0
 14 15  2  0
 15 16  1  0
 16 17  2  0
 17 18  1  0
 18 19  2  0
 19 20  1  0
 20 21  2  0
 21 22  1  0
 21 23  1  0
 23 24  2  0
 24 25  1  0
 25 26  2  0
 26 27  1  0
 27 28  1  0
 28 29  1  0
 27 30  2  0
 30 14  1  0
 20 15  1  0
 30 23  1  0
  1 31  1  0
  1 32  1  0
  1 33  1  0
  2 34  1  0
  2 35  1  0
  3 36  1  0
  4 37  1  0
  4 38  1  0
  5 39  1  0
  5 40  1  0
  6 41  1  0
  6 42  1  0
  8 43  1  0
  8 44  1  0
  9 45  1  0
  9 46  1  0
 11 47  1  0
 11 48  1  0
 12 49  1  0
 12 50  1  0
 13 51  1  0
 13 52  1  0
 16 53  1  0
 17 54  1  0
 18 55  1  0
 19 56  1  0
 22 57  1  0
 22 58  1  0
 22 59  1  0
 24 60  1  0
 25 61  1  0
 26 62  1  0
 29 63  1  0
 29 64  1  0
 29 65  1  0
M  CHG  2  13   1  21   1
M  END
>  <UniqueID>  (7) 
7

>  <SMILES>  (7) 
CCNCCCOCCOCC[NH2+]c1c2ccccc2[n+](C)c2cccc(OC)c12

>  <Energy>  (7) 
100.49704082910537

>  <Genealogy>  (7) 
CCNCCCOCCOCC[NH2+]c1c2ccccc2[n+](C)c2cccc(OC)c12 (protonated)
CCNCCCOCCOCC[NH2+]c1c2ccccc2[n+](C)c2cccc(OC)c12 (3D coordinates assigned)
CCNCCCOCCOCC[NH2+]c1c2ccccc2[n+](C)c2cccc(OC)c12 (optimized conformer: 100.49704082910537 kcal/mol)

>  <smiles>  (7) 
CCNCCCOCCOCCNc1c2ccccc2[n+](C)c2cccc(OC)c12

>  <score_type>  (7) 
oracle

>  <origin>  (7) 
adg

>  <m_score__min__energy>  (7) 
-2.46

>  <m_primary>  (7) 
energy

$$$$
7:0
     RDKit          3D

 72 74  0  0  0  0  0  0  0  0999 V2000
   66.9990   31.5023   51.0782 H   0  0  0  0  0  0  0  0  0  0  0  0
   65.9340   31.2300   51.0380 C   0  0  0  0  0  0  0  0  0  0  0  0
   65.4870   30.0920   51.6890 C   0  0  0  0  0  0  0  0  0  0  0  0
   66.1922   29.4748   52.2650 H   0  0  0  0  0  0  0  0  0  0  0  0
   64.1460   29.7300   51.6140 C   0  0  0  0  0  0  0  0  0  0  0  0
   63.8003   28.8301   52.1438 H   0  0  0  0  0  0  0  0  0  0  0  0
   63.2150   30.4980   50.8680 C   0  0  0  0  0  0  0  0  0  0  0  0
   63.6600   31.7060   50.2570 C   0  0  0  0  0  0  0  0  0  0  0  0
   65.0390   32.0300   50.3330 C   0  0  0  0  0  0  0  0  0  0  0  0
   65.4089   32.9324   49.8242 H   0  0  0  0  0  0  0  0  0  0  0  0
   62.7160   32.5450   49.5950 C   0  0  0  0  0  0  0  0  0  0  0  0
   63.1320   33.7520   48.8870 N   0  0  0  0  0  0  0  0  0  0  0  0
   62.3640   34.4440   48.7730 H   0  0  0  0  0  0  0  0  0  0  0  0
   63.8040   34.2790   49.4860 H   0  0  0  0  0  0  0  0  0  0  0  0
   63.7780   33.4530   47.5890 C   0  0  0  0  0  0  0  0  0  0  0  0
   64.0239   32.3812   47.5604 H   0  0  0  0  0  0  0  0  0  0  0  0
   64.6742   34.0868   47.5184 H   0  0  0  0  0  0  0  0  0  0  0  0
   62.8930   33.7820   46.3780 C   0  0  0  0  0  0  0  0  0  0  0  0
   62.7068   32.8605   45.8068 H   0  0  0  0  0  0  0  0  0  0  0  0
   63.4133   34.5225   45.7528 H   0  0  0  0  0  0  0  0  0  0  0  0
   61.6550   34.3290   46.7920 O   0  0  0  0  0  0  0  0  0  0  0  0
   60.5920   33.8340   46.0030 C   0  0  0  0  0  0  0  0  0  0  0  0
   60.2899   32.8435   46.3741 H   0  0  0  0  0  0  0  0  0  0  0  0
   60.9202   33.7482   44.9566 H   0  0  0  0  0  0  0  0  0  0  0  0
   59.4050   34.7950   46.0890 C   0  0  0  0  0  0  0  0  0  0  0  0
   59.7850   35.8262   46.1360 H   0  0  0  0  0  0  0  0  0  0  0  0
   58.8275   34.5437   46.9909 H   0  0  0  0  0  0  0  0  0  0  0  0
   58.4730   34.6640   44.8750 C   0  0  0  0  0  0  0  0  0  0  0  0
   58.9094   33.9485   44.1626 H   0  0  0  0  0  0  0  0  0  0  0  0
   58.3638   35.6548   44.4098 H   0  0  0  0  0  0  0  0  0  0  0  0
   57.1410   34.1880   45.2790 N   0  0  0  0  0  0  0  0  0  0  0  0
   56.9620   34.5460   46.2470 H   0  0  0  0  0  0  0  0  0  0  0  0
   57.0420   32.7180   45.3090 C   0  0  0  0  0  0  0  0  0  0  0  0
   56.0064   32.4243   45.5354 H   0  0  0  0  0  0  0  0  0  0  0  0
   57.7126   32.3200   46.0848 H   0  0  0  0  0  0  0  0  0  0  0  0
   57.4470   32.1530   43.9420 C   0  0  0  0  0  0  0  0  0  0  0  0
   58.5434   32.0740   43.9022 H   0  0  0  0  0  0  0  0  0  0  0  0
   57.0662   32.8359   43.1683 H   0  0  0  0  0  0  0  0  0  0  0  0
   56.8420   30.7660   43.6850 C   0  0  0  0  0  0  0  0  0  0  0  0
   57.5124   30.1986   43.0227 H   0  0  0  0  0  0  0  0  0  0  0  0
   55.8554   30.8962   43.2163 H   0  0  0  0  0  0  0  0  0  0  0  0
   56.6700   30.0330   44.9270 N   0  0  0  0  0  0  0  0  0  0  0  0
   57.5360   29.2400   45.4760 C   0  0  0  0  0  0  0  0  0  0  0  0
   57.6960   27.7990   45.0430 C   0  0  0  0  0  0  0  0  0  0  0  0
   57.7675   27.1549   45.9318 H   0  0  0  0  0  0  0  0  0  0  0  0
   56.8257   27.4982   44.4412 H   0  0  0  0  0  0  0  0  0  0  0  0
   58.6111   27.6964   44.4412 H   0  0  0  0  0  0  0  0  0  0  0  0
   58.3920   29.7810   46.6060 C   0  0  0  0  0  0  0  0  0  0  0  0
   57.8047   30.5251   47.1640 H   0  0  0  0  0  0  0  0  0  0  0  0
   59.6390   30.4780   46.0480 C   0  0  0  0  0  0  0  0  0  0  0  0
   60.2665   30.8287   46.8806 H   0  0  0  0  0  0  0  0  0  0  0  0
   60.2107   29.7686   45.4316 H   0  0  0  0  0  0  0  0  0  0  0  0
   59.3342   31.3366   45.4316 H   0  0  0  0  0  0  0  0  0  0  0  0
   58.7780   28.6580   47.5770 C   0  0  0  0  0  0  0  0  0  0  0  0
   58.6569   29.0104   48.6120 H   0  0  0  0  0  0  0  0  0  0  0  0
   58.1276   27.7872   47.4077 H   0  0  0  0  0  0  0  0  0  0  0  0
   59.8263   28.3711   47.4077 H   0  0  0  0  0  0  0  0  0  0  0  0
   61.3380   32.1940   49.6580 C   0  0  0  0  0  0  0  0  0  0  0  0
   60.3280   33.0330   49.1190 C   0  0  0  0  0  0  0  0  0  0  0  0
   60.6160   33.9603   48.6021 H   0  0  0  0  0  0  0  0  0  0  0  0
   58.9810   32.7050   49.2320 C   0  0  0  0  0  0  0  0  0  0  0  0
   58.2170   33.3663   48.7973 H   0  0  0  0  0  0  0  0  0  0  0  0
   58.5990   31.5470   49.8910 C   0  0  0  0  0  0  0  0  0  0  0  0
   57.5319   31.3031   49.9997 H   0  0  0  0  0  0  0  0  0  0  0  0
   59.5640   30.6930   50.4150 C   0  0  0  0  0  0  0  0  0  0  0  0
   59.2478   29.7829   50.9459 H   0  0  0  0  0  0  0  0  0  0  0  0
   60.9480   30.9730   50.2780 C   0  0  0  0  0  0  0  0  0  0  0  0
   61.9030   30.0930   50.7420 N   0  0  0  0  0  0  0  0  0  0  0  0
   61.5220   28.7010   51.0740 C   0  0  0  0  0  0  0  0  0  0  0  0
   61.4890   28.5806   52.1669 H   0  0  0  0  0  0  0  0  0  0  0  0
   60.5307   28.4813   50.6509 H   0  0  0  0  0  0  0  0  0  0  0  0
   62.2633   28.0071   50.6509 H   0  0  0  0  0  0  0  0  0  0  0  0
  1  2  1  0
  2  3  2  0
  3  4  1  0
  3  5  1  0
  5  6  1  0
  5  7  2  0
  7  8  1  0
  8  9  2  0
  9 10  1  0
  8 11  1  0
 11 12  1  0
 12 13  1  0
 12 14  1  0
 12 15  1  0
 15 16  1  0
 15 17  1  0
 15 18  1  0
 18 19  1  0
 18 20  1  0
 18 21  1  0
 21 22  1  0
 22 23  1  0
 22 24  1  0
 22 25  1  0
 25 26  1  0
 25 27  1  0
 25 28  1  0
 28 29  1  0
 28 30  1  0
 28 31  1  0
 31 32  1  0
 31 33  1  0
 33 34  1  0
 33 35  1  0
 33 36  1  0
 36 37  1  0
 36 38  1  0
 36 39  1  0
 39 40  1  0
 39 41  1  0
 39 42  1  0
 42 43  2  0
 43 44  1  0
 44 45  1  0
 44 46  1  0
 44 47  1  0
 43 48  1  0
 48 49  1  0
 48 50  1  0
 50 51  1  0
 50 52  1  0
 50 53  1  0
 48 54  1  0
 54 55  1  0
 54 56  1  0
 54 57  1  0
 11 58  2  0
 58 59  1  0
 59 60  1  0
 59 61  2  0
 61 62  1  0
 61 63  1  0
 63 64  1  0
 63 65  2  0
 65 66  1  0
 65 67  1  0
 67 68  2  0
 68 69  1  0
 69 70  1  0
 69 71  1  0
 69 72  1  0
  9  2  1  0
 67 58  1  0
 68  7  1  0
M  CHG  2  12   1  68   1
M  END
>  <UniqueID>  (8) 
8

>  <SMILES>  (8) 
C/C(=N\CCCNCCCOCC[NH2+]c1c2ccccc2[n+](C)c2ccccc12)C(C)C

>  <Energy>  (8) 
90.29670498087503

>  <Genealogy>  (8) 
CC(=NCCCNCCCOCC[NH2+]c1c2ccccc2[n+](C)c2ccccc12)C(C)C (protonated)
C/C(=N\CCCNCCCOCC[NH2+]c1c2ccccc2[n+](C)c2ccccc12)C(C)C (cis-trans isomerization)
C/C(=N\CCCNCCCOCC[NH2+]c1c2ccccc2[n+](C)c2ccccc12)C(C)C (3D coordinates assigned)
C/C(=N\CCCNCCCOCC[NH2+]c1c2ccccc2[n+](C)c2ccccc12)C(C)C (optimized conformer: 90.29670498087503 kcal/mol)

>  <smiles>  (8) 
CC(=NCCCNCCCOCCNc1c2ccccc2[n+](C)c2ccccc12)C(C)C

>  <score_type>  (8) 
oracle

>  <origin>  (8) 
adg

>  <m_score__min__energy>  (8) 
-5.5

>  <m_primary>  (8) 
energy

$$$$
8:0
     RDKit          3D

 51 53  0  0  0  0  0  0  0  0999 V2000
   58.1490   26.9420   42.9100 C   0  0  0  0  0  0  0  0  0  0  0  0
   58.4650   26.9250   44.2990 O   0  0  0  0  0  0  0  0  0  0  0  0
   58.6720   28.0730   45.0790 C   0  0  0  0  0  0  0  0  0  0  0  0
   59.1020   28.0070   46.4110 C   0  0  0  0  0  0  0  0  0  0  0  0
   59.3170   29.1740   47.1370 C   0  0  0  0  0  0  0  0  0  0  0  0
   59.0830   30.4370   46.5610 C   0  0  0  0  0  0  0  0  0  0  0  0
   59.3150   31.6170   47.2900 C   0  0  0  0  0  0  0  0  0  0  0  0
   59.6000   31.5630   48.6990 N   0  0  0  0  0  0  0  0  0  0  0  0
   60.8260   32.1360   49.2640 C   0  0  0  0  0  0  0  0  0  0  0  0
   62.0680   31.2980   48.8860 C   0  0  0  0  0  0  0  0  0  0  0  0
   62.6290   31.6350   47.4870 C   0  0  0  0  0  0  0  0  0  0  0  0
   63.7390   32.6210   47.5190 N   0  0  0  0  0  0  0  0  0  0  0  0
   64.0830   33.0110   48.9000 C   0  0  0  0  0  0  0  0  0  0  0  0
   63.3710   33.8230   46.7510 C   0  0  0  0  0  0  0  0  0  0  0  0
   59.2830   32.8540   46.6250 C   0  0  0  0  0  0  0  0  0  0  0  0
   59.6720   34.0410   47.2810 C   0  0  0  0  0  0  0  0  0  0  0  0
   59.6590   35.2610   46.6100 C   0  0  0  0  0  0  0  0  0  0  0  0
   59.2710   35.3180   45.2760 C   0  0  0  0  0  0  0  0  0  0  0  0
   58.8690   34.1600   44.6120 C   0  0  0  0  0  0  0  0  0  0  0  0
   58.8350   32.9090   45.2780 C   0  0  0  0  0  0  0  0  0  0  0  0
   58.3840   31.7620   44.6520 N   0  0  0  0  0  0  0  0  0  0  0  0
   57.6260   31.8590   43.3850 C   0  0  0  0  0  0  0  0  0  0  0  0
   58.6270   30.5260   45.2210 C   0  0  0  0  0  0  0  0  0  0  0  0
   58.4490   29.3220   44.4940 C   0  0  0  0  0  0  0  0  0  0  0  0
   57.0579   27.0007   42.7829 H   0  0  0  0  0  0  0  0  0  0  0  0
   58.6208   27.8161   42.4373 H   0  0  0  0  0  0  0  0  0  0  0  0
   58.5243   26.0224   42.4373 H   0  0  0  0  0  0  0  0  0  0  0  0
   59.2702   27.0285   46.8845 H   0  0  0  0  0  0  0  0  0  0  0  0
   59.6747   29.1090   48.1752 H   0  0  0  0  0  0  0  0  0  0  0  0
   58.9420   31.0530   49.3300 H   0  0  0  0  0  0  0  0  0  0  0  0
   60.9536   33.1583   48.8786 H   0  0  0  0  0  0  0  0  0  0  0  0
   60.7324   32.1401   50.3600 H   0  0  0  0  0  0  0  0  0  0  0  0
   62.8549   31.4838   49.6319 H   0  0  0  0  0  0  0  0  0  0  0  0
   61.7562   30.2433   48.8668 H   0  0  0  0  0  0  0  0  0  0  0  0
   62.9999   30.7071   47.0272 H   0  0  0  0  0  0  0  0  0  0  0  0
   61.8097   32.0868   46.9086 H   0  0  0  0  0  0  0  0  0  0  0  0
   64.5910   32.2180   47.0680 H   0  0  0  0  0  0  0  0  0  0  0  0
   63.5265   32.3800   49.6086 H   0  0  0  0  0  0  0  0  0  0  0  0
   65.1631   32.8777   49.0604 H   0  0  0  0  0  0  0  0  0  0  0  0
   63.8159   34.0660   49.0604 H   0  0  0  0  0  0  0  0  0  0  0  0
   63.1211   34.6392   47.4448 H   0  0  0  0  0  0  0  0  0  0  0  0
   64.2173   34.1266   46.1173 H   0  0  0  0  0  0  0  0  0  0  0  0
   62.4997   33.6008   46.1173 H   0  0  0  0  0  0  0  0  0  0  0  0
   59.9889   34.0022   48.3336 H   0  0  0  0  0  0  0  0  0  0  0  0
   59.9559   36.1805   47.1357 H   0  0  0  0  0  0  0  0  0  0  0  0
   59.2813   36.2801   44.7428 H   0  0  0  0  0  0  0  0  0  0  0  0
   58.5734   34.2179   43.5541 H   0  0  0  0  0  0  0  0  0  0  0  0
   56.5573   31.9958   43.6067 H   0  0  0  0  0  0  0  0  0  0  0  0
   57.9926   32.7176   42.8032 H   0  0  0  0  0  0  0  0  0  0  0  0
   57.7646   30.9358   42.8032 H   0  0  0  0  0  0  0  0  0  0  0  0
   58.1273   29.3724   43.4433 H   0  0  0  0  0  0  0  0  0  0  0  0
  1  2  1  0
  2  3  1  0
  3  4  2  0
  4  5  1  0
  5  6  2  0
  6  7  1  0
  7  8  1  0
  8  9  1  0
  9 10  1  0
 10 11  1  0
 11 12  1  0
 12 13  1  0
 12 14  1  0
  7 15  2  0
 15 16  1  0
 16 17  2  0
 17 18  1  0
 18 19  2  0
 19 20  1  0
 20 21  2  0
 21 22  1  0
 21 23  1  0
 23 24  2  0
 24  3  1  0
 23  6  1  0
 20 15  1  0
  1 25  1  0
  1 26  1  0
  1 27  1  0
  4 28  1  0
  5 29  1  0
  8 30  1  0
  9 31  1  0
  9 32  1  0
 10 33  1  0
 10 34  1  0
 11 35  1  0
 11 36  1  0
 12 37  1  0
 13 38  1  0
 13 39  1  0
 13 40  1  0
 14 41  1  0
 14 42  1  0
 14 43  1  0
 16 44  1  0
 17 45  1  0
 18 46  1  0
 19 47  1  0
 22 48  1  0
 22 49  1  0
 22 50  1  0
 24 51  1  0
M  CHG  2  12   1  21   1
M  END
>  <UniqueID>  (9) 
9

>  <SMILES>  (9) 
COc1ccc2c(NCCC[NH+](C)C)c3ccccc3[n+](C)c2c1

>  <Energy>  (9) 
76.5869157549223

>  <Genealogy>  (9) 
COc1ccc2c(NCCC[NH+](C)C)c3ccccc3[n+](C)c2c1 (protonated)
COc1ccc2c(NCCC[NH+](C)C)c3ccccc3[n+](C)c2c1 (3D coordinates assigned)
COc1ccc2c(NCCC[NH+](C)C)c3ccccc3[n+](C)c2c1 (optimized conformer: 76.5869157549223 kcal/mol)

>  <smiles>  (9) 
COc1ccc2c(NCCCN(C)C)c3ccccc3[n+](C)c2c1

>  <score_type>  (9) 
oracle

>  <origin>  (9) 
adg

>  <m_score__min__energy>  (9) 
-4.3600000000000003

>  <m_primary>  (9) 
energy

$$$$
9:0
     RDKit          3D

 30 31  0  0  0  0  0  0  0  0999 V2000
   57.6130   32.3400   41.2700 C   0  0  0  0  0  0  0  0  0  0  0  0
   57.7660   31.9540   42.7120 C   0  0  0  0  0  0  0  0  0  0  0  0
   57.1270   30.8180   43.2040 C   0  0  0  0  0  0  0  0  0  0  0  0
   57.2570   30.5030   44.5560 C   0  0  0  0  0  0  0  0  0  0  0  0
   56.6730   29.4760   45.0010 O   0  0  0  0  0  0  0  0  0  0  0  0
   58.0060   31.2980   45.3850 N   0  0  0  0  0  0  0  0  0  0  0  0
   58.1440   30.9480   46.8090 C   0  0  0  0  0  0  0  0  0  0  0  0
   58.5800   32.4450   44.8870 C   0  0  0  0  0  0  0  0  0  0  0  0
   59.3010   33.3400   45.7450 N   0  0  0  0  0  0  0  0  0  0  0  0
   60.5610   32.9850   46.3690 C   0  0  0  0  0  0  0  0  0  0  0  0
   60.9310   34.1800   47.2370 C   0  0  0  0  0  0  0  0  0  0  0  0
   59.6410   34.9800   47.4180 C   0  0  0  0  0  0  0  0  0  0  0  0
   58.7180   34.5530   46.2830 C   0  0  0  0  0  0  0  0  0  0  0  0
   58.4600   32.7530   43.5650 N   0  0  0  0  0  0  0  0  0  0  0  0
   57.2084   33.3608   41.2046 H   0  0  0  0  0  0  0  0  0  0  0  0
   58.5942   32.3020   40.7742 H   0  0  0  0  0  0  0  0  0  0  0  0
   56.9243   31.6401   40.7742 H   0  0  0  0  0  0  0  0  0  0  0  0
   56.5294   30.1798   42.5365 H   0  0  0  0  0  0  0  0  0  0  0  0
   57.8106   31.7937   47.4284 H   0  0  0  0  0  0  0  0  0  0  0  0
   57.5267   30.0650   47.0310 H   0  0  0  0  0  0  0  0  0  0  0  0
   59.1978   30.7239   47.0310 H   0  0  0  0  0  0  0  0  0  0  0  0
   60.4442   32.0820   46.9863 H   0  0  0  0  0  0  0  0  0  0  0  0
   61.3392   32.7631   45.6239 H   0  0  0  0  0  0  0  0  0  0  0  0
   61.3117   33.8417   48.2120 H   0  0  0  0  0  0  0  0  0  0  0  0
   61.7219   34.7875   46.7729 H   0  0  0  0  0  0  0  0  0  0  0  0
   59.1820   34.7498   48.3908 H   0  0  0  0  0  0  0  0  0  0  0  0
   59.8325   36.0630   47.3953 H   0  0  0  0  0  0  0  0  0  0  0  0
   57.7052   34.3563   46.6645 H   0  0  0  0  0  0  0  0  0  0  0  0
   58.6252   35.3361   45.5161 H   0  0  0  0  0  0  0  0  0  0  0  0
   58.8990   33.6310   43.2070 H   0  0  0  0  0  0  0  0  0  0  0  0
  1  2  1  0
  2  3  2  0
  3  4  1  0
  4  5  2  0
  4  6  1  0
  6  7  1  0
  6  8  1  0
  8  9  1  0
  9 10  1  0
 10 11  1  0
 11 12  1  0
 12 13  1  0
  8 14  2  0
 14  2  1  0
 13  9  1  0
  1 15  1  0
  1 16  1  0
  1 17  1  0
  3 18  1  0
  7 19  1  0
  7 20  1  0
  7 21  1  0
 10 22  1  0
 10 23  1  0
 11 24  1  0
 11 25  1  0
 12 26  1  0
 12 27  1  0
 13 28  1  0
 13 29  1  0
 14 30  1  0
M  CHG  1  14   1
M  END
>  <UniqueID>  (10) 
10

>  <SMILES>  (10) 
Cc1cc(=O)n(C)c(N2CCCC2)[nH+]1

>  <Energy>  (10) 
36.502395206653446

>  <Genealogy>  (10) 
Cc1cc(=O)n(C)c(N2CCCC2)[nH+]1 (protonated)
Cc1cc(=O)n(C)c(N2CCCC2)[nH+]1 (3D coordinates assigned)
Cc1cc(=O)n(C)c(N2CCCC2)[nH+]1 (nonaromatic ring conformer: 36.502395206653446 kcal/mol)

>  <smiles>  (10) 
Cc1cc(=O)n(C)c(N2CCCC2)n1

>  <score_type>  (10) 
oracle

>  <origin>  (10) 
adg

>  <m_score__min__energy>  (10) 
-3.8999999999999999

>  <m_primary>  (10) 
energy

$$$$
10:0
     RDKit          3D

 47 49  0  0  0  0  0  0  0  0999 V2000
   63.3750   33.9240   46.3970 C   0  0  0  0  0  0  0  0  0  0  0  0
   63.7670   32.8350   47.3950 C   0  0  0  0  0  0  0  0  0  0  0  0
   62.7080   31.7230   47.5100 C   0  0  0  0  0  0  0  0  0  0  0  0
   61.3830   32.1840   48.1440 C   0  0  0  0  0  0  0  0  0  0  0  0
   60.2280   31.9140   47.2690 N   0  0  0  0  0  0  0  0  0  0  0  0
   59.7470   30.6280   47.2160 C   0  0  0  0  0  0  0  0  0  0  0  0
   58.6300   30.2850   46.4200 C   0  0  0  0  0  0  0  0  0  0  0  0
   58.1470   28.8840   46.4110 C   0  0  0  0  0  0  0  0  0  0  0  0
   58.1630   28.2190   47.4820 O   0  0  0  0  0  0  0  0  0  0  0  0
   57.6300   28.2910   45.2100 N   0  0  0  0  0  0  0  0  0  0  0  0
   57.3680   26.8500   45.1030 C   0  0  0  0  0  0  0  0  0  0  0  0
   58.6760   26.0400   45.2920 C   0  0  0  0  0  0  0  0  0  0  0  0
   58.9020   25.6660   46.7600 C   0  0  0  0  0  0  0  0  0  0  0  0
   57.7650   24.7740   47.3000 C   0  0  0  0  0  0  0  0  0  0  0  0
   56.4170   24.9980   46.5850 C   0  0  0  0  0  0  0  0  0  0  0  0
   56.2640   26.4480   46.1160 C   0  0  0  0  0  0  0  0  0  0  0  0
   58.0210   31.2860   45.6370 C   0  0  0  0  0  0  0  0  0  0  0  0
   57.0560   31.0290   44.8680 O   0  0  0  0  0  0  0  0  0  0  0  0
   58.5290   32.5770   45.7130 C   0  0  0  0  0  0  0  0  0  0  0  0
   57.9910   33.9540   44.9170 S   0  0  0  0  0  0  0  0  0  0  0  0
   59.1410   34.9840   45.5950 C   0  0  0  0  0  0  0  0  0  0  0  0
   59.9600   34.2540   46.4530 C   0  0  0  0  0  0  0  0  0  0  0  0
   59.6150   32.8890   46.5160 C   0  0  0  0  0  0  0  0  0  0  0  0
   63.0516   34.8225   46.9430 H   0  0  0  0  0  0  0  0  0  0  0  0
   64.2407   34.1709   45.7648 H   0  0  0  0  0  0  0  0  0  0  0  0
   62.5506   33.5625   45.7648 H   0  0  0  0  0  0  0  0  0  0  0  0
   64.7160   32.3844   47.0690 H   0  0  0  0  0  0  0  0  0  0  0  0
   63.8590   33.3087   48.3835 H   0  0  0  0  0  0  0  0  0  0  0  0
   62.4945   31.3428   46.5001 H   0  0  0  0  0  0  0  0  0  0  0  0
   63.1269   30.9516   48.1730 H   0  0  0  0  0  0  0  0  0  0  0  0
   61.2401   31.6505   49.0953 H   0  0  0  0  0  0  0  0  0  0  0  0
   61.4424   33.2710   48.3020 H   0  0  0  0  0  0  0  0  0  0  0  0
   60.2437   29.8452   47.8081 H   0  0  0  0  0  0  0  0  0  0  0  0
   57.4030   28.9140   44.4020 H   0  0  0  0  0  0  0  0  0  0  0  0
   56.9985   26.6126   44.0945 H   0  0  0  0  0  0  0  0  0  0  0  0
   58.6144   25.1185   44.6945 H   0  0  0  0  0  0  0  0  0  0  0  0
   59.5184   26.6664   44.9635 H   0  0  0  0  0  0  0  0  0  0  0  0
   59.8543   25.1225   46.8474 H   0  0  0  0  0  0  0  0  0  0  0  0
   58.9230   26.5929   47.3520 H   0  0  0  0  0  0  0  0  0  0  0  0
   58.0570   23.7213   47.1713 H   0  0  0  0  0  0  0  0  0  0  0  0
   57.6191   25.0394   48.3575 H   0  0  0  0  0  0  0  0  0  0  0  0
   56.3609   24.3320   45.7113 H   0  0  0  0  0  0  0  0  0  0  0  0
   55.6081   24.7787   47.2974 H   0  0  0  0  0  0  0  0  0  0  0  0
   55.2814   26.5641   45.6353 H   0  0  0  0  0  0  0  0  0  0  0  0
   56.3557   27.1015   46.9961 H   0  0  0  0  0  0  0  0  0  0  0  0
   59.2302   36.0614   45.3919 H   0  0  0  0  0  0  0  0  0  0  0  0
   60.7903   34.6970   47.0226 H   0  0  0  0  0  0  0  0  0  0  0  0
  1  2  1  0
  2  3  1  0
  3  4  1  0
  4  5  1  0
  5  6  1  0
  6  7  2  0
  7  8  1  0
  8  9  2  0
  8 10  1  0
 10 11  1  0
 11 12  1  0
 12 13  1  0
 13 14  1  0
 14 15  1  0
 15 16  1  0
  7 17  1  0
 17 18  2  0
 17 19  1  0
 19 20  1  0
 20 21  1  0
 21 22  2  0
 22 23  1  0
 23  5  1  0
 16 11  1  0
 23 19  2  0
  1 24  1  0
  1 25  1  0
  1 26  1  0
  2 27  1  0
  2 28  1  0
  3 29  1  0
  3 30  1  0
  4 31  1  0
  4 32  1  0
  6 33  1  0
 10 34  1  0
 11 35  1  0
 12 36  1  0
 12 37  1  0
 13 38  1  0
 13 39  1  0
 14 40  1  0
 14 41  1  0
 15 42  1  0
 15 43  1  0
 16 44  1  0
 16 45  1  0
 21 46  1  0
 22 47  1  0
M  END
>  <UniqueID>  (11) 
11

>  <SMILES>  (11) 
CCCCn1cc(C(=O)NC2CCCCC2)c(=O)c2sccc21

>  <Energy>  (11) 
81.97608054657366

>  <Genealogy>  (11) 
CCCCn1cc(C(=O)NC2CCCCC2)c(=O)c2sccc21 (3D coordinates assigned)
CCCCn1cc(C(=O)NC2CCCCC2)c(=O)c2sccc21 (nonaromatic ring conformer: 81.97608054657366 kcal/mol)

>  <smiles>  (11) 
CCCCn1cc(C(=O)NC2CCCCC2)c(=O)c2sccc21

>  <score_type>  (11) 
oracle

>  <origin>  (11) 
adg

>  <m_score__min__energy>  (11) 
-7.3200000000000003

>  <m_primary>  (11) 
energy

$$$$
11:0
     RDKit          3D

 52 53  0  0  0  0  0  0  0  0999 V2000
   60.7110   28.0290   49.8250 C   0  0  0  0  0  0  0  0  0  0  0  0
   61.1260   29.1440   50.7730 C   0  0  0  0  0  0  0  0  0  0  0  0
   60.5080   30.3490   50.3700 O   0  0  0  0  0  0  0  0  0  0  0  0
   59.2390   30.4560   50.9850 C   0  0  0  0  0  0  0  0  0  0  0  0
   58.5490   31.7330   50.5070 C   0  0  0  0  0  0  0  0  0  0  0  0
   59.3460   32.3950   49.5450 O   0  0  0  0  0  0  0  0  0  0  0  0
   59.9050   33.5750   50.0840 C   0  0  0  0  0  0  0  0  0  0  0  0
   60.8470   34.1990   49.0580 C   0  0  0  0  0  0  0  0  0  0  0  0
   62.1190   33.5750   49.1160 O   0  0  0  0  0  0  0  0  0  0  0  0
   62.6780   33.4580   47.8230 C   0  0  0  0  0  0  0  0  0  0  0  0
   62.7120   31.9870   47.4090 C   0  0  0  0  0  0  0  0  0  0  0  0
   61.5720   31.2700   47.9700 N   0  0  0  0  0  0  0  0  0  0  0  0
   60.8090   30.3330   47.1970 C   0  0  0  0  0  0  0  0  0  0  0  0
   61.3380   29.7380   46.2170 O   0  0  0  0  0  0  0  0  0  0  0  0
   59.3690   30.0790   47.5230 C   0  0  0  0  0  0  0  0  0  0  0  0
   58.4890   30.5000   46.3610 C   0  0  0  0  0  0  0  0  0  0  0  0
   57.8150   29.5140   45.5950 C   0  0  0  0  0  0  0  0  0  0  0  0
   57.9750   27.6290   45.9400 Br  0  0  0  0  0  0  0  0  0  0  0  0
   57.0050   29.8830   44.5200 C   0  0  0  0  0  0  0  0  0  0  0  0
   56.8590   31.2190   44.1660 C   0  0  0  0  0  0  0  0  0  0  0  0
   57.5360   32.2150   44.8750 C   0  0  0  0  0  0  0  0  0  0  0  0
   57.3950   33.5590   44.4850 C   0  0  0  0  0  0  0  0  0  0  0  0
   58.0790   34.5640   45.1650 C   0  0  0  0  0  0  0  0  0  0  0  0
   58.9060   34.2390   46.2420 C   0  0  0  0  0  0  0  0  0  0  0  0
   59.0490   32.9100   46.6480 C   0  0  0  0  0  0  0  0  0  0  0  0
   58.3660   31.8690   45.9770 C   0  0  0  0  0  0  0  0  0  0  0  0
   60.3855   27.1546   50.4076 H   0  0  0  0  0  0  0  0  0  0  0  0
   59.8820   28.3764   49.1910 H   0  0  0  0  0  0  0  0  0  0  0  0
   61.5654   27.7498   49.1910 H   0  0  0  0  0  0  0  0  0  0  0  0
   60.8110   28.8932   51.7966 H   0  0  0  0  0  0  0  0  0  0  0  0
   62.2193   29.2627   50.7487 H   0  0  0  0  0  0  0  0  0  0  0  0
   58.6254   29.5841   50.7144 H   0  0  0  0  0  0  0  0  0  0  0  0
   59.3622   30.4919   52.0775 H   0  0  0  0  0  0  0  0  0  0  0  0
   57.5790   31.4740   50.0575 H   0  0  0  0  0  0  0  0  0  0  0  0
   58.4010   32.4015   51.3679 H   0  0  0  0  0  0  0  0  0  0  0  0
   59.1010   34.2859   50.3253 H   0  0  0  0  0  0  0  0  0  0  0  0
   60.4642   33.3337   51.0000 H   0  0  0  0  0  0  0  0  0  0  0  0
   60.4244   34.0690   48.0508 H   0  0  0  0  0  0  0  0  0  0  0  0
   60.9625   35.2697   49.2822 H   0  0  0  0  0  0  0  0  0  0  0  0
   62.0656   34.0256   47.1069 H   0  0  0  0  0  0  0  0  0  0  0  0
   63.7024   33.8586   47.8308 H   0  0  0  0  0  0  0  0  0  0  0  0
   62.6774   31.9192   46.3116 H   0  0  0  0  0  0  0  0  0  0  0  0
   63.6390   31.5327   47.7889 H   0  0  0  0  0  0  0  0  0  0  0  0
   61.2400   31.5330   48.9290 H   0  0  0  0  0  0  0  0  0  0  0  0
   59.2241   29.0064   47.7191 H   0  0  0  0  0  0  0  0  0  0  0  0
   59.0931   30.6630   48.4134 H   0  0  0  0  0  0  0  0  0  0  0  0
   56.4761   29.1076   43.9464 H   0  0  0  0  0  0  0  0  0  0  0  0
   56.2073   31.4938   43.3235 H   0  0  0  0  0  0  0  0  0  0  0  0
   56.7414   33.8177   43.6389 H   0  0  0  0  0  0  0  0  0  0  0  0
   57.9677   35.6131   44.8537 H   0  0  0  0  0  0  0  0  0  0  0  0
   59.4483   35.0344   46.7741 H   0  0  0  0  0  0  0  0  0  0  0  0
   59.7013   32.6700   47.5006 H   0  0  0  0  0  0  0  0  0  0  0  0
  1  2  1  0
  2  3  1  0
  3  4  1  0
  4  5  1  0
  5  6  1  0
  6  7  1  0
  7  8  1  0
  8  9  1  0
  9 10  1  0
 10 11  1  0
 11 12  1  0
 12 13  1  0
 13 14  2  0
 13 15  1  0
 15 16  1  0
 16 17  2  0
 17 18  1  0
 17 19  1  0
 19 20  2  0
 20 21  1  0
 21 22  2  0
 22 23  1  0
 23 24  2  0
 24 25  1  0
 25 26  2  0
 26 16  1  0
 26 21  1  0
  1 27  1  0
  1 28  1  0
  1 29  1  0
  2 30  1  0
  2 31  1  0
  4 32  1  0
  4 33  1  0
  5 34  1  0
  5 35  1  0
  7 36  1  0
  7 37  1  0
  8 38  1  0
  8 39  1  0
 10 40  1  0
 10 41  1  0
 11 42  1  0
 11 43  1  0
 12 44  1  0
 15 45  1  0
 15 46  1  0
 19 47  1  0
 20 48  1  0
 22 49  1  0
 23 50  1  0
 24 51  1  0
 25 52  1  0
M  END
>  <UniqueID>  (12) 
12

>  <SMILES>  (12) 
CCOCCOCCOCCNC(=O)Cc1c(Br)ccc2ccccc12

>  <Energy>  (12) 
48.2828644121739

>  <Genealogy>  (12) 
CCOCCOCCOCCNC(=O)Cc1c(Br)ccc2ccccc12 (3D coordinates assigned)
CCOCCOCCOCCNC(=O)Cc1c(Br)ccc2ccccc12 (optimized conformer: 48.2828644121739 kcal/mol)

>  <smiles>  (12) 
CCOCCOCCOCCNC(=O)Cc1c(Br)ccc2ccccc12

>  <score_type>  (12) 
oracle

>  <origin>  (12) 
adg

>  <m_score__min__energy>  (12) 
-6.6500000000000004

>  <m_primary>  (12) 
energy

$$$$
12:0
     RDKit          3D

 45 47  0  0  0  0  0  0  0  0999 V2000
   58.8571   23.3311   46.7755 H   0  0  0  0  0  0  0  0  0  0  0  0
   58.0680   24.0840   46.6330 C   0  0  0  0  0  0  0  0  0  0  0  0
   56.7670   23.7010   46.5850 N   0  0  0  0  0  0  0  0  0  0  0  0
   55.7760   24.6120   46.4100 C   0  0  0  0  0  0  0  0  0  0  0  0
   54.5400   24.2130   46.3670 N   0  0  0  0  0  0  0  0  0  0  0  0
   53.6910   24.2460   45.1770 C   0  0  0  0  0  0  0  0  0  0  0  0
   53.3800   25.2833   44.9839 H   0  0  0  0  0  0  0  0  0  0  0  0
   52.8107   23.6102   45.3527 H   0  0  0  0  0  0  0  0  0  0  0  0
   54.4520   23.7100   43.9510 C   0  0  0  0  0  0  0  0  0  0  0  0
   55.0620   24.5225   43.5296 H   0  0  0  0  0  0  0  0  0  0  0  0
   53.7097   23.3485   43.2241 H   0  0  0  0  0  0  0  0  0  0  0  0
   55.3350   22.5830   44.2940 N   0  0  0  0  0  0  0  0  0  0  0  0
   55.5050   22.5690   45.3270 H   0  0  0  0  0  0  0  0  0  0  0  0
   56.6260   22.6360   43.5900 C   0  0  0  0  0  0  0  0  0  0  0  0
   56.5396   22.1009   42.6328 H   0  0  0  0  0  0  0  0  0  0  0  0
   57.3956   22.1633   44.2179 H   0  0  0  0  0  0  0  0  0  0  0  0
   57.0240   24.0830   43.3230 C   0  0  0  0  0  0  0  0  0  0  0  0
   57.1679   24.6062   44.2798 H   0  0  0  0  0  0  0  0  0  0  0  0
   57.9616   24.1053   42.7482 H   0  0  0  0  0  0  0  0  0  0  0  0
   56.2297   24.5817   42.7482 H   0  0  0  0  0  0  0  0  0  0  0  0
   56.0910   25.9320   46.2850 N   0  0  0  0  0  0  0  0  0  0  0  0
   57.3780   26.3700   46.3300 C   0  0  0  0  0  0  0  0  0  0  0  0
   57.6560   27.8210   46.1750 C   0  0  0  0  0  0  0  0  0  0  0  0
   57.0130   28.5500   45.1580 C   0  0  0  0  0  0  0  0  0  0  0  0
   56.3109   28.0396   44.4824 H   0  0  0  0  0  0  0  0  0  0  0  0
   57.2580   29.9170   44.9980 C   0  0  0  0  0  0  0  0  0  0  0  0
   56.7530   30.4706   44.1927 H   0  0  0  0  0  0  0  0  0  0  0  0
   58.1430   30.5900   45.8560 C   0  0  0  0  0  0  0  0  0  0  0  0
   58.4010   32.0430   45.6860 C   0  0  0  0  0  0  0  0  0  0  0  0
   57.5040   32.8490   44.9600 C   0  0  0  0  0  0  0  0  0  0  0  0
   56.6043   32.4000   44.5139 H   0  0  0  0  0  0  0  0  0  0  0  0
   57.7490   34.2170   44.8020 C   0  0  0  0  0  0  0  0  0  0  0  0
   57.0441   34.8383   44.2301 H   0  0  0  0  0  0  0  0  0  0  0  0
   58.8870   34.7960   45.3690 C   0  0  0  0  0  0  0  0  0  0  0  0
   59.0764   35.8725   45.2451 H   0  0  0  0  0  0  0  0  0  0  0  0
   59.7840   34.0080   46.0930 C   0  0  0  0  0  0  0  0  0  0  0  0
   60.6794   34.4648   46.5398 H   0  0  0  0  0  0  0  0  0  0  0  0
   59.5460   32.6390   46.2510 C   0  0  0  0  0  0  0  0  0  0  0  0
   60.2577   32.0231   46.8204 H   0  0  0  0  0  0  0  0  0  0  0  0
   58.7780   29.8670   46.8800 C   0  0  0  0  0  0  0  0  0  0  0  0
   59.4710   30.3813   47.5620 H   0  0  0  0  0  0  0  0  0  0  0  0
   58.5360   28.4990   47.0390 C   0  0  0  0  0  0  0  0  0  0  0  0
   59.0384   27.9474   47.8473 H   0  0  0  0  0  0  0  0  0  0  0  0
   58.4060   25.4300   46.5020 C   0  0  0  0  0  0  0  0  0  0  0  0
   59.4582   25.7493   46.5328 H   0  0  0  0  0  0  0  0  0  0  0  0
  1  2  1  0
  2  3  1  0
  3  4  1  0
  4  5  2  0
  5  6  1  0
  6  7  1  0
  6  8  1  0
  6  9  1  0
  9 10  1  0
  9 11  1  0
  9 12  1  0
 12 13  1  0
 12 14  1  0
 14 15  1  0
 14 16  1  0
 14 17  1  0
 17 18  1  0
 17 19  1  0
 17 20  1  0
  4 21  1  0
 21 22  2  0
 22 23  1  0
 23 24  2  0
 24 25  1  0
 24 26  1  0
 26 27  1  0
 26 28  2  0
 28 29  1  0
 29 30  2  0
 30 31  1  0
 30 32  1  0
 32 33  1  0
 32 34  2  0
 34 35  1  0
 34 36  1  0
 36 37  1  0
 36 38  2  0
 38 39  1  0
 28 40  1  0
 40 41  1  0
 40 42  2  0
 42 43  1  0
 22 44  1  0
 44 45  1  0
 44  2  2  0
 42 23  1  0
 38 29  1  0
M  CHG  1   3  -1
M  END
>  <UniqueID>  (13) 
13

>  <SMILES>  (13) 
CCNCC/N=c1\nc(-c2ccc(-c3ccccc3)cc2)cc[n-]1

>  <Energy>  (13) 
53.97058407795848

>  <Genealogy>  (13) 
CCNCCN=c1nc(-c2ccc(-c3ccccc3)cc2)cc[n-]1 (protonated)
CCNCC/N=c1\nc(-c2ccc(-c3ccccc3)cc2)cc[n-]1 (cis-trans isomerization)
CCNCC/N=c1\nc(-c2ccc(-c3ccccc3)cc2)cc[n-]1 (3D coordinates assigned)
CCNCC/N=c1\nc(-c2ccc(-c3ccccc3)cc2)cc[n-]1 (optimized conformer: 53.97058407795848 kcal/mol)

>  <smiles>  (13) 
CCNCCN=c1nc(-c2ccc(-c3ccccc3)cc2)cc[nH]1

>  <score_type>  (13) 
oracle

>  <origin>  (13) 
adg

>  <m_score__min__energy>  (13) 
-9.2799999999999994

>  <m_primary>  (13) 
energy

$$$$
13:0
     RDKit          3D

 68 70  0  0  0  0  0  0  0  0999 V2000
   65.2430   32.3620   50.1570 C   0  0  0  0  0  0  0  0  0  0  0  0
   63.8220   32.1860   50.6940 C   0  0  0  0  0  0  0  0  0  0  0  0
   62.8690   31.9620   49.5950 N   0  0  0  0  0  0  0  0  0  0  0  0
   63.4920   31.9840   48.2610 C   0  0  0  0  0  0  0  0  0  0  0  0
   62.5530   31.4610   47.1510 C   0  0  0  0  0  0  0  0  0  0  0  0
   61.2730   30.9350   47.6780 N   0  0  0  0  0  0  0  0  0  0  0  0
   60.1960   30.9990   46.7000 C   0  0  0  0  0  0  0  0  0  0  0  0
   59.7460   29.7700   46.1150 C   0  0  0  0  0  0  0  0  0  0  0  0
   60.3510   28.5180   46.4260 C   0  0  0  0  0  0  0  0  0  0  0  0
   59.9160   27.3330   45.8390 C   0  0  0  0  0  0  0  0  0  0  0  0
   58.8840   27.3510   44.9170 C   0  0  0  0  0  0  0  0  0  0  0  0
   58.2640   28.5520   44.5960 C   0  0  0  0  0  0  0  0  0  0  0  0
   58.6580   29.7750   45.2050 C   0  0  0  0  0  0  0  0  0  0  0  0
   58.0080   30.9460   44.9150 N   0  0  0  0  0  0  0  0  0  0  0  0
   56.6760   30.9040   44.2610 C   0  0  0  0  0  0  0  0  0  0  0  0
   58.5710   32.1570   45.2510 C   0  0  0  0  0  0  0  0  0  0  0  0
   58.1240   33.3310   44.6010 C   0  0  0  0  0  0  0  0  0  0  0  0
   58.5510   34.5830   44.9940 C   0  0  0  0  0  0  0  0  0  0  0  0
   59.4350   34.7080   46.0430 C   0  0  0  0  0  0  0  0  0  0  0  0
   59.9810   33.5850   46.6750 C   0  0  0  0  0  0  0  0  0  0  0  0
   61.0230   34.0590   48.0720 S   0  0  0  0  0  0  0  0  0  0  0  0
   59.6400   34.3680   49.2350 C   0  0  0  0  0  0  0  0  0  0  0  0
   59.7070   33.4480   50.4640 C   0  0  0  0  0  0  0  0  0  0  0  0
   58.5550   32.4310   50.5730 C   0  0  0  0  0  0  0  0  0  0  0  0
   58.5710   31.3730   49.4590 C   0  0  0  0  0  0  0  0  0  0  0  0
   59.0700   30.0270   50.0050 C   0  0  0  0  0  0  0  0  0  0  0  0
   60.5480   30.0050   50.1110 N   0  0  0  0  0  0  0  0  0  0  0  0
   61.0710   28.6480   49.8680 C   0  0  0  0  0  0  0  0  0  0  0  0
   60.9610   30.4530   51.4530 C   0  0  0  0  0  0  0  0  0  0  0  0
   59.6130   32.2460   46.2420 C   0  0  0  0  0  0  0  0  0  0  0  0
   65.9451   32.4490   50.9993 H   0  0  0  0  0  0  0  0  0  0  0  0
   65.5134   31.4905   49.5427 H   0  0  0  0  0  0  0  0  0  0  0  0
   65.2926   33.2732   49.5427 H   0  0  0  0  0  0  0  0  0  0  0  0
   63.7982   31.3210   51.3732 H   0  0  0  0  0  0  0  0  0  0  0  0
   63.5325   33.1026   51.2288 H   0  0  0  0  0  0  0  0  0  0  0  0
   62.3920   31.0410   49.7400 H   0  0  0  0  0  0  0  0  0  0  0  0
   63.7747   33.0200   48.0225 H   0  0  0  0  0  0  0  0  0  0  0  0
   64.3673   31.3185   48.2941 H   0  0  0  0  0  0  0  0  0  0  0  0
   62.3342   32.2872   46.4585 H   0  0  0  0  0  0  0  0  0  0  0  0
   63.0686   30.6299   46.6476 H   0  0  0  0  0  0  0  0  0  0  0  0
   60.9990   31.4890   48.5200 H   0  0  0  0  0  0  0  0  0  0  0  0
   61.3860   30.0170   48.1270 H   0  0  0  0  0  0  0  0  0  0  0  0
   61.1813   28.4871   47.1469 H   0  0  0  0  0  0  0  0  0  0  0  0
   60.3939   26.3797   46.1088 H   0  0  0  0  0  0  0  0  0  0  0  0
   58.5554   26.4162   44.4393 H   0  0  0  0  0  0  0  0  0  0  0  0
   57.4510   28.5570   43.8550 H   0  0  0  0  0  0  0  0  0  0  0  0
   55.8903   30.8792   45.0305 H   0  0  0  0  0  0  0  0  0  0  0  0
   56.5470   31.7985   43.6340 H   0  0  0  0  0  0  0  0  0  0  0  0
   56.6036   30.0031   43.6340 H   0  0  0  0  0  0  0  0  0  0  0  0
   57.4186   33.2439   43.7615 H   0  0  0  0  0  0  0  0  0  0  0  0
   58.1863   35.4792   44.4707 H   0  0  0  0  0  0  0  0  0  0  0  0
   59.7179   35.7122   46.3915 H   0  0  0  0  0  0  0  0  0  0  0  0
   59.6855   35.4143   49.5714 H   0  0  0  0  0  0  0  0  0  0  0  0
   58.6978   34.1615   48.7061 H   0  0  0  0  0  0  0  0  0  0  0  0
   60.6538   32.8895   50.4222 H   0  0  0  0  0  0  0  0  0  0  0  0
   59.6274   34.1018   51.3450 H   0  0  0  0  0  0  0  0  0  0  0  0
   58.6328   31.9180   51.5429 H   0  0  0  0  0  0  0  0  0  0  0  0
   57.6142   32.9926   50.4755 H   0  0  0  0  0  0  0  0  0  0  0  0
   57.5523   31.2482   49.0632 H   0  0  0  0  0  0  0  0  0  0  0  0
   59.2491   31.7070   48.6599 H   0  0  0  0  0  0  0  0  0  0  0  0
   58.6365   29.8617   51.0024 H   0  0  0  0  0  0  0  0  0  0  0  0
   58.7593   29.2331   49.3099 H   0  0  0  0  0  0  0  0  0  0  0  0
   61.2625   28.1511   50.8305 H   0  0  0  0  0  0  0  0  0  0  0  0
   60.3323   28.0673   49.2961 H   0  0  0  0  0  0  0  0  0  0  0  0
   62.0084   28.7133   49.2961 H   0  0  0  0  0  0  0  0  0  0  0  0
   60.4237   29.8702   52.2156 H   0  0  0  0  0  0  0  0  0  0  0  0
   62.0441   30.3028   51.5725 H   0  0  0  0  0  0  0  0  0  0  0  0
   60.7234   31.5204   51.5725 H   0  0  0  0  0  0  0  0  0  0  0  0
  1  2  1  0
  2  3  1  0
  3  4  1  0
  4  5  1  0
  5  6  1  0
  6  7  1  0
  7  8  2  0
  8  9  1  0
  9 10  2  0
 10 11  1  0
 11 12  2  0
 12 13  1  0
 13 14  2  0
 14 15  1  0
 14 16  1  0
 16 17  2  0
 17 18  1  0
 18 19  2  0
 19 20  1  0
 20 21  1  0
 21 22  1  0
 22 23  1  0
 23 24  1  0
 24 25  1  0
 25 26  1  0
 26 27  1  0
 27 28  1  0
 27 29  1  0
 20 30  2  0
 30  7  1  0
 13  8  1  0
 30 16  1  0
  1 31  1  0
  1 32  1  0
  1 33  1  0
  2 34  1  0
  2 35  1  0
  3 36  1  0
  4 37  1  0
  4 38  1  0
  5 39  1  0
  5 40  1  0
  6 41  1  0
  6 42  1  0
  9 43  1  0
 10 44  1  0
 11 45  1  0
 12 46  1  0
 15 47  1  0
 15 48  1  0
 15 49  1  0
 17 50  1  0
 18 51  1  0
 19 52  1  0
 22 53  1  0
 22 54  1  0
 23 55  1  0
 23 56  1  0
 24 57  1  0
 24 58  1  0
 25 59  1  0
 25 60  1  0
 26 61  1  0
 26 62  1  0
 28 63  1  0
 28 64  1  0
 28 65  1  0
 29 66  1  0
 29 67  1  0
 29 68  1  0
M  CHG  2   6   1  14   1
M  END
>  <UniqueID>  (14) 
14

>  <SMILES>  (14) 
CCNCC[NH2+]c1c2ccccc2[n+](C)c2cccc(SCCCCCN(C)C)c12

>  <Energy>  (14) 
107.40808486346606

>  <Genealogy>  (14) 
CCNCC[NH2+]c1c2ccccc2[n+](C)c2cccc(SCCCCCN(C)C)c12 (protonated)
CCNCC[NH2+]c1c2ccccc2[n+](C)c2cccc(SCCCCCN(C)C)c12 (3D coordinates assigned)
CCNCC[NH2+]c1c2ccccc2[n+](C)c2cccc(SCCCCCN(C)C)c12 (optimized conformer: 107.40808486346606 kcal/mol)

>  <smiles>  (14) 
CCNCCNc1c2ccccc2[n+](C)c2cccc(SCCCCCN(C)C)c12

>  <score_type>  (14) 
oracle

>  <origin>  (14) 
adg

>  <m_score__min__energy>  (14) 
-4.2800000000000002

>  <m_primary>  (14) 
energy

$$$$
14:0
     RDKit          3D

 59 60  0  0  0  0  0  0  0  0999 V2000
   55.1770   25.2870   45.6360 C   0  0  0  0  0  0  0  0  0  0  0  0
   55.5540   26.5850   46.0400 O   0  0  0  0  0  0  0  0  0  0  0  0
   56.9620   26.6850   46.1280 C   0  0  0  0  0  0  0  0  0  0  0  0
   57.3810   28.1490   46.2870 C   0  0  0  0  0  0  0  0  0  0  0  0
   57.5900   28.7660   44.9730 N   0  0  0  0  0  0  0  0  0  0  0  0
   56.7040   29.8160   44.5530 C   0  0  0  0  0  0  0  0  0  0  0  0
   55.4810   29.7570   44.8560 O   0  0  0  0  0  0  0  0  0  0  0  0
   57.2160   30.9700   43.7410 C   0  0  0  0  0  0  0  0  0  0  0  0
   58.0910   31.8420   44.5540 N   0  0  0  0  0  0  0  0  0  0  0  0
   57.7670   31.6860   45.9900 C   0  0  0  0  0  0  0  0  0  0  0  0
   58.5560   32.6860   46.8630 C   0  0  0  0  0  0  0  0  0  0  0  0
   59.5590   33.3890   46.0440 N   0  0  0  0  0  0  0  0  0  0  0  0
   60.5640   34.1470   46.8290 C   0  0  0  0  0  0  0  0  0  0  0  0
   62.0340   33.8370   46.5000 C   0  0  0  0  0  0  0  0  0  0  0  0
   62.3430   32.4770   46.7830 O   0  0  0  0  0  0  0  0  0  0  0  0
   61.5840   31.6110   47.5900 C   0  0  0  0  0  0  0  0  0  0  0  0
   61.0400   30.4810   46.9640 C   0  0  0  0  0  0  0  0  0  0  0  0
   60.2350   29.5870   47.6720 C   0  0  0  0  0  0  0  0  0  0  0  0
   59.9750   29.8030   49.0250 C   0  0  0  0  0  0  0  0  0  0  0  0
   60.5350   30.9020   49.6740 C   0  0  0  0  0  0  0  0  0  0  0  0
   61.3450   31.8090   48.9760 C   0  0  0  0  0  0  0  0  0  0  0  0
   62.0880   33.0960   49.9180 Cl  0  0  0  0  0  0  0  0  0  0  0  0
   58.9200   34.1530   44.9560 C   0  0  0  0  0  0  0  0  0  0  0  0
   57.9530   33.2590   44.1520 C   0  0  0  0  0  0  0  0  0  0  0  0
   58.6580   28.2700   44.0870 C   0  0  0  0  0  0  0  0  0  0  0  0
   58.1590   27.1190   43.2080 C   0  0  0  0  0  0  0  0  0  0  0  0
   59.8850   27.8500   44.9020 C   0  0  0  0  0  0  0  0  0  0  0  0
   54.9962   24.6644   46.5247 H   0  0  0  0  0  0  0  0  0  0  0  0
   54.2579   25.3428   45.0342 H   0  0  0  0  0  0  0  0  0  0  0  0
   55.9829   24.8417   45.0342 H   0  0  0  0  0  0  0  0  0  0  0  0
   57.3131   26.1104   46.9978 H   0  0  0  0  0  0  0  0  0  0  0  0
   57.4079   26.2829   45.2063 H   0  0  0  0  0  0  0  0  0  0  0  0
   56.5913   28.6960   46.8229 H   0  0  0  0  0  0  0  0  0  0  0  0
   58.3220   28.1914   46.8551 H   0  0  0  0  0  0  0  0  0  0  0  0
   57.7889   30.5822   42.8858 H   0  0  0  0  0  0  0  0  0  0  0  0
   56.3570   31.5621   43.3922 H   0  0  0  0  0  0  0  0  0  0  0  0
   56.6902   31.8589   46.1338 H   0  0  0  0  0  0  0  0  0  0  0  0
   58.0458   30.6671   46.2968 H   0  0  0  0  0  0  0  0  0  0  0  0
   57.8600   33.4198   47.2956 H   0  0  0  0  0  0  0  0  0  0  0  0
   59.0676   32.1372   47.6674 H   0  0  0  0  0  0  0  0  0  0  0  0
   60.3956   35.2191   46.6494 H   0  0  0  0  0  0  0  0  0  0  0  0
   60.4192   33.8441   47.8765 H   0  0  0  0  0  0  0  0  0  0  0  0
   62.2127   34.0320   45.4323 H   0  0  0  0  0  0  0  0  0  0  0  0
   62.6756   34.4792   47.1212 H   0  0  0  0  0  0  0  0  0  0  0  0
   61.2503   30.2962   45.9002 H   0  0  0  0  0  0  0  0  0  0  0  0
   59.8056   28.7118   47.1625 H   0  0  0  0  0  0  0  0  0  0  0  0
   59.3286   29.1067   49.5794 H   0  0  0  0  0  0  0  0  0  0  0  0
   60.3395   31.0594   50.7450 H   0  0  0  0  0  0  0  0  0  0  0  0
   58.3582   34.9943   45.3880 H   0  0  0  0  0  0  0  0  0  0  0  0
   59.7034   34.5230   44.2782 H   0  0  0  0  0  0  0  0  0  0  0  0
   56.9197   33.5875   44.3373 H   0  0  0  0  0  0  0  0  0  0  0  0
   58.1969   33.3477   43.0831 H   0  0  0  0  0  0  0  0  0  0  0  0
   58.9556   29.0921   43.4195 H   0  0  0  0  0  0  0  0  0  0  0  0
   57.8028   26.2975   43.8469 H   0  0  0  0  0  0  0  0  0  0  0  0
   57.3339   27.4737   42.5729 H   0  0  0  0  0  0  0  0  0  0  0  0
   58.9819   26.7592   42.5729 H   0  0  0  0  0  0  0  0  0  0  0  0
   59.6566   27.9282   45.9752 H   0  0  0  0  0  0  0  0  0  0  0  0
   60.1489   26.8104   44.6581 H   0  0  0  0  0  0  0  0  0  0  0  0
   60.7306   28.5098   44.6581 H   0  0  0  0  0  0  0  0  0  0  0  0
  1  2  1  0
  2  3  1  0
  3  4  1  0
  4  5  1  0
  5  6  1  0
  6  7  2  0
  6  8  1  0
  8  9  1  0
  9 10  1  0
 10 11  1  0
 11 12  1  0
 12 13  1  0
 13 14  1  0
 14 15  1  0
 15 16  1  0
 16 17  2  0
 17 18  1  0
 18 19  2  0
 19 20  1  0
 20 21  2  0
 21 22  1  0
 12 23  1  0
 23 24  1  0
  5 25  1  0
 25 26  1  0
 25 27  1  0
 24  9  1  0
 21 16  1  0
  1 28  1  0
  1 29  1  0
  1 30  1  0
  3 31  1  0
  3 32  1  0
  4 33  1  0
  4 34  1  0
  8 35  1  0
  8 36  1  0
 10 37  1  0
 10 38  1  0
 11 39  1  0
 11 40  1  0
 13 41  1  0
 13 42  1  0
 14 43  1  0
 14 44  1  0
 17 45  1  0
 18 46  1  0
 19 47  1  0
 20 48  1  0
 23 49  1  0
 23 50  1  0
 24 51  1  0
 24 52  1  0
 25 53  1  0
 26 54  1  0
 26 55  1  0
 26 56  1  0
 27 57  1  0
 27 58  1  0
 27 59  1  0
M  END
>  <UniqueID>  (15) 
15

>  <SMILES>  (15) 
COCCN(C(=O)CN1CCN(CCOc2ccccc2Cl)CC1)C(C)C

>  <Energy>  (15) 
73.88500584304289

>  <Genealogy>  (15) 
COCCN(C(=O)CN1CCN(CCOc2ccccc2Cl)CC1)C(C)C (3D coordinates assigned)
COCCN(C(=O)CN1CCN(CCOc2ccccc2Cl)CC1)C(C)C (nonaromatic ring conformer: 73.88500584304289 kcal/mol)

>  <smiles>  (15) 
COCCN(C(=O)CN1CCN(CCOc2ccccc2Cl)CC1)C(C)C

>  <score_type>  (15) 
oracle

>  <origin>  (15) 
adg

>  <m_score__min__energy>  (15) 
-8.5299999999999994

>  <m_primary>  (15) 
energy

$$$$
15:0
     RDKit          3D

 55 57  0  0  0  0  0  0  0  0999 V2000
   59.6060   35.0680   46.2840 C   0  0  0  0  0  0  0  0  0  0  0  0
   59.2020   34.1840   45.1050 C   0  0  0  0  0  0  0  0  0  0  0  0
   58.2140   33.1630   45.5180 N   0  0  0  0  0  0  0  0  0  0  0  0
   57.1730   33.7850   46.3550 C   0  0  0  0  0  0  0  0  0  0  0  0
   57.6090   32.4580   44.3600 C   0  0  0  0  0  0  0  0  0  0  0  0
   57.7490   30.9350   44.5270 C   0  0  0  0  0  0  0  0  0  0  0  0
   57.4800   30.4800   45.9040 N   0  0  0  0  0  0  0  0  0  0  0  0
   58.4420   29.4710   46.3750 C   0  0  0  0  0  0  0  0  0  0  0  0
   59.5720   30.1260   47.1810 C   0  0  0  0  0  0  0  0  0  0  0  0
   59.4330   31.5910   47.2140 N   0  0  0  0  0  0  0  0  0  0  0  0
   60.1640   32.1460   48.3440 C   0  0  0  0  0  0  0  0  0  0  0  0
   61.4800   32.6510   48.1790 C   0  0  0  0  0  0  0  0  0  0  0  0
   62.0830   32.7580   46.9000 C   0  0  0  0  0  0  0  0  0  0  0  0
   63.4090   33.1580   46.7610 C   0  0  0  0  0  0  0  0  0  0  0  0
   64.1670   33.4570   47.8830 C   0  0  0  0  0  0  0  0  0  0  0  0
   63.5880   33.4110   49.1480 C   0  0  0  0  0  0  0  0  0  0  0  0
   62.2220   33.0670   49.3210 C   0  0  0  0  0  0  0  0  0  0  0  0
   61.6210   33.1210   50.5630 N   0  0  0  0  0  0  0  0  0  0  0  0
   62.2910   33.8350   51.6750 C   0  0  0  0  0  0  0  0  0  0  0  0
   60.3720   32.5650   50.7570 C   0  0  0  0  0  0  0  0  0  0  0  0
   59.8360   32.3940   52.0600 C   0  0  0  0  0  0  0  0  0  0  0  0
   58.5360   31.9300   52.2530 C   0  0  0  0  0  0  0  0  0  0  0  0
   57.8420   31.7320   54.0220 Br  0  0  0  0  0  0  0  0  0  0  0  0
   57.7420   31.6200   51.1580 C   0  0  0  0  0  0  0  0  0  0  0  0
   58.2590   31.7180   49.8700 C   0  0  0  0  0  0  0  0  0  0  0  0
   59.5930   32.1390   49.6450 C   0  0  0  0  0  0  0  0  0  0  0  0
   59.3703   34.5523   47.2266 H   0  0  0  0  0  0  0  0  0  0  0  0
   60.6861   35.2707   46.2371 H   0  0  0  0  0  0  0  0  0  0  0  0
   59.0524   36.0174   46.2371 H   0  0  0  0  0  0  0  0  0  0  0  0
   58.7603   34.8138   44.3187 H   0  0  0  0  0  0  0  0  0  0  0  0
   60.0995   33.6699   44.7304 H   0  0  0  0  0  0  0  0  0  0  0  0
   57.4197   33.6376   47.4168 H   0  0  0  0  0  0  0  0  0  0  0  0
   57.1218   34.8619   46.1365 H   0  0  0  0  0  0  0  0  0  0  0  0
   56.2004   33.3199   46.1365 H   0  0  0  0  0  0  0  0  0  0  0  0
   56.5425   32.7189   44.2936 H   0  0  0  0  0  0  0  0  0  0  0  0
   58.1311   32.7660   43.4421 H   0  0  0  0  0  0  0  0  0  0  0  0
   57.0374   30.4410   43.8491 H   0  0  0  0  0  0  0  0  0  0  0  0
   58.7906   30.6720   44.2907 H   0  0  0  0  0  0  0  0  0  0  0  0
   56.5100   30.0960   45.9750 H   0  0  0  0  0  0  0  0  0  0  0  0
   57.9183   28.7446   47.0138 H   0  0  0  0  0  0  0  0  0  0  0  0
   58.8801   28.9678   45.5004 H   0  0  0  0  0  0  0  0  0  0  0  0
   59.5455   29.7413   48.2112 H   0  0  0  0  0  0  0  0  0  0  0  0
   60.5283   29.8812   46.6957 H   0  0  0  0  0  0  0  0  0  0  0  0
   58.4250   31.8600   47.2420 H   0  0  0  0  0  0  0  0  0  0  0  0
   59.7590   32.0180   46.3200 H   0  0  0  0  0  0  0  0  0  0  0  0
   61.4929   32.5209   46.0025 H   0  0  0  0  0  0  0  0  0  0  0  0
   63.8564   33.2371   45.7592 H   0  0  0  0  0  0  0  0  0  0  0  0
   65.2267   33.7308   47.7733 H   0  0  0  0  0  0  0  0  0  0  0  0
   64.2010   33.6458   50.0306 H   0  0  0  0  0  0  0  0  0  0  0  0
   61.9242   33.4441   52.6355 H   0  0  0  0  0  0  0  0  0  0  0  0
   63.3781   33.6809   51.6075 H   0  0  0  0  0  0  0  0  0  0  0  0
   62.0682   34.9101   51.6075 H   0  0  0  0  0  0  0  0  0  0  0  0
   60.4588   32.6324   52.9348 H   0  0  0  0  0  0  0  0  0  0  0  0
   56.7016   31.2961   51.3086 H   0  0  0  0  0  0  0  0  0  0  0  0
   57.6206   31.4641   49.0110 H   0  0  0  0  0  0  0  0  0  0  0  0
  1  2  1  0
  2  3  1  0
  3  4  1  0
  3  5  1  0
  5  6  1  0
  6  7  1  0
  7  8  1  0
  8  9  1  0
  9 10  1  0
 10 11  1  0
 11 12  2  0
 12 13  1  0
 13 14  2  0
 14 15  1  0
 15 16  2  0
 16 17  1  0
 17 18  2  0
 18 19  1  0
 18 20  1  0
 20 21  2  0
 21 22  1  0
 22 23  1  0
 22 24  2  0
 24 25  1  0
 25 26  2  0
 26 11  1  0
 17 12  1  0
 26 20  1  0
  1 27  1  0
  1 28  1  0
  1 29  1  0
  2 30  1  0
  2 31  1  0
  4 32  1  0
  4 33  1  0
  4 34  1  0
  5 35  1  0
  5 36  1  0
  6 37  1  0
  6 38  1  0
  7 39  1  0
  8 40  1  0
  8 41  1  0
  9 42  1  0
  9 43  1  0
 10 44  1  0
 10 45  1  0
 13 46  1  0
 14 47  1  0
 15 48  1  0
 16 49  1  0
 19 50  1  0
 19 51  1  0
 19 52  1  0
 21 53  1  0
 24 54  1  0
 25 55  1  0
M  CHG  2  10   1  18   1
M  END
>  <UniqueID>  (16) 
16

>  <SMILES>  (16) 
CCN(C)CCNCC[NH2+]c1c2ccccc2[n+](C)c2cc(Br)ccc12

>  <Energy>  (16) 
83.82390060887832

>  <Genealogy>  (16) 
CCN(C)CCNCC[NH2+]c1c2ccccc2[n+](C)c2cc(Br)ccc12 (protonated)
CCN(C)CCNCC[NH2+]c1c2ccccc2[n+](C)c2cc(Br)ccc12 (3D coordinates assigned)
CCN(C)CCNCC[NH2+]c1c2ccccc2[n+](C)c2cc(Br)ccc12 (optimized conformer: 83.82390060887832 kcal/mol)

>  <smiles>  (16) 
CCN(C)CCNCCNc1c2ccccc2[n+](C)c2cc(Br)ccc12

>  <score_type>  (16) 
oracle

>  <origin>  (16) 
adg

>  <m_score__min__energy>  (16) 
-4.1500000000000004

>  <m_primary>  (16) 
energy

$$$$
16:0
     RDKit          3D

 69 70  0  0  0  0  0  0  0  0999 V2000
   57.4150   31.5560   43.0780 C   0  0  0  0  0  0  0  0  0  0  0  0
   56.7140   31.5400   44.4310 C   0  0  0  0  0  0  0  0  0  0  0  0
   56.5710   30.2080   44.8930 O   0  0  0  0  0  0  0  0  0  0  0  0
   57.0080   29.2780   43.9190 C   0  0  0  0  0  0  0  0  0  0  0  0
   57.5110   28.0020   44.5900 C   0  0  0  0  0  0  0  0  0  0  0  0
   57.0320   27.9580   45.9180 O   0  0  0  0  0  0  0  0  0  0  0  0
   57.3020   26.7010   46.5070 C   0  0  0  0  0  0  0  0  0  0  0  0
   58.6000   26.7570   47.3190 C   0  0  0  0  0  0  0  0  0  0  0  0
   59.0740   28.0880   47.4190 O   0  0  0  0  0  0  0  0  0  0  0  0
   60.2280   28.2960   46.6230 C   0  0  0  0  0  0  0  0  0  0  0  0
   60.1050   29.6220   45.8750 C   0  0  0  0  0  0  0  0  0  0  0  0
   58.9340   30.3580   46.3390 N   0  0  0  0  0  0  0  0  0  0  0  0
   59.0630   31.5570   47.1140 C   0  0  0  0  0  0  0  0  0  0  0  0
   59.1470   31.6650   48.4980 C   0  0  0  0  0  0  0  0  0  0  0  0
   59.1960   30.5470   49.4990 C   0  0  0  0  0  0  0  0  0  0  0  0
   60.1510   30.8470   50.5770 N   0  0  0  0  0  0  0  0  0  0  0  0
   61.3160   29.9420   50.5780 C   0  0  0  0  0  0  0  0  0  0  0  0
   62.6050   30.6270   50.0870 C   0  0  0  0  0  0  0  0  0  0  0  0
   62.2900   31.8180   49.2650 N   0  0  0  0  0  0  0  0  0  0  0  0
   63.0080   33.0240   49.7360 C   0  0  0  0  0  0  0  0  0  0  0  0
   62.1130   34.2660   49.8590 C   0  0  0  0  0  0  0  0  0  0  0  0
   62.4450   31.5930   47.8080 C   0  0  0  0  0  0  0  0  0  0  0  0
   63.3050   32.6930   47.1850 C   0  0  0  0  0  0  0  0  0  0  0  0
   59.3610   32.9620   48.8360 N   0  0  0  0  0  0  0  0  0  0  0  0
   59.3980   33.6010   47.6480 C   0  0  0  0  0  0  0  0  0  0  0  0
   59.6100   34.9660   47.4660 C   0  0  0  0  0  0  0  0  0  0  0  0
   59.6440   35.4510   46.1490 C   0  0  0  0  0  0  0  0  0  0  0  0
   59.4650   34.5720   45.0620 C   0  0  0  0  0  0  0  0  0  0  0  0
   59.2550   33.2060   45.3040 C   0  0  0  0  0  0  0  0  0  0  0  0
   59.2330   32.7820   46.5940 N   0  0  0  0  0  0  0  0  0  0  0  0
   58.5042   31.5809   43.2296 H   0  0  0  0  0  0  0  0  0  0  0  0
   57.1439   30.6514   42.5139 H   0  0  0  0  0  0  0  0  0  0  0  0
   57.1029   32.4473   42.5139 H   0  0  0  0  0  0  0  0  0  0  0  0
   57.3102   32.1138   45.1558 H   0  0  0  0  0  0  0  0  0  0  0  0
   55.7166   31.9914   44.3236 H   0  0  0  0  0  0  0  0  0  0  0  0
   56.1690   29.0304   43.2520 H   0  0  0  0  0  0  0  0  0  0  0  0
   57.8302   29.7257   43.3415 H   0  0  0  0  0  0  0  0  0  0  0  0
   57.1432   27.1253   44.0366 H   0  0  0  0  0  0  0  0  0  0  0  0
   58.6110   27.9937   44.5925 H   0  0  0  0  0  0  0  0  0  0  0  0
   56.4702   26.4268   47.1725 H   0  0  0  0  0  0  0  0  0  0  0  0
   57.4128   25.9510   45.7100 H   0  0  0  0  0  0  0  0  0  0  0  0
   58.4106   26.3648   48.3291 H   0  0  0  0  0  0  0  0  0  0  0  0
   59.3615   26.1491   46.8086 H   0  0  0  0  0  0  0  0  0  0  0  0
   61.1180   28.3217   47.2689 H   0  0  0  0  0  0  0  0  0  0  0  0
   60.3224   27.4753   45.8967 H   0  0  0  0  0  0  0  0  0  0  0  0
   61.0073   30.2250   46.0545 H   0  0  0  0  0  0  0  0  0  0  0  0
   59.9963   29.4176   44.7996 H   0  0  0  0  0  0  0  0  0  0  0  0
   58.0490   29.8130   46.4460 H   0  0  0  0  0  0  0  0  0  0  0  0
   58.1949   30.4087   49.9333 H   0  0  0  0  0  0  0  0  0  0  0  0
   59.5229   29.6307   48.9857 H   0  0  0  0  0  0  0  0  0  0  0  0
   60.4770   31.8370   50.4750 H   0  0  0  0  0  0  0  0  0  0  0  0
   61.4792   29.5805   51.6040 H   0  0  0  0  0  0  0  0  0  0  0  0
   61.0949   29.1171   49.8847 H   0  0  0  0  0  0  0  0  0  0  0  0
   63.2018   30.9376   50.9573 H   0  0  0  0  0  0  0  0  0  0  0  0
   63.1694   29.9128   49.4694 H   0  0  0  0  0  0  0  0  0  0  0  0
   63.4395   32.8075   50.7244 H   0  0  0  0  0  0  0  0  0  0  0  0
   63.7770   33.2548   48.9841 H   0  0  0  0  0  0  0  0  0  0  0  0
   61.9479   34.4951   50.9221 H   0  0  0  0  0  0  0  0  0  0  0  0
   62.6037   35.1213   49.3715 H   0  0  0  0  0  0  0  0  0  0  0  0
   61.1464   34.0711   49.3715 H   0  0  0  0  0  0  0  0  0  0  0  0
   62.9272   30.6185   47.6415 H   0  0  0  0  0  0  0  0  0  0  0  0
   61.4508   31.6093   47.3377 H   0  0  0  0  0  0  0  0  0  0  0  0
   63.7715   33.2897   47.9827 H   0  0  0  0  0  0  0  0  0  0  0  0
   64.0887   32.2372   46.5621 H   0  0  0  0  0  0  0  0  0  0  0  0
   62.6735   33.3435   46.5621 H   0  0  0  0  0  0  0  0  0  0  0  0
   59.7460   35.6402   48.3244 H   0  0  0  0  0  0  0  0  0  0  0  0
   59.8112   36.5225   45.9646 H   0  0  0  0  0  0  0  0  0  0  0  0
   59.4898   34.9543   44.0309 H   0  0  0  0  0  0  0  0  0  0  0  0
   59.1124   32.4992   44.4732 H   0  0  0  0  0  0  0  0  0  0  0  0
  1  2  1  0
  2  3  1  0
  3  4  1  0
  4  5  1  0
  5  6  1  0
  6  7  1  0
  7  8  1  0
  8  9  1  0
  9 10  1  0
 10 11  1  0
 11 12  1  0
 12 13  1  0
 13 14  2  0
 14 15  1  0
 15 16  1  0
 16 17  1  0
 17 18  1  0
 18 19  1  0
 19 20  1  0
 20 21  1  0
 19 22  1  0
 22 23  1  0
 14 24  1  0
 24 25  2  0
 25 26  1  0
 26 27  2  0
 27 28  1  0
 28 29  2  0
 29 30  1  0
 30 13  1  0
 30 25  1  0
  1 31  1  0
  1 32  1  0
  1 33  1  0
  2 34  1  0
  2 35  1  0
  4 36  1  0
  4 37  1  0
  5 38  1  0
  5 39  1  0
  7 40  1  0
  7 41  1  0
  8 42  1  0
  8 43  1  0
 10 44  1  0
 10 45  1  0
 11 46  1  0
 11 47  1  0
 12 48  1  0
 15 49  1  0
 15 50  1  0
 16 51  1  0
 17 52  1  0
 17 53  1  0
 18 54  1  0
 18 55  1  0
 20 56  1  0
 20 57  1  0
 21 58  1  0
 21 59  1  0
 21 60  1  0
 22 61  1  0
 22 62  1  0
 23 63  1  0
 23 64  1  0
 23 65  1  0
 26 66  1  0
 27 67  1  0
 28 68  1  0
 29 69  1  0
M  END
>  <UniqueID>  (17) 
17

>  <SMILES>  (17) 
CCOCCOCCOCCNc1c(CNCCN(CC)CC)nc2ccccn12

>  <Energy>  (17) 
109.2459969187619

>  <Genealogy>  (17) 
CCOCCOCCOCCNc1c(CNCCN(CC)CC)nc2ccccn12 (3D coordinates assigned)
CCOCCOCCOCCNc1c(CNCCN(CC)CC)nc2ccccn12 (optimized conformer: 109.2459969187619 kcal/mol)

>  <smiles>  (17) 
CCOCCOCCOCCNc1c(CNCCN(CC)CC)nc2ccccn12

>  <score_type>  (17) 
oracle

>  <origin>  (17) 
adg

>  <m_score__min__energy>  (17) 
-5.8799999999999999

>  <m_primary>  (17) 
energy

$$$$
17:0
     RDKit          3D

 29 31  0  0  0  0  0  0  0  0999 V2000
   62.3740   33.8200   48.2180 C   0  0  0  0  0  0  0  0  0  0  0  0
   61.2570   34.2150   49.1800 C   0  0  0  0  0  0  0  0  0  0  0  0
   60.1110   34.6750   48.4630 O   0  0  0  0  0  0  0  0  0  0  0  0
   59.5590   34.0630   47.3270 C   0  0  0  0  0  0  0  0  0  0  0  0
   59.6420   34.7560   46.0950 C   0  0  0  0  0  0  0  0  0  0  0  0
   59.1110   34.2060   44.9150 C   0  0  0  0  0  0  0  0  0  0  0  0
   58.4980   32.9600   45.0020 C   0  0  0  0  0  0  0  0  0  0  0  0
   58.4040   32.2730   46.1930 C   0  0  0  0  0  0  0  0  0  0  0  0
   58.9220   32.7960   47.3760 C   0  0  0  0  0  0  0  0  0  0  0  0
   57.7690   31.0910   46.0350 N   0  0  0  0  0  0  0  0  0  0  0  0
   57.4610   31.0380   44.7210 C   0  0  0  0  0  0  0  0  0  0  0  0
   56.7950   30.0120   44.0520 C   0  0  0  0  0  0  0  0  0  0  0  0
   56.5750   30.1610   42.6700 C   0  0  0  0  0  0  0  0  0  0  0  0
   57.0180   31.3190   41.9910 C   0  0  0  0  0  0  0  0  0  0  0  0
   57.6880   32.3420   42.6870 C   0  0  0  0  0  0  0  0  0  0  0  0
   57.8920   32.1670   44.0550 C   0  0  0  0  0  0  0  0  0  0  0  0
   63.2587   33.5072   48.7920 H   0  0  0  0  0  0  0  0  0  0  0  0
   62.0348   32.9873   47.5843 H   0  0  0  0  0  0  0  0  0  0  0  0
   62.6336   34.6808   47.5843 H   0  0  0  0  0  0  0  0  0  0  0  0
   60.9766   33.3408   49.7859 H   0  0  0  0  0  0  0  0  0  0  0  0
   61.6189   35.0281   49.8265 H   0  0  0  0  0  0  0  0  0  0  0  0
   60.1301   35.7412   46.0605 H   0  0  0  0  0  0  0  0  0  0  0  0
   59.1779   34.7420   43.9567 H   0  0  0  0  0  0  0  0  0  0  0  0
   58.8394   32.2416   48.3225 H   0  0  0  0  0  0  0  0  0  0  0  0
   57.5620   30.3750   46.7670 H   0  0  0  0  0  0  0  0  0  0  0  0
   56.4523   29.1143   44.5875 H   0  0  0  0  0  0  0  0  0  0  0  0
   56.0534   29.3688   42.1129 H   0  0  0  0  0  0  0  0  0  0  0  0
   56.8376   31.4211   40.9107 H   0  0  0  0  0  0  0  0  0  0  0  0
   58.0384   33.2476   42.1701 H   0  0  0  0  0  0  0  0  0  0  0  0
  1  2  1  0
  2  3  1  0
  3  4  1  0
  4  5  2  0
  5  6  1  0
  6  7  2  0
  7  8  1  0
  8  9  2  0
  8 10  1  0
 10 11  1  0
 11 12  2  0
 12 13  1  0
 13 14  2  0
 14 15  1  0
 15 16  2  0
  9  4  1  0
 16 11  1  0
 16  7  1  0
  1 17  1  0
  1 18  1  0
  1 19  1  0
  2 20  1  0
  2 21  1  0
  5 22  1  0
  6 23  1  0
  9 24  1  0
 10 25  1  0
 12 26  1  0
 13 27  1  0
 14 28  1  0
 15 29  1  0
M  END
>  <UniqueID>  (18) 
18

>  <SMILES>  (18) 
CCOc1ccc2c(c1)[nH]c1ccccc12

>  <Energy>  (18) 
69.64414683496443

>  <Genealogy>  (18) 
CCOc1ccc2c(c1)[nH]c1ccccc12 (3D coordinates assigned)
CCOc1ccc2c(c1)[nH]c1ccccc12 (optimized conformer: 69.64414683496443 kcal/mol)

>  <smiles>  (18) 
CCOc1ccc2c(c1)[nH]c1ccccc12

>  <score_type>  (18) 
oracle

>  <origin>  (18) 
adg

>  <m_score__min__energy>  (18) 
-5.9100000000000001

>  <m_primary>  (18) 
energy

$$$$
18:0
     RDKit          3D

 69 71  0  0  0  0  0  0  0  0999 V2000
   62.3980   31.3290   51.9090 C   0  0  0  0  0  0  0  0  0  0  0  0
   62.9650   30.4220   50.8290 C   0  0  0  0  0  0  0  0  0  0  0  0
   61.9340   30.0610   49.9360 O   0  0  0  0  0  0  0  0  0  0  0  0
   61.1520   29.0090   50.4750 C   0  0  0  0  0  0  0  0  0  0  0  0
   59.6700   29.3640   50.3630 C   0  0  0  0  0  0  0  0  0  0  0  0
   59.5030   30.6300   49.6380 N   0  0  0  0  0  0  0  0  0  0  0  0
   58.4430   31.4340   50.2590 C   0  0  0  0  0  0  0  0  0  0  0  0
   58.9510   32.8440   50.5870 C   0  0  0  0  0  0  0  0  0  0  0  0
   60.3280   32.9860   50.2880 O   0  0  0  0  0  0  0  0  0  0  0  0
   60.5920   34.1960   49.6020 C   0  0  0  0  0  0  0  0  0  0  0  0
   62.0240   34.2120   49.0810 C   0  0  0  0  0  0  0  0  0  0  0  0
   62.5530   32.9030   49.1150 O   0  0  0  0  0  0  0  0  0  0  0  0
   63.2280   32.5980   47.9100 C   0  0  0  0  0  0  0  0  0  0  0  0
   62.4560   31.5290   47.1260 C   0  0  0  0  0  0  0  0  0  0  0  0
   61.1880   31.1890   47.7940 N   0  0  0  0  0  0  0  0  0  0  0  0
   60.1400   30.9650   46.8080 C   0  0  0  0  0  0  0  0  0  0  0  0
   59.4910   32.0620   46.1810 C   0  0  0  0  0  0  0  0  0  0  0  0
   58.4440   31.8180   45.2500 C   0  0  0  0  0  0  0  0  0  0  0  0
   58.1490   30.5260   44.8560 N   0  0  0  0  0  0  0  0  0  0  0  0
   57.2120   30.2850   43.7340 C   0  0  0  0  0  0  0  0  0  0  0  0
   58.7150   29.4470   45.5070 C   0  0  0  0  0  0  0  0  0  0  0  0
   58.2780   28.1200   45.2530 C   0  0  0  0  0  0  0  0  0  0  0  0
   58.8920   27.0270   45.8560 C   0  0  0  0  0  0  0  0  0  0  0  0
   59.9520   27.2200   46.7290 C   0  0  0  0  0  0  0  0  0  0  0  0
   60.3820   28.5090   47.0290 C   0  0  0  0  0  0  0  0  0  0  0  0
   59.7540   29.6450   46.4570 C   0  0  0  0  0  0  0  0  0  0  0  0
   57.6850   32.9930   44.6350 C   0  0  0  0  0  0  0  0  0  0  0  0
   57.8320   34.3000   45.4050 C   0  0  0  0  0  0  0  0  0  0  0  0
   59.3030   34.5660   45.6610 C   0  0  0  0  0  0  0  0  0  0  0  0
   59.8640   33.4860   46.5800 C   0  0  0  0  0  0  0  0  0  0  0  0
   62.6518   30.9230   52.8993 H   0  0  0  0  0  0  0  0  0  0  0  0
   62.8275   32.3363   51.8046 H   0  0  0  0  0  0  0  0  0  0  0  0
   61.3043   31.3841   51.8046 H   0  0  0  0  0  0  0  0  0  0  0  0
   63.7568   30.9536   50.2808 H   0  0  0  0  0  0  0  0  0  0  0  0
   63.3866   29.5171   51.2910 H   0  0  0  0  0  0  0  0  0  0  0  0
   61.3499   28.0823   49.9164 H   0  0  0  0  0  0  0  0  0  0  0  0
   61.4143   28.8636   51.5333 H   0  0  0  0  0  0  0  0  0  0  0  0
   59.1450   28.5635   49.8212 H   0  0  0  0  0  0  0  0  0  0  0  0
   59.2505   29.4724   51.3741 H   0  0  0  0  0  0  0  0  0  0  0  0
   60.3990   31.1660   49.7220 H   0  0  0  0  0  0  0  0  0  0  0  0
   57.5934   31.5092   49.5644 H   0  0  0  0  0  0  0  0  0  0  0  0
   58.1309   30.9451   51.1936 H   0  0  0  0  0  0  0  0  0  0  0  0
   58.3803   33.5753   49.9958 H   0  0  0  0  0  0  0  0  0  0  0  0
   58.8140   33.0164   51.6647 H   0  0  0  0  0  0  0  0  0  0  0  0
   59.8972   34.2907   48.7545 H   0  0  0  0  0  0  0  0  0  0  0  0
   60.4571   35.0368   50.2984 H   0  0  0  0  0  0  0  0  0  0  0  0
   62.0333   34.5842   48.0459 H   0  0  0  0  0  0  0  0  0  0  0  0
   62.6366   34.8711   49.7137 H   0  0  0  0  0  0  0  0  0  0  0  0
   63.3095   33.5088   47.2987 H   0  0  0  0  0  0  0  0  0  0  0  0
   64.2310   32.2142   48.1478 H   0  0  0  0  0  0  0  0  0  0  0  0
   62.2389   31.9108   46.1175 H   0  0  0  0  0  0  0  0  0  0  0  0
   63.0754   30.6215   47.0727 H   0  0  0  0  0  0  0  0  0  0  0  0
   60.9410   31.9500   48.4630 H   0  0  0  0  0  0  0  0  0  0  0  0
   61.2970   30.3520   48.4090 H   0  0  0  0  0  0  0  0  0  0  0  0
   56.2194   30.0297   44.1336 H   0  0  0  0  0  0  0  0  0  0  0  0
   57.1367   31.1930   43.1177 H   0  0  0  0  0  0  0  0  0  0  0  0
   57.5842   29.4533   43.1177 H   0  0  0  0  0  0  0  0  0  0  0  0
   57.4362   27.9528   44.5649 H   0  0  0  0  0  0  0  0  0  0  0  0
   58.5363   26.0087   45.6401 H   0  0  0  0  0  0  0  0  0  0  0  0
   60.4534   26.3534   47.1847 H   0  0  0  0  0  0  0  0  0  0  0  0
   61.2243   28.6496   47.7224 H   0  0  0  0  0  0  0  0  0  0  0  0
   58.0605   33.1500   43.6131 H   0  0  0  0  0  0  0  0  0  0  0  0
   56.6175   32.7288   44.6593 H   0  0  0  0  0  0  0  0  0  0  0  0
   57.4065   35.1247   44.8144 H   0  0  0  0  0  0  0  0  0  0  0  0
   57.2978   34.2259   46.3637 H   0  0  0  0  0  0  0  0  0  0  0  0
   59.8490   34.5545   44.7062 H   0  0  0  0  0  0  0  0  0  0  0  0
   59.4193   35.5499   46.1389 H   0  0  0  0  0  0  0  0  0  0  0  0
   60.9610   33.5678   46.5771 H   0  0  0  0  0  0  0  0  0  0  0  0
   59.4232   33.6591   47.5729 H   0  0  0  0  0  0  0  0  0  0  0  0
  1  2  1  0
  2  3  1  0
  3  4  1  0
  4  5  1  0
  5  6  1  0
  6  7  1  0
  7  8  1  0
  8  9  1  0
  9 10  1  0
 10 11  1  0
 11 12  1  0
 12 13  1  0
 13 14  1  0
 14 15  1  0
 15 16  1  0
 16 17  2  0
 17 18  1  0
 18 19  2  0
 19 20  1  0
 19 21  1  0
 21 22  2  0
 22 23  1  0
 23 24  2  0
 24 25  1  0
 25 26  2  0
 18 27  1  0
 27 28  1  0
 28 29  1  0
 29 30  1  0
 26 16  1  0
 30 17  1  0
 26 21  1  0
  1 31  1  0
  1 32  1  0
  1 33  1  0
  2 34  1  0
  2 35  1  0
  4 36  1  0
  4 37  1  0
  5 38  1  0
  5 39  1  0
  6 40  1  0
  7 41  1  0
  7 42  1  0
  8 43  1  0
  8 44  1  0
 10 45  1  0
 10 46  1  0
 11 47  1  0
 11 48  1  0
 13 49  1  0
 13 50  1  0
 14 51  1  0
 14 52  1  0
 15 53  1  0
 15 54  1  0
 20 55  1  0
 20 56  1  0
 20 57  1  0
 22 58  1  0
 23 59  1  0
 24 60  1  0
 25 61  1  0
 27 62  1  0
 27 63  1  0
 28 64  1  0
 28 65  1  0
 29 66  1  0
 29 67  1  0
 30 68  1  0
 30 69  1  0
M  CHG  2  15   1  19   1
M  END
>  <UniqueID>  (19) 
19

>  <SMILES>  (19) 
CCOCCNCCOCCOCC[NH2+]c1c2c([n+](C)c3ccccc13)CCCC2

>  <Energy>  (19) 
86.78223486028686

>  <Genealogy>  (19) 
CCOCCNCCOCCOCC[NH2+]c1c2c([n+](C)c3ccccc13)CCCC2 (protonated)
CCOCCNCCOCCOCC[NH2+]c1c2c([n+](C)c3ccccc13)CCCC2 (3D coordinates assigned)
CCOCCNCCOCCOCC[NH2+]c1c2c([n+](C)c3ccccc13)CCCC2 (nonaromatic ring conformer: 86.78223486028686 kcal/mol)

>  <smiles>  (19) 
CCOCCNCCOCCOCCNc1c2c([n+](C)c3ccccc13)CCCC2

>  <score_type>  (19) 
oracle

>  <origin>  (19) 
adg

>  <m_score__min__energy>  (19) 
-3.3900000000000001

>  <m_primary>  (19) 
energy

$$$$
19:0
     RDKit          3D

 37 37  0  0  0  0  0  0  0  0999 V2000
   59.7590   29.3480   45.7640 C   0  0  0  0  0  0  0  0  0  0  0  0
   58.6580   29.3880   46.8180 C   0  0  0  0  0  0  0  0  0  0  0  0
   57.5500   30.1310   46.3460 O   0  0  0  0  0  0  0  0  0  0  0  0
   57.5720   30.2720   44.9310 C   0  0  1  0  0  0  0  0  0  0  0  0
   56.3140   29.7230   44.3160 C   0  0  0  0  0  0  0  0  0  0  0  0
   55.5380   28.9650   44.9580 O   0  0  0  0  0  0  0  0  0  0  0  0
   56.0250   30.0830   42.9700 N   0  0  0  0  0  0  0  0  0  0  0  0
   57.0210   30.8580   42.2450 C   0  0  0  0  0  0  0  0  0  0  0  0
   57.5130   32.0370   43.1070 C   0  0  0  0  0  0  0  0  0  0  0  0
   57.7390   31.7010   44.5450 N   0  0  0  0  0  0  0  0  0  0  0  0
   57.1450   32.6940   45.4730 C   0  0  0  0  0  0  0  0  0  0  0  0
   58.0650   33.0450   46.6630 C   0  0  0  0  0  0  0  0  0  0  0  0
   58.8830   34.3340   46.4240 C   0  0  0  0  0  0  0  0  0  0  0  0
   60.2390   34.2340   47.1350 C   0  0  0  0  0  0  0  0  0  0  0  0
   59.0970   34.6060   44.9280 C   0  0  0  0  0  0  0  0  0  0  0  0
   60.7402   29.3124   46.2599 H   0  0  0  0  0  0  0  0  0  0  0  0
   59.6329   28.4538   45.1358 H   0  0  0  0  0  0  0  0  0  0  0  0
   59.6982   30.2489   45.1358 H   0  0  0  0  0  0  0  0  0  0  0  0
   58.3357   28.3610   47.0446 H   0  0  0  0  0  0  0  0  0  0  0  0
   59.0503   29.8700   47.7256 H   0  0  0  0  0  0  0  0  0  0  0  0
   58.4301   29.6976   44.5518 H   0  0  0  0  0  0  0  0  0  0  0  0
   55.1150   29.8260   42.5280 H   0  0  0  0  0  0  0  0  0  0  0  0
   57.8741   30.2099   41.9958 H   0  0  0  0  0  0  0  0  0  0  0  0
   56.5663   31.2531   41.3246 H   0  0  0  0  0  0  0  0  0  0  0  0
   58.4625   32.3983   42.6852 H   0  0  0  0  0  0  0  0  0  0  0  0
   56.7163   32.7951   43.0843 H   0  0  0  0  0  0  0  0  0  0  0  0
   56.9350   33.6156   44.9104 H   0  0  0  0  0  0  0  0  0  0  0  0
   56.2311   32.2450   45.8892 H   0  0  0  0  0  0  0  0  0  0  0  0
   57.4431   33.1840   47.5596 H   0  0  0  0  0  0  0  0  0  0  0  0
   58.7783   32.2169   46.7872 H   0  0  0  0  0  0  0  0  0  0  0  0
   58.3080   35.1750   46.8388 H   0  0  0  0  0  0  0  0  0  0  0  0
   60.0838   34.2454   48.2239 H   0  0  0  0  0  0  0  0  0  0  0  0
   60.7366   33.2967   46.8454 H   0  0  0  0  0  0  0  0  0  0  0  0
   60.8687   35.0881   46.8454 H   0  0  0  0  0  0  0  0  0  0  0  0
   59.7729   35.4650   44.8045 H   0  0  0  0  0  0  0  0  0  0  0  0
   59.5416   33.7186   44.4539 H   0  0  0  0  0  0  0  0  0  0  0  0
   58.1299   34.8293   44.4539 H   0  0  0  0  0  0  0  0  0  0  0  0
  1  2  1  0
  2  3  1  0
  3  4  1  0
  4  5  1  0
  5  6  2  0
  5  7  1  0
  7  8  1  0
  8  9  1  0
  9 10  1  0
 10 11  1  0
 11 12  1  0
 12 13  1  0
 13 14  1  0
 13 15  1  0
 10  4  1  0
  1 16  1  0
  1 17  1  0
  1 18  1  0
  2 19  1  0
  2 20  1  0
  4 21  1  6
  7 22  1  0
  8 23  1  0
  8 24  1  0
  9 25  1  0
  9 26  1  0
 11 27  1  0
 11 28  1  0
 12 29  1  0
 12 30  1  0
 13 31  1  0
 14 32  1  0
 14 33  1  0
 14 34  1  0
 15 35  1  0
 15 36  1  0
 15 37  1  0
M  END
>  <UniqueID>  (20) 
20

>  <SMILES>  (20) 
CCO[C@H]1C(=O)NCCN1CCC(C)C

>  <Energy>  (20) 
41.343733411334206

>  <Genealogy>  (20) 
CCO[C@H]1C(=O)NCCN1CCC(C)C (chirality)
CCO[C@H]1C(=O)NCCN1CCC(C)C (3D coordinates assigned)
CCO[C@H]1C(=O)NCCN1CCC(C)C (nonaromatic ring conformer: 41.343733411334206 kcal/mol)

>  <smiles>  (20) 
CCOC1C(=O)NCCN1CCC(C)C

>  <score_type>  (20) 
oracle

>  <origin>  (20) 
adg

>  <m_score__min__energy>  (20) 
-6.0700000000000003

>  <m_primary>  (20) 
energy

$$$$
20:0
     RDKit          3D

 37 38  0  0  0  0  0  0  0  0999 V2000
   63.3240   33.8380   46.3420 C   0  0  0  0  0  0  0  0  0  0  0  0
   63.5800   32.7850   47.4170 C   0  0  0  0  0  0  0  0  0  0  0  0
   63.6960   33.4330   48.8090 C   0  0  0  0  0  0  0  0  0  0  0  0
   62.9960   32.6540   49.8480 N   0  0  0  0  0  0  0  0  0  0  0  0
   61.5860   33.0630   49.9880 C   0  0  0  0  0  0  0  0  0  0  0  0
   61.1930   34.1450   48.9650 C   0  0  0  0  0  0  0  0  0  0  0  0
   59.6870   34.2080   48.6610 C   0  0  0  0  0  0  0  0  0  0  0  0
   59.4320   34.2890   47.2220 N   0  0  0  0  0  0  0  0  0  0  0  0
   59.6900   35.3560   46.4260 C   0  0  0  0  0  0  0  0  0  0  0  0
   59.2840   35.1020   45.1200 C   0  0  0  0  0  0  0  0  0  0  0  0
   58.7610   33.8260   45.1430 C   0  0  0  0  0  0  0  0  0  0  0  0
   58.2050   33.0600   44.1210 C   0  0  0  0  0  0  0  0  0  0  0  0
   57.7430   31.7710   44.4420 C   0  0  0  0  0  0  0  0  0  0  0  0
   57.0340   30.7630   43.1950 Cl  0  0  0  0  0  0  0  0  0  0  0  0
   57.8480   31.2840   45.7650 C   0  0  0  0  0  0  0  0  0  0  0  0
   58.4150   32.0810   46.7760 C   0  0  0  0  0  0  0  0  0  0  0  0
   58.8630   33.3590   46.4280 C   0  0  0  0  0  0  0  0  0  0  0  0
   63.0900   34.8007   46.8200 H   0  0  0  0  0  0  0  0  0  0  0  0
   64.2215   33.9483   45.7156 H   0  0  0  0  0  0  0  0  0  0  0  0
   62.4761   33.5239   45.7156 H   0  0  0  0  0  0  0  0  0  0  0  0
   62.7465   32.0672   47.4229 H   0  0  0  0  0  0  0  0  0  0  0  0
   64.5272   32.2745   47.1885 H   0  0  0  0  0  0  0  0  0  0  0  0
   64.7601   33.5059   49.0780 H   0  0  0  0  0  0  0  0  0  0  0  0
   63.2261   34.4263   48.7586 H   0  0  0  0  0  0  0  0  0  0  0  0
   63.0270   31.6490   49.5590 H   0  0  0  0  0  0  0  0  0  0  0  0
   63.4930   32.7460   50.7650 H   0  0  0  0  0  0  0  0  0  0  0  0
   60.9444   32.1823   49.8371 H   0  0  0  0  0  0  0  0  0  0  0  0
   61.4538   33.4848   50.9953 H   0  0  0  0  0  0  0  0  0  0  0  0
   61.5064   35.1228   49.3595 H   0  0  0  0  0  0  0  0  0  0  0  0
   61.6952   33.8851   48.0215 H   0  0  0  0  0  0  0  0  0  0  0  0
   59.2041   33.3033   49.0590 H   0  0  0  0  0  0  0  0  0  0  0  0
   59.2773   35.1121   49.1350 H   0  0  0  0  0  0  0  0  0  0  0  0
   60.1558   36.2927   46.7659 H   0  0  0  0  0  0  0  0  0  0  0  0
   59.3632   35.7752   44.2537 H   0  0  0  0  0  0  0  0  0  0  0  0
   58.1297   33.4508   43.0955 H   0  0  0  0  0  0  0  0  0  0  0  0
   57.4836   30.2744   46.0056 H   0  0  0  0  0  0  0  0  0  0  0  0
   58.5032   31.7105   47.8080 H   0  0  0  0  0  0  0  0  0  0  0  0
  1  2  1  0
  2  3  1  0
  3  4  1  0
  4  5  1  0
  5  6  1  0
  6  7  1  0
  7  8  1  0
  8  9  1  0
  9 10  2  0
 10 11  1  0
 11 12  2  0
 12 13  1  0
 13 14  1  0
 13 15  2  0
 15 16  1  0
 16 17  2  0
 17  8  1  0
 17 11  1  0
  1 18  1  0
  1 19  1  0
  1 20  1  0
  2 21  1  0
  2 22  1  0
  3 23  1  0
  3 24  1  0
  4 25  1  0
  4 26  1  0
  5 27  1  0
  5 28  1  0
  6 29  1  0
  6 30  1  0
  7 31  1  0
  7 32  1  0
  9 33  1  0
 10 34  1  0
 12 35  1  0
 15 36  1  0
 16 37  1  0
M  CHG  1   4   1
M  END
>  <UniqueID>  (21) 
21

>  <SMILES>  (21) 
CCC[NH2+]CCCn1ccc2cc(Cl)ccc21

>  <Energy>  (21) 
61.81141778609542

>  <Genealogy>  (21) 
CCC[NH2+]CCCn1ccc2cc(Cl)ccc21 (protonated)
CCC[NH2+]CCCn1ccc2cc(Cl)ccc21 (3D coordinates assigned)
CCC[NH2+]CCCn1ccc2cc(Cl)ccc21 (optimized conformer: 61.81141778609542 kcal/mol)

>  <smiles>  (21) 
CCCNCCCn1ccc2cc(Cl)ccc21

>  <score_type>  (21) 
oracle

>  <origin>  (21) 
adg

>  <m_score__min__energy>  (21) 
-5.2699999999999996

>  <m_primary>  (21) 
energy

$$$$
21:0
     RDKit          3D

 61 60  0  0  0  0  0  0  0  0999 V2000
   62.1670   34.0578   45.3890 H   0  0  0  0  0  0  0  0  0  0  0  0
   62.2720   33.5920   46.3800 C   0  0  0  0  0  0  0  0  0  0  0  0
   61.1890   33.3980   47.0790 N   0  0  0  0  0  0  0  0  0  0  0  0
   60.3170   34.4010   47.6240 C   0  0  0  0  0  0  0  0  0  0  0  0
   60.2000   34.5460   48.8720 O   0  0  0  0  0  0  0  0  0  0  0  0
   59.5620   35.3140   46.7050 C   0  0  0  0  0  0  0  0  0  0  0  0
   58.6641   35.6753   47.2278 H   0  0  0  0  0  0  0  0  0  0  0  0
   60.2347   36.1404   46.4321 H   0  0  0  0  0  0  0  0  0  0  0  0
   59.1270   34.6200   45.4020 C   0  0  0  0  0  0  0  0  0  0  0  0
   58.5760   35.3472   44.7875 H   0  0  0  0  0  0  0  0  0  0  0  0
   60.0410   34.2618   44.9058 H   0  0  0  0  0  0  0  0  0  0  0  0
   58.2270   33.3950   45.6300 C   0  0  0  0  0  0  0  0  0  0  0  0
   57.5476   33.5963   46.4714 H   0  0  0  0  0  0  0  0  0  0  0  0
   57.6489   33.2023   44.7142 H   0  0  0  0  0  0  0  0  0  0  0  0
   59.0390   32.2120   45.9370 N   0  0  0  0  0  0  0  0  0  0  0  0
   59.3930   32.3020   46.9190 H   0  0  0  0  0  0  0  0  0  0  0  0
   58.2460   30.9810   45.8440 C   0  0  0  0  0  0  0  0  0  0  0  0
   57.3693   31.0633   46.5032 H   0  0  0  0  0  0  0  0  0  0  0  0
   57.9218   30.8416   44.8021 H   0  0  0  0  0  0  0  0  0  0  0  0
   59.0890   29.7720   46.2710 C   0  0  0  0  0  0  0  0  0  0  0  0
   58.7517   29.4403   47.2641 H   0  0  0  0  0  0  0  0  0  0  0  0
   58.9529   28.9863   45.5133 H   0  0  0  0  0  0  0  0  0  0  0  0
   60.5870   30.0940   46.3430 C   0  0  0  0  0  0  0  0  0  0  0  0
   61.1610   29.1557   46.3423 H   0  0  0  0  0  0  0  0  0  0  0  0
   60.8658   30.7046   45.4716 H   0  0  0  0  0  0  0  0  0  0  0  0
   60.8850   30.8450   47.5710 N   0  0  0  0  0  0  0  0  0  0  0  0
   60.1420   31.5630   47.7200 H   0  0  0  0  0  0  0  0  0  0  0  0
   60.9350   29.9730   48.7510 C   0  0  0  0  0  0  0  0  0  0  0  0
   59.9493   29.5088   48.9021 H   0  0  0  0  0  0  0  0  0  0  0  0
   61.6953   29.1944   48.5907 H   0  0  0  0  0  0  0  0  0  0  0  0
   61.3070   30.7880   49.9940 C   0  0  0  0  0  0  0  0  0  0  0  0
   60.8327   30.3355   50.8773 H   0  0  0  0  0  0  0  0  0  0  0  0
   62.4015   30.7847   50.1036 H   0  0  0  0  0  0  0  0  0  0  0  0
   60.8500   32.1810   49.8610 N   0  0  0  0  0  0  0  0  0  0  0  0
   60.5530   32.3320   48.8670 H   0  0  0  0  0  0  0  0  0  0  0  0
   59.6860   32.4560   50.7170 C   0  0  0  0  0  0  0  0  0  0  0  0
   59.6683   31.7335   51.5462 H   0  0  0  0  0  0  0  0  0  0  0  0
   59.7672   33.4813   51.1072 H   0  0  0  0  0  0  0  0  0  0  0  0
   58.3840   32.3340   49.9140 C   0  0  0  0  0  0  0  0  0  0  0  0
   57.7805   31.5177   50.3377 H   0  0  0  0  0  0  0  0  0  0  0  0
   57.8536   33.2955   49.9784 H   0  0  0  0  0  0  0  0  0  0  0  0
   58.6360   32.0510   48.5030 N   0  0  0  0  0  0  0  0  0  0  0  0
   59.4670   32.5990   48.1820 H   0  0  0  0  0  0  0  0  0  0  0  0
   58.8540   31.0340   48.3960 H   0  0  0  0  0  0  0  0  0  0  0  0
   63.6600   33.2200   46.8400 C   0  0  0  0  0  0  0  0  0  0  0  0
   64.3638   33.9999   46.5138 H   0  0  0  0  0  0  0  0  0  0  0  0
   63.9160   32.2455   46.3986 H   0  0  0  0  0  0  0  0  0  0  0  0
   63.7400   33.0860   48.3750 C   0  0  0  0  0  0  0  0  0  0  0  0
   64.7391   33.4043   48.7074 H   0  0  0  0  0  0  0  0  0  0  0  0
   63.5502   32.0339   48.6340 H   0  0  0  0  0  0  0  0  0  0  0  0
   62.7300   33.9090   49.0540 N   0  0  0  0  0  0  0  0  0  0  0  0
   62.4080   34.6480   48.3830 H   0  0  0  0  0  0  0  0  0  0  0  0
   61.9200   33.3060   49.3370 H   0  0  0  0  0  0  0  0  0  0  0  0
   63.3210   34.5190   50.1300 O   0  0  0  0  0  0  0  0  0  0  0  0
   62.9310   33.8440   51.3080 C   0  0  0  0  0  0  0  0  0  0  0  0
   62.1313   33.1261   51.0730 H   0  0  0  0  0  0  0  0  0  0  0  0
   62.5612   34.5717   52.0454 H   0  0  0  0  0  0  0  0  0  0  0  0
   64.1300   33.1010   51.8800 C   0  0  0  0  0  0  0  0  0  0  0  0
   64.0875   33.1273   52.9789 H   0  0  0  0  0  0  0  0  0  0  0  0
   64.1114   32.0559   51.5373 H   0  0  0  0  0  0  0  0  0  0  0  0
   65.0576   33.5828   51.5373 H   0  0  0  0  0  0  0  0  0  0  0  0
  1  2  1  0
  2  3  2  0
  3  4  1  0
  4  5  2  0
  4  6  1  0
  6  7  1  0
  6  8  1  0
  6  9  1  0
  9 10  1  0
  9 11  1  0
  9 12  1  0
 12 13  1  0
 12 14  1  0
 12 15  1  0
 15 16  1  0
 15 17  1  0
 17 18  1  0
 17 19  1  0
 17 20  1  0
 20 21  1  0
 20 22  1  0
 20 23  1  0
 23 24  1  0
 23 25  1  0
 23 26  1  0
 26 27  1  0
 26 28  1  0
 28 29  1  0
 28 30  1  0
 28 31  1  0
 31 32  1  0
 31 33  1  0
 31 34  1  0
 34 35  1  0
 34 36  1  0
 36 37  1  0
 36 38  1  0
 36 39  1  0
 39 40  1  0
 39 41  1  0
 39 42  1  0
 42 43  1  0
 42 44  1  0
  2 45  1  0
 45 46  1  0
 45 47  1  0
 45 48  1  0
 48 49  1  0
 48 50  1  0
 48 51  1  0
 51 52  1  0
 51 53  1  0
 51 54  1  0
 54 55  1  0
 55 56  1  0
 55 57  1  0
 55 58  1  0
 58 59  1  0
 58 60  1  0
 58 61  1  0
M  CHG  1  51   1
M  END
>  <UniqueID>  (22) 
22

>  <SMILES>  (22) 
CCO[NH2+]CC/C=N\C(=O)CCCNCCCNCCNCCN

>  <Energy>  (22) 
39.0920939918493

>  <Genealogy>  (22) 
CCO[NH2+]CCC=NC(=O)CCCNCCCNCCNCCN (protonated)
CCO[NH2+]CC/C=N\C(=O)CCCNCCCNCCNCCN (cis-trans isomerization)
CCO[NH2+]CC/C=N\C(=O)CCCNCCCNCCNCCN (3D coordinates assigned)
CCO[NH2+]CC/C=N\C(=O)CCCNCCCNCCNCCN (optimized conformer: 39.0920939918493 kcal/mol)

>  <smiles>  (22) 
CCONCCC=NC(=O)CCCNCCCNCCNCCN

>  <score_type>  (22) 
oracle

>  <origin>  (22) 
adg

>  <m_score__min__energy>  (22) 
0.01

>  <m_primary>  (22) 
energy

$$$$
22:0
     RDKit          3D

 43 44  0  0  0  0  0  0  0  0999 V2000
   57.7500   26.3490   44.8680 C   0  0  0  0  0  0  0  0  0  0  0  0
   56.6410   26.7310   45.8430 C   0  0  0  0  0  0  0  0  0  0  0  0
   55.9080   27.8570   45.3580 O   0  0  0  0  0  0  0  0  0  0  0  0
   56.4670   29.0560   44.8880 C   0  0  0  0  0  0  0  0  0  0  0  0
   56.0350   29.6890   43.7040 C   0  0  0  0  0  0  0  0  0  0  0  0
   56.6300   30.8830   43.2870 C   0  0  0  0  0  0  0  0  0  0  0  0
   57.6510   31.4640   44.0470 C   0  0  0  0  0  0  0  0  0  0  0  0
   58.4090   33.0020   43.5150 S   0  0  0  0  0  0  0  0  0  0  0  0
   57.7030   34.0040   44.8710 C   0  0  0  0  0  0  0  0  0  0  0  0
   58.4170   33.7330   46.1590 C   0  0  0  0  0  0  0  0  0  0  0  0
   57.7650   33.7240   47.2380 O   0  0  0  0  0  0  0  0  0  0  0  0
   59.8280   33.4730   46.1560 N   0  0  0  0  0  0  0  0  0  0  0  0
   60.5810   33.1030   47.3590 C   0  0  0  0  0  0  0  0  0  0  0  0
   61.6640   34.1710   47.6480 C   0  0  0  0  0  0  0  0  0  0  0  0
   63.0110   33.8040   47.0150 C   0  0  0  0  0  0  0  0  0  0  0  0
   63.5550   32.4680   47.5620 C   0  0  0  0  0  0  0  0  0  0  0  0
   62.4460   31.4900   48.0060 C   0  0  0  0  0  0  0  0  0  0  0  0
   61.1650   31.6790   47.1840 C   0  0  0  0  0  0  0  0  0  0  0  0
   58.0880   30.8370   45.2190 C   0  0  0  0  0  0  0  0  0  0  0  0
   57.4940   29.6430   45.6390 C   0  0  0  0  0  0  0  0  0  0  0  0
   58.6434   26.0413   45.4312 H   0  0  0  0  0  0  0  0  0  0  0  0
   57.4107   25.5159   44.2348 H   0  0  0  0  0  0  0  0  0  0  0  0
   57.9957   27.2143   44.2348 H   0  0  0  0  0  0  0  0  0  0  0  0
   55.9561   25.8786   45.9627 H   0  0  0  0  0  0  0  0  0  0  0  0
   57.0952   26.9944   46.8096 H   0  0  0  0  0  0  0  0  0  0  0  0
   55.2270   29.2414   43.1067 H   0  0  0  0  0  0  0  0  0  0  0  0
   56.2945   31.3675   42.3582 H   0  0  0  0  0  0  0  0  0  0  0  0
   57.8024   35.0706   44.6209 H   0  0  0  0  0  0  0  0  0  0  0  0
   56.6429   33.7367   44.9922 H   0  0  0  0  0  0  0  0  0  0  0  0
   60.3430   33.5320   45.2480 H   0  0  0  0  0  0  0  0  0  0  0  0
   59.9188   33.0762   48.2369 H   0  0  0  0  0  0  0  0  0  0  0  0
   61.3300   35.1360   47.2392 H   0  0  0  0  0  0  0  0  0  0  0  0
   61.8036   34.2292   48.7375 H   0  0  0  0  0  0  0  0  0  0  0  0
   62.8809   33.7166   45.9262 H   0  0  0  0  0  0  0  0  0  0  0  0
   63.7333   34.5954   47.2642 H   0  0  0  0  0  0  0  0  0  0  0  0
   64.1505   31.9850   46.7733 H   0  0  0  0  0  0  0  0  0  0  0  0
   64.1565   32.7027   48.4526 H   0  0  0  0  0  0  0  0  0  0  0  0
   62.8057   30.4588   47.8746 H   0  0  0  0  0  0  0  0  0  0  0  0
   62.2108   31.6923   49.0614 H   0  0  0  0  0  0  0  0  0  0  0  0
   61.3955   31.5157   46.1209 H   0  0  0  0  0  0  0  0  0  0  0  0
   60.4177   30.9542   47.5394 H   0  0  0  0  0  0  0  0  0  0  0  0
   58.9002   31.2842   45.8109 H   0  0  0  0  0  0  0  0  0  0  0  0
   57.8357   29.1605   46.5666 H   0  0  0  0  0  0  0  0  0  0  0  0
  1  2  1  0
  2  3  1  0
  3  4  1  0
  4  5  2  0
  5  6  1  0
  6  7  2  0
  7  8  1  0
  8  9  1  0
  9 10  1  0
 10 11  2  0
 10 12  1  0
 12 13  1  0
 13 14  1  0
 14 15  1  0
 15 16  1  0
 16 17  1  0
 17 18  1  0
  7 19  1  0
 19 20  2  0
 20  4  1  0
 18 13  1  0
  1 21  1  0
  1 22  1  0
  1 23  1  0
  2 24  1  0
  2 25  1  0
  5 26  1  0
  6 27  1  0
  9 28  1  0
  9 29  1  0
 12 30  1  0
 13 31  1  0
 14 32  1  0
 14 33  1  0
 15 34  1  0
 15 35  1  0
 16 36  1  0
 16 37  1  0
 17 38  1  0
 17 39  1  0
 18 40  1  0
 18 41  1  0
 19 42  1  0
 20 43  1  0
M  END
>  <UniqueID>  (23) 
23

>  <SMILES>  (23) 
CCOc1ccc(SCC(=O)NC2CCCCC2)cc1

>  <Energy>  (23) 
34.18887071218231

>  <Genealogy>  (23) 
CCOc1ccc(SCC(=O)NC2CCCCC2)cc1 (3D coordinates assigned)
CCOc1ccc(SCC(=O)NC2CCCCC2)cc1 (nonaromatic ring conformer: 34.18887071218231 kcal/mol)

>  <smiles>  (23) 
CCOc1ccc(SCC(=O)NC2CCCCC2)cc1

>  <score_type>  (23) 
oracle

>  <origin>  (23) 
adg

>  <m_score__min__energy>  (23) 
-7.2199999999999998

>  <m_primary>  (23) 
energy

$$$$
23:0
     RDKit          3D

 36 36  0  0  0  0  0  0  0  0999 V2000
   59.5820   29.8830   46.9980 C   0  0  0  0  0  0  0  0  0  0  0  0
   60.1120   29.3630   45.6630 C   0  0  0  0  0  0  0  0  0  0  0  0
   59.1090   29.5790   44.5260 C   0  0  0  0  0  0  0  0  0  0  0  0
   57.8040   28.9750   44.8720 N   0  0  0  0  0  0  0  0  0  0  0  0
   57.7270   27.5210   44.6060 C   0  0  0  0  0  0  0  0  0  0  0  0
   58.1480   27.1060   43.1890 C   0  0  0  0  0  0  0  0  0  0  0  0
   56.4680   29.8750   44.1950 S   0  0  0  0  0  0  0  0  0  0  0  0
   56.5820   29.9010   42.6950 O   0  0  0  0  0  0  0  0  0  0  0  0
   55.1670   29.2260   44.5800 O   0  0  0  0  0  0  0  0  0  0  0  0
   56.5000   31.4860   44.8580 N   0  0  0  0  0  0  0  0  0  0  0  0
   57.4940   32.3300   44.1950 C   0  0  0  0  0  0  0  0  0  0  0  0
   58.1820   33.2150   45.1990 C   0  0  0  0  0  0  0  0  0  0  0  0
   58.0180   33.0000   46.5780 C   0  0  0  0  0  0  0  0  0  0  0  0
   58.6460   33.8410   47.5010 C   0  0  0  0  0  0  0  0  0  0  0  0
   59.4450   34.8990   47.0560 C   0  0  0  0  0  0  0  0  0  0  0  0
   59.6220   35.1120   45.6880 C   0  0  0  0  0  0  0  0  0  0  0  0
   58.9980   34.2720   44.7610 C   0  0  0  0  0  0  0  0  0  0  0  0
   60.1017   29.3731   47.8225 H   0  0  0  0  0  0  0  0  0  0  0  0
   59.7603   30.9663   47.0664 H   0  0  0  0  0  0  0  0  0  0  0  0
   58.5023   29.6841   47.0664 H   0  0  0  0  0  0  0  0  0  0  0  0
   61.0445   29.8934   45.4199 H   0  0  0  0  0  0  0  0  0  0  0  0
   60.2850   28.2813   45.7634 H   0  0  0  0  0  0  0  0  0  0  0  0
   58.9766   30.6581   44.3588 H   0  0  0  0  0  0  0  0  0  0  0  0
   59.4941   29.1011   43.6131 H   0  0  0  0  0  0  0  0  0  0  0  0
   58.3830   27.0060   45.3232 H   0  0  0  0  0  0  0  0  0  0  0  0
   56.6684   27.2411   44.7106 H   0  0  0  0  0  0  0  0  0  0  0  0
   58.9302   26.3350   43.2499 H   0  0  0  0  0  0  0  0  0  0  0  0
   57.2772   26.7032   42.6509 H   0  0  0  0  0  0  0  0  0  0  0  0
   58.5382   27.9825   42.6509 H   0  0  0  0  0  0  0  0  0  0  0  0
   58.2416   31.6911   43.7022 H   0  0  0  0  0  0  0  0  0  0  0  0
   56.9873   32.9611   43.4501 H   0  0  0  0  0  0  0  0  0  0  0  0
   57.3932   32.1669   46.9323 H   0  0  0  0  0  0  0  0  0  0  0  0
   58.5115   33.6704   48.5793 H   0  0  0  0  0  0  0  0  0  0  0  0
   59.9339   35.5632   47.7839 H   0  0  0  0  0  0  0  0  0  0  0  0
   60.2535   35.9422   45.3387 H   0  0  0  0  0  0  0  0  0  0  0  0
   59.1464   34.4391   43.6839 H   0  0  0  0  0  0  0  0  0  0  0  0
  1  2  1  0
  2  3  1  0
  3  4  1  0
  4  5  1  0
  5  6  1  0
  4  7  1  0
  7  8  2  0
  7  9  2  0
  7 10  1  0
 10 11  1  0
 11 12  1  0
 12 13  2  0
 13 14  1  0
 14 15  2  0
 15 16  1  0
 16 17  2  0
 17 12  1  0
  1 18  1  0
  1 19  1  0
  1 20  1  0
  2 21  1  0
  2 22  1  0
  3 23  1  0
  3 24  1  0
  5 25  1  0
  5 26  1  0
  6 27  1  0
  6 28  1  0
  6 29  1  0
 11 30  1  0
 11 31  1  0
 13 32  1  0
 14 33  1  0
 15 34  1  0
 16 35  1  0
 17 36  1  0
M  CHG  1  10  -1
M  END
>  <UniqueID>  (24) 
24

>  <SMILES>  (24) 
CCCN(CC)S(=O)(=O)[N-]Cc1ccccc1

>  <Energy>  (24) 
28.76126198232879

>  <Genealogy>  (24) 
CCCN(CC)S(=O)(=O)[N-]Cc1ccccc1 (protonated)
CCCN(CC)S(=O)(=O)[N-]Cc1ccccc1 (3D coordinates assigned)
CCCN(CC)S(=O)(=O)[N-]Cc1ccccc1 (optimized conformer: 28.76126198232879 kcal/mol)

>  <smiles>  (24) 
CCCN(CC)S(=O)(=O)NCc1ccccc1

>  <score_type>  (24) 
oracle

>  <origin>  (24) 
adg

>  <m_score__min__energy>  (24) 
-8.1300000000000008

>  <m_primary>  (24) 
energy

$$$$
24:0
     RDKit          3D

 48 50  0  0  0  0  0  0  0  0999 V2000
   58.9400   29.8380   49.0490 C   0  0  0  0  0  0  0  0  0  0  0  0
   59.1340   29.2600   47.6560 C   0  0  0  0  0  0  0  0  0  0  0  0
   59.9640   30.1240   46.9070 O   0  0  0  0  0  0  0  0  0  0  0  0
   59.8770   29.8180   45.5290 C   0  0  0  0  0  0  0  0  0  0  0  0
   58.5410   30.2410   44.9790 C   0  0  0  0  0  0  0  0  0  0  0  0
   57.5830   29.3710   44.4990 C   0  0  0  0  0  0  0  0  0  0  0  0
   56.4730   30.1670   44.2910 C   0  0  0  0  0  0  0  0  0  0  0  0
   55.1640   29.7100   43.7420 C   0  0  0  0  0  0  0  0  0  0  0  0
   56.7490   31.4430   44.6210 N   0  0  0  0  0  0  0  0  0  0  0  0
   58.0050   31.4830   45.0400 N   0  0  0  0  0  0  0  0  0  0  0  0
   58.6310   32.6890   45.5010 C   0  0  0  0  0  0  0  0  0  0  0  0
   58.4450   33.8850   44.7940 C   0  0  0  0  0  0  0  0  0  0  0  0
   59.0620   35.0600   45.2270 C   0  0  0  0  0  0  0  0  0  0  0  0
   59.8810   35.0470   46.3580 C   0  0  0  0  0  0  0  0  0  0  0  0
   60.0980   33.8520   47.0620 C   0  0  0  0  0  0  0  0  0  0  0  0
   61.0010   33.8250   48.2740 C   0  0  0  0  0  0  0  0  0  0  0  0
   61.7800   32.5640   48.3570 N   0  0  0  0  0  0  0  0  0  0  0  0
   62.3740   32.3970   49.6930 C   0  0  0  0  0  0  0  0  0  0  0  0
   63.7630   33.0170   49.6580 C   0  0  0  0  0  0  0  0  0  0  0  0
   64.1310   33.1030   48.1860 C   0  0  0  0  0  0  0  0  0  0  0  0
   62.9270   32.5520   47.4330 C   0  0  0  0  0  0  0  0  0  0  0  0
   59.4740   32.6730   46.6230 C   0  0  0  0  0  0  0  0  0  0  0  0
   59.1955   29.0767   49.8007 H   0  0  0  0  0  0  0  0  0  0  0  0
   59.5935   30.7135   49.1770 H   0  0  0  0  0  0  0  0  0  0  0  0
   57.8906   30.1419   49.1770 H   0  0  0  0  0  0  0  0  0  0  0  0
   59.6063   28.2694   47.7310 H   0  0  0  0  0  0  0  0  0  0  0  0
   58.1584   29.1601   47.1577 H   0  0  0  0  0  0  0  0  0  0  0  0
   60.6752   30.3485   44.9892 H   0  0  0  0  0  0  0  0  0  0  0  0
   59.9882   28.7315   45.3978 H   0  0  0  0  0  0  0  0  0  0  0  0
   57.6810   28.2897   44.3222 H   0  0  0  0  0  0  0  0  0  0  0  0
   54.4817   29.4718   44.5713 H   0  0  0  0  0  0  0  0  0  0  0  0
   54.7263   30.5085   43.1249 H   0  0  0  0  0  0  0  0  0  0  0  0
   55.3184   28.8126   43.1249 H   0  0  0  0  0  0  0  0  0  0  0  0
   57.8109   33.8977   43.8952 H   0  0  0  0  0  0  0  0  0  0  0  0
   58.9026   35.9985   44.6759 H   0  0  0  0  0  0  0  0  0  0  0  0
   60.3584   35.9775   46.6989 H   0  0  0  0  0  0  0  0  0  0  0  0
   61.7006   34.6718   48.2150 H   0  0  0  0  0  0  0  0  0  0  0  0
   60.3686   33.8943   49.1714 H   0  0  0  0  0  0  0  0  0  0  0  0
   61.1520   31.7480   48.1580 H   0  0  0  0  0  0  0  0  0  0  0  0
   61.7544   32.9065   50.4456 H   0  0  0  0  0  0  0  0  0  0  0  0
   62.4325   31.3315   49.9600 H   0  0  0  0  0  0  0  0  0  0  0  0
   63.7481   34.0197   50.1100 H   0  0  0  0  0  0  0  0  0  0  0  0
   64.4912   32.4204   50.2270 H   0  0  0  0  0  0  0  0  0  0  0  0
   64.3200   34.1475   47.8973 H   0  0  0  0  0  0  0  0  0  0  0  0
   65.0472   32.5376   47.9606 H   0  0  0  0  0  0  0  0  0  0  0  0
   62.7107   33.1831   46.5584 H   0  0  0  0  0  0  0  0  0  0  0  0
   63.1273   31.5299   47.0793 H   0  0  0  0  0  0  0  0  0  0  0  0
   59.6472   31.7301   47.1624 H   0  0  0  0  0  0  0  0  0  0  0  0
  1  2  1  0
  2  3  1  0
  3  4  1  0
  4  5  1  0
  5  6  2  0
  6  7  1  0
  7  8  1  0
  7  9  2  0
  9 10  1  0
 10 11  1  0
 11 12  2  0
 12 13  1  0
 13 14  2  0
 14 15  1  0
 15 16  1  0
 16 17  1  0
 17 18  1  0
 18 19  1  0
 19 20  1  0
 20 21  1  0
 15 22  2  0
 10  5  1  0
 22 11  1  0
 21 17  1  0
  1 23  1  0
  1 24  1  0
  1 25  1  0
  2 26  1  0
  2 27  1  0
  4 28  1  0
  4 29  1  0
  6 30  1  0
  8 31  1  0
  8 32  1  0
  8 33  1  0
 12 34  1  0
 13 35  1  0
 14 36  1  0
 16 37  1  0
 16 38  1  0
 17 39  1  0
 18 40  1  0
 18 41  1  0
 19 42  1  0
 19 43  1  0
 20 44  1  0
 20 45  1  0
 21 46  1  0
 21 47  1  0
 22 48  1  0
M  CHG  1  17   1
M  END
>  <UniqueID>  (25) 
25

>  <SMILES>  (25) 
CCOCc1cc(C)nn1-c1cccc(C[NH+]2CCCC2)c1

>  <Energy>  (25) 
84.45468425869849

>  <Genealogy>  (25) 
CCOCc1cc(C)nn1-c1cccc(C[NH+]2CCCC2)c1 (protonated)
CCOCc1cc(C)nn1-c1cccc(C[NH+]2CCCC2)c1 (3D coordinates assigned)
CCOCc1cc(C)nn1-c1cccc(C[NH+]2CCCC2)c1 (nonaromatic ring conformer: 84.45468425869849 kcal/mol)

>  <smiles>  (25) 
CCOCc1cc(C)nn1-c1cccc(CN2CCCC2)c1

>  <score_type>  (25) 
oracle

>  <origin>  (25) 
adg

>  <m_score__min__energy>  (25) 
-6.2300000000000004

>  <m_primary>  (25) 
energy

$$$$
