0:0
     RDKit          3D

 62 65  0  0  0  0  0  0  0  0999 V2000
   63.2230   33.7270   46.6850 C   0  0  0  0  0  0  0  0  0  0  0  0
   63.8340   32.9380   47.8380 C   0  0  0  0  0  0  0  0  0  0  0  0
   62.8760   32.0430   48.4020 O   0  0  0  0  0  0  0  0  0  0  0  0
   61.7920   32.4050   49.2210 C   0  0  0  0  0  0  0  0  0  0  0  0
   61.8340   33.5330   50.0650 C   0  0  0  0  0  0  0  0  0  0  0  0
   60.7450   33.8470   50.8820 C   0  0  0  0  0  0  0  0  0  0  0  0
   59.6040   33.0440   50.8660 C   0  0  0  0  0  0  0  0  0  0  0  0
   59.5450   31.9300   50.0290 C   0  0  0  0  0  0  0  0  0  0  0  0
   60.6290   31.6050   49.1970 C   0  0  0  0  0  0  0  0  0  0  0  0
   60.5440   30.4550   48.3380 N   0  0  0  0  0  0  0  0  0  0  0  0
   61.0050   30.5320   46.9460 C   0  0  0  0  0  0  0  0  0  0  0  0
   60.0540   29.7610   46.0100 C   0  0  0  0  0  0  0  0  0  0  0  0
   59.4580   28.5530   46.6330 N   0  0  0  0  0  0  0  0  0  0  0  0
   59.1340   27.4890   45.6570 C   0  0  0  0  0  0  0  0  0  0  0  0
   57.9610   27.8380   44.6980 C   0  0  1  0  0  0  0  0  0  0  0  0
   57.8270   26.8620   43.6920 O   0  0  0  0  0  0  0  0  0  0  0  0
   56.6430   27.9860   45.4720 C   0  0  0  0  0  0  0  0  0  0  0  0
   55.8180   29.0180   44.8520 N   0  0  0  0  0  0  0  0  0  0  0  0
   56.2620   29.9130   43.8250 C   0  0  0  0  0  0  0  0  0  0  0  0
   55.9040   29.6980   42.6380 O   0  0  0  0  0  0  0  0  0  0  0  0
   57.0870   31.1010   44.1200 C   0  0  0  0  0  0  0  0  0  0  0  0
   57.5200   31.9530   43.0870 C   0  0  0  0  0  0  0  0  0  0  0  0
   58.2930   33.0810   43.3780 C   0  0  0  0  0  0  0  0  0  0  0  0
   58.6320   33.3700   44.7020 C   0  0  0  0  0  0  0  0  0  0  0  0
   58.1670   32.5520   45.7410 C   0  0  0  0  0  0  0  0  0  0  0  0
   57.4030   31.4180   45.4520 C   0  0  0  0  0  0  0  0  0  0  0  0
   58.4770   32.8900   47.0610 O   0  0  0  0  0  0  0  0  0  0  0  0
   59.0120   34.1740   47.3910 C   0  0  0  0  0  0  0  0  0  0  0  0
   60.0070   34.6270   46.3130 C   0  0  0  0  0  0  0  0  0  0  0  0
   59.4330   34.4740   45.0130 O   0  0  0  0  0  0  0  0  0  0  0  0
   60.1610   28.0710   47.8350 C   0  0  0  0  0  0  0  0  0  0  0  0
   60.1330   29.1640   48.9020 C   0  0  0  0  0  0  0  0  0  0  0  0
   62.5960   34.5367   47.0865 H   0  0  0  0  0  0  0  0  0  0  0  0
   64.0263   34.1566   46.0684 H   0  0  0  0  0  0  0  0  0  0  0  0
   62.6060   33.0568   46.0684 H   0  0  0  0  0  0  0  0  0  0  0  0
   64.6921   32.3597   47.4648 H   0  0  0  0  0  0  0  0  0  0  0  0
   64.1584   33.6443   48.6164 H   0  0  0  0  0  0  0  0  0  0  0  0
   62.7303   34.1705   50.0806 H   0  0  0  0  0  0  0  0  0  0  0  0
   60.7872   34.7284   51.5387 H   0  0  0  0  0  0  0  0  0  0  0  0
   58.7500   33.2899   51.5143 H   0  0  0  0  0  0  0  0  0  0  0  0
   58.6426   31.3010   50.0203 H   0  0  0  0  0  0  0  0  0  0  0  0
   61.0395   31.5867   46.6356 H   0  0  0  0  0  0  0  0  0  0  0  0
   62.0058   30.0802   46.8810 H   0  0  0  0  0  0  0  0  0  0  0  0
   59.2388   30.4357   45.7098 H   0  0  0  0  0  0  0  0  0  0  0  0
   60.6519   29.4200   45.1520 H   0  0  0  0  0  0  0  0  0  0  0  0
   60.0299   27.2942   45.0492 H   0  0  0  0  0  0  0  0  0  0  0  0
   58.8149   26.6125   46.2400 H   0  0  0  0  0  0  0  0  0  0  0  0
   58.1945   28.8014   44.2213 H   0  0  0  0  0  0  0  0  0  0  0  0
   57.0110   27.0780   43.1680 H   0  0  0  0  0  0  0  0  0  0  0  0
   56.1018   27.0285   45.4577 H   0  0  0  0  0  0  0  0  0  0  0  0
   56.8626   28.2726   46.5111 H   0  0  0  0  0  0  0  0  0  0  0  0
   57.2487   31.7301   42.0445 H   0  0  0  0  0  0  0  0  0  0  0  0
   58.6337   33.7399   42.5657 H   0  0  0  0  0  0  0  0  0  0  0  0
   57.0483   30.7723   46.2689 H   0  0  0  0  0  0  0  0  0  0  0  0
   58.1913   34.9034   47.4575 H   0  0  0  0  0  0  0  0  0  0  0  0
   59.5347   34.1076   48.3566 H   0  0  0  0  0  0  0  0  0  0  0  0
   60.2613   35.6848   46.4753 H   0  0  0  0  0  0  0  0  0  0  0  0
   60.9134   34.0073   46.3793 H   0  0  0  0  0  0  0  0  0  0  0  0
   59.6604   27.1694   48.2179 H   0  0  0  0  0  0  0  0  0  0  0  0
   61.2032   27.8265   47.5819 H   0  0  0  0  0  0  0  0  0  0  0  0
   59.1113   29.2533   49.2998 H   0  0  0  0  0  0  0  0  0  0  0  0
   60.8343   28.8910   49.7043 H   0  0  0  0  0  0  0  0  0  0  0  0
  1  2  1  0
  2  3  1  0
  3  4  1  0
  4  5  2  0
  5  6  1  0
  6  7  2  0
  7  8  1  0
  8  9  2  0
  9 10  1  0
 10 11  1  0
 11 12  1  0
 12 13  1  0
 13 14  1  0
 14 15  1  0
 15 16  1  0
 15 17  1  0
 17 18  1  0
 18 19  1  0
 19 20  2  0
 19 21  1  0
 21 22  2  0
 22 23  1  0
 23 24  2  0
 24 25  1  0
 25 26  2  0
 25 27  1  0
 27 28  1  0
 28 29  1  0
 29 30  1  0
 13 31  1  0
 31 32  1  0
  9  4  1  0
 32 10  1  0
 26 21  1  0
 30 24  1  0
  1 33  1  0
  1 34  1  0
  1 35  1  0
  2 36  1  0
  2 37  1  0
  5 38  1  0
  6 39  1  0
  7 40  1  0
  8 41  1  0
 11 42  1  0
 11 43  1  0
 12 44  1  0
 12 45  1  0
 14 46  1  0
 14 47  1  0
 15 48  1  6
 16 49  1  0
 17 50  1  0
 17 51  1  0
 22 52  1  0
 23 53  1  0
 26 54  1  0
 28 55  1  0
 28 56  1  0
 29 57  1  0
 29 58  1  0
 31 59  1  0
 31 60  1  0
 32 61  1  0
 32 62  1  0
M  CHG  1  18  -1
M  END
>  <UniqueID>  (1) 
1

>  <SMILES>  (1) 
CCOc1ccccc1N1CCN(C[C@@H](O)C[N-]C(=O)c2ccc3c(c2)OCCO3)CC1

>  <Energy>  (1) 
79.44670525416302

>  <Genealogy>  (1) 
CCOc1ccccc1N1CCN(CC(O)C[N-]C(=O)c2ccc3c(c2)OCCO3)CC1 (protonated)
CCOc1ccccc1N1CCN(C[C@@H](O)C[N-]C(=O)c2ccc3c(c2)OCCO3)CC1 (chirality)
CCOc1ccccc1N1CCN(C[C@@H](O)C[N-]C(=O)c2ccc3c(c2)OCCO3)CC1 (3D coordinates assigned)
CCOc1ccccc1N1CCN(C[C@@H](O)C[N-]C(=O)c2ccc3c(c2)OCCO3)CC1 (nonaromatic ring conformer: 79.44670525416302 kcal/mol)

>  <smiles>  (1) 
CCOc1ccccc1N1CCN(CC(O)CNC(=O)c2ccc3c(c2)OCCO3)CC1

>  <score_type>  (1) 
oracle

>  <origin>  (1) 
adg

>  <m_score__min__energy>  (1) 
-10.039999999999999

>  <m_primary>  (1) 
energy

$$$$
1:0
     RDKit          3D

 57 59  0  0  0  0  0  0  0  0999 V2000
   57.0120   24.2320   43.7910 C   0  0  0  0  0  0  0  0  0  0  0  0
   57.4420   25.6480   44.1860 C   0  0  0  0  0  0  0  0  0  0  0  0
   56.7930   26.1030   45.4280 N   0  0  0  0  0  0  0  0  0  0  0  0
   56.9320   25.1360   46.5290 C   0  0  0  0  0  0  0  0  0  0  0  0
   58.1180   25.5190   47.4200 C   0  0  0  0  0  0  0  0  0  0  0  0
   59.0730   26.4760   46.6940 C   0  0  0  0  0  0  0  0  0  0  0  0
   58.6340   27.8730   46.8360 N   0  0  0  0  0  0  0  0  0  0  0  0
   58.5370   28.3010   48.2440 C   0  0  0  0  0  0  0  0  0  0  0  0
   59.6210   29.3430   48.5380 C   0  0  0  0  0  0  0  0  0  0  0  0
   60.5030   29.5290   47.3750 N   0  0  0  0  0  0  0  0  0  0  0  0
   60.3720   30.8750   46.8380 C   0  0  0  0  0  0  0  0  0  0  0  0
   61.4000   31.8350   47.0350 C   0  0  0  0  0  0  0  0  0  0  0  0
   62.6530   31.4810   47.5950 C   0  0  0  0  0  0  0  0  0  0  0  0
   63.6620   32.4270   47.7510 C   0  0  0  0  0  0  0  0  0  0  0  0
   63.4600   33.7370   47.3440 C   0  0  0  0  0  0  0  0  0  0  0  0
   62.2390   34.1160   46.7910 C   0  0  0  0  0  0  0  0  0  0  0  0
   61.1770   33.1860   46.6490 C   0  0  0  0  0  0  0  0  0  0  0  0
   59.9560   33.5670   46.1330 N   0  0  0  0  0  0  0  0  0  0  0  0
   59.6050   35.0030   46.0470 C   0  0  0  0  0  0  0  0  0  0  0  0
   59.0590   32.6100   45.7050 C   0  0  0  0  0  0  0  0  0  0  0  0
   57.9560   32.9520   44.8850 C   0  0  0  0  0  0  0  0  0  0  0  0
   57.0300   31.9970   44.4800 C   0  0  0  0  0  0  0  0  0  0  0  0
   57.1750   30.6600   44.8590 C   0  0  0  0  0  0  0  0  0  0  0  0
   56.2180   29.6700   44.4350 N   0  0  0  0  0  0  0  0  0  0  0  0
   55.9670   28.6790   45.1530 O   0  0  0  0  0  0  0  0  0  0  0  0
   55.5730   29.7910   43.2250 O   0  0  0  0  0  0  0  0  0  0  0  0
   58.2800   30.2930   45.6410 C   0  0  0  0  0  0  0  0  0  0  0  0
   59.2360   31.2480   46.0690 C   0  0  0  0  0  0  0  0  0  0  0  0
   56.8313   23.6371   44.6985 H   0  0  0  0  0  0  0  0  0  0  0  0
   56.0885   24.2820   43.1954 H   0  0  0  0  0  0  0  0  0  0  0  0
   57.8073   23.7600   43.1954 H   0  0  0  0  0  0  0  0  0  0  0  0
   58.5322   25.6589   44.3320 H   0  0  0  0  0  0  0  0  0  0  0  0
   57.1382   26.3298   43.3780 H   0  0  0  0  0  0  0  0  0  0  0  0
   57.2000   27.0210   45.7230 H   0  0  0  0  0  0  0  0  0  0  0  0
   56.0109   25.1345   47.1303 H   0  0  0  0  0  0  0  0  0  0  0  0
   57.1064   24.1346   46.1086 H   0  0  0  0  0  0  0  0  0  0  0  0
   57.7399   26.0106   48.3285 H   0  0  0  0  0  0  0  0  0  0  0  0
   58.6711   24.6031   47.6753 H   0  0  0  0  0  0  0  0  0  0  0  0
   60.0807   26.3710   47.1223 H   0  0  0  0  0  0  0  0  0  0  0  0
   59.0781   26.2189   45.6245 H   0  0  0  0  0  0  0  0  0  0  0  0
   57.6830   27.9470   46.4060 H   0  0  0  0  0  0  0  0  0  0  0  0
   57.5458   28.7421   48.4255 H   0  0  0  0  0  0  0  0  0  0  0  0
   58.6776   27.4307   48.9018 H   0  0  0  0  0  0  0  0  0  0  0  0
   59.1411   30.3021   48.7825 H   0  0  0  0  0  0  0  0  0  0  0  0
   60.2274   28.9885   49.3845 H   0  0  0  0  0  0  0  0  0  0  0  0
   60.2930   28.8220   46.6360 H   0  0  0  0  0  0  0  0  0  0  0  0
   61.4940   29.3230   47.6320 H   0  0  0  0  0  0  0  0  0  0  0  0
   62.8308   30.4425   47.9112 H   0  0  0  0  0  0  0  0  0  0  0  0
   64.6231   32.1343   48.1988 H   0  0  0  0  0  0  0  0  0  0  0  0
   64.2650   34.4779   47.4580 H   0  0  0  0  0  0  0  0  0  0  0  0
   62.0956   35.1547   46.4585 H   0  0  0  0  0  0  0  0  0  0  0  0
   59.5038   35.4171   47.0610 H   0  0  0  0  0  0  0  0  0  0  0  0
   60.3977   35.5426   45.5080 H   0  0  0  0  0  0  0  0  0  0  0  0
   58.6528   35.1161   45.5080 H   0  0  0  0  0  0  0  0  0  0  0  0
   57.8291   33.9957   44.5615 H   0  0  0  0  0  0  0  0  0  0  0  0
   56.1755   32.2968   43.8555 H   0  0  0  0  0  0  0  0  0  0  0  0
   58.4077   29.2391   45.9290 H   0  0  0  0  0  0  0  0  0  0  0  0
  1  2  1  0
  2  3  1  0
  3  4  1  0
  4  5  1  0
  5  6  1  0
  6  7  1  0
  7  8  1  0
  8  9  1  0
  9 10  1  0
 10 11  1  0
 11 12  2  0
 12 13  1  0
 13 14  2  0
 14 15  1  0
 15 16  2  0
 16 17  1  0
 17 18  2  0
 18 19  1  0
 18 20  1  0
 20 21  2  0
 21 22  1  0
 22 23  2  0
 23 24  1  0
 24 25  2  0
 24 26  1  0
 23 27  1  0
 27 28  2  0
 28 11  1  0
 17 12  1  0
 28 20  1  0
  1 29  1  0
  1 30  1  0
  1 31  1  0
  2 32  1  0
  2 33  1  0
  3 34  1  0
  4 35  1  0
  4 36  1  0
  5 37  1  0
  5 38  1  0
  6 39  1  0
  6 40  1  0
  7 41  1  0
  8 42  1  0
  8 43  1  0
  9 44  1  0
  9 45  1  0
 10 46  1  0
 10 47  1  0
 13 48  1  0
 14 49  1  0
 15 50  1  0
 16 51  1  0
 19 52  1  0
 19 53  1  0
 19 54  1  0
 21 55  1  0
 22 56  1  0
 27 57  1  0
M  CHG  4  10   1  18   1  24   1  26  -1
M  END
>  <UniqueID>  (2) 
2

>  <SMILES>  (2) 
CCNCCCNCC[NH2+]c1c2ccccc2[n+](C)c2ccc([N+](=O)[O-])cc12

>  <Energy>  (2) 
80.96607731020804

>  <Genealogy>  (2) 
CCNCCCNCC[NH2+]c1c2ccccc2[n+](C)c2ccc([N+](=O)[O-])cc12 (protonated)
CCNCCCNCC[NH2+]c1c2ccccc2[n+](C)c2ccc([N+](=O)[O-])cc12 (3D coordinates assigned)
CCNCCCNCC[NH2+]c1c2ccccc2[n+](C)c2ccc([N+](=O)[O-])cc12 (optimized conformer: 80.96607731020804 kcal/mol)

>  <smiles>  (2) 
CCNCCCNCCNc1c2ccccc2[n+](C)c2ccc([N+](=O)[O-])cc12

>  <score_type>  (2) 
oracle

>  <origin>  (2) 
adg

>  <m_score__min__energy>  (2) 
-5.1299999999999999

>  <m_primary>  (2) 
energy

$$$$
2:0
     RDKit          3D

 56 58  0  0  0  0  0  0  0  0999 V2000
   57.0953   34.3333   43.9332 H   0  0  0  0  0  0  0  0  0  0  0  0
   57.6820   34.2310   44.8580 C   0  0  0  0  0  0  0  0  0  0  0  0
   57.2150   33.4190   45.8950 C   0  0  0  0  0  0  0  0  0  0  0  0
   56.2608   32.8826   45.7861 H   0  0  0  0  0  0  0  0  0  0  0  0
   57.9600   33.2880   47.0710 C   0  0  0  0  0  0  0  0  0  0  0  0
   57.5884   32.6465   47.8836 H   0  0  0  0  0  0  0  0  0  0  0  0
   59.1790   33.9690   47.2230 C   0  0  0  0  0  0  0  0  0  0  0  0
   59.9540   33.7850   48.5140 C   0  0  0  0  0  0  0  0  0  0  0  0
   59.4264   34.3227   49.3156 H   0  0  0  0  0  0  0  0  0  0  0  0
   60.9663   34.1789   48.3406 H   0  0  0  0  0  0  0  0  0  0  0  0
   60.1040   32.3680   48.9210 N   0  0  0  0  0  0  0  0  0  0  0  0
   60.9320   31.4820   48.2340 C   0  0  0  0  0  0  0  0  0  0  0  0
   61.9160   31.8260   47.4370 N   0  0  0  0  0  0  0  0  0  0  0  0
   62.3570   33.0830   46.8350 C   0  0  0  0  0  0  0  0  0  0  0  0
   61.6508   33.8837   47.0999 H   0  0  0  0  0  0  0  0  0  0  0  0
   62.3933   32.9721   45.7412 H   0  0  0  0  0  0  0  0  0  0  0  0
   63.7500   33.4390   47.3570 C   0  0  0  0  0  0  0  0  0  0  0  0
   64.0833   34.3718   46.8786 H   0  0  0  0  0  0  0  0  0  0  0  0
   64.4312   32.6098   47.1155 H   0  0  0  0  0  0  0  0  0  0  0  0
   63.7480   33.6340   48.8910 C   0  0  0  0  0  0  0  0  0  0  0  0
   62.8595   34.2244   49.1595 H   0  0  0  0  0  0  0  0  0  0  0  0
   64.6948   34.1356   49.1401 H   0  0  0  0  0  0  0  0  0  0  0  0
   63.7220   32.3710   49.6830 N   0  0  0  0  0  0  0  0  0  0  0  0
   63.3400   31.6260   49.0510 H   0  0  0  0  0  0  0  0  0  0  0  0
   65.0700   31.9150   50.1140 C   0  0  0  0  0  0  0  0  0  0  0  0
   65.4128   31.1344   49.4190 H   0  0  0  0  0  0  0  0  0  0  0  0
   64.9725   31.5409   51.1438 H   0  0  0  0  0  0  0  0  0  0  0  0
   66.1130   33.0370   50.1370 C   0  0  0  0  0  0  0  0  0  0  0  0
   66.3520   33.2941   51.1795 H   0  0  0  0  0  0  0  0  0  0  0  0
   67.0257   32.6997   49.6240 H   0  0  0  0  0  0  0  0  0  0  0  0
   65.7101   33.9227   49.6240 H   0  0  0  0  0  0  0  0  0  0  0  0
   62.8230   32.4290   50.8650 C   0  0  0  0  0  0  0  0  0  0  0  0
   62.0232   31.6856   50.7316 H   0  0  0  0  0  0  0  0  0  0  0  0
   63.4394   32.2219   51.7522 H   0  0  0  0  0  0  0  0  0  0  0  0
   62.1780   33.8050   51.0730 C   0  0  0  0  0  0  0  0  0  0  0  0
   62.0835   34.0066   52.1502 H   0  0  0  0  0  0  0  0  0  0  0  0
   62.8072   34.5788   50.6090 H   0  0  0  0  0  0  0  0  0  0  0  0
   61.1807   33.8164   50.6090 H   0  0  0  0  0  0  0  0  0  0  0  0
   60.7870   30.1040   48.4240 C   0  0  0  0  0  0  0  0  0  0  0  0
   61.3861   29.4070   47.8196 H   0  0  0  0  0  0  0  0  0  0  0  0
   59.9010   29.6060   49.3610 C   0  0  0  0  0  0  0  0  0  0  0  0
   59.7754   28.5197   49.4797 H   0  0  0  0  0  0  0  0  0  0  0  0
   59.1700   30.4830   50.1520 C   0  0  0  0  0  0  0  0  0  0  0  0
   58.3230   29.9770   51.1520 C   0  0  0  0  0  0  0  0  0  0  0  0
   58.2309   28.8899   51.2922 H   0  0  0  0  0  0  0  0  0  0  0  0
   57.6000   30.8430   51.9660 C   0  0  0  0  0  0  0  0  0  0  0  0
   56.9345   30.4402   52.7437 H   0  0  0  0  0  0  0  0  0  0  0  0
   57.7190   32.2200   51.7960 C   0  0  0  0  0  0  0  0  0  0  0  0
   57.1549   32.9026   52.4486 H   0  0  0  0  0  0  0  0  0  0  0  0
   58.5510   32.7390   50.8010 C   0  0  0  0  0  0  0  0  0  0  0  0
   58.6381   33.8292   50.6833 H   0  0  0  0  0  0  0  0  0  0  0  0
   59.2870   31.8820   49.9380 C   0  0  0  0  0  0  0  0  0  0  0  0
   59.6400   34.7860   46.1690 C   0  0  0  0  0  0  0  0  0  0  0  0
   60.5926   35.3263   46.2717 H   0  0  0  0  0  0  0  0  0  0  0  0
   58.8920   34.9120   44.9950 C   0  0  0  0  0  0  0  0  0  0  0  0
   59.2583   35.5497   44.1770 H   0  0  0  0  0  0  0  0  0  0  0  0
  1  2  1  0
  2  3  2  0
  3  4  1  0
  3  5  1  0
  5  6  1  0
  5  7  2  0
  7  8  1  0
  8  9  1  0
  8 10  1  0
  8 11  1  0
 11 12  1  0
 12 13  2  0
 13 14  1  0
 14 15  1  0
 14 16  1  0
 14 17  1  0
 17 18  1  0
 17 19  1  0
 17 20  1  0
 20 21  1  0
 20 22  1  0
 20 23  1  0
 23 24  1  0
 23 25  1  0
 25 26  1  0
 25 27  1  0
 25 28  1  0
 28 29  1  0
 28 30  1  0
 28 31  1  0
 23 32  1  0
 32 33  1  0
 32 34  1  0
 32 35  1  0
 35 36  1  0
 35 37  1  0
 35 38  1  0
 12 39  1  0
 39 40  1  0
 39 41  2  0
 41 42  1  0
 41 43  1  0
 43 44  2  0
 44 45  1  0
 44 46  1  0
 46 47  1  0
 46 48  2  0
 48 49  1  0
 48 50  1  0
 50 51  1  0
 50 52  2  0
  7 53  1  0
 53 54  1  0
 53 55  2  0
 55 56  1  0
 55  2  1  0
 52 11  1  0
 52 43  1  0
M  CHG  1  23   1
M  END
>  <UniqueID>  (3) 
3

>  <SMILES>  (3) 
CC[NH+](CC)CCC/N=c1/ccc2ccccc2n1Cc1ccccc1

>  <Energy>  (3) 
84.62095813538758

>  <Genealogy>  (3) 
CC[NH+](CC)CCCN=c1ccc2ccccc2n1Cc1ccccc1 (protonated)
CC[NH+](CC)CCC/N=c1/ccc2ccccc2n1Cc1ccccc1 (cis-trans isomerization)
CC[NH+](CC)CCC/N=c1/ccc2ccccc2n1Cc1ccccc1 (3D coordinates assigned)
CC[NH+](CC)CCC/N=c1/ccc2ccccc2n1Cc1ccccc1 (optimized conformer: 84.62095813538758 kcal/mol)

>  <smiles>  (3) 
CCN(CC)CCCN=c1ccc2ccccc2n1Cc1ccccc1

>  <score_type>  (3) 
oracle

>  <origin>  (3) 
adg

>  <m_score__min__energy>  (3) 
-5.6900000000000004

>  <m_primary>  (3) 
energy

$$$$
3:0
     RDKit          3D

 34 36  0  0  0  0  0  0  0  0999 V2000
   56.6320   29.9350   43.1100 C   0  0  0  0  0  0  0  0  0  0  0  0
   56.5990   30.2900   44.4880 O   0  0  0  0  0  0  0  0  0  0  0  0
   57.3610   31.3230   45.0580 C   0  0  0  0  0  0  0  0  0  0  0  0
   58.1450   31.0300   46.1800 C   0  0  0  0  0  0  0  0  0  0  0  0
   58.9200   32.0250   46.7830 C   0  0  0  0  0  0  0  0  0  0  0  0
   58.9140   33.3290   46.2730 C   0  0  0  0  0  0  0  0  0  0  0  0
   59.9120   34.5740   47.0160 S   0  0  0  0  0  0  0  0  0  0  0  0
   60.0180   35.7690   46.1110 O   0  0  0  0  0  0  0  0  0  0  0  0
   59.2860   35.0100   48.3110 O   0  0  0  0  0  0  0  0  0  0  0  0
   61.4900   33.9350   47.3190 N   0  0  0  0  0  0  0  0  0  0  0  0
   61.9370   33.4910   48.5050 C   0  0  0  0  0  0  0  0  0  0  0  0
   63.2480   33.0790   48.3410 C   0  0  0  0  0  0  0  0  0  0  0  0
   64.1580   32.5170   49.3720 C   0  0  0  0  0  0  0  0  0  0  0  0
   63.7890   31.4020   50.1420 C   0  0  0  0  0  0  0  0  0  0  0  0
   64.6380   30.9060   51.0790 N   0  0  0  0  0  0  0  0  0  0  0  0
   65.8520   31.4720   51.2930 C   0  0  0  0  0  0  0  0  0  0  0  0
   66.2360   32.5500   50.5650 N   0  0  0  0  0  0  0  0  0  0  0  0
   65.4220   33.0810   49.6160 C   0  0  0  0  0  0  0  0  0  0  0  0
   63.5230   33.3130   46.9990 C   0  0  0  0  0  0  0  0  0  0  0  0
   62.4350   33.8350   46.4010 N   0  0  0  0  0  0  0  0  0  0  0  0
   58.1380   33.6270   45.1450 C   0  0  0  0  0  0  0  0  0  0  0  0
   57.3630   32.6330   44.5410 C   0  0  0  0  0  0  0  0  0  0  0  0
   56.7334   28.8438   43.0148 H   0  0  0  0  0  0  0  0  0  0  0  0
   55.6997   30.2603   42.6251 H   0  0  0  0  0  0  0  0  0  0  0  0
   57.4883   30.4265   42.6251 H   0  0  0  0  0  0  0  0  0  0  0  0
   58.1513   30.0094   46.5902 H   0  0  0  0  0  0  0  0  0  0  0  0
   59.5366   31.7827   47.6611 H   0  0  0  0  0  0  0  0  0  0  0  0
   61.3620   33.4602   49.4423 H   0  0  0  0  0  0  0  0  0  0  0  0
   62.8085   30.9285   49.9856 H   0  0  0  0  0  0  0  0  0  0  0  0
   66.5253   31.0565   52.0573 H   0  0  0  0  0  0  0  0  0  0  0  0
   65.7532   33.9554   49.0365 H   0  0  0  0  0  0  0  0  0  0  0  0
   64.4817   33.1040   46.5018 H   0  0  0  0  0  0  0  0  0  0  0  0
   58.1388   34.6470   44.7333 H   0  0  0  0  0  0  0  0  0  0  0  0
   56.7524   32.8748   43.6586 H   0  0  0  0  0  0  0  0  0  0  0  0
  1  2  1  0
  2  3  1  0
  3  4  2  0
  4  5  1  0
  5  6  2  0
  6  7  1  0
  7  8  2  0
  7  9  2  0
  7 10  1  0
 10 11  1  0
 11 12  2  0
 12 13  1  0
 13 14  2  0
 14 15  1  0
 15 16  2  0
 16 17  1  0
 17 18  2  0
 12 19  1  0
 19 20  2  0
  6 21  1  0
 21 22  2  0
 22  3  1  0
 20 10  1  0
 18 13  1  0
  1 23  1  0
  1 24  1  0
  1 25  1  0
  4 26  1  0
  5 27  1  0
 11 28  1  0
 14 29  1  0
 16 30  1  0
 18 31  1  0
 19 32  1  0
 21 33  1  0
 22 34  1  0
M  END
>  <UniqueID>  (4) 
4

>  <SMILES>  (4) 
COc1ccc(S(=O)(=O)n2cc(-c3cncnc3)cn2)cc1

>  <Energy>  (4) 
71.15060912159541

>  <Genealogy>  (4) 
COc1ccc(S(=O)(=O)n2cc(-c3cncnc3)cn2)cc1 (3D coordinates assigned)
COc1ccc(S(=O)(=O)n2cc(-c3cncnc3)cn2)cc1 (optimized conformer: 71.15060912159541 kcal/mol)

>  <smiles>  (4) 
COc1ccc(S(=O)(=O)n2cc(-c3cncnc3)cn2)cc1

>  <score_type>  (4) 
oracle

>  <origin>  (4) 
adg

>  <m_score__min__energy>  (4) 
-7.29

>  <m_primary>  (4) 
energy

$$$$
4:0
     RDKit          3D

 46 47  0  0  0  0  0  0  0  0999 V2000
   60.0260   30.0760   47.7120 C   0  0  0  0  0  0  0  0  0  0  0  0
   59.3780   28.7410   48.0930 C   0  0  0  0  0  0  0  0  0  0  0  0
   59.1590   27.8290   46.9480 N   0  0  0  0  0  0  0  0  0  0  0  0
   57.7850   27.2890   46.8220 C   0  0  0  0  0  0  0  0  0  0  0  0
   57.0850   27.7290   45.5290 C   0  0  0  0  0  0  0  0  0  0  0  0
   57.4760   29.1080   45.1990 N   0  0  0  0  0  0  0  0  0  0  0  0
   56.6020   29.6520   44.1350 C   0  0  0  0  0  0  0  0  0  0  0  0
   56.6740   31.1860   44.0650 C   0  0  0  0  0  0  0  0  0  0  0  0
   57.3940   31.7370   45.2220 N   0  0  0  0  0  0  0  0  0  0  0  0
   57.0610   33.1500   45.4550 C   0  0  0  0  0  0  0  0  0  0  0  0
   58.2750   34.0370   45.1570 C   0  0  0  0  0  0  0  0  0  0  0  0
   59.2750   34.0100   46.2840 C   0  0  0  0  0  0  0  0  0  0  0  0
   58.8580   34.2150   47.6080 C   0  0  0  0  0  0  0  0  0  0  0  0
   59.7910   34.2240   48.6470 C   0  0  0  0  0  0  0  0  0  0  0  0
   61.1510   34.0340   48.3770 C   0  0  0  0  0  0  0  0  0  0  0  0
   62.2960   34.0530   49.7110 Cl  0  0  0  0  0  0  0  0  0  0  0  0
   61.5780   33.8370   47.0520 C   0  0  0  0  0  0  0  0  0  0  0  0
   63.2780   33.6050   46.6680 Cl  0  0  0  0  0  0  0  0  0  0  0  0
   60.6410   33.8300   46.0120 C   0  0  0  0  0  0  0  0  0  0  0  0
   58.9040   29.1500   44.8080 C   0  0  0  0  0  0  0  0  0  0  0  0
   59.7970   28.2370   45.6800 C   0  0  0  0  0  0  0  0  0  0  0  0
   60.2937   30.6275   48.6253 H   0  0  0  0  0  0  0  0  0  0  0  0
   60.9328   29.8873   47.1186 H   0  0  0  0  0  0  0  0  0  0  0  0
   59.3168   30.6717   47.1186 H   0  0  0  0  0  0  0  0  0  0  0  0
   60.0311   28.2343   48.8187 H   0  0  0  0  0  0  0  0  0  0  0  0
   58.3862   28.9756   48.5069 H   0  0  0  0  0  0  0  0  0  0  0  0
   57.8373   26.1903   46.8361 H   0  0  0  0  0  0  0  0  0  0  0  0
   57.1978   27.6825   47.6648 H   0  0  0  0  0  0  0  0  0  0  0  0
   57.3790   27.0589   44.7077 H   0  0  0  0  0  0  0  0  0  0  0  0
   55.9951   27.6830   45.6706 H   0  0  0  0  0  0  0  0  0  0  0  0
   56.9186   29.2363   43.1671 H   0  0  0  0  0  0  0  0  0  0  0  0
   55.5647   29.3689   44.3669 H   0  0  0  0  0  0  0  0  0  0  0  0
   57.1980   31.4791   43.1433 H   0  0  0  0  0  0  0  0  0  0  0  0
   55.6485   31.5838   44.0708 H   0  0  0  0  0  0  0  0  0  0  0  0
   57.1020   31.1950   46.0680 H   0  0  0  0  0  0  0  0  0  0  0  0
   56.2288   33.4403   44.7969 H   0  0  0  0  0  0  0  0  0  0  0  0
   56.7710   33.2811   46.5080 H   0  0  0  0  0  0  0  0  0  0  0  0
   58.7627   33.6772   44.2390 H   0  0  0  0  0  0  0  0  0  0  0  0
   57.9222   35.0719   45.0363 H   0  0  0  0  0  0  0  0  0  0  0  0
   57.7914   34.3693   47.8285 H   0  0  0  0  0  0  0  0  0  0  0  0
   59.4553   34.3812   49.6827 H   0  0  0  0  0  0  0  0  0  0  0  0
   60.9768   33.6826   44.9749 H   0  0  0  0  0  0  0  0  0  0  0  0
   58.9900   28.8268   43.7601 H   0  0  0  0  0  0  0  0  0  0  0  0
   59.2533   30.1835   44.9493 H   0  0  0  0  0  0  0  0  0  0  0  0
   60.0374   27.3314   45.1037 H   0  0  0  0  0  0  0  0  0  0  0  0
   60.6956   28.8155   45.9405 H   0  0  0  0  0  0  0  0  0  0  0  0
  1  2  1  0
  2  3  1  0
  3  4  1  0
  4  5  1  0
  5  6  1  0
  6  7  1  0
  7  8  1  0
  8  9  1  0
  9 10  1  0
 10 11  1  0
 11 12  1  0
 12 13  2  0
 13 14  1  0
 14 15  2  0
 15 16  1  0
 15 17  1  0
 17 18  1  0
 17 19  2  0
  6 20  1  0
 20 21  1  0
 21  3  1  0
 19 12  1  0
  1 22  1  0
  1 23  1  0
  1 24  1  0
  2 25  1  0
  2 26  1  0
  4 27  1  0
  4 28  1  0
  5 29  1  0
  5 30  1  0
  7 31  1  0
  7 32  1  0
  8 33  1  0
  8 34  1  0
  9 35  1  0
 10 36  1  0
 10 37  1  0
 11 38  1  0
 11 39  1  0
 13 40  1  0
 14 41  1  0
 19 42  1  0
 20 43  1  0
 20 44  1  0
 21 45  1  0
 21 46  1  0
M  END
>  <UniqueID>  (5) 
5

>  <SMILES>  (5) 
CCN1CCN(CCNCCc2ccc(Cl)c(Cl)c2)CC1

>  <Energy>  (5) 
55.37240690669782

>  <Genealogy>  (5) 
CCN1CCN(CCNCCc2ccc(Cl)c(Cl)c2)CC1 (3D coordinates assigned)
CCN1CCN(CCNCCc2ccc(Cl)c(Cl)c2)CC1 (nonaromatic ring conformer: 55.37240690669782 kcal/mol)

>  <smiles>  (5) 
CCN1CCN(CCNCCc2ccc(Cl)c(Cl)c2)CC1

>  <score_type>  (5) 
oracle

>  <origin>  (5) 
adg

>  <m_score__min__energy>  (5) 
-6.9900000000000002

>  <m_primary>  (5) 
energy

$$$$
5:0
     RDKit          3D

 51 54  0  0  0  0  0  0  0  0999 V2000
   56.6000   22.9330   43.3490 C   0  0  0  0  0  0  0  0  0  0  0  0
   57.0280   24.3840   43.1060 C   0  0  0  0  0  0  0  0  0  0  0  0
   57.0730   25.1740   44.3490 N   0  0  0  0  0  0  0  0  0  0  0  0
   57.0700   24.3240   45.5510 C   0  0  0  0  0  0  0  0  0  0  0  0
   58.3140   24.5910   46.4080 C   0  0  0  0  0  0  0  0  0  0  0  0
   58.8430   25.9360   46.1390 N   0  0  0  0  0  0  0  0  0  0  0  0
   59.1740   26.6580   47.3840 C   0  0  0  0  0  0  0  0  0  0  0  0
   58.2290   27.8410   47.6620 C   0  0  0  0  0  0  0  0  0  0  0  0
   58.2880   28.8380   46.5820 N   0  0  0  0  0  0  0  0  0  0  0  0
   57.5630   28.6540   45.3540 C   0  0  0  0  0  0  0  0  0  0  0  0
   57.0010   27.5520   45.1060 O   0  0  0  0  0  0  0  0  0  0  0  0
   57.4750   29.7660   44.3850 C   0  0  0  0  0  0  0  0  0  0  0  0
   56.8220   29.5780   43.1530 C   0  0  0  0  0  0  0  0  0  0  0  0
   56.6960   30.6310   42.2520 C   0  0  0  0  0  0  0  0  0  0  0  0
   57.2030   31.8890   42.5660 C   0  0  0  0  0  0  0  0  0  0  0  0
   57.8520   32.1040   43.7920 C   0  0  0  0  0  0  0  0  0  0  0  0
   58.3380   33.3760   44.1020 C   0  0  0  0  0  0  0  0  0  0  0  0
   58.9260   33.6300   45.3440 C   0  0  0  0  0  0  0  0  0  0  0  0
   59.3410   34.9340   45.6560 C   0  0  0  0  0  0  0  0  0  0  0  0
   59.8660   35.2260   46.9130 C   0  0  0  0  0  0  0  0  0  0  0  0
   59.9630   34.2250   47.8760 C   0  0  0  0  0  0  0  0  0  0  0  0
   59.5640   32.9200   47.5790 C   0  0  0  0  0  0  0  0  0  0  0  0
   59.0790   32.5820   46.2930 C   0  0  0  0  0  0  0  0  0  0  0  0
   58.6950   31.2540   45.9360 C   0  0  0  0  0  0  0  0  0  0  0  0
   58.0100   31.0370   44.7110 C   0  0  0  0  0  0  0  0  0  0  0  0
   59.0200   30.0600   46.7700 C   0  0  0  0  0  0  0  0  0  0  0  0
   59.9900   30.0780   47.5740 O   0  0  0  0  0  0  0  0  0  0  0  0
   56.5441   22.7435   44.4311 H   0  0  0  0  0  0  0  0  0  0  0  0
   55.6129   22.7610   42.8952 H   0  0  0  0  0  0  0  0  0  0  0  0
   57.3358   22.2528   42.8952 H   0  0  0  0  0  0  0  0  0  0  0  0
   58.0294   24.3850   42.6508 H   0  0  0  0  0  0  0  0  0  0  0  0
   56.2821   24.8462   42.4427 H   0  0  0  0  0  0  0  0  0  0  0  0
   56.2650   25.8390   44.3790 H   0  0  0  0  0  0  0  0  0  0  0  0
   57.9570   25.7360   44.3360 H   0  0  0  0  0  0  0  0  0  0  0  0
   56.1695   24.5411   46.1443 H   0  0  0  0  0  0  0  0  0  0  0  0
   57.0762   23.2695   45.2380 H   0  0  0  0  0  0  0  0  0  0  0  0
   58.0447   24.5136   47.4717 H   0  0  0  0  0  0  0  0  0  0  0  0
   59.0855   23.8478   46.1582 H   0  0  0  0  0  0  0  0  0  0  0  0
   58.1510   26.4820   45.5750 H   0  0  0  0  0  0  0  0  0  0  0  0
   59.1101   25.9529   48.2258 H   0  0  0  0  0  0  0  0  0  0  0  0
   60.1884   27.0672   47.2676 H   0  0  0  0  0  0  0  0  0  0  0  0
   57.1989   27.4645   47.7461 H   0  0  0  0  0  0  0  0  0  0  0  0
   58.5445   28.3246   48.5983 H   0  0  0  0  0  0  0  0  0  0  0  0
   56.4078   28.5909   42.9000 H   0  0  0  0  0  0  0  0  0  0  0  0
   56.1934   30.4686   41.2871 H   0  0  0  0  0  0  0  0  0  0  0  0
   57.0946   32.7176   41.8507 H   0  0  0  0  0  0  0  0  0  0  0  0
   58.2572   34.1855   43.3616 H   0  0  0  0  0  0  0  0  0  0  0  0
   59.2511   35.7308   44.9030 H   0  0  0  0  0  0  0  0  0  0  0  0
   60.2038   36.2469   47.1446 H   0  0  0  0  0  0  0  0  0  0  0  0
   60.3558   34.4632   48.8755 H   0  0  0  0  0  0  0  0  0  0  0  0
   59.6276   32.1437   48.3557 H   0  0  0  0  0  0  0  0  0  0  0  0
  1  2  1  0
  2  3  1  0
  3  4  1  0
  4  5  1  0
  5  6  1  0
  6  7  1  0
  7  8  1  0
  8  9  1  0
  9 10  1  0
 10 11  2  0
 10 12  1  0
 12 13  1  0
 13 14  2  0
 14 15  1  0
 15 16  2  0
 16 17  1  0
 17 18  2  0
 18 19  1  0
 19 20  2  0
 20 21  1  0
 21 22  2  0
 22 23  1  0
 23 24  2  0
 24 25  1  0
 24 26  1  0
 26 27  2  0
 26  9  1  0
 25 12  2  0
 25 16  1  0
 23 18  1  0
  1 28  1  0
  1 29  1  0
  1 30  1  0
  2 31  1  0
  2 32  1  0
  3 33  1  0
  3 34  1  0
  4 35  1  0
  4 36  1  0
  5 37  1  0
  5 38  1  0
  6 39  1  0
  7 40  1  0
  7 41  1  0
  8 42  1  0
  8 43  1  0
 13 44  1  0
 14 45  1  0
 15 46  1  0
 17 47  1  0
 19 48  1  0
 20 49  1  0
 21 50  1  0
 22 51  1  0
M  CHG  1   3   1
M  END
>  <UniqueID>  (6) 
6

>  <SMILES>  (6) 
CC[NH2+]CCNCCN1C(=O)c2cccc3cc4ccccc4c(c23)C1=O

>  <Energy>  (6) 
66.77477803210664

>  <Genealogy>  (6) 
CC[NH2+]CCNCCN1C(=O)c2cccc3cc4ccccc4c(c23)C1=O (protonated)
CC[NH2+]CCNCCN1C(=O)c2cccc3cc4ccccc4c(c23)C1=O (3D coordinates assigned)
CC[NH2+]CCNCCN1C(=O)c2cccc3cc4ccccc4c(c23)C1=O (nonaromatic ring conformer: 66.77477803210664 kcal/mol)

>  <smiles>  (6) 
CCNCCNCCN1C(=O)c2cccc3cc4ccccc4c(c23)C1=O

>  <score_type>  (6) 
oracle

>  <origin>  (6) 
adg

>  <m_score__min__energy>  (6) 
-6.3899999999999997

>  <m_primary>  (6) 
energy

$$$$
6:0
     RDKit          3D

 53 55  0  0  0  0  0  0  0  0999 V2000
   59.0370   27.2550   47.2560 C   0  0  0  0  0  0  0  0  0  0  0  0
   59.1270   26.5790   45.8900 C   0  0  0  0  0  0  0  0  0  0  0  0
   57.7970   26.6420   45.1250 C   0  0  0  0  0  0  0  0  0  0  0  0
   57.8710   27.5870   43.9990 N   0  0  0  0  0  0  0  0  0  0  0  0
   58.1100   27.0910   42.6400 C   0  0  0  0  0  0  0  0  0  0  0  0
   57.7450   29.0060   44.2230 C   0  0  0  0  0  0  0  0  0  0  0  0
   57.2600   29.8170   43.2480 N   0  0  0  0  0  0  0  0  0  0  0  0
   57.1440   31.1560   43.4360 C   0  0  0  0  0  0  0  0  0  0  0  0
   57.5350   31.7400   44.6480 C   0  0  0  0  0  0  0  0  0  0  0  0
   58.0050   30.8790   45.6620 C   0  0  0  0  0  0  0  0  0  0  0  0
   58.1070   29.5460   45.4170 N   0  0  0  0  0  0  0  0  0  0  0  0
   58.4510   31.3970   46.9930 C   0  0  0  0  0  0  0  0  0  0  0  0
   59.5940   32.4170   46.8450 C   0  0  0  0  0  0  0  0  0  0  0  0
   59.1480   33.8080   46.5810 N   0  0  0  0  0  0  0  0  0  0  0  0
   60.0400   34.8570   47.1140 C   0  0  0  0  0  0  0  0  0  0  0  0
   61.3240   34.2360   47.5940 C   0  0  0  0  0  0  0  0  0  0  0  0
   61.5150   33.9910   48.9610 C   0  0  0  0  0  0  0  0  0  0  0  0
   62.6970   33.3960   49.4130 C   0  0  0  0  0  0  0  0  0  0  0  0
   63.7020   33.0340   48.5080 C   0  0  0  0  0  0  0  0  0  0  0  0
   64.8680   32.4390   49.0120 O   0  0  0  0  0  0  0  0  0  0  0  0
   65.6490   32.9760   50.0750 C   0  0  0  0  0  0  0  0  0  0  0  0
   63.5080   33.2740   47.1350 C   0  0  0  0  0  0  0  0  0  0  0  0
   62.3270   33.8690   46.6820 C   0  0  0  0  0  0  0  0  0  0  0  0
   58.6390   34.0570   45.2170 C   0  0  0  0  0  0  0  0  0  0  0  0
   57.3820   33.2420   44.8180 C   0  0  0  0  0  0  0  0  0  0  0  0
   59.1378   26.4976   48.0473 H   0  0  0  0  0  0  0  0  0  0  0  0
   59.8444   27.9958   47.3524 H   0  0  0  0  0  0  0  0  0  0  0  0
   58.0639   27.7587   47.3524 H   0  0  0  0  0  0  0  0  0  0  0  0
   59.9025   27.0836   45.2951 H   0  0  0  0  0  0  0  0  0  0  0  0
   59.3743   25.5195   46.0522 H   0  0  0  0  0  0  0  0  0  0  0  0
   57.5592   25.6405   44.7371 H   0  0  0  0  0  0  0  0  0  0  0  0
   57.0149   26.9876   45.8170 H   0  0  0  0  0  0  0  0  0  0  0  0
   58.5870   26.1011   42.6896 H   0  0  0  0  0  0  0  0  0  0  0  0
   57.1520   27.0100   42.1055 H   0  0  0  0  0  0  0  0  0  0  0  0
   58.7703   27.7898   42.1055 H   0  0  0  0  0  0  0  0  0  0  0  0
   56.7400   31.7874   42.6309 H   0  0  0  0  0  0  0  0  0  0  0  0
   57.5995   31.8836   47.4911 H   0  0  0  0  0  0  0  0  0  0  0  0
   58.8193   30.5487   47.5886 H   0  0  0  0  0  0  0  0  0  0  0  0
   60.1790   32.4148   47.7765 H   0  0  0  0  0  0  0  0  0  0  0  0
   60.1800   32.1048   45.9680 H   0  0  0  0  0  0  0  0  0  0  0  0
   60.2609   35.5866   46.3210 H   0  0  0  0  0  0  0  0  0  0  0  0
   59.5441   35.3638   47.9549 H   0  0  0  0  0  0  0  0  0  0  0  0
   60.7314   34.2681   49.6815 H   0  0  0  0  0  0  0  0  0  0  0  0
   62.8383   33.2109   50.4881 H   0  0  0  0  0  0  0  0  0  0  0  0
   65.2122   32.6757   51.0389 H   0  0  0  0  0  0  0  0  0  0  0  0
   66.6779   32.5935   50.0036 H   0  0  0  0  0  0  0  0  0  0  0  0
   65.6601   34.0736   50.0036 H   0  0  0  0  0  0  0  0  0  0  0  0
   64.2898   32.9919   46.4145 H   0  0  0  0  0  0  0  0  0  0  0  0
   62.1826   34.0505   45.6067 H   0  0  0  0  0  0  0  0  0  0  0  0
   58.3902   35.1255   45.1373 H   0  0  0  0  0  0  0  0  0  0  0  0
   59.4380   33.7372   44.5319 H   0  0  0  0  0  0  0  0  0  0  0  0
   56.6227   33.4082   45.5964 H   0  0  0  0  0  0  0  0  0  0  0  0
   57.1216   33.6089   43.8142 H   0  0  0  0  0  0  0  0  0  0  0  0
  1  2  1  0
  2  3  1  0
  3  4  1  0
  4  5  1  0
  4  6  1  0
  6  7  2  0
  7  8  1  0
  8  9  2  0
  9 10  1  0
 10 11  2  0
 10 12  1  0
 12 13  1  0
 13 14  1  0
 14 15  1  0
 15 16  1  0
 16 17  2  0
 17 18  1  0
 18 19  2  0
 19 20  1  0
 20 21  1  0
 19 22  1  0
 22 23  2  0
 14 24  1  0
 24 25  1  0
 11  6  1  0
 23 16  1  0
 25  9  1  0
  1 26  1  0
  1 27  1  0
  1 28  1  0
  2 29  1  0
  2 30  1  0
  3 31  1  0
  3 32  1  0
  5 33  1  0
  5 34  1  0
  5 35  1  0
  8 36  1  0
 12 37  1  0
 12 38  1  0
 13 39  1  0
 13 40  1  0
 15 41  1  0
 15 42  1  0
 17 43  1  0
 18 44  1  0
 21 45  1  0
 21 46  1  0
 21 47  1  0
 22 48  1  0
 23 49  1  0
 24 50  1  0
 24 51  1  0
 25 52  1  0
 25 53  1  0
M  END
>  <UniqueID>  (7) 
7

>  <SMILES>  (7) 
CCCN(C)c1ncc2c(n1)CCN(Cc1ccc(OC)cc1)CC2

>  <Energy>  (7) 
62.44312973353937

>  <Genealogy>  (7) 
CCCN(C)c1ncc2c(n1)CCN(Cc1ccc(OC)cc1)CC2 (3D coordinates assigned)
CCCN(C)c1ncc2c(n1)CCN(Cc1ccc(OC)cc1)CC2 (nonaromatic ring conformer: 62.44312973353937 kcal/mol)

>  <smiles>  (7) 
CCCN(C)c1ncc2c(n1)CCN(Cc1ccc(OC)cc1)CC2

>  <score_type>  (7) 
oracle

>  <origin>  (7) 
adg

>  <m_score__min__energy>  (7) 
-5.2400000000000002

>  <m_primary>  (7) 
energy

$$$$
7:0
     RDKit          3D

 75 78  0  0  0  0  0  0  0  0999 V2000
   55.9790   24.1180   44.6590 C   0  0  0  0  0  0  0  0  0  0  0  0
   54.9580   24.7880   45.5790 C   0  0  0  0  0  0  0  0  0  0  0  0
   55.3830   26.1410   45.9880 N   0  0  0  0  0  0  0  0  0  0  0  0
   56.8080   26.4160   45.7370 C   0  0  0  0  0  0  0  0  0  0  0  0
   57.7110   26.1790   46.9630 C   0  0  0  0  0  0  0  0  0  0  0  0
   59.2070   26.3120   46.6330 C   0  0  0  0  0  0  0  0  0  0  0  0
   59.6860   27.7650   46.7330 C   0  0  0  0  0  0  0  0  0  0  0  0
   58.5740   28.6810   46.9910 N   0  0  0  0  0  0  0  0  0  0  0  0
   58.7400   30.0940   46.8040 C   0  0  0  0  0  0  0  0  0  0  0  0
   58.3680   30.6880   45.5880 C   0  0  0  0  0  0  0  0  0  0  0  0
   57.8180   29.9120   44.5460 C   0  0  0  0  0  0  0  0  0  0  0  0
   57.3920   30.5110   43.3620 C   0  0  0  0  0  0  0  0  0  0  0  0
   57.4960   31.8880   43.2040 C   0  0  0  0  0  0  0  0  0  0  0  0
   58.0510   32.6730   44.2150 C   0  0  0  0  0  0  0  0  0  0  0  0
   58.5320   32.0890   45.4150 C   0  0  0  0  0  0  0  0  0  0  0  0
   59.1290   32.8450   46.4060 N   0  0  0  0  0  0  0  0  0  0  0  0
   59.5550   34.2330   46.1190 C   0  0  0  0  0  0  0  0  0  0  0  0
   59.3610   32.2940   47.6550 C   0  0  0  0  0  0  0  0  0  0  0  0
   59.7300   33.0930   48.7680 C   0  0  0  0  0  0  0  0  0  0  0  0
   60.0360   32.5140   50.0130 C   0  0  0  0  0  0  0  0  0  0  0  0
   60.4180   33.2790   51.1270 O   0  0  0  0  0  0  0  0  0  0  0  0
   61.7180   33.8300   51.3250 C   0  0  0  0  0  0  0  0  0  0  0  0
   62.7720   32.7380   51.0450 C   0  0  0  0  0  0  0  0  0  0  0  0
   63.4600   32.8080   49.7120 N   0  0  0  0  0  0  0  0  0  0  0  0
   64.9330   32.9010   49.9180 C   0  0  0  0  0  0  0  0  0  0  0  0
   63.1440   31.5290   48.9710 C   0  0  0  0  0  0  0  0  0  0  0  0
   62.7540   31.7070   47.4900 C   0  0  0  0  0  0  0  0  0  0  0  0
   63.6320   32.7490   46.8110 C   0  0  0  0  0  0  0  0  0  0  0  0
   63.5450   34.1050   47.5260 C   0  0  0  0  0  0  0  0  0  0  0  0
   62.9810   34.0080   48.9600 C   0  0  0  0  0  0  0  0  0  0  0  0
   59.9610   31.1320   50.1590 C   0  0  0  0  0  0  0  0  0  0  0  0
   59.5510   30.3290   49.0980 C   0  0  0  0  0  0  0  0  0  0  0  0
   59.2160   30.8970   47.8530 C   0  0  0  0  0  0  0  0  0  0  0  0
   56.7456   23.6150   45.2667 H   0  0  0  0  0  0  0  0  0  0  0  0
   55.4702   23.3776   44.0242 H   0  0  0  0  0  0  0  0  0  0  0  0
   56.4557   24.8794   44.0242 H   0  0  0  0  0  0  0  0  0  0  0  0
   53.9977   24.8633   45.0479 H   0  0  0  0  0  0  0  0  0  0  0  0
   54.8651   24.1733   46.4865 H   0  0  0  0  0  0  0  0  0  0  0  0
   55.1240   26.3630   46.9770 H   0  0  0  0  0  0  0  0  0  0  0  0
   57.1497   25.7606   44.9224 H   0  0  0  0  0  0  0  0  0  0  0  0
   56.8887   27.4826   45.4802 H   0  0  0  0  0  0  0  0  0  0  0  0
   57.4544   26.9173   47.7370 H   0  0  0  0  0  0  0  0  0  0  0  0
   57.5375   25.1494   47.3093 H   0  0  0  0  0  0  0  0  0  0  0  0
   59.7835   25.6977   47.3404 H   0  0  0  0  0  0  0  0  0  0  0  0
   59.3599   25.9724   45.5980 H   0  0  0  0  0  0  0  0  0  0  0  0
   60.4132   27.8457   47.5544 H   0  0  0  0  0  0  0  0  0  0  0  0
   60.1460   28.0431   45.7733 H   0  0  0  0  0  0  0  0  0  0  0  0
   57.7060   28.3460   47.4680 H   0  0  0  0  0  0  0  0  0  0  0  0
   57.7245   28.8230   44.6694 H   0  0  0  0  0  0  0  0  0  0  0  0
   56.9736   29.8943   42.5529 H   0  0  0  0  0  0  0  0  0  0  0  0
   57.1390   32.3611   42.2773 H   0  0  0  0  0  0  0  0  0  0  0  0
   58.1167   33.7626   44.0794 H   0  0  0  0  0  0  0  0  0  0  0  0
   59.7195   34.7691   47.0653 H   0  0  0  0  0  0  0  0  0  0  0  0
   60.4897   34.2172   45.5392 H   0  0  0  0  0  0  0  0  0  0  0  0
   58.7724   34.7443   45.5392 H   0  0  0  0  0  0  0  0  0  0  0  0
   59.7777   34.1862   48.6551 H   0  0  0  0  0  0  0  0  0  0  0  0
   61.8697   34.6747   50.6369 H   0  0  0  0  0  0  0  0  0  0  0  0
   61.8175   34.1871   52.3606 H   0  0  0  0  0  0  0  0  0  0  0  0
   63.5440   32.8085   51.8254 H   0  0  0  0  0  0  0  0  0  0  0  0
   62.2180   31.7877   51.0412 H   0  0  0  0  0  0  0  0  0  0  0  0
   65.1523   32.9149   50.9958 H   0  0  0  0  0  0  0  0  0  0  0  0
   65.4236   32.0320   49.4551 H   0  0  0  0  0  0  0  0  0  0  0  0
   65.3104   33.8248   49.4551 H   0  0  0  0  0  0  0  0  0  0  0  0
   64.0331   30.8827   49.0134 H   0  0  0  0  0  0  0  0  0  0  0  0
   62.2629   31.0978   49.4688 H   0  0  0  0  0  0  0  0  0  0  0  0
   62.8714   30.7449   46.9699 H   0  0  0  0  0  0  0  0  0  0  0  0
   61.7092   32.0480   47.4434 H   0  0  0  0  0  0  0  0  0  0  0  0
   64.6759   32.4025   46.8262 H   0  0  0  0  0  0  0  0  0  0  0  0
   63.2794   32.8789   45.7772 H   0  0  0  0  0  0  0  0  0  0  0  0
   64.5552   34.5374   47.5773 H   0  0  0  0  0  0  0  0  0  0  0  0
   62.8522   34.7332   46.9468 H   0  0  0  0  0  0  0  0  0  0  0  0
   63.2831   34.9090   49.5141 H   0  0  0  0  0  0  0  0  0  0  0  0
   61.8883   33.9179   48.8713 H   0  0  0  0  0  0  0  0  0  0  0  0
   60.2279   30.6701   51.1210 H   0  0  0  0  0  0  0  0  0  0  0  0
   59.4880   29.2392   49.2333 H   0  0  0  0  0  0  0  0  0  0  0  0
  1  2  1  0
  2  3  1  0
  3  4  1  0
  4  5  1  0
  5  6  1  0
  6  7  1  0
  7  8  1  0
  8  9  1  0
  9 10  2  0
 10 11  1  0
 11 12  2  0
 12 13  1  0
 13 14  2  0
 14 15  1  0
 15 16  2  0
 16 17  1  0
 16 18  1  0
 18 19  2  0
 19 20  1  0
 20 21  1  0
 21 22  1  0
 22 23  1  0
 23 24  1  0
 24 25  1  0
 24 26  1  0
 26 27  1  0
 27 28  1  0
 28 29  1  0
 29 30  1  0
 20 31  2  0
 31 32  1  0
 32 33  2  0
 33  9  1  0
 15 10  1  0
 33 18  1  0
 30 24  1  0
  1 34  1  0
  1 35  1  0
  1 36  1  0
  2 37  1  0
  2 38  1  0
  3 39  1  0
  4 40  1  0
  4 41  1  0
  5 42  1  0
  5 43  1  0
  6 44  1  0
  6 45  1  0
  7 46  1  0
  7 47  1  0
  8 48  1  0
 11 49  1  0
 12 50  1  0
 13 51  1  0
 14 52  1  0
 17 53  1  0
 17 54  1  0
 17 55  1  0
 19 56  1  0
 22 57  1  0
 22 58  1  0
 23 59  1  0
 23 60  1  0
 25 61  1  0
 25 62  1  0
 25 63  1  0
 26 64  1  0
 26 65  1  0
 27 66  1  0
 27 67  1  0
 28 68  1  0
 28 69  1  0
 29 70  1  0
 29 71  1  0
 30 72  1  0
 30 73  1  0
 31 74  1  0
 32 75  1  0
M  CHG  2  16   1  24   1
M  END
>  <UniqueID>  (8) 
8

>  <SMILES>  (8) 
CCNCCCCNc1c2ccccc2[n+](C)c2cc(OCC[N+]3(C)CCCCC3)ccc12

>  <Energy>  (8) 
115.4932764416686

>  <Genealogy>  (8) 
CCNCCCCNc1c2ccccc2[n+](C)c2cc(OCC[N+]3(C)CCCCC3)ccc12 (3D coordinates assigned)
CCNCCCCNc1c2ccccc2[n+](C)c2cc(OCC[N+]3(C)CCCCC3)ccc12 (nonaromatic ring conformer: 115.4932764416686 kcal/mol)

>  <smiles>  (8) 
CCNCCCCNc1c2ccccc2[n+](C)c2cc(OCC[N+]3(C)CCCCC3)ccc12

>  <score_type>  (8) 
oracle

>  <origin>  (8) 
adg

>  <m_score__min__energy>  (8) 
-5.9800000000000004

>  <m_primary>  (8) 
energy

$$$$
8:0
     RDKit          3D

 47 49  0  0  0  0  0  0  0  0999 V2000
   59.4570   26.5850   46.2800 C   0  0  0  0  0  0  0  0  0  0  0  0
   58.5270   27.5350   45.6710 N   0  0  0  0  0  0  0  0  0  0  0  0
   58.8550   28.7840   45.2880 C   0  0  0  0  0  0  0  0  0  0  0  0
   57.7120   29.4690   44.9290 C   0  0  0  0  0  0  0  0  0  0  0  0
   57.6240   31.1560   44.4490 S   0  0  0  0  0  0  0  0  0  0  0  0
   57.8440   31.2320   42.9660 O   0  0  0  0  0  0  0  0  0  0  0  0
   56.2600   31.6900   44.7830 O   0  0  0  0  0  0  0  0  0  0  0  0
   58.8660   32.0540   45.3010 N   0  0  0  0  0  0  0  0  0  0  0  0
   58.8880   33.4600   44.8940 C   0  0  0  0  0  0  0  0  0  0  0  0
   57.9960   34.2350   45.8500 C   0  0  0  0  0  0  0  0  0  0  0  0
   57.9380   33.3910   47.1100 C   0  0  0  0  0  0  0  0  0  0  0  0
   58.5990   32.0630   46.7500 C   0  0  0  0  0  0  0  0  0  0  0  0
   56.6410   28.6170   45.1120 C   0  0  0  0  0  0  0  0  0  0  0  0
   57.1850   27.4310   45.5700 C   0  0  0  0  0  0  0  0  0  0  0  0
   56.3930   26.2600   45.9670 C   0  0  0  0  0  0  0  0  0  0  0  0
   55.1390   26.3630   46.0220 O   0  0  0  0  0  0  0  0  0  0  0  0
   57.0070   25.0140   46.3210 N   0  0  0  0  0  0  0  0  0  0  0  0
   57.3450   23.9430   45.3810 C   0  0  0  0  0  0  0  0  0  0  0  0
   56.5680   22.6770   45.7720 C   0  0  0  0  0  0  0  0  0  0  0  0
   56.8730   21.4880   44.8340 C   0  0  0  0  0  0  0  0  0  0  0  0
   57.2920   21.9060   43.4150 C   0  0  0  0  0  0  0  0  0  0  0  0
   56.6330   23.2210   42.9970 C   0  0  0  0  0  0  0  0  0  0  0  0
   57.0290   24.3850   43.9300 C   0  0  0  0  0  0  0  0  0  0  0  0
   59.3880   26.6554   47.3756 H   0  0  0  0  0  0  0  0  0  0  0  0
   59.1995   25.5642   45.9613 H   0  0  0  0  0  0  0  0  0  0  0  0
   60.4831   26.8208   45.9613 H   0  0  0  0  0  0  0  0  0  0  0  0
   59.8754   29.1943   45.2649 H   0  0  0  0  0  0  0  0  0  0  0  0
   59.9161   33.8479   44.9441 H   0  0  0  0  0  0  0  0  0  0  0  0
   58.5269   33.5663   43.8604 H   0  0  0  0  0  0  0  0  0  0  0  0
   58.4287   35.2229   46.0666 H   0  0  0  0  0  0  0  0  0  0  0  0
   56.9962   34.4133   45.4274 H   0  0  0  0  0  0  0  0  0  0  0  0
   58.4865   33.8832   47.9266 H   0  0  0  0  0  0  0  0  0  0  0  0
   56.9034   33.2485   47.4553 H   0  0  0  0  0  0  0  0  0  0  0  0
   59.5442   31.9567   47.3026 H   0  0  0  0  0  0  0  0  0  0  0  0
   57.9367   31.2265   47.0174 H   0  0  0  0  0  0  0  0  0  0  0  0
   55.5782   28.8357   44.9314 H   0  0  0  0  0  0  0  0  0  0  0  0
   58.4218   23.7228   45.4269 H   0  0  0  0  0  0  0  0  0  0  0  0
   56.8431   22.3965   46.7994 H   0  0  0  0  0  0  0  0  0  0  0  0
   55.4945   22.9027   45.6906 H   0  0  0  0  0  0  0  0  0  0  0  0
   57.6892   20.8981   45.2766 H   0  0  0  0  0  0  0  0  0  0  0  0
   55.9412   20.9118   44.7353 H   0  0  0  0  0  0  0  0  0  0  0  0
   58.3847   22.0299   43.3875 H   0  0  0  0  0  0  0  0  0  0  0  0
   56.9675   21.1214   42.7157 H   0  0  0  0  0  0  0  0  0  0  0  0
   56.9459   23.4653   41.9711 H   0  0  0  0  0  0  0  0  0  0  0  0
   55.5425   23.0906   43.0585 H   0  0  0  0  0  0  0  0  0  0  0  0
   57.9220   24.8744   43.5142 H   0  0  0  0  0  0  0  0  0  0  0  0
   56.1639   25.0624   43.9824 H   0  0  0  0  0  0  0  0  0  0  0  0
  1  2  1  0
  2  3  1  0
  3  4  2  0
  4  5  1  0
  5  6  2  0
  5  7  2  0
  5  8  1  0
  8  9  1  0
  9 10  1  0
 10 11  1  0
 11 12  1  0
  4 13  1  0
 13 14  2  0
 14 15  1  0
 15 16  2  0
 15 17  1  0
 17 18  1  0
 18 19  1  0
 19 20  1  0
 20 21  1  0
 21 22  1  0
 22 23  1  0
 14  2  1  0
 23 18  1  0
 12  8  1  0
  1 24  1  0
  1 25  1  0
  1 26  1  0
  3 27  1  0
  9 28  1  0
  9 29  1  0
 10 30  1  0
 10 31  1  0
 11 32  1  0
 11 33  1  0
 12 34  1  0
 12 35  1  0
 13 36  1  0
 18 37  1  0
 19 38  1  0
 19 39  1  0
 20 40  1  0
 20 41  1  0
 21 42  1  0
 21 43  1  0
 22 44  1  0
 22 45  1  0
 23 46  1  0
 23 47  1  0
M  CHG  1  17  -1
M  END
>  <UniqueID>  (9) 
9

>  <SMILES>  (9) 
Cn1cc(S(=O)(=O)N2CCCC2)cc1C(=O)[N-]C1CCCCC1

>  <Energy>  (9) 
80.30312149417813

>  <Genealogy>  (9) 
Cn1cc(S(=O)(=O)N2CCCC2)cc1C(=O)[N-]C1CCCCC1 (protonated)
Cn1cc(S(=O)(=O)N2CCCC2)cc1C(=O)[N-]C1CCCCC1 (3D coordinates assigned)
Cn1cc(S(=O)(=O)N2CCCC2)cc1C(=O)[N-]C1CCCCC1 (nonaromatic ring conformer: 80.30312149417813 kcal/mol)

>  <smiles>  (9) 
Cn1cc(S(=O)(=O)N2CCCC2)cc1C(=O)NC1CCCCC1

>  <score_type>  (9) 
oracle

>  <origin>  (9) 
adg

>  <m_score__min__energy>  (9) 
-10

>  <m_primary>  (9) 
energy

$$$$
9:0
     RDKit          3D

 75 78  0  0  0  0  0  0  0  0999 V2000
   57.7480   24.6960   47.3510 C   0  0  0  0  0  0  0  0  0  0  0  0
   56.3480   25.2880   47.1170 C   0  0  0  0  0  0  0  0  0  0  0  0
   55.9060   25.2540   45.7060 N   0  0  0  0  0  0  0  0  0  0  0  0
   54.4780   24.9110   45.5820 C   0  0  0  0  0  0  0  0  0  0  0  0
   56.7600   24.3910   44.8620 C   0  0  0  0  0  0  0  0  0  0  0  0
   57.6110   25.2210   43.8870 C   0  0  0  0  0  0  0  0  0  0  0  0
   58.3030   26.4170   44.5630 C   0  0  0  0  0  0  0  0  0  0  0  0
   57.3540   27.4840   44.8840 N   0  0  0  0  0  0  0  0  0  0  0  0
   57.8310   28.7920   45.2360 C   0  0  0  0  0  0  0  0  0  0  0  0
   57.6500   29.8710   44.3560 C   0  0  0  0  0  0  0  0  0  0  0  0
   56.9370   29.7070   43.1500 C   0  0  0  0  0  0  0  0  0  0  0  0
   56.8010   30.7640   42.2540 C   0  0  0  0  0  0  0  0  0  0  0  0
   57.3730   31.9990   42.5420 C   0  0  0  0  0  0  0  0  0  0  0  0
   58.0630   32.1900   43.7390 C   0  0  0  0  0  0  0  0  0  0  0  0
   58.1890   31.1430   44.6880 C   0  0  0  0  0  0  0  0  0  0  0  0
   58.8300   31.3320   45.8990 N   0  0  0  0  0  0  0  0  0  0  0  0
   59.1580   32.7010   46.3580 C   0  0  0  0  0  0  0  0  0  0  0  0
   59.1300   30.2450   46.7000 C   0  0  0  0  0  0  0  0  0  0  0  0
   60.0110   30.3510   47.8040 C   0  0  0  0  0  0  0  0  0  0  0  0
   60.2380   29.2740   48.6640 C   0  0  0  0  0  0  0  0  0  0  0  0
   61.1360   29.4560   49.7230 O   0  0  0  0  0  0  0  0  0  0  0  0
   61.4400   30.7050   50.3380 C   0  0  0  0  0  0  0  0  0  0  0  0
   62.8770   31.1390   49.9550 C   0  0  0  0  0  0  0  0  0  0  0  0
   63.1310   32.6200   49.8990 N   0  0  0  0  0  0  0  0  0  0  0  0
   63.6010   33.0830   51.2340 C   0  0  0  0  0  0  0  0  0  0  0  0
   64.1800   32.9750   48.8930 C   0  0  0  0  0  0  0  0  0  0  0  0
   63.7680   32.6700   47.4360 C   0  0  0  0  0  0  0  0  0  0  0  0
   62.2940   32.9810   47.1450 C   0  0  0  0  0  0  0  0  0  0  0  0
   61.7120   33.9250   48.1880 C   0  0  0  0  0  0  0  0  0  0  0  0
   61.8270   33.3270   49.6070 C   0  0  0  0  0  0  0  0  0  0  0  0
   59.5800   28.0610   48.4320 C   0  0  0  0  0  0  0  0  0  0  0  0
   58.7720   27.9080   47.3090 C   0  0  0  0  0  0  0  0  0  0  0  0
   58.5700   28.9760   46.4150 C   0  0  0  0  0  0  0  0  0  0  0  0
   57.9364   24.6163   48.4318 H   0  0  0  0  0  0  0  0  0  0  0  0
   57.8047   23.6969   46.8943 H   0  0  0  0  0  0  0  0  0  0  0  0
   58.5043   25.3514   46.8943 H   0  0  0  0  0  0  0  0  0  0  0  0
   55.6262   24.7164   47.7189 H   0  0  0  0  0  0  0  0  0  0  0  0
   56.3990   26.3476   47.4079 H   0  0  0  0  0  0  0  0  0  0  0  0
   54.0379   24.8053   46.5846 H   0  0  0  0  0  0  0  0  0  0  0  0
   53.9554   25.7092   45.0344 H   0  0  0  0  0  0  0  0  0  0  0  0
   54.3749   23.9625   45.0344 H   0  0  0  0  0  0  0  0  0  0  0  0
   57.4283   23.8056   45.5106 H   0  0  0  0  0  0  0  0  0  0  0  0
   56.1073   23.7296   44.2734 H   0  0  0  0  0  0  0  0  0  0  0  0
   58.3830   24.5688   43.4525 H   0  0  0  0  0  0  0  0  0  0  0  0
   56.9340   25.6231   43.1189 H   0  0  0  0  0  0  0  0  0  0  0  0
   58.7802   26.0734   45.4926 H   0  0  0  0  0  0  0  0  0  0  0  0
   59.0481   26.8216   43.8622 H   0  0  0  0  0  0  0  0  0  0  0  0
   56.3210   27.3130   44.8780 H   0  0  0  0  0  0  0  0  0  0  0  0
   56.4833   28.7329   42.9147 H   0  0  0  0  0  0  0  0  0  0  0  0
   56.2410   30.6225   41.3179 H   0  0  0  0  0  0  0  0  0  0  0  0
   57.2809   32.8271   41.8238 H   0  0  0  0  0  0  0  0  0  0  0  0
   58.5172   33.1692   43.9508 H   0  0  0  0  0  0  0  0  0  0  0  0
   59.1643   32.7274   47.4577 H   0  0  0  0  0  0  0  0  0  0  0  0
   60.1501   32.9871   45.9787 H   0  0  0  0  0  0  0  0  0  0  0  0
   58.4033   33.4056   45.9787 H   0  0  0  0  0  0  0  0  0  0  0  0
   60.5286   31.3039   47.9885 H   0  0  0  0  0  0  0  0  0  0  0  0
   60.7241   31.4660   49.9938 H   0  0  0  0  0  0  0  0  0  0  0  0
   61.3701   30.5998   51.4307 H   0  0  0  0  0  0  0  0  0  0  0  0
   63.5663   30.7081   50.6961 H   0  0  0  0  0  0  0  0  0  0  0  0
   63.0303   30.7752   48.9283 H   0  0  0  0  0  0  0  0  0  0  0  0
   63.0544   32.5445   52.0222 H   0  0  0  0  0  0  0  0  0  0  0  0
   64.6782   32.8834   51.3330 H   0  0  0  0  0  0  0  0  0  0  0  0
   63.4176   34.1631   51.3330 H   0  0  0  0  0  0  0  0  0  0  0  0
   64.3918   34.0512   48.9765 H   0  0  0  0  0  0  0  0  0  0  0  0
   65.0622   32.3565   49.1149 H   0  0  0  0  0  0  0  0  0  0  0  0
   64.3923   33.2755   46.7625 H   0  0  0  0  0  0  0  0  0  0  0  0
   63.9115   31.5913   47.2756 H   0  0  0  0  0  0  0  0  0  0  0  0
   62.2158   33.4505   46.1533 H   0  0  0  0  0  0  0  0  0  0  0  0
   61.7276   32.0385   47.1749 H   0  0  0  0  0  0  0  0  0  0  0  0
   62.2597   34.8784   48.1547 H   0  0  0  0  0  0  0  0  0  0  0  0
   60.6472   34.0819   47.9609 H   0  0  0  0  0  0  0  0  0  0  0  0
   61.7130   34.1459   50.3326 H   0  0  0  0  0  0  0  0  0  0  0  0
   61.0394   32.5629   49.6832 H   0  0  0  0  0  0  0  0  0  0  0  0
   59.7016   27.2267   49.1385 H   0  0  0  0  0  0  0  0  0  0  0  0
   58.2853   26.9402   47.1179 H   0  0  0  0  0  0  0  0  0  0  0  0
  1  2  1  0
  2  3  1  0
  3  4  1  0
  3  5  1  0
  5  6  1  0
  6  7  1  0
  7  8  1  0
  8  9  1  0
  9 10  2  0
 10 11  1  0
 11 12  2  0
 12 13  1  0
 13 14  2  0
 14 15  1  0
 15 16  2  0
 16 17  1  0
 16 18  1  0
 18 19  2  0
 19 20  1  0
 20 21  1  0
 21 22  1  0
 22 23  1  0
 23 24  1  0
 24 25  1  0
 24 26  1  0
 26 27  1  0
 27 28  1  0
 28 29  1  0
 29 30  1  0
 20 31  2  0
 31 32  1  0
 32 33  2  0
 33  9  1  0
 15 10  1  0
 33 18  1  0
 30 24  1  0
  1 34  1  0
  1 35  1  0
  1 36  1  0
  2 37  1  0
  2 38  1  0
  4 39  1  0
  4 40  1  0
  4 41  1  0
  5 42  1  0
  5 43  1  0
  6 44  1  0
  6 45  1  0
  7 46  1  0
  7 47  1  0
  8 48  1  0
 11 49  1  0
 12 50  1  0
 13 51  1  0
 14 52  1  0
 17 53  1  0
 17 54  1  0
 17 55  1  0
 19 56  1  0
 22 57  1  0
 22 58  1  0
 23 59  1  0
 23 60  1  0
 25 61  1  0
 25 62  1  0
 25 63  1  0
 26 64  1  0
 26 65  1  0
 27 66  1  0
 27 67  1  0
 28 68  1  0
 28 69  1  0
 29 70  1  0
 29 71  1  0
 30 72  1  0
 30 73  1  0
 31 74  1  0
 32 75  1  0
M  CHG  2  16   1  24   1
M  END
>  <UniqueID>  (10) 
10

>  <SMILES>  (10) 
CCN(C)CCCNc1c2ccccc2[n+](C)c2cc(OCC[N+]3(C)CCCCC3)ccc12

>  <Energy>  (10) 
120.35586972644272

>  <Genealogy>  (10) 
CCN(C)CCCNc1c2ccccc2[n+](C)c2cc(OCC[N+]3(C)CCCCC3)ccc12 (3D coordinates assigned)
CCN(C)CCCNc1c2ccccc2[n+](C)c2cc(OCC[N+]3(C)CCCCC3)ccc12 (nonaromatic ring conformer: 120.35586972644272 kcal/mol)

>  <smiles>  (10) 
CCN(C)CCCNc1c2ccccc2[n+](C)c2cc(OCC[N+]3(C)CCCCC3)ccc12

>  <score_type>  (10) 
oracle

>  <origin>  (10) 
adg

>  <m_score__min__energy>  (10) 
-4.9699999999999998

>  <m_primary>  (10) 
energy

$$$$
10:0
     RDKit          3D

 52 54  0  0  0  0  0  0  0  0999 V2000
   58.5120   26.4110   46.5330 C   0  0  0  0  0  0  0  0  0  0  0  0
   58.4590   27.8160   45.9880 C   0  0  0  0  0  0  0  0  0  0  0  0
   58.6150   28.8980   46.8620 C   0  0  0  0  0  0  0  0  0  0  0  0
   58.5610   30.2280   46.3990 C   0  0  0  0  0  0  0  0  0  0  0  0
   58.7400   31.3080   47.2840 C   0  0  0  0  0  0  0  0  0  0  0  0
   58.8030   31.0940   48.7060 N   0  0  0  0  0  0  0  0  0  0  0  0
   60.0670   30.9110   49.4220 C   0  0  0  0  0  0  0  0  0  0  0  0
   59.8430   30.6050   50.9140 C   0  0  0  0  0  0  0  0  0  0  0  0
   58.6310   29.7000   51.2020 C   0  0  0  0  0  0  0  0  0  0  0  0
   57.3690   30.4730   51.2740 N   0  0  0  0  0  0  0  0  0  0  0  0
   56.5110   29.9840   52.3660 C   0  0  0  0  0  0  0  0  0  0  0  0
   57.6550   31.9040   51.4720 C   0  0  0  0  0  0  0  0  0  0  0  0
   58.9130   32.6020   46.7620 C   0  0  0  0  0  0  0  0  0  0  0  0
   59.2450   33.6840   47.6060 C   0  0  0  0  0  0  0  0  0  0  0  0
   59.4310   34.9620   47.0830 C   0  0  0  0  0  0  0  0  0  0  0  0
   59.3000   35.1810   45.7160 C   0  0  0  0  0  0  0  0  0  0  0  0
   58.9560   34.1290   44.8660 C   0  0  0  0  0  0  0  0  0  0  0  0
   58.7220   32.8250   45.3730 C   0  0  0  0  0  0  0  0  0  0  0  0
   58.3180   31.7860   44.5560 N   0  0  0  0  0  0  0  0  0  0  0  0
   57.8030   32.0690   43.1970 C   0  0  0  0  0  0  0  0  0  0  0  0
   58.3650   30.4840   45.0190 C   0  0  0  0  0  0  0  0  0  0  0  0
   58.2470   29.3790   44.1420 C   0  0  0  0  0  0  0  0  0  0  0  0
   58.2680   28.0590   44.6140 C   0  0  0  0  0  0  0  0  0  0  0  0
   58.1300   26.9210   43.6320 C   0  0  0  0  0  0  0  0  0  0  0  0
   58.5108   26.4439   47.6325 H   0  0  0  0  0  0  0  0  0  0  0  0
   57.6344   25.8482   46.1820 H   0  0  0  0  0  0  0  0  0  0  0  0
   59.4295   25.9159   46.1820 H   0  0  0  0  0  0  0  0  0  0  0  0
   58.7832   28.7064   47.9320 H   0  0  0  0  0  0  0  0  0  0  0  0
   57.9100   31.0540   49.2460 H   0  0  0  0  0  0  0  0  0  0  0  0
   60.6160   30.0740   48.9659 H   0  0  0  0  0  0  0  0  0  0  0  0
   60.6390   31.8477   49.3484 H   0  0  0  0  0  0  0  0  0  0  0  0
   60.7440   30.1076   51.3024 H   0  0  0  0  0  0  0  0  0  0  0  0
   59.6399   31.5680   51.4052 H   0  0  0  0  0  0  0  0  0  0  0  0
   58.5455   28.9537   50.3985 H   0  0  0  0  0  0  0  0  0  0  0  0
   58.7907   29.2164   52.1770 H   0  0  0  0  0  0  0  0  0  0  0  0
   56.9656   30.2431   53.3336 H   0  0  0  0  0  0  0  0  0  0  0  0
   55.5185   30.4521   52.2901 H   0  0  0  0  0  0  0  0  0  0  0  0
   56.4079   28.8915   52.2901 H   0  0  0  0  0  0  0  0  0  0  0  0
   57.6989   32.1236   52.5490 H   0  0  0  0  0  0  0  0  0  0  0  0
   58.6206   32.1526   51.0075 H   0  0  0  0  0  0  0  0  0  0  0  0
   56.8591   32.5047   51.0075 H   0  0  0  0  0  0  0  0  0  0  0  0
   59.3580   33.5164   48.6873 H   0  0  0  0  0  0  0  0  0  0  0  0
   59.6817   35.7984   47.7520 H   0  0  0  0  0  0  0  0  0  0  0  0
   59.4681   36.1867   45.3033 H   0  0  0  0  0  0  0  0  0  0  0  0
   58.8648   34.3140   43.7855 H   0  0  0  0  0  0  0  0  0  0  0  0
   56.8412   32.5975   43.2721 H   0  0  0  0  0  0  0  0  0  0  0  0
   58.5251   32.6970   42.6546 H   0  0  0  0  0  0  0  0  0  0  0  0
   57.6600   31.1227   42.6546 H   0  0  0  0  0  0  0  0  0  0  0  0
   58.1360   29.5607   43.0628 H   0  0  0  0  0  0  0  0  0  0  0  0
   58.0153   25.9748   44.1811 H   0  0  0  0  0  0  0  0  0  0  0  0
   57.2455   27.0876   42.9996 H   0  0  0  0  0  0  0  0  0  0  0  0
   59.0287   26.8713   42.9996 H   0  0  0  0  0  0  0  0  0  0  0  0
  1  2  1  0
  2  3  2  0
  3  4  1  0
  4  5  2  0
  5  6  1  0
  6  7  1  0
  7  8  1  0
  8  9  1  0
  9 10  1  0
 10 11  1  0
 10 12  1  0
  5 13  1  0
 13 14  2  0
 14 15  1  0
 15 16  2  0
 16 17  1  0
 17 18  2  0
 18 19  1  0
 19 20  1  0
 19 21  2  0
 21 22  1  0
 22 23  2  0
 23 24  1  0
 23  2  1  0
 21  4  1  0
 18 13  1  0
  1 25  1  0
  1 26  1  0
  1 27  1  0
  3 28  1  0
  6 29  1  0
  7 30  1  0
  7 31  1  0
  8 32  1  0
  8 33  1  0
  9 34  1  0
  9 35  1  0
 11 36  1  0
 11 37  1  0
 11 38  1  0
 12 39  1  0
 12 40  1  0
 12 41  1  0
 14 42  1  0
 15 43  1  0
 16 44  1  0
 17 45  1  0
 20 46  1  0
 20 47  1  0
 20 48  1  0
 22 49  1  0
 24 50  1  0
 24 51  1  0
 24 52  1  0
M  CHG  1  19   1
M  END
>  <UniqueID>  (11) 
11

>  <SMILES>  (11) 
Cc1cc2c(NCCCN(C)C)c3ccccc3[n+](C)c2cc1C

>  <Energy>  (11) 
75.68310504522391

>  <Genealogy>  (11) 
Cc1cc2c(NCCCN(C)C)c3ccccc3[n+](C)c2cc1C (3D coordinates assigned)
Cc1cc2c(NCCCN(C)C)c3ccccc3[n+](C)c2cc1C (optimized conformer: 75.68310504522391 kcal/mol)

>  <smiles>  (11) 
Cc1cc2c(NCCCN(C)C)c3ccccc3[n+](C)c2cc1C

>  <score_type>  (11) 
oracle

>  <origin>  (11) 
adg

>  <m_score__min__energy>  (11) 
-5.8899999999999997

>  <m_primary>  (11) 
energy

$$$$
11:0
     RDKit          3D

 29 30  0  0  0  0  0  0  0  0999 V2000
   55.7200   24.2750   46.3890 C   0  0  0  0  0  0  0  0  0  0  0  0
   54.8620   25.2560   45.5990 C   0  0  0  0  0  0  0  0  0  0  0  0
   55.1610   26.6320   46.0030 N   0  0  0  0  0  0  0  0  0  0  0  0
   56.8540   26.9870   45.8190 S   0  0  0  0  0  0  0  0  0  0  0  0
   57.5530   26.7450   47.1260 O   0  0  0  0  0  0  0  0  0  0  0  0
   57.4580   26.0850   44.7780 O   0  0  0  0  0  0  0  0  0  0  0  0
   57.0640   28.6760   45.3640 C   0  0  0  0  0  0  0  0  0  0  0  0
   58.0600   29.4410   45.9800 C   0  0  0  0  0  0  0  0  0  0  0  0
   58.2290   30.7850   45.6380 C   0  0  0  0  0  0  0  0  0  0  0  0
   57.4050   31.3920   44.6760 C   0  0  0  0  0  0  0  0  0  0  0  0
   57.6510   32.8570   44.3600 C   0  0  0  0  0  0  0  0  0  0  0  0
   57.2910   33.8740   45.4360 C   0  0  0  0  0  0  0  0  0  0  0  0
   58.7540   33.5630   45.1400 C   0  0  0  0  0  0  0  0  0  0  0  0
   56.3990   30.6140   44.0610 C   0  0  0  0  0  0  0  0  0  0  0  0
   56.2330   29.2690   44.4060 C   0  0  0  0  0  0  0  0  0  0  0  0
   55.5725   24.4436   47.4659 H   0  0  0  0  0  0  0  0  0  0  0  0
   55.4273   23.2454   46.1356 H   0  0  0  0  0  0  0  0  0  0  0  0
   56.7794   24.4279   46.1356 H   0  0  0  0  0  0  0  0  0  0  0  0
   55.0720   25.1391   44.5256 H   0  0  0  0  0  0  0  0  0  0  0  0
   53.8011   25.0463   45.8002 H   0  0  0  0  0  0  0  0  0  0  0  0
   58.7131   28.9823   46.7370 H   0  0  0  0  0  0  0  0  0  0  0  0
   59.0172   31.3752   46.1282 H   0  0  0  0  0  0  0  0  0  0  0  0
   57.4079   32.7329   43.2944 H   0  0  0  0  0  0  0  0  0  0  0  0
   56.8675   34.8487   45.1519 H   0  0  0  0  0  0  0  0  0  0  0  0
   56.6603   33.8626   46.3372 H   0  0  0  0  0  0  0  0  0  0  0  0
   59.3861   34.3132   44.6422 H   0  0  0  0  0  0  0  0  0  0  0  0
   59.6161   33.2342   45.7389 H   0  0  0  0  0  0  0  0  0  0  0  0
   55.7417   31.0693   43.3056 H   0  0  0  0  0  0  0  0  0  0  0  0
   55.4450   28.6735   43.9219 H   0  0  0  0  0  0  0  0  0  0  0  0
  1  2  1  0
  2  3  1  0
  3  4  1  0
  4  5  2  0
  4  6  2  0
  4  7  1  0
  7  8  2  0
  8  9  1  0
  9 10  2  0
 10 11  1  0
 11 12  1  0
 12 13  1  0
 10 14  1  0
 14 15  2  0
 15  7  1  0
 13 11  1  0
  1 16  1  0
  1 17  1  0
  1 18  1  0
  2 19  1  0
  2 20  1  0
  8 21  1  0
  9 22  1  0
 11 23  1  0
 12 24  1  0
 12 25  1  0
 13 26  1  0
 13 27  1  0
 14 28  1  0
 15 29  1  0
M  CHG  1   3  -1
M  END
>  <UniqueID>  (12) 
12

>  <SMILES>  (12) 
CC[N-]S(=O)(=O)c1ccc(C2CC2)cc1

>  <Energy>  (12) 
292.8768271949499

>  <Genealogy>  (12) 
CC[N-]S(=O)(=O)c1ccc(C2CC2)cc1 (protonated)
CC[N-]S(=O)(=O)c1ccc(C2CC2)cc1 (3D coordinates assigned)
CC[N-]S(=O)(=O)c1ccc(C2CC2)cc1 (nonaromatic ring conformer: 292.8768271949499 kcal/mol)

>  <smiles>  (12) 
CCNS(=O)(=O)c1ccc(C2CC2)cc1

>  <score_type>  (12) 
oracle

>  <origin>  (12) 
adg

>  <m_score__min__energy>  (12) 
-8.0999999999999996

>  <m_primary>  (12) 
energy

$$$$
12:0
     RDKit          3D

 50 49  0  0  0  0  0  0  0  0999 V2000
   58.6880   28.4710   45.1000 C   0  0  0  0  0  0  0  0  0  0  0  0
   57.2840   28.8600   45.5640 C   0  0  0  0  0  0  0  0  0  0  0  0
   56.8900   30.1770   45.0070 N   0  0  0  0  0  0  0  0  0  0  0  0
   55.7500   30.0550   44.0550 C   0  0  0  0  0  0  0  0  0  0  0  0
   56.2780   29.7690   42.6510 C   0  0  0  0  0  0  0  0  0  0  0  0
   58.0600   30.8450   44.3910 C   0  0  0  0  0  0  0  0  0  0  0  0
   57.8470   32.3630   44.2800 C   0  0  0  0  0  0  0  0  0  0  0  0
   57.1420   32.8480   45.4070 O   0  0  0  0  0  0  0  0  0  0  0  0
   57.4080   34.2210   45.6390 C   0  0  0  0  0  0  0  0  0  0  0  0
   58.8190   34.5690   45.1750 C   0  0  0  0  0  0  0  0  0  0  0  0
   59.5180   35.2030   46.2320 O   0  0  0  0  0  0  0  0  0  0  0  0
   59.1990   34.6000   47.4770 C   0  0  0  0  0  0  0  0  0  0  0  0
   60.4650   34.2100   48.2560 C   0  0  0  0  0  0  0  0  0  0  0  0
   61.2690   33.1870   47.5430 N   0  0  0  0  0  0  0  0  0  0  0  0
   60.4710   32.1900   46.7830 C   0  0  0  0  0  0  0  0  0  0  0  0
   60.8410   30.7320   47.0860 C   0  0  0  0  0  0  0  0  0  0  0  0
   62.3620   33.7820   46.7370 C   0  0  0  0  0  0  0  0  0  0  0  0
   63.6840   33.1450   47.1460 C   0  0  0  0  0  0  0  0  0  0  0  0
   59.3280   28.2937   45.9769 H   0  0  0  0  0  0  0  0  0  0  0  0
   58.6332   27.5542   44.4946 H   0  0  0  0  0  0  0  0  0  0  0  0
   59.1129   29.2853   44.4946 H   0  0  0  0  0  0  0  0  0  0  0  0
   56.5681   28.0967   45.2253 H   0  0  0  0  0  0  0  0  0  0  0  0
   57.2820   28.9272   46.6619 H   0  0  0  0  0  0  0  0  0  0  0  0
   55.0945   29.2311   44.3737 H   0  0  0  0  0  0  0  0  0  0  0  0
   55.1823   30.9971   44.0450 H   0  0  0  0  0  0  0  0  0  0  0  0
   57.2432   29.2462   42.7217 H   0  0  0  0  0  0  0  0  0  0  0  0
   55.5578   29.1377   42.1100 H   0  0  0  0  0  0  0  0  0  0  0  0
   56.4133   30.7171   42.1100 H   0  0  0  0  0  0  0  0  0  0  0  0
   58.9485   30.6529   45.0104 H   0  0  0  0  0  0  0  0  0  0  0  0
   58.1949   30.4400   43.3772 H   0  0  0  0  0  0  0  0  0  0  0  0
   58.8253   32.8626   44.2224 H   0  0  0  0  0  0  0  0  0  0  0  0
   57.2594   32.5746   43.3745 H   0  0  0  0  0  0  0  0  0  0  0  0
   56.6814   34.8312   45.0824 H   0  0  0  0  0  0  0  0  0  0  0  0
   57.3231   34.4264   46.7163 H   0  0  0  0  0  0  0  0  0  0  0  0
   59.3476   33.6489   44.8851 H   0  0  0  0  0  0  0  0  0  0  0  0
   58.7652   35.2472   44.3106 H   0  0  0  0  0  0  0  0  0  0  0  0
   58.6141   35.3111   48.0789 H   0  0  0  0  0  0  0  0  0  0  0  0
   58.6208   33.6854   47.2789 H   0  0  0  0  0  0  0  0  0  0  0  0
   61.0828   35.1085   48.4006 H   0  0  0  0  0  0  0  0  0  0  0  0
   60.1503   33.7813   49.2189 H   0  0  0  0  0  0  0  0  0  0  0  0
   59.4092   32.3359   47.0304 H   0  0  0  0  0  0  0  0  0  0  0  0
   60.6847   32.3574   45.7170 H   0  0  0  0  0  0  0  0  0  0  0  0
   60.8790   30.5821   48.1751 H   0  0  0  0  0  0  0  0  0  0  0  0
   60.0841   30.0634   46.6501 H   0  0  0  0  0  0  0  0  0  0  0  0
   61.8252   30.5053   46.6501 H   0  0  0  0  0  0  0  0  0  0  0  0
   62.1770   33.5940   45.6691 H   0  0  0  0  0  0  0  0  0  0  0  0
   62.4032   34.8674   46.9110 H   0  0  0  0  0  0  0  0  0  0  0  0
   63.7514   33.1125   48.2435 H   0  0  0  0  0  0  0  0  0  0  0  0
   63.7377   32.1221   46.7449 H   0  0  0  0  0  0  0  0  0  0  0  0
   64.5175   33.7404   46.7449 H   0  0  0  0  0  0  0  0  0  0  0  0
  1  2  1  0
  2  3  1  0
  3  4  1  0
  4  5  1  0
  3  6  1  0
  6  7  1  0
  7  8  1  0
  8  9  1  0
  9 10  1  0
 10 11  1  0
 11 12  1  0
 12 13  1  0
 13 14  1  0
 14 15  1  0
 15 16  1  0
 14 17  1  0
 17 18  1  0
  1 19  1  0
  1 20  1  0
  1 21  1  0
  2 22  1  0
  2 23  1  0
  4 24  1  0
  4 25  1  0
  5 26  1  0
  5 27  1  0
  5 28  1  0
  6 29  1  0
  6 30  1  0
  7 31  1  0
  7 32  1  0
  9 33  1  0
  9 34  1  0
 10 35  1  0
 10 36  1  0
 12 37  1  0
 12 38  1  0
 13 39  1  0
 13 40  1  0
 15 41  1  0
 15 42  1  0
 16 43  1  0
 16 44  1  0
 16 45  1  0
 17 46  1  0
 17 47  1  0
 18 48  1  0
 18 49  1  0
 18 50  1  0
M  END
>  <UniqueID>  (13) 
13

>  <SMILES>  (13) 
CCN(CC)CCOCCOCCN(CC)CC

>  <Energy>  (13) 
47.36743784665463

>  <Genealogy>  (13) 
CCN(CC)CCOCCOCCN(CC)CC (3D coordinates assigned)
CCN(CC)CCOCCOCCN(CC)CC (optimized conformer: 47.36743784665463 kcal/mol)

>  <smiles>  (13) 
CCN(CC)CCOCCOCCN(CC)CC

>  <score_type>  (13) 
oracle

>  <origin>  (13) 
adg

>  <m_score__min__energy>  (13) 
-4.8600000000000003

>  <m_primary>  (13) 
energy

$$$$
13:0
     RDKit          3D

 54 57  0  0  0  0  0  0  0  0999 V2000
   59.8350   33.4790   50.8220 C   0  0  0  0  0  0  0  0  0  0  0  0
   58.5680   33.1660   51.6150 C   0  0  0  0  0  0  0  0  0  0  0  0
   57.7620   32.1760   50.8840 N   0  0  0  0  0  0  0  0  0  0  0  0
   57.1560   31.1840   51.7870 C   0  0  0  0  0  0  0  0  0  0  0  0
   57.9980   29.9090   51.8040 C   0  0  0  0  0  0  0  0  0  0  0  0
   58.2450   29.4960   50.4760 O   0  0  0  0  0  0  0  0  0  0  0  0
   59.6390   29.4170   50.2350 C   0  0  0  0  0  0  0  0  0  0  0  0
   60.0200   30.1940   48.9720 C   0  0  0  0  0  0  0  0  0  0  0  0
   58.8850   30.9740   48.4790 N   0  0  0  0  0  0  0  0  0  0  0  0
   58.7910   31.3370   47.0940 C   0  0  0  0  0  0  0  0  0  0  0  0
   58.9720   32.6720   46.6620 C   0  0  0  0  0  0  0  0  0  0  0  0
   59.3160   33.6870   47.5770 C   0  0  0  0  0  0  0  0  0  0  0  0
   59.5240   34.9940   47.1450 C   0  0  0  0  0  0  0  0  0  0  0  0
   59.3960   35.3160   45.7980 C   0  0  0  0  0  0  0  0  0  0  0  0
   59.0400   34.3380   44.8720 C   0  0  0  0  0  0  0  0  0  0  0  0
   58.8010   33.0020   45.2740 C   0  0  0  0  0  0  0  0  0  0  0  0
   58.4220   32.0280   44.3630 N   0  0  0  0  0  0  0  0  0  0  0  0
   58.1500   32.3720   42.9550 C   0  0  0  0  0  0  0  0  0  0  0  0
   58.3270   30.7300   44.7970 C   0  0  0  0  0  0  0  0  0  0  0  0
   58.1010   29.6340   44.0300 N   0  0  0  0  0  0  0  0  0  0  0  0
   58.1470   28.5910   44.8810 C   0  0  0  0  0  0  0  0  0  0  0  0
   58.0200   27.2420   44.5530 C   0  0  0  0  0  0  0  0  0  0  0  0
   58.1640   26.2960   45.5830 C   0  0  0  0  0  0  0  0  0  0  0  0
   58.4440   26.7110   46.9020 C   0  0  0  0  0  0  0  0  0  0  0  0
   58.5780   28.0760   47.2070 C   0  0  0  0  0  0  0  0  0  0  0  0
   58.4040   29.0010   46.1730 C   0  0  0  0  0  0  0  0  0  0  0  0
   58.5090   30.3810   46.1210 C   0  0  0  0  0  0  0  0  0  0  0  0
   60.6620   33.6833   51.5179 H   0  0  0  0  0  0  0  0  0  0  0  0
   60.0932   32.6176   50.1884 H   0  0  0  0  0  0  0  0  0  0  0  0
   59.6624   34.3615   50.1884 H   0  0  0  0  0  0  0  0  0  0  0  0
   58.8430   32.7596   52.5995 H   0  0  0  0  0  0  0  0  0  0  0  0
   57.9827   34.0878   51.7484 H   0  0  0  0  0  0  0  0  0  0  0  0
   56.9870   32.6900   50.3920 H   0  0  0  0  0  0  0  0  0  0  0  0
   57.1050   31.6004   52.8039 H   0  0  0  0  0  0  0  0  0  0  0  0
   56.1434   30.9431   51.4311 H   0  0  0  0  0  0  0  0  0  0  0  0
   58.9538   30.1064   52.3114 H   0  0  0  0  0  0  0  0  0  0  0  0
   57.4569   29.1167   52.3421 H   0  0  0  0  0  0  0  0  0  0  0  0
   60.1778   29.8412   51.0951 H   0  0  0  0  0  0  0  0  0  0  0  0
   59.9119   28.3608   50.0936 H   0  0  0  0  0  0  0  0  0  0  0  0
   60.8516   30.8753   49.2050 H   0  0  0  0  0  0  0  0  0  0  0  0
   60.3190   29.4765   48.1937 H   0  0  0  0  0  0  0  0  0  0  0  0
   58.0230   31.0170   49.0670 H   0  0  0  0  0  0  0  0  0  0  0  0
   59.4214   33.4439   48.6446 H   0  0  0  0  0  0  0  0  0  0  0  0
   59.7907   35.7753   47.8720 H   0  0  0  0  0  0  0  0  0  0  0  0
   59.5767   36.3478   45.4623 H   0  0  0  0  0  0  0  0  0  0  0  0
   58.9430   34.6086   43.8102 H   0  0  0  0  0  0  0  0  0  0  0  0
   57.4682   33.2342   42.9133 H   0  0  0  0  0  0  0  0  0  0  0  0
   59.0940   32.6262   42.4507 H   0  0  0  0  0  0  0  0  0  0  0  0
   57.6849   31.5121   42.4507 H   0  0  0  0  0  0  0  0  0  0  0  0
   57.9740   29.5620   42.9980 H   0  0  0  0  0  0  0  0  0  0  0  0
   57.8134   26.9272   43.5195 H   0  0  0  0  0  0  0  0  0  0  0  0
   58.0576   25.2244   45.3588 H   0  0  0  0  0  0  0  0  0  0  0  0
   58.5583   25.9602   47.6977 H   0  0  0  0  0  0  0  0  0  0  0  0
   58.8129   28.4072   48.2293 H   0  0  0  0  0  0  0  0  0  0  0  0
  1  2  1  0
  2  3  1  0
  3  4  1  0
  4  5  1  0
  5  6  1  0
  6  7  1  0
  7  8  1  0
  8  9  1  0
  9 10  1  0
 10 11  2  0
 11 12  1  0
 12 13  2  0
 13 14  1  0
 14 15  2  0
 15 16  1  0
 16 17  2  0
 17 18  1  0
 17 19  1  0
 19 20  1  0
 20 21  1  0
 21 22  2  0
 22 23  1  0
 23 24  2  0
 24 25  1  0
 25 26  2  0
 26 27  1  0
 27 10  1  0
 16 11  1  0
 27 19  2  0
 26 21  1  0
  1 28  1  0
  1 29  1  0
  1 30  1  0
  2 31  1  0
  2 32  1  0
  3 33  1  0
  4 34  1  0
  4 35  1  0
  5 36  1  0
  5 37  1  0
  7 38  1  0
  7 39  1  0
  8 40  1  0
  8 41  1  0
  9 42  1  0
 12 43  1  0
 13 44  1  0
 14 45  1  0
 15 46  1  0
 18 47  1  0
 18 48  1  0
 18 49  1  0
 20 50  1  0
 22 51  1  0
 23 52  1  0
 24 53  1  0
 25 54  1  0
M  CHG  1  17   1
M  END
>  <UniqueID>  (14) 
14

>  <SMILES>  (14) 
CCNCCOCCNc1c2ccccc2[n+](C)c2[nH]c3ccccc3c12

>  <Energy>  (14) 
110.11384984755931

>  <Genealogy>  (14) 
CCNCCOCCNc1c2ccccc2[n+](C)c2[nH]c3ccccc3c12 (3D coordinates assigned)
CCNCCOCCNc1c2ccccc2[n+](C)c2[nH]c3ccccc3c12 (optimized conformer: 110.11384984755931 kcal/mol)

>  <smiles>  (14) 
CCNCCOCCNc1c2ccccc2[n+](C)c2[nH]c3ccccc3c12

>  <score_type>  (14) 
oracle

>  <origin>  (14) 
adg

>  <m_score__min__energy>  (14) 
-6.25

>  <m_primary>  (14) 
energy

$$$$
14:0
     RDKit          3D

 40 42  0  0  0  0  0  0  0  0999 V2000
   56.2940   30.3910   43.1070 C   0  0  0  0  0  0  0  0  0  0  0  0
   57.0650   29.8730   44.2790 C   0  0  0  0  0  0  0  0  0  0  0  0
   56.6870   28.6770   44.9010 C   0  0  0  0  0  0  0  0  0  0  0  0
   57.4190   28.1950   46.0040 C   0  0  0  0  0  0  0  0  0  0  0  0
   57.0860   26.9980   46.6670 O   0  0  0  0  0  0  0  0  0  0  0  0
   57.1640   25.6730   46.1360 C   0  0  0  0  0  0  0  0  0  0  0  0
   55.8450   25.2610   45.4670 C   0  0  0  0  0  0  0  0  0  0  0  0
   54.6970   26.0060   45.9790 N   0  0  0  0  0  0  0  0  0  0  0  0
   58.5170   28.9460   46.4670 C   0  0  0  0  0  0  0  0  0  0  0  0
   59.2850   28.5250   47.5660 C   0  0  0  0  0  0  0  0  0  0  0  0
   60.3710   29.2880   48.0040 C   0  0  0  0  0  0  0  0  0  0  0  0
   60.7170   30.4870   47.3550 C   0  0  0  0  0  0  0  0  0  0  0  0
   61.8730   31.2940   47.8240 C   0  0  0  0  0  0  0  0  0  0  0  0
   63.0440   31.5810   47.1340 C   0  0  0  0  0  0  0  0  0  0  0  0
   63.8260   32.3520   47.9100 N   0  0  0  0  0  0  0  0  0  0  0  0
   63.2100   32.5570   49.0620 N   0  0  0  0  0  0  0  0  0  0  0  0
   63.7160   33.4160   50.1250 C   0  0  0  0  0  0  0  0  0  0  0  0
   62.0130   31.9400   49.0450 C   0  0  0  0  0  0  0  0  0  0  0  0
   59.9490   30.9080   46.2540 C   0  0  0  0  0  0  0  0  0  0  0  0
   58.8600   30.1480   45.8120 C   0  0  0  0  0  0  0  0  0  0  0  0
   58.1320   30.5730   44.7470 N   0  0  0  0  0  0  0  0  0  0  0  0
   55.4303   30.9713   43.4638 H   0  0  0  0  0  0  0  0  0  0  0  0
   56.9432   31.0369   42.4976 H   0  0  0  0  0  0  0  0  0  0  0  0
   55.9414   29.5459   42.4976 H   0  0  0  0  0  0  0  0  0  0  0  0
   55.8186   28.1138   44.5285 H   0  0  0  0  0  0  0  0  0  0  0  0
   57.9717   25.6329   45.3903 H   0  0  0  0  0  0  0  0  0  0  0  0
   57.3644   24.9783   46.9650 H   0  0  0  0  0  0  0  0  0  0  0  0
   55.9276   25.4415   44.3851 H   0  0  0  0  0  0  0  0  0  0  0  0
   55.6772   24.1970   45.6899 H   0  0  0  0  0  0  0  0  0  0  0  0
   54.9820   26.5300   46.8380 H   0  0  0  0  0  0  0  0  0  0  0  0
   54.3850   26.6940   45.2580 H   0  0  0  0  0  0  0  0  0  0  0  0
   59.0298   27.5892   48.0847 H   0  0  0  0  0  0  0  0  0  0  0  0
   60.9622   28.9468   48.8666 H   0  0  0  0  0  0  0  0  0  0  0  0
   63.2909   31.2345   46.1196 H   0  0  0  0  0  0  0  0  0  0  0  0
   64.7600   32.7400   47.6520 H   0  0  0  0  0  0  0  0  0  0  0  0
   63.4594   32.9803   51.1019 H   0  0  0  0  0  0  0  0  0  0  0  0
   64.8091   33.5022   50.0377 H   0  0  0  0  0  0  0  0  0  0  0  0
   63.2614   34.4139   50.0377 H   0  0  0  0  0  0  0  0  0  0  0  0
   61.2731   31.9467   49.8589 H   0  0  0  0  0  0  0  0  0  0  0  0
   60.2068   31.8433   45.7356 H   0  0  0  0  0  0  0  0  0  0  0  0
  1  2  1  0
  2  3  2  0
  3  4  1  0
  4  5  1  0
  5  6  1  0
  6  7  1  0
  7  8  1  0
  4  9  2  0
  9 10  1  0
 10 11  2  0
 11 12  1  0
 12 13  1  0
 13 14  1  0
 14 15  2  0
 15 16  1  0
 16 17  1  0
 16 18  1  0
 12 19  2  0
 19 20  1  0
 20 21  2  0
 21  2  1  0
 20  9  1  0
 18 13  2  0
  1 22  1  0
  1 23  1  0
  1 24  1  0
  3 25  1  0
  6 26  1  0
  6 27  1  0
  7 28  1  0
  7 29  1  0
  8 30  1  0
  8 31  1  0
 10 32  1  0
 11 33  1  0
 14 34  1  0
 15 35  1  0
 17 36  1  0
 17 37  1  0
 17 38  1  0
 18 39  1  0
 19 40  1  0
M  CHG  1  15   1
M  END
>  <UniqueID>  (15) 
15

>  <SMILES>  (15) 
Cc1cc(OCCN)c2ccc(-c3c[nH+]n(C)c3)cc2n1

>  <Energy>  (15) 
75.83020726036652

>  <Genealogy>  (15) 
Cc1cc(OCCN)c2ccc(-c3c[nH+]n(C)c3)cc2n1 (protonated)
Cc1cc(OCCN)c2ccc(-c3c[nH+]n(C)c3)cc2n1 (3D coordinates assigned)
Cc1cc(OCCN)c2ccc(-c3c[nH+]n(C)c3)cc2n1 (optimized conformer: 75.83020726036652 kcal/mol)

>  <smiles>  (15) 
Cc1cc(OCCN)c2ccc(-c3cnn(C)c3)cc2n1

>  <score_type>  (15) 
oracle

>  <origin>  (15) 
adg

>  <m_score__min__energy>  (15) 
-6.3799999999999999

>  <m_primary>  (15) 
energy

$$$$
15:0
     RDKit          3D

 45 47  0  0  0  0  0  0  0  0999 V2000
   59.9600   33.7300   51.4460 C   0  0  0  0  0  0  0  0  0  0  0  0
   60.3000   33.4310   50.0970 O   0  0  0  0  0  0  0  0  0  0  0  0
   61.6070   33.1940   49.6380 C   0  0  0  0  0  0  0  0  0  0  0  0
   62.7360   33.7050   50.3090 C   0  0  0  0  0  0  0  0  0  0  0  0
   64.0210   33.4620   49.8160 C   0  0  0  0  0  0  0  0  0  0  0  0
   65.1020   33.9590   50.4670 F   0  0  0  0  0  0  0  0  0  0  0  0
   64.1940   32.7150   48.6500 C   0  0  0  0  0  0  0  0  0  0  0  0
   63.0840   32.2010   47.9770 C   0  0  0  0  0  0  0  0  0  0  0  0
   61.7900   32.4270   48.4700 C   0  0  0  0  0  0  0  0  0  0  0  0
   60.6260   31.8790   47.7350 C   0  0  0  0  0  0  0  0  0  0  0  0
   60.3530   30.5110   47.8570 C   0  0  0  0  0  0  0  0  0  0  0  0
   59.2820   29.9220   47.1690 C   0  0  0  0  0  0  0  0  0  0  0  0
   58.9870   28.5530   47.2870 O   0  0  0  0  0  0  0  0  0  0  0  0
   59.6550   27.5160   46.5760 C   0  0  0  0  0  0  0  0  0  0  0  0
   58.4640   30.7130   46.3480 C   0  0  0  0  0  0  0  0  0  0  0  0
   57.3480   30.1010   45.6840 N   0  0  0  0  0  0  0  0  0  0  0  0
   57.2550   30.0980   44.2240 C   0  0  0  0  0  0  0  0  0  0  0  0
   55.8870   29.5920   43.7730 C   0  0  0  0  0  0  0  0  0  0  0  0
   55.1330   29.1930   44.8830 O   0  0  0  0  0  0  0  0  0  0  0  0
   58.7310   32.0930   46.1930 C   0  0  0  0  0  0  0  0  0  0  0  0
   57.9770   32.8640   45.3500 N   0  0  0  0  0  0  0  0  0  0  0  0
   58.1970   34.1990   45.2080 C   0  0  0  0  0  0  0  0  0  0  0  0
   59.2130   34.8230   45.9230 C   0  0  0  0  0  0  0  0  0  0  0  0
   60.0190   34.0690   46.7710 C   0  0  0  0  0  0  0  0  0  0  0  0
   59.8070   32.6840   46.9060 C   0  0  0  0  0  0  0  0  0  0  0  0
   60.6107   33.1578   52.1236 H   0  0  0  0  0  0  0  0  0  0  0  0
   60.0963   34.8061   51.6286 H   0  0  0  0  0  0  0  0  0  0  0  0
   58.9101   33.4572   51.6286 H   0  0  0  0  0  0  0  0  0  0  0  0
   62.6051   34.2984   51.2259 H   0  0  0  0  0  0  0  0  0  0  0  0
   65.2062   32.5309   48.2607 H   0  0  0  0  0  0  0  0  0  0  0  0
   63.2246   31.6162   47.0560 H   0  0  0  0  0  0  0  0  0  0  0  0
   60.9890   29.8880   48.5031 H   0  0  0  0  0  0  0  0  0  0  0  0
   60.1075   26.8136   47.2914 H   0  0  0  0  0  0  0  0  0  0  0  0
   58.9318   26.9803   45.9436 H   0  0  0  0  0  0  0  0  0  0  0  0
   60.4419   27.9530   45.9436 H   0  0  0  0  0  0  0  0  0  0  0  0
   56.4550   30.0070   46.2200 H   0  0  0  0  0  0  0  0  0  0  0  0
   57.4027   31.1220   43.8504 H   0  0  0  0  0  0  0  0  0  0  0  0
   58.0304   29.4299   43.8209 H   0  0  0  0  0  0  0  0  0  0  0  0
   55.3572   30.3977   43.2436 H   0  0  0  0  0  0  0  0  0  0  0  0
   56.0242   28.7312   43.1021 H   0  0  0  0  0  0  0  0  0  0  0  0
   55.1410   28.2010   44.8780 H   0  0  0  0  0  0  0  0  0  0  0  0
   57.2110   32.4440   44.7770 H   0  0  0  0  0  0  0  0  0  0  0  0
   57.5679   34.7876   44.5241 H   0  0  0  0  0  0  0  0  0  0  0  0
   59.3788   35.9055   45.8192 H   0  0  0  0  0  0  0  0  0  0  0  0
   60.8251   34.5575   47.3381 H   0  0  0  0  0  0  0  0  0  0  0  0
  1  2  1  0
  2  3  1  0
  3  4  2  0
  4  5  1  0
  5  6  1  0
  5  7  2  0
  7  8  1  0
  8  9  2  0
  9 10  1  0
 10 11  2  0
 11 12  1  0
 12 13  1  0
 13 14  1  0
 12 15  2  0
 15 16  1  0
 16 17  1  0
 17 18  1  0
 18 19  1  0
 15 20  1  0
 20 21  2  0
 21 22  1  0
 22 23  2  0
 23 24  1  0
 24 25  2  0
  9  3  1  0
 25 10  1  0
 25 20  1  0
  1 26  1  0
  1 27  1  0
  1 28  1  0
  4 29  1  0
  7 30  1  0
  8 31  1  0
 11 32  1  0
 14 33  1  0
 14 34  1  0
 14 35  1  0
 16 36  1  0
 17 37  1  0
 17 38  1  0
 18 39  1  0
 18 40  1  0
 19 41  1  0
 21 42  1  0
 22 43  1  0
 23 44  1  0
 24 45  1  0
M  CHG  1  21   1
M  END
>  <UniqueID>  (16) 
16

>  <SMILES>  (16) 
COc1cc(F)ccc1-c1cc(OC)c(NCCO)c2[nH+]cccc12

>  <Energy>  (16) 
60.7040272351612

>  <Genealogy>  (16) 
COc1cc(F)ccc1-c1cc(OC)c(NCCO)c2[nH+]cccc12 (protonated)
COc1cc(F)ccc1-c1cc(OC)c(NCCO)c2[nH+]cccc12 (3D coordinates assigned)
COc1cc(F)ccc1-c1cc(OC)c(NCCO)c2[nH+]cccc12 (optimized conformer: 60.7040272351612 kcal/mol)

>  <smiles>  (16) 
COc1cc(F)ccc1-c1cc(OC)c(NCCO)c2ncccc12

>  <score_type>  (16) 
oracle

>  <origin>  (16) 
adg

>  <m_score__min__energy>  (16) 
-6.4400000000000004

>  <m_primary>  (16) 
energy

$$$$
16:0
     RDKit          3D

 51 52  0  0  0  0  0  0  0  0999 V2000
   63.1860   33.8420   46.3760 C   0  0  0  0  0  0  0  0  0  0  0  0
   63.5750   32.7970   47.4150 C   0  0  0  0  0  0  0  0  0  0  0  0
   62.4300   31.9290   47.7090 N   0  0  0  0  0  0  0  0  0  0  0  0
   62.5840   31.3100   49.0310 C   0  0  0  0  0  0  0  0  0  0  0  0
   61.2150   30.9740   49.6390 C   0  0  0  0  0  0  0  0  0  0  0  0
   60.6980   29.5680   49.2790 C   0  0  0  0  0  0  0  0  0  0  0  0
   59.8330   29.5270   48.0110 C   0  0  0  0  0  0  0  0  0  0  0  0
   60.6640   29.5650   46.7980 N   0  0  0  0  0  0  0  0  0  0  0  0
   59.9020   29.3020   45.5630 C   0  0  0  0  0  0  0  0  0  0  0  0
   58.4160   29.6950   45.6770 C   0  0  0  0  0  0  0  0  0  0  0  0
   58.1380   31.0560   45.1030 C   0  0  0  0  0  0  0  0  0  0  0  0
   57.4330   31.3720   43.9360 C   0  0  0  0  0  0  0  0  0  0  0  0
   56.7860   30.3980   43.0030 C   0  0  0  0  0  0  0  0  0  0  0  0
   57.4670   32.7060   43.7050 N   0  0  0  0  0  0  0  0  0  0  0  0
   58.1770   33.2370   44.7150 C   0  0  0  0  0  0  0  0  0  0  0  0
   58.4960   34.5800   44.9040 C   0  0  0  0  0  0  0  0  0  0  0  0
   59.2740   34.9200   46.0240 C   0  0  0  0  0  0  0  0  0  0  0  0
   59.7210   33.9280   46.9280 C   0  0  0  0  0  0  0  0  0  0  0  0
   60.4970   34.3310   48.0250 O   0  0  0  0  0  0  0  0  0  0  0  0
   60.0970   34.1910   49.3830 C   0  0  0  0  0  0  0  0  0  0  0  0
   59.3770   32.5720   46.7030 C   0  0  0  0  0  0  0  0  0  0  0  0
   58.6010   32.2680   45.5850 C   0  0  0  0  0  0  0  0  0  0  0  0
   62.8458   34.7560   46.8848 H   0  0  0  0  0  0  0  0  0  0  0  0
   64.0575   34.0754   45.7467 H   0  0  0  0  0  0  0  0  0  0  0  0
   62.3740   33.4488   45.7467 H   0  0  0  0  0  0  0  0  0  0  0  0
   64.4034   32.1872   47.0254 H   0  0  0  0  0  0  0  0  0  0  0  0
   63.8877   33.3062   48.3386 H   0  0  0  0  0  0  0  0  0  0  0  0
   61.5690   32.5270   47.7350 H   0  0  0  0  0  0  0  0  0  0  0  0
   63.1704   30.3849   48.9298 H   0  0  0  0  0  0  0  0  0  0  0  0
   63.0996   32.0198   49.6945 H   0  0  0  0  0  0  0  0  0  0  0  0
   61.2964   31.0429   50.7338 H   0  0  0  0  0  0  0  0  0  0  0  0
   60.4958   31.6942   49.2218 H   0  0  0  0  0  0  0  0  0  0  0  0
   61.5654   28.9087   49.1276 H   0  0  0  0  0  0  0  0  0  0  0  0
   60.0581   29.2411   50.1118 H   0  0  0  0  0  0  0  0  0  0  0  0
   59.2404   28.6003   48.0109 H   0  0  0  0  0  0  0  0  0  0  0  0
   59.1751   30.4085   48.0099 H   0  0  0  0  0  0  0  0  0  0  0  0
   61.1560   30.4860   46.7390 H   0  0  0  0  0  0  0  0  0  0  0  0
   60.3549   29.8777   44.7424 H   0  0  0  0  0  0  0  0  0  0  0  0
   59.9424   28.2188   45.3758 H   0  0  0  0  0  0  0  0  0  0  0  0
   57.8116   28.9527   45.1350 H   0  0  0  0  0  0  0  0  0  0  0  0
   58.1572   29.7223   46.7458 H   0  0  0  0  0  0  0  0  0  0  0  0
   56.2695   29.6205   43.5850 H   0  0  0  0  0  0  0  0  0  0  0  0
   56.0582   30.9256   42.3690 H   0  0  0  0  0  0  0  0  0  0  0  0
   57.5545   29.9317   42.3690 H   0  0  0  0  0  0  0  0  0  0  0  0
   57.0440   33.2170   42.9000 H   0  0  0  0  0  0  0  0  0  0  0  0
   58.1498   35.3500   44.1988 H   0  0  0  0  0  0  0  0  0  0  0  0
   59.5392   35.9729   46.2002 H   0  0  0  0  0  0  0  0  0  0  0  0
   60.9283   34.4820   50.0420 H   0  0  0  0  0  0  0  0  0  0  0  0
   59.2300   34.8391   49.5785 H   0  0  0  0  0  0  0  0  0  0  0  0
   59.8234   33.1437   49.5785 H   0  0  0  0  0  0  0  0  0  0  0  0
   59.7125   31.7817   47.3906 H   0  0  0  0  0  0  0  0  0  0  0  0
  1  2  1  0
  2  3  1  0
  3  4  1  0
  4  5  1  0
  5  6  1  0
  6  7  1  0
  7  8  1  0
  8  9  1  0
  9 10  1  0
 10 11  1  0
 11 12  2  0
 12 13  1  0
 12 14  1  0
 14 15  1  0
 15 16  2  0
 16 17  1  0
 17 18  2  0
 18 19  1  0
 19 20  1  0
 18 21  1  0
 21 22  2  0
 22 11  1  0
 22 15  1  0
  1 23  1  0
  1 24  1  0
  1 25  1  0
  2 26  1  0
  2 27  1  0
  3 28  1  0
  4 29  1  0
  4 30  1  0
  5 31  1  0
  5 32  1  0
  6 33  1  0
  6 34  1  0
  7 35  1  0
  7 36  1  0
  8 37  1  0
  9 38  1  0
  9 39  1  0
 10 40  1  0
 10 41  1  0
 13 42  1  0
 13 43  1  0
 13 44  1  0
 14 45  1  0
 16 46  1  0
 17 47  1  0
 20 48  1  0
 20 49  1  0
 20 50  1  0
 21 51  1  0
M  END
>  <UniqueID>  (17) 
17

>  <SMILES>  (17) 
CCNCCCCNCCc1c(C)[nH]c2ccc(OC)cc12

>  <Energy>  (17) 
70.65245579769413

>  <Genealogy>  (17) 
CCNCCCCNCCc1c(C)[nH]c2ccc(OC)cc12 (3D coordinates assigned)
CCNCCCCNCCc1c(C)[nH]c2ccc(OC)cc12 (optimized conformer: 70.65245579769413 kcal/mol)

>  <smiles>  (17) 
CCNCCCCNCCc1c(C)[nH]c2ccc(OC)cc12

>  <score_type>  (17) 
oracle

>  <origin>  (17) 
adg

>  <m_score__min__energy>  (17) 
-6.5099999999999998

>  <m_primary>  (17) 
energy

$$$$
17:0
     RDKit          3D

 53 55  0  0  0  0  0  0  0  0999 V2000
   65.2590   32.7680   49.7460 C   0  0  0  0  0  0  0  0  0  0  0  0
   63.7600   33.0010   49.5070 C   0  0  0  0  0  0  0  0  0  0  0  0
   63.1550   32.0340   48.5420 N   0  0  0  0  0  0  0  0  0  0  0  0
   63.4580   32.3960   47.1290 C   0  0  0  0  0  0  0  0  0  0  0  0
   63.0350   33.8210   46.7580 C   0  0  0  0  0  0  0  0  0  0  0  0
   61.6740   31.9790   48.7230 C   0  0  0  0  0  0  0  0  0  0  0  0
   61.0570   30.6360   48.2770 C   0  0  0  0  0  0  0  0  0  0  0  0
   60.9910   30.5260   46.8170 N   0  0  0  0  0  0  0  0  0  0  0  0
   59.7360   30.5600   46.1210 C   0  0  0  0  0  0  0  0  0  0  0  0
   59.1050   31.7940   45.9130 C   0  0  0  0  0  0  0  0  0  0  0  0
   59.4510   32.9230   46.6850 C   0  0  0  0  0  0  0  0  0  0  0  0
   58.7770   34.1290   46.5220 C   0  0  0  0  0  0  0  0  0  0  0  0
   57.7560   34.2320   45.5850 C   0  0  0  0  0  0  0  0  0  0  0  0
   57.4130   33.1370   44.7950 C   0  0  0  0  0  0  0  0  0  0  0  0
   58.0940   31.9000   44.9280 C   0  0  0  0  0  0  0  0  0  0  0  0
   57.7990   30.8170   44.1290 N   0  0  0  0  0  0  0  0  0  0  0  0
   57.0400   31.0120   42.8730 C   0  0  0  0  0  0  0  0  0  0  0  0
   58.2220   29.5550   44.5000 C   0  0  0  0  0  0  0  0  0  0  0  0
   57.7100   28.4000   43.8640 C   0  0  0  0  0  0  0  0  0  0  0  0
   58.1580   27.1340   44.2050 C   0  0  0  0  0  0  0  0  0  0  0  0
   59.0700   26.9660   45.2340 C   0  0  0  0  0  0  0  0  0  0  0  0
   59.5560   28.0700   45.9480 C   0  0  0  0  0  0  0  0  0  0  0  0
   60.3380   27.7750   47.2070 C   0  0  0  0  0  0  0  0  0  0  0  0
   59.1870   29.3920   45.5400 C   0  0  0  0  0  0  0  0  0  0  0  0
   65.4574   32.7372   50.8275 H   0  0  0  0  0  0  0  0  0  0  0  0
   65.5587   31.8125   49.2908 H   0  0  0  0  0  0  0  0  0  0  0  0
   65.8346   33.5875   49.2908 H   0  0  0  0  0  0  0  0  0  0  0  0
   63.2350   32.9078   50.4691 H   0  0  0  0  0  0  0  0  0  0  0  0
   63.6533   34.0049   49.0702 H   0  0  0  0  0  0  0  0  0  0  0  0
   63.5400   31.0810   48.7340 H   0  0  0  0  0  0  0  0  0  0  0  0
   64.5425   32.3026   46.9707 H   0  0  0  0  0  0  0  0  0  0  0  0
   62.8820   31.7111   46.4894 H   0  0  0  0  0  0  0  0  0  0  0  0
   62.8623   34.4028   47.6754 H   0  0  0  0  0  0  0  0  0  0  0  0
   63.8305   34.2973   46.1661 H   0  0  0  0  0  0  0  0  0  0  0  0
   62.1085   33.7861   46.1661 H   0  0  0  0  0  0  0  0  0  0  0  0
   61.4459   32.1321   49.7881 H   0  0  0  0  0  0  0  0  0  0  0  0
   61.2376   32.7658   48.0901 H   0  0  0  0  0  0  0  0  0  0  0  0
   61.6734   29.8134   48.6686 H   0  0  0  0  0  0  0  0  0  0  0  0
   60.0312   30.5832   48.6708 H   0  0  0  0  0  0  0  0  0  0  0  0
   61.8210   30.1290   46.3220 H   0  0  0  0  0  0  0  0  0  0  0  0
   60.2625   32.8489   47.4239 H   0  0  0  0  0  0  0  0  0  0  0  0
   59.0521   35.0004   47.1344 H   0  0  0  0  0  0  0  0  0  0  0  0
   57.2159   35.1829   45.4665 H   0  0  0  0  0  0  0  0  0  0  0  0
   56.6025   33.2331   44.0576 H   0  0  0  0  0  0  0  0  0  0  0  0
   55.9998   31.2792   43.1109 H   0  0  0  0  0  0  0  0  0  0  0  0
   57.5016   31.8207   42.2874 H   0  0  0  0  0  0  0  0  0  0  0  0
   57.0546   30.0809   42.2874 H   0  0  0  0  0  0  0  0  0  0  0  0
   56.9419   28.5089   43.0842 H   0  0  0  0  0  0  0  0  0  0  0  0
   57.7870   26.2566   43.6550 H   0  0  0  0  0  0  0  0  0  0  0  0
   59.4167   25.9549   45.4937 H   0  0  0  0  0  0  0  0  0  0  0  0
   59.7193   28.0084   48.0861 H   0  0  0  0  0  0  0  0  0  0  0  0
   60.6149   26.7106   47.2257 H   0  0  0  0  0  0  0  0  0  0  0  0
   61.2490   28.3913   47.2257 H   0  0  0  0  0  0  0  0  0  0  0  0
  1  2  1  0
  2  3  1  0
  3  4  1  0
  4  5  1  0
  3  6  1  0
  6  7  1  0
  7  8  1  0
  8  9  1  0
  9 10  2  0
 10 11  1  0
 11 12  2  0
 12 13  1  0
 13 14  2  0
 14 15  1  0
 15 16  2  0
 16 17  1  0
 16 18  1  0
 18 19  2  0
 19 20  1  0
 20 21  2  0
 21 22  1  0
 22 23  1  0
 22 24  2  0
 24  9  1  0
 15 10  1  0
 24 18  1  0
  1 25  1  0
  1 26  1  0
  1 27  1  0
  2 28  1  0
  2 29  1  0
  3 30  1  0
  4 31  1  0
  4 32  1  0
  5 33  1  0
  5 34  1  0
  5 35  1  0
  6 36  1  0
  6 37  1  0
  7 38  1  0
  7 39  1  0
  8 40  1  0
 11 41  1  0
 12 42  1  0
 13 43  1  0
 14 44  1  0
 17 45  1  0
 17 46  1  0
 17 47  1  0
 19 48  1  0
 20 49  1  0
 21 50  1  0
 23 51  1  0
 23 52  1  0
 23 53  1  0
M  CHG  2   3   1  16   1
M  END
>  <UniqueID>  (18) 
18

>  <SMILES>  (18) 
CC[NH+](CC)CCNc1c2ccccc2[n+](C)c2cccc(C)c12

>  <Energy>  (18) 
92.15211204344352

>  <Genealogy>  (18) 
CC[NH+](CC)CCNc1c2ccccc2[n+](C)c2cccc(C)c12 (protonated)
CC[NH+](CC)CCNc1c2ccccc2[n+](C)c2cccc(C)c12 (3D coordinates assigned)
CC[NH+](CC)CCNc1c2ccccc2[n+](C)c2cccc(C)c12 (optimized conformer: 92.15211204344352 kcal/mol)

>  <smiles>  (18) 
CCN(CC)CCNc1c2ccccc2[n+](C)c2cccc(C)c12

>  <score_type>  (18) 
oracle

>  <origin>  (18) 
adg

>  <m_score__min__energy>  (18) 
-4.8499999999999996

>  <m_primary>  (18) 
energy

$$$$
18:0
     RDKit          3D

 60 62  0  0  0  0  0  0  0  0999 V2000
   55.5610   29.7200   44.1560 C   0  0  0  0  0  0  0  0  0  0  0  0
   56.7840   30.1060   43.3130 C   0  0  0  0  0  0  0  0  0  0  0  0
   57.0710   31.5620   43.2910 N   0  0  0  0  0  0  0  0  0  0  0  0
   58.0490   31.9720   42.2560 C   0  0  0  0  0  0  0  0  0  0  0  0
   57.3630   32.3420   40.9410 C   0  0  0  0  0  0  0  0  0  0  0  0
   57.4470   32.0750   44.6290 C   0  0  0  0  0  0  0  0  0  0  0  0
   58.1000   33.4540   44.5160 C   0  0  0  0  0  0  0  0  0  0  0  0
   59.2140   33.5120   45.3790 O   0  0  0  0  0  0  0  0  0  0  0  0
   59.2960   34.7880   45.9780 C   0  0  0  0  0  0  0  0  0  0  0  0
   59.3730   34.6410   47.5000 C   0  0  0  0  0  0  0  0  0  0  0  0
   60.6560   33.9130   47.9320 C   0  0  0  0  0  0  0  0  0  0  0  0
   61.1680   33.0330   46.8650 N   0  0  0  0  0  0  0  0  0  0  0  0
   62.4760   32.4360   47.1950 C   0  0  0  0  0  0  0  0  0  0  0  0
   62.4560   31.5390   48.4540 C   0  0  0  0  0  0  0  0  0  0  0  0
   61.1440   30.8140   48.6600 C   0  0  0  0  0  0  0  0  0  0  0  0
   60.4580   30.9140   49.8880 C   0  0  0  0  0  0  0  0  0  0  0  0
   59.2540   30.2210   50.0990 C   0  0  0  0  0  0  0  0  0  0  0  0
   58.6940   29.4360   49.0820 C   0  0  0  0  0  0  0  0  0  0  0  0
   59.3470   29.3600   47.8470 C   0  0  0  0  0  0  0  0  0  0  0  0
   60.5510   30.0420   47.6470 C   0  0  0  0  0  0  0  0  0  0  0  0
   61.0950   29.7820   46.0660 S   0  0  0  0  0  0  0  0  0  0  0  0
   59.8060   28.7870   45.6380 C   0  0  0  0  0  0  0  0  0  0  0  0
   59.5830   28.1600   44.4150 C   0  0  0  0  0  0  0  0  0  0  0  0
   58.4340   27.3690   44.2720 C   0  0  0  0  0  0  0  0  0  0  0  0
   57.5330   27.2240   45.3450 C   0  0  0  0  0  0  0  0  0  0  0  0
   57.7740   27.8660   46.5700 C   0  0  0  0  0  0  0  0  0  0  0  0
   58.9290   28.6500   46.7100 C   0  0  0  0  0  0  0  0  0  0  0  0
   55.8121   29.7992   45.2240 H   0  0  0  0  0  0  0  0  0  0  0  0
   54.7269   30.3985   43.9241 H   0  0  0  0  0  0  0  0  0  0  0  0
   55.2675   28.6856   43.9241 H   0  0  0  0  0  0  0  0  0  0  0  0
   57.6632   29.5870   43.7224 H   0  0  0  0  0  0  0  0  0  0  0  0
   56.5603   29.8116   42.2770 H   0  0  0  0  0  0  0  0  0  0  0  0
   58.6104   32.8441   42.6223 H   0  0  0  0  0  0  0  0  0  0  0  0
   58.7200   31.1218   42.0640 H   0  0  0  0  0  0  0  0  0  0  0  0
   56.4132   32.8543   41.1544 H   0  0  0  0  0  0  0  0  0  0  0  0
   58.0174   33.0095   40.3612 H   0  0  0  0  0  0  0  0  0  0  0  0
   57.1647   31.4285   40.3612 H   0  0  0  0  0  0  0  0  0  0  0  0
   56.5441   32.1531   45.2525 H   0  0  0  0  0  0  0  0  0  0  0  0
   58.1669   31.3793   45.0848 H   0  0  0  0  0  0  0  0  0  0  0  0
   58.4284   33.6217   43.4796 H   0  0  0  0  0  0  0  0  0  0  0  0
   57.3738   34.2308   44.7974 H   0  0  0  0  0  0  0  0  0  0  0  0
   60.1964   35.3050   45.6148 H   0  0  0  0  0  0  0  0  0  0  0  0
   58.4021   35.3720   45.7137 H   0  0  0  0  0  0  0  0  0  0  0  0
   59.3588   35.6416   47.9568 H   0  0  0  0  0  0  0  0  0  0  0  0
   58.5100   34.0459   47.8331 H   0  0  0  0  0  0  0  0  0  0  0  0
   61.4248   34.6604   48.1775 H   0  0  0  0  0  0  0  0  0  0  0  0
   60.4193   33.2899   48.8070 H   0  0  0  0  0  0  0  0  0  0  0  0
   60.4710   32.2770   46.6670 H   0  0  0  0  0  0  0  0  0  0  0  0
   61.2970   33.5840   45.9840 H   0  0  0  0  0  0  0  0  0  0  0  0
   62.8037   31.8259   46.3404 H   0  0  0  0  0  0  0  0  0  0  0  0
   63.1624   33.2689   47.4075 H   0  0  0  0  0  0  0  0  0  0  0  0
   63.2562   30.7901   48.3603 H   0  0  0  0  0  0  0  0  0  0  0  0
   62.6001   32.1985   49.3225 H   0  0  0  0  0  0  0  0  0  0  0  0
   60.8707   31.5425   50.6909 H   0  0  0  0  0  0  0  0  0  0  0  0
   58.7461   30.2954   51.0719 H   0  0  0  0  0  0  0  0  0  0  0  0
   57.7555   28.8880   49.2521 H   0  0  0  0  0  0  0  0  0  0  0  0
   60.2906   28.2821   43.5817 H   0  0  0  0  0  0  0  0  0  0  0  0
   58.2354   26.8594   43.3176 H   0  0  0  0  0  0  0  0  0  0  0  0
   56.6335   26.6029   45.2221 H   0  0  0  0  0  0  0  0  0  0  0  0
   57.0685   27.7561   47.4068 H   0  0  0  0  0  0  0  0  0  0  0  0
  1  2  1  0
  2  3  1  0
  3  4  1  0
  4  5  1  0
  3  6  1  0
  6  7  1  0
  7  8  1  0
  8  9  1  0
  9 10  1  0
 10 11  1  0
 11 12  1  0
 12 13  1  0
 13 14  1  0
 14 15  1  0
 15 16  2  0
 16 17  1  0
 17 18  2  0
 18 19  1  0
 19 20  2  0
 20 21  1  0
 21 22  1  0
 22 23  2  0
 23 24  1  0
 24 25  2  0
 25 26  1  0
 26 27  2  0
 20 15  1  0
 27 22  1  0
 27 19  1  0
  1 28  1  0
  1 29  1  0
  1 30  1  0
  2 31  1  0
  2 32  1  0
  4 33  1  0
  4 34  1  0
  5 35  1  0
  5 36  1  0
  5 37  1  0
  6 38  1  0
  6 39  1  0
  7 40  1  0
  7 41  1  0
  9 42  1  0
  9 43  1  0
 10 44  1  0
 10 45  1  0
 11 46  1  0
 11 47  1  0
 12 48  1  0
 12 49  1  0
 13 50  1  0
 13 51  1  0
 14 52  1  0
 14 53  1  0
 16 54  1  0
 17 55  1  0
 18 56  1  0
 23 57  1  0
 24 58  1  0
 25 59  1  0
 26 60  1  0
M  CHG  1  12   1
M  END
>  <UniqueID>  (19) 
19

>  <SMILES>  (19) 
CCN(CC)CCOCCC[NH2+]CCc1cccc2c1sc1ccccc12

>  <Energy>  (19) 
91.4645388028066

>  <Genealogy>  (19) 
CCN(CC)CCOCCC[NH2+]CCc1cccc2c1sc1ccccc12 (protonated)
CCN(CC)CCOCCC[NH2+]CCc1cccc2c1sc1ccccc12 (3D coordinates assigned)
CCN(CC)CCOCCC[NH2+]CCc1cccc2c1sc1ccccc12 (optimized conformer: 91.4645388028066 kcal/mol)

>  <smiles>  (19) 
CCN(CC)CCOCCCNCCc1cccc2c1sc1ccccc12

>  <score_type>  (19) 
oracle

>  <origin>  (19) 
adg

>  <m_score__min__energy>  (19) 
-5.8300000000000001

>  <m_primary>  (19) 
energy

$$$$
19:0
     RDKit          3D

 49 51  0  0  0  0  0  0  0  0999 V2000
   63.1070   33.8570   46.3970 C   0  0  0  0  0  0  0  0  0  0  0  0
   63.7230   33.4320   47.7270 C   0  0  0  0  0  0  0  0  0  0  0  0
   62.6970   33.1800   48.7670 N   0  0  0  0  0  0  0  0  0  0  0  0
   63.2730   33.5150   50.0840 C   0  0  0  0  0  0  0  0  0  0  0  0
   62.2070   31.7760   48.7590 C   0  0  0  0  0  0  0  0  0  0  0  0
   61.0060   31.5740   49.7230 C   0  0  0  0  0  0  0  0  0  0  0  0
   59.6460   31.8730   49.1960 N   0  0  0  0  0  0  0  0  0  0  0  0
   59.4690   31.7920   47.7550 C   0  0  0  0  0  0  0  0  0  0  0  0
   59.3340   30.5160   47.1430 C   0  0  0  0  0  0  0  0  0  0  0  0
   59.6200   29.3180   47.8480 C   0  0  0  0  0  0  0  0  0  0  0  0
   59.5390   28.0780   47.2240 C   0  0  0  0  0  0  0  0  0  0  0  0
   59.1790   27.9940   45.8870 C   0  0  0  0  0  0  0  0  0  0  0  0
   58.8790   29.1500   45.1730 C   0  0  0  0  0  0  0  0  0  0  0  0
   58.9210   30.4270   45.7900 C   0  0  0  0  0  0  0  0  0  0  0  0
   58.5790   31.5660   45.0980 N   0  0  0  0  0  0  0  0  0  0  0  0
   57.8070   31.4560   43.8390 C   0  0  0  0  0  0  0  0  0  0  0  0
   58.9470   32.8060   45.5790 C   0  0  0  0  0  0  0  0  0  0  0  0
   58.9230   33.9370   44.7260 C   0  0  0  0  0  0  0  0  0  0  0  0
   59.2540   35.1990   45.1890 C   0  0  0  0  0  0  0  0  0  0  0  0
   59.6380   35.3760   46.5040 C   0  0  0  0  0  0  0  0  0  0  0  0
   59.7140   34.2920   47.3820 C   0  0  0  0  0  0  0  0  0  0  0  0
   60.2110   34.5840   48.6880 N   0  0  0  0  0  0  0  0  0  0  0  0
   59.3770   32.9660   46.9360 C   0  0  0  0  0  0  0  0  0  0  0  0
   62.2151   34.4724   46.5860 H   0  0  0  0  0  0  0  0  0  0  0  0
   63.8410   34.4417   45.8232 H   0  0  0  0  0  0  0  0  0  0  0  0
   62.8209   32.9632   45.8232 H   0  0  0  0  0  0  0  0  0  0  0  0
   64.3018   32.5098   47.5702 H   0  0  0  0  0  0  0  0  0  0  0  0
   64.3642   34.2536   48.0788 H   0  0  0  0  0  0  0  0  0  0  0  0
   62.6162   33.1330   50.8794 H   0  0  0  0  0  0  0  0  0  0  0  0
   64.2676   33.0545   50.1771 H   0  0  0  0  0  0  0  0  0  0  0  0
   63.3645   34.6072   50.1771 H   0  0  0  0  0  0  0  0  0  0  0  0
   61.8907   31.5159   47.7381 H   0  0  0  0  0  0  0  0  0  0  0  0
   63.0281   31.1274   49.0982 H   0  0  0  0  0  0  0  0  0  0  0  0
   61.0122   30.5212   50.0416 H   0  0  0  0  0  0  0  0  0  0  0  0
   61.1639   32.3085   50.5265 H   0  0  0  0  0  0  0  0  0  0  0  0
   58.9640   31.2290   49.6580 H   0  0  0  0  0  0  0  0  0  0  0  0
   59.2930   32.7810   49.5600 H   0  0  0  0  0  0  0  0  0  0  0  0
   59.9111   29.3713   48.9074 H   0  0  0  0  0  0  0  0  0  0  0  0
   59.7608   27.1622   47.7915 H   0  0  0  0  0  0  0  0  0  0  0  0
   59.1307   27.0133   45.3911 H   0  0  0  0  0  0  0  0  0  0  0  0
   58.6042   29.0724   44.1107 H   0  0  0  0  0  0  0  0  0  0  0  0
   56.7430   31.3044   44.0734 H   0  0  0  0  0  0  0  0  0  0  0  0
   57.9256   32.3801   43.2542 H   0  0  0  0  0  0  0  0  0  0  0  0
   58.1790   30.6018   43.2542 H   0  0  0  0  0  0  0  0  0  0  0  0
   58.6349   33.8095   43.6721 H   0  0  0  0  0  0  0  0  0  0  0  0
   59.2111   36.0622   44.5086 H   0  0  0  0  0  0  0  0  0  0  0  0
   59.8875   36.3847   46.8650 H   0  0  0  0  0  0  0  0  0  0  0  0
   61.2310   34.4650   48.8790 H   0  0  0  0  0  0  0  0  0  0  0  0
   59.7220   35.3090   49.2580 H   0  0  0  0  0  0  0  0  0  0  0  0
  1  2  1  0
  2  3  1  0
  3  4  1  0
  3  5  1  0
  5  6  1  0
  6  7  1  0
  7  8  1  0
  8  9  2  0
  9 10  1  0
 10 11  2  0
 11 12  1  0
 12 13  2  0
 13 14  1  0
 14 15  2  0
 15 16  1  0
 15 17  1  0
 17 18  2  0
 18 19  1  0
 19 20  2  0
 20 21  1  0
 21 22  1  0
 21 23  2  0
 23  8  1  0
 14  9  1  0
 23 17  1  0
  1 24  1  0
  1 25  1  0
  1 26  1  0
  2 27  1  0
  2 28  1  0
  4 29  1  0
  4 30  1  0
  4 31  1  0
  5 32  1  0
  5 33  1  0
  6 34  1  0
  6 35  1  0
  7 36  1  0
  7 37  1  0
 10 38  1  0
 11 39  1  0
 12 40  1  0
 13 41  1  0
 16 42  1  0
 16 43  1  0
 16 44  1  0
 18 45  1  0
 19 46  1  0
 20 47  1  0
 22 48  1  0
 22 49  1  0
M  CHG  2   7   1  15   1
M  END
>  <UniqueID>  (20) 
20

>  <SMILES>  (20) 
CCN(C)CC[NH2+]c1c2ccccc2[n+](C)c2cccc(N)c12

>  <Energy>  (20) 
99.77027919673392

>  <Genealogy>  (20) 
CCN(C)CC[NH2+]c1c2ccccc2[n+](C)c2cccc(N)c12 (protonated)
CCN(C)CC[NH2+]c1c2ccccc2[n+](C)c2cccc(N)c12 (3D coordinates assigned)
CCN(C)CC[NH2+]c1c2ccccc2[n+](C)c2cccc(N)c12 (optimized conformer: 99.77027919673392 kcal/mol)

>  <smiles>  (20) 
CCN(C)CCNc1c2ccccc2[n+](C)c2cccc(N)c12

>  <score_type>  (20) 
oracle

>  <origin>  (20) 
adg

>  <m_score__min__energy>  (20) 
-3.3399999999999999

>  <m_primary>  (20) 
energy

$$$$
20:0
     RDKit          3D

 53 54  0  0  0  0  0  0  0  0999 V2000
   57.1492   29.1692   42.4256 H   0  0  0  0  0  0  0  0  0  0  0  0
   56.8890   29.8100   43.2810 C   0  0  0  0  0  0  0  0  0  0  0  0
   56.4390   29.1340   44.5200 C   0  0  0  0  0  0  0  0  0  0  0  0
   55.2510   29.3220   44.8970 O   0  0  0  0  0  0  0  0  0  0  0  0
   57.3240   28.2770   45.3500 C   0  0  0  0  0  0  0  0  0  0  0  0
   58.6760   28.6350   45.4900 C   0  0  0  0  0  0  0  0  0  0  0  0
   59.0671   29.5105   44.9510 H   0  0  0  0  0  0  0  0  0  0  0  0
   59.5260   27.8890   46.3070 C   0  0  0  0  0  0  0  0  0  0  0  0
   60.5796   28.1847   46.4191 H   0  0  0  0  0  0  0  0  0  0  0  0
   59.0420   26.7700   46.9810 C   0  0  0  0  0  0  0  0  0  0  0  0
   59.7117   26.1899   47.6329 H   0  0  0  0  0  0  0  0  0  0  0  0
   57.7090   26.3830   46.8310 C   0  0  0  0  0  0  0  0  0  0  0  0
   57.3355   25.4944   47.3610 H   0  0  0  0  0  0  0  0  0  0  0  0
   56.8380   27.1230   46.0050 C   0  0  0  0  0  0  0  0  0  0  0  0
   55.5020   26.7340   45.8110 O   0  0  0  0  0  0  0  0  0  0  0  0
   55.0690   25.3920   45.6210 C   0  0  0  0  0  0  0  0  0  0  0  0
   54.9149   24.9144   46.5998 H   0  0  0  0  0  0  0  0  0  0  0  0
   54.1239   25.3879   45.0581 H   0  0  0  0  0  0  0  0  0  0  0  0
   55.8334   24.8363   45.0581 H   0  0  0  0  0  0  0  0  0  0  0  0
   57.0070   31.1370   43.1110 C   0  0  0  0  0  0  0  0  0  0  0  0
   56.6214   31.5654   42.1741 H   0  0  0  0  0  0  0  0  0  0  0  0
   57.6150   32.0650   44.0860 C   0  0  0  0  0  0  0  0  0  0  0  0
   58.4450   33.0980   43.6280 C   0  0  0  0  0  0  0  0  0  0  0  0
   58.6526   33.1978   42.5524 H   0  0  0  0  0  0  0  0  0  0  0  0
   59.0100   34.0020   44.5330 C   0  0  0  0  0  0  0  0  0  0  0  0
   59.6411   34.8246   44.1656 H   0  0  0  0  0  0  0  0  0  0  0  0
   58.7740   33.8620   45.9050 C   0  0  0  0  0  0  0  0  0  0  0  0
   59.4900   35.0320   47.0650 S   0  0  0  0  0  0  0  0  0  0  0  0
   59.8910   33.7810   48.3370 C   0  0  0  0  0  0  0  0  0  0  0  0
   59.5385   32.7965   47.9955 H   0  0  0  0  0  0  0  0  0  0  0  0
   59.3938   34.0673   49.2755 H   0  0  0  0  0  0  0  0  0  0  0  0
   61.4010   33.7110   48.5900 C   0  0  0  0  0  0  0  0  0  0  0  0
   61.5817   33.7279   49.6749 H   0  0  0  0  0  0  0  0  0  0  0  0
   61.8712   34.5753   48.0982 H   0  0  0  0  0  0  0  0  0  0  0  0
   61.9950   32.4790   48.0240 N   0  0  0  0  0  0  0  0  0  0  0  0
   61.0330   31.5780   47.3400 C   0  0  0  0  0  0  0  0  0  0  0  0
   61.5474   31.1109   46.4872 H   0  0  0  0  0  0  0  0  0  0  0  0
   60.1797   32.2038   47.0395 H   0  0  0  0  0  0  0  0  0  0  0  0
   60.4620   30.4600   48.2260 C   0  0  0  0  0  0  0  0  0  0  0  0
   60.5977   30.7258   49.2847 H   0  0  0  0  0  0  0  0  0  0  0  0
   59.3899   30.3354   48.0138 H   0  0  0  0  0  0  0  0  0  0  0  0
   60.9896   29.5184   48.0138 H   0  0  0  0  0  0  0  0  0  0  0  0
   63.2890   32.6480   47.3180 C   0  0  0  0  0  0  0  0  0  0  0  0
   64.0833   32.7401   48.0734 H   0  0  0  0  0  0  0  0  0  0  0  0
   63.4108   31.7662   46.6718 H   0  0  0  0  0  0  0  0  0  0  0  0
   63.3560   33.8720   46.4020 C   0  0  0  0  0  0  0  0  0  0  0  0
   63.4060   34.7851   47.0133 H   0  0  0  0  0  0  0  0  0  0  0  0
   64.2519   33.8063   45.7671 H   0  0  0  0  0  0  0  0  0  0  0  0
   62.4583   33.9044   45.7671 H   0  0  0  0  0  0  0  0  0  0  0  0
   57.9690   32.8170   46.3700 C   0  0  0  0  0  0  0  0  0  0  0  0
   57.7795   32.7081   47.4481 H   0  0  0  0  0  0  0  0  0  0  0  0
   57.4050   31.9110   45.4680 C   0  0  0  0  0  0  0  0  0  0  0  0
   56.7949   31.0747   45.8401 H   0  0  0  0  0  0  0  0  0  0  0  0
  1  2  1  0
  2  3  1  0
  3  4  2  0
  3  5  1  0
  5  6  2  0
  6  7  1  0
  6  8  1  0
  8  9  1  0
  8 10  2  0
 10 11  1  0
 10 12  1  0
 12 13  1  0
 12 14  2  0
 14 15  1  0
 15 16  1  0
 16 17  1  0
 16 18  1  0
 16 19  1  0
  2 20  2  0
 20 21  1  0
 20 22  1  0
 22 23  2  0
 23 24  1  0
 23 25  1  0
 25 26  1  0
 25 27  2  0
 27 28  1  0
 28 29  1  0
 29 30  1  0
 29 31  1  0
 29 32  1  0
 32 33  1  0
 32 34  1  0
 32 35  1  0
 35 36  1  0
 36 37  1  0
 36 38  1  0
 36 39  1  0
 39 40  1  0
 39 41  1  0
 39 42  1  0
 35 43  1  0
 43 44  1  0
 43 45  1  0
 43 46  1  0
 46 47  1  0
 46 48  1  0
 46 49  1  0
 27 50  1  0
 50 51  1  0
 50 52  2  0
 52 53  1  0
 14  5  1  0
 52 22  1  0
M  END
>  <UniqueID>  (21) 
21

>  <SMILES>  (21) 
CCN(CC)CCSc1ccc(/C=C\C(=O)c2ccccc2OC)cc1

>  <Energy>  (21) 
63.32174799879964

>  <Genealogy>  (21) 
CCN(CC)CCSc1ccc(/C=C\C(=O)c2ccccc2OC)cc1 (cis-trans isomerization)
CCN(CC)CCSc1ccc(/C=C\C(=O)c2ccccc2OC)cc1 (3D coordinates assigned)
CCN(CC)CCSc1ccc(/C=C\C(=O)c2ccccc2OC)cc1 (optimized conformer: 63.32174799879964 kcal/mol)

>  <smiles>  (21) 
CCN(CC)CCSc1ccc(C=CC(=O)c2ccccc2OC)cc1

>  <score_type>  (21) 
oracle

>  <origin>  (21) 
adg

>  <m_score__min__energy>  (21) 
-9.0800000000000001

>  <m_primary>  (21) 
energy

$$$$
21:0
     RDKit          3D

 44 47  0  0  0  0  0  0  0  0999 V2000
   59.9700   31.8440   54.6450 C   0  0  0  0  0  0  0  0  0  0  0  0
   58.8020   32.7290   54.4810 N   0  0  0  0  0  0  0  0  0  0  0  0
   59.2050   34.1120   54.1110 C   0  0  0  0  0  0  0  0  0  0  0  0
   58.8700   34.4960   52.6580 C   0  0  0  0  0  0  0  0  0  0  0  0
   59.0170   33.3340   51.7730 N   0  0  0  0  0  0  0  0  0  0  0  0
   59.8500   33.3970   50.5930 C   0  0  0  0  0  0  0  0  0  0  0  0
   59.2740   33.5190   49.3690 N   0  0  0  0  0  0  0  0  0  0  0  0
   59.9990   33.5990   48.2230 C   0  0  0  0  0  0  0  0  0  0  0  0
   59.2630   33.7700   46.9530 C   0  0  0  0  0  0  0  0  0  0  0  0
   58.1470   32.9630   46.6790 C   0  0  0  0  0  0  0  0  0  0  0  0
   57.4200   33.1450   45.4970 C   0  0  0  0  0  0  0  0  0  0  0  0
   57.7930   34.1420   44.5910 C   0  0  0  0  0  0  0  0  0  0  0  0
   58.8890   34.9640   44.8680 C   0  0  0  0  0  0  0  0  0  0  0  0
   59.6170   34.7870   46.0480 C   0  0  0  0  0  0  0  0  0  0  0  0
   61.4070   33.5250   48.2960 C   0  0  0  0  0  0  0  0  0  0  0  0
   62.2360   33.5220   47.1540 C   0  0  0  0  0  0  0  0  0  0  0  0
   63.6250   33.4490   47.2920 C   0  0  0  0  0  0  0  0  0  0  0  0
   64.2030   33.3670   48.5580 C   0  0  0  0  0  0  0  0  0  0  0  0
   63.3960   33.3430   49.6970 C   0  0  0  0  0  0  0  0  0  0  0  0
   61.9980   33.4130   49.5770 C   0  0  0  0  0  0  0  0  0  0  0  0
   61.2120   33.3560   50.6890 N   0  0  0  0  0  0  0  0  0  0  0  0
   58.2910   32.1050   52.1170 C   0  0  0  0  0  0  0  0  0  0  0  0
   57.7940   32.1450   53.5720 C   0  0  0  0  0  0  0  0  0  0  0  0
   60.1685   31.6936   55.7164 H   0  0  0  0  0  0  0  0  0  0  0  0
   59.7640   30.8732   54.1705 H   0  0  0  0  0  0  0  0  0  0  0  0
   60.8488   32.3050   54.1705 H   0  0  0  0  0  0  0  0  0  0  0  0
   58.6880   34.8138   54.7819 H   0  0  0  0  0  0  0  0  0  0  0  0
   60.2996   34.1605   54.2080 H   0  0  0  0  0  0  0  0  0  0  0  0
   57.8329   34.8593   52.6094 H   0  0  0  0  0  0  0  0  0  0  0  0
   59.5633   35.2841   52.3291 H   0  0  0  0  0  0  0  0  0  0  0  0
   57.8433   32.1855   47.3954 H   0  0  0  0  0  0  0  0  0  0  0  0
   56.5538   32.5025   45.2806 H   0  0  0  0  0  0  0  0  0  0  0  0
   57.2238   34.2797   43.6598 H   0  0  0  0  0  0  0  0  0  0  0  0
   59.1790   35.7512   44.1565 H   0  0  0  0  0  0  0  0  0  0  0  0
   60.4699   35.4454   46.2697 H   0  0  0  0  0  0  0  0  0  0  0  0
   61.7873   33.5773   46.1512 H   0  0  0  0  0  0  0  0  0  0  0  0
   64.2651   33.4563   46.3974 H   0  0  0  0  0  0  0  0  0  0  0  0
   65.2973   33.3211   48.6597 H   0  0  0  0  0  0  0  0  0  0  0  0
   63.8569   33.2689   50.6930 H   0  0  0  0  0  0  0  0  0  0  0  0
   61.6670   33.2550   51.6230 H   0  0  0  0  0  0  0  0  0  0  0  0
   57.4268   31.9980   51.4449 H   0  0  0  0  0  0  0  0  0  0  0  0
   58.9757   31.2514   52.0048 H   0  0  0  0  0  0  0  0  0  0  0  0
   56.8782   32.7525   53.6187 H   0  0  0  0  0  0  0  0  0  0  0  0
   57.6003   31.1116   53.8954 H   0  0  0  0  0  0  0  0  0  0  0  0
  1  2  1  0
  2  3  1  0
  3  4  1  0
  4  5  1  0
  5  6  1  0
  6  7  2  0
  7  8  1  0
  8  9  1  0
  9 10  2  0
 10 11  1  0
 11 12  2  0
 12 13  1  0
 13 14  2  0
  8 15  2  0
 15 16  1  0
 16 17  2  0
 17 18  1  0
 18 19  2  0
 19 20  1  0
 20 21  2  0
  5 22  1  0
 22 23  1  0
 23  2  1  0
 21  6  1  0
 14  9  1  0
 20 15  1  0
  1 24  1  0
  1 25  1  0
  1 26  1  0
  3 27  1  0
  3 28  1  0
  4 29  1  0
  4 30  1  0
 10 31  1  0
 11 32  1  0
 12 33  1  0
 13 34  1  0
 14 35  1  0
 16 36  1  0
 17 37  1  0
 18 38  1  0
 19 39  1  0
 21 40  1  0
 22 41  1  0
 22 42  1  0
 23 43  1  0
 23 44  1  0
M  CHG  1  21   1
M  END
>  <UniqueID>  (22) 
22

>  <SMILES>  (22) 
CN1CCN(c2nc(-c3ccccc3)c3ccccc3[nH+]2)CC1

>  <Energy>  (22) 
68.23587318414107

>  <Genealogy>  (22) 
CN1CCN(c2nc(-c3ccccc3)c3ccccc3[nH+]2)CC1 (protonated)
CN1CCN(c2nc(-c3ccccc3)c3ccccc3[nH+]2)CC1 (3D coordinates assigned)
CN1CCN(c2nc(-c3ccccc3)c3ccccc3[nH+]2)CC1 (nonaromatic ring conformer: 68.23587318414107 kcal/mol)

>  <smiles>  (22) 
CN1CCN(c2nc(-c3ccccc3)c3ccccc3n2)CC1

>  <score_type>  (22) 
oracle

>  <origin>  (22) 
adg

>  <m_score__min__energy>  (22) 
-6.2999999999999998

>  <m_primary>  (22) 
energy

$$$$
22:0
     RDKit          3D

 47 49  0  0  0  0  0  0  0  0999 V2000
   57.1100   30.4340   44.4110 C   0  0  0  0  0  0  0  0  0  0  0  0
   57.4620   30.7070   45.7640 O   0  0  0  0  0  0  0  0  0  0  0  0
   58.5380   31.5160   46.1610 C   0  0  0  0  0  0  0  0  0  0  0  0
   59.7520   30.9700   46.6180 C   0  0  0  0  0  0  0  0  0  0  0  0
   60.8140   31.8030   47.0030 C   0  0  0  0  0  0  0  0  0  0  0  0
   60.6590   33.2060   46.9300 C   0  0  0  0  0  0  0  0  0  0  0  0
   59.4490   33.7460   46.4690 C   0  0  0  0  0  0  0  0  0  0  0  0
   58.3860   32.9070   46.0890 C   0  0  0  0  0  0  0  0  0  0  0  0
   57.1630   33.4190   45.6250 O   0  0  0  0  0  0  0  0  0  0  0  0
   57.0330   34.5320   44.7470 C   0  0  0  0  0  0  0  0  0  0  0  0
   61.8200   34.1230   47.2500 C   0  0  0  0  0  0  0  0  0  0  0  0
   62.1890   34.0930   48.7460 C   0  0  0  0  0  0  0  0  0  0  0  0
   61.8430   32.8070   49.3790 N   0  0  0  0  0  0  0  0  0  0  0  0
   61.1200   32.8250   50.6390 C   0  0  0  0  0  0  0  0  0  0  0  0
   61.2660   33.8160   51.4090 O   0  0  0  0  0  0  0  0  0  0  0  0
   60.2360   31.7540   51.0620 N   0  0  0  0  0  0  0  0  0  0  0  0
   59.4880   31.1680   49.9410 C   0  0  0  0  0  0  0  0  0  0  0  0
   58.1460   30.7210   50.4910 C   0  0  0  0  0  0  0  0  0  0  0  0
   57.9000   31.6020   51.6990 C   0  0  0  0  0  0  0  0  0  0  0  0
   59.2720   32.1230   52.1170 C   0  0  0  0  0  0  0  0  0  0  0  0
   62.5430   31.6020   48.9010 C   0  0  0  0  0  0  0  0  0  0  0  0
   62.1210   31.1900   47.4680 C   0  0  0  0  0  0  0  0  0  0  0  0
   56.2410   29.7600   44.3871 H   0  0  0  0  0  0  0  0  0  0  0  0
   56.8582   31.3753   43.9006 H   0  0  0  0  0  0  0  0  0  0  0  0
   57.9590   29.9559   43.9006 H   0  0  0  0  0  0  0  0  0  0  0  0
   59.8699   29.8778   46.6741 H   0  0  0  0  0  0  0  0  0  0  0  0
   59.3303   34.8376   46.4040 H   0  0  0  0  0  0  0  0  0  0  0  0
   56.9253   35.4540   45.3372 H   0  0  0  0  0  0  0  0  0  0  0  0
   57.9287   34.6052   44.1127 H   0  0  0  0  0  0  0  0  0  0  0  0
   56.1445   34.3968   44.1127 H   0  0  0  0  0  0  0  0  0  0  0  0
   62.6944   33.8059   46.6628 H   0  0  0  0  0  0  0  0  0  0  0  0
   61.5194   35.1503   46.9964 H   0  0  0  0  0  0  0  0  0  0  0  0
   63.2719   34.2577   48.8472 H   0  0  0  0  0  0  0  0  0  0  0  0
   61.6150   34.8836   49.2515 H   0  0  0  0  0  0  0  0  0  0  0  0
   60.8390   30.9910   51.4570 H   0  0  0  0  0  0  0  0  0  0  0  0
   59.3416   31.9188   49.1506 H   0  0  0  0  0  0  0  0  0  0  0  0
   60.0356   30.3205   49.5030 H   0  0  0  0  0  0  0  0  0  0  0  0
   57.3543   30.8645   49.7409 H   0  0  0  0  0  0  0  0  0  0  0  0
   58.1437   29.6527   50.7532 H   0  0  0  0  0  0  0  0  0  0  0  0
   57.2364   32.4385   51.4347 H   0  0  0  0  0  0  0  0  0  0  0  0
   57.4114   31.0469   52.5133 H   0  0  0  0  0  0  0  0  0  0  0  0
   59.2390   33.2169   52.2276 H   0  0  0  0  0  0  0  0  0  0  0  0
   59.5715   31.6856   53.0808 H   0  0  0  0  0  0  0  0  0  0  0  0
   63.6251   31.7994   48.9054 H   0  0  0  0  0  0  0  0  0  0  0  0
   62.2758   30.7749   49.5752 H   0  0  0  0  0  0  0  0  0  0  0  0
   62.9143   31.5008   46.7722 H   0  0  0  0  0  0  0  0  0  0  0  0
   61.9703   30.1005   47.4844 H   0  0  0  0  0  0  0  0  0  0  0  0
  1  2  1  0
  2  3  1  0
  3  4  2  0
  4  5  1  0
  5  6  2  0
  6  7  1  0
  7  8  2  0
  8  9  1  0
  9 10  1  0
  6 11  1  0
 11 12  1  0
 12 13  1  0
 13 14  1  0
 14 15  2  0
 14 16  1  0
 16 17  1  0
 17 18  1  0
 18 19  1  0
 19 20  1  0
 13 21  1  0
 21 22  1  0
  8  3  1  0
 20 16  1  0
 22  5  1  0
  1 23  1  0
  1 24  1  0
  1 25  1  0
  4 26  1  0
  7 27  1  0
 10 28  1  0
 10 29  1  0
 10 30  1  0
 11 31  1  0
 11 32  1  0
 12 33  1  0
 12 34  1  0
 16 35  1  0
 17 36  1  0
 17 37  1  0
 18 38  1  0
 18 39  1  0
 19 40  1  0
 19 41  1  0
 20 42  1  0
 20 43  1  0
 21 44  1  0
 21 45  1  0
 22 46  1  0
 22 47  1  0
M  CHG  1  16   1
M  END
>  <UniqueID>  (23) 
23

>  <SMILES>  (23) 
COc1cc2c(cc1OC)CCN(C(=O)[NH+]1CCCC1)CC2

>  <Energy>  (23) 
62.93518645535069

>  <Genealogy>  (23) 
COc1cc2c(cc1OC)CCN(C(=O)[NH+]1CCCC1)CC2 (protonated)
COc1cc2c(cc1OC)CCN(C(=O)[NH+]1CCCC1)CC2 (3D coordinates assigned)
COc1cc2c(cc1OC)CCN(C(=O)[NH+]1CCCC1)CC2 (nonaromatic ring conformer: 62.93518645535069 kcal/mol)

>  <smiles>  (23) 
COc1cc2c(cc1OC)CCN(C(=O)N1CCCC1)CC2

>  <score_type>  (23) 
oracle

>  <origin>  (23) 
adg

>  <m_score__min__energy>  (23) 
-3.6899999999999999

>  <m_primary>  (23) 
energy

$$$$
23:0
     RDKit          3D

 51 53  0  0  0  0  0  0  0  0999 V2000
   55.2000   25.0850   45.6240 C   0  0  0  0  0  0  0  0  0  0  0  0
   55.7550   26.4110   45.9110 N   0  0  0  0  0  0  0  0  0  0  0  0
   57.1320   26.3350   46.4260 C   0  0  0  0  0  0  0  0  0  0  0  0
   57.7480   27.7260   46.6870 C   0  0  0  0  0  0  0  0  0  0  0  0
   57.8480   28.5160   45.4390 N   0  0  0  0  0  0  0  0  0  0  0  0
   56.6500   29.3690   45.2380 C   0  0  0  0  0  0  0  0  0  0  0  0
   56.9380   30.5450   44.2910 C   0  0  0  0  0  0  0  0  0  0  0  0
   58.0180   31.4400   44.7950 N   0  0  0  0  0  0  0  0  0  0  0  0
   57.4680   32.7220   45.3160 C   0  0  2  0  0  0  0  0  0  0  0  0
   57.9330   33.9070   44.4340 C   0  0  0  0  0  0  0  0  0  0  0  0
   59.1100   34.5740   45.1640 C   0  0  0  0  0  0  0  0  0  0  0  0
   59.0070   34.1420   46.5450 N   0  0  0  0  0  0  0  0  0  0  0  0
   59.9870   34.4620   47.5810 C   0  0  0  0  0  0  0  0  0  0  0  0
   61.1540   33.5120   47.5020 C   0  0  0  0  0  0  0  0  0  0  0  0
   62.2970   33.8660   46.7650 C   0  0  0  0  0  0  0  0  0  0  0  0
   63.4050   33.0160   46.7300 C   0  0  0  0  0  0  0  0  0  0  0  0
   63.3870   31.8110   47.4340 C   0  0  0  0  0  0  0  0  0  0  0  0
   62.2580   31.4530   48.1770 C   0  0  0  0  0  0  0  0  0  0  0  0
   61.1460   32.3000   48.2170 C   0  0  0  0  0  0  0  0  0  0  0  0
   60.0650   31.9350   48.9510 F   0  0  0  0  0  0  0  0  0  0  0  0
   58.0500   33.1040   46.6370 C   0  0  0  0  0  0  0  0  0  0  0  0
   57.6890   32.6060   47.7360 O   0  0  0  0  0  0  0  0  0  0  0  0
   58.9190   30.7580   45.7560 C   0  0  0  0  0  0  0  0  0  0  0  0
   59.1180   29.2830   45.3860 C   0  0  0  0  0  0  0  0  0  0  0  0
   54.9828   24.5660   46.5692 H   0  0  0  0  0  0  0  0  0  0  0  0
   54.2719   25.1937   45.0437 H   0  0  0  0  0  0  0  0  0  0  0  0
   55.9289   24.5002   45.0437 H   0  0  0  0  0  0  0  0  0  0  0  0
   55.7350   26.9830   45.0350 H   0  0  0  0  0  0  0  0  0  0  0  0
   57.1239   25.7709   47.3703 H   0  0  0  0  0  0  0  0  0  0  0  0
   57.7461   25.8380   45.6605 H   0  0  0  0  0  0  0  0  0  0  0  0
   57.1148   28.2688   47.4043 H   0  0  0  0  0  0  0  0  0  0  0  0
   58.7620   27.5853   47.0895 H   0  0  0  0  0  0  0  0  0  0  0  0
   55.8442   28.7555   44.8087 H   0  0  0  0  0  0  0  0  0  0  0  0
   56.3563   29.7810   46.2147 H   0  0  0  0  0  0  0  0  0  0  0  0
   57.2422   30.1429   43.3134 H   0  0  0  0  0  0  0  0  0  0  0  0
   56.0184   31.1441   44.2170 H   0  0  0  0  0  0  0  0  0  0  0  0
   56.3809   32.5577   45.3516 H   0  0  0  0  0  0  0  0  0  0  0  0
   58.2579   33.5404   43.4491 H   0  0  0  0  0  0  0  0  0  0  0  0
   57.1134   34.6229   44.2735 H   0  0  0  0  0  0  0  0  0  0  0  0
   60.0663   34.2471   44.7296 H   0  0  0  0  0  0  0  0  0  0  0  0
   59.0752   35.6700   45.0764 H   0  0  0  0  0  0  0  0  0  0  0  0
   60.3459   35.4917   47.4366 H   0  0  0  0  0  0  0  0  0  0  0  0
   59.5113   34.3661   48.5682 H   0  0  0  0  0  0  0  0  0  0  0  0
   62.3193   34.8172   46.2129 H   0  0  0  0  0  0  0  0  0  0  0  0
   64.2939   33.2971   46.1461 H   0  0  0  0  0  0  0  0  0  0  0  0
   64.2606   31.1433   47.4043 H   0  0  0  0  0  0  0  0  0  0  0  0
   62.2444   30.5030   48.7313 H   0  0  0  0  0  0  0  0  0  0  0  0
   59.8961   31.2633   45.7510 H   0  0  0  0  0  0  0  0  0  0  0  0
   58.4601   30.8057   46.7546 H   0  0  0  0  0  0  0  0  0  0  0  0
   59.5245   29.2254   44.3655 H   0  0  0  0  0  0  0  0  0  0  0  0
   59.8104   28.8414   46.1178 H   0  0  0  0  0  0  0  0  0  0  0  0
  1  2  1  0
  2  3  1  0
  3  4  1  0
  4  5  1  0
  5  6  1  0
  6  7  1  0
  7  8  1  0
  8  9  1  0
  9 10  1  0
 10 11  1  0
 11 12  1  0
 12 13  1  0
 13 14  1  0
 14 15  2  0
 15 16  1  0
 16 17  2  0
 17 18  1  0
 18 19  2  0
 19 20  1  0
 12 21  1  0
 21 22  2  0
  8 23  1  0
 23 24  1  0
 24  5  1  0
 21  9  1  0
 19 14  1  0
  1 25  1  0
  1 26  1  0
  1 27  1  0
  2 28  1  0
  3 29  1  0
  3 30  1  0
  4 31  1  0
  4 32  1  0
  6 33  1  0
  6 34  1  0
  7 35  1  0
  7 36  1  0
  9 37  1  1
 10 38  1  0
 10 39  1  0
 11 40  1  0
 11 41  1  0
 13 42  1  0
 13 43  1  0
 15 44  1  0
 16 45  1  0
 17 46  1  0
 18 47  1  0
 23 48  1  0
 23 49  1  0
 24 50  1  0
 24 51  1  0
M  END
>  <UniqueID>  (24) 
24

>  <SMILES>  (24) 
CNCCN1CCN([C@@H]2CCN(Cc3ccccc3F)C2=O)CC1

>  <Energy>  (24) 
71.87397275908762

>  <Genealogy>  (24) 
CNCCN1CCN([C@@H]2CCN(Cc3ccccc3F)C2=O)CC1 (chirality)
CNCCN1CCN([C@@H]2CCN(Cc3ccccc3F)C2=O)CC1 (3D coordinates assigned)
CNCCN1CCN([C@@H]2CCN(Cc3ccccc3F)C2=O)CC1 (nonaromatic ring conformer: 71.87397275908762 kcal/mol)

>  <smiles>  (24) 
CNCCN1CCN(C2CCN(Cc3ccccc3F)C2=O)CC1

>  <score_type>  (24) 
oracle

>  <origin>  (24) 
adg

>  <m_score__min__energy>  (24) 
-7.6299999999999999

>  <m_primary>  (24) 
energy

$$$$
24:0
     RDKit          3D

 57 60  0  0  0  0  0  0  0  0999 V2000
   59.7640   30.9720   49.9020 C   0  0  0  0  0  0  0  0  0  0  0  0
   58.6810   32.0030   49.9800 C   0  0  0  0  0  0  0  0  0  0  0  0
   59.2170   33.3160   50.2810 N   0  0  0  0  0  0  0  0  0  0  0  0
   59.0910   33.6150   51.6970 C   0  0  0  0  0  0  0  0  0  0  0  0
   60.6560   33.2410   50.0080 C   0  0  0  0  0  0  0  0  0  0  0  0
   61.0050   34.3770   49.1030 C   0  0  0  0  0  0  0  0  0  0  0  0
   59.7450   34.9280   48.5740 N   0  0  0  0  0  0  0  0  0  0  0  0
   59.8450   34.7800   47.1370 C   0  0  0  0  0  0  0  0  0  0  0  0
   59.4220   33.4370   46.6740 C   0  0  0  0  0  0  0  0  0  0  0  0
   60.3330   32.4000   46.8070 C   0  0  0  0  0  0  0  0  0  0  0  0
   60.0300   31.1140   46.4030 C   0  0  0  0  0  0  0  0  0  0  0  0
   58.7740   30.8470   45.8440 C   0  0  0  0  0  0  0  0  0  0  0  0
   58.4890   29.4780   45.4250 C   0  0  0  0  0  0  0  0  0  0  0  0
   58.1800   29.1150   44.1460 C   0  0  0  0  0  0  0  0  0  0  0  0
   57.9260   27.7850   43.8580 C   0  0  0  0  0  0  0  0  0  0  0  0
   57.9680   26.7870   44.8060 C   0  0  0  0  0  0  0  0  0  0  0  0
   57.7020   25.3910   44.5070 C   0  0  0  0  0  0  0  0  0  0  0  0
   58.0780   24.3430   45.2480 N   0  0  0  0  0  0  0  0  0  0  0  0
   57.6830   23.1990   44.7080 C   0  0  0  0  0  0  0  0  0  0  0  0
   57.8570   21.8940   45.1370 C   0  0  0  0  0  0  0  0  0  0  0  0
   57.3330   20.8540   44.3690 C   0  0  0  0  0  0  0  0  0  0  0  0
   56.6500   21.1650   43.1900 C   0  0  0  0  0  0  0  0  0  0  0  0
   56.5020   22.4980   42.8010 C   0  0  0  0  0  0  0  0  0  0  0  0
   57.0120   23.5260   43.5480 C   0  0  0  0  0  0  0  0  0  0  0  0
   57.0420   24.8800   43.4550 N   0  0  0  0  0  0  0  0  0  0  0  0
   58.2810   27.1720   46.0980 C   0  0  0  0  0  0  0  0  0  0  0  0
   58.5360   28.4940   46.3970 C   0  0  0  0  0  0  0  0  0  0  0  0
   57.8520   31.8760   45.7040 C   0  0  0  0  0  0  0  0  0  0  0  0
   58.1890   33.1690   46.1240 C   0  0  0  0  0  0  0  0  0  0  0  0
   60.0683   30.6823   50.9186 H   0  0  0  0  0  0  0  0  0  0  0  0
   59.3904   30.0876   49.3651 H   0  0  0  0  0  0  0  0  0  0  0  0
   60.6289   31.3887   49.3651 H   0  0  0  0  0  0  0  0  0  0  0  0
   58.1565   32.0441   49.0139 H   0  0  0  0  0  0  0  0  0  0  0  0
   57.9916   31.7184   50.7885 H   0  0  0  0  0  0  0  0  0  0  0  0
   59.4518   32.7589   52.2860 H   0  0  0  0  0  0  0  0  0  0  0  0
   59.6906   34.5050   51.9386 H   0  0  0  0  0  0  0  0  0  0  0  0
   58.0353   33.8075   51.9386 H   0  0  0  0  0  0  0  0  0  0  0  0
   61.2208   33.3237   50.9483 H   0  0  0  0  0  0  0  0  0  0  0  0
   60.9097   32.2801   49.5365 H   0  0  0  0  0  0  0  0  0  0  0  0
   61.5465   35.1519   49.6654 H   0  0  0  0  0  0  0  0  0  0  0  0
   61.6510   34.0326   48.2820 H   0  0  0  0  0  0  0  0  0  0  0  0
   59.0100   34.2990   48.9660 H   0  0  0  0  0  0  0  0  0  0  0  0
   59.2045   35.5359   46.6591 H   0  0  0  0  0  0  0  0  0  0  0  0
   60.9014   34.9116   46.8601 H   0  0  0  0  0  0  0  0  0  0  0  0
   61.3208   32.6063   47.2448 H   0  0  0  0  0  0  0  0  0  0  0  0
   60.7686   30.3072   46.5194 H   0  0  0  0  0  0  0  0  0  0  0  0
   58.1332   29.8732   43.3505 H   0  0  0  0  0  0  0  0  0  0  0  0
   57.6786   27.5121   42.8215 H   0  0  0  0  0  0  0  0  0  0  0  0
   58.4002   21.6806   46.0694 H   0  0  0  0  0  0  0  0  0  0  0  0
   57.4552   19.8077   44.6857 H   0  0  0  0  0  0  0  0  0  0  0  0
   56.2294   20.3604   42.5690 H   0  0  0  0  0  0  0  0  0  0  0  0
   55.9619   22.7280   41.8707 H   0  0  0  0  0  0  0  0  0  0  0  0
   56.6250   25.4270   42.6990 H   0  0  0  0  0  0  0  0  0  0  0  0
   58.3269   26.4153   46.8951 H   0  0  0  0  0  0  0  0  0  0  0  0
   58.7825   28.7728   47.4322 H   0  0  0  0  0  0  0  0  0  0  0  0
   56.8629   31.6768   45.2659 H   0  0  0  0  0  0  0  0  0  0  0  0
   57.4572   33.9826   46.0126 H   0  0  0  0  0  0  0  0  0  0  0  0
  1  2  1  0
  2  3  1  0
  3  4  1  0
  3  5  1  0
  5  6  1  0
  6  7  1  0
  7  8  1  0
  8  9  1  0
  9 10  2  0
 10 11  1  0
 11 12  2  0
 12 13  1  0
 13 14  2  0
 14 15  1  0
 15 16  2  0
 16 17  1  0
 17 18  2  0
 18 19  1  0
 19 20  2  0
 20 21  1  0
 21 22  2  0
 22 23  1  0
 23 24  2  0
 24 25  1  0
 16 26  1  0
 26 27  2  0
 12 28  1  0
 28 29  2  0
 29  9  1  0
 27 13  1  0
 25 17  1  0
 24 19  1  0
  1 30  1  0
  1 31  1  0
  1 32  1  0
  2 33  1  0
  2 34  1  0
  4 35  1  0
  4 36  1  0
  4 37  1  0
  5 38  1  0
  5 39  1  0
  6 40  1  0
  6 41  1  0
  7 42  1  0
  8 43  1  0
  8 44  1  0
 10 45  1  0
 11 46  1  0
 14 47  1  0
 15 48  1  0
 20 49  1  0
 21 50  1  0
 22 51  1  0
 23 52  1  0
 25 53  1  0
 26 54  1  0
 27 55  1  0
 28 56  1  0
 29 57  1  0
M  END
>  <smiles>  (25) 
CCN(C)CCNCc1ccc(-c2ccc(-c3nc4ccccc4[nH]3)cc2)cc1

>  <score_type>  (25) 
oracle

>  <origin>  (25) 
adg

>  <m_score__min__energy>  (25) 
-8.1400000000000006

>  <m_primary>  (25) 
energy

$$$$
25:0
     RDKit          3D

 26 26  0  0  0  0  0  0  0  0999 V2000
   55.3990   23.9700   46.4280 C   0  0  0  0  0  0  0  0  0  0  0  0
   54.7340   25.0500   45.5830 C   0  0  0  0  0  0  0  0  0  0  0  0
   55.1410   26.3760   46.0340 N   0  0  0  0  0  0  0  0  0  0  0  0
   56.5020   26.8170   46.0710 C   0  0  0  0  0  0  0  0  0  0  0  0
   57.3710   26.1610   46.7070 O   0  0  0  0  0  0  0  0  0  0  0  0
   56.9030   28.0360   45.3110 C   0  0  0  0  0  0  0  0  0  0  0  0
   55.7870   28.9150   45.2180 O   0  0  0  0  0  0  0  0  0  0  0  0
   55.5790   29.7590   44.1220 C   0  0  0  0  0  0  0  0  0  0  0  0
   54.5740   29.5940   43.3780 O   0  0  0  0  0  0  0  0  0  0  0  0
   56.5420   30.8470   43.8380 C   0  0  0  0  0  0  0  0  0  0  0  0
   57.0120   31.0620   42.5320 C   0  0  0  0  0  0  0  0  0  0  0  0
   57.8970   32.0630   42.2780 N   0  0  0  0  0  0  0  0  0  0  0  0
   58.3540   32.8820   43.2610 C   0  0  0  0  0  0  0  0  0  0  0  0
   57.9160   32.7080   44.5750 C   0  0  0  0  0  0  0  0  0  0  0  0
   58.5530   33.8550   45.9630 Br  0  0  0  0  0  0  0  0  0  0  0  0
   57.0070   31.6870   44.8630 C   0  0  0  0  0  0  0  0  0  0  0  0
   55.2575   24.1998   47.4944 H   0  0  0  0  0  0  0  0  0  0  0  0
   54.9449   22.9944   46.1998 H   0  0  0  0  0  0  0  0  0  0  0  0
   56.4745   23.9362   46.1998 H   0  0  0  0  0  0  0  0  0  0  0  0
   55.0289   24.9193   44.5314 H   0  0  0  0  0  0  0  0  0  0  0  0
   53.6425   24.9594   45.6855 H   0  0  0  0  0  0  0  0  0  0  0  0
   57.7277   28.5418   45.8345 H   0  0  0  0  0  0  0  0  0  0  0  0
   57.2354   27.7510   44.3019 H   0  0  0  0  0  0  0  0  0  0  0  0
   56.6629   30.4182   41.7113 H   0  0  0  0  0  0  0  0  0  0  0  0
   59.0694   33.6825   43.0214 H   0  0  0  0  0  0  0  0  0  0  0  0
   56.6547   31.5407   45.8947 H   0  0  0  0  0  0  0  0  0  0  0  0
  1  2  1  0
  2  3  1  0
  3  4  1  0
  4  5  2  0
  4  6  1  0
  6  7  1  0
  7  8  1  0
  8  9  2  0
  8 10  1  0
 10 11  2  0
 11 12  1  0
 12 13  2  0
 13 14  1  0
 14 15  1  0
 14 16  2  0
 16 10  1  0
  1 17  1  0
  1 18  1  0
  1 19  1  0
  2 20  1  0
  2 21  1  0
  6 22  1  0
  6 23  1  0
 11 24  1  0
 13 25  1  0
 16 26  1  0
M  CHG  1   3  -1
M  END
>  <UniqueID>  (26) 
25

>  <SMILES>  (26) 
CC[N-]C(=O)COC(=O)c1cncc(Br)c1

>  <Energy>  (26) 
17.318581814308757

>  <Genealogy>  (26) 
CC[N-]C(=O)COC(=O)c1cncc(Br)c1 (protonated)
CC[N-]C(=O)COC(=O)c1cncc(Br)c1 (3D coordinates assigned)
CC[N-]C(=O)COC(=O)c1cncc(Br)c1 (optimized conformer: 17.318581814308757 kcal/mol)

>  <smiles>  (26) 
CCNC(=O)COC(=O)c1cncc(Br)c1

>  <score_type>  (26) 
oracle

>  <origin>  (26) 
adg

>  <m_score__min__energy>  (26) 
-8.3499999999999996

>  <m_primary>  (26) 
energy

$$$$
26:0
     RDKit          3D

 55 54  0  0  0  0  0  0  0  0999 V2000
   59.6440   35.0530   45.9230 C   0  0  0  0  0  0  0  0  0  0  0  0
   58.3980   34.2190   46.2170 C   0  0  0  0  0  0  0  0  0  0  0  0
   57.6520   33.7960   44.9430 C   0  0  0  0  0  0  0  0  0  0  0  0
   57.4700   32.2710   44.8400 C   0  0  0  0  0  0  0  0  0  0  0  0
   57.7930   31.7370   43.4280 C   0  0  0  0  0  0  0  0  0  0  0  0
   56.9100   30.5520   42.9970 C   0  0  0  0  0  0  0  0  0  0  0  0
   56.0490   29.9460   44.1180 C   0  0  0  0  0  0  0  0  0  0  0  0
   56.8540   29.0370   45.0590 C   0  0  0  0  0  0  0  0  0  0  0  0
   57.8920   28.2230   44.2790 C   0  0  0  0  0  0  0  0  0  0  0  0
   59.3040   28.7950   44.4760 C   0  0  0  0  0  0  0  0  0  0  0  0
   59.7950   28.6420   45.9200 C   0  0  0  0  0  0  0  0  0  0  0  0
   60.2250   29.9320   46.4730 C   0  0  0  0  0  0  0  0  0  0  0  0
   60.5810   30.9980   46.9070 C   0  0  0  0  0  0  0  0  0  0  0  0
   61.0280   32.2890   47.4540 C   0  0  0  0  0  0  0  0  0  0  0  0
   62.3600   32.1860   48.1050 N   0  0  0  0  0  0  0  0  0  0  0  0
   63.4860   32.5360   47.1930 C   0  0  0  0  0  0  0  0  0  0  0  0
   63.2840   33.8360   46.4020 C   0  0  0  0  0  0  0  0  0  0  0  0
   62.4090   32.9970   49.3520 C   0  0  0  0  0  0  0  0  0  0  0  0
   61.4120   34.1610   49.3360 C   0  0  0  0  0  0  0  0  0  0  0  0
   60.1088   35.3641   46.8702 H   0  0  0  0  0  0  0  0  0  0  0  0
   60.3597   34.4513   45.3436 H   0  0  0  0  0  0  0  0  0  0  0  0
   59.3605   35.9440   45.3436 H   0  0  0  0  0  0  0  0  0  0  0  0
   58.7015   33.3140   46.7636 H   0  0  0  0  0  0  0  0  0  0  0  0
   57.7136   34.8431   46.8103 H   0  0  0  0  0  0  0  0  0  0  0  0
   56.6592   34.2697   44.9428 H   0  0  0  0  0  0  0  0  0  0  0  0
   58.2562   34.1175   44.0819 H   0  0  0  0  0  0  0  0  0  0  0  0
   58.1404   31.7849   45.5641 H   0  0  0  0  0  0  0  0  0  0  0  0
   56.4153   32.0426   45.0533 H   0  0  0  0  0  0  0  0  0  0  0  0
   57.6520   32.5554   42.7067 H   0  0  0  0  0  0  0  0  0  0  0  0
   58.8305   31.3724   43.4520 H   0  0  0  0  0  0  0  0  0  0  0  0
   56.2373   30.8994   42.1990 H   0  0  0  0  0  0  0  0  0  0  0  0
   57.5971   29.7572   42.6712 H   0  0  0  0  0  0  0  0  0  0  0  0
   55.6126   30.7652   44.7083 H   0  0  0  0  0  0  0  0  0  0  0  0
   55.2727   29.3280   43.6432 H   0  0  0  0  0  0  0  0  0  0  0  0
   57.3707   29.6586   45.8051 H   0  0  0  0  0  0  0  0  0  0  0  0
   56.1603   28.3404   45.5525 H   0  0  0  0  0  0  0  0  0  0  0  0
   57.8731   27.1821   44.6341 H   0  0  0  0  0  0  0  0  0  0  0  0
   57.6416   28.2707   43.2089 H   0  0  0  0  0  0  0  0  0  0  0  0
   59.9977   28.2637   43.8079 H   0  0  0  0  0  0  0  0  0  0  0  0
   59.2682   29.8696   44.2438 H   0  0  0  0  0  0  0  0  0  0  0  0
   58.9769   28.2418   46.5368 H   0  0  0  0  0  0  0  0  0  0  0  0
   60.6551   27.9563   45.9251 H   0  0  0  0  0  0  0  0  0  0  0  0
   61.0888   33.0202   46.6344 H   0  0  0  0  0  0  0  0  0  0  0  0
   60.3007   32.6055   48.2161 H   0  0  0  0  0  0  0  0  0  0  0  0
   62.5050   31.1810   48.3680 H   0  0  0  0  0  0  0  0  0  0  0  0
   64.3986   32.6404   47.7982 H   0  0  0  0  0  0  0  0  0  0  0  0
   63.5517   31.7258   46.4518 H   0  0  0  0  0  0  0  0  0  0  0  0
   63.1537   34.6746   47.1019 H   0  0  0  0  0  0  0  0  0  0  0  0
   64.1643   34.0204   45.7687 H   0  0  0  0  0  0  0  0  0  0  0  0
   62.3893   33.7446   45.7687 H   0  0  0  0  0  0  0  0  0  0  0  0
   62.1755   32.3446   50.2063 H   0  0  0  0  0  0  0  0  0  0  0  0
   63.4195   33.4241   49.4329 H   0  0  0  0  0  0  0  0  0  0  0  0
   61.1664   34.4477   50.3692 H   0  0  0  0  0  0  0  0  0  0  0  0
   61.8591   35.0196   48.8137 H   0  0  0  0  0  0  0  0  0  0  0  0
   60.4949   33.8511   48.8137 H   0  0  0  0  0  0  0  0  0  0  0  0
  1  2  1  0
  2  3  1  0
  3  4  1  0
  4  5  1  0
  5  6  1  0
  6  7  1  0
  7  8  1  0
  8  9  1  0
  9 10  1  0
 10 11  1  0
 11 12  1  0
 12 13  3  0
 13 14  1  0
 14 15  1  0
 15 16  1  0
 16 17  1  0
 15 18  1  0
 18 19  1  0
  1 20  1  0
  1 21  1  0
  1 22  1  0
  2 23  1  0
  2 24  1  0
  3 25  1  0
  3 26  1  0
  4 27  1  0
  4 28  1  0
  5 29  1  0
  5 30  1  0
  6 31  1  0
  6 32  1  0
  7 33  1  0
  7 34  1  0
  8 35  1  0
  8 36  1  0
  9 37  1  0
  9 38  1  0
 10 39  1  0
 10 40  1  0
 11 41  1  0
 11 42  1  0
 14 43  1  0
 14 44  1  0
 15 45  1  0
 16 46  1  0
 16 47  1  0
 17 48  1  0
 17 49  1  0
 17 50  1  0
 18 51  1  0
 18 52  1  0
 19 53  1  0
 19 54  1  0
 19 55  1  0
M  CHG  1  15   1
M  END
>  <UniqueID>  (27) 
26

>  <SMILES>  (27) 
CCCCCCCCCCCC#CC[NH+](CC)CC

>  <Energy>  (27) 
30.55505297714064

>  <Genealogy>  (27) 
CCCCCCCCCCCC#CC[NH+](CC)CC (protonated)
CCCCCCCCCCCC#CC[NH+](CC)CC (3D coordinates assigned)
CCCCCCCCCCCC#CC[NH+](CC)CC (optimized conformer: 30.55505297714064 kcal/mol)

>  <smiles>  (27) 
CCCCCCCCCCCC#CCN(CC)CC

>  <score_type>  (27) 
oracle

>  <origin>  (27) 
adg

>  <m_score__min__energy>  (27) 
-4.29

>  <m_primary>  (27) 
energy

$$$$
27:0
     RDKit          3D

 59 61  0  0  0  0  0  0  0  0999 V2000
   59.2570   33.1220   48.8220 C   0  0  0  0  0  0  0  0  0  0  0  0
   60.3040   34.2200   48.6290 C   0  0  0  0  0  0  0  0  0  0  0  0
   60.3020   34.7120   47.2310 N   0  0  0  0  0  0  0  0  0  0  0  0
   61.1320   33.8560   46.3550 C   0  0  0  0  0  0  0  0  0  0  0  0
   62.5690   33.8060   46.8660 C   0  0  0  0  0  0  0  0  0  0  0  0
   58.9180   34.8540   46.7060 C   0  0  0  0  0  0  0  0  0  0  0  0
   58.9220   34.7890   45.1770 C   0  0  0  0  0  0  0  0  0  0  0  0
   58.5400   33.4610   44.7100 N   0  0  0  0  0  0  0  0  0  0  0  0
   58.3260   32.3750   45.4760 C   0  0  0  0  0  0  0  0  0  0  0  0
   58.1320   31.3190   44.6070 C   0  0  0  0  0  0  0  0  0  0  0  0
   57.9910   29.8860   44.9520 C   0  0  0  0  0  0  0  0  0  0  0  0
   59.1240   29.2030   45.4210 C   0  0  0  0  0  0  0  0  0  0  0  0
   59.0510   27.8600   45.8210 C   0  0  0  0  0  0  0  0  0  0  0  0
   60.2920   27.1900   46.3530 C   0  0  0  0  0  0  0  0  0  0  0  0
   57.8220   27.1710   45.7110 C   0  0  0  0  0  0  0  0  0  0  0  0
   57.6880   25.7440   46.0850 C   0  0  0  0  0  0  0  0  0  0  0  0
   57.1490   25.3910   47.3300 C   0  0  0  0  0  0  0  0  0  0  0  0
   57.0080   24.0460   47.6830 C   0  0  0  0  0  0  0  0  0  0  0  0
   57.3970   23.0320   46.7870 C   0  0  0  0  0  0  0  0  0  0  0  0
   57.2750   21.6690   47.0930 O   0  0  0  0  0  0  0  0  0  0  0  0
   57.3850   20.6170   46.1400 C   0  0  0  0  0  0  0  0  0  0  0  0
   57.9240   23.3890   45.5400 C   0  0  0  0  0  0  0  0  0  0  0  0
   58.0650   24.7340   45.1870 C   0  0  0  0  0  0  0  0  0  0  0  0
   56.6900   27.8510   45.2400 C   0  0  0  0  0  0  0  0  0  0  0  0
   56.7610   29.1950   44.8400 C   0  0  0  0  0  0  0  0  0  0  0  0
   55.5170   29.8510   44.3000 C   0  0  0  0  0  0  0  0  0  0  0  0
   58.2490   31.8030   43.3550 N   0  0  0  0  0  0  0  0  0  0  0  0
   58.4980   33.0990   43.4380 N   0  0  0  0  0  0  0  0  0  0  0  0
   59.0963   32.9535   49.8971 H   0  0  0  0  0  0  0  0  0  0  0  0
   58.3108   33.4312   48.3539 H   0  0  0  0  0  0  0  0  0  0  0  0
   59.6108   32.1916   48.3539 H   0  0  0  0  0  0  0  0  0  0  0  0
   60.0773   35.0570   49.3058 H   0  0  0  0  0  0  0  0  0  0  0  0
   61.2967   33.8028   48.8536 H   0  0  0  0  0  0  0  0  0  0  0  0
   60.7158   32.8378   46.3436 H   0  0  0  0  0  0  0  0  0  0  0  0
   61.1294   34.2771   45.3388 H   0  0  0  0  0  0  0  0  0  0  0  0
   62.5672   33.8061   47.9660 H   0  0  0  0  0  0  0  0  0  0  0  0
   63.0566   32.8903   46.5002 H   0  0  0  0  0  0  0  0  0  0  0  0
   63.1191   34.6855   46.5002 H   0  0  0  0  0  0  0  0  0  0  0  0
   58.2939   34.0395   47.1024 H   0  0  0  0  0  0  0  0  0  0  0  0
   58.5128   35.8265   47.0223 H   0  0  0  0  0  0  0  0  0  0  0  0
   58.2084   35.5279   44.7835 H   0  0  0  0  0  0  0  0  0  0  0  0
   59.9390   35.0076   44.8193 H   0  0  0  0  0  0  0  0  0  0  0  0
   58.3090   32.3362   46.5752 H   0  0  0  0  0  0  0  0  0  0  0  0
   60.0876   29.7307   45.4760 H   0  0  0  0  0  0  0  0  0  0  0  0
   60.2718   27.2009   47.4528 H   0  0  0  0  0  0  0  0  0  0  0  0
   60.3282   26.1498   45.9972 H   0  0  0  0  0  0  0  0  0  0  0  0
   61.1816   27.7304   45.9972 H   0  0  0  0  0  0  0  0  0  0  0  0
   56.8353   26.1768   48.0329 H   0  0  0  0  0  0  0  0  0  0  0  0
   56.5913   23.7785   48.6652 H   0  0  0  0  0  0  0  0  0  0  0  0
   57.4855   19.6556   46.6651 H   0  0  0  0  0  0  0  0  0  0  0  0
   56.4840   20.5979   45.5093 H   0  0  0  0  0  0  0  0  0  0  0  0
   58.2705   20.7847   45.5093 H   0  0  0  0  0  0  0  0  0  0  0  0
   58.2296   22.6044   44.8322 H   0  0  0  0  0  0  0  0  0  0  0  0
   58.4732   25.0018   44.2012 H   0  0  0  0  0  0  0  0  0  0  0  0
   55.7276   27.3213   45.1827 H   0  0  0  0  0  0  0  0  0  0  0  0
   54.8854   30.1841   45.1367 H   0  0  0  0  0  0  0  0  0  0  0  0
   55.7976   30.7184   43.6845 H   0  0  0  0  0  0  0  0  0  0  0  0
   54.9597   29.1295   43.6845 H   0  0  0  0  0  0  0  0  0  0  0  0
   58.1830   31.2680   42.4600 H   0  0  0  0  0  0  0  0  0  0  0  0
  1  2  1  0
  2  3  1  0
  3  4  1  0
  4  5  1  0
  3  6  1  0
  6  7  1  0
  7  8  1  0
  8  9  1  0
  9 10  2  0
 10 11  1  0
 11 12  2  0
 12 13  1  0
 13 14  1  0
 13 15  2  0
 15 16  1  0
 16 17  2  0
 17 18  1  0
 18 19  2  0
 19 20  1  0
 20 21  1  0
 19 22  1  0
 22 23  2  0
 15 24  1  0
 24 25  2  0
 25 26  1  0
 10 27  1  0
 27 28  2  0
 28  8  1  0
 25 11  1  0
 23 16  1  0
  1 29  1  0
  1 30  1  0
  1 31  1  0
  2 32  1  0
  2 33  1  0
  4 34  1  0
  4 35  1  0
  5 36  1  0
  5 37  1  0
  5 38  1  0
  6 39  1  0
  6 40  1  0
  7 41  1  0
  7 42  1  0
  9 43  1  0
 12 44  1  0
 14 45  1  0
 14 46  1  0
 14 47  1  0
 17 48  1  0
 18 49  1  0
 21 50  1  0
 21 51  1  0
 21 52  1  0
 22 53  1  0
 23 54  1  0
 24 55  1  0
 26 56  1  0
 26 57  1  0
 26 58  1  0
 27 59  1  0
M  CHG  1  27   1
M  END
>  <UniqueID>  (28) 
27

>  <SMILES>  (28) 
CCN(CC)CCn1cc(-c2cc(C)c(-c3ccc(OC)cc3)cc2C)[nH+]n1

>  <Energy>  (28) 
103.53918262830784

>  <Genealogy>  (28) 
CCN(CC)CCn1cc(-c2cc(C)c(-c3ccc(OC)cc3)cc2C)[nH+]n1 (protonated)
CCN(CC)CCn1cc(-c2cc(C)c(-c3ccc(OC)cc3)cc2C)[nH+]n1 (3D coordinates assigned)
CCN(CC)CCn1cc(-c2cc(C)c(-c3ccc(OC)cc3)cc2C)[nH+]n1 (optimized conformer: 103.53918262830784 kcal/mol)

>  <smiles>  (28) 
CCN(CC)CCn1cc(-c2cc(C)c(-c3ccc(OC)cc3)cc2C)nn1

>  <score_type>  (28) 
oracle

>  <origin>  (28) 
adg

>  <m_score__min__energy>  (28) 
-6.71

>  <m_primary>  (28) 
energy

$$$$
28:0
     RDKit          3D

 63 66  0  0  0  0  0  0  0  0999 V2000
   58.1360   26.9890   42.6130 C   0  0  0  0  0  0  0  0  0  0  0  0
   57.9720   26.8690   44.1400 C   0  0  0  0  0  0  0  0  0  0  0  0
   58.0010   28.1650   44.8640 N   0  0  0  0  0  0  0  0  0  0  0  0
   58.8580   28.1280   46.0680 C   0  0  0  0  0  0  0  0  0  0  0  0
   60.3290   28.1690   45.6460 C   0  0  0  0  0  0  0  0  0  0  0  0
   56.6640   28.7390   45.1430 C   0  0  0  0  0  0  0  0  0  0  0  0
   56.2420   29.7580   44.0750 C   0  0  0  0  0  0  0  0  0  0  0  0
   57.3820   30.5640   43.6410 N   0  0  0  0  0  0  0  0  0  0  0  0
   58.0790   31.4750   44.5030 C   0  0  0  0  0  0  0  0  0  0  0  0
   57.6210   32.8070   44.6400 C   0  0  0  0  0  0  0  0  0  0  0  0
   58.2870   33.6910   45.5010 C   0  0  0  0  0  0  0  0  0  0  0  0
   59.3940   33.2010   46.1820 C   0  0  0  0  0  0  0  0  0  0  0  0
   60.1610   33.8740   47.0570 N   0  0  0  0  0  0  0  0  0  0  0  0
   61.1010   32.9640   47.4210 C   0  0  0  0  0  0  0  0  0  0  0  0
   62.1630   33.2500   48.4170 C   0  0  0  0  0  0  0  0  0  0  0  0
   61.9170   34.0510   49.5470 C   0  0  0  0  0  0  0  0  0  0  0  0
   62.9440   34.3350   50.4530 C   0  0  0  0  0  0  0  0  0  0  0  0
   64.2380   33.8270   50.2490 C   0  0  0  0  0  0  0  0  0  0  0  0
   65.3020   34.1490   51.1670 N   0  0  0  0  0  0  0  0  0  0  0  0
   66.5780   33.4230   51.0970 C   0  0  0  0  0  0  0  0  0  0  0  0
   67.7810   34.3540   51.3650 C   0  0  0  0  0  0  0  0  0  0  0  0
   67.4010   35.6280   52.0180 N   0  0  0  0  0  0  0  0  0  0  0  0
   68.5750   36.2460   52.6510 C   0  0  0  0  0  0  0  0  0  0  0  0
   66.3410   35.4190   53.0210 C   0  0  0  0  0  0  0  0  0  0  0  0
   65.0410   35.0400   52.3080 C   0  0  0  0  0  0  0  0  0  0  0  0
   64.4780   33.0080   49.1350 C   0  0  0  0  0  0  0  0  0  0  0  0
   63.4530   32.7230   48.2310 C   0  0  0  0  0  0  0  0  0  0  0  0
   60.8770   31.7540   46.7620 C   0  0  0  0  0  0  0  0  0  0  0  0
   59.8000   31.9430   45.9950 N   0  0  0  0  0  0  0  0  0  0  0  0
   59.1870   31.0750   45.1930 N   0  0  0  0  0  0  0  0  0  0  0  0
   59.0047   27.6246   42.3864 H   0  0  0  0  0  0  0  0  0  0  0  0
   58.2906   25.9892   42.1811 H   0  0  0  0  0  0  0  0  0  0  0  0
   57.2299   27.4389   42.1811 H   0  0  0  0  0  0  0  0  0  0  0  0
   57.0073   26.3819   44.3451 H   0  0  0  0  0  0  0  0  0  0  0  0
   58.8321   26.2873   44.5032 H   0  0  0  0  0  0  0  0  0  0  0  0
   58.6344   28.9968   46.7046 H   0  0  0  0  0  0  0  0  0  0  0  0
   58.6625   27.2029   46.6301 H   0  0  0  0  0  0  0  0  0  0  0  0
   60.9671   28.1868   46.5418 H   0  0  0  0  0  0  0  0  0  0  0  0
   60.5635   27.2770   45.0465 H   0  0  0  0  0  0  0  0  0  0  0  0
   60.5134   29.0726   45.0465 H   0  0  0  0  0  0  0  0  0  0  0  0
   55.9256   27.9240   45.1678 H   0  0  0  0  0  0  0  0  0  0  0  0
   56.7130   29.2607   46.1102 H   0  0  0  0  0  0  0  0  0  0  0  0
   55.8303   29.2208   43.2079 H   0  0  0  0  0  0  0  0  0  0  0  0
   55.4843   30.4272   44.5088 H   0  0  0  0  0  0  0  0  0  0  0  0
   57.7170   30.4470   42.6550 H   0  0  0  0  0  0  0  0  0  0  0  0
   56.7434   33.1486   44.0716 H   0  0  0  0  0  0  0  0  0  0  0  0
   57.9470   34.7290   45.6316 H   0  0  0  0  0  0  0  0  0  0  0  0
   60.9093   34.4570   49.7193 H   0  0  0  0  0  0  0  0  0  0  0  0
   62.7368   34.9616   51.3330 H   0  0  0  0  0  0  0  0  0  0  0  0
   66.5734   32.6209   51.8498 H   0  0  0  0  0  0  0  0  0  0  0  0
   66.6828   33.0112   50.0824 H   0  0  0  0  0  0  0  0  0  0  0  0
   68.4927   33.8262   52.0168 H   0  0  0  0  0  0  0  0  0  0  0  0
   68.2217   34.6065   50.3893 H   0  0  0  0  0  0  0  0  0  0  0  0
   68.4727   36.1921   53.7449 H   0  0  0  0  0  0  0  0  0  0  0  0
   69.4838   35.7094   52.3409 H   0  0  0  0  0  0  0  0  0  0  0  0
   68.6471   37.2989   52.3409 H   0  0  0  0  0  0  0  0  0  0  0  0
   66.6356   34.6088   53.7042 H   0  0  0  0  0  0  0  0  0  0  0  0
   66.1902   36.3437   53.5974 H   0  0  0  0  0  0  0  0  0  0  0  0
   64.3775   34.5270   53.0197 H   0  0  0  0  0  0  0  0  0  0  0  0
   64.5685   35.9594   51.9319 H   0  0  0  0  0  0  0  0  0  0  0  0
   65.4814   32.5874   48.9728 H   0  0  0  0  0  0  0  0  0  0  0  0
   63.6571   32.0786   47.3632 H   0  0  0  0  0  0  0  0  0  0  0  0
   61.4682   30.8311   46.8555 H   0  0  0  0  0  0  0  0  0  0  0  0
  1  2  1  0
  2  3  1  0
  3  4  1  0
  4  5  1  0
  3  6  1  0
  6  7  1  0
  7  8  1  0
  8  9  1  0
  9 10  1  0
 10 11  2  0
 11 12  1  0
 12 13  2  0
 13 14  1  0
 14 15  1  0
 15 16  2  0
 16 17  1  0
 17 18  2  0
 18 19  1  0
 19 20  1  0
 20 21  1  0
 21 22  1  0
 22 23  1  0
 22 24  1  0
 24 25  1  0
 18 26  1  0
 26 27  2  0
 14 28  2  0
 28 29  1  0
 29 30  1  0
 30  9  2  0
 29 12  1  0
 27 15  1  0
 25 19  1  0
  1 31  1  0
  1 32  1  0
  1 33  1  0
  2 34  1  0
  2 35  1  0
  4 36  1  0
  4 37  1  0
  5 38  1  0
  5 39  1  0
  5 40  1  0
  6 41  1  0
  6 42  1  0
  7 43  1  0
  7 44  1  0
  8 45  1  0
 10 46  1  0
 11 47  1  0
 16 48  1  0
 17 49  1  0
 20 50  1  0
 20 51  1  0
 21 52  1  0
 21 53  1  0
 23 54  1  0
 23 55  1  0
 23 56  1  0
 24 57  1  0
 24 58  1  0
 25 59  1  0
 25 60  1  0
 26 61  1  0
 27 62  1  0
 28 63  1  0
M  END
>  <UniqueID>  (29) 
28

>  <SMILES>  (29) 
CCN(CC)CCNc1ccc2nc(-c3ccc(N4CCN(C)CC4)cc3)cn2n1

>  <Energy>  (29) 
110.22130476382029

>  <Genealogy>  (29) 
CCN(CC)CCNc1ccc2nc(-c3ccc(N4CCN(C)CC4)cc3)cn2n1 (3D coordinates assigned)
CCN(CC)CCNc1ccc2nc(-c3ccc(N4CCN(C)CC4)cc3)cn2n1 (nonaromatic ring conformer: 110.22130476382029 kcal/mol)

>  <smiles>  (29) 
CCN(CC)CCNc1ccc2nc(-c3ccc(N4CCN(C)CC4)cc3)cn2n1

>  <score_type>  (29) 
oracle

>  <origin>  (29) 
adg

>  <m_score__min__energy>  (29) 
-8.0899999999999999

>  <m_primary>  (29) 
energy

$$$$
