0:0
     RDKit          3D

 43 45  0  0  1  0  0  0  0  0999 V2000
   59.3290   30.9170   48.1710 O   0  0  0  0  0  0  0  0  0  0  0  0
   59.9450   31.1630   47.0770 C   0  0  0  0  0  0  0  0  0  0  0  0
   60.9390   30.2250   46.6780 C   0  0  0  0  0  0  0  0  0  0  0  0
   60.7220   29.1090   46.0320 C   0  0  0  0  0  0  0  0  0  0  0  0
   59.5590   28.3050   45.9560 C   0  0  0  0  0  0  0  0  0  0  0  0
   59.2740   27.5170   47.0820 C   0  0  0  0  0  0  0  0  0  0  0  0
   58.1330   26.7800   47.2180 C   0  0  0  0  0  0  0  0  0  0  0  0
   57.1690   26.7640   46.2400 C   0  0  0  0  0  0  0  0  0  0  0  0
   56.0080   25.9840   46.4300 N   0  0  0  0  0  0  0  0  0  0  0  0
   56.0970   24.9090   47.0780 O   0  0  0  0  0  0  0  0  0  0  0  0
   54.7720   26.3320   45.9440 O   0  0  0  0  0  0  0  0  0  0  0  0
   57.4080   27.5250   45.1200 C   0  0  0  0  0  0  0  0  0  0  0  0
   58.5840   28.2820   44.9870 C   0  0  0  0  0  0  0  0  0  0  0  0
   59.5360   32.3690   46.4160 C   0  0  0  0  0  0  0  0  0  0  0  0
   58.3660   32.2940   45.6390 C   0  0  0  0  0  0  0  0  0  0  0  0
   57.7890   33.3850   45.0360 C   0  0  0  0  0  0  0  0  0  0  0  0
   58.3960   34.5940   45.2120 C   0  0  0  0  0  0  0  0  0  0  0  0
   59.5310   34.6800   45.9600 C   0  0  0  0  0  0  0  0  0  0  0  0
   60.1330   33.5740   46.5810 C   0  0  0  0  0  0  0  0  0  0  0  0
   61.3490   33.8690   47.2220 N   0  0  0  0  0  0  0  0  0  0  0  0
   61.4470   34.1760   48.6610 C   0  0  0  0  0  0  0  0  0  0  0  0
   62.5930   33.3020   49.1730 C   0  0  0  0  0  0  0  0  0  0  0  0
   62.8890   32.2970   48.2900 O   0  0  0  0  0  0  0  0  0  0  0  0
   63.4790   32.7180   47.1240 C   0  0  0  0  0  0  0  0  0  0  0  0
   62.6520   33.8350   46.5250 C   0  0  0  0  0  0  0  0  0  0  0  0
   61.9822   30.4600   46.9361 H   0  0  0  0  0  0  0  0  0  0  0  0
   61.5806   28.7348   45.4551 H   0  0  0  0  0  0  0  0  0  0  0  0
   60.0099   27.4919   47.8992 H   0  0  0  0  0  0  0  0  0  0  0  0
   57.9824   26.1857   48.1313 H   0  0  0  0  0  0  0  0  0  0  0  0
   56.6627   27.5414   44.3111 H   0  0  0  0  0  0  0  0  0  0  0  0
   58.7300   28.8781   44.0741 H   0  0  0  0  0  0  0  0  0  0  0  0
   57.8888   31.3117   45.5075 H   0  0  0  0  0  0  0  0  0  0  0  0
   56.8731   33.2876   44.4346 H   0  0  0  0  0  0  0  0  0  0  0  0
   57.9698   35.4972   44.7509 H   0  0  0  0  0  0  0  0  0  0  0  0
   60.0003   35.6671   46.0840 H   0  0  0  0  0  0  0  0  0  0  0  0
   61.6742   35.2412   48.8148 H   0  0  0  0  0  0  0  0  0  0  0  0
   60.5047   33.9760   49.1921 H   0  0  0  0  0  0  0  0  0  0  0  0
   63.4858   33.9290   49.3138 H   0  0  0  0  0  0  0  0  0  0  0  0
   62.2818   32.8460   50.1244 H   0  0  0  0  0  0  0  0  0  0  0  0
   64.4941   33.0846   47.3364 H   0  0  0  0  0  0  0  0  0  0  0  0
   63.5375   31.8792   46.4147 H   0  0  0  0  0  0  0  0  0  0  0  0
   63.1711   34.7956   46.6586 H   0  0  0  0  0  0  0  0  0  0  0  0
   62.5031   33.6628   45.4488 H   0  0  0  0  0  0  0  0  0  0  0  0
  1  2  2  0
  2  3  1  0
  3  4  2  0
  4  5  1  0
  5  6  2  0
  6  7  1  0
  7  8  2  0
  8  9  1  0
  9 10  2  0
  9 11  1  0
  8 12  1  0
 12 13  2  0
  2 14  1  0
 14 15  2  0
 15 16  1  0
 16 17  2  0
 17 18  1  0
 18 19  2  0
 19 20  1  0
 20 21  1  0
 21 22  1  0
 22 23  1  0
 23 24  1  0
 24 25  1  0
 13  5  1  0
 19 14  1  0
 25 20  1  0
  3 26  1  0
  4 27  1  0
  6 28  1  0
  7 29  1  0
 12 30  1  0
 13 31  1  0
 15 32  1  0
 16 33  1  0
 17 34  1  0
 18 35  1  0
 21 36  1  0
 21 37  1  0
 22 38  1  0
 22 39  1  0
 24 40  1  0
 24 41  1  0
 25 42  1  0
 25 43  1  0
M  CHG  2   9   1  11  -1
M  END
>  <smiles>  (1) 
O=C(C=Cc1ccc([N+](=O)[O-])cc1)c1ccccc1N1CCOCC1

>  <score_type>  (1) 
oracle

>  <origin>  (1) 
adg

>  <m_score__min__energy>  (1) 
-8.5299999999999994

>  <m_primary>  (1) 
energy

$$$$
1:0
     RDKit          3D

 65 65  0  0  0  0  0  0  0  0999 V2000
   58.7510   25.8540   46.7210 C   0  0  0  0  0  0  0  0  0  0  0  0
   59.5410   27.1280   46.5490 C   0  0  0  0  0  0  0  0  0  0  0  0
   58.7770   28.2650   46.1980 N   0  0  0  0  0  0  0  0  0  0  0  0
   59.3480   29.2080   45.3100 C   0  0  0  0  0  0  0  0  0  0  0  0
   60.7650   28.9200   44.9160 C   0  0  0  0  0  0  0  0  0  0  0  0
   57.3790   28.0340   46.0170 C   0  0  0  0  0  0  0  0  0  0  0  0
   56.8750   28.6050   44.7050 C   0  0  0  0  0  0  0  0  0  0  0  0
   56.2670   29.8140   44.8680 O   0  0  0  0  0  0  0  0  0  0  0  0
   56.4590   30.6580   43.8140 C   0  0  0  0  0  0  0  0  0  0  0  0
   57.3950   31.7750   44.1700 C   0  0  0  0  0  0  0  0  0  0  0  0
   57.3500   31.9410   45.5410 O   0  0  0  0  0  0  0  0  0  0  0  0
   57.1760   33.2730   45.8630 C   0  0  0  0  0  0  0  0  0  0  0  0
   57.7030   34.2380   44.8580 C   0  0  0  0  0  0  0  0  0  0  0  0
   59.1200   34.6910   45.1610 C   0  0  0  0  0  0  0  0  0  0  0  0
   59.9150   33.7010   45.9460 C   0  0  0  0  0  0  0  0  0  0  0  0
   60.4470   34.2260   47.2580 C   0  0  0  0  0  0  0  0  0  0  0  0
   59.2890   34.5370   48.2170 C   0  0  0  0  0  0  0  0  0  0  0  0
   59.2310   33.4020   49.1210 N   0  0  0  0  0  0  0  0  0  0  0  0
   58.6100   32.2530   48.5320 C   0  0  0  0  0  0  0  0  0  0  0  0
   59.2050   31.0020   49.0790 C   0  0  0  0  0  0  0  0  0  0  0  0
   60.1840   30.3290   48.3350 C   0  0  0  0  0  0  0  0  0  0  0  0
   60.7400   29.1660   48.8290 C   0  0  0  0  0  0  0  0  0  0  0  0
   60.3240   28.6670   50.0620 C   0  0  0  0  0  0  0  0  0  0  0  0
   59.3520   29.3410   50.7920 C   0  0  0  0  0  0  0  0  0  0  0  0
   58.7850   30.5210   50.2980 C   0  0  0  0  0  0  0  0  0  0  0  0
   57.8110   31.1430   51.1080 N   0  0  0  0  0  0  0  0  0  0  0  0
   57.8020   32.3460   51.4230 O   0  0  0  0  0  0  0  0  0  0  0  0
   56.7870   30.3450   51.5860 O   0  0  0  0  0  0  0  0  0  0  0  0
   58.6213   25.6449   47.7931 H   0  0  0  0  0  0  0  0  0  0  0  0
   57.7646   25.9675   46.2476 H   0  0  0  0  0  0  0  0  0  0  0  0
   59.2912   25.0209   46.2476 H   0  0  0  0  0  0  0  0  0  0  0  0
   60.0537   27.3418   47.4984 H   0  0  0  0  0  0  0  0  0  0  0  0
   60.2294   26.9505   45.7096 H   0  0  0  0  0  0  0  0  0  0  0  0
   58.7364   29.2318   44.3960 H   0  0  0  0  0  0  0  0  0  0  0  0
   59.3639   30.1687   45.8456 H   0  0  0  0  0  0  0  0  0  0  0  0
   61.3789   28.7952   45.8202 H   0  0  0  0  0  0  0  0  0  0  0  0
   60.7992   27.9965   44.3193 H   0  0  0  0  0  0  0  0  0  0  0  0
   61.1570   29.7568   44.3193 H   0  0  0  0  0  0  0  0  0  0  0  0
   57.1937   26.9498   46.0272 H   0  0  0  0  0  0  0  0  0  0  0  0
   56.8424   28.5365   46.8353 H   0  0  0  0  0  0  0  0  0  0  0  0
   57.7279   28.7270   44.0211 H   0  0  0  0  0  0  0  0  0  0  0  0
   56.1306   27.9056   44.2968 H   0  0  0  0  0  0  0  0  0  0  0  0
   56.8835   30.0897   42.9733 H   0  0  0  0  0  0  0  0  0  0  0  0
   55.4876   31.0949   43.5392 H   0  0  0  0  0  0  0  0  0  0  0  0
   58.4183   31.5202   43.8570 H   0  0  0  0  0  0  0  0  0  0  0  0
   57.0981   32.7033   43.6599 H   0  0  0  0  0  0  0  0  0  0  0  0
   56.0980   33.4576   45.9806 H   0  0  0  0  0  0  0  0  0  0  0  0
   57.7517   33.4441   46.7846 H   0  0  0  0  0  0  0  0  0  0  0  0
   57.6924   33.7560   43.8693 H   0  0  0  0  0  0  0  0  0  0  0  0
   57.0584   35.1289   44.8858 H   0  0  0  0  0  0  0  0  0  0  0  0
   59.6372   34.8728   44.2074 H   0  0  0  0  0  0  0  0  0  0  0  0
   59.0409   35.5987   45.7773 H   0  0  0  0  0  0  0  0  0  0  0  0
   59.2718   32.8342   46.1580 H   0  0  0  0  0  0  0  0  0  0  0  0
   60.7914   33.4456   45.3322 H   0  0  0  0  0  0  0  0  0  0  0  0
   61.1016   33.4682   47.7133 H   0  0  0  0  0  0  0  0  0  0  0  0
   61.0136   35.1499   47.0701 H   0  0  0  0  0  0  0  0  0  0  0  0
   59.4874   35.4646   48.7740 H   0  0  0  0  0  0  0  0  0  0  0  0
   58.3396   34.6865   47.6819 H   0  0  0  0  0  0  0  0  0  0  0  0
   58.8370   33.6440   50.0370 H   0  0  0  0  0  0  0  0  0  0  0  0
   57.5329   32.2693   48.7547 H   0  0  0  0  0  0  0  0  0  0  0  0
   58.7722   32.2787   47.4443 H   0  0  0  0  0  0  0  0  0  0  0  0
   60.5079   30.7259   47.3616 H   0  0  0  0  0  0  0  0  0  0  0  0
   61.5098   28.6342   48.2506 H   0  0  0  0  0  0  0  0  0  0  0  0
   60.7648   27.7400   50.4574 H   0  0  0  0  0  0  0  0  0  0  0  0
   59.0263   28.9440   51.7648 H   0  0  0  0  0  0  0  0  0  0  0  0
  1  2  1  0
  2  3  1  0
  3  4  1  0
  4  5  1  0
  3  6  1  0
  6  7  1  0
  7  8  1  0
  8  9  1  0
  9 10  1  0
 10 11  1  0
 11 12  1  0
 12 13  1  0
 13 14  1  0
 14 15  1  0
 15 16  1  0
 16 17  1  0
 17 18  1  0
 18 19  1  0
 19 20  1  0
 20 21  2  0
 21 22  1  0
 22 23  2  0
 23 24  1  0
 24 25  2  0
 25 26  1  0
 26 27  2  0
 26 28  1  0
 25 20  1  0
  1 29  1  0
  1 30  1  0
  1 31  1  0
  2 32  1  0
  2 33  1  0
  4 34  1  0
  4 35  1  0
  5 36  1  0
  5 37  1  0
  5 38  1  0
  6 39  1  0
  6 40  1  0
  7 41  1  0
  7 42  1  0
  9 43  1  0
  9 44  1  0
 10 45  1  0
 10 46  1  0
 12 47  1  0
 12 48  1  0
 13 49  1  0
 13 50  1  0
 14 51  1  0
 14 52  1  0
 15 53  1  0
 15 54  1  0
 16 55  1  0
 16 56  1  0
 17 57  1  0
 17 58  1  0
 18 59  1  0
 19 60  1  0
 19 61  1  0
 21 62  1  0
 22 63  1  0
 23 64  1  0
 24 65  1  0
M  CHG  2  26   1  28  -1
M  END
>  <smiles>  (2) 
CCN(CC)CCOCCOCCCCCCNCc1ccccc1[N+](=O)[O-]

>  <score_type>  (2) 
oracle

>  <origin>  (2) 
adg

>  <m_score__min__energy>  (2) 
-7.5199999999999996

>  <m_primary>  (2) 
energy

$$$$
2:0
     RDKit          3D

 38 40  0  0  0  0  0  0  0  0999 V2000
   63.7250   33.1030   46.7420 C   0  0  0  0  0  0  0  0  0  0  0  0
   62.9940   33.4590   47.9880 C   0  0  0  0  0  0  0  0  0  0  0  0
   63.3790   33.3390   49.2690 N   0  0  0  0  0  0  0  0  0  0  0  0
   62.4760   33.7560   50.1030 N   0  0  0  0  0  0  0  0  0  0  0  0
   62.5390   33.7730   51.5510 C   0  0  0  0  0  0  0  0  0  0  0  0
   61.4320   34.1780   49.3780 C   0  0  0  0  0  0  0  0  0  0  0  0
   61.7090   34.0110   48.0230 C   0  0  0  0  0  0  0  0  0  0  0  0
   60.8140   34.3410   46.9100 C   0  0  0  0  0  0  0  0  0  0  0  0
   59.4490   33.9990   47.0710 N   0  0  0  0  0  0  0  0  0  0  0  0
   59.0940   32.7460   47.5890 C   0  0  0  0  0  0  0  0  0  0  0  0
   58.7770   31.6980   46.5820 C   0  0  0  0  0  0  0  0  0  0  0  0
   57.9590   32.2490   45.5350 N   0  0  0  0  0  0  0  0  0  0  0  0
   57.2540   31.3460   44.6790 C   0  0  0  0  0  0  0  0  0  0  0  0
   56.4560   30.4120   44.8640 N   0  0  0  0  0  0  0  0  0  0  0  0
   55.9300   29.6800   43.9260 C   0  0  0  0  0  0  0  0  0  0  0  0
   56.2790   29.9590   42.6480 C   0  0  0  0  0  0  0  0  0  0  0  0
   57.4530   31.3870   42.8610 S   0  0  0  0  0  0  0  0  0  0  0  0
   57.7770   33.6600   45.2730 C   0  0  0  0  0  0  0  0  0  0  0  0
   58.5800   34.5770   46.1170 C   0  0  0  0  0  0  0  0  0  0  0  0
   64.6860   32.6350   47.0017 H   0  0  0  0  0  0  0  0  0  0  0  0
   63.1215   32.3979   46.1515 H   0  0  0  0  0  0  0  0  0  0  0  0
   63.9080   34.0129   46.1515 H   0  0  0  0  0  0  0  0  0  0  0  0
   61.5547   33.5074   51.9640 H   0  0  0  0  0  0  0  0  0  0  0  0
   63.2890   33.0451   51.8940 H   0  0  0  0  0  0  0  0  0  0  0  0
   62.8211   34.7794   51.8940 H   0  0  0  0  0  0  0  0  0  0  0  0
   60.4997   34.5925   49.7890 H   0  0  0  0  0  0  0  0  0  0  0  0
   60.8690   35.4277   46.7485 H   0  0  0  0  0  0  0  0  0  0  0  0
   61.1673   33.7335   46.0638 H   0  0  0  0  0  0  0  0  0  0  0  0
   59.9328   32.3835   48.2014 H   0  0  0  0  0  0  0  0  0  0  0  0
   58.1652   32.9080   48.1557 H   0  0  0  0  0  0  0  0  0  0  0  0
   59.7128   31.3148   46.1489 H   0  0  0  0  0  0  0  0  0  0  0  0
   58.2295   30.8805   47.0738 H   0  0  0  0  0  0  0  0  0  0  0  0
   55.2289   28.8659   44.1621 H   0  0  0  0  0  0  0  0  0  0  0  0
   55.9519   29.4669   41.7201 H   0  0  0  0  0  0  0  0  0  0  0  0
   58.0438   33.8463   44.2222 H   0  0  0  0  0  0  0  0  0  0  0  0
   56.7249   33.8768   45.5098 H   0  0  0  0  0  0  0  0  0  0  0  0
   59.1943   35.1914   45.4424 H   0  0  0  0  0  0  0  0  0  0  0  0
   57.8380   35.1278   46.7138 H   0  0  0  0  0  0  0  0  0  0  0  0
  1  2  1  0
  2  3  2  0
  3  4  1  0
  4  5  1  0
  4  6  1  0
  6  7  2  0
  7  8  1  0
  8  9  1  0
  9 10  1  0
 10 11  1  0
 11 12  1  0
 12 13  1  0
 13 14  2  0
 14 15  1  0
 15 16  2  0
 16 17  1  0
 12 18  1  0
 18 19  1  0
  7  2  1  0
 19  9  1  0
 17 13  1  0
  1 20  1  0
  1 21  1  0
  1 22  1  0
  5 23  1  0
  5 24  1  0
  5 25  1  0
  6 26  1  0
  8 27  1  0
  8 28  1  0
 10 29  1  0
 10 30  1  0
 11 31  1  0
 11 32  1  0
 15 33  1  0
 16 34  1  0
 18 35  1  0
 18 36  1  0
 19 37  1  0
 19 38  1  0
M  END
>  <smiles>  (3) 
Cc1nn(C)cc1CN1CCN(c2nccs2)CC1

>  <score_type>  (3) 
oracle

>  <origin>  (3) 
adg

>  <m_score__min__energy>  (3) 
-6.9199999999999999

>  <m_primary>  (3) 
energy

$$$$
3:0
     RDKit          3D

 39 40  0  0  0  0  0  0  0  0999 V2000
   59.3230   27.8130   46.2410 C   0  0  0  0  0  0  0  0  0  0  0  0
   57.8780   28.1710   46.2200 C   0  0  0  0  0  0  0  0  0  0  0  0
   57.2870   27.9420   44.8720 N   0  0  0  0  0  0  0  0  0  0  0  0
   58.4370   27.6480   44.0430 C   0  0  0  0  0  0  0  0  0  0  0  0
   58.1480   27.0410   42.7220 C   0  0  0  0  0  0  0  0  0  0  0  0
   56.6450   29.1950   44.5840 C   0  0  0  0  0  0  0  0  0  0  0  0
   57.5150   30.3930   44.4890 C   0  0  0  0  0  0  0  0  0  0  0  0
   57.4910   31.2040   45.6570 O   0  0  0  0  0  0  0  0  0  0  0  0
   58.6770   31.8920   45.9880 C   0  0  0  0  0  0  0  0  0  0  0  0
   59.7440   31.2260   46.5840 C   0  0  0  0  0  0  0  0  0  0  0  0
   60.9180   31.8500   46.9270 C   0  0  0  0  0  0  0  0  0  0  0  0
   61.9460   31.1580   47.5150 C   0  0  0  0  0  0  0  0  0  0  0  0
   63.1260   31.7830   47.8650 C   0  0  0  0  0  0  0  0  0  0  0  0
   63.2500   33.1390   47.6040 C   0  0  0  0  0  0  0  0  0  0  0  0
   62.1930   33.8260   47.0040 C   0  0  0  0  0  0  0  0  0  0  0  0
   61.0120   33.2000   46.6560 C   0  0  0  0  0  0  0  0  0  0  0  0
   59.9790   33.9170   46.0630 C   0  0  0  0  0  0  0  0  0  0  0  0
   58.8130   33.2420   45.7330 C   0  0  0  0  0  0  0  0  0  0  0  0
   57.3810   34.2180   44.9150 Br  0  0  0  0  0  0  0  0  0  0  0  0
   59.6647   27.7284   47.2832 H   0  0  0  0  0  0  0  0  0  0  0  0
   59.4700   26.8513   45.7277 H   0  0  0  0  0  0  0  0  0  0  0  0
   59.9020   28.5949   45.7277 H   0  0  0  0  0  0  0  0  0  0  0  0
   57.3440   27.5520   46.9560 H   0  0  0  0  0  0  0  0  0  0  0  0
   57.7794   29.2383   46.4673 H   0  0  0  0  0  0  0  0  0  0  0  0
   58.9764   28.5908   43.8693 H   0  0  0  0  0  0  0  0  0  0  0  0
   59.0157   26.8933   44.5958 H   0  0  0  0  0  0  0  0  0  0  0  0
   57.6792   26.0563   42.8656 H   0  0  0  0  0  0  0  0  0  0  0  0
   57.4642   27.6942   42.1600 H   0  0  0  0  0  0  0  0  0  0  0  0
   59.0861   26.9220   42.1600 H   0  0  0  0  0  0  0  0  0  0  0  0
   56.1235   29.0868   43.6215 H   0  0  0  0  0  0  0  0  0  0  0  0
   55.9911   29.3854   45.4478 H   0  0  0  0  0  0  0  0  0  0  0  0
   58.5492   30.0599   44.3173 H   0  0  0  0  0  0  0  0  0  0  0  0
   57.1322   31.0067   43.6603 H   0  0  0  0  0  0  0  0  0  0  0  0
   59.6420   30.1502   46.7897 H   0  0  0  0  0  0  0  0  0  0  0  0
   61.8276   30.0822   47.7118 H   0  0  0  0  0  0  0  0  0  0  0  0
   63.9449   31.2210   48.3377 H   0  0  0  0  0  0  0  0  0  0  0  0
   64.1761   33.6706   47.8682 H   0  0  0  0  0  0  0  0  0  0  0  0
   62.3045   34.9015   46.8017 H   0  0  0  0  0  0  0  0  0  0  0  0
   60.0837   34.9931   45.8605 H   0  0  0  0  0  0  0  0  0  0  0  0
  1  2  1  0
  2  3  1  0
  3  4  1  0
  4  5  1  0
  3  6  1  0
  6  7  1  0
  7  8  1  0
  8  9  1  0
  9 10  2  0
 10 11  1  0
 11 12  2  0
 12 13  1  0
 13 14  2  0
 14 15  1  0
 15 16  2  0
 16 17  1  0
 17 18  2  0
 18 19  1  0
 18  9  1  0
 16 11  1  0
  1 20  1  0
  1 21  1  0
  1 22  1  0
  2 23  1  0
  2 24  1  0
  4 25  1  0
  4 26  1  0
  5 27  1  0
  5 28  1  0
  5 29  1  0
  6 30  1  0
  6 31  1  0
  7 32  1  0
  7 33  1  0
 10 34  1  0
 12 35  1  0
 13 36  1  0
 14 37  1  0
 15 38  1  0
 17 39  1  0
M  END
>  <smiles>  (4) 
CCN(CC)CCOc1cc2ccccc2cc1Br

>  <score_type>  (4) 
oracle

>  <origin>  (4) 
adg

>  <m_score__min__energy>  (4) 
-6.71

>  <m_primary>  (4) 
energy

$$$$
4:0
     RDKit          3D

 37 40  0  0  0  0  0  0  0  0999 V2000
   56.6490   30.8110   42.8620 C   0  0  0  0  0  0  0  0  0  0  0  0
   57.5040   30.6150   44.0360 C   0  0  0  0  0  0  0  0  0  0  0  0
   58.0600   31.6860   44.7140 C   0  0  0  0  0  0  0  0  0  0  0  0
   57.7730   32.9390   44.2260 C   0  0  0  0  0  0  0  0  0  0  0  0
   58.2980   34.0440   44.8560 C   0  0  0  0  0  0  0  0  0  0  0  0
   59.0730   33.8780   45.9210 N   0  0  0  0  0  0  0  0  0  0  0  0
   59.6270   35.0670   46.5810 C   0  0  0  0  0  0  0  0  0  0  0  0
   59.3660   32.6400   46.4130 C   0  0  0  0  0  0  0  0  0  0  0  0
   58.8750   31.4880   45.8350 C   0  0  0  0  0  0  0  0  0  0  0  0
   59.1630   30.2320   46.3190 C   0  0  0  0  0  0  0  0  0  0  0  0
   60.0100   30.0420   47.4980 C   0  0  0  0  0  0  0  0  0  0  0  0
   58.6080   29.1650   45.6430 C   0  0  0  0  0  0  0  0  0  0  0  0
   57.7940   29.3630   44.5220 C   0  0  0  0  0  0  0  0  0  0  0  0
   57.3970   28.1700   44.0660 N   0  0  0  0  0  0  0  0  0  0  0  0
   57.8930   27.1780   44.8120 C   0  0  0  0  0  0  0  0  0  0  0  0
   57.7530   25.8180   44.7140 C   0  0  0  0  0  0  0  0  0  0  0  0
   58.3820   25.0010   45.6230 C   0  0  0  0  0  0  0  0  0  0  0  0
   59.1350   25.6130   46.6020 C   0  0  0  0  0  0  0  0  0  0  0  0
   59.2760   26.9870   46.7000 C   0  0  0  0  0  0  0  0  0  0  0  0
   58.6480   27.8020   45.7930 C   0  0  0  0  0  0  0  0  0  0  0  0
   55.6253   31.0457   43.1890 H   0  0  0  0  0  0  0  0  0  0  0  0
   57.0407   31.6427   42.2579 H   0  0  0  0  0  0  0  0  0  0  0  0
   56.6393   29.8918   42.2579 H   0  0  0  0  0  0  0  0  0  0  0  0
   57.1303   33.0569   43.3411 H   0  0  0  0  0  0  0  0  0  0  0  0
   58.0778   35.0544   44.4810 H   0  0  0  0  0  0  0  0  0  0  0  0
   59.5685   34.9414   47.6722 H   0  0  0  0  0  0  0  0  0  0  0  0
   60.6779   35.1958   46.2826 H   0  0  0  0  0  0  0  0  0  0  0  0
   59.0497   35.9545   46.2826 H   0  0  0  0  0  0  0  0  0  0  0  0
   60.0139   32.5579   47.2981 H   0  0  0  0  0  0  0  0  0  0  0  0
   59.4072   30.1772   48.4082 H   0  0  0  0  0  0  0  0  0  0  0  0
   60.4330   29.0266   47.4858 H   0  0  0  0  0  0  0  0  0  0  0  0
   60.8262   30.7794   47.4858 H   0  0  0  0  0  0  0  0  0  0  0  0
   56.7760   28.0110   43.2350 H   0  0  0  0  0  0  0  0  0  0  0  0
   57.1399   25.3823   43.9114 H   0  0  0  0  0  0  0  0  0  0  0  0
   58.2885   23.9062   45.5714 H   0  0  0  0  0  0  0  0  0  0  0  0
   59.6483   24.9797   47.3406 H   0  0  0  0  0  0  0  0  0  0  0  0
   59.8893   27.4232   47.5022 H   0  0  0  0  0  0  0  0  0  0  0  0
  1  2  1  0
  2  3  2  0
  3  4  1  0
  4  5  2  0
  5  6  1  0
  6  7  1  0
  6  8  2  0
  8  9  1  0
  9 10  2  0
 10 11  1  0
 10 12  1  0
 12 13  2  0
 13 14  1  0
 14 15  1  0
 15 16  2  0
 16 17  1  0
 17 18  2  0
 18 19  1  0
 19 20  2  0
 13  2  1  0
 20 15  1  0
  9  3  1  0
 20 12  1  0
  1 21  1  0
  1 22  1  0
  1 23  1  0
  4 24  1  0
  5 25  1  0
  7 26  1  0
  7 27  1  0
  7 28  1  0
  8 29  1  0
 11 30  1  0
 11 31  1  0
 11 32  1  0
 14 33  1  0
 16 34  1  0
 17 35  1  0
 18 36  1  0
 19 37  1  0
M  CHG  1   6   1
M  END
>  <smiles>  (5) 
Cc1c2cc[n+](C)cc2c(C)c2c1[nH]c1ccccc12

>  <score_type>  (5) 
oracle

>  <origin>  (5) 
adg

>  <m_score__min__energy>  (5) 
-6.3600000000000003

>  <m_primary>  (5) 
energy

$$$$
5:0
     RDKit          3D

 74 76  0  0  0  0  0  0  0  0999 V2000
   61.0330   28.7160   44.8610 C   0  0  0  0  0  0  0  0  0  0  0  0
   59.9170   28.2220   45.7910 C   0  0  0  0  0  0  0  0  0  0  0  0
   59.5770   29.3390   46.6160 N   0  0  0  0  0  0  0  0  0  0  0  0
   60.6160   30.2850   46.8200 C   0  0  0  0  0  0  0  0  0  0  0  0
   61.0960   30.2580   48.2570 C   0  0  0  0  0  0  0  0  0  0  0  0
   58.2500   29.8150   46.5140 C   0  0  0  0  0  0  0  0  0  0  0  0
   57.4590   29.3640   45.3310 C   0  0  0  0  0  0  0  0  0  0  0  0
   56.5340   30.2540   44.8690 O   0  0  0  0  0  0  0  0  0  0  0  0
   56.6740   30.7020   43.5740 C   0  0  0  0  0  0  0  0  0  0  0  0
   57.5740   31.8790   43.4290 C   0  0  0  0  0  0  0  0  0  0  0  0
   57.6000   32.6230   44.5730 O   0  0  0  0  0  0  0  0  0  0  0  0
   58.8220   32.9210   45.1140 C   0  0  0  0  0  0  0  0  0  0  0  0
   58.8090   34.2470   45.8130 C   0  0  0  0  0  0  0  0  0  0  0  0
   58.0360   34.2790   46.9720 O   0  0  0  0  0  0  0  0  0  0  0  0
   57.7240   33.0330   47.4800 C   0  0  0  0  0  0  0  0  0  0  0  0
   58.7090   32.5810   48.5500 C   0  0  0  0  0  0  0  0  0  0  0  0
   59.4470   33.6730   49.1090 N   0  0  0  0  0  0  0  0  0  0  0  0
   60.7310   33.5460   49.6200 C   0  0  0  0  0  0  0  0  0  0  0  0
   61.7900   33.5040   48.6990 C   0  0  0  0  0  0  0  0  0  0  0  0
   61.4990   33.5760   47.3420 C   0  0  0  0  0  0  0  0  0  0  0  0
   62.4740   33.5470   46.3680 C   0  0  0  0  0  0  0  0  0  0  0  0
   63.7810   33.4400   46.7800 C   0  0  0  0  0  0  0  0  0  0  0  0
   64.0730   33.3660   48.1460 C   0  0  0  0  0  0  0  0  0  0  0  0
   63.1040   33.3950   49.1160 C   0  0  0  0  0  0  0  0  0  0  0  0
   63.4290   33.3230   50.4420 N   0  0  0  0  0  0  0  0  0  0  0  0
   64.7920   33.1910   50.8710 C   0  0  0  0  0  0  0  0  0  0  0  0
   62.4200   33.3610   51.3510 C   0  0  0  0  0  0  0  0  0  0  0  0
   62.6420   33.2920   52.7040 C   0  0  0  0  0  0  0  0  0  0  0  0
   61.6210   33.3240   53.6450 C   0  0  0  0  0  0  0  0  0  0  0  0
   60.3200   33.4280   53.2420 C   0  0  0  0  0  0  0  0  0  0  0  0
   60.0500   33.5020   51.8740 C   0  0  0  0  0  0  0  0  0  0  0  0
   58.7380   33.6040   51.5080 O   0  0  0  0  0  0  0  0  0  0  0  0
   57.7290   32.7450   51.9860 C   0  0  0  0  0  0  0  0  0  0  0  0
   61.0870   33.4700   50.9510 C   0  0  0  0  0  0  0  0  0  0  0  0
   61.8745   29.0885   45.4637 H   0  0  0  0  0  0  0  0  0  0  0  0
   61.3758   27.8856   44.2263 H   0  0  0  0  0  0  0  0  0  0  0  0
   60.6488   29.5281   44.2263 H   0  0  0  0  0  0  0  0  0  0  0  0
   59.0443   27.8988   45.2046 H   0  0  0  0  0  0  0  0  0  0  0  0
   60.2411   27.3586   46.3906 H   0  0  0  0  0  0  0  0  0  0  0  0
   61.4580   30.0446   46.1543 H   0  0  0  0  0  0  0  0  0  0  0  0
   60.2260   31.2893   46.5981 H   0  0  0  0  0  0  0  0  0  0  0  0
   60.2302   30.3067   48.9338 H   0  0  0  0  0  0  0  0  0  0  0  0
   61.6527   29.3271   48.4402 H   0  0  0  0  0  0  0  0  0  0  0  0
   61.7536   31.1206   48.4402 H   0  0  0  0  0  0  0  0  0  0  0  0
   57.7109   29.4919   47.4168 H   0  0  0  0  0  0  0  0  0  0  0  0
   58.3448   30.9046   46.3967 H   0  0  0  0  0  0  0  0  0  0  0  0
   58.1634   29.1521   44.5131 H   0  0  0  0  0  0  0  0  0  0  0  0
   56.8904   28.4839   45.6657 H   0  0  0  0  0  0  0  0  0  0  0  0
   57.0807   29.8799   42.9667 H   0  0  0  0  0  0  0  0  0  0  0  0
   55.6762   31.0244   43.2416 H   0  0  0  0  0  0  0  0  0  0  0  0
   58.5921   31.5272   43.2063 H   0  0  0  0  0  0  0  0  0  0  0  0
   57.1947   32.5095   42.6114 H   0  0  0  0  0  0  0  0  0  0  0  0
   59.0918   32.1385   45.8385 H   0  0  0  0  0  0  0  0  0  0  0  0
   59.5565   32.9708   44.2967 H   0  0  0  0  0  0  0  0  0  0  0  0
   59.8440   34.5040   46.0825 H   0  0  0  0  0  0  0  0  0  0  0  0
   58.3568   34.9660   45.1140 H   0  0  0  0  0  0  0  0  0  0  0  0
   56.7169   33.0728   47.9206 H   0  0  0  0  0  0  0  0  0  0  0  0
   57.7723   32.3106   46.6519 H   0  0  0  0  0  0  0  0  0  0  0  0
   58.1507   32.0826   49.3561 H   0  0  0  0  0  0  0  0  0  0  0  0
   59.4289   31.8976   48.0759 H   0  0  0  0  0  0  0  0  0  0  0  0
   58.9760   34.6210   49.1260 H   0  0  0  0  0  0  0  0  0  0  0  0
   60.4468   33.6596   47.0322 H   0  0  0  0  0  0  0  0  0  0  0  0
   62.2157   33.6073   45.3005 H   0  0  0  0  0  0  0  0  0  0  0  0
   64.5935   33.4127   46.0390 H   0  0  0  0  0  0  0  0  0  0  0  0
   65.1251   33.2809   48.4555 H   0  0  0  0  0  0  0  0  0  0  0  0
   64.8317   33.1872   51.9703 H   0  0  0  0  0  0  0  0  0  0  0  0
   65.2080   32.2484   50.4858 H   0  0  0  0  0  0  0  0  0  0  0  0
   65.3811   34.0363   50.4858 H   0  0  0  0  0  0  0  0  0  0  0  0
   63.6793   33.2072   53.0602 H   0  0  0  0  0  0  0  0  0  0  0  0
   61.8605   33.2655   54.7170 H   0  0  0  0  0  0  0  0  0  0  0  0
   59.5034   33.4529   53.9786 H   0  0  0  0  0  0  0  0  0  0  0  0
   57.7343   32.7495   53.0860 H   0  0  0  0  0  0  0  0  0  0  0  0
   56.7502   33.0912   51.6226 H   0  0  0  0  0  0  0  0  0  0  0  0
   57.9146   31.7235   51.6226 H   0  0  0  0  0  0  0  0  0  0  0  0
  1  2  1  0
  2  3  1  0
  3  4  1  0
  4  5  1  0
  3  6  1  0
  6  7  1  0
  7  8  1  0
  8  9  1  0
  9 10  1  0
 10 11  1  0
 11 12  1  0
 12 13  1  0
 13 14  1  0
 14 15  1  0
 15 16  1  0
 16 17  1  0
 17 18  1  0
 18 19  2  0
 19 20  1  0
 20 21  2  0
 21 22  1  0
 22 23  2  0
 23 24  1  0
 24 25  2  0
 25 26  1  0
 25 27  1  0
 27 28  2  0
 28 29  1  0
 29 30  2  0
 30 31  1  0
 31 32  1  0
 32 33  1  0
 31 34  2  0
 34 18  1  0
 24 19  1  0
 34 27  1  0
  1 35  1  0
  1 36  1  0
  1 37  1  0
  2 38  1  0
  2 39  1  0
  4 40  1  0
  4 41  1  0
  5 42  1  0
  5 43  1  0
  5 44  1  0
  6 45  1  0
  6 46  1  0
  7 47  1  0
  7 48  1  0
  9 49  1  0
  9 50  1  0
 10 51  1  0
 10 52  1  0
 12 53  1  0
 12 54  1  0
 13 55  1  0
 13 56  1  0
 15 57  1  0
 15 58  1  0
 16 59  1  0
 16 60  1  0
 17 61  1  0
 20 62  1  0
 21 63  1  0
 22 64  1  0
 23 65  1  0
 26 66  1  0
 26 67  1  0
 26 68  1  0
 28 69  1  0
 29 70  1  0
 30 71  1  0
 33 72  1  0
 33 73  1  0
 33 74  1  0
M  CHG  1  25   1
M  END
>  <smiles>  (6) 
CCN(CC)CCOCCOCCOCCNc1c2ccccc2[n+](C)c2cccc(OC)c12

>  <score_type>  (6) 
oracle

>  <origin>  (6) 
adg

>  <m_score__min__energy>  (6) 
-5.0899999999999999

>  <m_primary>  (6) 
energy

$$$$
6:0
     RDKit          3D

 91 95  0  0  1  0  0  0  0  0999 V2000
   57.8850   31.6840   51.3360 C   0  0  0  0  0  0  0  0  0  0  0  0
   59.3740   31.6910   51.5020 C   0  0  0  0  0  0  0  0  0  0  0  0
   60.2090   31.4570   50.3970 N   0  0  0  0  0  0  0  0  0  0  0  0
   60.1970   30.5860   49.4730 C   0  0  0  0  0  0  0  0  0  0  0  0
   60.5180   29.2960   49.7850 C   0  0  0  0  0  0  0  0  0  0  0  0
   61.1970   28.9990   50.9320 C   0  0  0  0  0  0  0  0  0  0  0  0
   61.5230   27.6450   51.1790 C   0  0  0  0  0  0  0  0  0  0  0  0
   62.2400   27.2890   52.3390 O   0  0  0  0  0  0  0  0  0  0  0  0
   63.5520   26.8690   52.3960 C   0  0  0  0  0  0  0  0  0  0  0  0
   64.5640   27.9590   52.5010 C   0  0  0  0  0  0  0  0  0  0  0  0
   65.9220   27.5670   52.1410 N   0  0  0  0  0  0  0  0  0  0  0  0
   66.7670   27.4900   53.3340 C   0  0  0  0  0  0  0  0  0  0  0  0
   66.0150   26.3260   51.4500 C   0  0  0  0  0  0  0  0  0  0  0  0
   66.8670   26.3420   50.2090 C   0  0  0  0  0  0  0  0  0  0  0  0
   68.1480   27.0960   50.3940 C   0  0  0  0  0  0  0  0  0  0  0  0
   67.8300   28.4790   50.8420 C   0  0  0  0  0  0  0  0  0  0  0  0
   66.4530   28.6690   51.3700 C   0  0  0  0  0  0  0  0  0  0  0  0
   61.1380   26.7210   50.2530 C   0  0  0  0  0  0  0  0  0  0  0  0
   60.4610   27.0070   49.0850 C   0  0  0  0  0  0  0  0  0  0  0  0
   60.1620   28.3270   48.8670 C   0  0  0  0  0  0  0  0  0  0  0  0
   59.5210   28.6670   47.6910 N   0  0  0  0  0  0  0  0  0  0  0  0
   59.2250   29.9460   47.4000 C   0  0  0  0  0  0  0  0  0  0  0  0
   59.5600   30.9630   48.2950 C   0  0  0  0  0  0  0  0  0  0  0  0
   59.2610   32.2960   48.0190 C   0  0  0  0  0  0  0  0  0  0  0  0
   59.6400   33.3170   48.9010 N   0  0  0  0  0  0  0  0  0  0  0  0
   60.6200   34.3520   48.7280 C   0  0  0  0  0  0  0  0  0  0  0  0
   61.6450   34.1910   47.6650 C   0  0  0  0  0  0  0  0  0  0  0  0
   62.9120   33.6300   48.1750 N   0  0  0  0  0  0  0  0  0  0  0  0
   62.8570   33.3900   49.5320 C   0  0  0  0  0  0  0  0  0  0  0  0
   63.8510   32.4460   50.1610 C   0  0  0  0  0  0  0  0  0  0  0  0
   63.3780   32.7240   47.2150 C   0  0  0  0  0  0  0  0  0  0  0  0
   62.7190   31.3850   47.1620 C   0  0  0  0  0  0  0  0  0  0  0  0
   58.6120   32.5320   46.7970 C   0  0  0  0  0  0  0  0  0  0  0  0
   58.3300   33.8610   46.5430 C   0  0  0  0  0  0  0  0  0  0  0  0
   57.7060   34.2070   45.3670 C   0  0  0  0  0  0  0  0  0  0  0  0
   57.3920   33.2010   44.4970 C   0  0  0  0  0  0  0  0  0  0  0  0
   57.6600   31.8510   44.7210 C   0  0  0  0  0  0  0  0  0  0  0  0
   57.3320   30.8810   43.6860 C   0  0  0  0  0  0  0  0  0  0  0  0
   58.2950   31.5140   45.9330 C   0  0  0  0  0  0  0  0  0  0  0  0
   58.5880   30.2140   46.2160 N   0  0  0  0  0  0  0  0  0  0  0  0
   58.1790   29.1320   45.3760 C   0  0  0  0  0  0  0  0  0  0  0  0
   57.4057   31.6817   52.3261 H   0  0  0  0  0  0  0  0  0  0  0  0
   57.5738   32.5807   50.7800 H   0  0  0  0  0  0  0  0  0  0  0  0
   57.5823   30.7844   50.7800 H   0  0  0  0  0  0  0  0  0  0  0  0
   59.6437   32.6809   51.8987 H   0  0  0  0  0  0  0  0  0  0  0  0
   59.5587   30.8180   52.1452 H   0  0  0  0  0  0  0  0  0  0  0  0
   61.4818   29.7890   51.6425 H   0  0  0  0  0  0  0  0  0  0  0  0
   63.6624   26.2164   53.2746 H   0  0  0  0  0  0  0  0  0  0  0  0
   63.7508   26.3591   51.4418 H   0  0  0  0  0  0  0  0  0  0  0  0
   64.2558   28.7780   51.8345 H   0  0  0  0  0  0  0  0  0  0  0  0
   64.5960   28.2520   53.5608 H   0  0  0  0  0  0  0  0  0  0  0  0
   66.1370   27.5474   54.2339 H   0  0  0  0  0  0  0  0  0  0  0  0
   67.3180   26.5379   53.3323 H   0  0  0  0  0  0  0  0  0  0  0  0
   67.4810   28.3268   53.3323 H   0  0  0  0  0  0  0  0  0  0  0  0
   66.4371   25.5826   52.1422 H   0  0  0  0  0  0  0  0  0  0  0  0
   64.9947   26.0876   51.1150 H   0  0  0  0  0  0  0  0  0  0  0  0
   67.1066   25.3043   49.9338 H   0  0  0  0  0  0  0  0  0  0  0  0
   66.2938   26.8514   49.4203 H   0  0  0  0  0  0  0  0  0  0  0  0
   68.7659   26.5943   51.1533 H   0  0  0  0  0  0  0  0  0  0  0  0
   68.7028   27.1289   49.4447 H   0  0  0  0  0  0  0  0  0  0  0  0
   68.5404   28.7519   51.6363 H   0  0  0  0  0  0  0  0  0  0  0  0
   67.9066   29.1161   49.9486 H   0  0  0  0  0  0  0  0  0  0  0  0
   66.4574   29.5612   52.0135 H   0  0  0  0  0  0  0  0  0  0  0  0
   65.8023   28.7602   50.4878 H   0  0  0  0  0  0  0  0  0  0  0  0
   61.3858   25.6679   50.4521 H   0  0  0  0  0  0  0  0  0  0  0  0
   60.1775   26.2208   48.3698 H   0  0  0  0  0  0  0  0  0  0  0  0
   59.3360   27.8580   47.0810 H   0  0  0  0  0  0  0  0  0  0  0  0
   59.1140   33.3290   49.8350 H   0  0  0  0  0  0  0  0  0  0  0  0
   60.0742   35.2826   48.5136 H   0  0  0  0  0  0  0  0  0  0  0  0
   61.1986   34.3321   49.6633 H   0  0  0  0  0  0  0  0  0  0  0  0
   61.2475   33.5167   46.8921 H   0  0  0  0  0  0  0  0  0  0  0  0
   61.8634   35.1902   47.2601 H   0  0  0  0  0  0  0  0  0  0  0  0
   62.9770   34.3615   50.0337 H   0  0  0  0  0  0  0  0  0  0  0  0
   61.8936   32.8757   49.6641 H   0  0  0  0  0  0  0  0  0  0  0  0
   63.7790   32.5143   51.2565 H   0  0  0  0  0  0  0  0  0  0  0  0
   63.6310   31.4163   49.8426 H   0  0  0  0  0  0  0  0  0  0  0  0
   64.8680   32.7188   49.8426 H   0  0  0  0  0  0  0  0  0  0  0  0
   63.2522   33.1938   46.2284 H   0  0  0  0  0  0  0  0  0  0  0  0
   64.4188   32.5159   47.5039 H   0  0  0  0  0  0  0  0  0  0  0  0
   62.5409   31.0232   48.1854 H   0  0  0  0  0  0  0  0  0  0  0  0
   61.7595   31.4693   46.6308 H   0  0  0  0  0  0  0  0  0  0  0  0
   63.3712   30.6761   46.6308 H   0  0  0  0  0  0  0  0  0  0  0  0
   58.6023   34.6355   47.2751 H   0  0  0  0  0  0  0  0  0  0  0  0
   57.4683   35.2557   45.1352 H   0  0  0  0  0  0  0  0  0  0  0  0
   56.8936   33.4750   43.5554 H   0  0  0  0  0  0  0  0  0  0  0  0
   57.0132   29.9383   44.1547 H   0  0  0  0  0  0  0  0  0  0  0  0
   56.5167   31.2736   43.0606 H   0  0  0  0  0  0  0  0  0  0  0  0
   58.2183   30.6982   43.0606 H   0  0  0  0  0  0  0  0  0  0  0  0
   57.8586   28.2845   45.9997 H   0  0  0  0  0  0  0  0  0  0  0  0
   57.3417   29.4571   44.7410 H   0  0  0  0  0  0  0  0  0  0  0  0
   59.0220   28.8219   44.7410 H   0  0  0  0  0  0  0  0  0  0  0  0
  1  2  1  0
  2  3  1  0
  3  4  2  0
  4  5  1  0
  5  6  2  0
  6  7  1  0
  7  8  1  0
  8  9  1  0
  9 10  1  0
 10 11  1  0
 11 12  1  0
 11 13  1  0
 13 14  1  0
 14 15  1  0
 15 16  1  0
 16 17  1  0
  7 18  2  0
 18 19  1  0
 19 20  2  0
 20 21  1  0
 21 22  1  0
 22 23  2  0
 23 24  1  0
 24 25  1  0
 25 26  1  0
 26 27  1  0
 27 28  1  0
 28 29  1  0
 29 30  1  0
 28 31  1  0
 31 32  1  0
 24 33  2  0
 33 34  1  0
 34 35  2  0
 35 36  1  0
 36 37  2  0
 37 38  1  0
 37 39  1  0
 39 40  2  0
 40 41  1  0
 23  4  1  0
 39 33  1  0
 20  5  1  0
 40 22  1  0
 17 11  1  0
  1 42  1  0
  1 43  1  0
  1 44  1  0
  2 45  1  0
  2 46  1  0
  6 47  1  0
  9 48  1  0
  9 49  1  0
 10 50  1  0
 10 51  1  0
 12 52  1  0
 12 53  1  0
 12 54  1  0
 13 55  1  0
 13 56  1  0
 14 57  1  0
 14 58  1  0
 15 59  1  0
 15 60  1  0
 16 61  1  0
 16 62  1  0
 17 63  1  0
 17 64  1  0
 18 65  1  0
 19 66  1  0
 21 67  1  0
 25 68  1  0
 26 69  1  0
 26 70  1  0
 27 71  1  0
 27 72  1  0
 29 73  1  0
 29 74  1  0
 30 75  1  0
 30 76  1  0
 30 77  1  0
 31 78  1  0
 31 79  1  0
 32 80  1  0
 32 81  1  0
 32 82  1  0
 34 83  1  0
 35 84  1  0
 36 85  1  0
 38 86  1  0
 38 87  1  0
 38 88  1  0
 41 89  1  0
 41 90  1  0
 41 91  1  0
M  CHG  2  11   1  40   1
M  END
>  <smiles>  (7) 
CCN=c1c2cc(OCC[N+]3(C)CCCCC3)ccc2[nH]c2c1c(NCCN(CC)CC)c1cccc(C)c1[n+]2C

>  <score_type>  (7) 
oracle

>  <origin>  (7) 
adg

>  <m_score__min__energy>  (7) 
-5.8099999999999996

>  <m_primary>  (7) 
energy

$$$$
7:0
     RDKit          3D

 44 47  0  0  0  0  0  0  0  0999 V2000
   56.2580   29.7040   42.5850 C   0  0  0  0  0  0  0  0  0  0  0  0
   55.2710   29.7240   43.7190 C   0  0  0  0  0  0  0  0  0  0  0  0
   55.8060   29.2030   44.8960 O   0  0  0  0  0  0  0  0  0  0  0  0
   57.1070   28.7410   44.7030 C   0  0  0  0  0  0  0  0  0  0  0  0
   58.0610   29.2620   45.6780 C   0  0  0  0  0  0  0  0  0  0  0  0
   58.3270   30.6490   45.7250 C   0  0  0  0  0  0  0  0  0  0  0  0
   59.2170   31.1700   46.6390 C   0  0  0  0  0  0  0  0  0  0  0  0
   59.8840   30.3830   47.5390 N   0  0  0  0  0  0  0  0  0  0  0  0
   60.7970   31.0050   48.4390 C   0  0  0  0  0  0  0  0  0  0  0  0
   59.6380   29.0580   47.5030 C   0  0  0  0  0  0  0  0  0  0  0  0
   60.2650   28.2140   48.3810 C   0  0  0  0  0  0  0  0  0  0  0  0
   60.0410   26.8310   48.3920 C   0  0  0  0  0  0  0  0  0  0  0  0
   59.1630   26.2670   47.5000 C   0  0  0  0  0  0  0  0  0  0  0  0
   58.5170   27.1150   46.6010 C   0  0  0  0  0  0  0  0  0  0  0  0
   58.7480   28.4860   46.6000 C   0  0  0  0  0  0  0  0  0  0  0  0
   59.4060   32.6150   46.6590 C   0  0  0  0  0  0  0  0  0  0  0  0
   60.2540   33.2440   47.4890 N   0  0  0  0  0  0  0  0  0  0  0  0
   60.4760   34.5480   47.5450 C   0  0  0  0  0  0  0  0  0  0  0  0
   59.7940   35.3770   46.6860 C   0  0  0  0  0  0  0  0  0  0  0  0
   58.9050   34.7980   45.8050 C   0  0  0  0  0  0  0  0  0  0  0  0
   58.7040   33.4180   45.7850 C   0  0  0  0  0  0  0  0  0  0  0  0
   57.7110   32.9140   44.8140 C   0  0  0  0  0  0  0  0  0  0  0  0
   57.6060   31.4470   44.7080 C   0  0  0  0  0  0  0  0  0  0  0  0
   57.2808   29.6833   42.9894 H   0  0  0  0  0  0  0  0  0  0  0  0
   56.0895   28.8091   41.9680 H   0  0  0  0  0  0  0  0  0  0  0  0
   56.1259   30.6050   41.9680 H   0  0  0  0  0  0  0  0  0  0  0  0
   54.9624   30.7640   43.9009 H   0  0  0  0  0  0  0  0  0  0  0  0
   54.4155   29.0952   43.4313 H   0  0  0  0  0  0  0  0  0  0  0  0
   57.1008   27.6433   44.7743 H   0  0  0  0  0  0  0  0  0  0  0  0
   57.4317   29.0931   43.7127 H   0  0  0  0  0  0  0  0  0  0  0  0
   60.4906   30.7963   49.4746 H   0  0  0  0  0  0  0  0  0  0  0  0
   61.8083   30.6072   48.2686 H   0  0  0  0  0  0  0  0  0  0  0  0
   60.7969   32.0917   48.2686 H   0  0  0  0  0  0  0  0  0  0  0  0
   60.9733   28.6395   49.1071 H   0  0  0  0  0  0  0  0  0  0  0  0
   60.5701   26.1954   49.1173 H   0  0  0  0  0  0  0  0  0  0  0  0
   58.9755   25.1831   47.4946 H   0  0  0  0  0  0  0  0  0  0  0  0
   57.8081   26.6892   45.8757 H   0  0  0  0  0  0  0  0  0  0  0  0
   61.1949   34.9617   48.2675 H   0  0  0  0  0  0  0  0  0  0  0  0
   59.9521   36.4655   46.7010 H   0  0  0  0  0  0  0  0  0  0  0  0
   58.3445   35.4358   45.1057 H   0  0  0  0  0  0  0  0  0  0  0  0
   56.7246   33.3029   45.1070 H   0  0  0  0  0  0  0  0  0  0  0  0
   58.0534   33.2615   43.8281 H   0  0  0  0  0  0  0  0  0  0  0  0
   56.5398   31.1845   44.7741 H   0  0  0  0  0  0  0  0  0  0  0  0
   58.0860   31.1934   43.7513 H   0  0  0  0  0  0  0  0  0  0  0  0
  1  2  1  0
  2  3  1  0
  3  4  1  0
  4  5  1  0
  5  6  2  0
  6  7  1  0
  7  8  2  0
  8  9  1  0
  8 10  1  0
 10 11  2  0
 11 12  1  0
 12 13  2  0
 13 14  1  0
 14 15  2  0
  7 16  1  0
 16 17  2  0
 17 18  1  0
 18 19  2  0
 19 20  1  0
 20 21  2  0
 21 22  1  0
 22 23  1  0
 15  5  1  0
 21 16  1  0
 23  6  1  0
 15 10  1  0
  1 24  1  0
  1 25  1  0
  1 26  1  0
  2 27  1  0
  2 28  1  0
  4 29  1  0
  4 30  1  0
  9 31  1  0
  9 32  1  0
  9 33  1  0
 11 34  1  0
 12 35  1  0
 13 36  1  0
 14 37  1  0
 18 38  1  0
 19 39  1  0
 20 40  1  0
 22 41  1  0
 22 42  1  0
 23 43  1  0
 23 44  1  0
M  CHG  1   8   1
M  END
>  <smiles>  (8) 
CCOCc1c2c([n+](C)c3ccccc13)-c1ncccc1CC2

>  <score_type>  (8) 
oracle

>  <origin>  (8) 
adg

>  <m_score__min__energy>  (8) 
-6.75

>  <m_primary>  (8) 
energy

$$$$
8:0
     RDKit          3D

 48 51  0  0  0  0  0  0  0  0999 V2000
   57.1840   32.3410   40.7500 C   0  0  0  0  0  0  0  0  0  0  0  0
   57.6670   31.9260   42.1310 C   0  0  0  0  0  0  0  0  0  0  0  0
   56.6860   31.0600   42.6660 O   0  0  0  0  0  0  0  0  0  0  0  0
   56.5430   30.7750   44.0190 C   0  0  0  0  0  0  0  0  0  0  0  0
   55.4750   30.2760   44.4650 O   0  0  0  0  0  0  0  0  0  0  0  0
   57.6790   31.0770   44.8880 C   0  0  0  0  0  0  0  0  0  0  0  0
   58.6150   30.0920   45.1520 C   0  0  0  0  0  0  0  0  0  0  0  0
   59.6850   30.3040   45.9440 N   0  0  0  0  0  0  0  0  0  0  0  0
   60.6690   29.2600   46.2180 C   0  0  0  0  0  0  0  0  0  0  0  0
   60.2690   28.1680   47.1890 C   0  0  0  0  0  0  0  0  0  0  0  0
   60.4140   27.8610   45.7270 C   0  0  0  0  0  0  0  0  0  0  0  0
   59.8900   31.5160   46.5270 C   0  0  0  0  0  0  0  0  0  0  0  0
   60.9800   31.7490   47.3400 C   0  0  0  0  0  0  0  0  0  0  0  0
   61.2080   32.9830   47.9470 C   0  0  0  0  0  0  0  0  0  0  0  0
   62.3360   33.1980   48.7770 N   0  0  0  0  0  0  0  0  0  0  0  0
   63.6340   32.7730   48.2770 C   0  0  0  0  0  0  0  0  0  0  0  0
   64.7030   32.7240   49.3190 C   0  0  0  0  0  0  0  0  0  0  0  0
   64.2040   32.7720   50.6790 N   0  0  0  0  0  0  0  0  0  0  0  0
   63.4830   34.0470   50.7770 C   0  0  0  0  0  0  0  0  0  0  0  0
   62.1620   33.8260   50.0720 C   0  0  0  0  0  0  0  0  0  0  0  0
   60.2640   33.9590   47.6740 C   0  0  0  0  0  0  0  0  0  0  0  0
   60.3880   35.1950   48.2120 F   0  0  0  0  0  0  0  0  0  0  0  0
   59.1700   33.7420   46.8630 C   0  0  0  0  0  0  0  0  0  0  0  0
   58.9670   32.5110   46.2760 C   0  0  0  0  0  0  0  0  0  0  0  0
   57.8650   32.3170   45.4690 C   0  0  0  0  0  0  0  0  0  0  0  0
   57.0210   33.2430   45.2450 O   0  0  0  0  0  0  0  0  0  0  0  0
   56.3532   33.0548   40.8513 H   0  0  0  0  0  0  0  0  0  0  0  0
   58.0100   32.8154   40.1999 H   0  0  0  0  0  0  0  0  0  0  0  0
   56.8394   31.4530   40.1999 H   0  0  0  0  0  0  0  0  0  0  0  0
   58.6315   31.4028   42.0530 H   0  0  0  0  0  0  0  0  0  0  0  0
   57.8121   32.8039   42.7777 H   0  0  0  0  0  0  0  0  0  0  0  0
   58.4806   29.0989   44.6985 H   0  0  0  0  0  0  0  0  0  0  0  0
   61.5059   29.9674   46.1220 H   0  0  0  0  0  0  0  0  0  0  0  0
   61.0023   27.7760   47.9091 H   0  0  0  0  0  0  0  0  0  0  0  0
   59.4706   28.0437   47.9354 H   0  0  0  0  0  0  0  0  0  0  0  0
   61.2527   27.2411   45.3773 H   0  0  0  0  0  0  0  0  0  0  0  0
   59.7625   27.4157   44.9607 H   0  0  0  0  0  0  0  0  0  0  0  0
   61.6949   30.9316   47.5156 H   0  0  0  0  0  0  0  0  0  0  0  0
   63.5255   31.7668   47.8459 H   0  0  0  0  0  0  0  0  0  0  0  0
   63.9486   33.5216   47.5350 H   0  0  0  0  0  0  0  0  0  0  0  0
   65.2682   31.7891   49.1908 H   0  0  0  0  0  0  0  0  0  0  0  0
   65.3265   33.6191   49.1773 H   0  0  0  0  0  0  0  0  0  0  0  0
   63.5370   31.9850   50.8580 H   0  0  0  0  0  0  0  0  0  0  0  0
   63.3153   34.3127   51.8312 H   0  0  0  0  0  0  0  0  0  0  0  0
   64.0525   34.8713   50.3229 H   0  0  0  0  0  0  0  0  0  0  0  0
   61.5291   33.1797   50.6979 H   0  0  0  0  0  0  0  0  0  0  0  0
   61.6932   34.8083   49.9130 H   0  0  0  0  0  0  0  0  0  0  0  0
   58.4538   34.5572   46.6830 H   0  0  0  0  0  0  0  0  0  0  0  0
  1  2  1  0
  2  3  1  0
  3  4  1  0
  4  5  2  0
  4  6  1  0
  6  7  2  0
  7  8  1  0
  8  9  1  0
  9 10  1  0
 10 11  1  0
  8 12  1  0
 12 13  2  0
 13 14  1  0
 14 15  1  0
 15 16  1  0
 16 17  1  0
 17 18  1  0
 18 19  1  0
 19 20  1  0
 14 21  2  0
 21 22  1  0
 21 23  1  0
 23 24  2  0
 24 25  1  0
 25 26  2  0
 25  6  1  0
 11  9  1  0
 24 12  1  0
 20 15  1  0
  1 27  1  0
  1 28  1  0
  1 29  1  0
  2 30  1  0
  2 31  1  0
  7 32  1  0
  9 33  1  0
 10 34  1  0
 10 35  1  0
 11 36  1  0
 11 37  1  0
 13 38  1  0
 16 39  1  0
 16 40  1  0
 17 41  1  0
 17 42  1  0
 18 43  1  0
 19 44  1  0
 19 45  1  0
 20 46  1  0
 20 47  1  0
 23 48  1  0
M  END
>  <smiles>  (9) 
CCOC(=O)c1cn(C2CC2)c2cc(N3CCNCC3)c(F)cc2c1=O

>  <score_type>  (9) 
oracle

>  <origin>  (9) 
adg

>  <m_score__min__energy>  (9) 
-7.5700000000000003

>  <m_primary>  (9) 
energy

$$$$
9:0
     RDKit          3D

 40 41  0  0  0  0  0  0  0  0999 V2000
   56.6480   28.3240   45.1970 C   0  0  0  0  0  0  0  0  0  0  0  0
   55.5550   29.2010   45.2190 O   0  0  0  0  0  0  0  0  0  0  0  0
   55.5880   30.0600   44.1200 C   0  0  0  0  0  0  0  0  0  0  0  0
   56.9930   30.6060   44.0510 C   0  0  0  0  0  0  0  0  0  0  0  0
   57.4140   31.3370   45.1990 N   0  0  0  0  0  0  0  0  0  0  0  0
   58.8220   31.2500   45.4030 C   0  0  0  0  0  0  0  0  0  0  0  0
   59.3240   29.9480   45.8550 C   0  0  0  0  0  0  0  0  0  0  0  0
   59.9820   29.0370   45.0580 C   0  0  0  0  0  0  0  0  0  0  0  0
   60.4050   27.8390   45.6210 C   0  0  0  0  0  0  0  0  0  0  0  0
   60.1690   27.5640   46.9670 C   0  0  0  0  0  0  0  0  0  0  0  0
   59.5250   28.4670   47.7280 N   0  0  0  0  0  0  0  0  0  0  0  0
   59.1170   29.6140   47.1950 C   0  0  0  0  0  0  0  0  0  0  0  0
   56.9810   32.6910   45.2540 C   0  0  0  0  0  0  0  0  0  0  0  0
   58.0740   33.6170   45.6980 C   0  0  0  0  0  0  0  0  0  0  0  0
   58.7490   34.5720   44.9690 C   0  0  0  0  0  0  0  0  0  0  0  0
   59.6750   35.1750   45.8230 C   0  0  0  0  0  0  0  0  0  0  0  0
   59.5330   34.5580   47.0690 C   0  0  0  0  0  0  0  0  0  0  0  0
   58.5660   33.6250   46.9710 N   0  0  0  0  0  0  0  0  0  0  0  0
   58.1190   32.7580   48.0660 C   0  0  0  0  0  0  0  0  0  0  0  0
   56.9466   28.0844   46.2282 H   0  0  0  0  0  0  0  0  0  0  0  0
   56.3655   27.3991   44.6728 H   0  0  0  0  0  0  0  0  0  0  0  0
   57.4897   28.8002   44.6728 H   0  0  0  0  0  0  0  0  0  0  0  0
   55.3478   29.5091   43.1987 H   0  0  0  0  0  0  0  0  0  0  0  0
   54.8495   30.8687   44.2225 H   0  0  0  0  0  0  0  0  0  0  0  0
   57.6815   29.7590   43.9149 H   0  0  0  0  0  0  0  0  0  0  0  0
   57.0041   31.3184   43.2129 H   0  0  0  0  0  0  0  0  0  0  0  0
   59.3162   31.4895   44.4499 H   0  0  0  0  0  0  0  0  0  0  0  0
   59.0495   31.9555   46.2157 H   0  0  0  0  0  0  0  0  0  0  0  0
   60.1690   29.2539   43.9959 H   0  0  0  0  0  0  0  0  0  0  0  0
   60.9312   27.1005   44.9984 H   0  0  0  0  0  0  0  0  0  0  0  0
   60.5077   26.6133   47.4046 H   0  0  0  0  0  0  0  0  0  0  0  0
   58.5916   30.3340   47.8396 H   0  0  0  0  0  0  0  0  0  0  0  0
   56.6432   32.9960   44.2526 H   0  0  0  0  0  0  0  0  0  0  0  0
   56.1645   32.7552   45.9883 H   0  0  0  0  0  0  0  0  0  0  0  0
   58.5879   34.8149   43.9083 H   0  0  0  0  0  0  0  0  0  0  0  0
   60.3795   35.9795   45.5650 H   0  0  0  0  0  0  0  0  0  0  0  0
   60.1115   34.7937   47.9744 H   0  0  0  0  0  0  0  0  0  0  0  0
   58.3621   33.2295   49.0296 H   0  0  0  0  0  0  0  0  0  0  0  0
   57.0315   32.6086   47.9949 H   0  0  0  0  0  0  0  0  0  0  0  0
   58.6281   31.7855   47.9949 H   0  0  0  0  0  0  0  0  0  0  0  0
  1  2  1  0
  2  3  1  0
  3  4  1  0
  4  5  1  0
  5  6  1  0
  6  7  1  0
  7  8  2  0
  8  9  1  0
  9 10  2  0
 10 11  1  0
 11 12  2  0
  5 13  1  0
 13 14  1  0
 14 15  2  0
 15 16  1  0
 16 17  2  0
 17 18  1  0
 18 19  1  0
 12  7  1  0
 18 14  1  0
  1 20  1  0
  1 21  1  0
  1 22  1  0
  3 23  1  0
  3 24  1  0
  4 25  1  0
  4 26  1  0
  6 27  1  0
  6 28  1  0
  8 29  1  0
  9 30  1  0
 10 31  1  0
 12 32  1  0
 13 33  1  0
 13 34  1  0
 15 35  1  0
 16 36  1  0
 17 37  1  0
 19 38  1  0
 19 39  1  0
 19 40  1  0
M  END
>  <smiles>  (10) 
COCCN(Cc1cccnc1)Cc1cccn1C

>  <score_type>  (10) 
oracle

>  <origin>  (10) 
adg

>  <m_score__min__energy>  (10) 
-6.1900000000000004

>  <m_primary>  (10) 
energy

$$$$
10:0
     RDKit          3D

 54 57  0  0  0  0  0  0  0  0999 V2000
   56.6270   29.4380   42.9980 C   0  0  0  0  0  0  0  0  0  0  0  0
   56.2170   30.4790   43.8620 O   0  0  0  0  0  0  0  0  0  0  0  0
   57.1890   31.0280   44.6950 C   0  0  0  0  0  0  0  0  0  0  0  0
   57.0520   32.3150   45.1980 C   0  0  0  0  0  0  0  0  0  0  0  0
   58.0250   32.8670   46.0340 C   0  0  0  0  0  0  0  0  0  0  0  0
   59.1480   32.1280   46.3730 C   0  0  0  0  0  0  0  0  0  0  0  0
   60.0560   32.7000   47.1790 N   0  0  0  0  0  0  0  0  0  0  0  0
   61.1510   31.9980   47.5190 C   0  0  0  0  0  0  0  0  0  0  0  0
   62.1280   32.6400   48.3970 C   0  0  0  0  0  0  0  0  0  0  0  0
   61.7850   33.5920   49.3360 C   0  0  0  0  0  0  0  0  0  0  0  0
   62.7370   34.1900   50.1660 C   0  0  0  0  0  0  0  0  0  0  0  0
   64.0610   33.8240   50.0490 C   0  0  0  0  0  0  0  0  0  0  0  0
   64.4360   32.8760   49.1200 C   0  0  0  0  0  0  0  0  0  0  0  0
   63.4690   32.3100   48.3210 C   0  0  0  0  0  0  0  0  0  0  0  0
   61.3430   30.7160   47.0520 C   0  0  0  0  0  0  0  0  0  0  0  0
   60.3960   30.1430   46.2220 C   0  0  0  0  0  0  0  0  0  0  0  0
   60.5180   28.7940   45.6840 C   0  0  0  0  0  0  0  0  0  0  0  0
   61.0450   28.6750   44.5480 O   0  0  0  0  0  0  0  0  0  0  0  0
   60.0490   27.6890   46.4460 N   0  0  0  0  0  0  0  0  0  0  0  0
   59.4400   27.8360   47.7590 C   0  0  0  0  0  0  0  0  0  0  0  0
   58.0240   27.3320   47.5830 C   0  0  0  0  0  0  0  0  0  0  0  0
   58.0200   25.9880   47.1250 N   0  0  0  0  0  0  0  0  0  0  0  0
   56.7400   25.3670   47.0780 C   0  0  0  0  0  0  0  0  0  0  0  0
   56.0850   25.6590   45.7450 C   0  0  0  0  0  0  0  0  0  0  0  0
   55.1420   26.6840   46.0020 O   0  0  0  0  0  0  0  0  0  0  0  0
   58.8480   25.6560   46.0270 C   0  0  0  0  0  0  0  0  0  0  0  0
   60.1670   26.3380   45.9340 C   0  0  0  0  0  0  0  0  0  0  0  0
   59.2650   30.8530   45.8650 C   0  0  0  0  0  0  0  0  0  0  0  0
   58.3220   30.3050   45.0480 C   0  0  0  0  0  0  0  0  0  0  0  0
   56.9656   28.5782   43.5947 H   0  0  0  0  0  0  0  0  0  0  0  0
   55.7815   29.1337   42.3635 H   0  0  0  0  0  0  0  0  0  0  0  0
   57.4529   29.7920   42.3635 H   0  0  0  0  0  0  0  0  0  0  0  0
   56.1641   32.9084   44.9341 H   0  0  0  0  0  0  0  0  0  0  0  0
   57.9004   33.8881   46.4235 H   0  0  0  0  0  0  0  0  0  0  0  0
   60.7303   33.8889   49.4338 H   0  0  0  0  0  0  0  0  0  0  0  0
   62.4329   34.9454   50.9055 H   0  0  0  0  0  0  0  0  0  0  0  0
   64.8189   34.2884   50.6970 H   0  0  0  0  0  0  0  0  0  0  0  0
   65.4899   32.5775   49.0195 H   0  0  0  0  0  0  0  0  0  0  0  0
   63.7789   31.5554   47.5831 H   0  0  0  0  0  0  0  0  0  0  0  0
   62.2432   30.1519   47.3372 H   0  0  0  0  0  0  0  0  0  0  0  0
   59.9768   27.2324   48.5056 H   0  0  0  0  0  0  0  0  0  0  0  0
   59.4707   28.8751   48.1186 H   0  0  0  0  0  0  0  0  0  0  0  0
   57.4996   27.3855   48.5485 H   0  0  0  0  0  0  0  0  0  0  0  0
   57.5166   27.9603   46.8362 H   0  0  0  0  0  0  0  0  0  0  0  0
   56.8555   24.2798   47.1993 H   0  0  0  0  0  0  0  0  0  0  0  0
   56.1112   25.7622   47.8894 H   0  0  0  0  0  0  0  0  0  0  0  0
   56.8341   26.0002   45.0153 H   0  0  0  0  0  0  0  0  0  0  0  0
   55.6080   24.7634   45.3203 H   0  0  0  0  0  0  0  0  0  0  0  0
   55.3050   26.9540   46.9450 H   0  0  0  0  0  0  0  0  0  0  0  0
   59.0386   24.5736   46.0727 H   0  0  0  0  0  0  0  0  0  0  0  0
   58.2916   25.9971   45.1415 H   0  0  0  0  0  0  0  0  0  0  0  0
   60.9089   25.7842   46.5280 H   0  0  0  0  0  0  0  0  0  0  0  0
   60.4897   26.3709   44.8829 H   0  0  0  0  0  0  0  0  0  0  0  0
   58.4587   29.2829   44.6652 H   0  0  0  0  0  0  0  0  0  0  0  0
  1  2  1  0
  2  3  1  0
  3  4  2  0
  4  5  1  0
  5  6  2  0
  6  7  1  0
  7  8  2  0
  8  9  1  0
  9 10  2  0
 10 11  1  0
 11 12  2  0
 12 13  1  0
 13 14  2  0
  8 15  1  0
 15 16  2  0
 16 17  1  0
 17 18  2  0
 17 19  1  0
 19 20  1  0
 20 21  1  0
 21 22  1  0
 22 23  1  0
 23 24  1  0
 24 25  1  0
 22 26  1  0
 26 27  1  0
 16 28  1  0
 28 29  2  0
 29  3  1  0
 28  6  1  0
 14  9  1  0
 27 19  1  0
  1 30  1  0
  1 31  1  0
  1 32  1  0
  4 33  1  0
  5 34  1  0
 10 35  1  0
 11 36  1  0
 12 37  1  0
 13 38  1  0
 14 39  1  0
 15 40  1  0
 20 41  1  0
 20 42  1  0
 21 43  1  0
 21 44  1  0
 23 45  1  0
 23 46  1  0
 24 47  1  0
 24 48  1  0
 25 49  1  0
 26 50  1  0
 26 51  1  0
 27 52  1  0
 27 53  1  0
 29 54  1  0
M  END
>  <smiles>  (11) 
COc1ccc2nc(-c3ccccc3)cc(C(=O)N3CCN(CCO)CC3)c2c1

>  <score_type>  (11) 
oracle

>  <origin>  (11) 
adg

>  <m_score__min__energy>  (11) 
-9.1199999999999992

>  <m_primary>  (11) 
energy

$$$$
11:0
     RDKit          3D

 45 45  0  0  0  0  0  0  0  0999 V2000
   60.1020   34.2350   49.1450 C   0  0  0  0  0  0  0  0  0  0  0  0
   59.6700   32.7740   49.0030 C   0  0  0  0  0  0  0  0  0  0  0  0
   58.3280   32.6880   48.3270 C   0  0  0  0  0  0  0  0  0  0  0  0
   58.4260   32.2290   46.9550 N   0  0  0  0  0  0  0  0  0  0  0  0
   58.1770   33.1600   45.9060 C   0  0  0  0  0  0  0  0  0  0  0  0
   59.4080   33.8060   45.3170 C   0  0  0  0  0  0  0  0  0  0  0  0
   59.6480   35.1820   45.9510 C   0  0  0  0  0  0  0  0  0  0  0  0
   58.7690   30.8570   46.7650 C   0  0  0  0  0  0  0  0  0  0  0  0
   58.9530   30.1770   47.8040 O   0  0  0  0  0  0  0  0  0  0  0  0
   58.8880   30.3200   45.3880 C   0  0  0  0  0  0  0  0  0  0  0  0
   57.7990   29.4200   45.0910 N   0  0  0  0  0  0  0  0  0  0  0  0
   57.8180   28.0290   45.3750 C   0  0  0  0  0  0  0  0  0  0  0  0
   57.7930   27.1760   44.2790 C   0  0  0  0  0  0  0  0  0  0  0  0
   57.8080   25.8240   44.4740 C   0  0  0  0  0  0  0  0  0  0  0  0
   57.8480   25.2950   45.7330 C   0  0  0  0  0  0  0  0  0  0  0  0
   57.8740   26.1160   46.8500 C   0  0  0  0  0  0  0  0  0  0  0  0
   57.8580   27.4890   46.6300 C   0  0  0  0  0  0  0  0  0  0  0  0
   56.3600   30.0460   44.3550 S   0  0  0  0  0  0  0  0  0  0  0  0
   56.3420   29.7120   42.6000 C   0  0  0  0  0  0  0  0  0  0  0  0
   56.2540   31.5200   44.5500 O   0  0  0  0  0  0  0  0  0  0  0  0
   55.1500   29.3460   44.9150 O   0  0  0  0  0  0  0  0  0  0  0  0
   60.1782   34.4928   50.2116 H   0  0  0  0  0  0  0  0  0  0  0  0
   61.0804   34.3766   48.6627 H   0  0  0  0  0  0  0  0  0  0  0  0
   59.3579   34.8859   48.6627 H   0  0  0  0  0  0  0  0  0  0  0  0
   60.4146   32.2326   48.4010 H   0  0  0  0  0  0  0  0  0  0  0  0
   59.5951   32.3247   50.0043 H   0  0  0  0  0  0  0  0  0  0  0  0
   57.6940   31.9866   48.8893 H   0  0  0  0  0  0  0  0  0  0  0  0
   57.8962   33.6996   48.3111 H   0  0  0  0  0  0  0  0  0  0  0  0
   57.6506   32.6304   45.0983 H   0  0  0  0  0  0  0  0  0  0  0  0
   57.5879   33.9744   46.3528 H   0  0  0  0  0  0  0  0  0  0  0  0
   60.2801   33.1630   45.5065 H   0  0  0  0  0  0  0  0  0  0  0  0
   59.2594   33.9340   44.2346 H   0  0  0  0  0  0  0  0  0  0  0  0
   59.6317   35.0886   47.0469 H   0  0  0  0  0  0  0  0  0  0  0  0
   60.6270   35.5677   45.6304 H   0  0  0  0  0  0  0  0  0  0  0  0
   58.8574   35.8764   45.6304 H   0  0  0  0  0  0  0  0  0  0  0  0
   58.8703   31.1555   44.6727 H   0  0  0  0  0  0  0  0  0  0  0  0
   59.8346   29.7656   45.3072 H   0  0  0  0  0  0  0  0  0  0  0  0
   57.7613   27.5871   43.2592 H   0  0  0  0  0  0  0  0  0  0  0  0
   57.7876   25.1510   43.6041 H   0  0  0  0  0  0  0  0  0  0  0  0
   57.8597   24.2027   45.8623 H   0  0  0  0  0  0  0  0  0  0  0  0
   57.9059   25.6989   47.8673 H   0  0  0  0  0  0  0  0  0  0  0  0
   57.8783   28.1651   47.4975 H   0  0  0  0  0  0  0  0  0  0  0  0
   56.2835   28.6262   42.4340 H   0  0  0  0  0  0  0  0  0  0  0  0
   55.4689   30.2004   42.1427 H   0  0  0  0  0  0  0  0  0  0  0  0
   57.2626   30.1038   42.1427 H   0  0  0  0  0  0  0  0  0  0  0  0
  1  2  1  0
  2  3  1  0
  3  4  1  0
  4  5  1  0
  5  6  1  0
  6  7  1  0
  4  8  1  0
  8  9  2  0
  8 10  1  0
 10 11  1  0
 11 12  1  0
 12 13  2  0
 13 14  1  0
 14 15  2  0
 15 16  1  0
 16 17  2  0
 11 18  1  0
 18 19  1  0
 18 20  2  0
 18 21  2  0
 17 12  1  0
  1 22  1  0
  1 23  1  0
  1 24  1  0
  2 25  1  0
  2 26  1  0
  3 27  1  0
  3 28  1  0
  5 29  1  0
  5 30  1  0
  6 31  1  0
  6 32  1  0
  7 33  1  0
  7 34  1  0
  7 35  1  0
 10 36  1  0
 10 37  1  0
 13 38  1  0
 14 39  1  0
 15 40  1  0
 16 41  1  0
 17 42  1  0
 19 43  1  0
 19 44  1  0
 19 45  1  0
M  END
>  <smiles>  (12) 
CCCN(CCC)C(=O)CN(c1ccccc1)S(C)(=O)=O

>  <score_type>  (12) 
oracle

>  <origin>  (12) 
adg

>  <m_score__min__energy>  (12) 
-6.8700000000000001

>  <m_primary>  (12) 
energy

$$$$
12:0
     RDKit          3D

 55 57  0  0  0  0  0  0  0  0999 V2000
   60.4150   33.8980   49.4740 C   0  0  0  0  0  0  0  0  0  0  0  0
   59.6740   33.8510   48.1840 C   0  0  0  0  0  0  0  0  0  0  0  0
   60.4730   33.8800   46.9930 N   0  0  0  0  0  0  0  0  0  0  0  0
   59.9180   34.6090   45.9320 C   0  0  0  0  0  0  0  0  0  0  0  0
   58.5270   34.2430   45.5070 C   0  0  0  0  0  0  0  0  0  0  0  0
   61.8180   34.2060   47.3620 C   0  0  0  0  0  0  0  0  0  0  0  0
   62.8870   33.8140   46.4020 C   0  0  0  0  0  0  0  0  0  0  0  0
   63.6290   32.6900   46.9630 N   0  0  0  0  0  0  0  0  0  0  0  0
   63.2180   32.0410   48.1610 C   0  0  0  0  0  0  0  0  0  0  0  0
   63.8600   32.2180   49.3680 C   0  0  0  0  0  0  0  0  0  0  0  0
   64.9390   33.0880   49.3710 C   0  0  0  0  0  0  0  0  0  0  0  0
   65.6300   33.3230   50.5490 C   0  0  0  0  0  0  0  0  0  0  0  0
   65.2150   32.6740   51.6940 C   0  0  0  0  0  0  0  0  0  0  0  0
   64.1270   31.8050   51.6610 C   0  0  0  0  0  0  0  0  0  0  0  0
   63.4280   31.5570   50.5000 C   0  0  0  0  0  0  0  0  0  0  0  0
   62.3710   30.7120   50.5010 N   0  0  0  0  0  0  0  0  0  0  0  0
   61.9270   30.0080   51.6850 C   0  0  0  0  0  0  0  0  0  0  0  0
   61.7380   30.5360   49.3260 C   0  0  0  0  0  0  0  0  0  0  0  0
   60.6370   29.7000   49.1910 C   0  0  0  0  0  0  0  0  0  0  0  0
   59.9850   29.5190   47.9870 C   0  0  0  0  0  0  0  0  0  0  0  0
   60.4010   30.1680   46.8440 C   0  0  0  0  0  0  0  0  0  0  0  0
   59.6710   29.9330   45.5870 C   0  0  0  0  0  0  0  0  0  0  0  0
   58.4650   30.8500   45.4950 C   0  0  0  0  0  0  0  0  0  0  0  0
   57.1880   30.1250   44.4930 Cl  0  0  0  0  0  0  0  0  0  0  0  0
   61.4900   31.0020   46.9590 C   0  0  0  0  0  0  0  0  0  0  0  0
   62.1370   31.1800   48.1590 C   0  0  0  0  0  0  0  0  0  0  0  0
   59.7005   33.8527   50.3091 H   0  0  0  0  0  0  0  0  0  0  0  0
   61.1029   33.0417   49.5331 H   0  0  0  0  0  0  0  0  0  0  0  0
   60.9892   34.8344   49.5331 H   0  0  0  0  0  0  0  0  0  0  0  0
   59.0838   32.9228   48.1696 H   0  0  0  0  0  0  0  0  0  0  0  0
   59.0718   34.7711   48.1568 H   0  0  0  0  0  0  0  0  0  0  0  0
   59.9064   35.6684   46.2278 H   0  0  0  0  0  0  0  0  0  0  0  0
   60.5520   34.3762   45.0637 H   0  0  0  0  0  0  0  0  0  0  0  0
   57.9027   34.0787   46.3977 H   0  0  0  0  0  0  0  0  0  0  0  0
   58.1005   35.0595   44.9058 H   0  0  0  0  0  0  0  0  0  0  0  0
   58.5576   33.3223   44.9058 H   0  0  0  0  0  0  0  0  0  0  0  0
   61.8725   35.2966   47.4949 H   0  0  0  0  0  0  0  0  0  0  0  0
   62.0182   33.6225   48.2727 H   0  0  0  0  0  0  0  0  0  0  0  0
   62.4342   33.5178   45.4443 H   0  0  0  0  0  0  0  0  0  0  0  0
   63.5654   34.6624   46.2289 H   0  0  0  0  0  0  0  0  0  0  0  0
   64.5050   32.3220   46.4860 H   0  0  0  0  0  0  0  0  0  0  0  0
   65.2457   33.5901   48.4416 H   0  0  0  0  0  0  0  0  0  0  0  0
   66.4886   34.0103   50.5709 H   0  0  0  0  0  0  0  0  0  0  0  0
   65.7481   32.8445   52.6410 H   0  0  0  0  0  0  0  0  0  0  0  0
   63.8169   31.3021   52.5889 H   0  0  0  0  0  0  0  0  0  0  0  0
   62.2671   30.5473   52.5814 H   0  0  0  0  0  0  0  0  0  0  0  0
   60.8285   29.9499   51.6868 H   0  0  0  0  0  0  0  0  0  0  0  0
   62.3479   28.9917   51.6868 H   0  0  0  0  0  0  0  0  0  0  0  0
   60.2702   29.1613   50.0772 H   0  0  0  0  0  0  0  0  0  0  0  0
   59.1175   28.8443   47.9391 H   0  0  0  0  0  0  0  0  0  0  0  0
   60.3409   30.1292   44.7369 H   0  0  0  0  0  0  0  0  0  0  0  0
   59.3270   28.8884   45.5646 H   0  0  0  0  0  0  0  0  0  0  0  0
   58.0709   31.0284   46.5063 H   0  0  0  0  0  0  0  0  0  0  0  0
   58.7792   31.7966   45.0312 H   0  0  0  0  0  0  0  0  0  0  0  0
   61.8513   31.5389   46.0695 H   0  0  0  0  0  0  0  0  0  0  0  0
  1  2  1  0
  2  3  1  0
  3  4  1  0
  4  5  1  0
  3  6  1  0
  6  7  1  0
  7  8  1  0
  8  9  1  0
  9 10  2  0
 10 11  1  0
 11 12  2  0
 12 13  1  0
 13 14  2  0
 14 15  1  0
 15 16  2  0
 16 17  1  0
 16 18  1  0
 18 19  2  0
 19 20  1  0
 20 21  2  0
 21 22  1  0
 22 23  1  0
 23 24  1  0
 21 25  1  0
 25 26  2  0
 26  9  1  0
 15 10  1  0
 26 18  1  0
  1 27  1  0
  1 28  1  0
  1 29  1  0
  2 30  1  0
  2 31  1  0
  4 32  1  0
  4 33  1  0
  5 34  1  0
  5 35  1  0
  5 36  1  0
  6 37  1  0
  6 38  1  0
  7 39  1  0
  7 40  1  0
  8 41  1  0
 11 42  1  0
 12 43  1  0
 13 44  1  0
 14 45  1  0
 17 46  1  0
 17 47  1  0
 17 48  1  0
 19 49  1  0
 20 50  1  0
 22 51  1  0
 22 52  1  0
 23 53  1  0
 23 54  1  0
 25 55  1  0
M  CHG  1  16   1
M  END
>  <smiles>  (13) 
CCN(CC)CCNc1c2ccccc2[n+](C)c2ccc(CCCl)cc12

>  <score_type>  (13) 
oracle

>  <origin>  (13) 
adg

>  <m_score__min__energy>  (13) 
-6.0499999999999998

>  <m_primary>  (13) 
energy

$$$$
13:0
     RDKit          3D

 46 47  0  0  0  0  0  0  0  0999 V2000
   59.8490   29.5650   45.9370 C   0  0  0  0  0  0  0  0  0  0  0  0
   59.9940   28.5880   44.7700 C   0  0  0  0  0  0  0  0  0  0  0  0
   58.7480   28.5430   44.0420 N   0  0  0  0  0  0  0  0  0  0  0  0
   57.6330   28.1440   44.8250 C   0  0  0  0  0  0  0  0  0  0  0  0
   56.4680   29.0530   44.8740 C   0  0  0  0  0  0  0  0  0  0  0  0
   56.5450   30.3680   44.8570 O   0  0  0  0  0  0  0  0  0  0  0  0
   56.9690   31.1100   43.8530 C   0  0  0  0  0  0  0  0  0  0  0  0
   58.1900   31.9320   44.0420 C   0  0  0  0  0  0  0  0  0  0  0  0
   57.7880   33.4070   44.1220 C   0  0  0  0  0  0  0  0  0  0  0  0
   57.1860   33.7830   45.4260 C   0  0  0  0  0  0  0  0  0  0  0  0
   58.0230   34.4800   46.2900 O   0  0  0  0  0  0  0  0  0  0  0  0
   59.1630   33.8200   46.7930 C   0  0  0  0  0  0  0  0  0  0  0  0
   58.9520   32.7400   47.6460 C   0  0  0  0  0  0  0  0  0  0  0  0
   59.9960   32.0210   48.1960 C   0  0  0  0  0  0  0  0  0  0  0  0
   61.2740   32.4230   47.8570 C   0  0  0  0  0  0  0  0  0  0  0  0
   62.3080   31.6820   48.4160 C   0  0  0  0  0  0  0  0  0  0  0  0
   63.5910   32.0580   48.0900 C   0  0  0  0  0  0  0  0  0  0  0  0
   63.8760   33.1170   47.2520 C   0  0  0  0  0  0  0  0  0  0  0  0
   62.8070   33.8160   46.7270 C   0  0  0  0  0  0  0  0  0  0  0  0
   61.5040   33.4950   47.0100 C   0  0  0  0  0  0  0  0  0  0  0  0
   60.4400   34.2160   46.4590 C   0  0  0  0  0  0  0  0  0  0  0  0
   59.9304   29.0163   46.8869 H   0  0  0  0  0  0  0  0  0  0  0  0
   60.6445   30.3227   45.8819 H   0  0  0  0  0  0  0  0  0  0  0  0
   58.8677   30.0590   45.8819 H   0  0  0  0  0  0  0  0  0  0  0  0
   60.8000   28.9268   44.1024 H   0  0  0  0  0  0  0  0  0  0  0  0
   60.2404   27.5858   45.1506 H   0  0  0  0  0  0  0  0  0  0  0  0
   58.6050   29.2960   43.3830 H   0  0  0  0  0  0  0  0  0  0  0  0
   57.2813   27.1800   44.4288 H   0  0  0  0  0  0  0  0  0  0  0  0
   58.0118   28.1211   45.8575 H   0  0  0  0  0  0  0  0  0  0  0  0
   55.8455   28.7823   44.0084 H   0  0  0  0  0  0  0  0  0  0  0  0
   56.1212   28.8832   45.9040 H   0  0  0  0  0  0  0  0  0  0  0  0
   57.1621   30.4324   43.0082 H   0  0  0  0  0  0  0  0  0  0  0  0
   56.1677   31.8499   43.7099 H   0  0  0  0  0  0  0  0  0  0  0  0
   58.6939   31.6357   44.9738 H   0  0  0  0  0  0  0  0  0  0  0  0
   58.8769   31.7785   43.1966 H   0  0  0  0  0  0  0  0  0  0  0  0
   58.6855   34.0224   43.9617 H   0  0  0  0  0  0  0  0  0  0  0  0
   57.0238   33.5782   43.3495 H   0  0  0  0  0  0  0  0  0  0  0  0
   56.3061   34.4118   45.2249 H   0  0  0  0  0  0  0  0  0  0  0  0
   56.9464   32.8369   45.9334 H   0  0  0  0  0  0  0  0  0  0  0  0
   57.9196   32.4494   47.8903 H   0  0  0  0  0  0  0  0  0  0  0  0
   59.8185   31.1704   48.8705 H   0  0  0  0  0  0  0  0  0  0  0  0
   62.1101   30.8340   49.0881 H   0  0  0  0  0  0  0  0  0  0  0  0
   64.4289   31.4877   48.5174 H   0  0  0  0  0  0  0  0  0  0  0  0
   64.9133   33.3932   47.0119 H   0  0  0  0  0  0  0  0  0  0  0  0
   63.0085   34.6636   46.0554 H   0  0  0  0  0  0  0  0  0  0  0  0
   60.6157   35.0670   45.7845 H   0  0  0  0  0  0  0  0  0  0  0  0
  1  2  1  0
  2  3  1  0
  3  4  1  0
  4  5  1  0
  5  6  1  0
  6  7  1  0
  7  8  1  0
  8  9  1  0
  9 10  1  0
 10 11  1  0
 11 12  1  0
 12 13  2  0
 13 14  1  0
 14 15  2  0
 15 16  1  0
 16 17  2  0
 17 18  1  0
 18 19  2  0
 19 20  1  0
 20 21  2  0
 21 12  1  0
 20 15  1  0
  1 22  1  0
  1 23  1  0
  1 24  1  0
  2 25  1  0
  2 26  1  0
  3 27  1  0
  4 28  1  0
  4 29  1  0
  5 30  1  0
  5 31  1  0
  7 32  1  0
  7 33  1  0
  8 34  1  0
  8 35  1  0
  9 36  1  0
  9 37  1  0
 10 38  1  0
 10 39  1  0
 13 40  1  0
 14 41  1  0
 16 42  1  0
 17 43  1  0
 18 44  1  0
 19 45  1  0
 21 46  1  0
M  END
>  <smiles>  (14) 
CCNCCOCCCCOc1ccc2ccccc2c1

>  <score_type>  (14) 
oracle

>  <origin>  (14) 
adg

>  <m_score__min__energy>  (14) 
-6.6100000000000003

>  <m_primary>  (14) 
energy

$$$$
14:0
     RDKit          3D

 60 62  0  0  0  0  0  0  0  0999 V2000
   64.5090   33.6010   50.7460 C   0  0  0  0  0  0  0  0  0  0  0  0
   64.1570   33.4870   49.3070 C   0  0  0  0  0  0  0  0  0  0  0  0
   63.2690   32.3430   49.0120 N   0  0  0  0  0  0  0  0  0  0  0  0
   63.2860   32.0640   47.5950 C   0  0  0  0  0  0  0  0  0  0  0  0
   62.0590   31.2720   47.2350 C   0  0  0  0  0  0  0  0  0  0  0  0
   61.9870   32.7880   49.5200 C   0  0  0  0  0  0  0  0  0  0  0  0
   61.3790   33.9980   48.9690 C   0  0  0  0  0  0  0  0  0  0  0  0
   59.9090   33.7950   48.9640 N   0  0  0  0  0  0  0  0  0  0  0  0
   59.2810   32.8670   48.1110 C   0  0  0  0  0  0  0  0  0  0  0  0
   58.9450   31.5580   48.2170 C   0  0  0  0  0  0  0  0  0  0  0  0
   59.1580   30.7020   49.4000 C   0  0  0  0  0  0  0  0  0  0  0  0
   59.0510   29.2850   49.0670 N   0  0  0  0  0  0  0  0  0  0  0  0
   60.3380   28.6930   49.3720 C   0  0  0  0  0  0  0  0  0  0  0  0
   58.3830   31.1410   47.0900 O   0  0  0  0  0  0  0  0  0  0  0  0
   58.3330   32.1200   46.2420 C   0  0  0  0  0  0  0  0  0  0  0  0
   57.8430   32.2050   44.9300 C   0  0  0  0  0  0  0  0  0  0  0  0
   57.1510   30.8250   44.1160 S   0  0  0  0  0  0  0  0  0  0  0  0
   56.7070   31.2680   42.7260 O   0  0  0  0  0  0  0  0  0  0  0  0
   55.9110   30.4270   44.8560 O   0  0  0  0  0  0  0  0  0  0  0  0
   58.3040   29.5840   44.0150 N   0  0  0  0  0  0  0  0  0  0  0  0
   58.5540   28.6320   45.0180 C   0  0  0  0  0  0  0  0  0  0  0  0
   59.8890   28.3050   45.2540 C   0  0  0  0  0  0  0  0  0  0  0  0
   60.2150   27.3620   46.2260 C   0  0  0  0  0  0  0  0  0  0  0  0
   59.2530   26.7300   46.9760 C   0  0  0  0  0  0  0  0  0  0  0  0
   57.9400   27.0580   46.7380 C   0  0  0  0  0  0  0  0  0  0  0  0
   57.5940   27.9990   45.7690 C   0  0  0  0  0  0  0  0  0  0  0  0
   57.9370   33.4230   44.2810 C   0  0  0  0  0  0  0  0  0  0  0  0
   58.4840   34.5500   44.8500 C   0  0  0  0  0  0  0  0  0  0  0  0
   58.9600   34.4430   46.1410 C   0  0  0  0  0  0  0  0  0  0  0  0
   58.8780   33.2380   46.8150 C   0  0  0  0  0  0  0  0  0  0  0  0
   63.6403   33.3197   51.3594 H   0  0  0  0  0  0  0  0  0  0  0  0
   65.3504   32.9294   50.9720 H   0  0  0  0  0  0  0  0  0  0  0  0
   64.7969   34.6383   50.9720 H   0  0  0  0  0  0  0  0  0  0  0  0
   63.6492   34.4123   48.9973 H   0  0  0  0  0  0  0  0  0  0  0  0
   65.0938   33.3238   48.7540 H   0  0  0  0  0  0  0  0  0  0  0  0
   63.2920   33.0098   47.0333 H   0  0  0  0  0  0  0  0  0  0  0  0
   64.1874   31.4868   47.3416 H   0  0  0  0  0  0  0  0  0  0  0  0
   61.5513   30.9443   48.1542 H   0  0  0  0  0  0  0  0  0  0  0  0
   61.3771   31.9008   46.6438 H   0  0  0  0  0  0  0  0  0  0  0  0
   62.3512   30.3916   46.6438 H   0  0  0  0  0  0  0  0  0  0  0  0
   61.2740   31.9669   49.3546 H   0  0  0  0  0  0  0  0  0  0  0  0
   62.2005   33.0569   50.5650 H   0  0  0  0  0  0  0  0  0  0  0  0
   61.6363   34.8659   49.5940 H   0  0  0  0  0  0  0  0  0  0  0  0
   61.7477   34.1879   47.9502 H   0  0  0  0  0  0  0  0  0  0  0  0
   59.2860   34.3420   49.6050 H   0  0  0  0  0  0  0  0  0  0  0  0
   60.1614   30.8981   49.8059 H   0  0  0  0  0  0  0  0  0  0  0  0
   58.3800   30.9401   50.1403 H   0  0  0  0  0  0  0  0  0  0  0  0
   58.7650   29.1070   48.0960 H   0  0  0  0  0  0  0  0  0  0  0  0
   60.4653   28.6344   50.4630 H   0  0  0  0  0  0  0  0  0  0  0  0
   60.3875   27.6816   48.9422 H   0  0  0  0  0  0  0  0  0  0  0  0
   61.1381   29.3136   48.9422 H   0  0  0  0  0  0  0  0  0  0  0  0
   58.8930   29.5030   43.1330 H   0  0  0  0  0  0  0  0  0  0  0  0
   60.6853   28.7922   44.6721 H   0  0  0  0  0  0  0  0  0  0  0  0
   61.2733   27.1163   46.3980 H   0  0  0  0  0  0  0  0  0  0  0  0
   59.5244   25.9871   47.7405 H   0  0  0  0  0  0  0  0  0  0  0  0
   57.1470   26.5690   47.3229 H   0  0  0  0  0  0  0  0  0  0  0  0
   56.5333   28.2386   45.6031 H   0  0  0  0  0  0  0  0  0  0  0  0
   57.5530   33.4945   43.2527 H   0  0  0  0  0  0  0  0  0  0  0  0
   58.5398   35.4995   44.2974 H   0  0  0  0  0  0  0  0  0  0  0  0
   59.4059   35.3186   46.6354 H   0  0  0  0  0  0  0  0  0  0  0  0
  1  2  1  0
  2  3  1  0
  3  4  1  0
  4  5  1  0
  3  6  1  0
  6  7  1  0
  7  8  1  0
  8  9  1  0
  9 10  2  0
 10 11  1  0
 11 12  1  0
 12 13  1  0
 10 14  1  0
 14 15  1  0
 15 16  2  0
 16 17  1  0
 17 18  2  0
 17 19  2  0
 17 20  1  0
 20 21  1  0
 21 22  2  0
 22 23  1  0
 23 24  2  0
 24 25  1  0
 25 26  2  0
 16 27  1  0
 27 28  2  0
 28 29  1  0
 29 30  2  0
 30  9  1  0
 30 15  1  0
 26 21  1  0
  1 31  1  0
  1 32  1  0
  1 33  1  0
  2 34  1  0
  2 35  1  0
  4 36  1  0
  4 37  1  0
  5 38  1  0
  5 39  1  0
  5 40  1  0
  6 41  1  0
  6 42  1  0
  7 43  1  0
  7 44  1  0
  8 45  1  0
 11 46  1  0
 11 47  1  0
 12 48  1  0
 13 49  1  0
 13 50  1  0
 13 51  1  0
 20 52  1  0
 22 53  1  0
 23 54  1  0
 24 55  1  0
 25 56  1  0
 26 57  1  0
 27 58  1  0
 28 59  1  0
 29 60  1  0
M  END
>  <smiles>  (15) 
CCN(CC)CCNc1c(CNC)oc2c(S(=O)(=O)Nc3ccccc3)cccc12

>  <score_type>  (15) 
oracle

>  <origin>  (15) 
adg

>  <m_score__min__energy>  (15) 
-9.0500000000000007

>  <m_primary>  (15) 
energy

$$$$
15:0
     RDKit          3D

 45 46  0  0  0  0  0  0  0  0999 V2000
   56.5060   29.7490   42.6880 C   0  0  0  0  0  0  0  0  0  0  0  0
   55.2660   29.7790   43.5630 C   0  0  0  0  0  0  0  0  0  0  0  0
   55.5400   29.3020   44.9160 N   0  0  0  0  0  0  0  0  0  0  0  0
   56.9580   28.9020   44.9000 C   0  0  0  0  0  0  0  0  0  0  0  0
   57.8250   29.9130   45.6090 C   0  0  0  0  0  0  0  0  0  0  0  0
   57.2500   31.1740   45.5100 O   0  0  0  0  0  0  0  0  0  0  0  0
   57.9560   32.3360   45.5480 C   0  0  0  0  0  0  0  0  0  0  0  0
   57.7130   33.4740   44.8300 C   0  0  0  0  0  0  0  0  0  0  0  0
   58.5250   34.6100   44.9560 C   0  0  0  0  0  0  0  0  0  0  0  0
   59.5930   34.6340   45.8010 C   0  0  0  0  0  0  0  0  0  0  0  0
   59.8520   33.4840   46.5400 C   0  0  0  0  0  0  0  0  0  0  0  0
   61.0120   33.5480   47.4290 C   0  0  0  0  0  0  0  0  0  0  0  0
   62.2670   33.1600   47.0030 C   0  0  0  0  0  0  0  0  0  0  0  0
   63.3220   33.2370   47.8970 C   0  0  0  0  0  0  0  0  0  0  0  0
   63.1160   33.6990   49.2000 C   0  0  0  0  0  0  0  0  0  0  0  0
   64.2010   33.7680   50.1140 N   0  0  0  0  0  0  0  0  0  0  0  0
   64.0570   34.5260   51.3600 C   0  0  0  0  0  0  0  0  0  0  0  0
   65.4400   33.0850   49.8000 C   0  0  0  0  0  0  0  0  0  0  0  0
   61.8400   34.0900   49.6210 C   0  0  0  0  0  0  0  0  0  0  0  0
   60.8040   34.0040   48.7140 C   0  0  0  0  0  0  0  0  0  0  0  0
   59.0520   32.3800   46.4080 C   0  0  0  0  0  0  0  0  0  0  0  0
   57.4032   29.7273   43.3241 H   0  0  0  0  0  0  0  0  0  0  0  0
   56.4850   28.8511   42.0529 H   0  0  0  0  0  0  0  0  0  0  0  0
   56.5284   30.6469   42.0529 H   0  0  0  0  0  0  0  0  0  0  0  0
   54.8958   30.8133   43.6192 H   0  0  0  0  0  0  0  0  0  0  0  0
   54.5160   29.1121   43.1128 H   0  0  0  0  0  0  0  0  0  0  0  0
   55.4690   30.0720   45.6130 H   0  0  0  0  0  0  0  0  0  0  0  0
   57.0606   27.9285   45.4018 H   0  0  0  0  0  0  0  0  0  0  0  0
   57.2873   28.8388   43.8524 H   0  0  0  0  0  0  0  0  0  0  0  0
   57.9177   29.6356   46.6694 H   0  0  0  0  0  0  0  0  0  0  0  0
   58.8213   29.9292   45.1431 H   0  0  0  0  0  0  0  0  0  0  0  0
   56.8595   33.4988   44.1365 H   0  0  0  0  0  0  0  0  0  0  0  0
   58.2939   35.5037   44.3578 H   0  0  0  0  0  0  0  0  0  0  0  0
   60.2265   35.5283   45.8955 H   0  0  0  0  0  0  0  0  0  0  0  0
   62.4252   32.7978   45.9765 H   0  0  0  0  0  0  0  0  0  0  0  0
   64.3300   32.9322   47.5791 H   0  0  0  0  0  0  0  0  0  0  0  0
   64.1855   33.8494   52.2177 H   0  0  0  0  0  0  0  0  0  0  0  0
   64.8211   35.3164   51.3987 H   0  0  0  0  0  0  0  0  0  0  0  0
   63.0563   34.9811   51.3987 H   0  0  0  0  0  0  0  0  0  0  0  0
   65.9503   32.8037   50.7330 H   0  0  0  0  0  0  0  0  0  0  0  0
   65.2215   32.1799   49.2143 H   0  0  0  0  0  0  0  0  0  0  0  0
   66.0887   33.7530   49.2143 H   0  0  0  0  0  0  0  0  0  0  0  0
   61.6682   34.4550   50.6444 H   0  0  0  0  0  0  0  0  0  0  0  0
   59.7918   34.3051   49.0218 H   0  0  0  0  0  0  0  0  0  0  0  0
   59.2850   31.4878   47.0078 H   0  0  0  0  0  0  0  0  0  0  0  0
  1  2  1  0
  2  3  1  0
  3  4  1  0
  4  5  1  0
  5  6  1  0
  6  7  1  0
  7  8  2  0
  8  9  1  0
  9 10  2  0
 10 11  1  0
 11 12  1  0
 12 13  2  0
 13 14  1  0
 14 15  2  0
 15 16  1  0
 16 17  1  0
 16 18  1  0
 15 19  1  0
 19 20  2  0
 11 21  2  0
 21  7  1  0
 20 12  1  0
  1 22  1  0
  1 23  1  0
  1 24  1  0
  2 25  1  0
  2 26  1  0
  3 27  1  0
  4 28  1  0
  4 29  1  0
  5 30  1  0
  5 31  1  0
  8 32  1  0
  9 33  1  0
 10 34  1  0
 13 35  1  0
 14 36  1  0
 17 37  1  0
 17 38  1  0
 17 39  1  0
 18 40  1  0
 18 41  1  0
 18 42  1  0
 19 43  1  0
 20 44  1  0
 21 45  1  0
M  END
>  <smiles>  (16) 
CCNCCOc1cccc(-c2ccc(N(C)C)cc2)c1

>  <score_type>  (16) 
oracle

>  <origin>  (16) 
adg

>  <m_score__min__energy>  (16) 
-7.8300000000000001

>  <m_primary>  (16) 
energy

$$$$
16:0
     RDKit          3D

 78 81  0  0  0  0  0  0  0  0999 V2000
   63.3930   31.6050   47.4860 C   0  0  0  0  0  0  0  0  0  0  0  0
   63.4870   33.0290   48.0120 C   0  0  0  0  0  0  0  0  0  0  0  0
   62.3350   33.7720   47.9320 N   0  0  0  0  0  0  0  0  0  0  0  0
   61.6530   33.8780   46.6850 C   0  0  0  0  0  0  0  0  0  0  0  0
   61.5500   34.0760   49.0630 C   0  0  0  0  0  0  0  0  0  0  0  0
   60.0930   34.2690   48.8960 C   0  0  0  0  0  0  0  0  0  0  0  0
   59.1950   33.1890   48.9280 N   0  0  0  0  0  0  0  0  0  0  0  0
   59.1150   32.2960   47.8280 C   0  0  0  0  0  0  0  0  0  0  0  0
   58.5860   32.5280   46.6050 C   0  0  0  0  0  0  0  0  0  0  0  0
   58.0410   33.7430   46.3230 C   0  0  0  0  0  0  0  0  0  0  0  0
   57.4760   34.0870   45.1140 C   0  0  0  0  0  0  0  0  0  0  0  0
   57.4760   33.1170   44.1330 C   0  0  0  0  0  0  0  0  0  0  0  0
   58.0260   31.8650   44.3900 C   0  0  0  0  0  0  0  0  0  0  0  0
   58.5860   31.5550   45.6240 C   0  0  0  0  0  0  0  0  0  0  0  0
   59.1030   30.3330   45.8160 N   0  0  0  0  0  0  0  0  0  0  0  0
   59.1380   29.2770   44.8610 C   0  0  0  0  0  0  0  0  0  0  0  0
   59.6430   30.0760   47.0450 C   0  0  0  0  0  0  0  0  0  0  0  0
   60.1850   28.8200   47.2860 C   0  0  0  0  0  0  0  0  0  0  0  0
   60.7330   28.5410   48.5310 C   0  0  0  0  0  0  0  0  0  0  0  0
   60.7690   29.4580   49.5580 C   0  0  0  0  0  0  0  0  0  0  0  0
   61.2740   29.2820   50.7910 O   0  0  0  0  0  0  0  0  0  0  0  0
   61.2360   30.0050   51.9700 C   0  0  0  0  0  0  0  0  0  0  0  0
   61.6880   31.4040   51.9370 C   0  0  0  0  0  0  0  0  0  0  0  0
   63.0970   31.6490   51.9460 N   0  0  0  0  0  0  0  0  0  0  0  0
   63.6110   31.1200   53.1930 C   0  0  0  0  0  0  0  0  0  0  0  0
   63.4800   33.0230   51.7190 C   0  0  0  0  0  0  0  0  0  0  0  0
   64.9500   33.2200   51.9900 C   0  0  0  0  0  0  0  0  0  0  0  0
   65.8140   32.2540   51.4060 N   0  0  0  0  0  0  0  0  0  0  0  0
   67.0130   32.1670   52.2390 C   0  0  0  0  0  0  0  0  0  0  0  0
   66.3120   32.6710   50.0900 C   0  0  0  0  0  0  0  0  0  0  0  0
   65.2660   30.9390   51.2810 C   0  0  0  0  0  0  0  0  0  0  0  0
   63.8140   30.9090   50.8900 C   0  0  0  0  0  0  0  0  0  0  0  0
   60.2100   30.7110   49.2650 C   0  0  0  0  0  0  0  0  0  0  0  0
   59.6610   31.0200   48.0470 C   0  0  0  0  0  0  0  0  0  0  0  0
   63.3467   30.9038   48.3323 H   0  0  0  0  0  0  0  0  0  0  0  0
   62.4860   31.4998   46.8726 H   0  0  0  0  0  0  0  0  0  0  0  0
   64.2783   31.3815   46.8726 H   0  0  0  0  0  0  0  0  0  0  0  0
   63.7839   32.9793   49.0700 H   0  0  0  0  0  0  0  0  0  0  0  0
   64.2172   33.5388   47.3664 H   0  0  0  0  0  0  0  0  0  0  0  0
   60.5809   34.0446   46.8664 H   0  0  0  0  0  0  0  0  0  0  0  0
   62.0638   34.7231   46.1131 H   0  0  0  0  0  0  0  0  0  0  0  0
   61.7879   32.9481   46.1131 H   0  0  0  0  0  0  0  0  0  0  0  0
   61.6856   33.2527   49.7798 H   0  0  0  0  0  0  0  0  0  0  0  0
   61.9122   35.0664   49.3760 H   0  0  0  0  0  0  0  0  0  0  0  0
   59.7787   34.9559   49.6956 H   0  0  0  0  0  0  0  0  0  0  0  0
   60.0201   34.6021   47.8502 H   0  0  0  0  0  0  0  0  0  0  0  0
   58.5210   32.9660   49.7240 H   0  0  0  0  0  0  0  0  0  0  0  0
   58.0524   34.5046   47.1167 H   0  0  0  0  0  0  0  0  0  0  0  0
   57.0467   35.0847   44.9400 H   0  0  0  0  0  0  0  0  0  0  0  0
   57.0406   33.3336   43.1463 H   0  0  0  0  0  0  0  0  0  0  0  0
   58.0175   31.1021   43.5976 H   0  0  0  0  0  0  0  0  0  0  0  0
   59.1700   28.3101   45.3845 H   0  0  0  0  0  0  0  0  0  0  0  0
   58.2378   29.3229   44.2304 H   0  0  0  0  0  0  0  0  0  0  0  0
   60.0331   29.3824   44.2304 H   0  0  0  0  0  0  0  0  0  0  0  0
   60.1802   28.0531   46.4975 H   0  0  0  0  0  0  0  0  0  0  0  0
   61.1580   27.5415   48.7051 H   0  0  0  0  0  0  0  0  0  0  0  0
   60.1929   30.0064   52.3193 H   0  0  0  0  0  0  0  0  0  0  0  0
   61.9588   29.4983   52.6264 H   0  0  0  0  0  0  0  0  0  0  0  0
   61.2816   31.8588   51.0216 H   0  0  0  0  0  0  0  0  0  0  0  0
   61.3254   31.8351   52.8818 H   0  0  0  0  0  0  0  0  0  0  0  0
   63.1190   31.6263   54.0366 H   0  0  0  0  0  0  0  0  0  0  0  0
   63.4080   30.0401   53.2446 H   0  0  0  0  0  0  0  0  0  0  0  0
   64.6963   31.2919   53.2446 H   0  0  0  0  0  0  0  0  0  0  0  0
   63.2672   33.2888   50.6730 H   0  0  0  0  0  0  0  0  0  0  0  0
   62.9059   33.6668   52.4016 H   0  0  0  0  0  0  0  0  0  0  0  0
   65.2365   34.2091   51.6032 H   0  0  0  0  0  0  0  0  0  0  0  0
   65.0733   33.1173   53.0782 H   0  0  0  0  0  0  0  0  0  0  0  0
   66.7245   32.1879   53.3003 H   0  0  0  0  0  0  0  0  0  0  0  0
   67.5432   31.2280   52.0216 H   0  0  0  0  0  0  0  0  0  0  0  0
   67.6732   33.0196   52.0216 H   0  0  0  0  0  0  0  0  0  0  0  0
   67.1494   33.3722   50.2202 H   0  0  0  0  0  0  0  0  0  0  0  0
   66.6565   31.7881   49.5317 H   0  0  0  0  0  0  0  0  0  0  0  0
   65.5033   33.1653   49.5317 H   0  0  0  0  0  0  0  0  0  0  0  0
   65.8405   30.3976   50.5149 H   0  0  0  0  0  0  0  0  0  0  0  0
   65.3346   30.4730   52.2750 H   0  0  0  0  0  0  0  0  0  0  0  0
   63.6699   31.3974   49.9150 H   0  0  0  0  0  0  0  0  0  0  0  0
   63.4420   29.8782   50.7947 H   0  0  0  0  0  0  0  0  0  0  0  0
   60.2122   31.4821   50.0495 H   0  0  0  0  0  0  0  0  0  0  0  0
  1  2  1  0
  2  3  1  0
  3  4  1  0
  3  5  1  0
  5  6  1  0
  6  7  1  0
  7  8  1  0
  8  9  2  0
  9 10  1  0
 10 11  2  0
 11 12  1  0
 12 13  2  0
 13 14  1  0
 14 15  2  0
 15 16  1  0
 15 17  1  0
 17 18  2  0
 18 19  1  0
 19 20  2  0
 20 21  1  0
 21 22  1  0
 22 23  1  0
 23 24  1  0
 24 25  1  0
 24 26  1  0
 26 27  1  0
 27 28  1  0
 28 29  1  0
 28 30  1  0
 28 31  1  0
 31 32  1  0
 20 33  1  0
 33 34  2  0
 34  8  1  0
 14  9  1  0
 34 17  1  0
 32 24  1  0
  1 35  1  0
  1 36  1  0
  1 37  1  0
  2 38  1  0
  2 39  1  0
  4 40  1  0
  4 41  1  0
  4 42  1  0
  5 43  1  0
  5 44  1  0
  6 45  1  0
  6 46  1  0
  7 47  1  0
 10 48  1  0
 11 49  1  0
 12 50  1  0
 13 51  1  0
 16 52  1  0
 16 53  1  0
 16 54  1  0
 18 55  1  0
 19 56  1  0
 22 57  1  0
 22 58  1  0
 23 59  1  0
 23 60  1  0
 25 61  1  0
 25 62  1  0
 25 63  1  0
 26 64  1  0
 26 65  1  0
 27 66  1  0
 27 67  1  0
 29 68  1  0
 29 69  1  0
 29 70  1  0
 30 71  1  0
 30 72  1  0
 30 73  1  0
 31 74  1  0
 31 75  1  0
 32 76  1  0
 32 77  1  0
 33 78  1  0
M  CHG  3  15   1  24   1  28   1
M  END
>  <smiles>  (17) 
CCN(C)CCNc1c2ccccc2[n+](C)c2ccc(OCC[N+]3(C)CC[N+](C)(C)CC3)cc12

>  <score_type>  (17) 
oracle

>  <origin>  (17) 
adg

>  <m_score__min__energy>  (17) 
-3.7000000000000002

>  <m_primary>  (17) 
energy

$$$$
17:0
     RDKit          3D

 27 27  0  0  1  0  0  0  0  0999 V2000
   57.7450   28.2740   44.0650 C   0  0  0  0  0  0  0  0  0  0  0  0
   56.9390   28.6540   45.2890 C   0  0  0  0  0  0  0  0  0  0  0  0
   56.4960   30.0520   45.1770 N   0  0  0  0  0  0  0  0  0  0  0  0
   56.3380   30.2910   43.7360 C   0  0  0  0  0  0  0  0  0  0  0  0
   57.3940   31.2070   43.2140 C   0  0  0  0  0  0  0  0  0  0  0  0
   57.5430   32.4480   43.6350 C   0  0  0  0  0  0  0  0  0  0  0  0
   58.1740   32.8090   44.8970 C   0  0  0  0  0  0  0  0  0  0  0  0
   58.8030   31.9000   45.7190 C   0  0  0  0  0  0  0  0  0  0  0  0
   59.3780   32.3180   46.8990 C   0  0  0  0  0  0  0  0  0  0  0  0
   59.3650   33.6310   47.3270 C   0  0  0  0  0  0  0  0  0  0  0  0
   60.1640   34.1910   48.9610 Br  0  0  0  0  0  0  0  0  0  0  0  0
   58.7320   34.5460   46.5000 C   0  0  0  0  0  0  0  0  0  0  0  0
   58.1580   34.1220   45.3200 C   0  0  0  0  0  0  0  0  0  0  0  0
   58.6986   27.8244   44.3790 H   0  0  0  0  0  0  0  0  0  0  0  0
   57.1780   27.5484   43.4634 H   0  0  0  0  0  0  0  0  0  0  0  0
   57.9440   29.1731   43.4634 H   0  0  0  0  0  0  0  0  0  0  0  0
   56.0601   27.9971   45.3664 H   0  0  0  0  0  0  0  0  0  0  0  0
   57.5649   28.5412   46.1865 H   0  0  0  0  0  0  0  0  0  0  0  0
   55.5680   30.0810   45.6240 H   0  0  0  0  0  0  0  0  0  0  0  0
   56.4042   29.3299   43.2050 H   0  0  0  0  0  0  0  0  0  0  0  0
   55.3587   30.7637   43.5701 H   0  0  0  0  0  0  0  0  0  0  0  0
   58.0804   30.8295   42.4418 H   0  0  0  0  0  0  0  0  0  0  0  0
   57.1680   33.2596   42.9941 H   0  0  0  0  0  0  0  0  0  0  0  0
   58.8462   30.8388   45.4327 H   0  0  0  0  0  0  0  0  0  0  0  0
   59.8729   31.5675   47.5329 H   0  0  0  0  0  0  0  0  0  0  0  0
   58.6877   35.6077   46.7844 H   0  0  0  0  0  0  0  0  0  0  0  0
   57.6618   34.8692   44.6832 H   0  0  0  0  0  0  0  0  0  0  0  0
  1  2  1  0
  2  3  1  0
  3  4  1  0
  4  5  1  0
  5  6  2  0
  6  7  1  0
  7  8  2  0
  8  9  1  0
  9 10  2  0
 10 11  1  0
 10 12  1  0
 12 13  2  0
 13  7  1  0
  1 14  1  0
  1 15  1  0
  1 16  1  0
  2 17  1  0
  2 18  1  0
  3 19  1  0
  4 20  1  0
  4 21  1  0
  5 22  1  0
  6 23  1  0
  8 24  1  0
  9 25  1  0
 12 26  1  0
 13 27  1  0
M  END
>  <smiles>  (18) 
CCNCC=Cc1ccc(Br)cc1

>  <score_type>  (18) 
oracle

>  <origin>  (18) 
adg

>  <m_score__min__energy>  (18) 
-6.3600000000000003

>  <m_primary>  (18) 
energy

$$$$
18:0
     RDKit          3D

 68 71  0  0  1  0  0  0  0  0999 V2000
   60.3660   28.5240   46.0020 C   0  0  0  0  0  0  0  0  0  0  0  0
   59.4560   29.3490   45.0970 C   0  0  0  0  0  0  0  0  0  0  0  0
   58.2360   29.7480   45.7140 N   0  0  0  0  0  3  0  0  0  0  0  0
   57.0660   29.1450   45.1060 C   0  0  0  0  0  0  0  0  0  0  0  0
   56.8230   29.7970   43.7800 C   0  0  0  0  0  0  0  0  0  0  0  0
   57.0800   31.2960   43.7980 C   0  0  0  0  0  0  0  0  0  0  0  0
   57.1070   31.7790   45.1290 N   0  0  0  0  0  0  0  0  0  0  0  0
   57.0840   33.2080   45.2410 C   0  0  0  0  0  0  0  0  0  0  0  0
   57.7320   33.7050   46.5000 C   0  0  0  0  0  0  0  0  0  0  0  0
   58.9380   34.4370   46.3330 N   0  0  0  0  0  0  0  0  0  0  0  0
   60.0800   33.7860   45.8340 C   0  0  0  0  0  0  0  0  0  0  0  0
   61.3120   33.7770   46.6960 C   0  0  0  0  0  0  0  0  0  0  0  0
   61.2350   33.3050   47.9790 N   0  0  0  0  0  0  0  0  0  0  0  0
   61.8430   32.0340   48.3090 C   0  0  2  0  0  0  0  0  0  0  0  0
   63.0370   31.8990   47.4800 C   0  0  0  0  0  0  0  0  0  0  0  0
   63.9090   33.0230   48.0490 C   0  0  0  0  0  0  0  0  0  0  0  0
   63.2560   33.9000   49.0500 C   0  0  0  0  0  0  0  0  0  0  0  0
   61.7810   34.1320   49.0290 C   0  0  2  0  0  0  0  0  0  0  0  0
   61.1040   33.4850   50.2710 C   0  0  0  0  0  0  0  0  0  0  0  0
   59.9360   32.7440   49.9730 N   0  0  0  0  0  0  0  0  0  0  0  0
   58.8870   33.0220   50.9070 C   0  0  0  0  0  0  0  0  0  0  0  0
   58.5990   31.9050   51.8910 C   0  0  0  0  0  0  0  0  0  0  0  0
   58.0840   30.7820   51.0250 C   0  0  0  0  0  0  0  0  0  0  0  0
   57.1400   30.0440   51.3580 O   0  0  0  0  0  0  0  0  0  0  0  0
   58.7870   30.6410   49.7710 N   0  0  0  0  0  0  0  0  0  0  0  0
   60.0330   31.3660   49.6760 C   0  0  1  0  0  0  0  0  0  0  0  0
   60.7470   31.0420   48.3570 C   0  0  0  0  0  0  0  0  0  0  0  0
   58.0860   31.1470   45.9790 C   0  0  0  0  0  0  0  0  0  0  0  0
   60.1289   28.7389   47.0544 H   0  0  0  0  0  0  0  0  0  0  0  0
   60.2093   27.4537   45.8020 H   0  0  0  0  0  0  0  0  0  0  0  0
   61.4158   28.7845   45.8020 H   0  0  0  0  0  0  0  0  0  0  0  0
   60.0010   30.2539   44.7902 H   0  0  0  0  0  0  0  0  0  0  0  0
   59.1877   28.7079   44.2444 H   0  0  0  0  0  0  0  0  0  0  0  0
   57.2370   28.0678   44.9629 H   0  0  0  0  0  0  0  0  0  0  0  0
   56.1911   29.2849   45.7579 H   0  0  0  0  0  0  0  0  0  0  0  0
   57.4891   29.3362   43.0357 H   0  0  0  0  0  0  0  0  0  0  0  0
   55.7621   29.6484   43.5301 H   0  0  0  0  0  0  0  0  0  0  0  0
   58.0479   31.5030   43.3181 H   0  0  0  0  0  0  0  0  0  0  0  0
   56.2701   31.8022   43.2524 H   0  0  0  0  0  0  0  0  0  0  0  0
   57.6168   33.6363   44.3792 H   0  0  0  0  0  0  0  0  0  0  0  0
   56.0296   33.5204   45.2666 H   0  0  0  0  0  0  0  0  0  0  0  0
   57.0111   34.3572   47.0147 H   0  0  0  0  0  0  0  0  0  0  0  0
   58.0084   32.8037   47.0668 H   0  0  0  0  0  0  0  0  0  0  0  0
   59.1010   35.1420   47.0620 H   0  0  0  0  0  0  0  0  0  0  0  0
   59.8042   32.7382   45.6441 H   0  0  0  0  0  0  0  0  0  0  0  0
   60.3663   34.3685   44.9459 H   0  0  0  0  0  0  0  0  0  0  0  0
   62.0625   33.1648   46.1746 H   0  0  0  0  0  0  0  0  0  0  0  0
   61.5424   34.8445   46.8275 H   0  0  0  0  0  0  0  0  0  0  0  0
   62.2899   31.8841   49.3029 H   0  0  0  0  0  0  0  0  0  0  0  0
   63.5103   30.9145   47.6089 H   0  0  0  0  0  0  0  0  0  0  0  0
   62.8511   31.9696   46.3981 H   0  0  0  0  0  0  0  0  0  0  0  0
   64.7865   32.5615   48.5254 H   0  0  0  0  0  0  0  0  0  0  0  0
   64.1542   33.6729   47.1960 H   0  0  0  0  0  0  0  0  0  0  0  0
   63.4910   33.4754   50.0372 H   0  0  0  0  0  0  0  0  0  0  0  0
   63.6587   34.8923   48.7988 H   0  0  0  0  0  0  0  0  0  0  0  0
   61.6157   35.2165   48.9482 H   0  0  0  0  0  0  0  0  0  0  0  0
   61.8297   32.8090   50.7468 H   0  0  0  0  0  0  0  0  0  0  0  0
   60.7960   34.3103   50.9298 H   0  0  0  0  0  0  0  0  0  0  0  0
   59.1673   33.9185   51.4795 H   0  0  0  0  0  0  0  0  0  0  0  0
   57.9708   33.1551   50.3130 H   0  0  0  0  0  0  0  0  0  0  0  0
   59.5153   31.6031   52.4194 H   0  0  0  0  0  0  0  0  0  0  0  0
   57.8827   32.2015   52.6714 H   0  0  0  0  0  0  0  0  0  0  0  0
   58.3850   30.0510   49.0210 H   0  0  0  0  0  0  0  0  0  0  0  0
   60.6804   31.0015   50.4872 H   0  0  0  0  0  0  0  0  0  0  0  0
   61.1443   30.0163   48.3659 H   0  0  0  0  0  0  0  0  0  0  0  0
   60.0808   31.0949   47.4833 H   0  0  0  0  0  0  0  0  0  0  0  0
   59.0569   31.6397   45.8222 H   0  0  0  0  0  0  0  0  0  0  0  0
   57.7366   31.2500   47.0169 H   0  0  0  0  0  0  0  0  0  0  0  0
  1  2  1  0
  2  3  1  0
  3  4  1  0
  4  5  1  0
  5  6  1  0
  6  7  1  0
  7  8  1  0
  8  9  1  0
  9 10  1  0
 10 11  1  0
 11 12  1  0
 12 13  1  0
 13 14  1  0
 14 15  1  0
 15 16  1  0
 16 17  1  0
 17 18  1  0
 18 19  1  0
 19 20  1  0
 20 21  1  0
 21 22  1  0
 22 23  1  0
 23 24  2  0
 23 25  1  0
 25 26  1  0
 26 27  1  0
  7 28  1  0
 28  3  1  0
 18 13  1  0
 26 20  1  0
 27 14  1  0
  1 29  1  0
  1 30  1  0
  1 31  1  0
  2 32  1  0
  2 33  1  0
  4 34  1  0
  4 35  1  0
  5 36  1  0
  5 37  1  0
  6 38  1  0
  6 39  1  0
  8 40  1  0
  8 41  1  0
  9 42  1  0
  9 43  1  0
 10 44  1  0
 11 45  1  0
 11 46  1  0
 12 47  1  0
 12 48  1  0
 14 49  1  1
 15 50  1  0
 15 51  1  0
 16 52  1  0
 16 53  1  0
 17 54  1  0
 17 55  1  0
 18 56  1  6
 19 57  1  0
 19 58  1  0
 21 59  1  0
 21 60  1  0
 22 61  1  0
 22 62  1  0
 25 63  1  0
 26 64  1  1
 27 65  1  0
 27 66  1  0
 28 67  1  0
 28 68  1  0
M  CHG  1   3   1
M  RAD  1   3   2
M  END
>  <smiles>  (19) 
CC[N+]1CCCN(CCNCCN2C3CCCC2CN2CCC(=O)NC2C3)C1

>  <score_type>  (19) 
oracle

>  <origin>  (19) 
adg

>  <m_score__min__energy>  (19) 
-6.6699999999999999

>  <m_primary>  (19) 
energy

$$$$
19:0
     RDKit          3D

 48 50  0  0  1  0  0  0  0  0999 V2000
   59.7800   28.9800   48.1830 C   0  0  0  0  0  0  0  0  0  0  0  0
   58.5620   29.2090   47.3010 C   0  0  0  0  0  0  0  0  0  0  0  0
   58.9780   29.6790   46.0180 N   0  0  0  0  0  0  0  0  0  0  0  0
   60.4050   30.0120   46.0430 C   0  0  0  0  0  0  0  0  0  0  0  0
   58.6700   28.8070   44.9150 C   0  0  0  0  0  0  0  0  0  0  0  0
   57.2390   28.9670   44.4710 C   0  0  0  0  0  0  0  0  0  0  0  0
   56.6140   30.0950   44.9400 O   0  0  0  0  0  0  0  0  0  0  0  0
   56.6100   31.1520   44.0520 C   0  0  0  0  0  0  0  0  0  0  0  0
   57.5160   32.2990   44.4340 C   0  0  0  0  0  0  0  0  0  0  0  0
   57.1350   32.7930   45.6590 O   0  0  0  0  0  0  0  0  0  0  0  0
   58.0000   33.7390   46.2030 C   0  0  2  0  0  0  0  0  0  0  0  0
   58.8190   34.3750   45.1290 C   0  0  0  0  0  0  0  0  0  0  0  0
   60.1930   34.2900   45.2630 O   0  0  0  0  0  0  0  0  0  0  0  0
   60.8590   33.8060   46.3220 C   0  0  0  0  0  0  0  0  0  0  0  0
   62.2490   33.8360   46.3870 C   0  0  0  0  0  0  0  0  0  0  0  0
   62.9550   33.3460   47.4600 C   0  0  0  0  0  0  0  0  0  0  0  0
   62.2660   32.7960   48.5300 C   0  0  0  0  0  0  0  0  0  0  0  0
   60.8840   32.7650   48.4650 C   0  0  0  0  0  0  0  0  0  0  0  0
   60.2270   32.2090   49.5450 C   0  0  0  0  0  0  0  0  0  0  0  0
   58.8420   32.1790   49.4790 C   0  0  0  0  0  0  0  0  0  0  0  0
   58.1480   32.6760   48.3940 C   0  0  0  0  0  0  0  0  0  0  0  0
   58.8090   33.2410   47.2940 C   0  0  0  0  0  0  0  0  0  0  0  0
   60.1820   33.2590   47.3850 C   0  0  0  0  0  0  0  0  0  0  0  0
   59.4826   29.0359   49.2406 H   0  0  0  0  0  0  0  0  0  0  0  0
   60.2031   27.9866   47.9731 H   0  0  0  0  0  0  0  0  0  0  0  0
   60.5350   29.7519   47.9731 H   0  0  0  0  0  0  0  0  0  0  0  0
   58.0127   28.2632   47.1835 H   0  0  0  0  0  0  0  0  0  0  0  0
   57.9089   29.9598   47.7697 H   0  0  0  0  0  0  0  0  0  0  0  0
   60.7448   30.0913   47.0862 H   0  0  0  0  0  0  0  0  0  0  0  0
   60.9747   29.2227   45.5308 H   0  0  0  0  0  0  0  0  0  0  0  0
   60.5665   30.9720   45.5308 H   0  0  0  0  0  0  0  0  0  0  0  0
   59.3352   29.0470   44.0724 H   0  0  0  0  0  0  0  0  0  0  0  0
   58.8164   27.7676   45.2439 H   0  0  0  0  0  0  0  0  0  0  0  0
   57.2233   28.9991   43.3716 H   0  0  0  0  0  0  0  0  0  0  0  0
   56.6877   28.1113   44.8880 H   0  0  0  0  0  0  0  0  0  0  0  0
   56.9295   30.7753   43.0691 H   0  0  0  0  0  0  0  0  0  0  0  0
   55.5854   31.5523   44.0491 H   0  0  0  0  0  0  0  0  0  0  0  0
   58.5554   31.9432   44.4889 H   0  0  0  0  0  0  0  0  0  0  0  0
   57.4412   33.0941   43.6776 H   0  0  0  0  0  0  0  0  0  0  0  0
   57.3694   34.5134   46.6642 H   0  0  0  0  0  0  0  0  0  0  0  0
   58.5469   33.8981   44.1758 H   0  0  0  0  0  0  0  0  0  0  0  0
   58.5887   35.4490   45.1876 H   0  0  0  0  0  0  0  0  0  0  0  0
   62.8063   34.2703   45.5439 H   0  0  0  0  0  0  0  0  0  0  0  0
   64.0541   33.3898   47.4695 H   0  0  0  0  0  0  0  0  0  0  0  0
   62.8015   32.3965   49.4039 H   0  0  0  0  0  0  0  0  0  0  0  0
   60.7737   31.8107   50.4124 H   0  0  0  0  0  0  0  0  0  0  0  0
   58.2784   31.7453   50.3182 H   0  0  0  0  0  0  0  0  0  0  0  0
   57.0491   32.6276   48.3924 H   0  0  0  0  0  0  0  0  0  0  0  0
  1  2  1  0
  2  3  1  0
  3  4  1  0
  3  5  1  0
  5  6  1  0
  6  7  1  0
  7  8  1  0
  8  9  1  0
  9 10  1  0
 10 11  1  0
 11 12  1  0
 12 13  1  0
 13 14  1  0
 14 15  1  0
 15 16  2  0
 16 17  1  0
 17 18  2  0
 18 19  1  0
 19 20  2  0
 20 21  1  0
 21 22  2  0
 22 23  1  0
 22 11  1  0
 23 14  2  0
 23 18  1  0
  1 24  1  0
  1 25  1  0
  1 26  1  0
  2 27  1  0
  2 28  1  0
  4 29  1  0
  4 30  1  0
  4 31  1  0
  5 32  1  0
  5 33  1  0
  6 34  1  0
  6 35  1  0
  8 36  1  0
  8 37  1  0
  9 38  1  0
  9 39  1  0
 11 40  1  1
 12 41  1  0
 12 42  1  0
 15 43  1  0
 16 44  1  0
 17 45  1  0
 19 46  1  0
 20 47  1  0
 21 48  1  0
M  END
>  <smiles>  (20) 
CCN(C)CCOCCOC1COc2cccc3cccc1c23

>  <score_type>  (20) 
oracle

>  <origin>  (20) 
adg

>  <m_score__min__energy>  (20) 
-7.4400000000000004

>  <m_primary>  (20) 
energy

$$$$
20:0
     RDKit          3D

 48 51  0  0  0  0  0  0  0  0999 V2000
   58.1120   26.8990   42.6670 C   0  0  0  0  0  0  0  0  0  0  0  0
   57.7630   27.9920   43.6620 C   0  0  0  0  0  0  0  0  0  0  0  0
   57.1720   29.1060   42.9740 N   0  0  0  0  0  0  0  0  0  0  0  0
   56.1550   29.7260   43.7710 C   0  0  0  0  0  0  0  0  0  0  0  0
   56.6700   30.9780   44.3940 C   0  0  0  0  0  0  0  0  0  0  0  0
   58.1310   30.8610   44.4960 N   0  0  0  0  0  0  0  0  0  0  0  0
   58.8600   31.2880   45.6350 C   0  0  0  0  0  0  0  0  0  0  0  0
   59.2880   30.3780   46.6240 C   0  0  0  0  0  0  0  0  0  0  0  0
   59.9480   30.8250   47.7450 C   0  0  0  0  0  0  0  0  0  0  0  0
   60.1760   32.1570   47.8770 N   0  0  0  0  0  0  0  0  0  0  0  0
   60.7150   32.7300   49.0620 C   0  0  0  0  0  0  0  0  0  0  0  0
   59.7640   33.0360   46.9070 C   0  0  0  0  0  0  0  0  0  0  0  0
   60.0260   34.3850   47.0040 C   0  0  0  0  0  0  0  0  0  0  0  0
   59.6200   35.2550   45.9840 C   0  0  0  0  0  0  0  0  0  0  0  0
   58.9600   34.8220   44.8690 C   0  0  0  0  0  0  0  0  0  0  0  0
   58.6990   33.4750   44.7670 C   0  0  0  0  0  0  0  0  0  0  0  0
   59.1010   32.6220   45.7750 C   0  0  0  0  0  0  0  0  0  0  0  0
   60.3850   29.8490   48.7900 C   0  0  0  0  0  0  0  0  0  0  0  0
   61.1210   30.0500   49.8780 C   0  0  0  0  0  0  0  0  0  0  0  0
   61.4660   28.8930   50.6220 C   0  0  0  0  0  0  0  0  0  0  0  0
   60.7580   27.4970   49.7970 S   0  0  0  0  0  0  0  0  0  0  0  0
   60.0290   28.5650   48.4860 C   0  0  0  0  0  0  0  0  0  0  0  0
   59.2200   28.0450   47.3970 C   0  0  0  0  0  0  0  0  0  0  0  0
   59.0250   28.9640   46.2640 C   0  0  0  0  0  0  0  0  0  0  0  0
   58.4029   25.9878   43.2103 H   0  0  0  0  0  0  0  0  0  0  0  0
   57.2373   26.6856   42.0350 H   0  0  0  0  0  0  0  0  0  0  0  0
   58.9485   27.2319   42.0350 H   0  0  0  0  0  0  0  0  0  0  0  0
   57.0492   27.5988   44.4009 H   0  0  0  0  0  0  0  0  0  0  0  0
   58.6791   28.3247   44.1720 H   0  0  0  0  0  0  0  0  0  0  0  0
   57.9110   29.8100   42.7810 H   0  0  0  0  0  0  0  0  0  0  0  0
   55.2923   29.9677   43.1328 H   0  0  0  0  0  0  0  0  0  0  0  0
   55.8544   29.0300   44.5680 H   0  0  0  0  0  0  0  0  0  0  0  0
   56.4067   31.8432   43.7679 H   0  0  0  0  0  0  0  0  0  0  0  0
   56.2257   31.1225   45.3899 H   0  0  0  0  0  0  0  0  0  0  0  0
   58.7010   30.4470   43.7130 H   0  0  0  0  0  0  0  0  0  0  0  0
   60.2619   32.2484   49.9411 H   0  0  0  0  0  0  0  0  0  0  0  0
   61.8041   32.5770   49.0807 H   0  0  0  0  0  0  0  0  0  0  0  0
   60.4958   33.8078   49.0807 H   0  0  0  0  0  0  0  0  0  0  0  0
   60.5550   34.7796   47.8840 H   0  0  0  0  0  0  0  0  0  0  0  0
   59.8410   36.3279   46.0846 H   0  0  0  0  0  0  0  0  0  0  0  0
   58.6487   35.5244   44.0818 H   0  0  0  0  0  0  0  0  0  0  0  0
   58.1723   33.0795   43.8860 H   0  0  0  0  0  0  0  0  0  0  0  0
   61.4441   31.0560   50.1840 H   0  0  0  0  0  0  0  0  0  0  0  0
   62.0649   28.8680   51.5443 H   0  0  0  0  0  0  0  0  0  0  0  0
   59.7068   27.1349   47.0165 H   0  0  0  0  0  0  0  0  0  0  0  0
   58.2201   27.8663   47.8193 H   0  0  0  0  0  0  0  0  0  0  0  0
   59.7096   28.6738   45.4533 H   0  0  0  0  0  0  0  0  0  0  0  0
   57.9725   28.8900   45.9528 H   0  0  0  0  0  0  0  0  0  0  0  0
  1  2  1  0
  2  3  1  0
  3  4  1  0
  4  5  1  0
  5  6  1  0
  6  7  1  0
  7  8  2  0
  8  9  1  0
  9 10  2  0
 10 11  1  0
 10 12  1  0
 12 13  2  0
 13 14  1  0
 14 15  2  0
 15 16  1  0
 16 17  2  0
  9 18  1  0
 18 19  1  0
 19 20  2  0
 20 21  1  0
 21 22  1  0
 22 23  1  0
 23 24  1  0
 17  7  1  0
 22 18  2  0
 24  8  1  0
 17 12  1  0
  1 25  1  0
  1 26  1  0
  1 27  1  0
  2 28  1  0
  2 29  1  0
  3 30  1  0
  4 31  1  0
  4 32  1  0
  5 33  1  0
  5 34  1  0
  6 35  1  0
 11 36  1  0
 11 37  1  0
 11 38  1  0
 13 39  1  0
 14 40  1  0
 15 41  1  0
 16 42  1  0
 19 43  1  0
 20 44  1  0
 23 45  1  0
 23 46  1  0
 24 47  1  0
 24 48  1  0
M  CHG  1  10   1
M  END
>  <smiles>  (21) 
CCNCCNc1c2c([n+](C)c3ccccc13)-c1ccsc1CC2

>  <score_type>  (21) 
oracle

>  <origin>  (21) 
adg

>  <m_score__min__energy>  (21) 
-6.29

>  <m_primary>  (21) 
energy

$$$$
21:0
     RDKit          3D

 42 45  0  0  1  0  0  0  0  0999 V2000
   60.4110   30.3710   47.1420 C   0  0  0  0  0  0  0  0  0  0  0  0
   59.3060   30.9240   46.4230 N   0  0  0  0  0  0  0  0  0  0  0  0
   58.2650   30.2180   45.9470 C   0  0  0  0  0  0  0  0  0  0  0  0
   57.3970   31.0340   45.3000 N   0  0  0  0  0  0  0  0  0  0  0  0
   57.9190   32.2780   45.3810 C   0  0  0  0  0  0  0  0  0  0  0  0
   57.4360   33.4670   44.8780 C   0  0  0  0  0  0  0  0  0  0  0  0
   58.1730   34.5940   45.0920 C   0  0  0  0  0  0  0  0  0  0  0  0
   59.3610   34.5320   45.7900 C   0  0  0  0  0  0  0  0  0  0  0  0
   59.8570   33.3300   46.3040 C   0  0  0  0  0  0  0  0  0  0  0  0
   61.0620   33.4100   47.0290 N   0  0  0  0  0  0  0  0  0  0  0  0
   62.4450   33.3910   46.6260 C   0  0  0  0  0  0  0  0  0  0  0  0
   63.2710   33.2780   47.8900 C   0  0  0  0  0  0  0  0  0  0  0  0
   62.4110   34.1170   48.8450 C   0  0  0  0  0  0  0  0  0  0  0  0
   61.0870   33.5400   48.4920 C   0  0  1  0  0  0  0  0  0  0  0  0
   59.9180   34.2290   49.0740 C   0  0  0  0  0  0  0  0  0  0  0  0
   59.2660   33.2320   50.0000 C   0  0  0  0  0  0  0  0  0  0  0  0
   59.2000   33.5050   51.3530 C   0  0  0  0  0  0  0  0  0  0  0  0
   58.6020   32.5830   52.1900 C   0  0  0  0  0  0  0  0  0  0  0  0
   58.0930   31.4270   51.6320 C   0  0  0  0  0  0  0  0  0  0  0  0
   58.1620   31.1690   50.3020 N   0  0  0  0  0  0  0  0  0  0  0  0
   58.7430   32.0540   49.4710 C   0  0  0  0  0  0  0  0  0  0  0  0
   59.1140   32.2060   46.0840 C   0  0  0  0  0  0  0  0  0  0  0  0
   60.2280   30.4626   48.2228 H   0  0  0  0  0  0  0  0  0  0  0  0
   60.5257   29.3093   46.8782 H   0  0  0  0  0  0  0  0  0  0  0  0
   61.3296   30.9156   46.8782 H   0  0  0  0  0  0  0  0  0  0  0  0
   58.1361   29.1321   46.0658 H   0  0  0  0  0  0  0  0  0  0  0  0
   56.4874   33.5054   44.3224 H   0  0  0  0  0  0  0  0  0  0  0  0
   57.8173   35.5603   44.7049 H   0  0  0  0  0  0  0  0  0  0  0  0
   59.9359   35.4566   45.9471 H   0  0  0  0  0  0  0  0  0  0  0  0
   62.6361   32.5282   45.9710 H   0  0  0  0  0  0  0  0  0  0  0  0
   62.7043   34.3021   46.0669 H   0  0  0  0  0  0  0  0  0  0  0  0
   63.3586   32.2351   48.2288 H   0  0  0  0  0  0  0  0  0  0  0  0
   64.3151   33.6105   47.7929 H   0  0  0  0  0  0  0  0  0  0  0  0
   62.6721   33.9462   49.8998 H   0  0  0  0  0  0  0  0  0  0  0  0
   62.5039   35.2086   48.7456 H   0  0  0  0  0  0  0  0  0  0  0  0
   60.9815   32.5512   48.9622 H   0  0  0  0  0  0  0  0  0  0  0  0
   60.2392   35.1188   49.6354 H   0  0  0  0  0  0  0  0  0  0  0  0
   59.2214   34.5695   48.2937 H   0  0  0  0  0  0  0  0  0  0  0  0
   59.6163   34.4399   51.7564 H   0  0  0  0  0  0  0  0  0  0  0  0
   58.5331   32.7649   53.2727 H   0  0  0  0  0  0  0  0  0  0  0  0
   57.6137   30.6877   52.2906 H   0  0  0  0  0  0  0  0  0  0  0  0
   58.8039   31.8506   48.3917 H   0  0  0  0  0  0  0  0  0  0  0  0
  1  2  1  0
  2  3  1  0
  3  4  2  0
  4  5  1  0
  5  6  2  0
  6  7  1  0
  7  8  2  0
  8  9  1  0
  9 10  1  0
 10 11  1  0
 11 12  1  0
 12 13  1  0
 13 14  1  0
 14 15  1  0
 15 16  1  0
 16 17  2  0
 17 18  1  0
 18 19  2  0
 19 20  1  0
 20 21  2  0
  9 22  2  0
 22  2  1  0
 22  5  1  0
 14 10  1  0
 21 16  1  0
  1 23  1  0
  1 24  1  0
  1 25  1  0
  3 26  1  0
  6 27  1  0
  7 28  1  0
  8 29  1  0
 11 30  1  0
 11 31  1  0
 12 32  1  0
 12 33  1  0
 13 34  1  0
 13 35  1  0
 14 36  1  1
 15 37  1  0
 15 38  1  0
 17 39  1  0
 18 40  1  0
 19 41  1  0
 21 42  1  0
M  END
>  <smiles>  (22) 
Cn1cnc2cccc(N3CCCC3Cc3cccnc3)c21

>  <score_type>  (22) 
oracle

>  <origin>  (22) 
adg

>  <m_score__min__energy>  (22) 
-7.1500000000000004

>  <m_primary>  (22) 
energy

$$$$
22:0
     RDKit          3D

 91 94  0  0  0  0  0  0  0  0999 V2000
   58.2840   27.4980   45.9560 C   0  0  0  0  0  0  0  0  0  0  0  0
   58.1870   28.8520   46.6200 C   0  0  0  0  0  0  0  0  0  0  0  0
   58.9150   29.8640   45.9510 N   0  0  0  0  0  0  0  0  0  0  0  0
   60.2530   30.1000   46.3390 C   0  0  0  0  0  0  0  0  0  0  0  0
   60.7250   29.4390   47.5890 C   0  0  0  0  0  0  0  0  0  0  0  0
   58.5650   30.0490   44.5930 C   0  0  0  0  0  0  0  0  0  0  0  0
   57.1120   30.2740   44.3400 C   0  0  0  0  0  0  0  0  0  0  0  0
   56.6950   31.5270   44.8350 O   0  0  0  0  0  0  0  0  0  0  0  0
   57.6570   32.4290   44.3800 C   0  0  0  0  0  0  0  0  0  0  0  0
   57.9850   33.5130   45.3620 C   0  0  0  0  0  0  0  0  0  0  0  0
   57.8670   33.1080   46.7950 C   0  0  0  0  0  0  0  0  0  0  0  0
   58.8540   33.7460   47.6380 N   0  0  0  0  0  0  0  0  0  0  0  0
   59.8680   33.0480   48.3270 C   0  0  0  0  0  0  0  0  0  0  0  0
   61.1990   33.0500   47.9470 C   0  0  0  0  0  0  0  0  0  0  0  0
   61.5040   33.7940   46.8180 C   0  0  0  0  0  0  0  0  0  0  0  0
   62.8010   33.8580   46.3660 C   0  0  0  0  0  0  0  0  0  0  0  0
   63.7830   33.1650   47.0610 C   0  0  0  0  0  0  0  0  0  0  0  0
   63.4490   32.4260   48.1890 C   0  0  0  0  0  0  0  0  0  0  0  0
   62.1470   32.3490   48.6610 C   0  0  0  0  0  0  0  0  0  0  0  0
   61.8330   31.6220   49.7710 N   0  0  0  0  0  0  0  0  0  0  0  0
   62.9020   30.9360   50.4150 C   0  0  0  0  0  0  0  0  0  0  0  0
   60.5500   31.6130   50.1510 C   0  0  0  0  0  0  0  0  0  0  0  0
   60.1440   30.9030   51.2730 C   0  0  0  0  0  0  0  0  0  0  0  0
   58.8550   30.8500   51.7180 C   0  0  0  0  0  0  0  0  0  0  0  0
   58.3620   30.1850   52.7930 O   0  0  0  0  0  0  0  0  0  0  0  0
   58.0920   30.7250   54.0330 C   0  0  0  0  0  0  0  0  0  0  0  0
   56.6280   30.7700   54.3120 C   0  0  0  0  0  0  0  0  0  0  0  0
   56.1010   29.4030   54.4990 N   0  0  0  0  0  0  0  0  0  0  0  0
   57.1090   28.5620   55.1050 C   0  0  0  0  0  0  0  0  0  0  0  0
   55.7940   28.9280   53.1720 C   0  0  0  0  0  0  0  0  0  0  0  0
   54.3120   28.9490   52.8590 C   0  0  0  0  0  0  0  0  0  0  0  0
   53.5270   28.1740   53.7980 N   0  0  0  0  0  0  0  0  0  0  0  0
   52.1550   28.6460   53.7160 C   0  0  0  0  0  0  0  0  0  0  0  0
   53.5220   26.7580   53.5010 C   0  0  0  0  0  0  0  0  0  0  0  0
   53.9610   28.3460   55.1510 C   0  0  0  0  0  0  0  0  0  0  0  0
   54.9000   29.5270   55.2770 C   0  0  0  0  0  0  0  0  0  0  0  0
   57.9160   31.5790   50.9620 C   0  0  0  0  0  0  0  0  0  0  0  0
   58.2540   32.2930   49.8560 C   0  0  0  0  0  0  0  0  0  0  0  0
   59.5730   32.3000   49.4630 C   0  0  0  0  0  0  0  0  0  0  0  0
   58.3401   26.7149   46.7265 H   0  0  0  0  0  0  0  0  0  0  0  0
   57.3954   27.3326   45.3291 H   0  0  0  0  0  0  0  0  0  0  0  0
   59.1871   27.4609   45.3291 H   0  0  0  0  0  0  0  0  0  0  0  0
   57.1282   29.1486   46.6521 H   0  0  0  0  0  0  0  0  0  0  0  0
   58.6236   28.7508   47.6246 H   0  0  0  0  0  0  0  0  0  0  0  0
   60.9010   29.7581   45.5185 H   0  0  0  0  0  0  0  0  0  0  0  0
   60.3012   31.1781   46.5519 H   0  0  0  0  0  0  0  0  0  0  0  0
   60.3357   29.9841   48.4615 H   0  0  0  0  0  0  0  0  0  0  0  0
   60.3629   28.4006   47.6139 H   0  0  0  0  0  0  0  0  0  0  0  0
   61.8247   29.4445   47.6139 H   0  0  0  0  0  0  0  0  0  0  0  0
   59.1162   30.9225   44.2148 H   0  0  0  0  0  0  0  0  0  0  0  0
   58.8244   29.1118   44.0789 H   0  0  0  0  0  0  0  0  0  0  0  0
   56.9268   30.2369   43.2563 H   0  0  0  0  0  0  0  0  0  0  0  0
   56.5429   29.4883   44.8585 H   0  0  0  0  0  0  0  0  0  0  0  0
   58.5788   31.8706   44.1597 H   0  0  0  0  0  0  0  0  0  0  0  0
   57.2383   32.9206   43.4895 H   0  0  0  0  0  0  0  0  0  0  0  0
   59.0201   33.8385   45.1812 H   0  0  0  0  0  0  0  0  0  0  0  0
   57.2478   34.3135   45.2017 H   0  0  0  0  0  0  0  0  0  0  0  0
   56.8650   33.3820   47.1569 H   0  0  0  0  0  0  0  0  0  0  0  0
   58.0358   32.0224   46.8486 H   0  0  0  0  0  0  0  0  0  0  0  0
   58.8000   34.7810   47.7330 H   0  0  0  0  0  0  0  0  0  0  0  0
   60.7082   34.3334   46.2835 H   0  0  0  0  0  0  0  0  0  0  0  0
   63.0554   34.4463   45.4720 H   0  0  0  0  0  0  0  0  0  0  0  0
   64.8275   33.2011   46.7179 H   0  0  0  0  0  0  0  0  0  0  0  0
   64.2425   31.8846   48.7250 H   0  0  0  0  0  0  0  0  0  0  0  0
   62.7825   31.0127   51.5058 H   0  0  0  0  0  0  0  0  0  0  0  0
   62.8895   29.8768   50.1183 H   0  0  0  0  0  0  0  0  0  0  0  0
   63.8597   31.3886   50.1183 H   0  0  0  0  0  0  0  0  0  0  0  0
   60.9083   30.3492   51.8379 H   0  0  0  0  0  0  0  0  0  0  0  0
   58.5822   30.1110   54.8029 H   0  0  0  0  0  0  0  0  0  0  0  0
   58.4739   31.7565   54.0466 H   0  0  0  0  0  0  0  0  0  0  0  0
   56.4503   31.3559   55.2259 H   0  0  0  0  0  0  0  0  0  0  0  0
   56.1148   31.2384   53.4592 H   0  0  0  0  0  0  0  0  0  0  0  0
   57.0309   28.6272   56.2003 H   0  0  0  0  0  0  0  0  0  0  0  0
   56.9561   27.5199   54.7879 H   0  0  0  0  0  0  0  0  0  0  0  0
   58.1069   28.8991   54.7879 H   0  0  0  0  0  0  0  0  0  0  0  0
   56.3144   29.5665   52.4430 H   0  0  0  0  0  0  0  0  0  0  0  0
   56.1255   27.8807   53.1147 H   0  0  0  0  0  0  0  0  0  0  0  0
   53.9623   29.9916   52.8855 H   0  0  0  0  0  0  0  0  0  0  0  0
   54.1779   28.4977   51.8648 H   0  0  0  0  0  0  0  0  0  0  0  0
   51.7535   28.7841   54.7307 H   0  0  0  0  0  0  0  0  0  0  0  0
   52.1287   29.6049   53.1776 H   0  0  0  0  0  0  0  0  0  0  0  0
   51.5443   27.9063   53.1776 H   0  0  0  0  0  0  0  0  0  0  0  0
   53.5200   26.1863   54.4407 H   0  0  0  0  0  0  0  0  0  0  0  0
   52.6230   26.5088   52.9182 H   0  0  0  0  0  0  0  0  0  0  0  0
   54.4192   26.5024   52.9182 H   0  0  0  0  0  0  0  0  0  0  0  0
   53.0826   28.5157   55.7911 H   0  0  0  0  0  0  0  0  0  0  0  0
   54.4979   27.4382   55.4634 H   0  0  0  0  0  0  0  0  0  0  0  0
   54.3659   30.4304   54.9475 H   0  0  0  0  0  0  0  0  0  0  0  0
   55.2076   29.5784   56.3319 H   0  0  0  0  0  0  0  0  0  0  0  0
   56.8632   31.5700   51.2808 H   0  0  0  0  0  0  0  0  0  0  0  0
   57.4934   32.8506   49.2899 H   0  0  0  0  0  0  0  0  0  0  0  0
  1  2  1  0
  2  3  1  0
  3  4  1  0
  4  5  1  0
  3  6  1  0
  6  7  1  0
  7  8  1  0
  8  9  1  0
  9 10  1  0
 10 11  1  0
 11 12  1  0
 12 13  1  0
 13 14  2  0
 14 15  1  0
 15 16  2  0
 16 17  1  0
 17 18  2  0
 18 19  1  0
 19 20  2  0
 20 21  1  0
 20 22  1  0
 22 23  2  0
 23 24  1  0
 24 25  1  0
 25 26  1  0
 26 27  1  0
 27 28  1  0
 28 29  1  0
 28 30  1  0
 30 31  1  0
 31 32  1  0
 32 33  1  0
 32 34  1  0
 32 35  1  0
 35 36  1  0
 24 37  2  0
 37 38  1  0
 38 39  2  0
 39 13  1  0
 19 14  1  0
 39 22  1  0
 36 28  1  0
  1 40  1  0
  1 41  1  0
  1 42  1  0
  2 43  1  0
  2 44  1  0
  4 45  1  0
  4 46  1  0
  5 47  1  0
  5 48  1  0
  5 49  1  0
  6 50  1  0
  6 51  1  0
  7 52  1  0
  7 53  1  0
  9 54  1  0
  9 55  1  0
 10 56  1  0
 10 57  1  0
 11 58  1  0
 11 59  1  0
 12 60  1  0
 15 61  1  0
 16 62  1  0
 17 63  1  0
 18 64  1  0
 21 65  1  0
 21 66  1  0
 21 67  1  0
 23 68  1  0
 26 69  1  0
 26 70  1  0
 27 71  1  0
 27 72  1  0
 29 73  1  0
 29 74  1  0
 29 75  1  0
 30 76  1  0
 30 77  1  0
 31 78  1  0
 31 79  1  0
 33 80  1  0
 33 81  1  0
 33 82  1  0
 34 83  1  0
 34 84  1  0
 34 85  1  0
 35 86  1  0
 35 87  1  0
 36 88  1  0
 36 89  1  0
 37 90  1  0
 38 91  1  0
M  CHG  3  20   1  28   1  32   1
M  END
>  <smiles>  (23) 
CCN(CC)CCOCCCNc1c2ccccc2[n+](C)c2cc(OCC[N+]3(C)CC[N+](C)(C)CC3)ccc12

>  <score_type>  (23) 
oracle

>  <origin>  (23) 
adg

>  <m_score__min__energy>  (23) 
-4.8799999999999999

>  <m_primary>  (23) 
energy

$$$$
23:0
     RDKit          3D

 39 41  0  0  0  0  0  0  0  0999 V2000
   63.6380   32.9060   47.1020 C   0  0  0  0  0  0  0  0  0  0  0  0
   62.3770   33.4950   47.5130 N   0  0  0  0  0  0  0  0  0  0  0  0
   61.4110   33.8780   46.6380 C   0  0  0  0  0  0  0  0  0  0  0  0
   60.3640   34.3900   47.3960 C   0  0  0  0  0  0  0  0  0  0  0  0
   59.1250   34.9110   46.7930 C   0  0  0  0  0  0  0  0  0  0  0  0
   58.1640   33.8580   46.7670 N   0  0  0  0  0  0  0  0  0  0  0  0
   58.6180   32.6110   47.2730 C   0  0  0  0  0  0  0  0  0  0  0  0
   58.1570   31.3860   46.5570 C   0  0  0  0  0  0  0  0  0  0  0  0
   58.0060   31.5620   45.1400 N   0  0  0  0  0  0  0  0  0  0  0  0
   57.6430   30.4690   44.3080 C   0  0  0  0  0  0  0  0  0  0  0  0
   56.6260   30.3760   43.3770 C   0  0  0  0  0  0  0  0  0  0  0  0
   56.6460   29.1530   42.8180 N   0  0  0  0  0  0  0  0  0  0  0  0
   57.6460   28.4710   43.3690 N   0  0  0  0  0  0  0  0  0  0  0  0
   58.0660   27.1020   43.0880 C   0  0  0  0  0  0  0  0  0  0  0  0
   58.2710   29.2410   44.2770 C   0  0  0  0  0  0  0  0  0  0  0  0
   58.2350   32.8860   44.5950 C   0  0  0  0  0  0  0  0  0  0  0  0
   57.4920   33.8370   45.5090 C   0  0  0  0  0  0  0  0  0  0  0  0
   60.7710   34.2820   48.6960 C   0  0  0  0  0  0  0  0  0  0  0  0
   62.0020   33.7340   48.7500 N   0  0  0  0  0  0  0  0  0  0  0  0
   64.2227   32.6329   47.9928 H   0  0  0  0  0  0  0  0  0  0  0  0
   63.4435   32.0056   46.5008 H   0  0  0  0  0  0  0  0  0  0  0  0
   64.2036   33.6331   46.5008 H   0  0  0  0  0  0  0  0  0  0  0  0
   61.4497   33.7984   45.5416 H   0  0  0  0  0  0  0  0  0  0  0  0
   58.7425   35.7492   47.3939 H   0  0  0  0  0  0  0  0  0  0  0  0
   59.3217   35.2706   45.7722 H   0  0  0  0  0  0  0  0  0  0  0  0
   59.7175   32.6201   47.2427 H   0  0  0  0  0  0  0  0  0  0  0  0
   58.1850   32.5349   48.2813 H   0  0  0  0  0  0  0  0  0  0  0  0
   58.8922   30.5864   46.7302 H   0  0  0  0  0  0  0  0  0  0  0  0
   57.1620   31.1388   46.9557 H   0  0  0  0  0  0  0  0  0  0  0  0
   55.9124   31.1764   43.1317 H   0  0  0  0  0  0  0  0  0  0  0  0
   58.2301   26.5671   44.0351 H   0  0  0  0  0  0  0  0  0  0  0  0
   57.2836   26.5900   42.5086 H   0  0  0  0  0  0  0  0  0  0  0  0
   59.0009   27.1169   42.5086 H   0  0  0  0  0  0  0  0  0  0  0  0
   59.1346   28.9430   44.8898 H   0  0  0  0  0  0  0  0  0  0  0  0
   59.3101   33.1188   44.5909 H   0  0  0  0  0  0  0  0  0  0  0  0
   57.8848   32.9641   43.5552 H   0  0  0  0  0  0  0  0  0  0  0  0
   57.4869   34.8465   45.0721 H   0  0  0  0  0  0  0  0  0  0  0  0
   56.4510   33.5061   45.6384 H   0  0  0  0  0  0  0  0  0  0  0  0
   60.1813   34.5959   49.5699 H   0  0  0  0  0  0  0  0  0  0  0  0
  1  2  1  0
  2  3  1  0
  3  4  2  0
  4  5  1  0
  5  6  1  0
  6  7  1  0
  7  8  1  0
  8  9  1  0
  9 10  1  0
 10 11  1  0
 11 12  2  0
 12 13  1  0
 13 14  1  0
 13 15  1  0
  9 16  1  0
 16 17  1  0
  4 18  1  0
 18 19  2  0
 19  2  1  0
 17  6  1  0
 15 10  2  0
  1 20  1  0
  1 21  1  0
  1 22  1  0
  3 23  1  0
  5 24  1  0
  5 25  1  0
  7 26  1  0
  7 27  1  0
  8 28  1  0
  8 29  1  0
 11 30  1  0
 14 31  1  0
 14 32  1  0
 14 33  1  0
 15 34  1  0
 16 35  1  0
 16 36  1  0
 17 37  1  0
 17 38  1  0
 18 39  1  0
M  END
>  <smiles>  (24) 
Cn1cc(CN2CCN(c3cnn(C)c3)CC2)cn1

>  <score_type>  (24) 
oracle

>  <origin>  (24) 
adg

>  <m_score__min__energy>  (24) 
-6.2400000000000002

>  <m_primary>  (24) 
energy

$$$$
24:0
     RDKit          3D

 56 58  0  0  0  0  0  0  0  0999 V2000
   57.2860   32.1260   44.5140 C   0  0  0  0  0  0  0  0  0  0  0  0
   57.0250   30.9840   45.2800 O   0  0  0  0  0  0  0  0  0  0  0  0
   57.6900   29.7780   45.1310 C   0  0  0  0  0  0  0  0  0  0  0  0
   57.4060   29.0660   43.9680 C   0  0  0  0  0  0  0  0  0  0  0  0
   58.0110   27.8560   43.7260 C   0  0  0  0  0  0  0  0  0  0  0  0
   58.9020   27.3620   44.6540 C   0  0  0  0  0  0  0  0  0  0  0  0
   59.1730   28.0920   45.8130 C   0  0  0  0  0  0  0  0  0  0  0  0
   58.5750   29.3070   46.0730 C   0  0  0  0  0  0  0  0  0  0  0  0
   58.8890   30.0640   47.2700 N   0  0  0  0  0  0  0  0  0  0  0  0
   59.1310   29.3030   48.4540 C   0  0  0  0  0  0  0  0  0  0  0  0
   59.4510   29.9770   49.7200 C   0  0  0  0  0  0  0  0  0  0  0  0
   58.4130   30.2380   50.7090 C   0  0  0  0  0  0  0  0  0  0  0  0
   57.6660   29.4320   51.2900 O   0  0  0  0  0  0  0  0  0  0  0  0
   58.2090   31.6330   51.0760 N   0  0  0  0  0  0  0  0  0  0  0  0
   58.9980   32.6920   50.5070 C   0  0  0  0  0  0  0  0  0  0  0  0
   59.4540   33.6540   51.5820 C   0  0  0  0  0  0  0  0  0  0  0  0
   58.3780   34.0280   52.4460 N   0  0  0  0  0  0  0  0  0  0  0  0
   58.8880   34.9620   53.4300 C   0  0  0  0  0  0  0  0  0  0  0  0
   57.8060   32.8640   53.0990 C   0  0  0  0  0  0  0  0  0  0  0  0
   57.1860   31.9910   52.0350 C   0  0  0  0  0  0  0  0  0  0  0  0
   58.9890   31.4840   47.0980 C   0  0  0  0  0  0  0  0  0  0  0  0
   60.3890   32.0130   47.2250 C   0  0  0  0  0  0  0  0  0  0  0  0
   61.4170   31.0700   47.3170 C   0  0  0  0  0  0  0  0  0  0  0  0
   62.7210   31.5520   47.4330 C   0  0  0  0  0  0  0  0  0  0  0  0
   62.9870   32.9100   47.4550 C   0  0  0  0  0  0  0  0  0  0  0  0
   61.9660   33.8250   47.3640 C   0  0  0  0  0  0  0  0  0  0  0  0
   60.6690   33.3640   47.2490 C   0  0  0  0  0  0  0  0  0  0  0  0
   59.2590   34.6380   47.1240 Br  0  0  0  0  0  0  0  0  0  0  0  0
   57.4808   32.9785   45.1813 H   0  0  0  0  0  0  0  0  0  0  0  0
   58.1667   31.9484   43.8793 H   0  0  0  0  0  0  0  0  0  0  0  0
   56.4156   32.3486   43.8793 H   0  0  0  0  0  0  0  0  0  0  0  0
   56.6922   29.4752   43.2379 H   0  0  0  0  0  0  0  0  0  0  0  0
   57.7881   27.2921   42.8082 H   0  0  0  0  0  0  0  0  0  0  0  0
   59.3982   26.3954   44.4822 H   0  0  0  0  0  0  0  0  0  0  0  0
   59.8875   27.6842   46.5432 H   0  0  0  0  0  0  0  0  0  0  0  0
   58.2257   28.7050   48.6351 H   0  0  0  0  0  0  0  0  0  0  0  0
   60.0610   28.7653   48.2174 H   0  0  0  0  0  0  0  0  0  0  0  0
   60.2128   29.3607   50.2198 H   0  0  0  0  0  0  0  0  0  0  0  0
   59.7368   30.9877   49.3933 H   0  0  0  0  0  0  0  0  0  0  0  0
   59.8797   32.2595   50.0114 H   0  0  0  0  0  0  0  0  0  0  0  0
   58.3824   33.2404   49.7787 H   0  0  0  0  0  0  0  0  0  0  0  0
   60.2415   33.1728   52.1806 H   0  0  0  0  0  0  0  0  0  0  0  0
   59.8326   34.5629   51.0915 H   0  0  0  0  0  0  0  0  0  0  0  0
   58.6796   34.5803   54.4404 H   0  0  0  0  0  0  0  0  0  0  0  0
   59.9740   35.0768   53.2982 H   0  0  0  0  0  0  0  0  0  0  0  0
   58.3975   35.9377   53.2982 H   0  0  0  0  0  0  0  0  0  0  0  0
   58.5941   32.3069   53.6267 H   0  0  0  0  0  0  0  0  0  0  0  0
   57.0459   33.1717   53.8322 H   0  0  0  0  0  0  0  0  0  0  0  0
   56.7754   31.0805   52.4959 H   0  0  0  0  0  0  0  0  0  0  0  0
   56.3727   32.5338   51.5311 H   0  0  0  0  0  0  0  0  0  0  0  0
   58.6112   31.7395   46.0970 H   0  0  0  0  0  0  0  0  0  0  0  0
   58.3976   31.9465   47.9020 H   0  0  0  0  0  0  0  0  0  0  0  0
   61.2060   29.9906   47.2987 H   0  0  0  0  0  0  0  0  0  0  0  0
   63.5546   30.8383   47.5085 H   0  0  0  0  0  0  0  0  0  0  0  0
   64.0258   33.2602   47.5462 H   0  0  0  0  0  0  0  0  0  0  0  0
   62.1775   34.9043   47.3824 H   0  0  0  0  0  0  0  0  0  0  0  0
  1  2  1  0
  2  3  1  0
  3  4  2  0
  4  5  1  0
  5  6  2  0
  6  7  1  0
  7  8  2  0
  8  9  1  0
  9 10  1  0
 10 11  1  0
 11 12  1  0
 12 13  2  0
 12 14  1  0
 14 15  1  0
 15 16  1  0
 16 17  1  0
 17 18  1  0
 17 19  1  0
 19 20  1  0
  9 21  1  0
 21 22  1  0
 22 23  2  0
 23 24  1  0
 24 25  2  0
 25 26  1  0
 26 27  2  0
 27 28  1  0
  8  3  1  0
 20 14  1  0
 27 22  1  0
  1 29  1  0
  1 30  1  0
  1 31  1  0
  4 32  1  0
  5 33  1  0
  6 34  1  0
  7 35  1  0
 10 36  1  0
 10 37  1  0
 11 38  1  0
 11 39  1  0
 15 40  1  0
 15 41  1  0
 16 42  1  0
 16 43  1  0
 18 44  1  0
 18 45  1  0
 18 46  1  0
 19 47  1  0
 19 48  1  0
 20 49  1  0
 20 50  1  0
 21 51  1  0
 21 52  1  0
 23 53  1  0
 24 54  1  0
 25 55  1  0
 26 56  1  0
M  END
>  <smiles>  (25) 
COc1ccccc1N(CCC(=O)N1CCN(C)CC1)Cc1ccccc1Br

>  <score_type>  (25) 
oracle

>  <origin>  (25) 
adg

>  <m_score__min__energy>  (25) 
-8.1999999999999993

>  <m_primary>  (25) 
energy

$$$$
