0:0
     RDKit          3D

 54 57  0  0  0  0  0  0  0  0999 V2000
   59.6820   28.6210   48.9840 C   0  0  0  0  0  0  0  0  0  0  0  0
   58.4420   28.4440   48.3070 O   0  0  0  0  0  0  0  0  0  0  0  0
   58.1540   28.9450   47.0260 C   0  0  0  0  0  0  0  0  0  0  0  0
   58.2750   30.3100   46.7160 C   0  0  0  0  0  0  0  0  0  0  0  0
   57.9460   30.7960   45.4350 C   0  0  0  0  0  0  0  0  0  0  0  0
   58.0250   32.1710   45.1150 C   0  0  0  0  0  0  0  0  0  0  0  0
   58.3620   33.2110   46.1160 C   0  0  0  0  0  0  0  0  0  0  0  0
   57.4610   34.0160   46.4770 O   0  0  0  0  0  0  0  0  0  0  0  0
   59.6760   33.2970   46.7060 N   0  0  0  0  0  0  0  0  0  0  0  0
   60.2170   34.5920   47.1350 C   0  0  0  0  0  0  0  0  0  0  0  0
   60.8380   34.4700   48.5270 C   0  0  0  0  0  0  0  0  0  0  0  0
   61.7290   33.3020   48.5860 N   0  0  0  0  0  0  0  0  0  0  0  0
   62.9640   33.3460   49.3290 C   0  0  0  0  0  0  0  0  0  0  0  0
   64.0990   32.6280   48.9040 C   0  0  0  0  0  0  0  0  0  0  0  0
   65.2770   32.7000   49.6510 C   0  0  0  0  0  0  0  0  0  0  0  0
   65.3220   33.4810   50.8060 C   0  0  0  0  0  0  0  0  0  0  0  0
   64.1830   34.1870   51.1980 C   0  0  0  0  0  0  0  0  0  0  0  0
   63.0440   34.1050   50.4590 N   0  0  0  0  0  0  0  0  0  0  0  0
   61.2010   32.0080   48.1350 C   0  0  0  0  0  0  0  0  0  0  0  0
   60.5810   32.1410   46.7440 C   0  0  0  0  0  0  0  0  0  0  0  0
   57.7590   32.5810   43.8030 C   0  0  0  0  0  0  0  0  0  0  0  0
   57.3930   31.6840   42.8400 N   0  0  0  0  0  0  0  0  0  0  0  0
   57.0830   32.1720   41.4900 C   0  0  0  0  0  0  0  0  0  0  0  0
   57.2610   30.3540   43.1370 C   0  0  0  0  0  0  0  0  0  0  0  0
   56.8870   29.5440   42.2400 O   0  0  0  0  0  0  0  0  0  0  0  0
   57.5430   29.8810   44.4360 C   0  0  0  0  0  0  0  0  0  0  0  0
   57.4350   28.5110   44.7500 C   0  0  0  0  0  0  0  0  0  0  0  0
   57.7330   28.0430   46.0410 C   0  0  0  0  0  0  0  0  0  0  0  0
   57.6270   26.6850   46.3860 O   0  0  0  0  0  0  0  0  0  0  0  0
   57.7950   25.6040   45.4750 C   0  0  0  0  0  0  0  0  0  0  0  0
   59.5132   28.5969   50.0707 H   0  0  0  0  0  0  0  0  0  0  0  0
   60.3723   27.8123   48.7022 H   0  0  0  0  0  0  0  0  0  0  0  0
   60.1185   29.5906   48.7022 H   0  0  0  0  0  0  0  0  0  0  0  0
   58.6322   31.0103   47.4854 H   0  0  0  0  0  0  0  0  0  0  0  0
   60.9873   34.9185   46.4208 H   0  0  0  0  0  0  0  0  0  0  0  0
   59.4005   35.3283   47.1695 H   0  0  0  0  0  0  0  0  0  0  0  0
   61.4162   35.3794   48.7477 H   0  0  0  0  0  0  0  0  0  0  0  0
   60.0348   34.3460   49.2683 H   0  0  0  0  0  0  0  0  0  0  0  0
   64.0579   32.0156   47.9912 H   0  0  0  0  0  0  0  0  0  0  0  0
   66.1682   32.1415   49.3289 H   0  0  0  0  0  0  0  0  0  0  0  0
   66.2450   33.5400   51.4015 H   0  0  0  0  0  0  0  0  0  0  0  0
   64.2068   34.8096   52.1045 H   0  0  0  0  0  0  0  0  0  0  0  0
   62.0205   31.2752   48.0980 H   0  0  0  0  0  0  0  0  0  0  0  0
   60.4262   31.6733   48.8405 H   0  0  0  0  0  0  0  0  0  0  0  0
   61.3800   32.2793   46.0007 H   0  0  0  0  0  0  0  0  0  0  0  0
   60.0113   31.2286   46.5138 H   0  0  0  0  0  0  0  0  0  0  0  0
   57.8464   33.6462   43.5426 H   0  0  0  0  0  0  0  0  0  0  0  0
   56.4944   33.0985   41.5612 H   0  0  0  0  0  0  0  0  0  0  0  0
   58.0193   32.3731   40.9488 H   0  0  0  0  0  0  0  0  0  0  0  0
   56.5031   31.4099   40.9488 H   0  0  0  0  0  0  0  0  0  0  0  0
   57.1135   27.7997   43.9750 H   0  0  0  0  0  0  0  0  0  0  0  0
   57.9402   24.6698   46.0373 H   0  0  0  0  0  0  0  0  0  0  0  0
   56.8998   25.5155   44.8419 H   0  0  0  0  0  0  0  0  0  0  0  0
   58.6748   25.7914   44.8419 H   0  0  0  0  0  0  0  0  0  0  0  0
  1  2  1  0
  2  3  1  0
  3  4  2  0
  4  5  1  0
  5  6  1  0
  6  7  1  0
  7  8  2  0
  7  9  1  0
  9 10  1  0
 10 11  1  0
 11 12  1  0
 12 13  1  0
 13 14  2  0
 14 15  1  0
 15 16  2  0
 16 17  1  0
 17 18  2  0
 12 19  1  0
 19 20  1  0
  6 21  2  0
 21 22  1  0
 22 23  1  0
 22 24  1  0
 24 25  2  0
 24 26  1  0
 26 27  1  0
 27 28  2  0
 28 29  1  0
 29 30  1  0
 28  3  1  0
 26  5  2  0
 20  9  1  0
 18 13  1  0
  1 31  1  0
  1 32  1  0
  1 33  1  0
  4 34  1  0
 10 35  1  0
 10 36  1  0
 11 37  1  0
 11 38  1  0
 14 39  1  0
 15 40  1  0
 16 41  1  0
 17 42  1  0
 19 43  1  0
 19 44  1  0
 20 45  1  0
 20 46  1  0
 21 47  1  0
 23 48  1  0
 23 49  1  0
 23 50  1  0
 27 51  1  0
 30 52  1  0
 30 53  1  0
 30 54  1  0
M  END
>  <UniqueID>  (1) 
1

>  <SMILES>  (1) 
COc1cc2c(C(=O)N3CCN(c4ccccn4)CC3)cn(C)c(=O)c2cc1OC

>  <Energy>  (1) 
74.139915935057

>  <Genealogy>  (1) 
COc1cc2c(C(=O)N3CCN(c4ccccn4)CC3)cn(C)c(=O)c2cc1OC (3D coordinates assigned)
COc1cc2c(C(=O)N3CCN(c4ccccn4)CC3)cn(C)c(=O)c2cc1OC (nonaromatic ring conformer: 74.139915935057 kcal/mol)

>  <smiles>  (1) 
COc1cc2c(C(=O)N3CCN(c4ccccn4)CC3)cn(C)c(=O)c2cc1OC

>  <score_type>  (1) 
oracle

>  <origin>  (1) 
adg

>  <m_score__min__energy>  (1) 
-7.4100000000000001

>  <m_primary>  (1) 
energy

$$$$
1:0
     RDKit          3D

 56 59  0  0  0  0  0  0  0  0999 V2000
   59.9931   35.6688   46.8925 H   0  0  0  0  0  0  0  0  0  0  0  0
   60.0650   34.5950   47.1200 C   0  0  0  0  0  0  0  0  0  0  0  0
   61.0070   34.1940   47.9840 C   0  0  0  0  0  0  0  0  0  0  0  0
   62.0567   34.4566   47.7861 H   0  0  0  0  0  0  0  0  0  0  0  0
   60.6830   33.4120   49.1920 C   0  0  0  0  0  0  0  0  0  0  0  0
   59.4240   32.9440   49.5180 C   0  0  0  0  0  0  0  0  0  0  0  0
   58.5035   33.1254   48.9437 H   0  0  0  0  0  0  0  0  0  0  0  0
   59.5120   32.2270   50.6590 N   0  0  0  0  0  0  0  0  0  0  0  0
   58.4250   31.5650   51.3370 C   0  0  0  0  0  0  0  0  0  0  0  0
   57.2710   32.2790   51.7080 C   0  0  0  0  0  0  0  0  0  0  0  0
   57.1960   33.3527   51.4809 H   0  0  0  0  0  0  0  0  0  0  0  0
   56.2180   31.6320   52.3640 C   0  0  0  0  0  0  0  0  0  0  0  0
   55.3185   32.1975   52.6488 H   0  0  0  0  0  0  0  0  0  0  0  0
   56.3070   30.2690   52.6580 C   0  0  0  0  0  0  0  0  0  0  0  0
   55.4784   29.7619   53.1741 H   0  0  0  0  0  0  0  0  0  0  0  0
   57.4490   29.5510   52.2960 C   0  0  0  0  0  0  0  0  0  0  0  0
   57.5191   28.4782   52.5286 H   0  0  0  0  0  0  0  0  0  0  0  0
   58.5030   30.1920   51.6390 C   0  0  0  0  0  0  0  0  0  0  0  0
   59.3991   29.6202   51.3561 H   0  0  0  0  0  0  0  0  0  0  0  0
   60.7710   32.2310   51.0750 N   0  0  0  0  0  0  0  0  0  0  0  0
   61.1220   31.7590   51.9370 H   0  0  0  0  0  0  0  0  0  0  0  0
   61.5140   32.9530   50.2130 C   0  0  0  0  0  0  0  0  0  0  0  0
   62.9460   33.2520   50.4270 C   0  0  0  0  0  0  0  0  0  0  0  0
   63.3610   34.0470   51.5080 C   0  0  0  0  0  0  0  0  0  0  0  0
   62.6156   34.4415   52.2142 H   0  0  0  0  0  0  0  0  0  0  0  0
   64.7150   34.3400   51.6920 C   0  0  0  0  0  0  0  0  0  0  0  0
   65.0283   34.9754   52.5335 H   0  0  0  0  0  0  0  0  0  0  0  0
   65.6790   33.8260   50.8060 C   0  0  0  0  0  0  0  0  0  0  0  0
   67.0480   34.0990   50.9420 O   0  0  0  0  0  0  0  0  0  0  0  0
   68.0870   33.2220   50.5190 C   0  0  0  0  0  0  0  0  0  0  0  0
   68.5900   32.7975   51.4004 H   0  0  0  0  0  0  0  0  0  0  0  0
   67.6575   32.4092   49.9149 H   0  0  0  0  0  0  0  0  0  0  0  0
   68.8162   33.7819   49.9149 H   0  0  0  0  0  0  0  0  0  0  0  0
   65.2650   33.0100   49.7460 C   0  0  0  0  0  0  0  0  0  0  0  0
   66.0123   32.5936   49.0545 H   0  0  0  0  0  0  0  0  0  0  0  0
   63.9110   32.7200   49.5590 C   0  0  0  0  0  0  0  0  0  0  0  0
   63.6002   32.0712   48.7269 H   0  0  0  0  0  0  0  0  0  0  0  0
   59.1140   33.6740   46.4530 C   0  0  0  0  0  0  0  0  0  0  0  0
   57.8840   34.1080   45.9310 C   0  0  0  0  0  0  0  0  0  0  0  0
   57.6006   35.1680   46.0088 H   0  0  0  0  0  0  0  0  0  0  0  0
   57.0190   33.2020   45.3140 C   0  0  0  0  0  0  0  0  0  0  0  0
   56.0604   33.5544   44.9053 H   0  0  0  0  0  0  0  0  0  0  0  0
   57.3640   31.8420   45.2110 C   0  0  0  0  0  0  0  0  0  0  0  0
   56.5220   30.9040   44.5940 O   0  0  0  0  0  0  0  0  0  0  0  0
   56.7690   30.3130   43.3220 C   0  0  0  0  0  0  0  0  0  0  0  0
   57.1898   29.3062   43.4610 H   0  0  0  0  0  0  0  0  0  0  0  0
   55.8253   30.2418   42.7613 H   0  0  0  0  0  0  0  0  0  0  0  0
   57.4827   30.9345   42.7613 H   0  0  0  0  0  0  0  0  0  0  0  0
   58.5850   31.3960   45.7380 C   0  0  0  0  0  0  0  0  0  0  0  0
   58.9050   30.0340   45.6200 O   0  0  0  0  0  0  0  0  0  0  0  0
   60.1990   29.4850   45.8520 C   0  0  0  0  0  0  0  0  0  0  0  0
   60.3766   29.4097   46.9350 H   0  0  0  0  0  0  0  0  0  0  0  0
   60.2590   28.4839   45.4001 H   0  0  0  0  0  0  0  0  0  0  0  0
   60.9606   30.1375   45.4001 H   0  0  0  0  0  0  0  0  0  0  0  0
   59.4510   32.3150   46.3630 C   0  0  0  0  0  0  0  0  0  0  0  0
   60.4034   31.9625   46.7858 H   0  0  0  0  0  0  0  0  0  0  0  0
  1  2  1  0
  2  3  2  0
  3  4  1  0
  3  5  1  0
  5  6  2  0
  6  7  1  0
  6  8  1  0
  8  9  1  0
  9 10  2  0
 10 11  1  0
 10 12  1  0
 12 13  1  0
 12 14  2  0
 14 15  1  0
 14 16  1  0
 16 17  1  0
 16 18  2  0
 18 19  1  0
  8 20  1  0
 20 21  1  0
 20 22  2  0
 22 23  1  0
 23 24  2  0
 24 25  1  0
 24 26  1  0
 26 27  1  0
 26 28  2  0
 28 29  1  0
 29 30  1  0
 30 31  1  0
 30 32  1  0
 30 33  1  0
 28 34  1  0
 34 35  1  0
 34 36  2  0
 36 37  1  0
  2 38  1  0
 38 39  2  0
 39 40  1  0
 39 41  1  0
 41 42  1  0
 41 43  2  0
 43 44  1  0
 44 45  1  0
 45 46  1  0
 45 47  1  0
 45 48  1  0
 43 49  1  0
 49 50  1  0
 50 51  1  0
 51 52  1  0
 51 53  1  0
 51 54  1  0
 49 55  2  0
 55 56  1  0
 22  5  1  0
 36 23  1  0
 55 38  1  0
 18  9  1  0
M  CHG  1  20   1
M  END
>  <UniqueID>  (2) 
2

>  <SMILES>  (2) 
COc1ccc(-c2[nH+]n(-c3ccccc3)cc2/C=C/c2ccc(OC)c(OC)c2)cc1

>  <Energy>  (2) 
101.42728764470472

>  <Genealogy>  (2) 
COc1ccc(-c2[nH+]n(-c3ccccc3)cc2C=Cc2ccc(OC)c(OC)c2)cc1 (protonated)
COc1ccc(-c2[nH+]n(-c3ccccc3)cc2/C=C/c2ccc(OC)c(OC)c2)cc1 (cis-trans isomerization)
COc1ccc(-c2[nH+]n(-c3ccccc3)cc2/C=C/c2ccc(OC)c(OC)c2)cc1 (3D coordinates assigned)
COc1ccc(-c2[nH+]n(-c3ccccc3)cc2/C=C/c2ccc(OC)c(OC)c2)cc1 (optimized conformer: 101.42728764470472 kcal/mol)

>  <smiles>  (2) 
COc1ccc(-c2nn(-c3ccccc3)cc2C=Cc2ccc(OC)c(OC)c2)cc1

>  <score_type>  (2) 
oracle

>  <origin>  (2) 
adg

>  <m_score__min__energy>  (2) 
-7.3499999999999996

>  <m_primary>  (2) 
energy

$$$$
2:0
     RDKit          3D

 61 63  0  0  0  0  0  0  0  0999 V2000
   61.6340   29.2280   50.8350 C   0  0  0  0  0  0  0  0  0  0  0  0
   62.3770   30.5010   50.3970 C   0  0  0  0  0  0  0  0  0  0  0  0
   61.6380   31.3700   49.4420 N   0  0  2  0  0  0  0  0  0  0  0  0
   60.3580   30.7510   49.0130 C   0  0  0  0  0  0  0  0  0  0  0  0
   59.7070   31.5010   47.8670 C   0  0  0  0  0  0  0  0  0  0  0  0
   59.0240   32.7040   48.0350 C   0  0  0  0  0  0  0  0  0  0  0  0
   58.5380   33.0300   46.7920 C   0  0  0  0  0  0  0  0  0  0  0  0
   57.7860   34.1290   46.3790 C   0  0  0  0  0  0  0  0  0  0  0  0
   57.4040   34.1930   45.0290 C   0  0  0  0  0  0  0  0  0  0  0  0
   57.7700   33.1660   44.1330 C   0  0  0  0  0  0  0  0  0  0  0  0
   58.5260   32.0660   44.5800 C   0  0  0  0  0  0  0  0  0  0  0  0
   58.9040   32.0320   45.9270 C   0  0  0  0  0  0  0  0  0  0  0  0
   59.6170   31.0790   46.5690 N   0  0  0  0  0  0  0  0  0  0  0  0
   60.0950   29.8250   45.9620 C   0  0  0  0  0  0  0  0  0  0  0  0
   59.0620   28.7140   46.0440 C   0  0  0  0  0  0  0  0  0  0  0  0
   57.9450   28.7270   45.1890 C   0  0  0  0  0  0  0  0  0  0  0  0
   56.9950   27.7070   45.2320 C   0  0  0  0  0  0  0  0  0  0  0  0
   57.1430   26.6430   46.1260 C   0  0  0  0  0  0  0  0  0  0  0  0
   56.1370   25.5310   46.1710 C   0  0  0  0  0  0  0  0  0  0  0  0
   58.2680   26.5930   46.9560 C   0  0  0  0  0  0  0  0  0  0  0  0
   59.2410   27.6080   46.9160 C   0  0  0  0  0  0  0  0  0  0  0  0
   60.4410   27.4990   47.8200 C   0  0  0  0  0  0  0  0  0  0  0  0
   62.4690   31.7520   48.3060 C   0  0  0  0  0  0  0  0  0  0  0  0
   62.6150   30.9620   47.3800 O   0  0  0  0  0  0  0  0  0  0  0  0
   63.1550   33.1280   48.2310 C   0  0  0  0  0  0  0  0  0  0  0  0
   62.2730   34.2120   48.8920 C   0  0  0  0  0  0  0  0  0  0  0  0
   63.3800   33.5240   46.7600 C   0  0  0  0  0  0  0  0  0  0  0  0
   64.5120   33.0960   48.9630 C   0  0  0  0  0  0  0  0  0  0  0  0
   61.6057   29.1796   51.9336 H   0  0  0  0  0  0  0  0  0  0  0  0
   60.6067   29.2496   50.4424 H   0  0  0  0  0  0  0  0  0  0  0  0
   62.1581   28.3441   50.4424 H   0  0  0  0  0  0  0  0  0  0  0  0
   62.5956   31.0940   51.2973 H   0  0  0  0  0  0  0  0  0  0  0  0
   63.2776   30.1605   49.8651 H   0  0  0  0  0  0  0  0  0  0  0  0
   61.4010   32.2280   49.9880 H   0  0  0  0  0  0  0  0  0  0  0  0
   60.5558   29.7178   48.6915 H   0  0  0  0  0  0  0  0  0  0  0  0
   59.6676   30.7825   49.8688 H   0  0  0  0  0  0  0  0  0  0  0  0
   58.8999   33.2735   48.9679 H   0  0  0  0  0  0  0  0  0  0  0  0
   57.5010   34.9205   47.0877 H   0  0  0  0  0  0  0  0  0  0  0  0
   56.8156   35.0493   44.6677 H   0  0  0  0  0  0  0  0  0  0  0  0
   57.4625   33.2255   43.0785 H   0  0  0  0  0  0  0  0  0  0  0  0
   58.8112   31.2572   43.8911 H   0  0  0  0  0  0  0  0  0  0  0  0
   60.3305   30.0116   44.9038 H   0  0  0  0  0  0  0  0  0  0  0  0
   60.9849   29.4988   46.5203 H   0  0  0  0  0  0  0  0  0  0  0  0
   57.8189   29.5546   44.4754 H   0  0  0  0  0  0  0  0  0  0  0  0
   56.1253   27.7400   44.5593 H   0  0  0  0  0  0  0  0  0  0  0  0
   55.9120   25.2823   47.2186 H   0  0  0  0  0  0  0  0  0  0  0  0
   55.2147   25.8502   45.6637 H   0  0  0  0  0  0  0  0  0  0  0  0
   56.5467   24.6451   45.6637 H   0  0  0  0  0  0  0  0  0  0  0  0
   58.3934   25.7484   47.6494 H   0  0  0  0  0  0  0  0  0  0  0  0
   60.1133   27.5288   48.8696 H   0  0  0  0  0  0  0  0  0  0  0  0
   60.9618   26.5499   47.6253 H   0  0  0  0  0  0  0  0  0  0  0  0
   61.1243   28.3388   47.6253 H   0  0  0  0  0  0  0  0  0  0  0  0
   62.3437   34.1251   49.9863 H   0  0  0  0  0  0  0  0  0  0  0  0
   62.6205   35.2079   48.5800 H   0  0  0  0  0  0  0  0  0  0  0  0
   61.2272   34.0742   48.5800 H   0  0  0  0  0  0  0  0  0  0  0  0
   63.9230   34.4796   46.7165 H   0  0  0  0  0  0  0  0  0  0  0  0
   63.9698   32.7439   46.2564 H   0  0  0  0  0  0  0  0  0  0  0  0
   62.4080   33.6313   46.2564 H   0  0  0  0  0  0  0  0  0  0  0  0
   64.3425   33.1000   50.0499 H   0  0  0  0  0  0  0  0  0  0  0  0
   65.0595   32.1847   48.6806 H   0  0  0  0  0  0  0  0  0  0  0  0
   65.1019   33.9805   48.6806 H   0  0  0  0  0  0  0  0  0  0  0  0
  1  2  1  0
  2  3  1  0
  3  4  1  0
  4  5  1  0
  5  6  2  0
  6  7  1  0
  7  8  2  0
  8  9  1  0
  9 10  2  0
 10 11  1  0
 11 12  2  0
 12 13  1  0
 13 14  1  0
 14 15  1  0
 15 16  2  0
 16 17  1  0
 17 18  2  0
 18 19  1  0
 18 20  1  0
 20 21  2  0
 21 22  1  0
  3 23  1  0
 23 24  2  0
 23 25  1  0
 25 26  1  0
 25 27  1  0
 25 28  1  0
 13  5  1  0
 21 15  1  0
 12  7  1  0
  1 29  1  0
  1 30  1  0
  1 31  1  0
  2 32  1  0
  2 33  1  0
  3 34  1  1
  4 35  1  0
  4 36  1  0
  6 37  1  0
  8 38  1  0
  9 39  1  0
 10 40  1  0
 11 41  1  0
 14 42  1  0
 14 43  1  0
 16 44  1  0
 17 45  1  0
 19 46  1  0
 19 47  1  0
 19 48  1  0
 20 49  1  0
 22 50  1  0
 22 51  1  0
 22 52  1  0
 26 53  1  0
 26 54  1  0
 26 55  1  0
 27 56  1  0
 27 57  1  0
 27 58  1  0
 28 59  1  0
 28 60  1  0
 28 61  1  0
M  CHG  1   3   1
M  END
>  <UniqueID>  (3) 
3

>  <SMILES>  (3) 
CC[N@H+](Cc1cc2ccccc2n1Cc1ccc(C)cc1C)C(=O)C(C)(C)C

>  <Energy>  (3) 
96.3998586451006

>  <Genealogy>  (3) 
CC[NH+](Cc1cc2ccccc2n1Cc1ccc(C)cc1C)C(=O)C(C)(C)C (protonated)
CC[N@H+](Cc1cc2ccccc2n1Cc1ccc(C)cc1C)C(=O)C(C)(C)C (chirality)
CC[N@H+](Cc1cc2ccccc2n1Cc1ccc(C)cc1C)C(=O)C(C)(C)C (3D coordinates assigned)
CC[N@H+](Cc1cc2ccccc2n1Cc1ccc(C)cc1C)C(=O)C(C)(C)C (optimized conformer: 96.3998586451006 kcal/mol)

>  <smiles>  (3) 
CCN(Cc1cc2ccccc2n1Cc1ccc(C)cc1C)C(=O)C(C)(C)C

>  <score_type>  (3) 
oracle

>  <origin>  (3) 
adg

>  <m_score__min__energy>  (3) 
-6.5199999999999996

>  <m_primary>  (3) 
energy

$$$$
3:0
     RDKit          3D

 16 17  0  0  0  0  0  0  0  0999 V2000
   56.7450   30.8140   42.3100 O   0  0  0  0  0  0  0  0  0  0  0  0
   57.3070   31.5060   43.2000 C   0  0  0  0  0  0  0  0  0  0  0  0
   58.0490   32.6940   42.9380 N   0  0  0  0  0  0  0  0  0  0  0  0
   58.4940   33.1310   44.2230 C   0  0  0  0  0  0  0  0  0  0  0  0
   59.2630   34.2610   44.4960 C   0  0  0  0  0  0  0  0  0  0  0  0
   59.6030   34.5280   45.8340 C   0  0  0  0  0  0  0  0  0  0  0  0
   59.1710   33.6680   46.8680 C   0  0  0  0  0  0  0  0  0  0  0  0
   59.6420   34.0480   48.6790 Br  0  0  0  0  0  0  0  0  0  0  0  0
   58.3940   32.5330   46.5710 C   0  0  0  0  0  0  0  0  0  0  0  0
   58.0720   32.2920   45.2380 C   0  0  0  0  0  0  0  0  0  0  0  0
   57.2990   31.2220   44.6290 C   0  0  0  0  0  0  0  0  0  0  0  0
   56.7410   30.2560   45.2120 O   0  0  0  0  0  0  0  0  0  0  0  0
   58.2280   33.1440   42.0130 H   0  0  0  0  0  0  0  0  0  0  0  0
   59.5953   34.9266   43.6857 H   0  0  0  0  0  0  0  0  0  0  0  0
   60.2096   35.4128   46.0772 H   0  0  0  0  0  0  0  0  0  0  0  0
   58.0513   31.8566   47.3679 H   0  0  0  0  0  0  0  0  0  0  0  0
  1  2  2  0
  2  3  1  0
  3  4  1  0
  4  5  2  0
  5  6  1  0
  6  7  2  0
  7  8  1  0
  7  9  1  0
  9 10  2  0
 10 11  1  0
 11 12  2  0
 11  2  1  0
 10  4  1  0
  3 13  1  0
  5 14  1  0
  6 15  1  0
  9 16  1  0
M  END
>  <UniqueID>  (4) 
4

>  <SMILES>  (4) 
O=C1Nc2ccc(Br)cc2C1=O

>  <Energy>  (4) 
48.06120357127858

>  <Genealogy>  (4) 
O=C1Nc2ccc(Br)cc2C1=O (3D coordinates assigned)
O=C1Nc2ccc(Br)cc2C1=O (nonaromatic ring conformer: 48.06120357127858 kcal/mol)

>  <smiles>  (4) 
O=C1Nc2ccc(Br)cc2C1=O

>  <score_type>  (4) 
oracle

>  <origin>  (4) 
adg

>  <m_score__min__energy>  (4) 
-5.7400000000000002

>  <m_primary>  (4) 
energy

$$$$
4:0
     RDKit          3D

 63 64  0  0  0  0  0  0  0  0999 V2000
   63.0290   33.0210   46.7570 N   0  0  0  0  0  0  0  0  0  0  0  0
   63.7230   33.8560   47.7370 C   0  0  0  0  0  0  0  0  0  0  0  0
   64.2870   33.0370   48.9130 C   0  0  0  0  0  0  0  0  0  0  0  0
   63.2490   32.8410   50.0430 C   0  0  0  0  0  0  0  0  0  0  0  0
   61.9660   32.2430   49.5890 N   0  0  0  0  0  0  0  0  0  0  0  0
   61.9020   30.7810   49.8960 C   0  0  0  0  0  0  0  0  0  0  0  0
   60.6520   30.0980   49.3000 C   0  0  0  0  0  0  0  0  0  0  0  0
   60.7130   29.9270   47.7740 C   0  0  0  0  0  0  0  0  0  0  0  0
   61.6700   30.8590   47.1820 N   0  0  0  0  0  0  0  0  0  0  0  0
   60.7990   32.9930   50.1270 C   0  0  0  0  0  0  0  0  0  0  0  0
   60.2800   34.0800   49.1610 C   0  0  0  0  0  0  0  0  0  0  0  0
   60.2110   33.6000   47.7620 N   0  0  0  0  0  0  0  0  0  0  0  0
   59.0470   32.7030   47.5470 C   0  0  0  0  0  0  0  0  0  0  0  0
   57.8250   33.4530   46.9930 C   0  0  0  0  0  0  0  0  0  0  0  0
   58.1300   34.1700   45.7310 N   0  0  0  0  0  0  0  0  0  0  0  0
   57.3870   33.6770   44.5510 C   0  0  0  0  0  0  0  0  0  0  0  0
   58.1490   32.6180   43.7270 C   0  0  0  0  0  0  0  0  0  0  0  0
   57.8560   31.2390   44.2560 C   0  0  0  0  0  0  0  0  0  0  0  0
   58.8590   30.5030   44.9100 C   0  0  0  0  0  0  0  0  0  0  0  0
   58.5960   29.2090   45.3700 C   0  0  0  0  0  0  0  0  0  0  0  0
   57.3330   28.6380   45.1750 C   0  0  0  0  0  0  0  0  0  0  0  0
   57.0050   27.0150   45.7530 Cl  0  0  0  0  0  0  0  0  0  0  0  0
   56.3350   29.3610   44.5140 C   0  0  0  0  0  0  0  0  0  0  0  0
   56.5960   30.6540   44.0510 C   0  0  0  0  0  0  0  0  0  0  0  0
   59.5680   34.3930   45.4780 C   0  0  0  0  0  0  0  0  0  0  0  0
   60.2880   34.7210   46.7890 C   0  0  0  0  0  0  0  0  0  0  0  0
   63.4070   32.0470   46.8030 H   0  0  0  0  0  0  0  0  0  0  0  0
   62.0100   32.9850   46.9850 H   0  0  0  0  0  0  0  0  0  0  0  0
   64.5547   34.3722   47.2352 H   0  0  0  0  0  0  0  0  0  0  0  0
   62.9928   34.5700   48.1457 H   0  0  0  0  0  0  0  0  0  0  0  0
   64.5951   32.0490   48.5404 H   0  0  0  0  0  0  0  0  0  0  0  0
   65.1394   33.5922   49.3316 H   0  0  0  0  0  0  0  0  0  0  0  0
   63.6880   32.1802   50.8050 H   0  0  0  0  0  0  0  0  0  0  0  0
   63.0126   33.8413   50.4348 H   0  0  0  0  0  0  0  0  0  0  0  0
   61.9660   32.3830   48.5530 H   0  0  0  0  0  0  0  0  0  0  0  0
   62.7984   30.2956   49.4825 H   0  0  0  0  0  0  0  0  0  0  0  0
   61.8476   30.6745   50.9895 H   0  0  0  0  0  0  0  0  0  0  0  0
   60.5479   29.1031   49.7575 H   0  0  0  0  0  0  0  0  0  0  0  0
   59.7934   30.7504   49.5174 H   0  0  0  0  0  0  0  0  0  0  0  0
   61.0208   28.8974   47.5391 H   0  0  0  0  0  0  0  0  0  0  0  0
   59.7165   30.1351   47.3573 H   0  0  0  0  0  0  0  0  0  0  0  0
   61.2350   31.8090   47.1590 H   0  0  0  0  0  0  0  0  0  0  0  0
   61.8080   30.5820   46.1820 H   0  0  0  0  0  0  0  0  0  0  0  0
   59.9843   32.2800   50.3220 H   0  0  0  0  0  0  0  0  0  0  0  0
   61.1303   33.5009   51.0448 H   0  0  0  0  0  0  0  0  0  0  0  0
   59.2728   34.3858   49.4804 H   0  0  0  0  0  0  0  0  0  0  0  0
   60.9845   34.9241   49.1934 H   0  0  0  0  0  0  0  0  0  0  0  0
   59.3334   31.9174   46.8323 H   0  0  0  0  0  0  0  0  0  0  0  0
   58.7664   32.2775   48.5218 H   0  0  0  0  0  0  0  0  0  0  0  0
   57.0209   32.7271   46.8021 H   0  0  0  0  0  0  0  0  0  0  0  0
   57.5215   34.2009   47.7404 H   0  0  0  0  0  0  0  0  0  0  0  0
   56.4429   33.2317   44.8980 H   0  0  0  0  0  0  0  0  0  0  0  0
   57.2296   34.5419   43.8898 H   0  0  0  0  0  0  0  0  0  0  0  0
   57.8323   32.6788   42.6753 H   0  0  0  0  0  0  0  0  0  0  0  0
   59.2291   32.8108   43.8053 H   0  0  0  0  0  0  0  0  0  0  0  0
   59.8543   30.9465   45.0605 H   0  0  0  0  0  0  0  0  0  0  0  0
   59.3828   28.6390   45.8858 H   0  0  0  0  0  0  0  0  0  0  0  0
   55.3431   28.9116   44.3581 H   0  0  0  0  0  0  0  0  0  0  0  0
   55.8108   31.2157   43.5237 H   0  0  0  0  0  0  0  0  0  0  0  0
   60.0057   33.4838   45.0401 H   0  0  0  0  0  0  0  0  0  0  0  0
   59.6846   35.2369   44.7822 H   0  0  0  0  0  0  0  0  0  0  0  0
   61.3457   34.9298   46.5707 H   0  0  0  0  0  0  0  0  0  0  0  0
   59.7944   35.5954   47.2382 H   0  0  0  0  0  0  0  0  0  0  0  0
  1  2  1  0
  2  3  1  0
  3  4  1  0
  4  5  1  0
  5  6  1  0
  6  7  1  0
  7  8  1  0
  8  9  1  0
  5 10  1  0
 10 11  1  0
 11 12  1  0
 12 13  1  0
 13 14  1  0
 14 15  1  0
 15 16  1  0
 16 17  1  0
 17 18  1  0
 18 19  2  0
 19 20  1  0
 20 21  2  0
 21 22  1  0
 21 23  1  0
 23 24  2  0
 15 25  1  0
 25 26  1  0
 26 12  1  0
 24 18  1  0
  1 27  1  0
  1 28  1  0
  2 29  1  0
  2 30  1  0
  3 31  1  0
  3 32  1  0
  4 33  1  0
  4 34  1  0
  5 35  1  0
  6 36  1  0
  6 37  1  0
  7 38  1  0
  7 39  1  0
  8 40  1  0
  8 41  1  0
  9 42  1  0
  9 43  1  0
 10 44  1  0
 10 45  1  0
 11 46  1  0
 11 47  1  0
 13 48  1  0
 13 49  1  0
 14 50  1  0
 14 51  1  0
 16 52  1  0
 16 53  1  0
 17 54  1  0
 17 55  1  0
 19 56  1  0
 20 57  1  0
 23 58  1  0
 24 59  1  0
 25 60  1  0
 25 61  1  0
 26 62  1  0
 26 63  1  0
M  CHG  1   5   1
M  END
>  <UniqueID>  (5) 
5

>  <SMILES>  (5) 
NCCC[NH+](CCCN)CCN1CCN(CCc2ccc(Cl)cc2)CC1

>  <Energy>  (5) 
75.17348757707862

>  <Genealogy>  (5) 
NCCC[NH+](CCCN)CCN1CCN(CCc2ccc(Cl)cc2)CC1 (protonated)
NCCC[NH+](CCCN)CCN1CCN(CCc2ccc(Cl)cc2)CC1 (3D coordinates assigned)
NCCC[NH+](CCCN)CCN1CCN(CCc2ccc(Cl)cc2)CC1 (nonaromatic ring conformer: 75.17348757707862 kcal/mol)

>  <smiles>  (5) 
NCCCN(CCCN)CCN1CCN(CCc2ccc(Cl)cc2)CC1

>  <score_type>  (5) 
oracle

>  <origin>  (5) 
adg

>  <m_score__min__energy>  (5) 
-6.2999999999999998

>  <m_primary>  (5) 
energy

$$$$
5:0
     RDKit          3D

 40 42  0  0  0  0  0  0  0  0999 V2000
   58.1630   34.5440   46.0120 C   0  0  0  0  0  0  0  0  0  0  0  0
   58.8100   34.1910   47.3450 C   0  0  0  0  0  0  0  0  0  0  0  0
   59.7840   33.1120   47.1670 N   0  0  0  0  0  0  0  0  0  0  0  0
   61.0950   33.0930   47.5260 C   0  0  0  0  0  0  0  0  0  0  0  0
   61.8420   34.1230   48.1060 C   0  0  0  0  0  0  0  0  0  0  0  0
   63.1910   33.8690   48.4110 C   0  0  0  0  0  0  0  0  0  0  0  0
   63.7670   32.6070   48.1400 C   0  0  0  0  0  0  0  0  0  0  0  0
   62.9990   31.5800   47.5640 C   0  0  0  0  0  0  0  0  0  0  0  0
   61.6680   31.8590   47.2670 C   0  0  0  0  0  0  0  0  0  0  0  0
   60.6620   31.0870   46.7370 C   0  0  0  0  0  0  0  0  0  0  0  0
   60.6480   29.7890   46.3490 N   0  0  0  0  0  0  0  0  0  0  0  0
   59.4690   29.2510   45.8900 C   0  0  0  0  0  0  0  0  0  0  0  0
   59.4020   27.7820   45.5270 C   0  0  0  0  0  0  0  0  0  0  0  0
   58.3820   27.1400   46.2040 F   0  0  0  0  0  0  0  0  0  0  0  0
   59.1710   27.6490   44.1700 F   0  0  0  0  0  0  0  0  0  0  0  0
   60.5920   27.1600   45.8490 F   0  0  0  0  0  0  0  0  0  0  0  0
   58.3020   30.0830   45.8240 C   0  0  0  0  0  0  0  0  0  0  0  0
   56.7230   29.4670   45.2160 S   0  0  0  0  0  0  0  0  0  0  0  0
   56.6610   30.5420   43.7300 C   0  0  0  0  0  0  0  0  0  0  0  0
   56.2700   29.6940   42.5210 C   0  0  0  0  0  0  0  0  0  0  0  0
   58.0060   31.2300   43.4880 C   0  0  0  0  0  0  0  0  0  0  0  0
   58.3620   31.3780   46.2550 N   0  0  0  0  0  0  0  0  0  0  0  0
   59.5430   31.8660   46.6990 C   0  0  0  0  0  0  0  0  0  0  0  0
   57.2105   35.0637   46.1929 H   0  0  0  0  0  0  0  0  0  0  0  0
   58.8358   35.2001   45.4402 H   0  0  0  0  0  0  0  0  0  0  0  0
   57.9755   33.6232   45.4402 H   0  0  0  0  0  0  0  0  0  0  0  0
   59.3209   35.0785   47.7467 H   0  0  0  0  0  0  0  0  0  0  0  0
   58.0295   33.8568   48.0444 H   0  0  0  0  0  0  0  0  0  0  0  0
   61.3880   35.1024   48.3173 H   0  0  0  0  0  0  0  0  0  0  0  0
   63.8046   34.6609   48.8653 H   0  0  0  0  0  0  0  0  0  0  0  0
   64.8249   32.4270   48.3818 H   0  0  0  0  0  0  0  0  0  0  0  0
   63.4342   30.5915   47.3555 H   0  0  0  0  0  0  0  0  0  0  0  0
   61.5220   29.2240   46.4210 H   0  0  0  0  0  0  0  0  0  0  0  0
   55.9112   31.3309   43.8896 H   0  0  0  0  0  0  0  0  0  0  0  0
   55.8325   28.7451   42.8648 H   0  0  0  0  0  0  0  0  0  0  0  0
   55.5324   30.2392   41.9138 H   0  0  0  0  0  0  0  0  0  0  0  0
   57.1636   29.4871   41.9138 H   0  0  0  0  0  0  0  0  0  0  0  0
   58.4744   31.4696   44.4540 H   0  0  0  0  0  0  0  0  0  0  0  0
   58.6643   30.5579   42.9180 H   0  0  0  0  0  0  0  0  0  0  0  0
   57.8463   32.1571   42.9180 H   0  0  0  0  0  0  0  0  0  0  0  0
  1  2  1  0
  2  3  1  0
  3  4  1  0
  4  5  2  0
  5  6  1  0
  6  7  2  0
  7  8  1  0
  8  9  2  0
  9 10  1  0
 10 11  2  0
 11 12  1  0
 12 13  1  0
 13 14  1  0
 13 15  1  0
 13 16  1  0
 12 17  2  0
 17 18  1  0
 18 19  1  0
 19 20  1  0
 19 21  1  0
 17 22  1  0
 22 23  2  0
 23  3  1  0
  9  4  1  0
 23 10  1  0
  1 24  1  0
  1 25  1  0
  1 26  1  0
  2 27  1  0
  2 28  1  0
  5 29  1  0
  6 30  1  0
  7 31  1  0
  8 32  1  0
 11 33  1  0
 19 34  1  0
 20 35  1  0
 20 36  1  0
 20 37  1  0
 21 38  1  0
 21 39  1  0
 21 40  1  0
M  CHG  1  11   1
M  END
>  <UniqueID>  (6) 
6

>  <SMILES>  (6) 
CCn1c2ccccc2c2[nH+]c(C(F)(F)F)c(SC(C)C)nc21

>  <Energy>  (6) 
79.01422319140418

>  <Genealogy>  (6) 
CCn1c2ccccc2c2[nH+]c(C(F)(F)F)c(SC(C)C)nc21 (protonated)
CCn1c2ccccc2c2[nH+]c(C(F)(F)F)c(SC(C)C)nc21 (3D coordinates assigned)
CCn1c2ccccc2c2[nH+]c(C(F)(F)F)c(SC(C)C)nc21 (optimized conformer: 79.01422319140418 kcal/mol)

>  <smiles>  (6) 
CCn1c2ccccc2c2nc(C(F)(F)F)c(SC(C)C)nc21

>  <score_type>  (6) 
oracle

>  <origin>  (6) 
adg

>  <m_score__min__energy>  (6) 
-5.2400000000000002

>  <m_primary>  (6) 
energy

$$$$
6:0
     RDKit          3D

 40 43  0  0  0  0  0  0  0  0999 V2000
   55.1390   23.6180   46.5380 C   0  0  0  0  0  0  0  0  0  0  0  0
   56.2730   24.5150   46.2860 N   0  0  0  0  0  0  0  0  0  0  0  0
   57.5470   24.0190   46.3080 C   0  0  0  0  0  0  0  0  0  0  0  0
   58.6130   24.8310   46.0790 N   0  0  0  0  0  0  0  0  0  0  0  0
   58.4440   26.1550   45.8210 C   0  0  0  0  0  0  0  0  0  0  0  0
   59.5530   26.9810   45.5870 C   0  0  0  0  0  0  0  0  0  0  0  0
   59.3740   28.3410   45.3250 C   0  0  0  0  0  0  0  0  0  0  0  0
   58.0880   28.8930   45.2980 C   0  0  0  0  0  0  0  0  0  0  0  0
   57.8830   30.6140   44.9820 S   0  0  0  0  0  0  0  0  0  0  0  0
   58.5800   30.9440   43.6920 O   0  0  0  0  0  0  0  0  0  0  0  0
   56.4270   30.9620   44.8400 O   0  0  0  0  0  0  0  0  0  0  0  0
   58.5660   31.5550   46.3230 C   0  0  0  0  0  0  0  0  0  0  0  0
   58.7330   30.9190   47.5640 C   0  0  0  0  0  0  0  0  0  0  0  0
   59.2470   31.6130   48.6590 C   0  0  0  0  0  0  0  0  0  0  0  0
   59.6020   32.9540   48.5390 C   0  0  0  0  0  0  0  0  0  0  0  0
   59.4450   33.6180   47.3160 C   0  0  0  0  0  0  0  0  0  0  0  0
   59.8020   34.9710   47.2060 C   0  0  0  0  0  0  0  0  0  0  0  0
   59.6490   35.6440   45.9940 C   0  0  0  0  0  0  0  0  0  0  0  0
   59.1430   34.9740   44.8810 C   0  0  0  0  0  0  0  0  0  0  0  0
   58.7840   33.6260   44.9720 C   0  0  0  0  0  0  0  0  0  0  0  0
   58.9260   32.9230   46.1880 C   0  0  0  0  0  0  0  0  0  0  0  0
   56.9740   28.0730   45.5260 C   0  0  0  0  0  0  0  0  0  0  0  0
   57.1440   26.7020   45.7910 C   0  0  0  0  0  0  0  0  0  0  0  0
   56.0570   25.8430   46.0310 C   0  0  0  0  0  0  0  0  0  0  0  0
   54.8780   26.2990   46.0120 O   0  0  0  0  0  0  0  0  0  0  0  0
   54.9954   23.5044   47.6226 H   0  0  0  0  0  0  0  0  0  0  0  0
   54.2287   24.0431   46.0901 H   0  0  0  0  0  0  0  0  0  0  0  0
   55.3431   22.6343   46.0901 H   0  0  0  0  0  0  0  0  0  0  0  0
   57.7112   22.9509   46.5133 H   0  0  0  0  0  0  0  0  0  0  0  0
   59.5710   24.4140   46.1050 H   0  0  0  0  0  0  0  0  0  0  0  0
   60.5674   26.5561   45.6099 H   0  0  0  0  0  0  0  0  0  0  0  0
   60.2484   28.9819   45.1388 H   0  0  0  0  0  0  0  0  0  0  0  0
   58.4549   29.8604   47.6736 H   0  0  0  0  0  0  0  0  0  0  0  0
   59.3727   31.0981   49.6229 H   0  0  0  0  0  0  0  0  0  0  0  0
   60.0071   33.4937   49.4077 H   0  0  0  0  0  0  0  0  0  0  0  0
   60.2046   35.5034   48.0803 H   0  0  0  0  0  0  0  0  0  0  0  0
   59.9280   36.7052   45.9161 H   0  0  0  0  0  0  0  0  0  0  0  0
   59.0257   35.5085   43.9268 H   0  0  0  0  0  0  0  0  0  0  0  0
   58.3867   33.1076   44.0869 H   0  0  0  0  0  0  0  0  0  0  0  0
   55.9622   28.5037   45.4975 H   0  0  0  0  0  0  0  0  0  0  0  0
  1  2  1  0
  2  3  1  0
  3  4  2  0
  4  5  1  0
  5  6  2  0
  6  7  1  0
  7  8  2  0
  8  9  1  0
  9 10  2  0
  9 11  2  0
  9 12  1  0
 12 13  2  0
 13 14  1  0
 14 15  2  0
 15 16  1  0
 16 17  2  0
 17 18  1  0
 18 19  2  0
 19 20  1  0
 20 21  2  0
  8 22  1  0
 22 23  2  0
 23 24  1  0
 24 25  2  0
 24  2  1  0
 23  5  1  0
 21 12  1  0
 21 16  1  0
  1 26  1  0
  1 27  1  0
  1 28  1  0
  3 29  1  0
  4 30  1  0
  6 31  1  0
  7 32  1  0
 13 33  1  0
 14 34  1  0
 15 35  1  0
 17 36  1  0
 18 37  1  0
 19 38  1  0
 20 39  1  0
 22 40  1  0
M  CHG  1   4   1
M  END
>  <UniqueID>  (7) 
7

>  <SMILES>  (7) 
Cn1c[nH+]c2ccc(S(=O)(=O)c3cccc4ccccc34)cc2c1=O

>  <Energy>  (7) 
58.01653902465366

>  <Genealogy>  (7) 
Cn1c[nH+]c2ccc(S(=O)(=O)c3cccc4ccccc34)cc2c1=O (protonated)
Cn1c[nH+]c2ccc(S(=O)(=O)c3cccc4ccccc34)cc2c1=O (3D coordinates assigned)
Cn1c[nH+]c2ccc(S(=O)(=O)c3cccc4ccccc34)cc2c1=O (optimized conformer: 58.01653902465366 kcal/mol)

>  <smiles>  (7) 
Cn1cnc2ccc(S(=O)(=O)c3cccc4ccccc34)cc2c1=O

>  <score_type>  (7) 
oracle

>  <origin>  (7) 
adg

>  <m_score__min__energy>  (7) 
-7.6399999999999997

>  <m_primary>  (7) 
energy

$$$$
7:0
     RDKit          3D

 61 64  0  0  0  0  0  0  0  0999 V2000
   58.8930   34.1850   52.3140 C   0  0  0  0  0  0  0  0  0  0  0  0
   58.8070   32.9840   51.5570 O   0  0  0  0  0  0  0  0  0  0  0  0
   58.0540   31.8580   51.9280 C   0  0  0  0  0  0  0  0  0  0  0  0
   56.6500   31.9080   52.0420 C   0  0  0  0  0  0  0  0  0  0  0  0
   55.9270   30.7640   52.3870 C   0  0  0  0  0  0  0  0  0  0  0  0
   56.5920   29.5610   52.6230 C   0  0  0  0  0  0  0  0  0  0  0  0
   57.9820   29.4980   52.5170 C   0  0  0  0  0  0  0  0  0  0  0  0
   58.7230   30.6410   52.1770 C   0  0  0  0  0  0  0  0  0  0  0  0
   60.1560   30.5560   52.0820 N   0  0  0  0  0  0  0  0  0  0  0  0
   60.7860   29.5070   51.2720 C   0  0  0  0  0  0  0  0  0  0  0  0
   61.9970   30.0620   50.4980 C   0  0  0  0  0  0  0  0  0  0  0  0
   62.7170   31.1420   51.2180 N   0  0  0  0  0  0  0  0  0  0  0  0
   64.1490   31.2290   50.8580 C   0  0  0  0  0  0  0  0  0  0  0  0
   64.4530   32.2810   49.7580 C   0  0  0  0  0  0  0  0  0  0  0  0
   63.2370   32.6970   49.0170 N   0  0  0  0  0  0  0  0  0  0  0  0
   63.5280   32.7350   47.5590 C   0  0  0  0  0  0  0  0  0  0  0  0
   62.4920   33.5400   46.7410 C   0  0  0  0  0  0  0  0  0  0  0  0
   61.2690   33.7820   47.5110 N   0  0  0  0  0  0  0  0  0  0  0  0
   59.9940   33.7420   46.8540 C   0  0  0  0  0  0  0  0  0  0  0  0
   59.7220   34.6250   45.7980 C   0  0  0  0  0  0  0  0  0  0  0  0
   58.4840   34.5910   45.1520 C   0  0  0  0  0  0  0  0  0  0  0  0
   57.5060   33.6790   45.5570 C   0  0  0  0  0  0  0  0  0  0  0  0
   57.7660   32.8000   46.6120 C   0  0  0  0  0  0  0  0  0  0  0  0
   59.0040   32.8270   47.2650 C   0  0  0  0  0  0  0  0  0  0  0  0
   59.2790   31.7390   48.6180 Cl  0  0  0  0  0  0  0  0  0  0  0  0
   61.3560   34.2950   48.8800 C   0  0  0  0  0  0  0  0  0  0  0  0
   62.7400   34.0120   49.4810 C   0  0  0  0  0  0  0  0  0  0  0  0
   62.4700   31.1750   52.6710 C   0  0  0  0  0  0  0  0  0  0  0  0
   60.9840   31.4350   52.9170 C   0  0  0  0  0  0  0  0  0  0  0  0
   58.8757   33.9440   53.3871 H   0  0  0  0  0  0  0  0  0  0  0  0
   59.8307   34.7058   52.0702 H   0  0  0  0  0  0  0  0  0  0  0  0
   58.0390   34.8341   52.0702 H   0  0  0  0  0  0  0  0  0  0  0  0
   56.1203   32.8543   51.8580 H   0  0  0  0  0  0  0  0  0  0  0  0
   54.8314   30.8118   52.4727 H   0  0  0  0  0  0  0  0  0  0  0  0
   56.0202   28.6609   52.8930 H   0  0  0  0  0  0  0  0  0  0  0  0
   58.5010   28.5458   52.7012 H   0  0  0  0  0  0  0  0  0  0  0  0
   61.1227   28.6950   51.9332 H   0  0  0  0  0  0  0  0  0  0  0  0
   60.0481   29.1319   50.5476 H   0  0  0  0  0  0  0  0  0  0  0  0
   62.7008   29.2367   50.3148 H   0  0  0  0  0  0  0  0  0  0  0  0
   61.6116   30.4975   49.5643 H   0  0  0  0  0  0  0  0  0  0  0  0
   64.7184   31.4958   51.7606 H   0  0  0  0  0  0  0  0  0  0  0  0
   64.4390   30.2480   50.4536 H   0  0  0  0  0  0  0  0  0  0  0  0
   64.8979   33.1683   50.2320 H   0  0  0  0  0  0  0  0  0  0  0  0
   65.1424   31.8192   49.0358 H   0  0  0  0  0  0  0  0  0  0  0  0
   62.4900   31.9760   49.1720 H   0  0  0  0  0  0  0  0  0  0  0  0
   64.5174   33.1932   47.4138 H   0  0  0  0  0  0  0  0  0  0  0  0
   63.4896   31.6975   47.1956 H   0  0  0  0  0  0  0  0  0  0  0  0
   62.9335   34.5071   46.4584 H   0  0  0  0  0  0  0  0  0  0  0  0
   62.2271   32.9541   45.8485 H   0  0  0  0  0  0  0  0  0  0  0  0
   60.4872   35.3473   45.4774 H   0  0  0  0  0  0  0  0  0  0  0  0
   58.2786   35.2837   44.3226 H   0  0  0  0  0  0  0  0  0  0  0  0
   56.5323   33.6529   45.0459 H   0  0  0  0  0  0  0  0  0  0  0  0
   56.9944   32.0837   46.9307 H   0  0  0  0  0  0  0  0  0  0  0  0
   61.1824   35.3812   48.8699 H   0  0  0  0  0  0  0  0  0  0  0  0
   60.5950   33.7915   49.4943 H   0  0  0  0  0  0  0  0  0  0  0  0
   63.4415   34.7982   49.1650 H   0  0  0  0  0  0  0  0  0  0  0  0
   62.6605   34.0001   50.5781 H   0  0  0  0  0  0  0  0  0  0  0  0
   62.7541   30.2097   53.1155 H   0  0  0  0  0  0  0  0  0  0  0  0
   63.0686   31.9746   53.1318 H   0  0  0  0  0  0  0  0  0  0  0  0
   60.7554   31.2465   53.9763 H   0  0  0  0  0  0  0  0  0  0  0  0
   60.7612   32.4805   52.6575 H   0  0  0  0  0  0  0  0  0  0  0  0
  1  2  1  0
  2  3  1  0
  3  4  2  0
  4  5  1  0
  5  6  2  0
  6  7  1  0
  7  8  2  0
  8  9  1  0
  9 10  1  0
 10 11  1  0
 11 12  1  0
 12 13  1  0
 13 14  1  0
 14 15  1  0
 15 16  1  0
 16 17  1  0
 17 18  1  0
 18 19  1  0
 19 20  2  0
 20 21  1  0
 21 22  2  0
 22 23  1  0
 23 24  2  0
 24 25  1  0
 18 26  1  0
 26 27  1  0
 12 28  1  0
 28 29  1  0
  8  3  1  0
 29  9  1  0
 27 15  1  0
 24 19  1  0
  1 30  1  0
  1 31  1  0
  1 32  1  0
  4 33  1  0
  5 34  1  0
  6 35  1  0
  7 36  1  0
 10 37  1  0
 10 38  1  0
 11 39  1  0
 11 40  1  0
 13 41  1  0
 13 42  1  0
 14 43  1  0
 14 44  1  0
 15 45  1  0
 16 46  1  0
 16 47  1  0
 17 48  1  0
 17 49  1  0
 20 50  1  0
 21 51  1  0
 22 52  1  0
 23 53  1  0
 26 54  1  0
 26 55  1  0
 27 56  1  0
 27 57  1  0
 28 58  1  0
 28 59  1  0
 29 60  1  0
 29 61  1  0
M  CHG  1  15   1
M  END
>  <UniqueID>  (8) 
8

>  <SMILES>  (8) 
COc1ccccc1N1CCN(CC[NH+]2CCN(c3ccccc3Cl)CC2)CC1

>  <Energy>  (8) 
87.98684289219989

>  <Genealogy>  (8) 
COc1ccccc1N1CCN(CC[NH+]2CCN(c3ccccc3Cl)CC2)CC1 (protonated)
COc1ccccc1N1CCN(CC[NH+]2CCN(c3ccccc3Cl)CC2)CC1 (3D coordinates assigned)
COc1ccccc1N1CCN(CC[NH+]2CCN(c3ccccc3Cl)CC2)CC1 (nonaromatic ring conformer: 87.98684289219989 kcal/mol)

>  <smiles>  (8) 
COc1ccccc1N1CCN(CCN2CCN(c3ccccc3Cl)CC2)CC1

>  <score_type>  (8) 
oracle

>  <origin>  (8) 
adg

>  <m_score__min__energy>  (8) 
-6.8899999999999997

>  <m_primary>  (8) 
energy

$$$$
8:0
     RDKit          3D

 43 45  0  0  0  0  0  0  0  0999 V2000
   60.3780   27.2100   48.2340 C   0  0  0  0  0  0  0  0  0  0  0  0
   59.5840   26.8630   47.1050 O   0  0  0  0  0  0  0  0  0  0  0  0
   58.9290   27.7920   46.2810 C   0  0  0  0  0  0  0  0  0  0  0  0
   57.5540   27.7050   45.9890 C   0  0  0  0  0  0  0  0  0  0  0  0
   56.9460   28.6580   45.1670 C   0  0  0  0  0  0  0  0  0  0  0  0
   57.7000   29.7110   44.6250 C   0  0  0  0  0  0  0  0  0  0  0  0
   57.0480   30.7640   43.7670 C   0  0  0  0  0  0  0  0  0  0  0  0
   57.9240   31.9470   43.6610 N   0  0  0  0  0  0  0  0  0  0  0  0
   58.0790   32.3470   42.2530 C   0  0  0  0  0  0  0  0  0  0  0  0
   57.4110   33.0770   44.4670 C   0  0  0  0  0  0  0  0  0  0  0  0
   58.5320   33.6840   45.2450 C   0  0  0  0  0  0  0  0  0  0  0  0
   59.4120   32.9810   45.9750 N   0  0  0  0  0  0  0  0  0  0  0  0
   60.2170   33.9400   46.4730 C   0  0  0  0  0  0  0  0  0  0  0  0
   61.4080   33.6930   47.3130 C   0  0  0  0  0  0  0  0  0  0  0  0
   62.6600   33.5660   46.6850 C   0  0  0  0  0  0  0  0  0  0  0  0
   63.8090   33.3090   47.4360 C   0  0  0  0  0  0  0  0  0  0  0  0
   63.7270   33.1870   48.8250 C   0  0  0  0  0  0  0  0  0  0  0  0
   65.1720   32.8670   49.7660 Cl  0  0  0  0  0  0  0  0  0  0  0  0
   62.4930   33.3320   49.4640 C   0  0  0  0  0  0  0  0  0  0  0  0
   61.3330   33.5890   48.7220 C   0  0  0  0  0  0  0  0  0  0  0  0
   59.8380   33.8650   49.6110 Cl  0  0  0  0  0  0  0  0  0  0  0  0
   59.8460   35.1650   46.0450 N   0  0  0  0  0  0  0  0  0  0  0  0
   58.7990   34.9650   45.2960 O   0  0  0  0  0  0  0  0  0  0  0  0
   59.0720   29.7920   44.9120 C   0  0  0  0  0  0  0  0  0  0  0  0
   59.6780   28.8400   45.7350 C   0  0  0  0  0  0  0  0  0  0  0  0
   59.8287   26.9699   49.1563 H   0  0  0  0  0  0  0  0  0  0  0  0
   61.3192   26.6411   48.2092 H   0  0  0  0  0  0  0  0  0  0  0  0
   60.5998   28.2871   48.2092 H   0  0  0  0  0  0  0  0  0  0  0  0
   56.9558   26.8833   46.4098 H   0  0  0  0  0  0  0  0  0  0  0  0
   55.8716   28.5826   44.9437 H   0  0  0  0  0  0  0  0  0  0  0  0
   56.8675   30.3540   42.7624 H   0  0  0  0  0  0  0  0  0  0  0  0
   56.0944   31.0627   44.2267 H   0  0  0  0  0  0  0  0  0  0  0  0
   58.4761   33.3717   42.2045 H   0  0  0  0  0  0  0  0  0  0  0  0
   58.7759   31.6596   41.7511 H   0  0  0  0  0  0  0  0  0  0  0  0
   57.1009   32.3086   41.7511 H   0  0  0  0  0  0  0  0  0  0  0  0
   56.9753   33.8352   43.7996 H   0  0  0  0  0  0  0  0  0  0  0  0
   56.6394   32.7116   45.1607 H   0  0  0  0  0  0  0  0  0  0  0  0
   59.4790   31.9440   46.0750 H   0  0  0  0  0  0  0  0  0  0  0  0
   62.7349   33.6700   45.5925 H   0  0  0  0  0  0  0  0  0  0  0  0
   64.7811   33.2024   46.9324 H   0  0  0  0  0  0  0  0  0  0  0  0
   62.4319   33.2436   50.5587 H   0  0  0  0  0  0  0  0  0  0  0  0
   59.6727   30.6094   44.4865 H   0  0  0  0  0  0  0  0  0  0  0  0
   60.7530   28.9148   45.9557 H   0  0  0  0  0  0  0  0  0  0  0  0
  1  2  1  0
  2  3  1  0
  3  4  2  0
  4  5  1  0
  5  6  2  0
  6  7  1  0
  7  8  1  0
  8  9  1  0
  8 10  1  0
 10 11  1  0
 11 12  2  0
 12 13  1  0
 13 14  1  0
 14 15  2  0
 15 16  1  0
 16 17  2  0
 17 18  1  0
 17 19  1  0
 19 20  2  0
 20 21  1  0
 13 22  2  0
 22 23  1  0
  6 24  1  0
 24 25  2  0
 25  3  1  0
 23 11  1  0
 20 14  1  0
  1 26  1  0
  1 27  1  0
  1 28  1  0
  4 29  1  0
  5 30  1  0
  7 31  1  0
  7 32  1  0
  9 33  1  0
  9 34  1  0
  9 35  1  0
 10 36  1  0
 10 37  1  0
 12 38  1  0
 15 39  1  0
 16 40  1  0
 19 41  1  0
 24 42  1  0
 25 43  1  0
M  CHG  1  12   1
M  END
>  <UniqueID>  (9) 
9

>  <SMILES>  (9) 
COc1ccc(CN(C)Cc2[nH+]c(-c3ccc(Cl)cc3Cl)no2)cc1

>  <Energy>  (9) 
84.03939330085373

>  <Genealogy>  (9) 
COc1ccc(CN(C)Cc2[nH+]c(-c3ccc(Cl)cc3Cl)no2)cc1 (protonated)
COc1ccc(CN(C)Cc2[nH+]c(-c3ccc(Cl)cc3Cl)no2)cc1 (3D coordinates assigned)
COc1ccc(CN(C)Cc2[nH+]c(-c3ccc(Cl)cc3Cl)no2)cc1 (optimized conformer: 84.03939330085373 kcal/mol)

>  <smiles>  (9) 
COc1ccc(CN(C)Cc2nc(-c3ccc(Cl)cc3Cl)no2)cc1

>  <score_type>  (9) 
oracle

>  <origin>  (9) 
adg

>  <m_score__min__energy>  (9) 
-6.5300000000000002

>  <m_primary>  (9) 
energy

$$$$
9:0
     RDKit          3D

 38 39  0  0  0  0  0  0  0  0999 V2000
   59.3820   26.9380   47.7300 C   0  0  0  0  0  0  0  0  0  0  0  0
   59.7870   28.3450   47.3930 C   0  0  0  0  0  0  0  0  0  0  0  0
   60.4530   29.1340   48.3470 C   0  0  0  0  0  0  0  0  0  0  0  0
   60.8380   30.4390   48.0390 C   0  0  0  0  0  0  0  0  0  0  0  0
   60.5640   30.9700   46.7770 C   0  0  0  0  0  0  0  0  0  0  0  0
   59.9040   30.1970   45.8200 C   0  0  0  0  0  0  0  0  0  0  0  0
   59.5110   28.8760   46.1170 C   0  0  0  0  0  0  0  0  0  0  0  0
   58.8470   28.0660   45.1790 O   0  0  0  0  0  0  0  0  0  0  0  0
   57.4330   27.8910   45.0870 C   0  0  0  0  0  0  0  0  0  0  0  0
   56.7830   29.1190   44.5250 C   0  0  0  0  0  0  0  0  0  0  0  0
   55.5950   29.3960   44.8460 O   0  0  0  0  0  0  0  0  0  0  0  0
   57.5020   29.9590   43.6110 N   0  0  0  0  0  0  0  0  0  0  0  0
   56.9210   31.1680   43.0330 C   0  0  0  0  0  0  0  0  0  0  0  0
   57.8740   32.3260   43.1590 C   0  0  0  0  0  0  0  0  0  0  0  0
   58.4740   32.7150   42.1190 O   0  0  0  0  0  0  0  0  0  0  0  0
   58.1430   33.0030   44.4580 C   0  0  0  0  0  0  0  0  0  0  0  0
   59.1130   34.0230   44.5290 C   0  0  0  0  0  0  0  0  0  0  0  0
   59.3820   34.6660   45.7410 C   0  0  0  0  0  0  0  0  0  0  0  0
   58.6890   34.3040   46.8960 C   0  0  0  0  0  0  0  0  0  0  0  0
   57.7240   33.2970   46.8430 C   0  0  0  0  0  0  0  0  0  0  0  0
   57.4500   32.6490   45.6340 C   0  0  0  0  0  0  0  0  0  0  0  0
   59.3475   26.8182   48.8229 H   0  0  0  0  0  0  0  0  0  0  0  0
   58.3879   26.7313   47.3069 H   0  0  0  0  0  0  0  0  0  0  0  0
   60.1141   26.2344   47.3069 H   0  0  0  0  0  0  0  0  0  0  0  0
   60.6719   28.7199   49.3423 H   0  0  0  0  0  0  0  0  0  0  0  0
   61.3580   31.0504   48.7912 H   0  0  0  0  0  0  0  0  0  0  0  0
   60.8687   31.9992   46.5364 H   0  0  0  0  0  0  0  0  0  0  0  0
   59.6893   30.6212   44.8281 H   0  0  0  0  0  0  0  0  0  0  0  0
   57.2170   27.0353   44.4304 H   0  0  0  0  0  0  0  0  0  0  0  0
   57.0327   27.7088   46.0952 H   0  0  0  0  0  0  0  0  0  0  0  0
   58.4920   29.7200   43.3770 H   0  0  0  0  0  0  0  0  0  0  0  0
   56.7045   30.9920   41.9690 H   0  0  0  0  0  0  0  0  0  0  0  0
   55.9948   31.4103   43.5747 H   0  0  0  0  0  0  0  0  0  0  0  0
   59.6634   34.3158   43.6227 H   0  0  0  0  0  0  0  0  0  0  0  0
   60.1424   35.4597   45.7838 H   0  0  0  0  0  0  0  0  0  0  0  0
   58.9028   34.8118   47.8481 H   0  0  0  0  0  0  0  0  0  0  0  0
   57.1776   33.0122   47.7542 H   0  0  0  0  0  0  0  0  0  0  0  0
   56.6877   31.8567   45.6003 H   0  0  0  0  0  0  0  0  0  0  0  0
  1  2  1  0
  2  3  2  0
  3  4  1  0
  4  5  2  0
  5  6  1  0
  6  7  2  0
  7  8  1  0
  8  9  1  0
  9 10  1  0
 10 11  2  0
 10 12  1  0
 12 13  1  0
 13 14  1  0
 14 15  2  0
 14 16  1  0
 16 17  2  0
 17 18  1  0
 18 19  2  0
 19 20  1  0
 20 21  2  0
  7  2  1  0
 21 16  1  0
  1 22  1  0
  1 23  1  0
  1 24  1  0
  3 25  1  0
  4 26  1  0
  5 27  1  0
  6 28  1  0
  9 29  1  0
  9 30  1  0
 12 31  1  0
 13 32  1  0
 13 33  1  0
 17 34  1  0
 18 35  1  0
 19 36  1  0
 20 37  1  0
 21 38  1  0
M  END
>  <UniqueID>  (10) 
10

>  <SMILES>  (10) 
Cc1ccccc1OCC(=O)NCC(=O)c1ccccc1

>  <Energy>  (10) 
35.84879227454971

>  <Genealogy>  (10) 
Cc1ccccc1OCC(=O)NCC(=O)c1ccccc1 (3D coordinates assigned)
Cc1ccccc1OCC(=O)NCC(=O)c1ccccc1 (optimized conformer: 35.84879227454971 kcal/mol)

>  <smiles>  (10) 
Cc1ccccc1OCC(=O)NCC(=O)c1ccccc1

>  <score_type>  (10) 
oracle

>  <origin>  (10) 
adg

>  <m_score__min__energy>  (10) 
-7.46

>  <m_primary>  (10) 
energy

$$$$
10:0
     RDKit          3D

 28 29  0  0  0  0  0  0  0  0999 V2000
   56.6937   29.5057   42.2564 H   0  0  0  0  0  0  0  0  0  0  0  0
   56.8960   29.1850   43.2890 C   0  0  0  0  0  0  0  0  0  0  0  0
   56.1830   29.8920   44.3690 C   0  0  0  0  0  0  0  0  0  0  0  0
   55.1550   29.3590   44.8690 O   0  0  0  0  0  0  0  0  0  0  0  0
   56.6590   31.1080   44.8700 O   0  0  0  0  0  0  0  0  0  0  0  0
   57.6700   31.8650   44.2150 C   0  0  0  0  0  0  0  0  0  0  0  0
   58.3127   32.3463   44.9668 H   0  0  0  0  0  0  0  0  0  0  0  0
   58.2778   31.1981   43.5859 H   0  0  0  0  0  0  0  0  0  0  0  0
   57.2011   32.6360   43.5859 H   0  0  0  0  0  0  0  0  0  0  0  0
   57.7710   28.1830   43.4620 C   0  0  0  0  0  0  0  0  0  0  0  0
   57.7634   27.3705   42.7205 H   0  0  0  0  0  0  0  0  0  0  0  0
   58.7430   28.0840   44.5680 C   0  0  0  0  0  0  0  0  0  0  0  0
   58.7600   27.2140   45.6550 C   0  0  0  0  0  0  0  0  0  0  0  0
   57.7700   26.1740   46.0100 C   0  0  0  0  0  0  0  0  0  0  0  0
   56.3890   26.4380   46.0120 C   0  0  0  0  0  0  0  0  0  0  0  0
   56.0213   27.4394   45.7436 H   0  0  0  0  0  0  0  0  0  0  0  0
   55.5070   25.4580   46.3450 N   0  0  0  0  0  0  0  0  0  0  0  0
   55.9200   24.2100   46.6900 C   0  0  0  0  0  0  0  0  0  0  0  0
   55.1799   23.4372   46.9450 H   0  0  0  0  0  0  0  0  0  0  0  0
   57.2820   23.9080   46.7210 C   0  0  0  0  0  0  0  0  0  0  0  0
   57.6218   22.9010   47.0047 H   0  0  0  0  0  0  0  0  0  0  0  0
   58.2090   24.8980   46.3880 C   0  0  0  0  0  0  0  0  0  0  0  0
   59.2858   24.6758   46.4225 H   0  0  0  0  0  0  0  0  0  0  0  0
   59.8300   27.4530   46.3790 O   0  0  0  0  0  0  0  0  0  0  0  0
   60.4990   28.4500   45.8440 C   0  0  0  0  0  0  0  0  0  0  0  0
   61.4366   28.8676   46.2398 H   0  0  0  0  0  0  0  0  0  0  0  0
   59.8480   28.8940   44.7110 C   0  0  0  0  0  0  0  0  0  0  0  0
   60.1498   29.7247   44.0561 H   0  0  0  0  0  0  0  0  0  0  0  0
  1  2  1  0
  2  3  1  0
  3  4  2  0
  3  5  1  0
  5  6  1  0
  6  7  1  0
  6  8  1  0
  6  9  1  0
  2 10  2  0
 10 11  1  0
 10 12  1  0
 12 13  2  0
 13 14  1  0
 14 15  2  0
 15 16  1  0
 15 17  1  0
 17 18  2  0
 18 19  1  0
 18 20  1  0
 20 21  1  0
 20 22  2  0
 22 23  1  0
 13 24  1  0
 24 25  1  0
 25 26  1  0
 25 27  2  0
 27 28  1  0
 27 12  1  0
 22 14  1  0
M  END
>  <UniqueID>  (11) 
11

>  <SMILES>  (11) 
COC(=O)/C=C\c1ccoc1-c1cccnc1

>  <Energy>  (11) 
62.39340194218236

>  <Genealogy>  (11) 
COC(=O)/C=C\c1ccoc1-c1cccnc1 (cis-trans isomerization)
COC(=O)/C=C\c1ccoc1-c1cccnc1 (3D coordinates assigned)
COC(=O)/C=C\c1ccoc1-c1cccnc1 (optimized conformer: 62.39340194218236 kcal/mol)

>  <smiles>  (11) 
COC(=O)C=Cc1ccoc1-c1cccnc1

>  <score_type>  (11) 
oracle

>  <origin>  (11) 
adg

>  <m_score__min__energy>  (11) 
-5.9900000000000002

>  <m_primary>  (11) 
energy

$$$$
11:0
     RDKit          3D

 44 47  0  0  0  0  0  0  0  0999 V2000
   62.4730   34.0850   48.7830 C   0  0  0  0  0  0  0  0  0  0  0  0
   61.0360   34.5760   48.6520 C   0  0  0  0  0  0  0  0  0  0  0  0
   60.2050   33.5930   47.8710 C   0  0  0  0  0  0  0  0  0  0  0  0
   58.8600   33.8730   47.5840 C   0  0  0  0  0  0  0  0  0  0  0  0
   58.0970   32.9740   46.8310 C   0  0  0  0  0  0  0  0  0  0  0  0
   58.6700   31.7860   46.3580 C   0  0  0  0  0  0  0  0  0  0  0  0
   57.8640   30.8550   45.5460 C   0  0  0  0  0  0  0  0  0  0  0  0
   57.8050   29.5400   45.8110 C   0  0  0  0  0  0  0  0  0  0  0  0
   58.6520   28.7930   46.8060 C   0  0  0  0  0  0  0  0  0  0  0  0
   58.3920   27.3820   46.4110 C   0  0  0  0  0  0  0  0  0  0  0  0
   58.9670   26.2400   46.9760 C   0  0  0  0  0  0  0  0  0  0  0  0
   58.6100   24.9820   46.4680 C   0  0  0  0  0  0  0  0  0  0  0  0
   57.6870   24.8790   45.4110 C   0  0  0  0  0  0  0  0  0  0  0  0
   57.1180   26.0340   44.8550 C   0  0  0  0  0  0  0  0  0  0  0  0
   57.4930   27.2800   45.3650 C   0  0  0  0  0  0  0  0  0  0  0  0
   56.9770   28.6210   44.9520 C   0  0  1  0  0  0  0  0  0  0  0  0
   55.6030   28.7430   45.2380 O   0  0  0  0  0  0  0  0  0  0  0  0
   57.2430   28.9550   43.4750 C   0  0  0  0  0  0  0  0  0  0  0  0
   57.0420   30.4650   43.1690 C   0  0  0  0  0  0  0  0  0  0  0  0
   57.0170   31.3900   44.4150 C   0  0  0  0  0  0  0  0  0  0  0  0
   60.0240   31.5200   46.6170 C   0  0  0  0  0  0  0  0  0  0  0  0
   60.7860   32.4170   47.3690 C   0  0  0  0  0  0  0  0  0  0  0  0
   62.7343   33.9957   49.8478 H   0  0  0  0  0  0  0  0  0  0  0  0
   62.5705   33.1026   48.2979 H   0  0  0  0  0  0  0  0  0  0  0  0
   63.1513   34.8024   48.2979 H   0  0  0  0  0  0  0  0  0  0  0  0
   60.6031   34.6968   49.6560 H   0  0  0  0  0  0  0  0  0  0  0  0
   61.0390   35.5379   48.1184 H   0  0  0  0  0  0  0  0  0  0  0  0
   58.4037   34.8035   47.9528 H   0  0  0  0  0  0  0  0  0  0  0  0
   57.0436   33.2006   46.6095 H   0  0  0  0  0  0  0  0  0  0  0  0
   59.7164   29.0504   46.7020 H   0  0  0  0  0  0  0  0  0  0  0  0
   58.4152   29.0171   47.8566 H   0  0  0  0  0  0  0  0  0  0  0  0
   59.6862   26.3262   47.8038 H   0  0  0  0  0  0  0  0  0  0  0  0
   59.0537   24.0719   46.8980 H   0  0  0  0  0  0  0  0  0  0  0  0
   57.4107   23.8889   45.0193 H   0  0  0  0  0  0  0  0  0  0  0  0
   56.3905   25.9606   44.0332 H   0  0  0  0  0  0  0  0  0  0  0  0
   55.1480   27.9140   44.9270 H   0  0  0  0  0  0  0  0  0  0  0  0
   58.2794   28.6790   43.2305 H   0  0  0  0  0  0  0  0  0  0  0  0
   56.5233   28.3884   42.8659 H   0  0  0  0  0  0  0  0  0  0  0  0
   57.8648   30.7933   42.5169 H   0  0  0  0  0  0  0  0  0  0  0  0
   56.0507   30.5540   42.7006 H   0  0  0  0  0  0  0  0  0  0  0  0
   57.3974   32.3811   44.1270 H   0  0  0  0  0  0  0  0  0  0  0  0
   55.9777   31.4453   44.7711 H   0  0  0  0  0  0  0  0  0  0  0  0
   60.4865   30.6016   46.2262 H   0  0  0  0  0  0  0  0  0  0  0  0
   61.8460   32.2014   47.5690 H   0  0  0  0  0  0  0  0  0  0  0  0
  1  2  1  0
  2  3  1  0
  3  4  2  0
  4  5  1  0
  5  6  2  0
  6  7  1  0
  7  8  2  0
  8  9  1  0
  9 10  1  0
 10 11  2  0
 11 12  1  0
 12 13  2  0
 13 14  1  0
 14 15  2  0
 15 16  1  0
 16 17  1  1
 16 18  1  0
 18 19  1  0
 19 20  1  0
  6 21  1  0
 21 22  2  0
 22  3  1  0
 20  7  1  0
 16  8  1  0
 15 10  1  0
  1 23  1  0
  1 24  1  0
  1 25  1  0
  2 26  1  0
  2 27  1  0
  4 28  1  0
  5 29  1  0
  9 30  1  0
  9 31  1  0
 11 32  1  0
 12 33  1  0
 13 34  1  0
 14 35  1  0
 17 36  1  0
 18 37  1  0
 18 38  1  0
 19 39  1  0
 19 40  1  0
 20 41  1  0
 20 42  1  0
 21 43  1  0
 22 44  1  0
M  END
>  <UniqueID>  (12) 
12

>  <SMILES>  (12) 
CCc1ccc(C2=C3Cc4ccccc4[C@]3(O)CCC2)cc1

>  <Energy>  (12) 
65.8657438785469

>  <Genealogy>  (12) 
CCc1ccc(C2=C3Cc4ccccc4[C@]3(O)CCC2)cc1 (chirality)
CCc1ccc(C2=C3Cc4ccccc4[C@]3(O)CCC2)cc1 (3D coordinates assigned)
CCc1ccc(C2=C3Cc4ccccc4[C@]3(O)CCC2)cc1 (nonaromatic ring conformer: 65.8657438785469 kcal/mol)

>  <smiles>  (12) 
CCc1ccc(C2=C3Cc4ccccc4C3(O)CCC2)cc1

>  <score_type>  (12) 
oracle

>  <origin>  (12) 
adg

>  <m_score__min__energy>  (12) 
-9.0899999999999999

>  <m_primary>  (12) 
energy

$$$$
12:0
     RDKit          3D

 50 52  0  0  0  0  0  0  0  0999 V2000
   57.1340   28.4030   45.4400 C   0  0  0  0  0  0  0  0  0  0  0  0
   56.6280   29.7250   45.2750 O   0  0  0  0  0  0  0  0  0  0  0  0
   56.9980   30.5970   44.2380 C   0  0  0  0  0  0  0  0  0  0  0  0
   56.6140   30.3720   42.9000 C   0  0  0  0  0  0  0  0  0  0  0  0
   57.0230   31.2460   41.8900 C   0  0  0  0  0  0  0  0  0  0  0  0
   57.8200   32.3490   42.1980 C   0  0  0  0  0  0  0  0  0  0  0  0
   58.2040   32.5840   43.5200 C   0  0  0  0  0  0  0  0  0  0  0  0
   57.7900   31.7190   44.5450 C   0  0  0  0  0  0  0  0  0  0  0  0
   58.1820   31.9880   45.9000 N   0  0  0  0  0  0  0  0  0  0  0  0
   57.9550   33.3250   46.4660 C   0  0  0  0  0  0  0  0  0  0  0  0
   58.5190   33.4360   47.8870 C   0  0  0  0  0  0  0  0  0  0  0  0
   59.8780   32.8710   47.9450 N   0  0  0  0  0  0  0  0  0  0  0  0
   60.9140   33.5490   48.6940 C   0  0  0  0  0  0  0  0  0  0  0  0
   60.6170   34.5540   49.3980 O   0  0  0  0  0  0  0  0  0  0  0  0
   62.2810   33.0990   48.6530 N   0  0  0  0  0  0  0  0  0  0  0  0
   63.3780   33.8840   49.2390 C   0  0  0  0  0  0  0  0  0  0  0  0
   64.7030   33.1060   49.1360 C   0  0  0  0  0  0  0  0  0  0  0  0
   64.6680   31.7910   49.9390 C   0  0  0  0  0  0  0  0  0  0  0  0
   63.8040   31.8700   51.2150 C   0  0  0  0  0  0  0  0  0  0  0  0
   63.6960   33.3030   51.7490 C   0  0  0  0  0  0  0  0  0  0  0  0
   63.0710   34.2620   50.7130 C   0  0  0  0  0  0  0  0  0  0  0  0
   60.1560   31.5770   47.2970 C   0  0  0  0  0  0  0  0  0  0  0  0
   58.8960   30.9690   46.6740 C   0  0  0  0  0  0  0  0  0  0  0  0
   57.2213   28.1750   46.5126 H   0  0  0  0  0  0  0  0  0  0  0  0
   56.4468   27.6857   44.9674 H   0  0  0  0  0  0  0  0  0  0  0  0
   58.1245   28.3278   44.9674 H   0  0  0  0  0  0  0  0  0  0  0  0
   55.9883   29.5025   42.6499 H   0  0  0  0  0  0  0  0  0  0  0  0
   56.7160   31.0642   40.8495 H   0  0  0  0  0  0  0  0  0  0  0  0
   58.1456   33.0329   41.4003 H   0  0  0  0  0  0  0  0  0  0  0  0
   58.8350   33.4526   43.7596 H   0  0  0  0  0  0  0  0  0  0  0  0
   58.4475   34.0723   45.8265 H   0  0  0  0  0  0  0  0  0  0  0  0
   56.8702   33.5017   46.5102 H   0  0  0  0  0  0  0  0  0  0  0  0
   58.5539   34.4953   48.1815 H   0  0  0  0  0  0  0  0  0  0  0  0
   57.8691   32.8742   48.5740 H   0  0  0  0  0  0  0  0  0  0  0  0
   62.5060   32.1860   48.1980 H   0  0  0  0  0  0  0  0  0  0  0  0
   63.4759   34.8199   48.6693 H   0  0  0  0  0  0  0  0  0  0  0  0
   64.8948   32.8708   48.0787 H   0  0  0  0  0  0  0  0  0  0  0  0
   65.4998   33.7377   49.5556 H   0  0  0  0  0  0  0  0  0  0  0  0
   64.2619   30.9992   49.2924 H   0  0  0  0  0  0  0  0  0  0  0  0
   65.6990   31.5810   50.2597 H   0  0  0  0  0  0  0  0  0  0  0  0
   62.7942   31.5005   50.9833 H   0  0  0  0  0  0  0  0  0  0  0  0
   64.2855   31.2547   51.9894 H   0  0  0  0  0  0  0  0  0  0  0  0
   63.0685   33.2987   52.6525 H   0  0  0  0  0  0  0  0  0  0  0  0
   64.7125   33.6597   51.9715 H   0  0  0  0  0  0  0  0  0  0  0  0
   61.9797   34.2576   50.8514 H   0  0  0  0  0  0  0  0  0  0  0  0
   63.5153   35.2531   50.8872 H   0  0  0  0  0  0  0  0  0  0  0  0
   60.9060   31.7287   46.5068 H   0  0  0  0  0  0  0  0  0  0  0  0
   60.5257   30.8827   48.0659 H   0  0  0  0  0  0  0  0  0  0  0  0
   59.1810   30.1396   46.0100 H   0  0  0  0  0  0  0  0  0  0  0  0
   58.2399   30.5956   47.4741 H   0  0  0  0  0  0  0  0  0  0  0  0
  1  2  1  0
  2  3  1  0
  3  4  2  0
  4  5  1  0
  5  6  2  0
  6  7  1  0
  7  8  2  0
  8  9  1  0
  9 10  1  0
 10 11  1  0
 11 12  1  0
 12 13  1  0
 13 14  2  0
 13 15  1  0
 15 16  1  0
 16 17  1  0
 17 18  1  0
 18 19  1  0
 19 20  1  0
 20 21  1  0
 12 22  1  0
 22 23  1  0
  8  3  1  0
 23  9  1  0
 21 16  1  0
  1 24  1  0
  1 25  1  0
  1 26  1  0
  4 27  1  0
  5 28  1  0
  6 29  1  0
  7 30  1  0
 10 31  1  0
 10 32  1  0
 11 33  1  0
 11 34  1  0
 15 35  1  0
 16 36  1  0
 17 37  1  0
 17 38  1  0
 18 39  1  0
 18 40  1  0
 19 41  1  0
 19 42  1  0
 20 43  1  0
 20 44  1  0
 21 45  1  0
 21 46  1  0
 22 47  1  0
 22 48  1  0
 23 49  1  0
 23 50  1  0
M  END
>  <UniqueID>  (13) 
13

>  <SMILES>  (13) 
COc1ccccc1N1CCN(C(=O)NC2CCCCC2)CC1

>  <Energy>  (13) 
56.13057037593393

>  <Genealogy>  (13) 
COc1ccccc1N1CCN(C(=O)NC2CCCCC2)CC1 (3D coordinates assigned)
COc1ccccc1N1CCN(C(=O)NC2CCCCC2)CC1 (nonaromatic ring conformer: 56.13057037593393 kcal/mol)

>  <smiles>  (13) 
COc1ccccc1N1CCN(C(=O)NC2CCCCC2)CC1

>  <score_type>  (13) 
oracle

>  <origin>  (13) 
adg

>  <m_score__min__energy>  (13) 
-6.9400000000000004

>  <m_primary>  (13) 
energy

$$$$
13:0
     RDKit          3D

 42 45  0  0  0  0  0  0  0  0999 V2000
   57.0100   20.7940   42.9770 C   0  0  0  0  0  0  0  0  0  0  0  0
   55.9100   21.6430   43.2870 O   0  0  0  0  0  0  0  0  0  0  0  0
   56.0220   22.8690   43.9610 C   0  0  0  0  0  0  0  0  0  0  0  0
   54.9870   23.3860   44.7620 C   0  0  0  0  0  0  0  0  0  0  0  0
   55.1500   24.6090   45.4200 C   0  0  0  0  0  0  0  0  0  0  0  0
   56.3510   25.3290   45.3010 C   0  0  0  0  0  0  0  0  0  0  0  0
   56.5440   26.6110   46.0170 C   0  0  0  0  0  0  0  0  0  0  0  0
   57.3310   26.6560   46.9990 O   0  0  0  0  0  0  0  0  0  0  0  0
   55.8900   27.8220   45.6050 N   0  0  0  0  0  0  0  0  0  0  0  0
   56.5310   29.0260   45.1600 C   0  0  0  0  0  0  0  0  0  0  0  0
   56.0660   29.6480   43.9970 C   0  0  0  0  0  0  0  0  0  0  0  0
   56.6680   30.8200   43.5350 C   0  0  0  0  0  0  0  0  0  0  0  0
   57.7420   31.3790   44.2310 C   0  0  0  0  0  0  0  0  0  0  0  0
   58.2350   30.7630   45.3940 C   0  0  0  0  0  0  0  0  0  0  0  0
   59.3660   31.3760   46.1270 C   0  0  0  0  0  0  0  0  0  0  0  0
   60.5390   30.7480   46.4060 N   0  0  0  0  0  0  0  0  0  0  0  0
   61.2350   31.6720   47.0820 C   0  0  0  0  0  0  0  0  0  0  0  0
   62.5150   31.5730   47.6260 C   0  0  0  0  0  0  0  0  0  0  0  0
   63.0220   32.7000   48.3020 C   0  0  0  0  0  0  0  0  0  0  0  0
   62.2440   33.8770   48.4150 C   0  0  0  0  0  0  0  0  0  0  0  0
   60.9540   33.9370   47.8550 C   0  0  0  0  0  0  0  0  0  0  0  0
   60.4870   32.8050   47.1940 C   0  0  0  0  0  0  0  0  0  0  0  0
   59.3340   32.6130   46.6030 O   0  0  0  0  0  0  0  0  0  0  0  0
   57.6380   29.5700   45.8390 C   0  0  0  0  0  0  0  0  0  0  0  0
   57.3720   24.8200   44.4820 C   0  0  0  0  0  0  0  0  0  0  0  0
   57.2080   23.5980   43.8240 C   0  0  0  0  0  0  0  0  0  0  0  0
   57.4721   20.4374   43.9094 H   0  0  0  0  0  0  0  0  0  0  0  0
   56.6552   19.9333   42.3911 H   0  0  0  0  0  0  0  0  0  0  0  0
   57.7527   21.3553   42.3911 H   0  0  0  0  0  0  0  0  0  0  0  0
   54.0464   22.8261   44.8709 H   0  0  0  0  0  0  0  0  0  0  0  0
   54.3317   25.0107   46.0356 H   0  0  0  0  0  0  0  0  0  0  0  0
   55.2216   29.2116   43.4433 H   0  0  0  0  0  0  0  0  0  0  0  0
   56.2953   31.3043   42.6204 H   0  0  0  0  0  0  0  0  0  0  0  0
   58.2052   32.3077   43.8664 H   0  0  0  0  0  0  0  0  0  0  0  0
   60.8390   29.7730   46.1790 H   0  0  0  0  0  0  0  0  0  0  0  0
   63.1062   30.6502   47.5309 H   0  0  0  0  0  0  0  0  0  0  0  0
   64.0284   32.6652   48.7446 H   0  0  0  0  0  0  0  0  0  0  0  0
   62.6505   34.7513   48.9444 H   0  0  0  0  0  0  0  0  0  0  0  0
   60.3381   34.8447   47.9368 H   0  0  0  0  0  0  0  0  0  0  0  0
   58.0395   29.0572   46.7255 H   0  0  0  0  0  0  0  0  0  0  0  0
   58.3066   25.3867   44.3576 H   0  0  0  0  0  0  0  0  0  0  0  0
   58.0189   23.2059   43.1926 H   0  0  0  0  0  0  0  0  0  0  0  0
  1  2  1  0
  2  3  1  0
  3  4  2  0
  4  5  1  0
  5  6  2  0
  6  7  1  0
  7  8  2  0
  7  9  1  0
  9 10  1  0
 10 11  2  0
 11 12  1  0
 12 13  2  0
 13 14  1  0
 14 15  1  0
 15 16  2  0
 16 17  1  0
 17 18  2  0
 18 19  1  0
 19 20  2  0
 20 21  1  0
 21 22  2  0
 22 23  1  0
 14 24  2  0
  6 25  1  0
 25 26  2  0
 26  3  1  0
 24 10  1  0
 23 15  1  0
 22 17  1  0
  1 27  1  0
  1 28  1  0
  1 29  1  0
  4 30  1  0
  5 31  1  0
 11 32  1  0
 12 33  1  0
 13 34  1  0
 16 35  1  0
 18 36  1  0
 19 37  1  0
 20 38  1  0
 21 39  1  0
 24 40  1  0
 25 41  1  0
 26 42  1  0
M  CHG  2   9  -1  16   1
M  END
>  <UniqueID>  (14) 
14

>  <SMILES>  (14) 
COc1ccc(C(=O)[N-]c2cccc(-c3[nH+]c4ccccc4o3)c2)cc1

>  <Energy>  (14) 
92.47967733260586

>  <Genealogy>  (14) 
COc1ccc(C(=O)[N-]c2cccc(-c3[nH+]c4ccccc4o3)c2)cc1 (protonated)
COc1ccc(C(=O)[N-]c2cccc(-c3[nH+]c4ccccc4o3)c2)cc1 (3D coordinates assigned)
COc1ccc(C(=O)[N-]c2cccc(-c3[nH+]c4ccccc4o3)c2)cc1 (optimized conformer: 92.47967733260586 kcal/mol)

>  <smiles>  (14) 
COc1ccc(C(=O)Nc2cccc(-c3nc4ccccc4o3)c2)cc1

>  <score_type>  (14) 
oracle

>  <origin>  (14) 
adg

>  <m_score__min__energy>  (14) 
-8.7599999999999998

>  <m_primary>  (14) 
energy

$$$$
14:0
     RDKit          3D

 48 51  0  0  0  0  0  0  0  0999 V2000
   55.9240   30.8210   52.6650 C   0  0  0  0  0  0  0  0  0  0  0  0
   56.5090   30.6700   51.3770 O   0  0  0  0  0  0  0  0  0  0  0  0
   57.8050   31.0920   51.0410 C   0  0  0  0  0  0  0  0  0  0  0  0
   58.7190   30.1350   50.5830 C   0  0  0  0  0  0  0  0  0  0  0  0
   60.0250   30.5040   50.2530 C   0  0  0  0  0  0  0  0  0  0  0  0
   60.4400   31.8340   50.3990 C   0  0  0  0  0  0  0  0  0  0  0  0
   61.7790   32.2110   50.0580 N   0  0  0  0  0  0  0  0  0  0  0  0
   62.8530   32.0270   50.8650 C   0  0  0  0  0  0  0  0  0  0  0  0
   64.0320   32.3330   50.1980 C   0  0  0  0  0  0  0  0  0  0  0  0
   63.6310   32.7180   48.9400 C   0  0  0  0  0  0  0  0  0  0  0  0
   64.3940   33.1080   47.8910 N   0  0  0  0  0  0  0  0  0  0  0  0
   63.7690   33.4620   46.7310 C   0  0  0  0  0  0  0  0  0  0  0  0
   62.4040   33.4440   46.6470 N   0  0  0  0  0  0  0  0  0  0  0  0
   61.6170   33.0440   47.6900 C   0  0  0  0  0  0  0  0  0  0  0  0
   60.1890   33.1870   47.5900 N   0  0  0  0  0  0  0  0  0  0  0  0
   59.6100   34.5350   47.4870 C   0  0  0  0  0  0  0  0  0  0  0  0
   58.5690   34.5760   46.3670 C   0  0  0  0  0  0  0  0  0  0  0  0
   57.4750   33.4980   46.5320 C   0  0  0  0  0  0  0  0  0  0  0  0
   57.8260   32.4010   47.5550 C   0  0  0  0  0  0  0  0  0  0  0  0
   59.3160   31.9940   47.5140 C   0  0  1  0  0  0  0  0  0  0  0  0
   59.6310   31.1160   46.2850 C   0  0  0  0  0  0  0  0  0  0  0  0
   60.9500   30.6430   46.3270 O   0  0  0  0  0  0  0  0  0  0  0  0
   62.2670   32.6500   48.8750 C   0  0  0  0  0  0  0  0  0  0  0  0
   59.5190   32.8020   50.8160 C   0  0  0  0  0  0  0  0  0  0  0  0
   58.2110   32.4360   51.1470 C   0  0  0  0  0  0  0  0  0  0  0  0
   56.6824   30.6253   53.4374 H   0  0  0  0  0  0  0  0  0  0  0  0
   55.5431   31.8469   52.7767 H   0  0  0  0  0  0  0  0  0  0  0  0
   55.0942   30.1076   52.7767 H   0  0  0  0  0  0  0  0  0  0  0  0
   58.4062   29.0852   50.4824 H   0  0  0  0  0  0  0  0  0  0  0  0
   60.7300   29.7478   49.8772 H   0  0  0  0  0  0  0  0  0  0  0  0
   62.7978   31.6817   51.9079 H   0  0  0  0  0  0  0  0  0  0  0  0
   65.0587   32.2794   50.5890 H   0  0  0  0  0  0  0  0  0  0  0  0
   65.4350   33.1390   47.9660 H   0  0  0  0  0  0  0  0  0  0  0  0
   64.3665   33.7637   45.8581 H   0  0  0  0  0  0  0  0  0  0  0  0
   59.1289   34.7981   48.4406 H   0  0  0  0  0  0  0  0  0  0  0  0
   60.4108   35.2544   47.2606 H   0  0  0  0  0  0  0  0  0  0  0  0
   58.0904   35.5664   46.3672 H   0  0  0  0  0  0  0  0  0  0  0  0
   59.0915   34.3776   45.4196 H   0  0  0  0  0  0  0  0  0  0  0  0
   56.5485   33.9926   46.8592 H   0  0  0  0  0  0  0  0  0  0  0  0
   57.3679   33.0011   45.5565 H   0  0  0  0  0  0  0  0  0  0  0  0
   57.5917   32.7735   48.5631 H   0  0  0  0  0  0  0  0  0  0  0  0
   57.2337   31.5101   47.2994 H   0  0  0  0  0  0  0  0  0  0  0  0
   59.5261   31.3771   48.4002 H   0  0  0  0  0  0  0  0  0  0  0  0
   58.9422   30.2585   46.2701 H   0  0  0  0  0  0  0  0  0  0  0  0
   59.5078   31.7269   45.3786 H   0  0  0  0  0  0  0  0  0  0  0  0
   61.5320   31.4410   46.2380 H   0  0  0  0  0  0  0  0  0  0  0  0
   59.8260   33.8561   50.8836 H   0  0  0  0  0  0  0  0  0  0  0  0
   57.4977   33.1995   51.4909 H   0  0  0  0  0  0  0  0  0  0  0  0
  1  2  1  0
  2  3  1  0
  3  4  2  0
  4  5  1  0
  5  6  2  0
  6  7  1  0
  7  8  1  0
  8  9  2  0
  9 10  1  0
 10 11  2  0
 11 12  1  0
 12 13  2  0
 13 14  1  0
 14 15  1  0
 15 16  1  0
 16 17  1  0
 17 18  1  0
 18 19  1  0
 19 20  1  0
 20 21  1  0
 21 22  1  0
 14 23  2  0
  6 24  1  0
 24 25  2  0
 25  3  1  0
 23  7  1  0
 23 10  1  0
 20 15  1  0
  1 26  1  0
  1 27  1  0
  1 28  1  0
  4 29  1  0
  5 30  1  0
  8 31  1  0
  9 32  1  0
 11 33  1  0
 12 34  1  0
 16 35  1  0
 16 36  1  0
 17 37  1  0
 17 38  1  0
 18 39  1  0
 18 40  1  0
 19 41  1  0
 19 42  1  0
 20 43  1  1
 21 44  1  0
 21 45  1  0
 22 46  1  0
 24 47  1  0
 25 48  1  0
M  CHG  1  11   1
M  END
>  <UniqueID>  (15) 
15

>  <SMILES>  (15) 
COc1ccc(-n2ccc3[nH+]cnc(N4CCCC[C@H]4CO)c32)cc1

>  <Energy>  (15) 
99.3471380819622

>  <Genealogy>  (15) 
COc1ccc(-n2ccc3[nH+]cnc(N4CCCCC4CO)c32)cc1 (protonated)
COc1ccc(-n2ccc3[nH+]cnc(N4CCCC[C@H]4CO)c32)cc1 (chirality)
COc1ccc(-n2ccc3[nH+]cnc(N4CCCC[C@H]4CO)c32)cc1 (3D coordinates assigned)
COc1ccc(-n2ccc3[nH+]cnc(N4CCCC[C@H]4CO)c32)cc1 (nonaromatic ring conformer: 99.3471380819622 kcal/mol)

>  <smiles>  (15) 
COc1ccc(-n2ccc3ncnc(N4CCCCC4CO)c32)cc1

>  <score_type>  (15) 
oracle

>  <origin>  (15) 
adg

>  <m_score__min__energy>  (15) 
-4.8700000000000001

>  <m_primary>  (15) 
energy

$$$$
15:0
     RDKit          3D

 33 35  0  0  0  0  0  0  0  0999 V2000
   58.1260   25.6580   45.0430 C   0  0  0  0  0  0  0  0  0  0  0  0
   57.9980   26.1340   46.7950 S   0  0  0  0  0  0  0  0  0  0  0  0
   58.1820   27.8920   46.4450 C   0  0  0  0  0  0  0  0  0  0  0  0
   59.3080   28.5180   46.8960 N   0  0  0  0  0  0  0  0  0  0  0  0
   59.4830   29.8340   46.6470 C   0  0  0  0  0  0  0  0  0  0  0  0
   60.7850   30.7830   47.1270 S   0  0  0  0  0  0  0  0  0  0  0  0
   60.1580   32.1920   46.4370 C   0  0  0  0  0  0  0  0  0  0  0  0
   58.9510   31.9230   45.7980 C   0  0  0  0  0  0  0  0  0  0  0  0
   58.5600   30.5770   45.9440 C   0  0  0  0  0  0  0  0  0  0  0  0
   57.3990   29.9400   45.4930 C   0  0  0  0  0  0  0  0  0  0  0  0
   56.5210   30.5910   44.8650 O   0  0  0  0  0  0  0  0  0  0  0  0
   57.2210   28.5990   45.7480 N   0  0  0  0  0  0  0  0  0  0  0  0
   56.0500   27.9580   45.2890 N   0  0  0  0  0  0  0  0  0  0  0  0
   58.1650   33.0140   45.1240 C   0  0  0  0  0  0  0  0  0  0  0  0
   59.0240   34.2810   44.9190 C   0  0  0  0  0  0  0  0  0  0  0  0
   59.8660   34.6140   46.0920 N   0  0  0  0  0  0  0  0  0  0  0  0
   59.0630   34.9960   47.2660 C   0  0  0  0  0  0  0  0  0  0  0  0
   60.8260   33.5320   46.4080 C   0  0  0  0  0  0  0  0  0  0  0  0
   58.4110   24.5980   44.9709 H   0  0  0  0  0  0  0  0  0  0  0  0
   57.1548   25.8109   44.5496 H   0  0  0  0  0  0  0  0  0  0  0  0
   58.8895   26.2774   44.5496 H   0  0  0  0  0  0  0  0  0  0  0  0
   60.0320   27.9870   47.4310 H   0  0  0  0  0  0  0  0  0  0  0  0
   55.1380   28.4650   45.2340 H   0  0  0  0  0  0  0  0  0  0  0  0
   56.0410   26.9600   44.9920 H   0  0  0  0  0  0  0  0  0  0  0  0
   57.8192   32.6533   44.1440 H   0  0  0  0  0  0  0  0  0  0  0  0
   57.3111   33.2741   45.7668 H   0  0  0  0  0  0  0  0  0  0  0  0
   59.6812   34.1207   44.0516 H   0  0  0  0  0  0  0  0  0  0  0  0
   58.3323   35.1223   44.7649 H   0  0  0  0  0  0  0  0  0  0  0  0
   59.6096   34.7360   48.1845 H   0  0  0  0  0  0  0  0  0  0  0  0
   58.8756   36.0797   47.2452 H   0  0  0  0  0  0  0  0  0  0  0  0
   58.1040   34.4576   47.2452 H   0  0  0  0  0  0  0  0  0  0  0  0
   61.6155   33.5206   45.6421 H   0  0  0  0  0  0  0  0  0  0  0  0
   61.2478   33.7273   47.4050 H   0  0  0  0  0  0  0  0  0  0  0  0
  1  2  1  0
  2  3  1  0
  3  4  2  0
  4  5  1  0
  5  6  1  0
  6  7  1  0
  7  8  2  0
  8  9  1  0
  9 10  1  0
 10 11  2  0
 10 12  1  0
 12 13  1  0
  8 14  1  0
 14 15  1  0
 15 16  1  0
 16 17  1  0
 16 18  1  0
 12  3  1  0
  9  5  2  0
 18  7  1  0
  1 19  1  0
  1 20  1  0
  1 21  1  0
  4 22  1  0
 13 23  1  0
 13 24  1  0
 14 25  1  0
 14 26  1  0
 15 27  1  0
 15 28  1  0
 17 29  1  0
 17 30  1  0
 17 31  1  0
 18 32  1  0
 18 33  1  0
M  CHG  1   4   1
M  END
>  <UniqueID>  (16) 
16

>  <SMILES>  (16) 
CSc1[nH+]c2sc3c(c2c(=O)n1N)CCN(C)C3

>  <Energy>  (16) 
71.99782514912685

>  <Genealogy>  (16) 
CSc1[nH+]c2sc3c(c2c(=O)n1N)CCN(C)C3 (protonated)
CSc1[nH+]c2sc3c(c2c(=O)n1N)CCN(C)C3 (3D coordinates assigned)
CSc1[nH+]c2sc3c(c2c(=O)n1N)CCN(C)C3 (nonaromatic ring conformer: 71.99782514912685 kcal/mol)

>  <smiles>  (16) 
CSc1nc2sc3c(c2c(=O)n1N)CCN(C)C3

>  <score_type>  (16) 
oracle

>  <origin>  (16) 
adg

>  <m_score__min__energy>  (16) 
-5.5999999999999996

>  <m_primary>  (16) 
energy

$$$$
16:0
     RDKit          3D

 51 54  0  0  0  0  0  0  0  0999 V2000
   62.8670   33.1680   53.3050 H   0  0  0  0  0  0  0  0  0  0  0  0
   62.0560   33.7180   53.0540 O   0  0  0  0  0  0  0  0  0  0  0  0
   61.4760   33.6840   51.7840 C   0  0  0  0  0  0  0  0  0  0  0  0
   62.3070   33.7290   50.6560 C   0  0  0  0  0  0  0  0  0  0  0  0
   64.0520   33.8250   50.8370 Cl  0  0  0  0  0  0  0  0  0  0  0  0
   61.7550   33.6980   49.3720 C   0  0  0  0  0  0  0  0  0  0  0  0
   62.4174   33.7287   48.4943 H   0  0  0  0  0  0  0  0  0  0  0  0
   60.3630   33.6280   49.1900 C   0  0  0  0  0  0  0  0  0  0  0  0
   59.8010   33.5860   47.8160 C   0  0  0  0  0  0  0  0  0  0  0  0
   59.1140   32.4790   47.4150 N   0  0  0  0  0  0  0  0  0  0  0  0
   58.5740   32.3580   46.1700 C   0  0  0  0  0  0  0  0  0  0  0  0
   57.8970   31.1820   45.7940 C   0  0  0  0  0  0  0  0  0  0  0  0
   57.9130   30.1960   46.6590 N   0  0  0  0  0  0  0  0  0  0  0  0
   58.6210   28.9140   46.6970 C   0  0  0  0  0  0  0  0  0  0  0  0
   58.9904   28.7038   47.7116 H   0  0  0  0  0  0  0  0  0  0  0  0
   57.6530   27.7670   46.3050 C   0  0  0  0  0  0  0  0  0  0  0  0
   57.2245   27.3349   47.2213 H   0  0  0  0  0  0  0  0  0  0  0  0
   56.8682   28.1895   45.6603 H   0  0  0  0  0  0  0  0  0  0  0  0
   58.3670   26.6560   45.5190 C   0  0  0  0  0  0  0  0  0  0  0  0
   59.1526   26.2233   46.1559 H   0  0  0  0  0  0  0  0  0  0  0  0
   57.6110   25.9070   45.2407 H   0  0  0  0  0  0  0  0  0  0  0  0
   58.9910   27.1520   44.2650 N   0  0  0  0  0  0  0  0  0  0  0  0
   58.1210   26.9150   43.1040 C   0  0  0  0  0  0  0  0  0  0  0  0
   57.1137   26.6406   43.4506 H   0  0  0  0  0  0  0  0  0  0  0  0
   58.0631   27.8301   42.4963 H   0  0  0  0  0  0  0  0  0  0  0  0
   58.5352   26.0970   42.4963 H   0  0  0  0  0  0  0  0  0  0  0  0
   59.4140   28.5730   44.3140 C   0  0  0  0  0  0  0  0  0  0  0  0
   60.2714   28.7133   43.6393 H   0  0  0  0  0  0  0  0  0  0  0  0
   58.5621   29.1955   44.0031 H   0  0  0  0  0  0  0  0  0  0  0  0
   59.8220   28.9940   45.7300 C   0  0  0  0  0  0  0  0  0  0  0  0
   60.6184   28.3254   46.0890 H   0  0  0  0  0  0  0  0  0  0  0  0
   60.1784   30.0342   45.6981 H   0  0  0  0  0  0  0  0  0  0  0  0
   57.3200   31.1210   44.4890 C   0  0  0  0  0  0  0  0  0  0  0  0
   56.3430   30.1060   44.0540 C   0  0  0  0  0  0  0  0  0  0  0  0
   55.4520   29.7190   44.8570 O   0  0  0  0  0  0  0  0  0  0  0  0
   56.2670   29.6770   42.6220 C   0  0  0  0  0  0  0  0  0  0  0  0
   56.0753   28.5949   42.5731 H   0  0  0  0  0  0  0  0  0  0  0  0
   55.4505   30.2171   42.1203 H   0  0  0  0  0  0  0  0  0  0  0  0
   57.2193   29.9037   42.1203 H   0  0  0  0  0  0  0  0  0  0  0  0
   57.5410   32.1900   43.6020 C   0  0  0  0  0  0  0  0  0  0  0  0
   57.1443   32.1348   42.5775 H   0  0  0  0  0  0  0  0  0  0  0  0
   58.2360   33.2880   43.9910 N   0  0  0  0  0  0  0  0  0  0  0  0
   58.7410   33.4020   45.2430 C   0  0  0  0  0  0  0  0  0  0  0  0
   59.4460   34.5470   45.6190 C   0  0  0  0  0  0  0  0  0  0  0  0
   59.5791   35.3716   44.9033 H   0  0  0  0  0  0  0  0  0  0  0  0
   59.9820   34.6440   46.9050 C   0  0  0  0  0  0  0  0  0  0  0  0
   60.5424   35.5419   47.2044 H   0  0  0  0  0  0  0  0  0  0  0  0
   59.5350   33.5710   50.3260 C   0  0  0  0  0  0  0  0  0  0  0  0
   58.4445   33.5012   50.2001 H   0  0  0  0  0  0  0  0  0  0  0  0
   60.0810   33.6020   51.6140 C   0  0  0  0  0  0  0  0  0  0  0  0
   58.8820   33.5180   53.1070 Br  0  0  0  0  0  0  0  0  0  0  0  0
  1  2  1  0
  2  3  1  0
  3  4  2  0
  4  5  1  0
  4  6  1  0
  6  7  1  0
  6  8  2  0
  8  9  1  0
  9 10  2  0
 10 11  1  0
 11 12  1  0
 12 13  2  0
 13 14  1  0
 14 15  1  0
 14 16  1  0
 16 17  1  0
 16 18  1  0
 16 19  1  0
 19 20  1  0
 19 21  1  0
 19 22  1  0
 22 23  1  0
 23 24  1  0
 23 25  1  0
 23 26  1  0
 22 27  1  0
 27 28  1  0
 27 29  1  0
 27 30  1  0
 30 31  1  0
 30 32  1  0
 12 33  1  0
 33 34  1  0
 34 35  2  0
 34 36  1  0
 36 37  1  0
 36 38  1  0
 36 39  1  0
 33 40  2  0
 40 41  1  0
 40 42  1  0
 42 43  1  0
 43 44  1  0
 44 45  1  0
 44 46  2  0
 46 47  1  0
  8 48  1  0
 48 49  1  0
 48 50  2  0
 50 51  1  0
 50  3  1  0
 46  9  1  0
 43 11  2  0
 30 14  1  0
M  CHG  1  42  -1
M  END
>  <UniqueID>  (17) 
17

>  <SMILES>  (17) 
CC(=O)c1c[n-]c2ccc(-c3cc(Cl)c(O)c(Br)c3)nc2/c1=N/C1CCN(C)CC1

>  <Energy>  (17) 
87.22809495761234

>  <Genealogy>  (17) 
CC(=O)c1c[n-]c2ccc(-c3cc(Cl)c(O)c(Br)c3)nc2c1=NC1CCN(C)CC1 (protonated)
CC(=O)c1c[n-]c2ccc(-c3cc(Cl)c(O)c(Br)c3)nc2/c1=N/C1CCN(C)CC1 (cis-trans isomerization)
CC(=O)c1c[n-]c2ccc(-c3cc(Cl)c(O)c(Br)c3)nc2/c1=N/C1CCN(C)CC1 (3D coordinates assigned)
CC(=O)c1c[n-]c2ccc(-c3cc(Cl)c(O)c(Br)c3)nc2/c1=N/C1CCN(C)CC1 (nonaromatic ring conformer: 87.22809495761234 kcal/mol)

>  <smiles>  (17) 
CC(=O)c1c[nH]c2ccc(-c3cc(Cl)c(O)c(Br)c3)nc2c1=NC1CCN(C)CC1

>  <score_type>  (17) 
oracle

>  <origin>  (17) 
adg

>  <m_score__min__energy>  (17) 
-10.07

>  <m_primary>  (17) 
energy

$$$$
17:0
     RDKit          3D

 45 47  0  0  0  0  0  0  0  0999 V2000
   60.2500   29.9350   47.8070 C   0  0  0  0  0  0  0  0  0  0  0  0
   59.7320   30.7930   46.7980 O   0  0  0  0  0  0  0  0  0  0  0  0
   58.8460   30.3890   45.7860 C   0  0  0  0  0  0  0  0  0  0  0  0
   58.9860   29.1560   45.1170 C   0  0  0  0  0  0  0  0  0  0  0  0
   58.0820   28.7920   44.1160 C   0  0  0  0  0  0  0  0  0  0  0  0
   57.0300   29.6430   43.7790 C   0  0  0  0  0  0  0  0  0  0  0  0
   56.8810   30.8670   44.4360 C   0  0  0  0  0  0  0  0  0  0  0  0
   57.7970   31.2540   45.4300 C   0  0  0  0  0  0  0  0  0  0  0  0
   57.6740   32.5030   46.1220 N   0  0  0  0  0  0  0  0  0  0  0  0
   57.8470   33.8100   45.5620 C   0  0  0  0  0  0  0  0  0  0  0  0
   56.9380   34.3370   44.8670 O   0  0  0  0  0  0  0  0  0  0  0  0
   59.1310   34.5640   45.7830 C   0  0  0  0  0  0  0  0  0  0  0  0
   60.0620   33.9480   46.7700 N   0  0  0  0  0  0  0  0  0  0  0  0
   59.9300   34.5000   48.1460 C   0  0  0  0  0  0  0  0  0  0  0  0
   59.5690   33.4890   49.2120 C   0  0  0  0  0  0  0  0  0  0  0  0
   58.5970   32.5010   49.1020 C   0  0  0  0  0  0  0  0  0  0  0  0
   58.5290   31.6590   50.2180 C   0  0  0  0  0  0  0  0  0  0  0  0
   59.4660   31.9540   51.1970 C   0  0  0  0  0  0  0  0  0  0  0  0
   60.3810   33.2620   50.6710 S   0  0  0  0  0  0  0  0  0  0  0  0
   61.4720   33.8530   46.3140 C   0  0  0  0  0  0  0  0  0  0  0  0
   62.3870   33.3340   47.3870 C   0  0  0  0  0  0  0  0  0  0  0  0
   62.9990   34.0980   48.3730 C   0  0  0  0  0  0  0  0  0  0  0  0
   63.8240   33.3460   49.2180 C   0  0  0  0  0  0  0  0  0  0  0  0
   63.8660   31.9950   48.8970 C   0  0  0  0  0  0  0  0  0  0  0  0
   62.8770   31.7360   47.5610 S   0  0  0  0  0  0  0  0  0  0  0  0
   60.0033   30.3437   48.7980 H   0  0  0  0  0  0  0  0  0  0  0  0
   59.8048   28.9346   47.7017 H   0  0  0  0  0  0  0  0  0  0  0  0
   61.3426   29.8630   47.7017 H   0  0  0  0  0  0  0  0  0  0  0  0
   59.8100   28.4781   45.3841 H   0  0  0  0  0  0  0  0  0  0  0  0
   58.2004   27.8318   43.5925 H   0  0  0  0  0  0  0  0  0  0  0  0
   56.3164   29.3502   42.9947 H   0  0  0  0  0  0  0  0  0  0  0  0
   56.0436   31.5306   44.1745 H   0  0  0  0  0  0  0  0  0  0  0  0
   59.6549   34.6355   44.8184 H   0  0  0  0  0  0  0  0  0  0  0  0
   58.8454   35.5415   46.1988 H   0  0  0  0  0  0  0  0  0  0  0  0
   59.7310   32.9570   46.8600 H   0  0  0  0  0  0  0  0  0  0  0  0
   60.8909   34.9584   48.4227 H   0  0  0  0  0  0  0  0  0  0  0  0
   59.0965   35.2169   48.1094 H   0  0  0  0  0  0  0  0  0  0  0  0
   57.9446   32.3916   48.2231 H   0  0  0  0  0  0  0  0  0  0  0  0
   57.8005   30.8399   50.3100 H   0  0  0  0  0  0  0  0  0  0  0  0
   59.5891   31.4235   52.1527 H   0  0  0  0  0  0  0  0  0  0  0  0
   61.5190   33.1733   45.4504 H   0  0  0  0  0  0  0  0  0  0  0  0
   61.8076   34.8662   46.0480 H   0  0  0  0  0  0  0  0  0  0  0  0
   62.8505   35.1828   48.4789 H   0  0  0  0  0  0  0  0  0  0  0  0
   64.3857   33.7834   50.0566 H   0  0  0  0  0  0  0  0  0  0  0  0
   64.4471   31.2255   49.4264 H   0  0  0  0  0  0  0  0  0  0  0  0
  1  2  1  0
  2  3  1  0
  3  4  2  0
  4  5  1  0
  5  6  2  0
  6  7  1  0
  7  8  2  0
  8  9  1  0
  9 10  1  0
 10 11  2  0
 10 12  1  0
 12 13  1  0
 13 14  1  0
 14 15  1  0
 15 16  2  0
 16 17  1  0
 17 18  2  0
 18 19  1  0
 13 20  1  0
 20 21  1  0
 21 22  2  0
 22 23  1  0
 23 24  2  0
 24 25  1  0
  8  3  1  0
 19 15  1  0
 25 21  1  0
  1 26  1  0
  1 27  1  0
  1 28  1  0
  4 29  1  0
  5 30  1  0
  6 31  1  0
  7 32  1  0
 12 33  1  0
 12 34  1  0
 13 35  1  0
 14 36  1  0
 14 37  1  0
 16 38  1  0
 17 39  1  0
 18 40  1  0
 20 41  1  0
 20 42  1  0
 22 43  1  0
 23 44  1  0
 24 45  1  0
M  CHG  2   9  -1  13   1
M  END
>  <UniqueID>  (18) 
18

>  <SMILES>  (18) 
COc1ccccc1[N-]C(=O)C[NH+](Cc1cccs1)Cc1cccs1

>  <Energy>  (18) 
106.7648816048404

>  <Genealogy>  (18) 
COc1ccccc1[N-]C(=O)C[NH+](Cc1cccs1)Cc1cccs1 (protonated)
COc1ccccc1[N-]C(=O)C[NH+](Cc1cccs1)Cc1cccs1 (3D coordinates assigned)
COc1ccccc1[N-]C(=O)C[NH+](Cc1cccs1)Cc1cccs1 (optimized conformer: 106.7648816048404 kcal/mol)

>  <smiles>  (18) 
COc1ccccc1NC(=O)CN(Cc1cccs1)Cc1cccs1

>  <score_type>  (18) 
oracle

>  <origin>  (18) 
adg

>  <m_score__min__energy>  (18) 
-7.8899999999999997

>  <m_primary>  (18) 
energy

$$$$
19:0
     RDKit          3D

 56 60  0  0  0  0  0  0  0  0999 V2000
   61.5560   26.3340   47.8980 O   0  0  0  0  0  0  0  0  0  0  0  0
   60.6370   27.1880   47.7680 C   0  0  0  0  0  0  0  0  0  0  0  0
   59.7020   27.1000   46.6200 C   0  0  0  0  0  0  0  0  0  0  0  0
   59.2210   25.8520   46.1900 C   0  0  0  0  0  0  0  0  0  0  0  0
   58.3290   25.7830   45.1050 C   0  0  0  0  0  0  0  0  0  0  0  0
   57.7720   24.4890   44.6380 C   0  0  0  0  0  0  0  0  0  0  0  0
   58.2640   23.2820   45.1680 C   0  0  0  0  0  0  0  0  0  0  0  0
   57.7620   22.0560   44.7230 C   0  0  0  0  0  0  0  0  0  0  0  0
   56.7730   22.0190   43.7360 C   0  0  0  0  0  0  0  0  0  0  0  0
   56.2880   23.2100   43.1890 C   0  0  0  0  0  0  0  0  0  0  0  0
   56.7830   24.4400   43.6350 C   0  0  0  0  0  0  0  0  0  0  0  0
   57.9680   26.9310   44.4660 N   0  0  0  0  0  0  0  0  0  0  0  0
   58.4060   28.1590   44.8520 C   0  0  0  0  0  0  0  0  0  0  0  0
   57.9470   29.3620   44.1070 C   0  0  0  0  0  0  0  0  0  0  0  0
   56.9860   29.2650   43.0800 C   0  0  0  0  0  0  0  0  0  0  0  0
   56.5600   30.4090   42.4000 C   0  0  0  0  0  0  0  0  0  0  0  0
   57.0810   31.6610   42.7330 C   0  0  0  0  0  0  0  0  0  0  0  0
   58.0240   31.7730   43.7560 C   0  0  0  0  0  0  0  0  0  0  0  0
   58.4530   30.6320   44.4430 C   0  0  0  0  0  0  0  0  0  0  0  0
   59.2620   28.2580   45.9630 C   0  0  0  0  0  0  0  0  0  0  0  0
   60.5060   28.2280   48.7530 N   0  0  0  0  0  0  0  0  0  0  0  0
   60.7180   29.6310   48.3760 C   0  0  0  0  0  0  0  0  0  0  0  0
   59.6700   30.5230   49.0550 C   0  0  0  0  0  0  0  0  0  0  0  0
   59.4120   30.1010   50.4420 N   0  0  0  0  0  0  0  0  0  0  0  0
   58.3850   30.7410   51.2240 C   0  0  0  0  0  0  0  0  0  0  0  0
   58.4500   32.1150   51.5330 C   0  0  0  0  0  0  0  0  0  0  0  0
   57.3950   32.7190   52.2240 C   0  0  0  0  0  0  0  0  0  0  0  0
   56.2840   31.9620   52.5950 C   0  0  0  0  0  0  0  0  0  0  0  0
   56.2490   30.6020   52.2810 C   0  0  0  0  0  0  0  0  0  0  0  0
   57.2890   30.0270   51.6130 N   0  0  0  0  0  0  0  0  0  0  0  0
   60.2760   29.0900   51.0650 C   0  0  0  0  0  0  0  0  0  0  0  0
   60.3620   27.8520   50.1660 C   0  0  0  0  0  0  0  0  0  0  0  0
   59.5411   24.9317   46.7004 H   0  0  0  0  0  0  0  0  0  0  0  0
   59.0493   23.3035   45.9380 H   0  0  0  0  0  0  0  0  0  0  0  0
   58.1461   21.1180   45.1505 H   0  0  0  0  0  0  0  0  0  0  0  0
   56.3767   21.0530   43.3900 H   0  0  0  0  0  0  0  0  0  0  0  0
   55.5156   23.1802   42.4063 H   0  0  0  0  0  0  0  0  0  0  0  0
   56.3982   25.3744   43.2004 H   0  0  0  0  0  0  0  0  0  0  0  0
   56.5691   28.2829   42.8124 H   0  0  0  0  0  0  0  0  0  0  0  0
   55.8110   30.3229   41.5990 H   0  0  0  0  0  0  0  0  0  0  0  0
   56.7487   32.5579   42.1898 H   0  0  0  0  0  0  0  0  0  0  0  0
   58.4305   32.7598   44.0225 H   0  0  0  0  0  0  0  0  0  0  0  0
   59.1917   30.7282   45.2523 H   0  0  0  0  0  0  0  0  0  0  0  0
   59.5876   29.2470   46.3179 H   0  0  0  0  0  0  0  0  0  0  0  0
   61.7235   29.9450   48.6928 H   0  0  0  0  0  0  0  0  0  0  0  0
   60.6221   29.7292   47.2846 H   0  0  0  0  0  0  0  0  0  0  0  0
   60.0346   31.5608   49.0601 H   0  0  0  0  0  0  0  0  0  0  0  0
   58.7298   30.4383   48.4903 H   0  0  0  0  0  0  0  0  0  0  0  0
   59.3258   32.7087   51.2322 H   0  0  0  0  0  0  0  0  0  0  0  0
   57.4413   33.7891   52.4745 H   0  0  0  0  0  0  0  0  0  0  0  0
   55.4446   32.4312   53.1291 H   0  0  0  0  0  0  0  0  0  0  0  0
   55.3806   29.9933   52.5732 H   0  0  0  0  0  0  0  0  0  0  0  0
   61.2834   29.5085   51.2068 H   0  0  0  0  0  0  0  0  0  0  0  0
   59.8526   28.8019   52.0385 H   0  0  0  0  0  0  0  0  0  0  0  0
   61.2320   27.2501   50.4672 H   0  0  0  0  0  0  0  0  0  0  0  0
   59.4322   27.2752   50.2790 H   0  0  0  0  0  0  0  0  0  0  0  0
  1  2  2  0
  2  3  1  0
  3  4  2  0
  4  5  1  0
  5  6  1  0
  6  7  2  0
  7  8  1  0
  8  9  2  0
  9 10  1  0
 10 11  2  0
  5 12  2  0
 12 13  1  0
 13 14  1  0
 14 15  2  0
 15 16  1  0
 16 17  2  0
 17 18  1  0
 18 19  2  0
 13 20  2  0
  2 21  1  0
 21 22  1  0
 22 23  1  0
 23 24  1  0
 24 25  1  0
 25 26  2  0
 26 27  1  0
 27 28  2  0
 28 29  1  0
 29 30  2  0
 24 31  1  0
 31 32  1  0
 20  3  1  0
 32 21  1  0
 11  6  1  0
 19 14  1  0
 30 25  1  0
  4 33  1  0
  7 34  1  0
  8 35  1  0
  9 36  1  0
 10 37  1  0
 11 38  1  0
 15 39  1  0
 16 40  1  0
 17 41  1  0
 18 42  1  0
 19 43  1  0
 20 44  1  0
 22 45  1  0
 22 46  1  0
 23 47  1  0
 23 48  1  0
 26 49  1  0
 27 50  1  0
 28 51  1  0
 29 52  1  0
 31 53  1  0
 31 54  1  0
 32 55  1  0
 32 56  1  0
M  END
>  <UniqueID>  (19) 
19

>  <SMILES>  (19) 
O=C(c1cc(-c2ccccc2)nc(-c2ccccc2)c1)N1CCN(c2ccccn2)CC1

>  <Energy>  (19) 
79.29513214950106

>  <Genealogy>  (19) 
O=C(c1cc(-c2ccccc2)nc(-c2ccccc2)c1)N1CCN(c2ccccn2)CC1 (3D coordinates assigned)
O=C(c1cc(-c2ccccc2)nc(-c2ccccc2)c1)N1CCN(c2ccccn2)CC1 (nonaromatic ring conformer: 79.29513214950106 kcal/mol)

>  <smiles>  (19) 
O=C(c1cc(-c2ccccc2)nc(-c2ccccc2)c1)N1CCN(c2ccccn2)CC1

>  <score_type>  (19) 
oracle

>  <origin>  (19) 
adg

>  <m_score__min__energy>  (19) 
-8.3300000000000001

>  <m_primary>  (19) 
energy

$$$$
20:0
     RDKit          3D

 34 35  0  0  0  0  0  0  0  0999 V2000
   57.2800   32.3900   40.7150 C   0  0  0  0  0  0  0  0  0  0  0  0
   57.8240   31.9980   42.0830 C   0  0  0  0  0  0  0  0  0  0  0  0
   56.9190   30.5690   42.7760 S   0  0  0  0  0  0  0  0  0  0  0  0
   57.4970   30.8200   44.4570 C   0  0  0  0  0  0  0  0  0  0  0  0
   57.0670   31.8220   45.2460 N   0  0  0  0  0  0  0  0  0  0  0  0
   57.7610   31.7490   46.3720 N   0  0  0  0  0  0  0  0  0  0  0  0
   58.5960   30.6980   46.2570 C   0  0  0  0  0  0  0  0  0  0  0  0
   59.6610   30.3850   47.2740 C   0  0  0  0  0  0  0  0  0  0  0  0
   59.9640   31.5430   48.1340 N   0  0  0  0  0  0  0  0  0  0  0  0
   61.2430   32.1360   47.8110 C   0  0  0  0  0  0  0  0  0  0  0  0
   62.4300   31.4950   48.2190 C   0  0  0  0  0  0  0  0  0  0  0  0
   63.6770   32.0220   47.8810 C   0  0  0  0  0  0  0  0  0  0  0  0
   63.7600   33.1970   47.1340 C   0  0  0  0  0  0  0  0  0  0  0  0
   62.5950   33.8470   46.7230 C   0  0  0  0  0  0  0  0  0  0  0  0
   61.3370   33.3270   47.0520 C   0  0  0  0  0  0  0  0  0  0  0  0
   59.7860   34.2790   46.4450 Br  0  0  0  0  0  0  0  0  0  0  0  0
   58.4430   30.0790   45.0670 N   0  0  0  0  0  0  0  0  0  0  0  0
   59.2290   28.9870   44.4960 C   0  0  0  0  0  0  0  0  0  0  0  0
   56.3935   33.0288   40.8422 H   0  0  0  0  0  0  0  0  0  0  0  0
   58.0519   32.9408   40.1575 H   0  0  0  0  0  0  0  0  0  0  0  0
   57.0018   31.4835   40.1575 H   0  0  0  0  0  0  0  0  0  0  0  0
   58.8872   31.7341   41.9832 H   0  0  0  0  0  0  0  0  0  0  0  0
   57.6962   32.8522   42.7642 H   0  0  0  0  0  0  0  0  0  0  0  0
   59.3143   29.5545   47.9065 H   0  0  0  0  0  0  0  0  0  0  0  0
   60.5793   30.1168   46.7311 H   0  0  0  0  0  0  0  0  0  0  0  0
   59.9460   31.2490   49.1380 H   0  0  0  0  0  0  0  0  0  0  0  0
   59.2050   32.2550   48.0270 H   0  0  0  0  0  0  0  0  0  0  0  0
   62.3728   30.5692   48.8103 H   0  0  0  0  0  0  0  0  0  0  0  0
   64.5956   31.5103   48.2040 H   0  0  0  0  0  0  0  0  0  0  0  0
   64.7437   33.6116   46.8687 H   0  0  0  0  0  0  0  0  0  0  0  0
   62.6656   34.7747   46.1362 H   0  0  0  0  0  0  0  0  0  0  0  0
   59.6629   28.3842   45.3074 H   0  0  0  0  0  0  0  0  0  0  0  0
   58.5789   28.3528   43.8754 H   0  0  0  0  0  0  0  0  0  0  0  0
   60.0368   29.4022   43.8754 H   0  0  0  0  0  0  0  0  0  0  0  0
  1  2  1  0
  2  3  1  0
  3  4  1  0
  4  5  2  0
  5  6  1  0
  6  7  2  0
  7  8  1  0
  8  9  1  0
  9 10  1  0
 10 11  2  0
 11 12  1  0
 12 13  2  0
 13 14  1  0
 14 15  2  0
 15 16  1  0
  7 17  1  0
 17 18  1  0
 17  4  1  0
 15 10  1  0
  1 19  1  0
  1 20  1  0
  1 21  1  0
  2 22  1  0
  2 23  1  0
  8 24  1  0
  8 25  1  0
  9 26  1  0
  9 27  1  0
 11 28  1  0
 12 29  1  0
 13 30  1  0
 14 31  1  0
 18 32  1  0
 18 33  1  0
 18 34  1  0
M  CHG  1   9   1
M  END
>  <UniqueID>  (20) 
20

>  <SMILES>  (20) 
CCSc1nnc(C[NH2+]c2ccccc2Br)n1C

>  <Energy>  (20) 
62.290632064733245

>  <Genealogy>  (20) 
CCSc1nnc(C[NH2+]c2ccccc2Br)n1C (protonated)
CCSc1nnc(C[NH2+]c2ccccc2Br)n1C (3D coordinates assigned)
CCSc1nnc(C[NH2+]c2ccccc2Br)n1C (optimized conformer: 62.290632064733245 kcal/mol)

>  <smiles>  (20) 
CCSc1nnc(CNc2ccccc2Br)n1C

>  <score_type>  (20) 
oracle

>  <origin>  (20) 
adg

>  <m_score__min__energy>  (20) 
-6

>  <m_primary>  (20) 
energy

$$$$
21:0
     RDKit          3D

 33 34  0  0  0  0  0  0  0  0999 V2000
   58.0940   27.0770   42.6560 C   0  0  0  0  0  0  0  0  0  0  0  0
   58.5810   27.1460   44.1110 C   0  0  0  0  0  0  0  0  0  0  0  0
   58.0440   28.2810   44.9030 N   0  0  0  0  0  0  0  0  0  0  0  0
   57.7940   28.0370   46.3440 C   0  0  0  0  0  0  0  0  0  0  0  0
   57.5890   26.5440   46.6320 C   0  0  0  0  0  0  0  0  0  0  0  0
   56.2350   26.0950   46.2870 C   0  0  0  0  0  0  0  0  0  0  0  0
   55.1680   25.7370   46.0160 N   0  0  0  0  0  0  0  0  0  0  0  0
   56.9800   29.0550   44.2250 C   0  0  0  0  0  0  0  0  0  0  0  0
   57.3040   30.5150   44.1030 C   0  0  0  0  0  0  0  0  0  0  0  0
   57.0740   31.4220   45.0770 N   0  0  0  0  0  0  0  0  0  0  0  0
   57.4870   32.5620   44.4820 C   0  0  0  0  0  0  0  0  0  0  0  0
   57.4570   33.9040   45.1390 C   0  0  0  0  0  0  0  0  0  0  0  0
   58.1670   33.9620   46.4830 C   0  0  0  0  0  0  0  0  0  0  0  0
   58.8150   34.5780   45.2550 C   0  0  0  0  0  0  0  0  0  0  0  0
   57.9320   32.3460   43.2660 O   0  0  0  0  0  0  0  0  0  0  0  0
   57.8280   31.0830   43.0030 N   0  0  0  0  0  0  0  0  0  0  0  0
   57.0050   26.9227   42.6408 H   0  0  0  0  0  0  0  0  0  0  0  0
   58.3381   28.0187   42.1426 H   0  0  0  0  0  0  0  0  0  0  0  0
   58.5901   26.2402   42.1426 H   0  0  0  0  0  0  0  0  0  0  0  0
   58.2881   26.2119   44.6128 H   0  0  0  0  0  0  0  0  0  0  0  0
   59.6697   27.2952   44.0623 H   0  0  0  0  0  0  0  0  0  0  0  0
   58.6568   28.3979   46.9230 H   0  0  0  0  0  0  0  0  0  0  0  0
   56.8782   28.5739   46.6321 H   0  0  0  0  0  0  0  0  0  0  0  0
   58.3153   25.9661   46.0417 H   0  0  0  0  0  0  0  0  0  0  0  0
   57.7337   26.3846   47.7107 H   0  0  0  0  0  0  0  0  0  0  0  0
   56.8356   28.6425   43.2156 H   0  0  0  0  0  0  0  0  0  0  0  0
   56.0702   28.9700   44.8375 H   0  0  0  0  0  0  0  0  0  0  0  0
   56.4665   34.2030   44.7656 H   0  0  0  0  0  0  0  0  0  0  0  0
   57.7782   34.6094   47.2829 H   0  0  0  0  0  0  0  0  0  0  0  0
   58.4732   33.2184   47.2335 H   0  0  0  0  0  0  0  0  0  0  0  0
   58.8956   35.6714   45.1659 H   0  0  0  0  0  0  0  0  0  0  0  0
   59.7848   34.4650   44.7484 H   0  0  0  0  0  0  0  0  0  0  0  0
   58.0940   30.6220   42.1050 H   0  0  0  0  0  0  0  0  0  0  0  0
  1  2  1  0
  2  3  1  0
  3  4  1  0
  4  5  1  0
  5  6  1  0
  6  7  3  0
  3  8  1  0
  8  9  1  0
  9 10  1  0
 10 11  2  0
 11 12  1  0
 12 13  1  0
 13 14  1  0
 11 15  1  0
 15 16  1  0
 16  9  2  0
 14 12  1  0
  1 17  1  0
  1 18  1  0
  1 19  1  0
  2 20  1  0
  2 21  1  0
  4 22  1  0
  4 23  1  0
  5 24  1  0
  5 25  1  0
  8 26  1  0
  8 27  1  0
 12 28  1  0
 13 29  1  0
 13 30  1  0
 14 31  1  0
 14 32  1  0
 16 33  1  0
M  CHG  1  16   1
M  END
>  <UniqueID>  (21) 
21

>  <SMILES>  (21) 
CCN(CCC#N)Cc1nc(C2CC2)o[nH+]1

>  <Energy>  (21) 
332.78787470911743

>  <Genealogy>  (21) 
CCN(CCC#N)Cc1nc(C2CC2)o[nH+]1 (protonated)
CCN(CCC#N)Cc1nc(C2CC2)o[nH+]1 (3D coordinates assigned)
CCN(CCC#N)Cc1nc(C2CC2)o[nH+]1 (nonaromatic ring conformer: 332.78787470911743 kcal/mol)

>  <smiles>  (21) 
CCN(CCC#N)Cc1noc(C2CC2)n1

>  <score_type>  (21) 
oracle

>  <origin>  (21) 
adg

>  <m_score__min__energy>  (21) 
-4.8600000000000003

>  <m_primary>  (21) 
energy

$$$$
22:0
     RDKit          3D

 42 44  0  0  0  0  0  0  0  0999 V2000
   57.5010   21.0810   43.3130 C   0  0  0  0  0  0  0  0  0  0  0  0
   57.7770   22.4390   43.7680 N   0  0  0  0  0  0  0  0  0  0  0  0
   56.7440   23.4340   43.8320 C   0  0  0  0  0  0  0  0  0  0  0  0
   55.5460   23.0990   43.6250 O   0  0  0  0  0  0  0  0  0  0  0  0
   57.0580   24.8470   44.1570 C   0  0  0  0  0  0  0  0  0  0  0  0
   57.7690   25.6620   43.2560 C   0  0  0  0  0  0  0  0  0  0  0  0
   58.0500   26.9930   43.5740 C   0  0  0  0  0  0  0  0  0  0  0  0
   57.6150   27.5400   44.7900 C   0  0  0  0  0  0  0  0  0  0  0  0
   57.9260   28.9480   45.1240 C   0  0  0  0  0  0  0  0  0  0  0  0
   59.1380   29.2540   45.7580 C   0  0  0  0  0  0  0  0  0  0  0  0
   59.4320   30.5360   46.0890 N   0  0  0  0  0  0  0  0  0  0  0  0
   58.5720   31.5510   45.8100 C   0  0  0  0  0  0  0  0  0  0  0  0
   58.9040   32.8990   46.1740 N   0  0  0  0  0  0  0  0  0  0  0  0
   59.0590   33.9730   45.2090 C   0  0  0  0  0  0  0  0  0  0  0  0
   59.5600   35.1680   46.0070 C   0  0  0  0  0  0  0  0  0  0  0  0
   59.2820   34.8430   47.4740 C   0  0  0  0  0  0  0  0  0  0  0  0
   59.1180   33.3300   47.5430 C   0  0  0  0  0  0  0  0  0  0  0  0
   57.3980   31.2810   45.1800 N   0  0  0  0  0  0  0  0  0  0  0  0
   57.0550   30.0160   44.8190 C   0  0  0  0  0  0  0  0  0  0  0  0
   55.7500   29.8080   44.1060 C   0  0  0  0  0  0  0  0  0  0  0  0
   56.9080   26.7320   45.6920 C   0  0  0  0  0  0  0  0  0  0  0  0
   56.6240   25.4010   45.3750 C   0  0  0  0  0  0  0  0  0  0  0  0
   57.3672   20.4226   44.1840 H   0  0  0  0  0  0  0  0  0  0  0  0
   56.5837   21.0770   42.7059 H   0  0  0  0  0  0  0  0  0  0  0  0
   58.3440   20.7192   42.7059 H   0  0  0  0  0  0  0  0  0  0  0  0
   58.7440   22.6590   44.0950 H   0  0  0  0  0  0  0  0  0  0  0  0
   58.1059   25.2477   42.2943 H   0  0  0  0  0  0  0  0  0  0  0  0
   58.6161   27.6161   42.8660 H   0  0  0  0  0  0  0  0  0  0  0  0
   59.8538   28.4510   45.9881 H   0  0  0  0  0  0  0  0  0  0  0  0
   59.7902   33.6929   44.4364 H   0  0  0  0  0  0  0  0  0  0  0  0
   58.1144   34.1954   44.6910 H   0  0  0  0  0  0  0  0  0  0  0  0
   60.6387   35.3103   45.8451 H   0  0  0  0  0  0  0  0  0  0  0  0
   59.0579   36.0969   45.6985 H   0  0  0  0  0  0  0  0  0  0  0  0
   60.1244   35.1656   48.1036 H   0  0  0  0  0  0  0  0  0  0  0  0
   58.3846   35.3635   47.8398 H   0  0  0  0  0  0  0  0  0  0  0  0
   60.0250   32.8637   47.9553 H   0  0  0  0  0  0  0  0  0  0  0  0
   58.2823   33.0401   48.1969 H   0  0  0  0  0  0  0  0  0  0  0  0
   54.9450   29.6797   44.8446 H   0  0  0  0  0  0  0  0  0  0  0  0
   55.5331   30.6829   43.4755 H   0  0  0  0  0  0  0  0  0  0  0  0
   55.8159   28.9090   43.4755 H   0  0  0  0  0  0  0  0  0  0  0  0
   56.5752   27.1481   46.6543 H   0  0  0  0  0  0  0  0  0  0  0  0
   56.0560   24.7810   46.0842 H   0  0  0  0  0  0  0  0  0  0  0  0
  1  2  1  0
  2  3  1  0
  3  4  2  0
  3  5  1  0
  5  6  2  0
  6  7  1  0
  7  8  2  0
  8  9  1  0
  9 10  2  0
 10 11  1  0
 11 12  2  0
 12 13  1  0
 13 14  1  0
 14 15  1  0
 15 16  1  0
 16 17  1  0
 12 18  1  0
 18 19  2  0
 19 20  1  0
  8 21  1  0
 21 22  2  0
 22  5  1  0
 19  9  1  0
 17 13  1  0
  1 23  1  0
  1 24  1  0
  1 25  1  0
  2 26  1  0
  6 27  1  0
  7 28  1  0
 10 29  1  0
 14 30  1  0
 14 31  1  0
 15 32  1  0
 15 33  1  0
 16 34  1  0
 16 35  1  0
 17 36  1  0
 17 37  1  0
 20 38  1  0
 20 39  1  0
 20 40  1  0
 21 41  1  0
 22 42  1  0
M  END
>  <UniqueID>  (22) 
22

>  <SMILES>  (22) 
CNC(=O)c1ccc(-c2cnc(N3CCCC3)nc2C)cc1

>  <Energy>  (22) 
48.72785416103723

>  <Genealogy>  (22) 
CNC(=O)c1ccc(-c2cnc(N3CCCC3)nc2C)cc1 (3D coordinates assigned)
CNC(=O)c1ccc(-c2cnc(N3CCCC3)nc2C)cc1 (nonaromatic ring conformer: 48.72785416103723 kcal/mol)

>  <smiles>  (22) 
CNC(=O)c1ccc(-c2cnc(N3CCCC3)nc2C)cc1

>  <score_type>  (22) 
oracle

>  <origin>  (22) 
adg

>  <m_score__min__energy>  (22) 
-7.4800000000000004

>  <m_primary>  (22) 
energy

$$$$
23:0
     RDKit          3D

 47 48  0  0  0  0  0  0  0  0999 V2000
   63.3690   33.8370   46.4010 C   0  0  0  0  0  0  0  0  0  0  0  0
   63.0560   32.8880   47.5520 C   0  0  0  0  0  0  0  0  0  0  0  0
   62.1080   33.5430   48.5760 C   0  0  0  0  0  0  0  0  0  0  0  0
   60.7070   33.0830   48.4050 N   0  0  0  0  0  0  0  0  0  0  0  0
   60.0780   32.6780   49.6870 C   0  0  0  0  0  0  0  0  0  0  0  0
   58.7350   31.9130   49.5530 C   0  0  0  0  0  0  0  0  0  0  0  0
   58.9420   30.4160   49.3160 C   0  0  0  0  0  0  0  0  0  0  0  0
   59.8890   34.0490   47.6900 C   0  0  0  0  0  0  0  0  0  0  0  0
   59.2820   34.9190   48.3000 O   0  0  0  0  0  0  0  0  0  0  0  0
   59.7720   34.0090   46.1880 C   0  0  0  0  0  0  0  0  0  0  0  0
   58.6870   33.1080   45.7930 N   0  0  0  0  0  0  0  0  0  0  0  0
   57.4910   33.4900   45.2820 C   0  0  0  0  0  0  0  0  0  0  0  0
   56.7260   32.4480   44.8670 N   0  0  0  0  0  0  0  0  0  0  0  0
   57.5020   31.3810   45.1380 C   0  0  0  0  0  0  0  0  0  0  0  0
   58.6790   31.7650   45.6870 C   0  0  0  0  0  0  0  0  0  0  0  0
   59.6460   30.8170   46.0050 C   0  0  0  0  0  0  0  0  0  0  0  0
   60.7430   31.1630   46.5190 O   0  0  0  0  0  0  0  0  0  0  0  0
   59.3730   29.4940   45.7420 N   0  0  0  0  0  0  0  0  0  0  0  0
   60.3950   28.4680   46.0080 C   0  0  0  0  0  0  0  0  0  0  0  0
   58.1750   29.1320   45.1500 C   0  0  0  0  0  0  0  0  0  0  0  0
   57.9610   27.9230   44.8540 O   0  0  0  0  0  0  0  0  0  0  0  0
   57.2130   30.0780   44.8700 N   0  0  0  0  0  0  0  0  0  0  0  0
   55.9500   29.7080   44.2190 C   0  0  0  0  0  0  0  0  0  0  0  0
   63.6896   34.8090   46.8040 H   0  0  0  0  0  0  0  0  0  0  0  0
   64.1746   33.4121   45.7842 H   0  0  0  0  0  0  0  0  0  0  0  0
   62.4687   33.9747   45.7842 H   0  0  0  0  0  0  0  0  0  0  0  0
   62.5785   31.9823   47.1499 H   0  0  0  0  0  0  0  0  0  0  0  0
   63.9981   32.6377   48.0616 H   0  0  0  0  0  0  0  0  0  0  0  0
   62.4462   33.2842   49.5902 H   0  0  0  0  0  0  0  0  0  0  0  0
   62.1320   34.6311   48.4161 H   0  0  0  0  0  0  0  0  0  0  0  0
   60.7490   32.2060   47.8330 H   0  0  0  0  0  0  0  0  0  0  0  0
   60.7865   32.0297   50.2235 H   0  0  0  0  0  0  0  0  0  0  0  0
   59.8449   33.6115   50.2201 H   0  0  0  0  0  0  0  0  0  0  0  0
   58.1568   32.0481   50.4790 H   0  0  0  0  0  0  0  0  0  0  0  0
   58.2001   32.3211   48.6828 H   0  0  0  0  0  0  0  0  0  0  0  0
   59.0136   29.8980   50.2838 H   0  0  0  0  0  0  0  0  0  0  0  0
   58.0909   30.0137   48.7469 H   0  0  0  0  0  0  0  0  0  0  0  0
   59.8703   30.2598   48.7469 H   0  0  0  0  0  0  0  0  0  0  0  0
   59.5600   35.0209   45.8122 H   0  0  0  0  0  0  0  0  0  0  0  0
   60.7179   33.6429   45.7622 H   0  0  0  0  0  0  0  0  0  0  0  0
   57.1719   34.5403   45.2106 H   0  0  0  0  0  0  0  0  0  0  0  0
   60.5173   28.3452   47.0943 H   0  0  0  0  0  0  0  0  0  0  0  0
   60.0793   27.5123   45.5642 H   0  0  0  0  0  0  0  0  0  0  0  0
   61.3519   28.7800   45.5642 H   0  0  0  0  0  0  0  0  0  0  0  0
   55.1933   29.4863   44.9860 H   0  0  0  0  0  0  0  0  0  0  0  0
   55.6027   30.5422   43.5916 H   0  0  0  0  0  0  0  0  0  0  0  0
   56.1077   28.8183   43.5916 H   0  0  0  0  0  0  0  0  0  0  0  0
  1  2  1  0
  2  3  1  0
  3  4  1  0
  4  5  1  0
  5  6  1  0
  6  7  1  0
  4  8  1  0
  8  9  2  0
  8 10  1  0
 10 11  1  0
 11 12  1  0
 12 13  2  0
 13 14  1  0
 14 15  2  0
 15 16  1  0
 16 17  2  0
 16 18  1  0
 18 19  1  0
 18 20  1  0
 20 21  2  0
 20 22  1  0
 22 23  1  0
 15 11  1  0
 22 14  1  0
  1 24  1  0
  1 25  1  0
  1 26  1  0
  2 27  1  0
  2 28  1  0
  3 29  1  0
  3 30  1  0
  4 31  1  0
  5 32  1  0
  5 33  1  0
  6 34  1  0
  6 35  1  0
  7 36  1  0
  7 37  1  0
  7 38  1  0
 10 39  1  0
 10 40  1  0
 12 41  1  0
 19 42  1  0
 19 43  1  0
 19 44  1  0
 23 45  1  0
 23 46  1  0
 23 47  1  0
M  CHG  1   4   1
M  END
>  <UniqueID>  (23) 
23

>  <SMILES>  (23) 
CCC[NH+](CCC)C(=O)Cn1cnc2c1c(=O)n(C)c(=O)n2C

>  <Energy>  (23) 
88.5478665321734

>  <Genealogy>  (23) 
CCC[NH+](CCC)C(=O)Cn1cnc2c1c(=O)n(C)c(=O)n2C (protonated)
CCC[NH+](CCC)C(=O)Cn1cnc2c1c(=O)n(C)c(=O)n2C (3D coordinates assigned)
CCC[NH+](CCC)C(=O)Cn1cnc2c1c(=O)n(C)c(=O)n2C (optimized conformer: 88.5478665321734 kcal/mol)

>  <smiles>  (23) 
CCCN(CCC)C(=O)Cn1cnc2c1c(=O)n(C)c(=O)n2C

>  <score_type>  (23) 
oracle

>  <origin>  (23) 
adg

>  <m_score__min__energy>  (23) 
-4.1699999999999999

>  <m_primary>  (23) 
energy

$$$$
24:0
     RDKit          3D

 30 31  0  0  0  0  0  0  0  0999 V2000
   56.5090   24.4550   46.3480 C   0  0  0  0  0  0  0  0  0  0  0  0
   55.4220   25.2300   45.6200 C   0  0  0  0  0  0  0  0  0  0  0  0
   55.5010   26.5930   45.9850 O   0  0  0  0  0  0  0  0  0  0  0  0
   56.8480   26.9780   46.1790 C   0  0  0  0  0  0  0  0  0  0  0  0
   57.4030   27.6160   44.9010 C   0  0  0  0  0  0  0  0  0  0  0  0
   57.4050   29.0840   45.0200 N   0  0  0  0  0  0  0  0  0  0  0  0
   56.3960   29.7950   44.4310 C   0  0  0  0  0  0  0  0  0  0  0  0
   56.3750   31.1490   44.4960 N   0  0  0  0  0  0  0  0  0  0  0  0
   57.3520   31.8390   45.1340 C   0  0  0  0  0  0  0  0  0  0  0  0
   57.3040   33.2370   45.1860 C   0  0  0  0  0  0  0  0  0  0  0  0
   58.3130   33.9490   45.8390 C   0  0  0  0  0  0  0  0  0  0  0  0
   59.3760   33.2670   46.4430 C   0  0  0  0  0  0  0  0  0  0  0  0
   60.6400   34.1670   47.2600 Cl  0  0  0  0  0  0  0  0  0  0  0  0
   59.4310   31.8690   46.3950 C   0  0  0  0  0  0  0  0  0  0  0  0
   58.4170   31.1450   45.7400 C   0  0  0  0  0  0  0  0  0  0  0  0
   58.4240   29.7400   45.6620 C   0  0  0  0  0  0  0  0  0  0  0  0
   59.3720   29.0870   46.1830 O   0  0  0  0  0  0  0  0  0  0  0  0
   56.3668   24.5564   47.4341 H   0  0  0  0  0  0  0  0  0  0  0  0
   56.4519   23.3927   46.0683 H   0  0  0  0  0  0  0  0  0  0  0  0
   57.4947   24.8553   46.0683 H   0  0  0  0  0  0  0  0  0  0  0  0
   55.5639   25.1310   44.5337 H   0  0  0  0  0  0  0  0  0  0  0  0
   54.4349   24.8299   45.8948 H   0  0  0  0  0  0  0  0  0  0  0  0
   56.9035   27.7053   47.0024 H   0  0  0  0  0  0  0  0  0  0  0  0
   57.4449   26.0875   46.4252 H   0  0  0  0  0  0  0  0  0  0  0  0
   58.4323   27.2641   44.7375 H   0  0  0  0  0  0  0  0  0  0  0  0
   56.7659   27.3274   44.0520 H   0  0  0  0  0  0  0  0  0  0  0  0
   55.5935   29.2629   43.8992 H   0  0  0  0  0  0  0  0  0  0  0  0
   56.4704   33.7758   44.7119 H   0  0  0  0  0  0  0  0  0  0  0  0
   58.2722   35.0475   45.8787 H   0  0  0  0  0  0  0  0  0  0  0  0
   60.2677   31.3356   46.8698 H   0  0  0  0  0  0  0  0  0  0  0  0
  1  2  1  0
  2  3  1  0
  3  4  1  0
  4  5  1  0
  5  6  1  0
  6  7  1  0
  7  8  2  0
  8  9  1  0
  9 10  2  0
 10 11  1  0
 11 12  2  0
 12 13  1  0
 12 14  1  0
 14 15  2  0
 15 16  1  0
 16 17  2  0
 16  6  1  0
 15  9  1  0
  1 18  1  0
  1 19  1  0
  1 20  1  0
  2 21  1  0
  2 22  1  0
  4 23  1  0
  4 24  1  0
  5 25  1  0
  5 26  1  0
  7 27  1  0
 10 28  1  0
 11 29  1  0
 14 30  1  0
M  END
>  <UniqueID>  (24) 
24

>  <SMILES>  (24) 
CCOCCn1cnc2ccc(Cl)cc2c1=O

>  <Energy>  (24) 
33.53593496395684

>  <Genealogy>  (24) 
CCOCCn1cnc2ccc(Cl)cc2c1=O (3D coordinates assigned)
CCOCCn1cnc2ccc(Cl)cc2c1=O (optimized conformer: 33.53593496395684 kcal/mol)

>  <smiles>  (24) 
CCOCCn1cnc2ccc(Cl)cc2c1=O

>  <score_type>  (24) 
oracle

>  <origin>  (24) 
adg

>  <m_score__min__energy>  (24) 
-6.4100000000000001

>  <m_primary>  (24) 
energy

$$$$
25:0
     RDKit          3D

 68 73  0  0  0  0  0  0  0  0999 V2000
   61.9070   33.2260   52.6290 C   0  0  0  0  0  0  0  0  0  0  0  0
   61.8320   31.9510   51.8410 C   0  0  0  0  0  0  0  0  0  0  0  0
   62.7020   30.9540   52.0730 N   0  0  0  0  0  0  0  0  0  0  0  0
   62.2740   29.9260   51.3740 N   0  0  0  0  0  0  0  0  0  0  0  0
   61.1420   30.2730   50.7330 C   0  0  0  0  0  0  0  0  0  0  0  0
   60.2280   29.1750   50.2320 C   0  0  0  0  0  0  0  0  0  0  0  0
   60.3910   28.9830   48.7160 C   0  0  0  0  0  0  0  0  0  0  0  0
   59.2010   28.2310   48.0940 C   0  0  0  0  0  0  0  0  0  0  0  0
   59.1230   28.4390   46.6810 O   0  0  0  0  0  0  0  0  0  0  0  0
   58.7560   29.6460   46.0660 C   0  0  0  0  0  0  0  0  0  0  0  0
   57.7110   29.7240   45.1330 C   0  0  0  0  0  0  0  0  0  0  0  0
   57.2880   30.9630   44.6530 C   0  0  0  0  0  0  0  0  0  0  0  0
   57.9070   32.1420   45.0900 C   0  0  0  0  0  0  0  0  0  0  0  0
   57.4140   33.3870   44.6740 C   0  0  0  0  0  0  0  0  0  0  0  0
   57.9930   34.5640   45.1420 C   0  0  0  0  0  0  0  0  0  0  0  0
   59.0870   34.5140   46.0050 C   0  0  0  0  0  0  0  0  0  0  0  0
   59.6260   33.2820   46.4100 C   0  0  0  0  0  0  0  0  0  0  0  0
   60.8410   33.3050   47.2510 C   0  0  0  0  0  0  0  0  0  0  0  0
   61.0580   34.2480   48.2070 N   0  0  0  0  0  0  0  0  0  0  0  0
   62.2210   33.8540   48.7450 C   0  0  0  0  0  0  0  0  0  0  0  0
   62.9170   34.4440   49.7960 C   0  0  0  0  0  0  0  0  0  0  0  0
   64.1190   33.8390   50.2030 C   0  0  0  0  0  0  0  0  0  0  0  0
   64.5810   32.6650   49.5660 C   0  0  0  0  0  0  0  0  0  0  0  0
   63.8460   32.0920   48.5110 C   0  0  0  0  0  0  0  0  0  0  0  0
   62.6650   32.7240   48.1300 C   0  0  0  0  0  0  0  0  0  0  0  0
   61.8000   32.3440   47.1800 N   0  0  0  0  0  0  0  0  0  0  0  0
   59.0160   32.0760   45.9750 C   0  0  0  0  0  0  0  0  0  0  0  0
   59.4300   30.8100   46.4450 C   0  0  0  0  0  0  0  0  0  0  0  0
   60.8560   31.6000   50.9470 N   0  0  0  0  0  0  0  0  0  0  0  0
   59.7500   32.5040   50.4950 C   0  0  0  0  0  0  0  0  0  0  0  0
   59.1120   33.3970   51.5800 C   0  0  0  0  0  0  0  0  0  0  0  0
   58.2130   32.6000   52.5470 C   0  0  0  0  0  0  0  0  0  0  0  0
   57.1420   31.9170   51.8000 N   0  0  0  0  0  0  0  0  0  0  0  0
   56.2550   31.2000   52.7320 C   0  0  0  0  0  0  0  0  0  0  0  0
   57.7360   30.9660   50.8410 C   0  0  0  0  0  0  0  0  0  0  0  0
   58.5890   31.7220   49.8180 C   0  0  0  0  0  0  0  0  0  0  0  0
   61.8933   32.9939   53.7041 H   0  0  0  0  0  0  0  0  0  0  0  0
   62.8379   33.7566   52.3802 H   0  0  0  0  0  0  0  0  0  0  0  0
   61.0447   33.8621   52.3802 H   0  0  0  0  0  0  0  0  0  0  0  0
   62.7010   28.9760   51.4190 H   0  0  0  0  0  0  0  0  0  0  0  0
   60.4788   28.2344   50.7443 H   0  0  0  0  0  0  0  0  0  0  0  0
   59.1862   29.4580   50.4429 H   0  0  0  0  0  0  0  0  0  0  0  0
   60.4730   29.9715   48.2405 H   0  0  0  0  0  0  0  0  0  0  0  0
   61.2962   28.3813   48.5472 H   0  0  0  0  0  0  0  0  0  0  0  0
   59.3178   27.1549   48.2899 H   0  0  0  0  0  0  0  0  0  0  0  0
   58.2766   28.6168   48.5486 H   0  0  0  0  0  0  0  0  0  0  0  0
   57.2233   28.8039   44.7787 H   0  0  0  0  0  0  0  0  0  0  0  0
   56.4634   31.0153   43.9269 H   0  0  0  0  0  0  0  0  0  0  0  0
   56.5661   33.4343   43.9748 H   0  0  0  0  0  0  0  0  0  0  0  0
   57.5857   35.5369   44.8296 H   0  0  0  0  0  0  0  0  0  0  0  0
   59.5329   35.4499   46.3727 H   0  0  0  0  0  0  0  0  0  0  0  0
   62.5400   35.3513   50.2906 H   0  0  0  0  0  0  0  0  0  0  0  0
   64.7037   34.2822   51.0225 H   0  0  0  0  0  0  0  0  0  0  0  0
   65.5198   32.1966   49.8964 H   0  0  0  0  0  0  0  0  0  0  0  0
   64.1920   31.1781   48.0059 H   0  0  0  0  0  0  0  0  0  0  0  0
   60.2960   30.7392   47.1195 H   0  0  0  0  0  0  0  0  0  0  0  0
   60.2753   33.1610   49.7861 H   0  0  0  0  0  0  0  0  0  0  0  0
   59.9148   33.8767   52.1591 H   0  0  0  0  0  0  0  0  0  0  0  0
   58.4801   34.1405   51.0721 H   0  0  0  0  0  0  0  0  0  0  0  0
   58.8217   31.8515   53.0755 H   0  0  0  0  0  0  0  0  0  0  0  0
   57.7599   33.2940   53.2702 H   0  0  0  0  0  0  0  0  0  0  0  0
   56.5445   31.4340   53.7671 H   0  0  0  0  0  0  0  0  0  0  0  0
   55.2144   31.5137   52.5625 H   0  0  0  0  0  0  0  0  0  0  0  0
   56.3436   30.1168   52.5625 H   0  0  0  0  0  0  0  0  0  0  0  0
   58.3683   30.2478   51.3836 H   0  0  0  0  0  0  0  0  0  0  0  0
   56.9311   30.4303   50.3163 H   0  0  0  0  0  0  0  0  0  0  0  0
   59.0147   30.9991   49.1065 H   0  0  0  0  0  0  0  0  0  0  0  0
   57.9418   32.4491   49.3057 H   0  0  0  0  0  0  0  0  0  0  0  0
  1  2  1  0
  2  3  2  0
  3  4  1  0
  4  5  2  0
  5  6  1  0
  6  7  1  0
  7  8  1  0
  8  9  1  0
  9 10  1  0
 10 11  2  0
 11 12  1  0
 12 13  2  0
 13 14  1  0
 14 15  2  0
 15 16  1  0
 16 17  2  0
 17 18  1  0
 18 19  2  0
 19 20  1  0
 20 21  2  0
 21 22  1  0
 22 23  2  0
 23 24  1  0
 24 25  2  0
 25 26  1  0
 17 27  1  0
 27 28  2  0
  5 29  1  0
 29 30  1  0
 30 31  1  0
 31 32  1  0
 32 33  1  0
 33 34  1  0
 33 35  1  0
 35 36  1  0
 29  2  1  0
 36 30  1  0
 28 10  1  0
 27 13  1  0
 26 18  1  0
 25 20  1  0
  1 37  1  0
  1 38  1  0
  1 39  1  0
  4 40  1  0
  6 41  1  0
  6 42  1  0
  7 43  1  0
  7 44  1  0
  8 45  1  0
  8 46  1  0
 11 47  1  0
 12 48  1  0
 14 49  1  0
 15 50  1  0
 16 51  1  0
 21 52  1  0
 22 53  1  0
 23 54  1  0
 24 55  1  0
 28 56  1  0
 30 57  1  0
 31 58  1  0
 31 59  1  0
 32 60  1  0
 32 61  1  0
 34 62  1  0
 34 63  1  0
 34 64  1  0
 35 65  1  0
 35 66  1  0
 36 67  1  0
 36 68  1  0
M  CHG  2   4   1  26  -1
M  END
>  <UniqueID>  (25) 
25

>  <SMILES>  (25) 
Cc1n[nH+]c(CCCOc2ccc3cccc(-c4nc5ccccc5[n-]4)c3c2)n1C1CCN(C)CC1

>  <Energy>  (25) 
161.6466715511459

>  <Genealogy>  (25) 
Cc1n[nH+]c(CCCOc2ccc3cccc(-c4nc5ccccc5[n-]4)c3c2)n1C1CCN(C)CC1 (protonated)
Cc1n[nH+]c(CCCOc2ccc3cccc(-c4nc5ccccc5[n-]4)c3c2)n1C1CCN(C)CC1 (3D coordinates assigned)
Cc1n[nH+]c(CCCOc2ccc3cccc(-c4nc5ccccc5[n-]4)c3c2)n1C1CCN(C)CC1 (nonaromatic ring conformer: 161.6466715511459 kcal/mol)

>  <smiles>  (25) 
Cc1nnc(CCCOc2ccc3cccc(-c4nc5ccccc5[nH]4)c3c2)n1C1CCN(C)CC1

>  <score_type>  (25) 
oracle

>  <origin>  (25) 
adg

>  <m_score__min__energy>  (25) 
-9.6099999999999994

>  <m_primary>  (25) 
energy

$$$$
26:0
     RDKit          3D

 38 40  0  0  0  0  0  0  0  0999 V2000
   63.4330   32.2730   47.6060 C   0  0  0  0  0  0  0  0  0  0  0  0
   62.7900   33.5870   47.1820 C   0  0  0  0  0  0  0  0  0  0  0  0
   61.4120   33.3620   46.7610 N   0  0  0  0  0  0  0  0  0  0  0  0
   60.6360   32.3100   47.1050 C   0  0  0  0  0  0  0  0  0  0  0  0
   59.3930   32.5100   46.5410 C   0  0  0  0  0  0  0  0  0  0  0  0
   59.4620   33.7160   45.9040 C   0  0  0  0  0  0  0  0  0  0  0  0
   60.7010   34.2180   46.0370 N   0  0  0  0  0  0  0  0  0  0  0  0
   58.3370   34.3120   45.1280 C   0  0  0  0  0  0  0  0  0  0  0  0
   57.0210   33.5110   45.3250 C   0  0  0  0  0  0  0  0  0  0  0  0
   57.2110   32.0530   45.5490 N   0  0  0  0  0  0  0  0  0  0  0  0
   57.2980   31.2120   44.3330 C   0  0  0  0  0  0  0  0  0  0  0  0
   57.7950   29.8060   44.5870 C   0  0  0  0  0  0  0  0  0  0  0  0
   59.1700   29.5230   44.4970 C   0  0  0  0  0  0  0  0  0  0  0  0
   59.6460   28.2310   44.7410 C   0  0  0  0  0  0  0  0  0  0  0  0
   58.7530   27.2050   45.0580 C   0  0  0  0  0  0  0  0  0  0  0  0
   57.3830   27.4650   45.1180 C   0  0  0  0  0  0  0  0  0  0  0  0
   56.8990   28.7540   44.8730 C   0  0  0  0  0  0  0  0  0  0  0  0
   55.5600   28.9670   44.8940 F   0  0  0  0  0  0  0  0  0  0  0  0
   58.1460   31.7020   46.6410 C   0  0  0  0  0  0  0  0  0  0  0  0
   63.4609   32.2160   48.7042 H   0  0  0  0  0  0  0  0  0  0  0  0
   62.8445   31.4322   47.2100 H   0  0  0  0  0  0  0  0  0  0  0  0
   64.4580   32.2218   47.2100 H   0  0  0  0  0  0  0  0  0  0  0  0
   62.8008   34.2870   48.0305 H   0  0  0  0  0  0  0  0  0  0  0  0
   63.3579   34.0084   46.3394 H   0  0  0  0  0  0  0  0  0  0  0  0
   60.9400   31.4515   47.7218 H   0  0  0  0  0  0  0  0  0  0  0  0
   61.0550   35.1220   45.6520 H   0  0  0  0  0  0  0  0  0  0  0  0
   58.1792   35.3470   45.4654 H   0  0  0  0  0  0  0  0  0  0  0  0
   58.6014   34.2835   44.0606 H   0  0  0  0  0  0  0  0  0  0  0  0
   56.4939   33.9262   46.1967 H   0  0  0  0  0  0  0  0  0  0  0  0
   56.4522   33.6110   44.3888 H   0  0  0  0  0  0  0  0  0  0  0  0
   56.2954   31.1480   43.8851 H   0  0  0  0  0  0  0  0  0  0  0  0
   58.0314   31.6917   43.6681 H   0  0  0  0  0  0  0  0  0  0  0  0
   59.8760   30.3240   44.2327 H   0  0  0  0  0  0  0  0  0  0  0  0
   60.7245   28.0226   44.6832 H   0  0  0  0  0  0  0  0  0  0  0  0
   59.1296   26.1915   45.2605 H   0  0  0  0  0  0  0  0  0  0  0  0
   56.6813   26.6529   45.3589 H   0  0  0  0  0  0  0  0  0  0  0  0
   57.6627   31.9007   47.6090 H   0  0  0  0  0  0  0  0  0  0  0  0
   58.4055   30.6363   46.5579 H   0  0  0  0  0  0  0  0  0  0  0  0
  1  2  1  0
  2  3  1  0
  3  4  1  0
  4  5  2  0
  5  6  1  0
  6  7  2  0
  6  8  1  0
  8  9  1  0
  9 10  1  0
 10 11  1  0
 11 12  1  0
 12 13  2  0
 13 14  1  0
 14 15  2  0
 15 16  1  0
 16 17  2  0
 17 18  1  0
 10 19  1  0
  7  3  1  0
 17 12  1  0
 19  5  1  0
  1 20  1  0
  1 21  1  0
  1 22  1  0
  2 23  1  0
  2 24  1  0
  4 25  1  0
  7 26  1  0
  8 27  1  0
  8 28  1  0
  9 29  1  0
  9 30  1  0
 11 31  1  0
 11 32  1  0
 13 33  1  0
 14 34  1  0
 15 35  1  0
 16 36  1  0
 19 37  1  0
 19 38  1  0
M  CHG  1   7   1
M  END
>  <UniqueID>  (26) 
26

>  <SMILES>  (26) 
CCn1cc2c([nH+]1)CCN(Cc1ccccc1F)C2

>  <Energy>  (26) 
78.04983719905353

>  <Genealogy>  (26) 
CCn1cc2c([nH+]1)CCN(Cc1ccccc1F)C2 (protonated)
CCn1cc2c([nH+]1)CCN(Cc1ccccc1F)C2 (3D coordinates assigned)
CCn1cc2c([nH+]1)CCN(Cc1ccccc1F)C2 (nonaromatic ring conformer: 78.04983719905353 kcal/mol)

>  <smiles>  (26) 
CCn1cc2c(n1)CCN(Cc1ccccc1F)C2

>  <score_type>  (26) 
oracle

>  <origin>  (26) 
adg

>  <m_score__min__energy>  (26) 
-5.6900000000000004

>  <m_primary>  (26) 
energy

$$$$
27:0
     RDKit          3D

 39 40  0  0  0  0  0  0  0  0999 V2000
   57.0160   24.1220   43.7540 C   0  0  0  0  0  0  0  0  0  0  0  0
   57.5050   24.7860   44.9160 O   0  0  0  0  0  0  0  0  0  0  0  0
   57.7480   26.1650   44.9970 C   0  0  0  0  0  0  0  0  0  0  0  0
   58.1310   26.9310   43.8790 C   0  0  0  0  0  0  0  0  0  0  0  0
   58.3610   28.3050   44.0120 C   0  0  0  0  0  0  0  0  0  0  0  0
   58.1970   28.9360   45.2570 C   0  0  0  0  0  0  0  0  0  0  0  0
   58.4500   30.3420   45.4240 N   0  0  0  0  0  0  0  0  0  0  0  0
   57.5840   31.3770   44.9310 C   0  0  0  0  0  0  0  0  0  0  0  0
   56.4260   31.0990   44.5130 O   0  0  0  0  0  0  0  0  0  0  0  0
   58.0470   32.8160   44.9290 C   0  0  1  0  0  0  0  0  0  0  0  0
   56.8210   33.6940   45.2490 C   0  0  0  0  0  0  0  0  0  0  0  0
   59.1520   33.0040   45.9090 N   0  0  0  0  0  0  0  0  0  0  0  0
   59.9210   34.2550   45.6580 C   0  0  0  0  0  0  0  0  0  0  0  0
   59.6340   35.3430   46.7090 C   0  0  0  0  0  0  0  0  0  0  0  0
   59.9380   34.9390   48.0340 O   0  0  0  0  0  0  0  0  0  0  0  0
   59.7060   33.5570   48.2730 C   0  0  0  0  0  0  0  0  0  0  0  0
   58.6880   32.9160   47.3150 C   0  0  0  0  0  0  0  0  0  0  0  0
   57.8380   28.1650   46.3710 C   0  0  0  0  0  0  0  0  0  0  0  0
   57.6080   26.7930   46.2390 C   0  0  0  0  0  0  0  0  0  0  0  0
   56.3886   23.2701   44.0552 H   0  0  0  0  0  0  0  0  0  0  0  0
   56.4177   24.8242   43.1549 H   0  0  0  0  0  0  0  0  0  0  0  0
   57.8641   23.7590   43.1549 H   0  0  0  0  0  0  0  0  0  0  0  0
   58.2498   26.4477   42.8980 H   0  0  0  0  0  0  0  0  0  0  0  0
   58.6720   28.8946   43.1369 H   0  0  0  0  0  0  0  0  0  0  0  0
   59.2640   30.6250   46.0150 H   0  0  0  0  0  0  0  0  0  0  0  0
   58.4534   33.1056   43.9487 H   0  0  0  0  0  0  0  0  0  0  0  0
   56.7044   33.7775   46.3396 H   0  0  0  0  0  0  0  0  0  0  0  0
   56.9648   34.6957   44.8179 H   0  0  0  0  0  0  0  0  0  0  0  0
   55.9189   33.2353   44.8179 H   0  0  0  0  0  0  0  0  0  0  0  0
   60.9952   34.0191   45.6784 H   0  0  0  0  0  0  0  0  0  0  0  0
   59.6122   34.6468   44.6776 H   0  0  0  0  0  0  0  0  0  0  0  0
   60.2385   36.2297   46.4673 H   0  0  0  0  0  0  0  0  0  0  0  0
   58.5549   35.5536   46.6727 H   0  0  0  0  0  0  0  0  0  0  0  0
   60.6621   33.0232   48.1686 H   0  0  0  0  0  0  0  0  0  0  0  0
   59.2828   33.4770   49.2852 H   0  0  0  0  0  0  0  0  0  0  0  0
   58.5571   31.8577   47.5849 H   0  0  0  0  0  0  0  0  0  0  0  0
   57.7346   33.4574   47.4037 H   0  0  0  0  0  0  0  0  0  0  0  0
   57.7366   28.6433   47.3563 H   0  0  0  0  0  0  0  0  0  0  0  0
   57.3144   26.2020   47.1191 H   0  0  0  0  0  0  0  0  0  0  0  0
  1  2  1  0
  2  3  1  0
  3  4  2  0
  4  5  1  0
  5  6  2  0
  6  7  1  0
  7  8  1  0
  8  9  2  0
  8 10  1  0
 10 11  1  0
 10 12  1  0
 12 13  1  0
 13 14  1  0
 14 15  1  0
 15 16  1  0
 16 17  1  0
  6 18  1  0
 18 19  2  0
 19  3  1  0
 17 12  1  0
  1 20  1  0
  1 21  1  0
  1 22  1  0
  4 23  1  0
  5 24  1  0
  7 25  1  0
 10 26  1  6
 11 27  1  0
 11 28  1  0
 11 29  1  0
 13 30  1  0
 13 31  1  0
 14 32  1  0
 14 33  1  0
 16 34  1  0
 16 35  1  0
 17 36  1  0
 17 37  1  0
 18 38  1  0
 19 39  1  0
M  END
>  <UniqueID>  (27) 
27

>  <SMILES>  (27) 
COc1ccc(NC(=O)[C@@H](C)N2CCOCC2)cc1

>  <Energy>  (27) 
56.1821621156493

>  <Genealogy>  (27) 
COc1ccc(NC(=O)[C@@H](C)N2CCOCC2)cc1 (chirality)
COc1ccc(NC(=O)[C@@H](C)N2CCOCC2)cc1 (3D coordinates assigned)
COc1ccc(NC(=O)[C@@H](C)N2CCOCC2)cc1 (nonaromatic ring conformer: 56.1821621156493 kcal/mol)

>  <smiles>  (27) 
COc1ccc(NC(=O)C(C)N2CCOCC2)cc1

>  <score_type>  (27) 
oracle

>  <origin>  (27) 
adg

>  <m_score__min__energy>  (27) 
-6.1399999999999997

>  <m_primary>  (27) 
energy

$$$$
28:0
     RDKit          3D

 36 38  0  0  0  0  0  0  0  0999 V2000
   57.4110   28.2140   43.1060 C   0  0  0  0  0  0  0  0  0  0  0  0
   58.0350   29.0290   44.1530 N   0  0  0  0  0  0  0  0  0  0  0  0
   59.4630   28.8520   44.4730 C   0  0  0  0  0  0  0  0  0  0  0  0
   59.6420   28.4870   45.9240 C   0  0  0  0  0  0  0  0  0  0  0  0
   60.3220   29.3590   46.7900 C   0  0  0  0  0  0  0  0  0  0  0  0
   60.4690   29.0360   48.1430 C   0  0  0  0  0  0  0  0  0  0  0  0
   59.9410   27.8410   48.6390 C   0  0  0  0  0  0  0  0  0  0  0  0
   59.2660   26.9670   47.7830 C   0  0  0  0  0  0  0  0  0  0  0  0
   59.1190   27.2840   46.4290 C   0  0  0  0  0  0  0  0  0  0  0  0
   57.2500   30.0580   44.7920 C   0  0  0  0  0  0  0  0  0  0  0  0
   56.0170   29.8750   44.9870 O   0  0  0  0  0  0  0  0  0  0  0  0
   57.8390   31.3480   45.1880 C   0  0  0  0  0  0  0  0  0  0  0  0
   58.1460   31.6890   46.5130 C   0  0  0  0  0  0  0  0  0  0  0  0
   58.6390   32.9640   46.4050 C   0  0  0  0  0  0  0  0  0  0  0  0
   59.2580   34.1740   47.3800 S   0  0  0  0  0  0  0  0  0  0  0  0
   59.5350   35.2200   46.0510 C   0  0  0  0  0  0  0  0  0  0  0  0
   59.1400   34.6030   44.8550 C   0  0  0  0  0  0  0  0  0  0  0  0
   58.6360   33.3340   45.1190 C   0  0  0  0  0  0  0  0  0  0  0  0
   58.1530   32.3630   44.3290 N   0  0  0  0  0  0  0  0  0  0  0  0
   58.1130   32.3750   42.8680 C   0  0  0  0  0  0  0  0  0  0  0  0
   56.8047   27.4222   43.5702 H   0  0  0  0  0  0  0  0  0  0  0  0
   56.7669   28.8502   42.4812 H   0  0  0  0  0  0  0  0  0  0  0  0
   58.1932   27.7582   42.4812 H   0  0  0  0  0  0  0  0  0  0  0  0
   59.8771   28.0494   43.8450 H   0  0  0  0  0  0  0  0  0  0  0  0
   59.9891   29.7983   44.2787 H   0  0  0  0  0  0  0  0  0  0  0  0
   60.7406   30.2996   46.4027 H   0  0  0  0  0  0  0  0  0  0  0  0
   61.0008   29.7234   48.8173 H   0  0  0  0  0  0  0  0  0  0  0  0
   60.0568   27.5884   49.7033 H   0  0  0  0  0  0  0  0  0  0  0  0
   58.8493   26.0275   48.1751 H   0  0  0  0  0  0  0  0  0  0  0  0
   58.5926   26.5900   45.7572 H   0  0  0  0  0  0  0  0  0  0  0  0
   58.0214   31.0802   47.4207 H   0  0  0  0  0  0  0  0  0  0  0  0
   59.9617   36.2311   46.1254 H   0  0  0  0  0  0  0  0  0  0  0  0
   59.2174   35.0560   43.8556 H   0  0  0  0  0  0  0  0  0  0  0  0
   57.1100   32.6759   42.5311 H   0  0  0  0  0  0  0  0  0  0  0  0
   58.8575   33.0893   42.4867 H   0  0  0  0  0  0  0  0  0  0  0  0
   58.3413   31.3688   42.4867 H   0  0  0  0  0  0  0  0  0  0  0  0
  1  2  1  0
  2  3  1  0
  3  4  1  0
  4  5  2  0
  5  6  1  0
  6  7  2  0
  7  8  1  0
  8  9  2  0
  2 10  1  0
 10 11  2  0
 10 12  1  0
 12 13  2  0
 13 14  1  0
 14 15  1  0
 15 16  1  0
 16 17  2  0
 17 18  1  0
 18 19  1  0
 19 20  1  0
  9  4  1  0
 19 12  1  0
 18 14  2  0
  1 21  1  0
  1 22  1  0
  1 23  1  0
  3 24  1  0
  3 25  1  0
  5 26  1  0
  6 27  1  0
  7 28  1  0
  8 29  1  0
  9 30  1  0
 13 31  1  0
 16 32  1  0
 17 33  1  0
 20 34  1  0
 20 35  1  0
 20 36  1  0
M  END
>  <UniqueID>  (28) 
28

>  <SMILES>  (28) 
CN(Cc1ccccc1)C(=O)c1cc2sccc2n1C

>  <Energy>  (28) 
113.6950408964297

>  <Genealogy>  (28) 
CN(Cc1ccccc1)C(=O)c1cc2sccc2n1C (3D coordinates assigned)
CN(Cc1ccccc1)C(=O)c1cc2sccc2n1C (optimized conformer: 113.6950408964297 kcal/mol)

>  <smiles>  (28) 
CN(Cc1ccccc1)C(=O)c1cc2sccc2n1C

>  <score_type>  (28) 
oracle

>  <origin>  (28) 
adg

>  <m_score__min__energy>  (28) 
-7.0199999999999996

>  <m_primary>  (28) 
energy

$$$$
29:0
     RDKit          3D

 32 32  0  0  0  0  0  0  0  0999 V2000
   59.3780   28.2430   44.4820 C   0  0  0  0  0  0  0  0  0  0  0  0
   57.8960   28.0080   44.1930 C   0  0  0  0  0  0  0  0  0  0  0  0
   57.0240   28.2350   45.4330 C   0  0  0  0  0  0  0  0  0  0  0  0
   56.0800   29.3430   45.2160 N   0  0  0  0  0  0  0  0  0  0  0  0
   56.1770   29.9230   43.8650 C   0  0  0  0  0  0  0  0  0  0  0  0
   57.0870   31.1770   43.8350 C   0  0  0  0  0  0  0  0  0  0  0  0
   57.3960   31.7450   45.1660 N   0  0  0  0  0  0  0  0  0  0  0  0
   57.2580   33.2130   45.2310 C   0  0  0  0  0  0  0  0  0  0  0  0
   57.7610   33.7460   46.5860 C   0  0  0  0  0  0  0  0  0  0  0  0
   57.7860   32.7120   47.5510 O   0  0  0  0  0  0  0  0  0  0  0  0
   58.7710   31.7500   47.2090 C   0  0  0  0  0  0  0  0  0  0  0  0
   58.6770   31.2990   45.7360 C   0  0  0  0  0  0  0  0  0  0  0  0
   59.5399   28.2687   45.5697 H   0  0  0  0  0  0  0  0  0  0  0  0
   59.9711   27.4277   44.0422 H   0  0  0  0  0  0  0  0  0  0  0  0
   59.6898   29.2018   44.0422 H   0  0  0  0  0  0  0  0  0  0  0  0
   57.5746   28.7011   43.4016 H   0  0  0  0  0  0  0  0  0  0  0  0
   57.7737   26.9606   43.8799 H   0  0  0  0  0  0  0  0  0  0  0  0
   56.4580   27.3167   45.6482 H   0  0  0  0  0  0  0  0  0  0  0  0
   57.6775   28.4911   46.2799 H   0  0  0  0  0  0  0  0  0  0  0  0
   56.2470   30.0860   45.9350 H   0  0  0  0  0  0  0  0  0  0  0  0
   56.5923   29.1666   43.1828 H   0  0  0  0  0  0  0  0  0  0  0  0
   55.1673   30.2287   43.5534 H   0  0  0  0  0  0  0  0  0  0  0  0
   58.0355   30.9013   43.3509 H   0  0  0  0  0  0  0  0  0  0  0  0
   56.5322   31.9521   43.2861 H   0  0  0  0  0  0  0  0  0  0  0  0
   57.8486   33.6677   44.4220 H   0  0  0  0  0  0  0  0  0  0  0  0
   56.1953   33.4743   45.1198 H   0  0  0  0  0  0  0  0  0  0  0  0
   58.7772   34.1483   46.4612 H   0  0  0  0  0  0  0  0  0  0  0  0
   57.0779   34.5360   46.9313 H   0  0  0  0  0  0  0  0  0  0  0  0
   59.7653   32.1883   47.3801 H   0  0  0  0  0  0  0  0  0  0  0  0
   58.6031   30.8641   47.8391 H   0  0  0  0  0  0  0  0  0  0  0  0
   59.5062   31.7407   45.1639 H   0  0  0  0  0  0  0  0  0  0  0  0
   58.7385   30.2019   45.6844 H   0  0  0  0  0  0  0  0  0  0  0  0
  1  2  1  0
  2  3  1  0
  3  4  1  0
  4  5  1  0
  5  6  1  0
  6  7  1  0
  7  8  1  0
  8  9  1  0
  9 10  1  0
 10 11  1  0
 11 12  1  0
 12  7  1  0
  1 13  1  0
  1 14  1  0
  1 15  1  0
  2 16  1  0
  2 17  1  0
  3 18  1  0
  3 19  1  0
  4 20  1  0
  5 21  1  0
  5 22  1  0
  6 23  1  0
  6 24  1  0
  8 25  1  0
  8 26  1  0
  9 27  1  0
  9 28  1  0
 11 29  1  0
 11 30  1  0
 12 31  1  0
 12 32  1  0
M  END
>  <UniqueID>  (29) 
29

>  <SMILES>  (29) 
CCCNCCN1CCOCC1

>  <Energy>  (29) 
37.30645493834697

>  <Genealogy>  (29) 
CCCNCCN1CCOCC1 (3D coordinates assigned)
CCCNCCN1CCOCC1 (nonaromatic ring conformer: 37.30645493834697 kcal/mol)

>  <smiles>  (29) 
CCCNCCN1CCOCC1

>  <score_type>  (29) 
oracle

>  <origin>  (29) 
adg

>  <m_score__min__energy>  (29) 
-5.5199999999999996

>  <m_primary>  (29) 
energy

$$$$
30:0
     RDKit          3D

 65 68  0  0  0  0  0  0  0  0999 V2000
   62.4350   28.4130   53.0430 N   0  0  0  0  0  0  0  0  0  0  0  0
   61.9650   29.5620   52.2610 C   0  0  1  0  0  0  0  0  0  0  0  0
   62.9540   29.9270   51.1260 C   0  0  0  0  0  0  0  0  0  0  0  0
   62.8660   31.3610   50.6560 C   0  0  0  0  0  0  0  0  0  0  0  0
   62.5570   32.3850   51.5670 C   0  0  0  0  0  0  0  0  0  0  0  0
   62.4880   33.7140   51.1390 C   0  0  0  0  0  0  0  0  0  0  0  0
   62.7270   34.0330   49.7980 C   0  0  0  0  0  0  0  0  0  0  0  0
   62.6620   35.3270   49.3910 F   0  0  0  0  0  0  0  0  0  0  0  0
   63.0520   33.0230   48.8860 C   0  0  0  0  0  0  0  0  0  0  0  0
   63.3910   33.4440   47.0510 Br  0  0  0  0  0  0  0  0  0  0  0  0
   63.1310   31.6940   49.3150 C   0  0  0  0  0  0  0  0  0  0  0  0
   60.5320   29.4270   51.7630 C   0  0  0  0  0  0  0  0  0  0  0  0
   59.7420   28.7180   52.4480 O   0  0  0  0  0  0  0  0  0  0  0  0
   60.0000   30.1590   50.6360 N   0  0  0  0  0  0  0  0  0  0  0  0
   60.5520   29.9440   49.2840 C   0  0  0  0  0  0  0  0  0  0  0  0
   59.5470   30.3210   48.1910 C   0  0  0  0  0  0  0  0  0  0  0  0
   58.9710   31.6360   48.4920 N   0  0  0  0  0  0  0  0  0  0  0  0
   59.0410   32.6870   47.5200 C   0  0  0  0  0  0  0  0  0  0  0  0
   59.5710   33.9290   47.8990 C   0  0  0  0  0  0  0  0  0  0  0  0
   59.6660   34.9680   46.9710 C   0  0  0  0  0  0  0  0  0  0  0  0
   59.2270   34.7770   45.6610 C   0  0  0  0  0  0  0  0  0  0  0  0
   58.6930   33.5470   45.2720 C   0  0  0  0  0  0  0  0  0  0  0  0
   58.6040   32.4860   46.1900 C   0  0  0  0  0  0  0  0  0  0  0  0
   58.0100   31.1760   45.7340 C   0  0  0  0  0  0  0  0  0  0  0  0
   56.8620   31.4280   44.8530 N   0  0  0  0  0  0  0  0  0  0  0  0
   57.1060   30.9160   43.4930 C   0  0  0  0  0  0  0  0  0  0  0  0
   56.6880   29.4460   43.3670 C   0  0  0  0  0  0  0  0  0  0  0  0
   57.4690   28.5690   44.2980 C   0  0  0  0  0  0  0  0  0  0  0  0
   58.8310   28.3130   44.2210 C   0  0  0  0  0  0  0  0  0  0  0  0
   59.2880   27.4590   45.2320 C   0  0  0  0  0  0  0  0  0  0  0  0
   58.2890   27.0430   46.1040 C   0  0  0  0  0  0  0  0  0  0  0  0
   56.8360   27.7370   45.6170 S   0  0  0  0  0  0  0  0  0  0  0  0
   58.4900   31.9430   49.8420 C   0  0  0  0  0  0  0  0  0  0  0  0
   58.6530   30.7360   50.7720 C   0  0  0  0  0  0  0  0  0  0  0  0
   61.6160   27.8190   53.3090 H   0  0  0  0  0  0  0  0  0  0  0  0
   62.9070   28.7170   53.9210 H   0  0  0  0  0  0  0  0  0  0  0  0
   63.0770   27.8210   52.4680 H   0  0  0  0  0  0  0  0  0  0  0  0
   61.9411   30.4091   52.9623 H   0  0  0  0  0  0  0  0  0  0  0  0
   63.9763   29.7466   51.4897 H   0  0  0  0  0  0  0  0  0  0  0  0
   62.6874   29.2979   50.2639 H   0  0  0  0  0  0  0  0  0  0  0  0
   62.3684   32.1397   52.6226 H   0  0  0  0  0  0  0  0  0  0  0  0
   62.2453   34.5104   51.8579 H   0  0  0  0  0  0  0  0  0  0  0  0
   63.4021   30.9040   48.5992 H   0  0  0  0  0  0  0  0  0  0  0  0
   61.4545   30.5616   49.1658 H   0  0  0  0  0  0  0  0  0  0  0  0
   60.7870   28.8747   49.1774 H   0  0  0  0  0  0  0  0  0  0  0  0
   60.0594   30.3586   47.2184 H   0  0  0  0  0  0  0  0  0  0  0  0
   58.7455   29.5685   48.1531 H   0  0  0  0  0  0  0  0  0  0  0  0
   59.9136   34.0854   48.9325 H   0  0  0  0  0  0  0  0  0  0  0  0
   60.0875   35.9380   47.2734 H   0  0  0  0  0  0  0  0  0  0  0  0
   59.3017   35.5976   44.9323 H   0  0  0  0  0  0  0  0  0  0  0  0
   58.3394   33.4071   44.2398 H   0  0  0  0  0  0  0  0  0  0  0  0
   58.7712   30.6014   45.1860 H   0  0  0  0  0  0  0  0  0  0  0  0
   57.6743   30.6051   46.6123 H   0  0  0  0  0  0  0  0  0  0  0  0
   56.0450   30.9010   45.2420 H   0  0  0  0  0  0  0  0  0  0  0  0
   56.5271   31.5158   42.7752 H   0  0  0  0  0  0  0  0  0  0  0  0
   58.1832   30.9896   43.2827 H   0  0  0  0  0  0  0  0  0  0  0  0
   55.6180   29.3573   43.6063 H   0  0  0  0  0  0  0  0  0  0  0  0
   56.8883   29.1183   42.3362 H   0  0  0  0  0  0  0  0  0  0  0  0
   59.4847   28.7377   43.4449 H   0  0  0  0  0  0  0  0  0  0  0  0
   60.3385   27.1468   45.3271 H   0  0  0  0  0  0  0  0  0  0  0  0
   58.4252   26.3736   46.9662 H   0  0  0  0  0  0  0  0  0  0  0  0
   59.0667   32.7883   50.2456 H   0  0  0  0  0  0  0  0  0  0  0  0
   57.4215   32.1978   49.7833 H   0  0  0  0  0  0  0  0  0  0  0  0
   58.5003   31.0577   51.8128 H   0  0  0  0  0  0  0  0  0  0  0  0
   57.9097   29.9728   50.4982 H   0  0  0  0  0  0  0  0  0  0  0  0
  1  2  1  0
  2  3  1  0
  3  4  1  0
  4  5  2  0
  5  6  1  0
  6  7  2  0
  7  8  1  0
  7  9  1  0
  9 10  1  0
  9 11  2  0
  2 12  1  0
 12 13  2  0
 12 14  1  0
 14 15  1  0
 15 16  1  0
 16 17  1  0
 17 18  1  0
 18 19  2  0
 19 20  1  0
 20 21  2  0
 21 22  1  0
 22 23  2  0
 23 24  1  0
 24 25  1  0
 25 26  1  0
 26 27  1  0
 27 28  1  0
 28 29  2  0
 29 30  1  0
 30 31  2  0
 31 32  1  0
 17 33  1  0
 33 34  1  0
 11  4  1  0
 34 14  1  0
 23 18  1  0
 32 28  1  0
  1 35  1  0
  1 36  1  0
  1 37  1  0
  2 38  1  1
  3 39  1  0
  3 40  1  0
  5 41  1  0
  6 42  1  0
 11 43  1  0
 15 44  1  0
 15 45  1  0
 16 46  1  0
 16 47  1  0
 19 48  1  0
 20 49  1  0
 21 50  1  0
 22 51  1  0
 24 52  1  0
 24 53  1  0
 25 54  1  0
 26 55  1  0
 26 56  1  0
 27 57  1  0
 27 58  1  0
 29 59  1  0
 30 60  1  0
 31 61  1  0
 33 62  1  0
 33 63  1  0
 34 64  1  0
 34 65  1  0
M  CHG  1   1   1
M  END
>  <UniqueID>  (30) 
30

>  <SMILES>  (30) 
[NH3+][C@@H](Cc1ccc(F)c(Br)c1)C(=O)N1CCN(c2ccccc2CNCCc2cccs2)CC1

>  <Energy>  (30) 
98.80974464324089

>  <Genealogy>  (30) 
[NH3+]C(Cc1ccc(F)c(Br)c1)C(=O)N1CCN(c2ccccc2CNCCc2cccs2)CC1 (protonated)
[NH3+][C@@H](Cc1ccc(F)c(Br)c1)C(=O)N1CCN(c2ccccc2CNCCc2cccs2)CC1 (chirality)
[NH3+][C@@H](Cc1ccc(F)c(Br)c1)C(=O)N1CCN(c2ccccc2CNCCc2cccs2)CC1 (3D coordinates assigned)
[NH3+][C@@H](Cc1ccc(F)c(Br)c1)C(=O)N1CCN(c2ccccc2CNCCc2cccs2)CC1 (nonaromatic ring conformer: 98.80974464324089 kcal/mol)

>  <smiles>  (30) 
NC(Cc1ccc(F)c(Br)c1)C(=O)N1CCN(c2ccccc2CNCCc2cccs2)CC1

>  <score_type>  (30) 
oracle

>  <origin>  (30) 
adg

>  <m_score__min__energy>  (30) 
-8.1699999999999999

>  <m_primary>  (30) 
energy

$$$$
31:0
     RDKit          3D

 12 11  0  0  1  0  0  0  0  0999 V2000
   58.8570   28.0010   44.2170 C   0  0  0  0  0  0  0  0  0  0  0  0
   57.4270   28.1690   44.1540 N   0  0  0  0  0  0  0  0  0  0  0  0
   56.7890   29.3570   44.6610 C   0  0  0  0  0  0  0  0  0  0  0  0
   55.4630   29.3280   45.0660 O   0  0  0  0  0  0  0  0  0  0  0  0
   57.4730   30.4440   44.7280 N   0  0  0  0  0  0  0  0  0  0  0  0
   56.8540   31.5930   45.1620 O   0  0  0  0  0  0  0  0  0  0  0  0
   59.1758   27.9635   45.2691 H   0  0  0  0  0  0  0  0  0  0  0  0
   59.1385   27.0636   43.7150 H   0  0  0  0  0  0  0  0  0  0  0  0
   59.3481   28.8476   43.7150 H   0  0  0  0  0  0  0  0  0  0  0  0
   56.7780   27.4360   43.7360 H   0  0  0  0  0  0  0  0  0  0  0  0
   55.1510   30.0890   45.6670 H   0  0  0  0  0  0  0  0  0  0  0  0
   55.8440   31.5260   45.2360 H   0  0  0  0  0  0  0  0  0  0  0  0
  1  2  1  0
  2  3  1  0
  3  4  1  0
  3  5  2  0
  5  6  1  0
  1  7  1  0
  1  8  1  0
  1  9  1  0
  2 10  1  0
  4 11  1  0
  6 12  1  0
M  END
>  <smiles>  (31) 
CNC(O)=NO

>  <score_type>  (31) 
oracle

>  <origin>  (31) 
adg

>  <m_score__min__energy>  (31) 
-4.3600000000000003

>  <m_primary>  (31) 
energy

$$$$
32:0
     RDKit          3D

 46 49  0  0  0  0  0  0  0  0999 V2000
   50.3300   33.1220   54.5540 C   0  0  0  0  0  0  0  0  0  0  0  0
   50.7980   31.8210   54.2120 O   0  0  0  0  0  0  0  0  0  0  0  0
   51.7330   31.5530   53.2000 C   0  0  0  0  0  0  0  0  0  0  0  0
   52.9250   30.8440   53.4460 C   0  0  0  0  0  0  0  0  0  0  0  0
   53.8390   30.5920   52.4070 C   0  0  0  0  0  0  0  0  0  0  0  0
   55.0850   29.8430   52.6950 C   0  0  0  0  0  0  0  0  0  0  0  0
   55.2130   28.6970   53.4690 C   0  0  0  0  0  0  0  0  0  0  0  0
   56.5520   28.3730   53.4490 C   0  0  0  0  0  0  0  0  0  0  0  0
   57.1570   29.3320   52.6630 C   0  0  0  0  0  0  0  0  0  0  0  0
   58.6220   29.4240   52.3660 C   0  0  0  0  0  0  0  0  0  0  0  0
   58.8920   30.5600   51.4700 N   0  0  0  0  0  0  0  0  0  0  0  0
   59.2810   30.1150   50.1210 C   0  0  0  0  0  0  0  0  0  0  0  0
   59.2210   31.2390   49.1250 C   0  0  0  0  0  0  0  0  0  0  0  0
   59.7960   32.4950   49.2990 C   0  0  0  0  0  0  0  0  0  0  0  0
   59.4440   33.2040   48.1710 C   0  0  0  0  0  0  0  0  0  0  0  0
   59.7300   34.5150   47.7980 C   0  0  0  0  0  0  0  0  0  0  0  0
   59.2170   34.9730   46.5700 C   0  0  0  0  0  0  0  0  0  0  0  0
   58.4370   34.1210   45.7560 C   0  0  0  0  0  0  0  0  0  0  0  0
   58.1640   32.8020   46.1630 C   0  0  0  0  0  0  0  0  0  0  0  0
   58.6880   32.3750   47.3820 C   0  0  0  0  0  0  0  0  0  0  0  0
   58.5410   31.1690   47.9560 N   0  0  0  0  0  0  0  0  0  0  0  0
   56.2650   30.1940   52.2330 O   0  0  0  0  0  0  0  0  0  0  0  0
   53.5470   31.0610   51.1130 C   0  0  0  0  0  0  0  0  0  0  0  0
   52.3660   31.7640   50.8670 C   0  0  0  0  0  0  0  0  0  0  0  0
   51.4630   32.0100   51.9030 C   0  0  0  0  0  0  0  0  0  0  0  0
   50.2920   32.7120   51.6420 O   0  0  0  0  0  0  0  0  0  0  0  0
   50.2938   33.2226   55.6488 H   0  0  0  0  0  0  0  0  0  0  0  0
   51.0125   33.8781   54.1387 H   0  0  0  0  0  0  0  0  0  0  0  0
   49.3222   33.2701   54.1387 H   0  0  0  0  0  0  0  0  0  0  0  0
   53.1435   30.4834   54.4620 H   0  0  0  0  0  0  0  0  0  0  0  0
   54.4091   28.1578   53.9916 H   0  0  0  0  0  0  0  0  0  0  0  0
   57.0379   27.5256   53.9548 H   0  0  0  0  0  0  0  0  0  0  0  0
   59.1747   29.5646   53.3066 H   0  0  0  0  0  0  0  0  0  0  0  0
   58.9459   28.4953   51.8734 H   0  0  0  0  0  0  0  0  0  0  0  0
   59.6480   31.1640   51.8740 H   0  0  0  0  0  0  0  0  0  0  0  0
   58.0220   31.1370   51.3830 H   0  0  0  0  0  0  0  0  0  0  0  0
   60.3090   29.7253   50.1570 H   0  0  0  0  0  0  0  0  0  0  0  0
   58.5744   29.3353   49.8005 H   0  0  0  0  0  0  0  0  0  0  0  0
   60.3989   32.8446   50.1500 H   0  0  0  0  0  0  0  0  0  0  0  0
   60.3361   35.1701   48.4411 H   0  0  0  0  0  0  0  0  0  0  0  0
   59.4248   36.0020   46.2414 H   0  0  0  0  0  0  0  0  0  0  0  0
   58.0410   34.4910   44.7988 H   0  0  0  0  0  0  0  0  0  0  0  0
   57.5567   32.1296   45.5393 H   0  0  0  0  0  0  0  0  0  0  0  0
   58.0050   30.3540   47.5840 H   0  0  0  0  0  0  0  0  0  0  0  0
   54.2530   30.8728   50.2907 H   0  0  0  0  0  0  0  0  0  0  0  0
   52.1459   32.1259   49.8518 H   0  0  0  0  0  0  0  0  0  0  0  0
  1  2  1  0
  2  3  1  0
  3  4  2  0
  4  5  1  0
  5  6  1  0
  6  7  2  0
  7  8  1  0
  8  9  2  0
  9 10  1  0
 10 11  1  0
 11 12  1  0
 12 13  1  0
 13 14  2  0
 14 15  1  0
 15 16  2  0
 16 17  1  0
 17 18  2  0
 18 19  1  0
 19 20  2  0
 20 21  1  0
  9 22  1  0
  5 23  2  0
 23 24  1  0
 24 25  2  0
 25 26  1  0
 25  3  1  0
 22  6  1  0
 21 13  1  0
 20 15  1  0
  1 27  1  0
  1 28  1  0
  1 29  1  0
  4 30  1  0
  7 31  1  0
  8 32  1  0
 10 33  1  0
 10 34  1  0
 11 35  1  0
 11 36  1  0
 12 37  1  0
 12 38  1  0
 14 39  1  0
 16 40  1  0
 17 41  1  0
 18 42  1  0
 19 43  1  0
 21 44  1  0
 23 45  1  0
 24 46  1  0
M  CHG  2  11   1  26  -1
M  END
>  <UniqueID>  (32) 
31

>  <SMILES>  (32) 
COc1cc(-c2ccc(C[NH2+]Cc3cc4ccccc4[nH]3)o2)ccc1[O-]

>  <Energy>  (32) 
107.14794231548278

>  <Genealogy>  (32) 
COc1cc(-c2ccc(C[NH2+]Cc3cc4ccccc4[nH]3)o2)ccc1[O-] (protonated)
COc1cc(-c2ccc(C[NH2+]Cc3cc4ccccc4[nH]3)o2)ccc1[O-] (3D coordinates assigned)
COc1cc(-c2ccc(C[NH2+]Cc3cc4ccccc4[nH]3)o2)ccc1[O-] (optimized conformer: 107.14794231548278 kcal/mol)

>  <smiles>  (32) 
COc1cc(-c2ccc(CNCc3cc4ccccc4[nH]3)o2)ccc1O

>  <score_type>  (32) 
oracle

>  <origin>  (32) 
adg

>  <m_score__min__energy>  (32) 
-10.07

>  <m_primary>  (32) 
energy

$$$$
33:0
     RDKit          3D

 39 43  0  0  0  0  0  0  0  0999 V2000
   57.0670   31.5240   42.5310 C   0  0  0  0  0  0  0  0  0  0  0  0
   56.7420   30.1720   42.6200 C   0  0  0  0  0  0  0  0  0  0  0  0
   57.2940   29.5610   43.7510 C   0  0  0  0  0  0  0  0  0  0  0  0
   57.1800   28.2450   44.0680 N   0  0  0  0  0  0  0  0  0  0  0  0
   57.8100   27.7610   45.1870 C   0  0  0  0  0  0  0  0  0  0  0  0
   57.7190   26.3280   45.5600 C   0  0  0  0  0  0  0  0  0  0  0  0
   58.0080   25.3260   44.5910 C   0  0  0  0  0  0  0  0  0  0  0  0
   57.9380   23.9590   44.9200 C   0  0  0  0  0  0  0  0  0  0  0  0
   57.5850   23.6260   46.2220 C   0  0  0  0  0  0  0  0  0  0  0  0
   57.4650   22.3990   46.7580 N   0  0  0  0  0  0  0  0  0  0  0  0
   57.1210   22.5600   48.0330 N   0  0  0  0  0  0  0  0  0  0  0  0
   57.0230   23.8830   48.3070 C   0  0  0  0  0  0  0  0  0  0  0  0
   57.3160   24.5770   47.1590 C   0  0  0  0  0  0  0  0  0  0  0  0
   57.3720   25.9380   46.8770 C   0  0  0  0  0  0  0  0  0  0  0  0
   58.5550   28.6070   45.9640 N   0  0  0  0  0  0  0  0  0  0  0  0
   58.6750   29.9350   45.6810 C   0  0  0  0  0  0  0  0  0  0  0  0
   59.4780   30.7820   46.5150 N   0  0  0  0  0  0  0  0  0  0  0  0
   58.8620   31.9050   47.2320 C   0  0  0  0  0  0  0  0  0  0  0  0
   59.8860   33.0370   47.4850 C   0  0  0  0  0  0  0  0  0  0  0  0
   61.2210   32.6880   47.1570 O   0  0  0  0  0  0  0  0  0  0  0  0
   61.5380   31.4210   47.6930 C   0  0  0  0  0  0  0  0  0  0  0  0
   60.8230   30.3360   46.8860 C   0  0  0  0  0  0  0  0  0  0  0  0
   58.0310   30.4160   44.5430 C   0  0  0  0  0  0  0  0  0  0  0  0
   58.0390   31.9470   43.8500 S   0  0  0  0  0  0  0  0  0  0  0  0
   56.7436   32.2069   41.7315 H   0  0  0  0  0  0  0  0  0  0  0  0
   56.1201   29.6435   41.8825 H   0  0  0  0  0  0  0  0  0  0  0  0
   56.6440   27.6140   43.4320 H   0  0  0  0  0  0  0  0  0  0  0  0
   58.2901   25.6242   43.5704 H   0  0  0  0  0  0  0  0  0  0  0  0
   58.1551   23.1817   44.1725 H   0  0  0  0  0  0  0  0  0  0  0  0
   56.7556   24.3240   49.2786 H   0  0  0  0  0  0  0  0  0  0  0  0
   57.1538   26.6876   47.6519 H   0  0  0  0  0  0  0  0  0  0  0  0
   58.0303   32.3014   46.6311 H   0  0  0  0  0  0  0  0  0  0  0  0
   58.4990   31.5402   48.2042 H   0  0  0  0  0  0  0  0  0  0  0  0
   59.5966   33.9078   46.8784 H   0  0  0  0  0  0  0  0  0  0  0  0
   59.8673   33.2492   48.5642 H   0  0  0  0  0  0  0  0  0  0  0  0
   62.6251   31.2615   47.6403 H   0  0  0  0  0  0  0  0  0  0  0  0
   61.2124   31.3736   48.7426 H   0  0  0  0  0  0  0  0  0  0  0  0
   61.3994   30.1232   45.9736 H   0  0  0  0  0  0  0  0  0  0  0  0
   60.7420   29.4275   47.5008 H   0  0  0  0  0  0  0  0  0  0  0  0
  1  2  2  0
  2  3  1  0
  3  4  2  0
  4  5  1  0
  5  6  1  0
  6  7  2  0
  7  8  1  0
  8  9  2  0
  9 10  1  0
 10 11  1  0
 11 12  2  0
 12 13  1  0
 13 14  2  0
  5 15  2  0
 15 16  1  0
 16 17  1  0
 17 18  1  0
 18 19  1  0
 19 20  1  0
 20 21  1  0
 21 22  1  0
 16 23  2  0
 23 24  1  0
 24  1  1  0
 23  3  1  0
 14  6  1  0
 22 17  1  0
 13  9  1  0
  1 25  1  0
  2 26  1  0
  4 27  1  0
  7 28  1  0
  8 29  1  0
 12 30  1  0
 14 31  1  0
 18 32  1  0
 18 33  1  0
 19 34  1  0
 19 35  1  0
 21 36  1  0
 21 37  1  0
 22 38  1  0
 22 39  1  0
M  CHG  2   4   1  10  -1
M  END
>  <UniqueID>  (33) 
32

>  <SMILES>  (33) 
c1cc2[nH+]c(-c3ccc4[n-]ncc4c3)nc(N3CCOCC3)c2s1

>  <Energy>  (33) 
128.46278888975215

>  <Genealogy>  (33) 
c1cc2[nH+]c(-c3ccc4[n-]ncc4c3)nc(N3CCOCC3)c2s1 (protonated)
c1cc2[nH+]c(-c3ccc4[n-]ncc4c3)nc(N3CCOCC3)c2s1 (3D coordinates assigned)
c1cc2[nH+]c(-c3ccc4[n-]ncc4c3)nc(N3CCOCC3)c2s1 (nonaromatic ring conformer: 128.46278888975215 kcal/mol)

>  <smiles>  (33) 
c1cc2nc(-c3ccc4[nH]ncc4c3)nc(N3CCOCC3)c2s1

>  <score_type>  (33) 
oracle

>  <origin>  (33) 
adg

>  <m_score__min__energy>  (33) 
-7.4500000000000002

>  <m_primary>  (33) 
energy

$$$$
34:0
     RDKit          3D

 36 36  0  0  0  0  0  0  0  0999 V2000
   62.2390   33.8460   46.7290 C   0  0  0  0  0  0  0  0  0  0  0  0
   61.4560   32.5370   46.7840 C   0  0  0  0  0  0  0  0  0  0  0  0
   60.0380   32.7840   47.0680 N   0  0  0  0  0  0  0  0  0  0  0  0
   59.6380   33.6160   48.2100 C   0  0  0  0  0  0  0  0  0  0  0  0
   58.9760   32.7690   49.2900 C   0  0  0  0  0  0  0  0  0  0  0  0
   59.0370   32.0490   46.3450 C   0  0  0  0  0  0  0  0  0  0  0  0
   58.0870   32.7390   45.5740 C   0  0  0  0  0  0  0  0  0  0  0  0
   58.1460   34.1420   45.5380 O   0  0  0  0  0  0  0  0  0  0  0  0
   59.1910   34.8920   44.9260 C   0  0  0  0  0  0  0  0  0  0  0  0
   57.1090   32.0140   44.8710 C   0  0  0  0  0  0  0  0  0  0  0  0
   57.0690   30.6120   44.9370 C   0  0  0  0  0  0  0  0  0  0  0  0
   56.0370   29.8510   44.1950 C   0  0  0  0  0  0  0  0  0  0  0  0
   55.9520   29.9410   42.9420 O   0  0  0  0  0  0  0  0  0  0  0  0
   55.1450   29.0270   44.8730 O   0  0  0  0  0  0  0  0  0  0  0  0
   58.0200   29.9350   45.7180 C   0  0  0  0  0  0  0  0  0  0  0  0
   59.0060   30.6480   46.4250 C   0  0  0  0  0  0  0  0  0  0  0  0
   59.9720   29.9990   47.2100 O   0  0  0  0  0  0  0  0  0  0  0  0
   59.6880   29.2280   48.3730 C   0  0  0  0  0  0  0  0  0  0  0  0
   62.4463   34.1925   47.7522 H   0  0  0  0  0  0  0  0  0  0  0  0
   63.1883   33.6834   46.1976 H   0  0  0  0  0  0  0  0  0  0  0  0
   61.6467   34.6055   46.1976 H   0  0  0  0  0  0  0  0  0  0  0  0
   61.5447   32.0238   45.8151 H   0  0  0  0  0  0  0  0  0  0  0  0
   61.8714   31.9138   47.5897 H   0  0  0  0  0  0  0  0  0  0  0  0
   60.5295   34.1043   48.6304 H   0  0  0  0  0  0  0  0  0  0  0  0
   58.9171   34.3703   47.8617 H   0  0  0  0  0  0  0  0  0  0  0  0
   59.2693   33.1443   50.2815 H   0  0  0  0  0  0  0  0  0  0  0  0
   57.8827   32.8287   49.1841 H   0  0  0  0  0  0  0  0  0  0  0  0
   59.2980   31.7225   49.1841 H   0  0  0  0  0  0  0  0  0  0  0  0
   59.8220   35.3449   45.7050 H   0  0  0  0  0  0  0  0  0  0  0  0
   59.8027   34.2255   44.3002 H   0  0  0  0  0  0  0  0  0  0  0  0
   58.7553   35.6848   44.3002 H   0  0  0  0  0  0  0  0  0  0  0  0
   56.3667   32.5511   44.2623 H   0  0  0  0  0  0  0  0  0  0  0  0
   57.9938   28.8369   45.7776 H   0  0  0  0  0  0  0  0  0  0  0  0
   59.9076   29.8243   49.2709 H   0  0  0  0  0  0  0  0  0  0  0  0
   58.6257   28.9425   48.3733 H   0  0  0  0  0  0  0  0  0  0  0  0
   60.3113   28.3216   48.3733 H   0  0  0  0  0  0  0  0  0  0  0  0
  1  2  1  0
  2  3  1  0
  3  4  1  0
  4  5  1  0
  3  6  1  0
  6  7  2  0
  7  8  1  0
  8  9  1  0
  7 10  1  0
 10 11  2  0
 11 12  1  0
 12 13  2  0
 12 14  1  0
 11 15  1  0
 15 16  2  0
 16 17  1  0
 17 18  1  0
 16  6  1  0
  1 19  1  0
  1 20  1  0
  1 21  1  0
  2 22  1  0
  2 23  1  0
  4 24  1  0
  4 25  1  0
  5 26  1  0
  5 27  1  0
  5 28  1  0
  9 29  1  0
  9 30  1  0
  9 31  1  0
 10 32  1  0
 15 33  1  0
 18 34  1  0
 18 35  1  0
 18 36  1  0
M  CHG  1  14  -1
M  END
>  <UniqueID>  (34) 
33

>  <SMILES>  (34) 
CCN(CC)c1c(OC)cc(C(=O)[O-])cc1OC

>  <Energy>  (34) 
32.00432572503673

>  <Genealogy>  (34) 
CCN(CC)c1c(OC)cc(C(=O)[O-])cc1OC (protonated)
CCN(CC)c1c(OC)cc(C(=O)[O-])cc1OC (3D coordinates assigned)
CCN(CC)c1c(OC)cc(C(=O)[O-])cc1OC (optimized conformer: 32.00432572503673 kcal/mol)

>  <smiles>  (34) 
CCN(CC)c1c(OC)cc(C(=O)O)cc1OC

>  <score_type>  (34) 
oracle

>  <origin>  (34) 
adg

>  <m_score__min__energy>  (34) 
-8

>  <m_primary>  (34) 
energy

$$$$
35:0
     RDKit          3D

 60 62  0  0  0  0  0  0  0  0999 V2000
   61.0900   28.5940   44.8070 C   0  0  0  0  0  0  0  0  0  0  0  0
   60.7160   28.3900   46.1650 O   0  0  0  0  0  0  0  0  0  0  0  0
   60.1500   29.3760   46.9870 C   0  0  0  0  0  0  0  0  0  0  0  0
   60.0250   29.2150   48.3780 C   0  0  0  0  0  0  0  0  0  0  0  0
   59.4560   30.2260   49.1560 C   0  0  0  0  0  0  0  0  0  0  0  0
   59.0100   31.4200   48.5580 C   0  0  0  0  0  0  0  0  0  0  0  0
   58.4650   32.4690   49.3120 O   0  0  0  0  0  0  0  0  0  0  0  0
   58.6980   32.6720   50.7030 C   0  0  0  0  0  0  0  0  0  0  0  0
   59.1250   31.5770   47.1650 C   0  0  0  0  0  0  0  0  0  0  0  0
   58.6690   32.7820   46.5290 N   0  0  0  0  0  0  0  0  0  0  0  0
   57.3610   32.8130   45.8670 C   0  0  0  0  0  0  0  0  0  0  0  0
   57.3080   31.8080   44.7440 C   0  0  0  0  0  0  0  0  0  0  0  0
   57.8240   32.0980   43.6330 O   0  0  0  0  0  0  0  0  0  0  0  0
   56.6070   30.5630   44.8650 N   0  0  0  0  0  0  0  0  0  0  0  0
   57.1820   29.2370   44.6630 C   0  0  0  0  0  0  0  0  0  0  0  0
   57.0940   28.4150   45.9610 C   0  0  0  0  0  0  0  0  0  0  0  0
   57.8370   27.1350   45.9110 N   0  0  0  0  0  0  0  0  0  0  0  0
   57.3870   26.1930   44.8660 C   0  0  0  0  0  0  0  0  0  0  0  0
   56.3120   25.1960   45.3650 C   0  0  0  0  0  0  0  0  0  0  0  0
   56.0950   25.2580   46.7610 O   0  0  0  0  0  0  0  0  0  0  0  0
   57.3320   25.2050   47.4330 C   0  0  0  0  0  0  0  0  0  0  0  0
   58.1040   26.5180   47.2310 C   0  0  0  0  0  0  0  0  0  0  0  0
   59.6240   34.2320   46.6490 S   0  0  0  0  0  0  0  0  0  0  0  0
   58.9000   35.2340   47.5100 O   0  0  0  0  0  0  0  0  0  0  0  0
   59.8070   34.8340   45.2840 O   0  0  0  0  0  0  0  0  0  0  0  0
   61.2000   33.8660   47.3500 C   0  0  0  0  0  0  0  0  0  0  0  0
   61.3910   33.9790   48.7350 C   0  0  0  0  0  0  0  0  0  0  0  0
   62.6460   33.7100   49.2970 C   0  0  0  0  0  0  0  0  0  0  0  0
   63.7130   33.3250   48.4790 C   0  0  0  0  0  0  0  0  0  0  0  0
   64.9270   33.0700   49.0250 F   0  0  0  0  0  0  0  0  0  0  0  0
   63.5270   33.2040   47.0980 C   0  0  0  0  0  0  0  0  0  0  0  0
   62.2750   33.4740   46.5330 C   0  0  0  0  0  0  0  0  0  0  0  0
   59.6980   30.5580   46.3920 C   0  0  0  0  0  0  0  0  0  0  0  0
   62.0551   29.1204   44.7676 H   0  0  0  0  0  0  0  0  0  0  0  0
   61.1821   27.6212   44.3019 H   0  0  0  0  0  0  0  0  0  0  0  0
   60.3219   29.1981   44.3019 H   0  0  0  0  0  0  0  0  0  0  0  0
   60.3768   28.2888   48.8558 H   0  0  0  0  0  0  0  0  0  0  0  0
   59.3558   30.0884   50.2427 H   0  0  0  0  0  0  0  0  0  0  0  0
   57.9946   32.0592   51.2859 H   0  0  0  0  0  0  0  0  0  0  0  0
   59.7296   32.3796   50.9485 H   0  0  0  0  0  0  0  0  0  0  0  0
   58.5496   33.7339   50.9485 H   0  0  0  0  0  0  0  0  0  0  0  0
   56.5784   32.5744   46.6023 H   0  0  0  0  0  0  0  0  0  0  0  0
   57.1994   33.8180   45.4501 H   0  0  0  0  0  0  0  0  0  0  0  0
   56.6281   28.7185   43.8665 H   0  0  0  0  0  0  0  0  0  0  0  0
   58.2389   29.3443   44.3776 H   0  0  0  0  0  0  0  0  0  0  0  0
   57.5024   29.0209   46.7832 H   0  0  0  0  0  0  0  0  0  0  0  0
   56.0334   28.1635   46.1089 H   0  0  0  0  0  0  0  0  0  0  0  0
   56.9658   26.7723   44.0311 H   0  0  0  0  0  0  0  0  0  0  0  0
   58.2629   25.6026   44.5591 H   0  0  0  0  0  0  0  0  0  0  0  0
   55.3640   25.4205   44.8542 H   0  0  0  0  0  0  0  0  0  0  0  0
   56.6767   24.1835   45.1372 H   0  0  0  0  0  0  0  0  0  0  0  0
   57.1551   25.0494   48.5075 H   0  0  0  0  0  0  0  0  0  0  0  0
   57.9259   24.3738   47.0252 H   0  0  0  0  0  0  0  0  0  0  0  0
   57.8072   27.2266   48.0183 H   0  0  0  0  0  0  0  0  0  0  0  0
   59.1780   26.2856   47.2805 H   0  0  0  0  0  0  0  0  0  0  0  0
   60.5534   34.2796   49.3816 H   0  0  0  0  0  0  0  0  0  0  0  0
   62.7922   33.8018   50.3834 H   0  0  0  0  0  0  0  0  0  0  0  0
   64.3652   32.8964   46.4554 H   0  0  0  0  0  0  0  0  0  0  0  0
   62.1318   33.3792   45.4465 H   0  0  0  0  0  0  0  0  0  0  0  0
   59.7933   30.6896   45.3041 H   0  0  0  0  0  0  0  0  0  0  0  0
  1  2  1  0
  2  3  1  0
  3  4  2  0
  4  5  1  0
  5  6  2  0
  6  7  1  0
  7  8  1  0
  6  9  1  0
  9 10  1  0
 10 11  1  0
 11 12  1  0
 12 13  2  0
 12 14  1  0
 14 15  1  0
 15 16  1  0
 16 17  1  0
 17 18  1  0
 18 19  1  0
 19 20  1  0
 20 21  1  0
 21 22  1  0
 10 23  1  0
 23 24  2  0
 23 25  2  0
 23 26  1  0
 26 27  2  0
 27 28  1  0
 28 29  2  0
 29 30  1  0
 29 31  1  0
 31 32  2  0
  9 33  2  0
 33  3  1  0
 22 17  1  0
 32 26  1  0
  1 34  1  0
  1 35  1  0
  1 36  1  0
  4 37  1  0
  5 38  1  0
  8 39  1  0
  8 40  1  0
  8 41  1  0
 11 42  1  0
 11 43  1  0
 15 44  1  0
 15 45  1  0
 16 46  1  0
 16 47  1  0
 18 48  1  0
 18 49  1  0
 19 50  1  0
 19 51  1  0
 21 52  1  0
 21 53  1  0
 22 54  1  0
 22 55  1  0
 27 56  1  0
 28 57  1  0
 31 58  1  0
 32 59  1  0
 33 60  1  0
M  CHG  1  14  -1
M  END
>  <UniqueID>  (35) 
34

>  <SMILES>  (35) 
COc1ccc(OC)c(N(CC(=O)[N-]CCN2CCOCC2)S(=O)(=O)c2ccc(F)cc2)c1

>  <Energy>  (35) 
75.67988987330921

>  <Genealogy>  (35) 
COc1ccc(OC)c(N(CC(=O)[N-]CCN2CCOCC2)S(=O)(=O)c2ccc(F)cc2)c1 (protonated)
COc1ccc(OC)c(N(CC(=O)[N-]CCN2CCOCC2)S(=O)(=O)c2ccc(F)cc2)c1 (3D coordinates assigned)
COc1ccc(OC)c(N(CC(=O)[N-]CCN2CCOCC2)S(=O)(=O)c2ccc(F)cc2)c1 (nonaromatic ring conformer: 75.67988987330921 kcal/mol)

>  <smiles>  (35) 
COc1ccc(OC)c(N(CC(=O)NCCN2CCOCC2)S(=O)(=O)c2ccc(F)cc2)c1

>  <score_type>  (35) 
oracle

>  <origin>  (35) 
adg

>  <m_score__min__energy>  (35) 
-10.43

>  <m_primary>  (35) 
energy

$$$$
36:0
     RDKit          3D

 28 30  0  0  0  0  0  0  0  0999 V2000
   57.6086   34.0181   43.5671 H   0  0  0  0  0  0  0  0  0  0  0  0
   57.7170   33.4520   44.5040 C   0  0  0  0  0  0  0  0  0  0  0  0
   57.9520   34.0820   45.6140 N   0  0  0  0  0  0  0  0  0  0  0  0
   59.1860   33.9910   46.3310 C   0  0  0  0  0  0  0  0  0  0  0  0
   60.4060   33.9510   45.7380 N   0  0  0  0  0  0  0  0  0  0  0  0
   61.3880   33.8630   46.6700 C   0  0  0  0  0  0  0  0  0  0  0  0
   62.7500   33.8040   46.3750 C   0  0  0  0  0  0  0  0  0  0  0  0
   63.0997   33.8275   45.3323 H   0  0  0  0  0  0  0  0  0  0  0  0
   63.6660   33.7140   47.4360 C   0  0  0  0  0  0  0  0  0  0  0  0
   64.7433   33.6662   47.2190 H   0  0  0  0  0  0  0  0  0  0  0  0
   63.2250   33.6840   48.7760 C   0  0  0  0  0  0  0  0  0  0  0  0
   64.1900   33.5940   49.7910 O   0  0  0  0  0  0  0  0  0  0  0  0
   65.3180   32.7270   49.7500 C   0  0  0  0  0  0  0  0  0  0  0  0
   65.6323   32.4854   50.7761 H   0  0  0  0  0  0  0  0  0  0  0  0
   65.0494   31.8006   49.2211 H   0  0  0  0  0  0  0  0  0  0  0  0
   66.1441   33.2248   49.2211 H   0  0  0  0  0  0  0  0  0  0  0  0
   61.8410   33.7450   49.0550 C   0  0  0  0  0  0  0  0  0  0  0  0
   61.4735   33.7235   50.0916 H   0  0  0  0  0  0  0  0  0  0  0  0
   60.9540   33.8330   47.9850 C   0  0  0  0  0  0  0  0  0  0  0  0
   59.2780   33.9190   48.0190 S   0  0  0  0  0  0  0  0  0  0  0  0
   57.5950   31.9910   44.4900 C   0  0  0  0  0  0  0  0  0  0  0  0
   58.1410   30.9720   45.7110 S   0  0  0  0  0  0  0  0  0  0  0  0
   57.6540   29.5370   44.9820 C   0  0  0  0  0  0  0  0  0  0  0  0
   57.7876   28.5268   45.3963 H   0  0  0  0  0  0  0  0  0  0  0  0
   57.0540   29.8450   43.7670 C   0  0  0  0  0  0  0  0  0  0  0  0
   56.6444   29.0829   43.0877 H   0  0  0  0  0  0  0  0  0  0  0  0
   57.0200   31.2170   43.4890 C   0  0  0  0  0  0  0  0  0  0  0  0
   56.5829   31.6391   42.5721 H   0  0  0  0  0  0  0  0  0  0  0  0
  1  2  1  0
  2  3  2  0
  3  4  1  0
  4  5  2  0
  5  6  1  0
  6  7  2  0
  7  8  1  0
  7  9  1  0
  9 10  1  0
  9 11  2  0
 11 12  1  0
 12 13  1  0
 13 14  1  0
 13 15  1  0
 13 16  1  0
 11 17  1  0
 17 18  1  0
 17 19  2  0
 19 20  1  0
  2 21  1  0
 21 22  1  0
 22 23  1  0
 23 24  1  0
 23 25  2  0
 25 26  1  0
 25 27  1  0
 27 28  1  0
 20  4  1  0
 27 21  2  0
 19  6  1  0
M  END
>  <UniqueID>  (36) 
35

>  <SMILES>  (36) 
COc1ccc2nc(/N=C/c3cccs3)sc2c1

>  <Energy>  (36) 
88.79814855457981

>  <Genealogy>  (36) 
COc1ccc2nc(/N=C/c3cccs3)sc2c1 (cis-trans isomerization)
COc1ccc2nc(/N=C/c3cccs3)sc2c1 (3D coordinates assigned)
COc1ccc2nc(/N=C/c3cccs3)sc2c1 (optimized conformer: 88.79814855457981 kcal/mol)

>  <smiles>  (36) 
COc1ccc2nc(N=Cc3cccs3)sc2c1

>  <score_type>  (36) 
oracle

>  <origin>  (36) 
adg

>  <m_score__min__energy>  (36) 
-6.3799999999999999

>  <m_primary>  (36) 
energy

$$$$
37:0
     RDKit          3D

 45 48  0  0  0  0  0  0  0  0999 V2000
   57.8600   27.3200   45.0060 C   0  0  0  0  0  0  0  0  0  0  0  0
   58.0370   27.9750   43.7010 N   0  0  0  0  0  0  0  0  0  0  0  0
   58.1440   26.9790   42.6230 C   0  0  0  0  0  0  0  0  0  0  0  0
   57.0010   28.9980   43.4300 C   0  0  0  0  0  0  0  0  0  0  0  0
   57.4280   30.4110   43.7740 C   0  0  0  0  0  0  0  0  0  0  0  0
   57.4920   31.4050   42.7610 C   0  0  0  0  0  0  0  0  0  0  0  0
   57.8840   32.7230   43.0690 C   0  0  0  0  0  0  0  0  0  0  0  0
   58.2060   33.0050   44.3910 C   0  0  0  0  0  0  0  0  0  0  0  0
   58.5940   34.1390   44.9180 O   0  0  0  0  0  0  0  0  0  0  0  0
   58.7830   33.8930   46.2070 C   0  0  0  0  0  0  0  0  0  0  0  0
   59.2360   34.9280   47.1890 C   0  0  0  0  0  0  0  0  0  0  0  0
   60.1350   34.3050   48.2340 C   0  0  0  0  0  0  0  0  0  0  0  0
   59.6410   34.1770   49.5440 C   0  0  0  0  0  0  0  0  0  0  0  0
   60.4280   33.6280   50.5560 C   0  0  0  0  0  0  0  0  0  0  0  0
   61.7260   33.2050   50.2850 C   0  0  0  0  0  0  0  0  0  0  0  0
   62.2560   33.3320   48.9940 C   0  0  0  0  0  0  0  0  0  0  0  0
   63.5710   32.9130   48.7350 C   0  0  0  0  0  0  0  0  0  0  0  0
   64.1120   33.0440   47.4550 C   0  0  0  0  0  0  0  0  0  0  0  0
   63.3490   33.5930   46.4260 C   0  0  0  0  0  0  0  0  0  0  0  0
   62.0380   34.0140   46.6660 C   0  0  0  0  0  0  0  0  0  0  0  0
   61.4660   33.8890   47.9510 C   0  0  0  0  0  0  0  0  0  0  0  0
   58.5160   32.6050   46.5370 N   0  0  0  0  0  0  0  0  0  0  0  0
   58.1540   32.0560   45.3680 C   0  0  0  0  0  0  0  0  0  0  0  0
   57.7730   30.7430   45.1050 C   0  0  0  0  0  0  0  0  0  0  0  0
   58.0559   28.0450   45.8097 H   0  0  0  0  0  0  0  0  0  0  0  0
   56.8288   26.9469   45.0921 H   0  0  0  0  0  0  0  0  0  0  0  0
   58.5629   26.4783   45.0921 H   0  0  0  0  0  0  0  0  0  0  0  0
   58.2518   25.9755   43.0604 H   0  0  0  0  0  0  0  0  0  0  0  0
   57.2371   27.0126   42.0014 H   0  0  0  0  0  0  0  0  0  0  0  0
   59.0231   27.2045   42.0014 H   0  0  0  0  0  0  0  0  0  0  0  0
   56.7512   28.9627   42.3593 H   0  0  0  0  0  0  0  0  0  0  0  0
   56.1408   28.7591   44.0726 H   0  0  0  0  0  0  0  0  0  0  0  0
   57.2327   31.1429   41.7247 H   0  0  0  0  0  0  0  0  0  0  0  0
   57.9333   33.4998   42.2917 H   0  0  0  0  0  0  0  0  0  0  0  0
   59.7903   35.7149   46.6565 H   0  0  0  0  0  0  0  0  0  0  0  0
   58.3543   35.3578   47.6869 H   0  0  0  0  0  0  0  0  0  0  0  0
   58.6196   34.5145   49.7739 H   0  0  0  0  0  0  0  0  0  0  0  0
   60.0210   33.5288   51.5731 H   0  0  0  0  0  0  0  0  0  0  0  0
   62.3386   32.7690   51.0879 H   0  0  0  0  0  0  0  0  0  0  0  0
   64.1772   32.4798   49.5442 H   0  0  0  0  0  0  0  0  0  0  0  0
   65.1425   32.7133   47.2580 H   0  0  0  0  0  0  0  0  0  0  0  0
   63.7809   33.6955   45.4195 H   0  0  0  0  0  0  0  0  0  0  0  0
   61.4461   34.4469   45.8460 H   0  0  0  0  0  0  0  0  0  0  0  0
   58.5790   32.1470   47.4730 H   0  0  0  0  0  0  0  0  0  0  0  0
   57.7413   29.9891   45.9054 H   0  0  0  0  0  0  0  0  0  0  0  0
  1  2  1  0
  2  3  1  0
  2  4  1  0
  4  5  1  0
  5  6  2  0
  6  7  1  0
  7  8  2  0
  8  9  1  0
  9 10  1  0
 10 11  1  0
 11 12  1  0
 12 13  2  0
 13 14  1  0
 14 15  2  0
 15 16  1  0
 16 17  2  0
 17 18  1  0
 18 19  2  0
 19 20  1  0
 20 21  2  0
 10 22  2  0
 22 23  1  0
 23 24  2  0
 24  5  1  0
 23  8  1  0
 21 12  1  0
 21 16  1  0
  1 25  1  0
  1 26  1  0
  1 27  1  0
  3 28  1  0
  3 29  1  0
  3 30  1  0
  4 31  1  0
  4 32  1  0
  6 33  1  0
  7 34  1  0
 11 35  1  0
 11 36  1  0
 13 37  1  0
 14 38  1  0
 15 39  1  0
 17 40  1  0
 18 41  1  0
 19 42  1  0
 20 43  1  0
 22 44  1  0
 24 45  1  0
M  CHG  1  22   1
M  END
>  <UniqueID>  (37) 
36

>  <SMILES>  (37) 
CN(C)Cc1ccc2oc(Cc3cccc4ccccc34)[nH+]c2c1

>  <Energy>  (37) 
93.64187657285561

>  <Genealogy>  (37) 
CN(C)Cc1ccc2oc(Cc3cccc4ccccc34)[nH+]c2c1 (protonated)
CN(C)Cc1ccc2oc(Cc3cccc4ccccc34)[nH+]c2c1 (3D coordinates assigned)
CN(C)Cc1ccc2oc(Cc3cccc4ccccc34)[nH+]c2c1 (optimized conformer: 93.64187657285561 kcal/mol)

>  <smiles>  (37) 
CN(C)Cc1ccc2oc(Cc3cccc4ccccc34)nc2c1

>  <score_type>  (37) 
oracle

>  <origin>  (37) 
adg

>  <m_score__min__energy>  (37) 
-6.4900000000000002

>  <m_primary>  (37) 
energy

$$$$
38:0
     RDKit          3D

 34 35  0  0  0  0  0  0  0  0999 V2000
   62.0670   33.5940   47.0770 C   0  0  0  0  0  0  0  0  0  0  0  0
   60.8330   32.7400   47.0050 C   0  0  0  0  0  0  0  0  0  0  0  0
   59.8740   32.9780   46.0050 C   0  0  0  0  0  0  0  0  0  0  0  0
   58.7200   32.1880   45.9220 C   0  0  0  0  0  0  0  0  0  0  0  0
   57.5250   32.5060   44.6700 S   0  0  0  0  0  0  0  0  0  0  0  0
   58.1740   32.3120   43.3290 O   0  0  0  0  0  0  0  0  0  0  0  0
   57.0230   33.9160   44.8020 O   0  0  0  0  0  0  0  0  0  0  0  0
   56.1970   31.4080   44.8690 N   0  0  0  0  0  0  0  0  0  0  0  0
   56.1810   30.0280   44.4820 C   0  0  0  0  0  0  0  0  0  0  0  0
   55.1600   29.3400   44.7500 O   0  0  0  0  0  0  0  0  0  0  0  0
   57.3270   29.3720   43.7580 C   0  0  0  0  0  0  0  0  0  0  0  0
   58.2870   28.7060   44.7100 C   0  0  0  0  0  0  0  0  0  0  0  0
   57.8090   27.8730   45.7380 C   0  0  0  0  0  0  0  0  0  0  0  0
   58.7010   27.2740   46.6330 C   0  0  0  0  0  0  0  0  0  0  0  0
   60.0730   27.5130   46.5180 C   0  0  0  0  0  0  0  0  0  0  0  0
   60.5550   28.3550   45.5150 C   0  0  0  0  0  0  0  0  0  0  0  0
   59.6660   28.9570   44.6170 C   0  0  0  0  0  0  0  0  0  0  0  0
   58.5140   31.1630   46.8530 C   0  0  0  0  0  0  0  0  0  0  0  0
   59.4600   30.9200   47.8500 C   0  0  0  0  0  0  0  0  0  0  0  0
   60.6190   31.6990   47.9320 C   0  0  0  0  0  0  0  0  0  0  0  0
   61.8790   31.3130   49.3260 Br  0  0  0  0  0  0  0  0  0  0  0  0
   62.3273   33.7741   48.1305 H   0  0  0  0  0  0  0  0  0  0  0  0
   62.8997   33.0780   46.5766 H   0  0  0  0  0  0  0  0  0  0  0  0
   61.8775   34.5551   46.5766 H   0  0  0  0  0  0  0  0  0  0  0  0
   60.0311   33.7915   45.2815 H   0  0  0  0  0  0  0  0  0  0  0  0
   56.9252   28.6136   43.0699 H   0  0  0  0  0  0  0  0  0  0  0  0
   57.8762   30.1529   43.2115 H   0  0  0  0  0  0  0  0  0  0  0  0
   56.7286   27.6920   45.8382 H   0  0  0  0  0  0  0  0  0  0  0  0
   58.3225   26.6144   47.4278 H   0  0  0  0  0  0  0  0  0  0  0  0
   60.7741   27.0367   47.2192 H   0  0  0  0  0  0  0  0  0  0  0  0
   61.6350   28.5459   45.4300 H   0  0  0  0  0  0  0  0  0  0  0  0
   60.0488   29.6295   43.8352 H   0  0  0  0  0  0  0  0  0  0  0  0
   57.6040   30.5474   46.7986 H   0  0  0  0  0  0  0  0  0  0  0  0
   59.2931   30.1106   48.5760 H   0  0  0  0  0  0  0  0  0  0  0  0
  1  2  1  0
  2  3  2  0
  3  4  1  0
  4  5  1  0
  5  6  2  0
  5  7  2  0
  5  8  1  0
  8  9  1  0
  9 10  2  0
  9 11  1  0
 11 12  1  0
 12 13  2  0
 13 14  1  0
 14 15  2  0
 15 16  1  0
 16 17  2  0
  4 18  2  0
 18 19  1  0
 19 20  2  0
 20 21  1  0
 20  2  1  0
 17 12  1  0
  1 22  1  0
  1 23  1  0
  1 24  1  0
  3 25  1  0
 11 26  1  0
 11 27  1  0
 13 28  1  0
 14 29  1  0
 15 30  1  0
 16 31  1  0
 17 32  1  0
 18 33  1  0
 19 34  1  0
M  CHG  1   8  -1
M  END
>  <UniqueID>  (38) 
37

>  <SMILES>  (38) 
Cc1cc(S(=O)(=O)[N-]C(=O)Cc2ccccc2)ccc1Br

>  <Energy>  (38) 
37.102340714767756

>  <Genealogy>  (38) 
Cc1cc(S(=O)(=O)[N-]C(=O)Cc2ccccc2)ccc1Br (protonated)
Cc1cc(S(=O)(=O)[N-]C(=O)Cc2ccccc2)ccc1Br (3D coordinates assigned)
Cc1cc(S(=O)(=O)[N-]C(=O)Cc2ccccc2)ccc1Br (optimized conformer: 37.102340714767756 kcal/mol)

>  <smiles>  (38) 
Cc1cc(S(=O)(=O)NC(=O)Cc2ccccc2)ccc1Br

>  <score_type>  (38) 
oracle

>  <origin>  (38) 
adg

>  <m_score__min__energy>  (38) 
-10.4

>  <m_primary>  (38) 
energy

$$$$
39:0
     RDKit          3D

 23 22  0  0  0  0  0  0  0  0999 V2000
   56.0590   29.7180   42.9800 C   0  0  0  0  0  0  0  0  0  0  0  0
   56.2450   29.6740   44.4660 C   0  0  0  0  0  0  0  0  0  0  0  0
   56.6560   30.7010   45.0660 O   0  0  0  0  0  0  0  0  0  0  0  0
   55.9750   28.4870   45.2250 N   0  0  0  0  0  0  0  0  0  0  0  0
   56.9780   27.5130   45.6470 C   0  0  2  0  0  0  0  0  0  0  0  0
   57.8000   27.1130   44.4510 C   0  0  0  0  0  0  0  0  0  0  0  0
   59.0170   27.8050   44.1210 S   0  0  0  0  0  0  0  0  0  0  0  0
   56.3090   26.2960   46.2200 C   0  0  0  0  0  0  0  0  0  0  0  0
   56.9870   25.4630   46.8790 O   0  0  0  0  0  0  0  0  0  0  0  0
   54.9110   26.0780   45.9960 N   0  0  0  0  0  0  0  0  0  0  0  0
   54.3720   24.9420   45.2570 C   0  0  0  0  0  0  0  0  0  0  0  0
   54.3370   23.6930   46.1350 C   0  0  0  0  0  0  0  0  0  0  0  0
   55.0410   23.9140   47.3240 O   0  0  0  0  0  0  0  0  0  0  0  0
   55.0125   29.9656   42.7486 H   0  0  0  0  0  0  0  0  0  0  0  0
   56.7207   30.4844   42.5502 H   0  0  0  0  0  0  0  0  0  0  0  0
   56.3072   28.7363   42.5502 H   0  0  0  0  0  0  0  0  0  0  0  0
   57.6215   27.9620   46.4179 H   0  0  0  0  0  0  0  0  0  0  0  0
   57.4644   26.2776   43.8189 H   0  0  0  0  0  0  0  0  0  0  0  0
   53.3502   25.1790   44.9257 H   0  0  0  0  0  0  0  0  0  0  0  0
   55.0192   24.7458   44.3895 H   0  0  0  0  0  0  0  0  0  0  0  0
   53.2918   23.4461   46.3729 H   0  0  0  0  0  0  0  0  0  0  0  0
   54.8070   22.8605   45.5909 H   0  0  0  0  0  0  0  0  0  0  0  0
   55.1660   24.8950   47.3930 H   0  0  0  0  0  0  0  0  0  0  0  0
  1  2  1  0
  2  3  2  0
  2  4  1  0
  4  5  1  0
  5  6  1  0
  6  7  2  0
  5  8  1  0
  8  9  2  0
  8 10  1  0
 10 11  1  0
 11 12  1  0
 12 13  1  0
  1 14  1  0
  1 15  1  0
  1 16  1  0
  5 17  1  1
  6 18  1  0
 11 19  1  0
 11 20  1  0
 12 21  1  0
 12 22  1  0
 13 23  1  0
M  CHG  2   4  -1  10  -1
M  END
>  <UniqueID>  (39) 
38

>  <SMILES>  (39) 
CC(=O)[N-][C@H](C=S)C(=O)[N-]CCO

>  <Energy>  (39) 
10.243802205192045

>  <Genealogy>  (39) 
CC(=O)[N-]C(C=S)C(=O)[N-]CCO (protonated)
CC(=O)[N-][C@H](C=S)C(=O)[N-]CCO (chirality)
CC(=O)[N-][C@H](C=S)C(=O)[N-]CCO (3D coordinates assigned)
CC(=O)[N-][C@H](C=S)C(=O)[N-]CCO (optimized conformer: 10.243802205192045 kcal/mol)

>  <smiles>  (39) 
CC(=O)NC(C=S)C(=O)NCCO

>  <score_type>  (39) 
oracle

>  <origin>  (39) 
adg

>  <m_score__min__energy>  (39) 
-9.1099999999999994

>  <m_primary>  (39) 
energy

$$$$
40:0
     RDKit          3D

 34 35  0  0  0  0  0  0  0  0999 V2000
   54.5340   26.3400   45.9840 O   0  0  0  0  0  0  0  0  0  0  0  0
   55.7620   26.3380   46.2620 C   0  0  0  0  0  0  0  0  0  0  0  0
   56.2750   25.3660   47.1110 O   0  0  0  0  0  0  0  0  0  0  0  0
   56.6730   27.3410   45.6390 C   0  0  0  0  0  0  0  0  0  0  0  0
   55.9050   28.5110   45.2390 N   0  0  0  0  0  0  0  0  0  0  0  0
   56.4510   29.5590   44.4320 C   0  0  0  0  0  0  0  0  0  0  0  0
   56.3480   29.5040   43.1770 O   0  0  0  0  0  0  0  0  0  0  0  0
   57.1340   30.7070   45.0570 C   0  0  0  0  0  0  0  0  0  0  0  0
   58.2790   30.5310   45.8480 C   0  0  0  0  0  0  0  0  0  0  0  0
   58.8940   31.6450   46.4230 C   0  0  0  0  0  0  0  0  0  0  0  0
   58.3770   32.9300   46.2090 C   0  0  0  0  0  0  0  0  0  0  0  0
   59.0290   34.0650   46.8110 N   0  0  0  0  0  0  0  0  0  0  0  0
   60.3170   34.6070   46.3750 C   0  0  0  0  0  0  0  0  0  0  0  0
   61.4540   33.8980   47.0620 C   0  0  0  0  0  0  0  0  0  0  0  0
   62.7200   33.8410   46.4530 C   0  0  0  0  0  0  0  0  0  0  0  0
   63.7760   33.1750   47.0820 C   0  0  0  0  0  0  0  0  0  0  0  0
   63.5760   32.5570   48.3200 C   0  0  0  0  0  0  0  0  0  0  0  0
   62.3170   32.5980   48.9270 C   0  0  0  0  0  0  0  0  0  0  0  0
   61.2580   33.2630   48.3000 C   0  0  0  0  0  0  0  0  0  0  0  0
   57.2260   33.0620   45.4120 C   0  0  0  0  0  0  0  0  0  0  0  0
   56.6440   31.9620   44.8650 N   0  0  0  0  0  0  0  0  0  0  0  0
   57.4429   27.6387   46.3661 H   0  0  0  0  0  0  0  0  0  0  0  0
   57.1554   26.8990   44.7547 H   0  0  0  0  0  0  0  0  0  0  0  0
   58.6890   29.5238   46.0139 H   0  0  0  0  0  0  0  0  0  0  0  0
   59.7897   31.5132   47.0477 H   0  0  0  0  0  0  0  0  0  0  0  0
   58.5790   34.5160   47.6390 H   0  0  0  0  0  0  0  0  0  0  0  0
   60.4143   34.4755   45.2872 H   0  0  0  0  0  0  0  0  0  0  0  0
   60.3574   35.6748   46.6360 H   0  0  0  0  0  0  0  0  0  0  0  0
   62.8803   34.3227   45.4771 H   0  0  0  0  0  0  0  0  0  0  0  0
   64.7652   33.1372   46.6024 H   0  0  0  0  0  0  0  0  0  0  0  0
   64.4093   32.0384   48.8167 H   0  0  0  0  0  0  0  0  0  0  0  0
   62.1592   32.1068   49.8985 H   0  0  0  0  0  0  0  0  0  0  0  0
   60.2677   33.2889   48.7781 H   0  0  0  0  0  0  0  0  0  0  0  0
   56.7955   34.0579   45.2307 H   0  0  0  0  0  0  0  0  0  0  0  0
  1  2  2  0
  2  3  1  0
  2  4  1  0
  4  5  1  0
  5  6  1  0
  6  7  2  0
  6  8  1  0
  8  9  2  0
  9 10  1  0
 10 11  2  0
 11 12  1  0
 12 13  1  0
 13 14  1  0
 14 15  2  0
 15 16  1  0
 16 17  2  0
 17 18  1  0
 18 19  2  0
 11 20  1  0
 20 21  2  0
 21  8  1  0
 19 14  1  0
  4 22  1  0
  4 23  1  0
  9 24  1  0
 10 25  1  0
 12 26  1  0
 13 27  1  0
 13 28  1  0
 15 29  1  0
 16 30  1  0
 17 31  1  0
 18 32  1  0
 19 33  1  0
 20 34  1  0
M  CHG  2   3  -1   5  -1
M  END
>  <UniqueID>  (40) 
39

>  <SMILES>  (40) 
O=C([O-])C[N-]C(=O)c1ccc(NCc2ccccc2)cn1

>  <Energy>  (40) 
30.5988930538251

>  <Genealogy>  (40) 
O=C([O-])C[N-]C(=O)c1ccc(NCc2ccccc2)cn1 (protonated)
O=C([O-])C[N-]C(=O)c1ccc(NCc2ccccc2)cn1 (3D coordinates assigned)
O=C([O-])C[N-]C(=O)c1ccc(NCc2ccccc2)cn1 (optimized conformer: 30.5988930538251 kcal/mol)

>  <smiles>  (40) 
O=C(O)CNC(=O)c1ccc(NCc2ccccc2)cn1

>  <score_type>  (40) 
oracle

>  <origin>  (40) 
adg

>  <m_score__min__energy>  (40) 
-12.630000000000001

>  <m_primary>  (40) 
energy

$$$$
41:0
     RDKit          3D

 66 68  0  0  0  0  0  0  0  0999 V2000
   60.3310   33.8200   47.5400 C   0  0  0  0  0  0  0  0  0  0  0  0
   58.9540   34.0470   46.8920 C   0  0  1  0  0  0  0  0  0  0  0  0
   59.0320   34.6540   45.4950 C   0  0  0  0  0  0  0  0  0  0  0  0
   57.7340   34.2200   44.8290 C   0  0  0  0  0  0  0  0  0  0  0  0
   57.0470   33.3080   45.8430 C   0  0  0  0  0  0  0  0  0  0  0  0
   58.0730   32.8600   46.8020 N   0  0  0  0  0  0  0  0  0  0  0  0
   58.7480   31.6310   46.3050 C   0  0  0  0  0  0  0  0  0  0  0  0
   58.8910   30.6060   47.4350 C   0  0  0  0  0  0  0  0  0  0  0  0
   58.7000   29.2070   46.9110 C   0  0  0  0  0  0  0  0  0  0  0  0
   59.2830   28.1190   47.5770 C   0  0  0  0  0  0  0  0  0  0  0  0
   59.1360   26.8230   47.0740 C   0  0  0  0  0  0  0  0  0  0  0  0
   58.4110   26.5930   45.8910 C   0  0  0  0  0  0  0  0  0  0  0  0
   58.2550   25.2170   45.3570 C   0  0  0  0  0  0  0  0  0  0  0  0
   59.2170   24.2290   45.6320 C   0  0  0  0  0  0  0  0  0  0  0  0
   59.0670   22.9320   45.1310 C   0  0  0  0  0  0  0  0  0  0  0  0
   57.9560   22.6000   44.3420 C   0  0  0  0  0  0  0  0  0  0  0  0
   57.7750   21.1930   43.8230 C   0  0  0  0  0  0  0  0  0  0  0  0
   57.1700   20.3040   44.8440 N   0  0  2  0  0  0  0  0  0  0  0  0
   55.6980   20.4260   44.8760 C   0  0  0  0  0  0  0  0  0  0  0  0
   57.7850   20.4820   46.1880 C   0  0  0  0  0  0  0  0  0  0  0  0
   56.8010   20.8130   47.3350 C   0  0  0  0  0  0  0  0  0  0  0  0
   57.0620   22.1470   47.9240 N   0  0  0  0  0  0  0  0  0  0  0  0
   56.9670   22.0890   49.3900 C   0  0  0  0  0  0  0  0  0  0  0  0
   56.1170   23.1530   47.4070 C   0  0  0  0  0  0  0  0  0  0  0  0
   56.9900   23.5810   44.0700 C   0  0  0  0  0  0  0  0  0  0  0  0
   57.1390   24.8770   44.5710 C   0  0  0  0  0  0  0  0  0  0  0  0
   57.8400   27.6890   45.2210 C   0  0  0  0  0  0  0  0  0  0  0  0
   57.9890   28.9850   45.7230 C   0  0  0  0  0  0  0  0  0  0  0  0
   60.2282   33.8369   48.6351 H   0  0  0  0  0  0  0  0  0  0  0  0
   60.7285   32.8442   47.2241 H   0  0  0  0  0  0  0  0  0  0  0  0
   61.0207   34.6166   47.2241 H   0  0  0  0  0  0  0  0  0  0  0  0
   58.5036   34.7537   47.6045 H   0  0  0  0  0  0  0  0  0  0  0  0
   59.0956   35.7508   45.5488 H   0  0  0  0  0  0  0  0  0  0  0  0
   59.9224   34.3235   44.9401 H   0  0  0  0  0  0  0  0  0  0  0  0
   57.1036   35.0938   44.6074 H   0  0  0  0  0  0  0  0  0  0  0  0
   57.9148   33.7076   43.8726 H   0  0  0  0  0  0  0  0  0  0  0  0
   56.2560   33.8613   46.3704 H   0  0  0  0  0  0  0  0  0  0  0  0
   56.5852   32.4463   45.3388 H   0  0  0  0  0  0  0  0  0  0  0  0
   58.1506   31.1930   45.4918 H   0  0  0  0  0  0  0  0  0  0  0  0
   59.7495   31.8981   45.9367 H   0  0  0  0  0  0  0  0  0  0  0  0
   59.8949   30.6925   47.8763 H   0  0  0  0  0  0  0  0  0  0  0  0
   58.1217   30.8074   48.1951 H   0  0  0  0  0  0  0  0  0  0  0  0
   59.8586   28.2863   48.4994 H   0  0  0  0  0  0  0  0  0  0  0  0
   59.5912   25.9759   47.6080 H   0  0  0  0  0  0  0  0  0  0  0  0
   60.0948   24.4783   46.2463 H   0  0  0  0  0  0  0  0  0  0  0  0
   59.8250   22.1676   45.3571 H   0  0  0  0  0  0  0  0  0  0  0  0
   57.1187   21.2204   42.9407 H   0  0  0  0  0  0  0  0  0  0  0  0
   58.7667   20.7930   43.5652 H   0  0  0  0  0  0  0  0  0  0  0  0
   57.3810   19.3130   44.5730 H   0  0  0  0  0  0  0  0  0  0  0  0
   55.3551   20.4544   45.9208 H   0  0  0  0  0  0  0  0  0  0  0  0
   55.3957   21.3523   44.3655 H   0  0  0  0  0  0  0  0  0  0  0  0
   55.2473   19.5621   44.3655 H   0  0  0  0  0  0  0  0  0  0  0  0
   58.3062   19.5488   46.4480 H   0  0  0  0  0  0  0  0  0  0  0  0
   58.4503   21.3537   46.1014 H   0  0  0  0  0  0  0  0  0  0  0  0
   55.7750   20.7945   46.9388 H   0  0  0  0  0  0  0  0  0  0  0  0
   56.9364   20.0606   48.1259 H   0  0  0  0  0  0  0  0  0  0  0  0
   57.8259   22.6134   49.8341 H   0  0  0  0  0  0  0  0  0  0  0  0
   56.0340   22.5717   49.7164 H   0  0  0  0  0  0  0  0  0  0  0  0
   56.9700   21.0385   49.7164 H   0  0  0  0  0  0  0  0  0  0  0  0
   55.6328   23.6684   48.2496 H   0  0  0  0  0  0  0  0  0  0  0  0
   56.6611   23.8856   46.7928 H   0  0  0  0  0  0  0  0  0  0  0  0
   55.3518   22.6558   46.7928 H   0  0  0  0  0  0  0  0  0  0  0  0
   56.1108   23.3284   43.4591 H   0  0  0  0  0  0  0  0  0  0  0  0
   56.3767   25.6382   44.3487 H   0  0  0  0  0  0  0  0  0  0  0  0
   57.2711   27.5253   44.2938 H   0  0  0  0  0  0  0  0  0  0  0  0
   57.5462   29.8351   45.1833 H   0  0  0  0  0  0  0  0  0  0  0  0
  1  2  1  0
  2  3  1  0
  3  4  1  0
  4  5  1  0
  5  6  1  0
  6  7  1  0
  7  8  1  0
  8  9  1  0
  9 10  2  0
 10 11  1  0
 11 12  2  0
 12 13  1  0
 13 14  2  0
 14 15  1  0
 15 16  2  0
 16 17  1  0
 17 18  1  0
 18 19  1  0
 18 20  1  0
 20 21  1  0
 21 22  1  0
 22 23  1  0
 22 24  1  0
 16 25  1  0
 25 26  2  0
 12 27  1  0
 27 28  2  0
  6  2  1  0
 28  9  1  0
 26 13  1  0
  1 29  1  0
  1 30  1  0
  1 31  1  0
  2 32  1  1
  3 33  1  0
  3 34  1  0
  4 35  1  0
  4 36  1  0
  5 37  1  0
  5 38  1  0
  7 39  1  0
  7 40  1  0
  8 41  1  0
  8 42  1  0
 10 43  1  0
 11 44  1  0
 14 45  1  0
 15 46  1  0
 17 47  1  0
 17 48  1  0
 18 49  1  6
 19 50  1  0
 19 51  1  0
 19 52  1  0
 20 53  1  0
 20 54  1  0
 21 55  1  0
 21 56  1  0
 23 57  1  0
 23 58  1  0
 23 59  1  0
 24 60  1  0
 24 61  1  0
 24 62  1  0
 25 63  1  0
 26 64  1  0
 27 65  1  0
 28 66  1  0
M  CHG  1  18   1
M  END
>  <UniqueID>  (41) 
40

>  <SMILES>  (41) 
C[C@H]1CCCN1CCc1ccc(-c2ccc(C[N@H+](C)CCN(C)C)cc2)cc1

>  <Energy>  (41) 
82.20651104147261

>  <Genealogy>  (41) 
CC1CCCN1CCc1ccc(-c2ccc(C[NH+](C)CCN(C)C)cc2)cc1 (protonated)
C[C@H]1CCCN1CCc1ccc(-c2ccc(C[N@H+](C)CCN(C)C)cc2)cc1 (chirality)
C[C@H]1CCCN1CCc1ccc(-c2ccc(C[N@H+](C)CCN(C)C)cc2)cc1 (3D coordinates assigned)
C[C@H]1CCCN1CCc1ccc(-c2ccc(C[N@H+](C)CCN(C)C)cc2)cc1 (nonaromatic ring conformer: 82.20651104147261 kcal/mol)

>  <smiles>  (41) 
CC1CCCN1CCc1ccc(-c2ccc(CN(C)CCN(C)C)cc2)cc1

>  <score_type>  (41) 
oracle

>  <origin>  (41) 
adg

>  <m_score__min__energy>  (41) 
-7.1200000000000001

>  <m_primary>  (41) 
energy

$$$$
42:0
     RDKit          3D

 54 56  0  0  0  0  0  0  0  0999 V2000
   62.7464   32.0544   47.4247 H   0  0  0  0  0  0  0  0  0  0  0  0
   61.6720   32.1030   47.1940 C   0  0  0  0  0  0  0  0  0  0  0  0
   61.1730   33.2670   46.7570 C   0  0  0  0  0  0  0  0  0  0  0  0
   61.3493   33.5682   45.7138 H   0  0  0  0  0  0  0  0  0  0  0  0
   60.3780   34.1720   47.6570 C   0  0  0  0  0  0  0  0  0  0  0  0
   60.9297   35.1125   47.8021 H   0  0  0  0  0  0  0  0  0  0  0  0
   60.2256   33.6666   48.6221 H   0  0  0  0  0  0  0  0  0  0  0  0
   59.0590   34.4700   47.0630 N   0  0  0  0  0  0  0  0  0  0  0  0
   58.0430   33.4630   47.4650 C   0  0  0  0  0  0  0  0  0  0  0  0
   57.0889   33.9772   47.6529 H   0  0  0  0  0  0  0  0  0  0  0  0
   58.4081   32.9561   48.3704 H   0  0  0  0  0  0  0  0  0  0  0  0
   57.8260   32.3970   46.3810 C   0  0  0  0  0  0  0  0  0  0  0  0
   57.0887   31.6653   46.7428 H   0  0  0  0  0  0  0  0  0  0  0  0
   58.7926   31.9135   46.1764 H   0  0  0  0  0  0  0  0  0  0  0  0
   57.3300   32.9950   45.1160 N   0  0  0  0  0  0  0  0  0  0  0  0
   57.6360   32.1340   43.9540 C   0  0  0  0  0  0  0  0  0  0  0  0
   58.7264   32.0909   43.8154 H   0  0  0  0  0  0  0  0  0  0  0  0
   57.1511   32.5611   43.0638 H   0  0  0  0  0  0  0  0  0  0  0  0
   57.1120   30.7420   44.1630 C   0  0  0  0  0  0  0  0  0  0  0  0
   55.9500   30.5830   44.6230 O   0  0  0  0  0  0  0  0  0  0  0  0
   57.9350   29.6090   43.8470 N   0  0  0  0  0  0  0  0  0  0  0  0
   58.7410   29.7550   43.1970 H   0  0  0  0  0  0  0  0  0  0  0  0
   57.6810   28.2720   44.3110 C   0  0  0  0  0  0  0  0  0  0  0  0
   58.0470   27.1480   43.5500 C   0  0  0  0  0  0  0  0  0  0  0  0
   58.5579   27.2831   42.5853 H   0  0  0  0  0  0  0  0  0  0  0  0
   57.7650   25.8600   44.0130 C   0  0  0  0  0  0  0  0  0  0  0  0
   58.0679   24.9878   43.4151 H   0  0  0  0  0  0  0  0  0  0  0  0
   57.1010   25.6690   45.2300 C   0  0  0  0  0  0  0  0  0  0  0  0
   56.8430   24.3560   45.6510 O   0  0  0  0  0  0  0  0  0  0  0  0
   56.9430   23.2090   44.8120 C   0  0  0  0  0  0  0  0  0  0  0  0
   57.0218   22.3053   45.4342 H   0  0  0  0  0  0  0  0  0  0  0  0
   56.0475   23.1400   44.1770 H   0  0  0  0  0  0  0  0  0  0  0  0
   57.8370   23.2960   44.1770 H   0  0  0  0  0  0  0  0  0  0  0  0
   56.7120   26.7940   45.9820 C   0  0  0  0  0  0  0  0  0  0  0  0
   56.1829   26.6589   46.9369 H   0  0  0  0  0  0  0  0  0  0  0  0
   56.9960   28.0820   45.5190 C   0  0  0  0  0  0  0  0  0  0  0  0
   56.6788   28.9549   46.1084 H   0  0  0  0  0  0  0  0  0  0  0  0
   57.8110   34.3840   44.8990 C   0  0  0  0  0  0  0  0  0  0  0  0
   57.0646   35.0849   45.3011 H   0  0  0  0  0  0  0  0  0  0  0  0
   57.9522   34.5289   43.8178 H   0  0  0  0  0  0  0  0  0  0  0  0
   59.1570   34.6430   45.5910 C   0  0  0  0  0  0  0  0  0  0  0  0
   59.4777   35.6725   45.3734 H   0  0  0  0  0  0  0  0  0  0  0  0
   59.8862   33.9142   45.2074 H   0  0  0  0  0  0  0  0  0  0  0  0
   60.8610   30.8760   47.3850 C   0  0  0  0  0  0  0  0  0  0  0  0
   60.1380   30.7270   48.5810 C   0  0  0  0  0  0  0  0  0  0  0  0
   60.1892   31.5113   49.3505 H   0  0  0  0  0  0  0  0  0  0  0  0
   59.3540   29.5900   48.8010 C   0  0  0  0  0  0  0  0  0  0  0  0
   58.7981   29.4800   49.7438 H   0  0  0  0  0  0  0  0  0  0  0  0
   59.2760   28.5940   47.8250 C   0  0  0  0  0  0  0  0  0  0  0  0
   58.6640   27.6972   48.0018 H   0  0  0  0  0  0  0  0  0  0  0  0
   59.9750   28.7370   46.6250 C   0  0  0  0  0  0  0  0  0  0  0  0
   59.9071   27.9551   45.8543 H   0  0  0  0  0  0  0  0  0  0  0  0
   60.7610   29.8710   46.4000 C   0  0  0  0  0  0  0  0  0  0  0  0
   61.3044   29.9802   45.4499 H   0  0  0  0  0  0  0  0  0  0  0  0
  1  2  1  0
  2  3  2  0
  3  4  1  0
  3  5  1  0
  5  6  1  0
  5  7  1  0
  5  8  1  0
  8  9  1  0
  9 10  1  0
  9 11  1  0
  9 12  1  0
 12 13  1  0
 12 14  1  0
 12 15  1  0
 15 16  1  0
 16 17  1  0
 16 18  1  0
 16 19  1  0
 19 20  2  0
 19 21  1  0
 21 22  1  0
 21 23  1  0
 23 24  2  0
 24 25  1  0
 24 26  1  0
 26 27  1  0
 26 28  2  0
 28 29  1  0
 29 30  1  0
 30 31  1  0
 30 32  1  0
 30 33  1  0
 28 34  1  0
 34 35  1  0
 34 36  2  0
 36 37  1  0
 15 38  1  0
 38 39  1  0
 38 40  1  0
 38 41  1  0
 41 42  1  0
 41 43  1  0
  2 44  1  0
 44 45  2  0
 45 46  1  0
 45 47  1  0
 47 48  1  0
 47 49  2  0
 49 50  1  0
 49 51  1  0
 51 52  1  0
 51 53  2  0
 53 54  1  0
 41  8  1  0
 53 44  1  0
 36 23  1  0
M  END
>  <UniqueID>  (42) 
41

>  <SMILES>  (42) 
COc1ccc(NC(=O)CN2CCN(C/C=C/c3ccccc3)CC2)cc1

>  <Energy>  (42) 
71.64896163954222

>  <Genealogy>  (42) 
COc1ccc(NC(=O)CN2CCN(C/C=C/c3ccccc3)CC2)cc1 (cis-trans isomerization)
COc1ccc(NC(=O)CN2CCN(C/C=C/c3ccccc3)CC2)cc1 (3D coordinates assigned)
COc1ccc(NC(=O)CN2CCN(C/C=C/c3ccccc3)CC2)cc1 (nonaromatic ring conformer: 71.64896163954222 kcal/mol)

>  <smiles>  (42) 
COc1ccc(NC(=O)CN2CCN(CC=Cc3ccccc3)CC2)cc1

>  <score_type>  (42) 
oracle

>  <origin>  (42) 
adg

>  <m_score__min__energy>  (42) 
-8.7899999999999991

>  <m_primary>  (42) 
energy

$$$$
43:0
     RDKit          3D

 55 58  0  0  0  0  0  0  0  0999 V2000
   56.5235   29.7867   42.2115 H   0  0  0  0  0  0  0  0  0  0  0  0
   56.8180   30.0690   43.2330 C   0  0  0  0  0  0  0  0  0  0  0  0
   56.9910   29.1110   44.1800 N   0  0  0  0  0  0  0  0  0  0  0  0
   57.3640   29.4340   45.4490 C   0  0  0  0  0  0  0  0  0  0  0  0
   57.5100   28.5220   46.3650 N   0  0  0  0  0  0  0  0  0  0  0  0
   57.5240   27.1000   46.1580 C   0  0  0  0  0  0  0  0  0  0  0  0
   57.7920   26.2640   47.2460 C   0  0  0  0  0  0  0  0  0  0  0  0
   57.9704   26.6938   48.2427 H   0  0  0  0  0  0  0  0  0  0  0  0
   57.8320   24.8820   47.0610 C   0  0  0  0  0  0  0  0  0  0  0  0
   58.0224   24.2189   47.9178 H   0  0  0  0  0  0  0  0  0  0  0  0
   57.6300   24.3360   45.7850 C   0  0  0  0  0  0  0  0  0  0  0  0
   57.6570   22.9070   45.5830 N   0  0  0  0  0  0  0  0  0  0  0  0
   56.4840   22.1060   45.9780 C   0  0  0  0  0  0  0  0  0  0  0  0
   56.0124   22.5838   46.8494 H   0  0  0  0  0  0  0  0  0  0  0  0
   56.8439   21.0917   46.2055 H   0  0  0  0  0  0  0  0  0  0  0  0
   55.4270   21.9760   44.8580 C   0  0  0  0  0  0  0  0  0  0  0  0
   54.8294   22.8994   44.8447 H   0  0  0  0  0  0  0  0  0  0  0  0
   54.8392   21.0768   45.0947 H   0  0  0  0  0  0  0  0  0  0  0  0
   55.9520   21.7730   43.5540 O   0  0  0  0  0  0  0  0  0  0  0  0
   57.0980   20.9360   43.5030 C   0  0  0  0  0  0  0  0  0  0  0  0
   57.0567   20.3561   42.5692 H   0  0  0  0  0  0  0  0  0  0  0  0
   57.0632   20.3087   44.4059 H   0  0  0  0  0  0  0  0  0  0  0  0
   58.4490   21.6830   43.5450 C   0  0  0  0  0  0  0  0  0  0  0  0
   58.4085   22.5072   42.8176 H   0  0  0  0  0  0  0  0  0  0  0  0
   59.2247   20.9393   43.3102 H   0  0  0  0  0  0  0  0  0  0  0  0
   58.8120   22.2750   44.9250 C   0  0  0  0  0  0  0  0  0  0  0  0
   59.5994   23.0311   44.7895 H   0  0  0  0  0  0  0  0  0  0  0  0
   59.1541   21.4491   45.5660 H   0  0  0  0  0  0  0  0  0  0  0  0
   57.3900   25.2120   44.7140 C   0  0  0  0  0  0  0  0  0  0  0  0
   57.2297   24.8071   43.7039 H   0  0  0  0  0  0  0  0  0  0  0  0
   57.3540   26.5580   44.9150 N   0  0  0  0  0  0  0  0  0  0  0  0
   57.2220   27.1730   44.0830 H   0  0  0  0  0  0  0  0  0  0  0  0
   57.5460   30.7390   45.7810 N   0  0  0  0  0  0  0  0  0  0  0  0
   57.3760   31.7370   44.8700 C   0  0  0  0  0  0  0  0  0  0  0  0
   57.6210   33.1740   45.2710 C   0  0  0  0  0  0  0  0  0  0  0  0
   56.9023   33.8151   44.7396 H   0  0  0  0  0  0  0  0  0  0  0  0
   57.3650   33.3950   46.7830 C   0  0  0  0  0  0  0  0  0  0  0  0
   56.7255   32.5831   47.1597 H   0  0  0  0  0  0  0  0  0  0  0  0
   56.8745   34.3712   46.9110 H   0  0  0  0  0  0  0  0  0  0  0  0
   58.6760   33.4070   47.5790 C   0  0  0  0  0  0  0  0  0  0  0  0
   59.1917   32.4466   47.4314 H   0  0  0  0  0  0  0  0  0  0  0  0
   58.4319   33.5639   48.6401 H   0  0  0  0  0  0  0  0  0  0  0  0
   59.5710   34.5050   47.1430 N   0  0  0  0  0  0  0  0  0  0  0  0
   60.9490   34.2460   47.5870 C   0  0  0  0  0  0  0  0  0  0  0  0
   60.9848   34.2393   48.6864 H   0  0  0  0  0  0  0  0  0  0  0  0
   61.2805   33.2698   47.2033 H   0  0  0  0  0  0  0  0  0  0  0  0
   61.6123   35.0352   47.2033 H   0  0  0  0  0  0  0  0  0  0  0  0
   59.5190   34.8020   45.6860 C   0  0  0  0  0  0  0  0  0  0  0  0
   60.5263   35.0883   45.3493 H   0  0  0  0  0  0  0  0  0  0  0  0
   58.7936   35.6157   45.5391 H   0  0  0  0  0  0  0  0  0  0  0  0
   59.0450   33.6030   44.8520 C   0  0  0  0  0  0  0  0  0  0  0  0
   59.7356   32.7608   45.0058 H   0  0  0  0  0  0  0  0  0  0  0  0
   59.0284   33.8947   43.7915 H   0  0  0  0  0  0  0  0  0  0  0  0
   57.0140   31.4100   43.5570 C   0  0  0  0  0  0  0  0  0  0  0  0
   56.8871   32.1955   42.7974 H   0  0  0  0  0  0  0  0  0  0  0  0
  1  2  1  0
  2  3  1  0
  3  4  1  0
  4  5  2  0
  5  6  1  0
  6  7  2  0
  7  8  1  0
  7  9  1  0
  9 10  1  0
  9 11  2  0
 11 12  1  0
 12 13  1  0
 13 14  1  0
 13 15  1  0
 13 16  1  0
 16 17  1  0
 16 18  1  0
 16 19  1  0
 19 20  1  0
 20 21  1  0
 20 22  1  0
 20 23  1  0
 23 24  1  0
 23 25  1  0
 23 26  1  0
 26 27  1  0
 26 28  1  0
 11 29  1  0
 29 30  1  0
 29 31  2  0
 31 32  1  0
  4 33  1  0
 33 34  2  0
 34 35  1  0
 35 36  1  0
 35 37  1  0
 37 38  1  0
 37 39  1  0
 37 40  1  0
 40 41  1  0
 40 42  1  0
 40 43  1  0
 43 44  1  0
 44 45  1  0
 44 46  1  0
 44 47  1  0
 43 48  1  0
 48 49  1  0
 48 50  1  0
 48 51  1  0
 51 52  1  0
 51 53  1  0
 34 54  1  0
 54 55  1  0
 54  2  2  0
 31  6  1  0
 51 35  1  0
 26 12  1  0
M  CHG  2   3  -1  31   1
M  END
>  <UniqueID>  (43) 
42

>  <SMILES>  (43) 
CN1CCC(c2cc[n-]/c(=N\c3ccc(N4CCCOCC4)c[nH+]3)n2)CC1

>  <Energy>  (43) 
89.06080089086814

>  <Genealogy>  (43) 
CN1CCC(c2cc[n-]c(=Nc3ccc(N4CCCOCC4)c[nH+]3)n2)CC1 (protonated)
CN1CCC(c2cc[n-]/c(=N\c3ccc(N4CCCOCC4)c[nH+]3)n2)CC1 (cis-trans isomerization)
CN1CCC(c2cc[n-]/c(=N\c3ccc(N4CCCOCC4)c[nH+]3)n2)CC1 (3D coordinates assigned)
CN1CCC(c2cc[n-]/c(=N\c3ccc(N4CCCOCC4)c[nH+]3)n2)CC1 (nonaromatic ring conformer: 89.06080089086814 kcal/mol)

>  <smiles>  (43) 
CN1CCC(c2cc[nH]c(=Nc3ccc(N4CCCOCC4)cn3)n2)CC1

>  <score_type>  (43) 
oracle

>  <origin>  (43) 
adg

>  <m_score__min__energy>  (43) 
-6.1399999999999997

>  <m_primary>  (43) 
energy

$$$$
44:0
     RDKit          3D

 40 41  0  0  0  0  0  0  0  0999 V2000
   59.2630   26.8970   45.3640 C   0  0  0  0  0  0  0  0  0  0  0  0
   58.7520   28.0880   46.0740 N   0  0  0  0  0  0  0  0  0  0  0  0
   57.2760   28.1320   46.0010 C   0  0  0  0  0  0  0  0  0  0  0  0
   56.8210   29.3380   45.2370 C   0  0  0  0  0  0  0  0  0  0  0  0
   55.6070   29.4490   44.9170 O   0  0  0  0  0  0  0  0  0  0  0  0
   57.7770   30.3340   44.8530 N   0  0  0  0  0  0  0  0  0  0  0  0
   57.7490   31.7240   45.2120 C   0  0  0  0  0  0  0  0  0  0  0  0
   57.7730   32.1380   46.5580 C   0  0  0  0  0  0  0  0  0  0  0  0
   57.7700   33.4990   46.8780 C   0  0  0  0  0  0  0  0  0  0  0  0
   57.7590   34.4570   45.8620 C   0  0  0  0  0  0  0  0  0  0  0  0
   57.7610   34.0560   44.5240 C   0  0  0  0  0  0  0  0  0  0  0  0
   57.7650   32.6960   44.1960 C   0  0  0  0  0  0  0  0  0  0  0  0
   57.7720   32.1880   42.3490 Br  0  0  0  0  0  0  0  0  0  0  0  0
   59.1910   28.0730   47.4850 C   0  0  0  0  0  0  0  0  0  0  0  0
   60.0020   29.2960   47.8030 C   0  0  0  0  0  0  0  0  0  0  0  0
   60.4090   29.4730   48.9830 O   0  0  0  0  0  0  0  0  0  0  0  0
   60.2480   30.2820   46.7870 N   0  0  0  0  0  0  0  0  0  0  0  0
   61.1430   31.3960   46.9460 C   0  0  0  0  0  0  0  0  0  0  0  0
   60.7610   32.7030   46.5840 C   0  0  0  0  0  0  0  0  0  0  0  0
   61.6430   33.7710   46.7700 C   0  0  0  0  0  0  0  0  0  0  0  0
   62.9050   33.5500   47.3290 C   0  0  0  0  0  0  0  0  0  0  0  0
   63.7580   34.5890   47.5110 F   0  0  0  0  0  0  0  0  0  0  0  0
   63.2820   32.2610   47.7120 C   0  0  0  0  0  0  0  0  0  0  0  0
   62.4030   31.1890   47.5270 C   0  0  0  0  0  0  0  0  0  0  0  0
   59.5863   26.1436   46.0974 H   0  0  0  0  0  0  0  0  0  0  0  0
   58.4662   26.4763   44.7331 H   0  0  0  0  0  0  0  0  0  0  0  0
   60.1169   27.1846   44.7331 H   0  0  0  0  0  0  0  0  0  0  0  0
   56.9120   27.2254   45.4955 H   0  0  0  0  0  0  0  0  0  0  0  0
   56.8721   28.1865   47.0227 H   0  0  0  0  0  0  0  0  0  0  0  0
   57.7942   31.3869   47.3614 H   0  0  0  0  0  0  0  0  0  0  0  0
   57.7763   33.8156   47.9314 H   0  0  0  0  0  0  0  0  0  0  0  0
   57.7488   35.5274   46.1154 H   0  0  0  0  0  0  0  0  0  0  0  0
   57.7594   34.8123   43.7253 H   0  0  0  0  0  0  0  0  0  0  0  0
   58.3061   28.0470   48.1379 H   0  0  0  0  0  0  0  0  0  0  0  0
   59.8151   27.1825   47.6511 H   0  0  0  0  0  0  0  0  0  0  0  0
   59.6690   30.2390   45.9180 H   0  0  0  0  0  0  0  0  0  0  0  0
   59.7650   32.8834   46.1534 H   0  0  0  0  0  0  0  0  0  0  0  0
   61.3435   34.7877   46.4759 H   0  0  0  0  0  0  0  0  0  0  0  0
   64.2718   32.0886   48.1599 H   0  0  0  0  0  0  0  0  0  0  0  0
   62.7015   30.1773   47.8390 H   0  0  0  0  0  0  0  0  0  0  0  0
  1  2  1  0
  2  3  1  0
  3  4  1  0
  4  5  2  0
  4  6  1  0
  6  7  1  0
  7  8  2  0
  8  9  1  0
  9 10  2  0
 10 11  1  0
 11 12  2  0
 12 13  1  0
  2 14  1  0
 14 15  1  0
 15 16  2  0
 15 17  1  0
 17 18  1  0
 18 19  2  0
 19 20  1  0
 20 21  2  0
 21 22  1  0
 21 23  1  0
 23 24  2  0
 12  7  1  0
 24 18  1  0
  1 25  1  0
  1 26  1  0
  1 27  1  0
  3 28  1  0
  3 29  1  0
  8 30  1  0
  9 31  1  0
 10 32  1  0
 11 33  1  0
 14 34  1  0
 14 35  1  0
 17 36  1  0
 19 37  1  0
 20 38  1  0
 23 39  1  0
 24 40  1  0
M  CHG  1   6  -1
M  END
>  <UniqueID>  (44) 
43

>  <SMILES>  (44) 
CN(CC(=O)[N-]c1ccccc1Br)CC(=O)Nc1ccc(F)cc1

>  <Energy>  (44) 
47.03275103828431

>  <Genealogy>  (44) 
CN(CC(=O)[N-]c1ccccc1Br)CC(=O)Nc1ccc(F)cc1 (protonated)
CN(CC(=O)[N-]c1ccccc1Br)CC(=O)Nc1ccc(F)cc1 (3D coordinates assigned)
CN(CC(=O)[N-]c1ccccc1Br)CC(=O)Nc1ccc(F)cc1 (optimized conformer: 47.03275103828431 kcal/mol)

>  <smiles>  (44) 
CN(CC(=O)Nc1ccc(F)cc1)CC(=O)Nc1ccccc1Br

>  <score_type>  (44) 
oracle

>  <origin>  (44) 
adg

>  <m_score__min__energy>  (44) 
-8.9700000000000006

>  <m_primary>  (44) 
energy

$$$$
45:0
     RDKit          3D

 40 42  0  0  0  0  0  0  0  0999 V2000
   58.0510   28.5750   44.2050 C   0  0  0  0  0  0  0  0  0  0  0  0
   57.5910   29.9590   44.5050 C   0  0  0  0  0  0  0  0  0  0  0  0
   58.4180   30.9720   44.8280 N   0  0  0  0  0  0  0  0  0  0  0  0
   57.5360   31.9750   45.0370 C   0  0  0  0  0  0  0  0  0  0  0  0
   57.9150   33.3610   45.5030 C   0  0  2  0  0  0  0  0  0  0  0  0
   58.9510   34.0560   44.6240 C   0  0  0  0  0  0  0  0  0  0  0  0
   59.6350   35.0410   45.5590 C   0  0  0  0  0  0  0  0  0  0  0  0
   59.0670   34.7500   46.9460 C   0  0  0  0  0  0  0  0  0  0  0  0
   58.4030   33.4360   46.8980 N   0  0  0  0  0  0  0  0  0  0  0  0
   59.3590   32.3600   47.2660 C   0  0  0  0  0  0  0  0  0  0  0  0
   58.9760   31.7280   48.5700 C   0  0  0  0  0  0  0  0  0  0  0  0
   59.2180   30.4250   48.9650 C   0  0  0  0  0  0  0  0  0  0  0  0
   58.7750   30.2730   50.2250 N   0  0  0  0  0  0  0  0  0  0  0  0
   58.2720   31.4260   50.6410 N   0  0  0  0  0  0  0  0  0  0  0  0
   57.7610   31.6660   51.9870 C   0  0  0  0  0  0  0  0  0  0  0  0
   56.6320   30.6880   52.3030 C   0  0  0  0  0  0  0  0  0  0  0  0
   57.0180   29.3800   51.9810 O   0  0  0  0  0  0  0  0  0  0  0  0
   58.3950   32.3450   49.6630 C   0  0  0  0  0  0  0  0  0  0  0  0
   56.2590   31.5810   44.8680 N   0  0  0  0  0  0  0  0  0  0  0  0
   56.3360   30.3290   44.5370 O   0  0  0  0  0  0  0  0  0  0  0  0
   58.2302   28.0359   45.1469 H   0  0  0  0  0  0  0  0  0  0  0  0
   57.2790   28.0500   43.6232 H   0  0  0  0  0  0  0  0  0  0  0  0
   58.9836   28.6166   43.6232 H   0  0  0  0  0  0  0  0  0  0  0  0
   56.9505   33.8847   45.4289 H   0  0  0  0  0  0  0  0  0  0  0  0
   59.6747   33.3296   44.2257 H   0  0  0  0  0  0  0  0  0  0  0  0
   58.4991   34.5491   43.7507 H   0  0  0  0  0  0  0  0  0  0  0  0
   60.7241   34.8868   45.5497 H   0  0  0  0  0  0  0  0  0  0  0  0
   59.4558   36.0830   45.2554 H   0  0  0  0  0  0  0  0  0  0  0  0
   59.8804   34.7307   47.6862 H   0  0  0  0  0  0  0  0  0  0  0  0
   58.3493   35.5311   47.2372 H   0  0  0  0  0  0  0  0  0  0  0  0
   59.3570   31.5916   46.4789 H   0  0  0  0  0  0  0  0  0  0  0  0
   60.3615   32.8006   47.3698 H   0  0  0  0  0  0  0  0  0  0  0  0
   59.6927   29.6449   48.3518 H   0  0  0  0  0  0  0  0  0  0  0  0
   58.8300   29.4020   50.7980 H   0  0  0  0  0  0  0  0  0  0  0  0
   58.5747   31.5294   52.7145 H   0  0  0  0  0  0  0  0  0  0  0  0
   57.3735   32.6938   52.0465 H   0  0  0  0  0  0  0  0  0  0  0  0
   56.3941   30.7426   53.3756 H   0  0  0  0  0  0  0  0  0  0  0  0
   55.7476   30.9574   51.7069 H   0  0  0  0  0  0  0  0  0  0  0  0
   56.2040   28.9160   51.6490 H   0  0  0  0  0  0  0  0  0  0  0  0
   58.0876   33.3995   49.7233 H   0  0  0  0  0  0  0  0  0  0  0  0
  1  2  1  0
  2  3  2  0
  3  4  1  0
  4  5  1  0
  5  6  1  0
  6  7  1  0
  7  8  1  0
  8  9  1  0
  9 10  1  0
 10 11  1  0
 11 12  1  0
 12 13  2  0
 13 14  1  0
 14 15  1  0
 15 16  1  0
 16 17  1  0
 14 18  1  0
  4 19  2  0
 19 20  1  0
 20  2  1  0
  9  5  1  0
 18 11  2  0
  1 21  1  0
  1 22  1  0
  1 23  1  0
  5 24  1  1
  6 25  1  0
  6 26  1  0
  7 27  1  0
  7 28  1  0
  8 29  1  0
  8 30  1  0
 10 31  1  0
 10 32  1  0
 12 33  1  0
 13 34  1  0
 15 35  1  0
 15 36  1  0
 16 37  1  0
 16 38  1  0
 17 39  1  0
 18 40  1  0
M  CHG  1  13   1
M  END
>  <UniqueID>  (45) 
44

>  <SMILES>  (45) 
Cc1nc([C@@H]2CCCN2Cc2c[nH+]n(CCO)c2)no1

>  <Energy>  (45) 
104.96667679346656

>  <Genealogy>  (45) 
Cc1nc(C2CCCN2Cc2c[nH+]n(CCO)c2)no1 (protonated)
Cc1nc([C@@H]2CCCN2Cc2c[nH+]n(CCO)c2)no1 (chirality)
Cc1nc([C@@H]2CCCN2Cc2c[nH+]n(CCO)c2)no1 (3D coordinates assigned)
Cc1nc([C@@H]2CCCN2Cc2c[nH+]n(CCO)c2)no1 (nonaromatic ring conformer: 104.96667679346656 kcal/mol)

>  <smiles>  (45) 
Cc1nc(C2CCCN2Cc2cnn(CCO)c2)no1

>  <score_type>  (45) 
oracle

>  <origin>  (45) 
adg

>  <m_score__min__energy>  (45) 
-6.7199999999999998

>  <m_primary>  (45) 
energy

$$$$
46:0
     RDKit          3D

 49 52  0  0  0  0  0  0  0  0999 V2000
   56.6360   20.3990   42.9910 C   0  0  0  0  0  0  0  0  0  0  0  0
   56.0580   21.6680   43.2760 O   0  0  0  0  0  0  0  0  0  0  0  0
   56.6710   22.6600   44.0530 C   0  0  0  0  0  0  0  0  0  0  0  0
   56.0110   23.8480   44.4210 C   0  0  0  0  0  0  0  0  0  0  0  0
   56.6660   24.8070   45.1990 C   0  0  0  0  0  0  0  0  0  0  0  0
   57.9910   24.6030   45.6240 C   0  0  0  0  0  0  0  0  0  0  0  0
   58.6830   25.6230   46.4480 C   0  0  0  0  0  0  0  0  0  0  0  0
   58.4260   25.8000   47.6980 N   0  0  0  0  0  0  0  0  0  0  0  0
   59.2100   26.8060   48.1970 O   0  0  0  0  0  0  0  0  0  0  0  0
   60.0780   27.3600   47.2210 C   0  0  2  0  0  0  0  0  0  0  0  0
   59.8240   28.8400   47.0550 C   0  0  0  0  0  0  0  0  0  0  0  0
   58.8090   29.2860   46.1960 C   0  0  0  0  0  0  0  0  0  0  0  0
   58.5480   30.6530   46.0580 C   0  0  0  0  0  0  0  0  0  0  0  0
   59.2870   31.5970   46.7900 C   0  0  0  0  0  0  0  0  0  0  0  0
   59.0270   33.0070   46.6380 N   0  0  0  0  0  0  0  0  0  0  0  0
   60.0680   33.9850   46.9920 C   0  0  0  0  0  0  0  0  0  0  0  0
   59.7510   35.3760   46.4240 C   0  0  0  0  0  0  0  0  0  0  0  0
   59.2370   35.2600   44.9830 C   0  0  0  0  0  0  0  0  0  0  0  0
   57.9750   34.3740   44.8710 C   0  0  0  0  0  0  0  0  0  0  0  0
   57.7450   33.4810   46.1000 C   0  0  0  0  0  0  0  0  0  0  0  0
   60.3000   31.1490   47.6540 C   0  0  0  0  0  0  0  0  0  0  0  0
   60.5610   29.7820   47.7920 C   0  0  0  0  0  0  0  0  0  0  0  0
   59.7390   26.5610   45.9490 C   0  0  0  0  0  0  0  0  0  0  0  0
   58.6450   23.4150   45.2530 C   0  0  0  0  0  0  0  0  0  0  0  0
   57.9890   22.4560   44.4760 C   0  0  0  0  0  0  0  0  0  0  0  0
   56.8710   19.8831   43.9337 H   0  0  0  0  0  0  0  0  0  0  0  0
   55.9245   19.7943   42.4095 H   0  0  0  0  0  0  0  0  0  0  0  0
   57.5592   20.5389   42.4095 H   0  0  0  0  0  0  0  0  0  0  0  0
   54.9751   24.0223   44.0947 H   0  0  0  0  0  0  0  0  0  0  0  0
   56.1397   25.7306   45.4817 H   0  0  0  0  0  0  0  0  0  0  0  0
   61.1432   27.2851   47.4851 H   0  0  0  0  0  0  0  0  0  0  0  0
   58.2144   28.5560   45.6272 H   0  0  0  0  0  0  0  0  0  0  0  0
   57.7582   30.9914   45.3712 H   0  0  0  0  0  0  0  0  0  0  0  0
   60.1361   34.0535   48.0878 H   0  0  0  0  0  0  0  0  0  0  0  0
   61.0212   33.6454   46.5605 H   0  0  0  0  0  0  0  0  0  0  0  0
   58.9806   35.8548   47.0463 H   0  0  0  0  0  0  0  0  0  0  0  0
   60.6695   35.9812   46.4279 H   0  0  0  0  0  0  0  0  0  0  0  0
   58.9942   36.2672   44.6135 H   0  0  0  0  0  0  0  0  0  0  0  0
   60.0295   34.7879   44.3838 H   0  0  0  0  0  0  0  0  0  0  0  0
   57.0996   35.0283   44.7468 H   0  0  0  0  0  0  0  0  0  0  0  0
   58.1218   33.7075   44.0083 H   0  0  0  0  0  0  0  0  0  0  0  0
   57.2189   34.0589   46.8741 H   0  0  0  0  0  0  0  0  0  0  0  0
   57.1414   32.6116   45.8004 H   0  0  0  0  0  0  0  0  0  0  0  0
   60.8921   31.8785   48.2260 H   0  0  0  0  0  0  0  0  0  0  0  0
   61.3479   29.4424   48.4816 H   0  0  0  0  0  0  0  0  0  0  0  0
   59.3499   27.2167   45.1561 H   0  0  0  0  0  0  0  0  0  0  0  0
   60.6051   26.0561   45.4963 H   0  0  0  0  0  0  0  0  0  0  0  0
   59.6814   23.2388   45.5768 H   0  0  0  0  0  0  0  0  0  0  0  0
   58.5143   21.5315   44.1942 H   0  0  0  0  0  0  0  0  0  0  0  0
  1  2  1  0
  2  3  1  0
  3  4  2  0
  4  5  1  0
  5  6  2  0
  6  7  1  0
  7  8  2  0
  8  9  1  0
  9 10  1  0
 10 11  1  0
 11 12  2  0
 12 13  1  0
 13 14  2  0
 14 15  1  0
 15 16  1  0
 16 17  1  0
 17 18  1  0
 18 19  1  0
 19 20  1  0
 14 21  1  0
 21 22  2  0
 10 23  1  0
  6 24  1  0
 24 25  2  0
 25  3  1  0
 23  7  1  0
 22 11  1  0
 20 15  1  0
  1 26  1  0
  1 27  1  0
  1 28  1  0
  4 29  1  0
  5 30  1  0
 10 31  1  1
 12 32  1  0
 13 33  1  0
 16 34  1  0
 16 35  1  0
 17 36  1  0
 17 37  1  0
 18 38  1  0
 18 39  1  0
 19 40  1  0
 19 41  1  0
 20 42  1  0
 20 43  1  0
 21 44  1  0
 22 45  1  0
 23 46  1  0
 23 47  1  0
 24 48  1  0
 25 49  1  0
M  END
>  <UniqueID>  (46) 
45

>  <SMILES>  (46) 
COc1ccc(C2=NO[C@H](c3ccc(N4CCCCC4)cc3)C2)cc1

>  <Energy>  (46) 
70.21585894356602

>  <Genealogy>  (46) 
COc1ccc(C2=NO[C@H](c3ccc(N4CCCCC4)cc3)C2)cc1 (chirality)
COc1ccc(C2=NO[C@H](c3ccc(N4CCCCC4)cc3)C2)cc1 (3D coordinates assigned)
COc1ccc(C2=NO[C@H](c3ccc(N4CCCCC4)cc3)C2)cc1 (nonaromatic ring conformer: 70.21585894356602 kcal/mol)

>  <smiles>  (46) 
COc1ccc(C2=NOC(c3ccc(N4CCCCC4)cc3)C2)cc1

>  <score_type>  (46) 
oracle

>  <origin>  (46) 
adg

>  <m_score__min__energy>  (46) 
-8.2100000000000009

>  <m_primary>  (46) 
energy

$$$$
47:0
     RDKit          3D

 34 34  0  0  0  0  0  0  0  0999 V2000
   58.0890   27.7780   43.7810 C   0  0  0  0  0  0  0  0  0  0  0  0
   57.4010   28.5590   44.8960 C   0  0  0  0  0  0  0  0  0  0  0  0
   56.2880   29.4110   44.3440 C   0  0  0  0  0  0  0  0  0  0  0  0
   55.1760   29.3410   44.8440 O   0  0  0  0  0  0  0  0  0  0  0  0
   56.5170   30.3350   43.1760 C   0  0  0  0  0  0  0  0  0  0  0  0
   57.7330   31.2340   43.4280 C   0  0  0  0  0  0  0  0  0  0  0  0
   57.5550   32.1250   44.6780 C   0  0  0  0  0  0  0  0  0  0  0  0
   58.1530   33.5340   44.5090 C   0  0  0  0  0  0  0  0  0  0  0  0
   58.1220   34.3740   45.7970 C   0  0  0  0  0  0  0  0  0  0  0  0
   59.3720   34.1920   46.6220 C   0  0  0  0  0  0  0  0  0  0  0  0
   59.3420   34.3390   48.0170 C   0  0  0  0  0  0  0  0  0  0  0  0
   60.5130   34.1520   48.7560 C   0  0  0  0  0  0  0  0  0  0  0  0
   61.6740   33.8320   48.1260 N   0  0  0  0  0  0  0  0  0  0  0  0
   61.7340   33.6860   46.7750 C   0  0  0  0  0  0  0  0  0  0  0  0
   60.5870   33.8650   45.9990 C   0  0  0  0  0  0  0  0  0  0  0  0
   58.7555   27.0214   44.2206 H   0  0  0  0  0  0  0  0  0  0  0  0
   57.3299   27.2810   43.1591 H   0  0  0  0  0  0  0  0  0  0  0  0
   58.6778   28.4684   43.1591 H   0  0  0  0  0  0  0  0  0  0  0  0
   56.9845   27.8514   45.6280 H   0  0  0  0  0  0  0  0  0  0  0  0
   58.1421   29.2148   45.3764 H   0  0  0  0  0  0  0  0  0  0  0  0
   56.6921   29.7359   42.2703 H   0  0  0  0  0  0  0  0  0  0  0  0
   55.6279   30.9698   43.0470 H   0  0  0  0  0  0  0  0  0  0  0  0
   58.6194   30.5983   43.5701 H   0  0  0  0  0  0  0  0  0  0  0  0
   57.8484   31.8957   42.5569 H   0  0  0  0  0  0  0  0  0  0  0  0
   56.4795   32.2244   44.8862 H   0  0  0  0  0  0  0  0  0  0  0  0
   58.0929   31.6388   45.5052 H   0  0  0  0  0  0  0  0  0  0  0  0
   59.1994   33.4313   44.1858 H   0  0  0  0  0  0  0  0  0  0  0  0
   57.5355   34.0597   43.7658 H   0  0  0  0  0  0  0  0  0  0  0  0
   58.0271   35.4359   45.5260 H   0  0  0  0  0  0  0  0  0  0  0  0
   57.2655   34.0386   46.4003 H   0  0  0  0  0  0  0  0  0  0  0  0
   58.4023   34.5999   48.5258 H   0  0  0  0  0  0  0  0  0  0  0  0
   60.4952   34.2640   49.8501 H   0  0  0  0  0  0  0  0  0  0  0  0
   62.6880   33.4264   46.2928 H   0  0  0  0  0  0  0  0  0  0  0  0
   60.6351   33.7505   44.9060 H   0  0  0  0  0  0  0  0  0  0  0  0
  1  2  1  0
  2  3  1  0
  3  4  2  0
  3  5  1  0
  5  6  1  0
  6  7  1  0
  7  8  1  0
  8  9  1  0
  9 10  1  0
 10 11  2  0
 11 12  1  0
 12 13  2  0
 13 14  1  0
 14 15  2  0
 15 10  1  0
  1 16  1  0
  1 17  1  0
  1 18  1  0
  2 19  1  0
  2 20  1  0
  5 21  1  0
  5 22  1  0
  6 23  1  0
  6 24  1  0
  7 25  1  0
  7 26  1  0
  8 27  1  0
  8 28  1  0
  9 29  1  0
  9 30  1  0
 11 31  1  0
 12 32  1  0
 14 33  1  0
 15 34  1  0
M  END
>  <UniqueID>  (47) 
46

>  <SMILES>  (47) 
CCC(=O)CCCCCc1ccncc1

>  <Energy>  (47) 
22.10390494994468

>  <Genealogy>  (47) 
CCC(=O)CCCCCc1ccncc1 (3D coordinates assigned)
CCC(=O)CCCCCc1ccncc1 (optimized conformer: 22.10390494994468 kcal/mol)

>  <smiles>  (47) 
CCC(=O)CCCCCc1ccncc1

>  <score_type>  (47) 
oracle

>  <origin>  (47) 
adg

>  <m_score__min__energy>  (47) 
-6.1699999999999999

>  <m_primary>  (47) 
energy

$$$$
