0:0
     RDKit          3D

 64 66  0  0  0  0  0  0  0  0999 V2000
   61.1840   30.6360   46.8950 C   0  0  0  0  0  0  0  0  0  0  0  0
   60.3650   29.6850   46.0300 C   0  0  0  0  0  0  0  0  0  0  0  0
   59.0660   29.4010   46.6950 N   0  0  0  0  0  0  0  0  0  0  0  0
   59.2490   28.7010   47.9860 C   0  0  0  0  0  0  0  0  0  0  0  0
   58.9870   29.6400   49.1620 C   0  0  0  0  0  0  0  0  0  0  0  0
   58.1520   28.6390   45.8130 C   0  0  0  0  0  0  0  0  0  0  0  0
   57.7940   29.4430   44.5550 C   0  0  0  0  0  0  0  0  0  0  0  0
   56.8600   30.4620   44.8590 O   0  0  0  0  0  0  0  0  0  0  0  0
   57.2490   31.6880   44.2750 C   0  0  0  0  0  0  0  0  0  0  0  0
   57.7850   32.6090   45.3710 C   0  0  0  0  0  0  0  0  0  0  0  0
   57.7560   31.9550   46.6880 N   0  0  0  0  0  0  0  0  0  0  0  0
   58.5450   32.6450   47.7260 C   0  0  0  0  0  0  0  0  0  0  0  0
   58.6600   34.1680   47.5020 C   0  0  0  0  0  0  0  0  0  0  0  0
   59.4900   34.8090   48.5230 N   0  0  0  0  0  0  0  0  0  0  0  0
   60.5550   34.0800   49.1500 C   0  0  0  0  0  0  0  0  0  0  0  0
   61.7280   33.7800   48.4370 C   0  0  0  0  0  0  0  0  0  0  0  0
   61.8860   34.1930   47.0980 C   0  0  0  0  0  0  0  0  0  0  0  0
   63.0220   33.8410   46.3740 C   0  0  0  0  0  0  0  0  0  0  0  0
   64.0130   33.0670   46.9660 C   0  0  0  0  0  0  0  0  0  0  0  0
   63.8920   32.6710   48.2970 C   0  0  0  0  0  0  0  0  0  0  0  0
   62.7690   33.0540   49.0770 C   0  0  0  0  0  0  0  0  0  0  0  0
   62.6670   32.7270   50.4170 N   0  0  0  0  0  0  0  0  0  0  0  0
   63.8540   32.2310   51.1490 C   0  0  0  0  0  0  0  0  0  0  0  0
   61.4650   32.8950   51.0820 C   0  0  0  0  0  0  0  0  0  0  0  0
   61.2410   32.3480   52.3710 C   0  0  0  0  0  0  0  0  0  0  0  0
   60.0420   32.5680   53.0480 C   0  0  0  0  0  0  0  0  0  0  0  0
   59.0320   33.3200   52.4580 C   0  0  0  0  0  0  0  0  0  0  0  0
   59.2050   33.8350   51.1770 C   0  0  0  0  0  0  0  0  0  0  0  0
   60.4050   33.6140   50.4670 C   0  0  0  0  0  0  0  0  0  0  0  0
   60.9970   30.4188   47.9570 H   0  0  0  0  0  0  0  0  0  0  0  0
   62.2536   30.5017   46.6761 H   0  0  0  0  0  0  0  0  0  0  0  0
   60.8925   31.6738   46.6761 H   0  0  0  0  0  0  0  0  0  0  0  0
   60.1809   30.1483   45.0495 H   0  0  0  0  0  0  0  0  0  0  0  0
   60.9196   28.7448   45.8942 H   0  0  0  0  0  0  0  0  0  0  0  0
   58.5480   27.8549   48.0386 H   0  0  0  0  0  0  0  0  0  0  0  0
   60.2883   28.3459   48.0469 H   0  0  0  0  0  0  0  0  0  0  0  0
   59.1387   29.0963   50.1062 H   0  0  0  0  0  0  0  0  0  0  0  0
   59.6819   30.4913   49.1134 H   0  0  0  0  0  0  0  0  0  0  0  0
   57.9517   30.0085   49.1134 H   0  0  0  0  0  0  0  0  0  0  0  0
   58.6428   27.7017   45.5119 H   0  0  0  0  0  0  0  0  0  0  0  0
   57.2255   28.4313   46.3684 H   0  0  0  0  0  0  0  0  0  0  0  0
   58.7074   29.9008   44.1475 H   0  0  0  0  0  0  0  0  0  0  0  0
   57.3452   28.7619   43.8170 H   0  0  0  0  0  0  0  0  0  0  0  0
   58.0349   31.5079   43.5267 H   0  0  0  0  0  0  0  0  0  0  0  0
   56.3848   32.1576   43.7824 H   0  0  0  0  0  0  0  0  0  0  0  0
   58.8229   32.8833   45.1311 H   0  0  0  0  0  0  0  0  0  0  0  0
   57.1437   33.5016   45.4152 H   0  0  0  0  0  0  0  0  0  0  0  0
   58.1100   30.9750   46.5840 H   0  0  0  0  0  0  0  0  0  0  0  0
   58.0652   32.4718   48.7006 H   0  0  0  0  0  0  0  0  0  0  0  0
   59.5645   32.2341   47.6837 H   0  0  0  0  0  0  0  0  0  0  0  0
   59.1084   34.3492   46.5140 H   0  0  0  0  0  0  0  0  0  0  0  0
   57.6498   34.5988   47.5643 H   0  0  0  0  0  0  0  0  0  0  0  0
   59.1820   35.7010   48.9720 H   0  0  0  0  0  0  0  0  0  0  0  0
   61.1030   34.8001   46.6201 H   0  0  0  0  0  0  0  0  0  0  0  0
   63.1353   34.1759   45.3323 H   0  0  0  0  0  0  0  0  0  0  0  0
   64.8955   32.7660   46.3824 H   0  0  0  0  0  0  0  0  0  0  0  0
   64.6796   32.0515   48.7507 H   0  0  0  0  0  0  0  0  0  0  0  0
   63.6748   32.3059   52.2317 H   0  0  0  0  0  0  0  0  0  0  0  0
   64.0384   31.1805   50.8796 H   0  0  0  0  0  0  0  0  0  0  0  0
   64.7310   32.8380   50.8796 H   0  0  0  0  0  0  0  0  0  0  0  0
   62.0260   31.7401   52.8446 H   0  0  0  0  0  0  0  0  0  0  0  0
   59.8945   32.1451   54.0527 H   0  0  0  0  0  0  0  0  0  0  0  0
   58.0959   33.5078   53.0042 H   0  0  0  0  0  0  0  0  0  0  0  0
   58.3980   34.4207   50.7125 H   0  0  0  0  0  0  0  0  0  0  0  0
  1  2  1  0
  2  3  1  0
  3  4  1  0
  4  5  1  0
  3  6  1  0
  6  7  1  0
  7  8  1  0
  8  9  1  0
  9 10  1  0
 10 11  1  0
 11 12  1  0
 12 13  1  0
 13 14  1  0
 14 15  1  0
 15 16  2  0
 16 17  1  0
 17 18  2  0
 18 19  1  0
 19 20  2  0
 20 21  1  0
 21 22  2  0
 22 23  1  0
 22 24  1  0
 24 25  2  0
 25 26  1  0
 26 27  2  0
 27 28  1  0
 28 29  2  0
 29 15  1  0
 21 16  1  0
 29 24  1  0
  1 30  1  0
  1 31  1  0
  1 32  1  0
  2 33  1  0
  2 34  1  0
  4 35  1  0
  4 36  1  0
  5 37  1  0
  5 38  1  0
  5 39  1  0
  6 40  1  0
  6 41  1  0
  7 42  1  0
  7 43  1  0
  9 44  1  0
  9 45  1  0
 10 46  1  0
 10 47  1  0
 11 48  1  0
 12 49  1  0
 12 50  1  0
 13 51  1  0
 13 52  1  0
 14 53  1  0
 17 54  1  0
 18 55  1  0
 19 56  1  0
 20 57  1  0
 23 58  1  0
 23 59  1  0
 23 60  1  0
 25 61  1  0
 26 62  1  0
 27 63  1  0
 28 64  1  0
M  CHG  1  22   1
M  END
>  <UniqueID>  (1) 
1

>  <SMILES>  (1) 
CCN(CC)CCOCCNCCNc1c2ccccc2[n+](C)c2ccccc12

>  <Energy>  (1) 
91.10731785858374

>  <Genealogy>  (1) 
CCN(CC)CCOCCNCCNc1c2ccccc2[n+](C)c2ccccc12 (3D coordinates assigned)
CCN(CC)CCOCCNCCNc1c2ccccc2[n+](C)c2ccccc12 (optimized conformer: 91.10731785858374 kcal/mol)

>  <smiles>  (1) 
CCN(CC)CCOCCNCCNc1c2ccccc2[n+](C)c2ccccc12

>  <score_type>  (1) 
oracle

>  <origin>  (1) 
adg

>  <m_score__min__energy>  (1) 
-5.4100000000000001

>  <m_primary>  (1) 
energy

$$$$
1:0
     RDKit          3D

 49 52  0  0  0  0  0  0  0  0999 V2000
   55.6450   29.7290   44.0930 C   0  0  0  0  0  0  0  0  0  0  0  0
   56.6360   29.9780   42.9510 C   0  0  0  0  0  0  0  0  0  0  0  0
   57.5240   31.1290   43.2370 N   0  0  0  0  0  0  0  0  0  0  0  0
   57.6800   31.9870   42.0420 C   0  0  0  0  0  0  0  0  0  0  0  0
   57.0280   31.9270   44.3840 C   0  0  0  0  0  0  0  0  0  0  0  0
   58.1870   32.2600   45.3280 C   0  0  0  0  0  0  0  0  0  0  0  0
   59.2390   31.2480   45.2200 N   0  0  0  0  0  0  0  0  0  0  0  0
   59.7830   30.6250   46.3940 C   0  0  0  0  0  0  0  0  0  0  0  0
   59.4710   29.2940   46.7420 C   0  0  0  0  0  0  0  0  0  0  0  0
   58.5750   28.5330   45.9640 C   0  0  0  0  0  0  0  0  0  0  0  0
   58.2950   27.2090   46.2980 C   0  0  0  0  0  0  0  0  0  0  0  0
   58.8990   26.6210   47.4060 C   0  0  0  0  0  0  0  0  0  0  0  0
   59.7700   27.3590   48.2060 C   0  0  0  0  0  0  0  0  0  0  0  0
   60.0550   28.7180   47.9150 C   0  0  0  0  0  0  0  0  0  0  0  0
   60.8790   29.4760   48.7340 N   0  0  0  0  0  0  0  0  0  0  0  0
   61.1480   29.0350   50.1160 C   0  0  0  0  0  0  0  0  0  0  0  0
   61.3180   30.7050   48.2830 C   0  0  0  0  0  0  0  0  0  0  0  0
   60.7210   31.2950   47.1690 C   0  0  0  0  0  0  0  0  0  0  0  0
   61.3500   32.8340   46.8920 S   0  0  0  0  0  0  0  0  0  0  0  0
   62.4330   32.7640   48.1690 C   0  0  0  0  0  0  0  0  0  0  0  0
   63.3720   33.7340   48.5120 C   0  0  0  0  0  0  0  0  0  0  0  0
   64.2790   33.4490   49.5380 C   0  0  0  0  0  0  0  0  0  0  0  0
   64.2590   32.1950   50.1700 C   0  0  0  0  0  0  0  0  0  0  0  0
   63.3110   31.2250   49.8070 C   0  0  0  0  0  0  0  0  0  0  0  0
   62.3460   31.5320   48.8260 C   0  0  0  0  0  0  0  0  0  0  0  0
   56.1575   29.8578   45.0578 H   0  0  0  0  0  0  0  0  0  0  0  0
   54.8142   30.4463   44.0205 H   0  0  0  0  0  0  0  0  0  0  0  0
   55.2520   28.7042   44.0205 H   0  0  0  0  0  0  0  0  0  0  0  0
   57.2528   29.0779   42.8117 H   0  0  0  0  0  0  0  0  0  0  0  0
   56.0608   30.2064   42.0416 H   0  0  0  0  0  0  0  0  0  0  0  0
   57.8685   33.0239   42.3572 H   0  0  0  0  0  0  0  0  0  0  0  0
   58.5274   31.6269   41.4401 H   0  0  0  0  0  0  0  0  0  0  0  0
   56.7601   31.9482   41.4401 H   0  0  0  0  0  0  0  0  0  0  0  0
   56.5807   32.8607   44.0123 H   0  0  0  0  0  0  0  0  0  0  0  0
   56.2721   31.3440   44.9306 H   0  0  0  0  0  0  0  0  0  0  0  0
   58.6011   33.2434   45.0609 H   0  0  0  0  0  0  0  0  0  0  0  0
   57.8120   32.2764   46.3620 H   0  0  0  0  0  0  0  0  0  0  0  0
   59.3530   30.7560   44.3060 H   0  0  0  0  0  0  0  0  0  0  0  0
   58.0928   28.9878   45.0861 H   0  0  0  0  0  0  0  0  0  0  0  0
   57.5935   26.6260   45.6832 H   0  0  0  0  0  0  0  0  0  0  0  0
   58.6880   25.5696   47.6512 H   0  0  0  0  0  0  0  0  0  0  0  0
   60.2434   26.8805   49.0760 H   0  0  0  0  0  0  0  0  0  0  0  0
   60.7090   29.7547   50.8226 H   0  0  0  0  0  0  0  0  0  0  0  0
   60.7010   28.0430   50.2779 H   0  0  0  0  0  0  0  0  0  0  0  0
   62.2345   28.9784   50.2779 H   0  0  0  0  0  0  0  0  0  0  0  0
   63.3996   34.7011   47.9885 H   0  0  0  0  0  0  0  0  0  0  0  0
   65.0100   34.2092   49.8507 H   0  0  0  0  0  0  0  0  0  0  0  0
   64.9935   31.9705   50.9574 H   0  0  0  0  0  0  0  0  0  0  0  0
   63.3211   30.2338   50.2840 H   0  0  0  0  0  0  0  0  0  0  0  0
  1  2  1  0
  2  3  1  0
  3  4  1  0
  3  5  1  0
  5  6  1  0
  6  7  1  0
  7  8  1  0
  8  9  2  0
  9 10  1  0
 10 11  2  0
 11 12  1  0
 12 13  2  0
 13 14  1  0
 14 15  2  0
 15 16  1  0
 15 17  1  0
 17 18  2  0
 18 19  1  0
 19 20  1  0
 20 21  2  0
 21 22  1  0
 22 23  2  0
 23 24  1  0
 24 25  2  0
 18  8  1  0
 25 20  1  0
 14  9  1  0
 25 17  1  0
  1 26  1  0
  1 27  1  0
  1 28  1  0
  2 29  1  0
  2 30  1  0
  4 31  1  0
  4 32  1  0
  4 33  1  0
  5 34  1  0
  5 35  1  0
  6 36  1  0
  6 37  1  0
  7 38  1  0
 10 39  1  0
 11 40  1  0
 12 41  1  0
 13 42  1  0
 16 43  1  0
 16 44  1  0
 16 45  1  0
 21 46  1  0
 22 47  1  0
 23 48  1  0
 24 49  1  0
M  CHG  1  15   1
M  END
>  <UniqueID>  (2) 
2

>  <SMILES>  (2) 
CCN(C)CCNc1c2ccccc2[n+](C)c2c1sc1ccccc12

>  <Energy>  (2) 
111.55667801359857

>  <Genealogy>  (2) 
CCN(C)CCNc1c2ccccc2[n+](C)c2c1sc1ccccc12 (3D coordinates assigned)
CCN(C)CCNc1c2ccccc2[n+](C)c2c1sc1ccccc12 (optimized conformer: 111.55667801359857 kcal/mol)

>  <smiles>  (2) 
CCN(C)CCNc1c2ccccc2[n+](C)c2c1sc1ccccc12

>  <score_type>  (2) 
oracle

>  <origin>  (2) 
adg

>  <m_score__min__energy>  (2) 
-6.1100000000000003

>  <m_primary>  (2) 
energy

$$$$
2:0
     RDKit          3D

 46 48  0  0  0  0  0  0  0  0999 V2000
   57.9086   23.8101   46.6627 H   0  0  0  0  0  0  0  0  0  0  0  0
   57.6570   24.1780   45.6570 C   0  0  0  0  0  0  0  0  0  0  0  0
   57.6960   25.5000   45.4530 C   0  0  0  0  0  0  0  0  0  0  0  0
   58.8630   26.1720   45.0780 O   0  0  0  0  0  0  0  0  0  0  0  0
   58.5480   27.5240   44.9640 C   0  0  0  0  0  0  0  0  0  0  0  0
   59.4110   28.5560   44.6110 C   0  0  0  0  0  0  0  0  0  0  0  0
   60.4660   28.3532   44.3746 H   0  0  0  0  0  0  0  0  0  0  0  0
   58.9000   29.8660   44.5640 C   0  0  0  0  0  0  0  0  0  0  0  0
   59.5605   30.6989   44.2811 H   0  0  0  0  0  0  0  0  0  0  0  0
   57.5370   30.1230   44.8790 C   0  0  0  0  0  0  0  0  0  0  0  0
   56.9930   31.4140   44.8580 O   0  0  0  0  0  0  0  0  0  0  0  0
   57.4780   32.4820   44.0500 C   0  0  0  0  0  0  0  0  0  0  0  0
   56.6397   33.1428   43.7842 H   0  0  0  0  0  0  0  0  0  0  0  0
   57.9342   32.0592   43.1427 H   0  0  0  0  0  0  0  0  0  0  0  0
   58.5450   33.2980   44.8060 C   0  0  0  0  0  0  0  0  0  0  0  0
   58.3435   34.3649   44.6296 H   0  0  0  0  0  0  0  0  0  0  0  0
   59.5162   32.9595   44.4159 H   0  0  0  0  0  0  0  0  0  0  0  0
   58.5970   33.0780   46.2800 N   0  0  0  0  0  0  0  0  0  0  0  0
   57.7010   32.5900   46.5210 H   0  0  0  0  0  0  0  0  0  0  0  0
   59.7160   32.1730   46.6580 C   0  0  0  0  0  0  0  0  0  0  0  0
   60.5671   32.7853   46.9908 H   0  0  0  0  0  0  0  0  0  0  0  0
   59.9704   31.5708   45.7733 H   0  0  0  0  0  0  0  0  0  0  0  0
   59.3370   31.2040   47.7860 C   0  0  0  0  0  0  0  0  0  0  0  0
   59.5241   31.6824   48.7587 H   0  0  0  0  0  0  0  0  0  0  0  0
   58.2712   30.9447   47.7039 H   0  0  0  0  0  0  0  0  0  0  0  0
   59.9441   30.2904   47.7039 H   0  0  0  0  0  0  0  0  0  0  0  0
   58.6380   34.3350   47.0730 C   0  0  0  0  0  0  0  0  0  0  0  0
   57.6369   34.7905   47.0585 H   0  0  0  0  0  0  0  0  0  0  0  0
   58.9556   34.0689   48.0920 H   0  0  0  0  0  0  0  0  0  0  0  0
   59.6460   35.3560   46.5330 C   0  0  0  0  0  0  0  0  0  0  0  0
   60.1437   35.8602   47.3745 H   0  0  0  0  0  0  0  0  0  0  0  0
   60.3979   34.8392   45.9185 H   0  0  0  0  0  0  0  0  0  0  0  0
   59.1196   36.1012   45.9185 H   0  0  0  0  0  0  0  0  0  0  0  0
   56.6920   29.0540   45.2310 C   0  0  0  0  0  0  0  0  0  0  0  0
   55.6349   29.2304   45.4790 H   0  0  0  0  0  0  0  0  0  0  0  0
   57.2250   27.7680   45.2580 C   0  0  0  0  0  0  0  0  0  0  0  0
   56.6220   26.4950   45.5960 C   0  0  0  0  0  0  0  0  0  0  0  0
   55.4510   26.3170   46.0270 O   0  0  0  0  0  0  0  0  0  0  0  0
   57.3020   23.1790   44.6340 C   0  0  0  0  0  0  0  0  0  0  0  0
   56.3670   23.3930   43.6220 C   0  0  0  0  0  0  0  0  0  0  0  0
   55.7370   24.2867   43.5018 H   0  0  0  0  0  0  0  0  0  0  0  0
   56.3720   22.0460   42.6190 S   0  0  0  0  0  0  0  0  0  0  0  0
   57.5680   21.1930   43.4340 C   0  0  0  0  0  0  0  0  0  0  0  0
   57.9520   20.1988   43.1617 H   0  0  0  0  0  0  0  0  0  0  0  0
   57.9870   21.9620   44.5110 C   0  0  0  0  0  0  0  0  0  0  0  0
   58.7817   21.6462   45.2029 H   0  0  0  0  0  0  0  0  0  0  0  0
  1  2  1  0
  2  3  2  0
  3  4  1  0
  4  5  1  0
  5  6  2  0
  6  7  1  0
  6  8  1  0
  8  9  1  0
  8 10  2  0
 10 11  1  0
 11 12  1  0
 12 13  1  0
 12 14  1  0
 12 15  1  0
 15 16  1  0
 15 17  1  0
 15 18  1  0
 18 19  1  0
 18 20  1  0
 20 21  1  0
 20 22  1  0
 20 23  1  0
 23 24  1  0
 23 25  1  0
 23 26  1  0
 18 27  1  0
 27 28  1  0
 27 29  1  0
 27 30  1  0
 30 31  1  0
 30 32  1  0
 30 33  1  0
 10 34  1  0
 34 35  1  0
 34 36  2  0
 36 37  1  0
 37 38  2  0
  2 39  1  0
 39 40  2  0
 40 41  1  0
 40 42  1  0
 42 43  1  0
 43 44  1  0
 43 45  2  0
 45 46  1  0
 37  3  1  0
 45 39  1  0
 36  5  1  0
M  CHG  1  18   1
M  END
>  <UniqueID>  (3) 
3

>  <SMILES>  (3) 
CC[NH+](CC)CCOc1ccc2c(c1)C(=O)/C(=C\c1ccsc1)O2

>  <Energy>  (3) 
112.72915600006904

>  <Genealogy>  (3) 
CC[NH+](CC)CCOc1ccc2c(c1)C(=O)C(=Cc1ccsc1)O2 (protonated)
CC[NH+](CC)CCOc1ccc2c(c1)C(=O)/C(=C\c1ccsc1)O2 (cis-trans isomerization)
CC[NH+](CC)CCOc1ccc2c(c1)C(=O)/C(=C\c1ccsc1)O2 (3D coordinates assigned)
CC[NH+](CC)CCOc1ccc2c(c1)C(=O)/C(=C\c1ccsc1)O2 (nonaromatic ring conformer: 112.72915600006904 kcal/mol)

>  <smiles>  (3) 
CCN(CC)CCOc1ccc2c(c1)C(=O)C(=Cc1ccsc1)O2

>  <score_type>  (3) 
oracle

>  <origin>  (3) 
adg

>  <m_score__min__energy>  (3) 
-5.9299999999999997

>  <m_primary>  (3) 
energy

$$$$
3:0
     RDKit          3D

 49 51  0  0  0  0  0  0  0  0999 V2000
   63.2510   33.8560   49.5710 C   0  0  0  0  0  0  0  0  0  0  0  0
   63.5760   32.3860   49.3420 C   0  0  0  0  0  0  0  0  0  0  0  0
   63.5020   32.0840   47.8920 N   0  0  0  0  0  0  0  0  0  0  0  0
   63.7630   33.2680   47.0410 C   0  0  0  0  0  0  0  0  0  0  0  0
   62.5000   33.8410   46.3770 C   0  0  0  0  0  0  0  0  0  0  0  0
   62.2730   31.3600   47.5030 C   0  0  0  0  0  0  0  0  0  0  0  0
   61.4680   30.9520   48.7390 C   0  0  0  0  0  0  0  0  0  0  0  0
   60.0420   31.1680   48.5060 N   0  0  0  0  0  0  0  0  0  0  0  0
   59.4770   31.0240   47.1920 C   0  0  0  0  0  0  0  0  0  0  0  0
   59.3880   29.7560   46.5920 C   0  0  0  0  0  0  0  0  0  0  0  0
   59.9020   28.6080   47.2340 C   0  0  0  0  0  0  0  0  0  0  0  0
   59.8350   27.3590   46.6210 C   0  0  0  0  0  0  0  0  0  0  0  0
   59.2670   27.2330   45.3600 C   0  0  0  0  0  0  0  0  0  0  0  0
   58.7360   28.3490   44.7140 C   0  0  0  0  0  0  0  0  0  0  0  0
   58.7530   29.6270   45.3290 C   0  0  0  0  0  0  0  0  0  0  0  0
   58.1750   30.7280   44.7270 N   0  0  0  0  0  0  0  0  0  0  0  0
   57.2010   30.5340   43.6300 C   0  0  0  0  0  0  0  0  0  0  0  0
   58.4520   31.9990   45.1980 C   0  0  0  0  0  0  0  0  0  0  0  0
   58.1660   33.1730   44.4410 C   0  0  0  0  0  0  0  0  0  0  0  0
   57.7610   33.1200   43.1470 F   0  0  0  0  0  0  0  0  0  0  0  0
   58.3920   34.4410   44.9800 C   0  0  0  0  0  0  0  0  0  0  0  0
   58.9340   34.5820   46.2490 C   0  0  0  0  0  0  0  0  0  0  0  0
   59.2850   33.4550   46.9850 C   0  0  0  0  0  0  0  0  0  0  0  0
   59.0650   32.1600   46.4720 C   0  0  0  0  0  0  0  0  0  0  0  0
   63.2064   34.0577   50.6514 H   0  0  0  0  0  0  0  0  0  0  0  0
   64.0329   34.4800   49.1135 H   0  0  0  0  0  0  0  0  0  0  0  0
   62.2789   34.0922   49.1135 H   0  0  0  0  0  0  0  0  0  0  0  0
   64.5906   32.1731   49.7097 H   0  0  0  0  0  0  0  0  0  0  0  0
   62.8511   31.7612   49.8844 H   0  0  0  0  0  0  0  0  0  0  0  0
   64.2134   34.0529   47.6663 H   0  0  0  0  0  0  0  0  0  0  0  0
   64.4324   32.9415   46.2315 H   0  0  0  0  0  0  0  0  0  0  0  0
   61.7910   34.1627   47.1541 H   0  0  0  0  0  0  0  0  0  0  0  0
   62.7738   34.7030   45.7510 H   0  0  0  0  0  0  0  0  0  0  0  0
   62.0317   33.0672   45.7510 H   0  0  0  0  0  0  0  0  0  0  0  0
   61.6549   32.0132   46.8696 H   0  0  0  0  0  0  0  0  0  0  0  0
   62.5585   30.4514   46.9526 H   0  0  0  0  0  0  0  0  0  0  0  0
   61.6442   29.8874   48.9523 H   0  0  0  0  0  0  0  0  0  0  0  0
   61.7888   31.5644   49.5946 H   0  0  0  0  0  0  0  0  0  0  0  0
   59.4970   31.6800   49.2360 H   0  0  0  0  0  0  0  0  0  0  0  0
   60.3605   28.7012   48.2295 H   0  0  0  0  0  0  0  0  0  0  0  0
   60.2322   26.4719   47.1360 H   0  0  0  0  0  0  0  0  0  0  0  0
   59.2358   26.2492   44.8689 H   0  0  0  0  0  0  0  0  0  0  0  0
   58.2970   28.2364   43.7117 H   0  0  0  0  0  0  0  0  0  0  0  0
   56.2056   30.3357   44.0542 H   0  0  0  0  0  0  0  0  0  0  0  0
   57.1612   31.4419   43.0102 H   0  0  0  0  0  0  0  0  0  0  0  0
   57.5121   29.6802   43.0102 H   0  0  0  0  0  0  0  0  0  0  0  0
   58.1380   35.3360   44.3931 H   0  0  0  0  0  0  0  0  0  0  0  0
   59.0863   35.5853   46.6735 H   0  0  0  0  0  0  0  0  0  0  0  0
   59.7397   33.5754   47.9793 H   0  0  0  0  0  0  0  0  0  0  0  0
  1  2  1  0
  2  3  1  0
  3  4  1  0
  4  5  1  0
  3  6  1  0
  6  7  1  0
  7  8  1  0
  8  9  1  0
  9 10  2  0
 10 11  1  0
 11 12  2  0
 12 13  1  0
 13 14  2  0
 14 15  1  0
 15 16  2  0
 16 17  1  0
 16 18  1  0
 18 19  2  0
 19 20  1  0
 19 21  1  0
 21 22  2  0
 22 23  1  0
 23 24  2  0
 24  9  1  0
 15 10  1  0
 24 18  1  0
  1 25  1  0
  1 26  1  0
  1 27  1  0
  2 28  1  0
  2 29  1  0
  4 30  1  0
  4 31  1  0
  5 32  1  0
  5 33  1  0
  5 34  1  0
  6 35  1  0
  6 36  1  0
  7 37  1  0
  7 38  1  0
  8 39  1  0
 11 40  1  0
 12 41  1  0
 13 42  1  0
 14 43  1  0
 17 44  1  0
 17 45  1  0
 17 46  1  0
 21 47  1  0
 22 48  1  0
 23 49  1  0
M  CHG  1  16   1
M  END
>  <UniqueID>  (4) 
4

>  <SMILES>  (4) 
CCN(CC)CCNc1c2ccccc2[n+](C)c2c(F)cccc12

>  <Energy>  (4) 
79.03713818045613

>  <Genealogy>  (4) 
CCN(CC)CCNc1c2ccccc2[n+](C)c2c(F)cccc12 (3D coordinates assigned)
CCN(CC)CCNc1c2ccccc2[n+](C)c2c(F)cccc12 (optimized conformer: 79.03713818045613 kcal/mol)

>  <smiles>  (4) 
CCN(CC)CCNc1c2ccccc2[n+](C)c2c(F)cccc12

>  <score_type>  (4) 
oracle

>  <origin>  (4) 
adg

>  <m_score__min__energy>  (4) 
-5.46

>  <m_primary>  (4) 
energy

$$$$
4:0
     RDKit          3D

 52 55  0  0  0  0  0  0  0  0999 V2000
   56.6480   30.1430   42.9210 C   0  0  0  0  0  0  0  0  0  0  0  0
   55.5180   29.9930   43.9300 C   0  0  0  0  0  0  0  0  0  0  0  0
   55.8740   28.9680   44.9190 N   0  0  0  0  0  0  0  0  0  0  0  0
   57.1800   28.3560   44.6360 C   0  0  0  0  0  0  0  0  0  0  0  0
   58.2500   28.8250   45.6390 C   0  0  0  0  0  0  0  0  0  0  0  0
   57.7490   29.8230   46.6060 N   0  0  0  0  0  0  0  0  0  0  0  0
   58.7020   30.9040   46.8370 C   0  0  0  0  0  0  0  0  0  0  0  0
   58.5710   32.1660   46.1850 C   0  0  0  0  0  0  0  0  0  0  0  0
   57.4700   32.4900   45.3470 C   0  0  0  0  0  0  0  0  0  0  0  0
   57.3960   33.7160   44.6910 C   0  0  0  0  0  0  0  0  0  0  0  0
   58.4060   34.6520   44.8430 C   0  0  0  0  0  0  0  0  0  0  0  0
   59.5040   34.3660   45.6460 C   0  0  0  0  0  0  0  0  0  0  0  0
   59.6140   33.1260   46.3240 C   0  0  0  0  0  0  0  0  0  0  0  0
   60.7210   32.8440   47.0910 N   0  0  0  0  0  0  0  0  0  0  0  0
   61.9950   33.5290   46.7730 C   0  0  0  0  0  0  0  0  0  0  0  0
   60.6990   31.7860   47.9740 C   0  0  0  0  0  0  0  0  0  0  0  0
   59.7860   30.7210   47.7450 C   0  0  0  0  0  0  0  0  0  0  0  0
   59.9890   29.4980   48.4260 C   0  0  0  0  0  0  0  0  0  0  0  0
   61.0020   29.3540   49.3660 C   0  0  0  0  0  0  0  0  0  0  0  0
   61.7730   30.4510   49.7420 C   0  0  0  0  0  0  0  0  0  0  0  0
   62.6920   30.3250   50.7960 C   0  0  0  0  0  0  0  0  0  0  0  0
   63.3760   31.4470   51.2770 C   0  0  0  0  0  0  0  0  0  0  0  0
   64.3020   31.3170   52.3590 N   0  0  0  0  0  0  0  0  0  0  0  0
   63.1140   32.7010   50.7210 C   0  0  0  0  0  0  0  0  0  0  0  0
   62.2150   32.8300   49.6600 C   0  0  0  0  0  0  0  0  0  0  0  0
   61.5880   31.6980   49.0940 C   0  0  0  0  0  0  0  0  0  0  0  0
   57.6016   30.2696   43.4545 H   0  0  0  0  0  0  0  0  0  0  0  0
   56.6977   29.2436   42.2897 H   0  0  0  0  0  0  0  0  0  0  0  0
   56.4613   31.0242   42.2897 H   0  0  0  0  0  0  0  0  0  0  0  0
   55.3534   30.9532   44.4409 H   0  0  0  0  0  0  0  0  0  0  0  0
   54.5984   29.6921   43.4067 H   0  0  0  0  0  0  0  0  0  0  0  0
   55.1470   28.2140   44.8700 H   0  0  0  0  0  0  0  0  0  0  0  0
   57.0841   27.2621   44.7006 H   0  0  0  0  0  0  0  0  0  0  0  0
   57.4940   28.6617   43.6270 H   0  0  0  0  0  0  0  0  0  0  0  0
   58.6123   27.9493   46.1975 H   0  0  0  0  0  0  0  0  0  0  0  0
   59.0502   29.3077   45.0588 H   0  0  0  0  0  0  0  0  0  0  0  0
   56.8050   30.1490   46.3210 H   0  0  0  0  0  0  0  0  0  0  0  0
   57.5410   29.3470   47.5120 H   0  0  0  0  0  0  0  0  0  0  0  0
   56.6601   31.7577   45.2139 H   0  0  0  0  0  0  0  0  0  0  0  0
   56.5318   33.9423   44.0492 H   0  0  0  0  0  0  0  0  0  0  0  0
   58.3390   35.6217   44.3281 H   0  0  0  0  0  0  0  0  0  0  0  0
   60.3017   35.1152   45.7573 H   0  0  0  0  0  0  0  0  0  0  0  0
   62.5065   33.8040   47.7072 H   0  0  0  0  0  0  0  0  0  0  0  0
   62.6377   32.8548   46.1878 H   0  0  0  0  0  0  0  0  0  0  0  0
   61.7870   34.4369   46.1878 H   0  0  0  0  0  0  0  0  0  0  0  0
   59.3316   28.6437   48.2070 H   0  0  0  0  0  0  0  0  0  0  0  0
   61.1959   28.3688   49.8153 H   0  0  0  0  0  0  0  0  0  0  0  0
   62.8754   29.3383   51.2464 H   0  0  0  0  0  0  0  0  0  0  0  0
   63.9670   31.2830   53.3480 H   0  0  0  0  0  0  0  0  0  0  0  0
   65.3290   31.2500   52.1790 H   0  0  0  0  0  0  0  0  0  0  0  0
   63.6188   33.5926   51.1212 H   0  0  0  0  0  0  0  0  0  0  0  0
   61.9916   33.8295   49.2586 H   0  0  0  0  0  0  0  0  0  0  0  0
  1  2  1  0
  2  3  1  0
  3  4  1  0
  4  5  1  0
  5  6  1  0
  6  7  1  0
  7  8  2  0
  8  9  1  0
  9 10  2  0
 10 11  1  0
 11 12  2  0
 12 13  1  0
 13 14  2  0
 14 15  1  0
 14 16  1  0
 16 17  2  0
 17 18  1  0
 18 19  2  0
 19 20  1  0
 20 21  2  0
 21 22  1  0
 22 23  1  0
 22 24  2  0
 24 25  1  0
 25 26  2  0
 17  7  1  0
 26 20  1  0
 13  8  1  0
 26 16  1  0
  1 27  1  0
  1 28  1  0
  1 29  1  0
  2 30  1  0
  2 31  1  0
  3 32  1  0
  4 33  1  0
  4 34  1  0
  5 35  1  0
  5 36  1  0
  6 37  1  0
  6 38  1  0
  9 39  1  0
 10 40  1  0
 11 41  1  0
 12 42  1  0
 15 43  1  0
 15 44  1  0
 15 45  1  0
 18 46  1  0
 19 47  1  0
 21 48  1  0
 23 49  1  0
 23 50  1  0
 24 51  1  0
 25 52  1  0
M  CHG  2   6   1  14   1
M  END
>  <UniqueID>  (5) 
5

>  <SMILES>  (5) 
CCNCC[NH2+]c1c2ccccc2[n+](C)c2c1ccc1cc(N)ccc12

>  <Energy>  (5) 
94.0282692780451

>  <Genealogy>  (5) 
CCNCC[NH2+]c1c2ccccc2[n+](C)c2c1ccc1cc(N)ccc12 (protonated)
CCNCC[NH2+]c1c2ccccc2[n+](C)c2c1ccc1cc(N)ccc12 (3D coordinates assigned)
CCNCC[NH2+]c1c2ccccc2[n+](C)c2c1ccc1cc(N)ccc12 (optimized conformer: 94.0282692780451 kcal/mol)

>  <smiles>  (5) 
CCNCCNc1c2ccccc2[n+](C)c2c1ccc1cc(N)ccc12

>  <score_type>  (5) 
oracle

>  <origin>  (5) 
adg

>  <m_score__min__energy>  (5) 
-4.79

>  <m_primary>  (5) 
energy

$$$$
5:0
     RDKit          3D

 64 66  0  0  0  0  0  0  0  0999 V2000
   55.8950   30.0760   43.5840 C   0  0  0  0  0  0  0  0  0  0  0  0
   57.0720   30.7330   44.3050 C   0  0  0  0  0  0  0  0  0  0  0  0
   57.3790   30.0600   45.5930 N   0  0  0  0  0  0  0  0  0  0  0  0
   57.5230   28.5890   45.4040 C   0  0  0  0  0  0  0  0  0  0  0  0
   58.5900   28.1870   44.3730 C   0  0  0  0  0  0  0  0  0  0  0  0
   58.5220   30.6960   46.2870 C   0  0  0  0  0  0  0  0  0  0  0  0
   59.1790   29.7630   47.3120 C   0  0  0  0  0  0  0  0  0  0  0  0
   59.6550   30.5280   48.4010 O   0  0  0  0  0  0  0  0  0  0  0  0
   60.9970   30.1860   48.6930 C   0  0  0  0  0  0  0  0  0  0  0  0
   61.1090   29.7240   50.1480 C   0  0  0  0  0  0  0  0  0  0  0  0
   60.8690   30.8120   51.0270 O   0  0  0  0  0  0  0  0  0  0  0  0
   59.4850   30.9560   51.2850 C   0  0  0  0  0  0  0  0  0  0  0  0
   59.0090   32.3240   50.7950 C   0  0  0  0  0  0  0  0  0  0  0  0
   60.0510   33.3500   50.9770 N   0  0  0  0  0  0  0  0  0  0  0  0
   60.8920   33.4330   49.8000 C   0  0  0  0  0  0  0  0  0  0  0  0
   62.3030   33.2860   49.9070 C   0  0  0  0  0  0  0  0  0  0  0  0
   62.9430   33.1430   51.1650 C   0  0  0  0  0  0  0  0  0  0  0  0
   64.3110   32.9080   51.2560 C   0  0  0  0  0  0  0  0  0  0  0  0
   65.0770   32.8070   50.1030 C   0  0  0  0  0  0  0  0  0  0  0  0
   64.4850   32.9850   48.8540 C   0  0  0  0  0  0  0  0  0  0  0  0
   63.1040   33.2810   48.7310 C   0  0  0  0  0  0  0  0  0  0  0  0
   62.5350   33.5450   47.4960 N   0  0  0  0  0  0  0  0  0  0  0  0
   63.4000   33.8120   46.3270 C   0  0  0  0  0  0  0  0  0  0  0  0
   61.1600   33.6070   47.3600 C   0  0  0  0  0  0  0  0  0  0  0  0
   60.5450   33.6310   46.0860 C   0  0  0  0  0  0  0  0  0  0  0  0
   59.1690   33.7910   45.9420 C   0  0  0  0  0  0  0  0  0  0  0  0
   58.4480   33.8330   44.3460 Cl  0  0  0  0  0  0  0  0  0  0  0  0
   58.3670   33.9160   47.0710 C   0  0  0  0  0  0  0  0  0  0  0  0
   58.9330   33.8440   48.3390 C   0  0  0  0  0  0  0  0  0  0  0  0
   60.3210   33.6260   48.5130 C   0  0  0  0  0  0  0  0  0  0  0  0
   55.1856   29.6800   44.3256 H   0  0  0  0  0  0  0  0  0  0  0  0
   55.3885   30.8219   42.9538 H   0  0  0  0  0  0  0  0  0  0  0  0
   56.2640   29.2534   42.9538 H   0  0  0  0  0  0  0  0  0  0  0  0
   57.9593   30.6818   43.6568 H   0  0  0  0  0  0  0  0  0  0  0  0
   56.7989   31.7761   44.5224 H   0  0  0  0  0  0  0  0  0  0  0  0
   57.7930   28.1417   46.3720 H   0  0  0  0  0  0  0  0  0  0  0  0
   56.5591   28.2241   45.0196 H   0  0  0  0  0  0  0  0  0  0  0  0
   59.4954   27.8459   44.8963 H   0  0  0  0  0  0  0  0  0  0  0  0
   58.2024   27.3733   43.7425 H   0  0  0  0  0  0  0  0  0  0  0  0
   58.8357   29.0542   43.7425 H   0  0  0  0  0  0  0  0  0  0  0  0
   59.2745   30.9828   45.5377 H   0  0  0  0  0  0  0  0  0  0  0  0
   58.1381   31.5722   46.8301 H   0  0  0  0  0  0  0  0  0  0  0  0
   58.4392   29.0325   47.6714 H   0  0  0  0  0  0  0  0  0  0  0  0
   60.0180   29.2299   46.8410 H   0  0  0  0  0  0  0  0  0  0  0  0
   61.3203   29.3734   48.0258 H   0  0  0  0  0  0  0  0  0  0  0  0
   61.6378   31.0671   48.5411 H   0  0  0  0  0  0  0  0  0  0  0  0
   60.3672   28.9339   50.3366 H   0  0  0  0  0  0  0  0  0  0  0  0
   62.1232   29.3365   50.3247 H   0  0  0  0  0  0  0  0  0  0  0  0
   58.9306   30.1656   50.7579 H   0  0  0  0  0  0  0  0  0  0  0  0
   59.3057   30.8741   52.3672 H   0  0  0  0  0  0  0  0  0  0  0  0
   58.7575   32.2543   49.7264 H   0  0  0  0  0  0  0  0  0  0  0  0
   58.1272   32.6163   51.3840 H   0  0  0  0  0  0  0  0  0  0  0  0
   60.6080   33.1560   51.8400 H   0  0  0  0  0  0  0  0  0  0  0  0
   59.6260   34.2790   51.1990 H   0  0  0  0  0  0  0  0  0  0  0  0
   62.3462   33.2194   52.0858 H   0  0  0  0  0  0  0  0  0  0  0  0
   64.7860   32.8021   52.2425 H   0  0  0  0  0  0  0  0  0  0  0  0
   66.1522   32.5863   50.1751 H   0  0  0  0  0  0  0  0  0  0  0  0
   65.1006   32.8942   47.9469 H   0  0  0  0  0  0  0  0  0  0  0  0
   64.3980   34.1201   46.6721 H   0  0  0  0  0  0  0  0  0  0  0  0
   63.4877   32.8991   45.7196 H   0  0  0  0  0  0  0  0  0  0  0  0
   62.9579   34.6155   45.7196 H   0  0  0  0  0  0  0  0  0  0  0  0
   61.1691   33.5206   45.1870 H   0  0  0  0  0  0  0  0  0  0  0  0
   57.2837   34.0720   46.9609 H   0  0  0  0  0  0  0  0  0  0  0  0
   58.2899   33.9586   49.2240 H   0  0  0  0  0  0  0  0  0  0  0  0
  1  2  1  0
  2  3  1  0
  3  4  1  0
  4  5  1  0
  3  6  1  0
  6  7  1  0
  7  8  1  0
  8  9  1  0
  9 10  1  0
 10 11  1  0
 11 12  1  0
 12 13  1  0
 13 14  1  0
 14 15  1  0
 15 16  2  0
 16 17  1  0
 17 18  2  0
 18 19  1  0
 19 20  2  0
 20 21  1  0
 21 22  2  0
 22 23  1  0
 22 24  1  0
 24 25  2  0
 25 26  1  0
 26 27  1  0
 26 28  2  0
 28 29  1  0
 29 30  2  0
 30 15  1  0
 21 16  1  0
 30 24  1  0
  1 31  1  0
  1 32  1  0
  1 33  1  0
  2 34  1  0
  2 35  1  0
  4 36  1  0
  4 37  1  0
  5 38  1  0
  5 39  1  0
  5 40  1  0
  6 41  1  0
  6 42  1  0
  7 43  1  0
  7 44  1  0
  9 45  1  0
  9 46  1  0
 10 47  1  0
 10 48  1  0
 12 49  1  0
 12 50  1  0
 13 51  1  0
 13 52  1  0
 14 53  1  0
 14 54  1  0
 17 55  1  0
 18 56  1  0
 19 57  1  0
 20 58  1  0
 23 59  1  0
 23 60  1  0
 23 61  1  0
 25 62  1  0
 28 63  1  0
 29 64  1  0
M  CHG  2  14   1  22   1
M  END
>  <UniqueID>  (6) 
6

>  <SMILES>  (6) 
CCN(CC)CCOCCOCC[NH2+]c1c2ccccc2[n+](C)c2cc(Cl)ccc12

>  <Energy>  (6) 
94.37598327872385

>  <Genealogy>  (6) 
CCN(CC)CCOCCOCC[NH2+]c1c2ccccc2[n+](C)c2cc(Cl)ccc12 (protonated)
CCN(CC)CCOCCOCC[NH2+]c1c2ccccc2[n+](C)c2cc(Cl)ccc12 (3D coordinates assigned)
CCN(CC)CCOCCOCC[NH2+]c1c2ccccc2[n+](C)c2cc(Cl)ccc12 (optimized conformer: 94.37598327872385 kcal/mol)

>  <smiles>  (6) 
CCN(CC)CCOCCOCCNc1c2ccccc2[n+](C)c2cc(Cl)ccc12

>  <score_type>  (6) 
oracle

>  <origin>  (6) 
adg

>  <m_score__min__energy>  (6) 
-4.2400000000000002

>  <m_primary>  (6) 
energy

$$$$
6:0
     RDKit          3D

 68 71  0  0  0  0  0  0  0  0999 V2000
   63.4280   31.6010   47.8750 C   0  0  0  0  0  0  0  0  0  0  0  0
   62.1280   31.8670   47.1250 C   0  0  0  0  0  0  0  0  0  0  0  0
   61.4930   33.0970   47.6520 N   0  0  0  0  0  0  0  0  0  0  0  0
   60.8070   33.8840   46.5990 C   0  0  0  0  0  0  0  0  0  0  0  0
   59.6170   34.7160   47.1070 C   0  0  0  0  0  0  0  0  0  0  0  0
   62.4020   33.9160   48.4820 C   0  0  0  0  0  0  0  0  0  0  0  0
   61.7650   34.2580   49.8340 C   0  0  0  0  0  0  0  0  0  0  0  0
   61.7860   33.1370   50.7000 O   0  0  0  0  0  0  0  0  0  0  0  0
   61.2860   33.4630   51.9830 C   0  0  0  0  0  0  0  0  0  0  0  0
   60.4820   32.3030   52.5700 C   0  0  0  0  0  0  0  0  0  0  0  0
   59.8090   31.6190   51.5300 O   0  0  0  0  0  0  0  0  0  0  0  0
   58.6000   32.2790   51.2050 C   0  0  0  0  0  0  0  0  0  0  0  0
   58.4030   32.3150   49.6900 C   0  0  0  0  0  0  0  0  0  0  0  0
   59.5800   31.7650   49.0180 N   0  0  0  0  0  0  0  0  0  0  0  0
   59.5110   30.5320   48.2860 C   0  0  0  0  0  0  0  0  0  0  0  0
   58.9050   30.5050   47.0340 C   0  0  0  0  0  0  0  0  0  0  0  0
   58.8370   29.3360   46.3040 C   0  0  0  0  0  0  0  0  0  0  0  0
   59.4340   28.1750   46.7320 N   0  0  0  0  0  0  0  0  0  0  0  0
   59.6110   27.0510   45.8000 C   0  0  0  0  0  0  0  0  0  0  0  0
   59.9100   28.1200   48.0330 C   0  0  0  0  0  0  0  0  0  0  0  0
   60.3070   26.8990   48.6290 C   0  0  0  0  0  0  0  0  0  0  0  0
   60.7970   26.8640   49.9350 C   0  0  0  0  0  0  0  0  0  0  0  0
   60.8910   28.0330   50.6830 C   0  0  0  0  0  0  0  0  0  0  0  0
   60.4780   29.2480   50.1400 C   0  0  0  0  0  0  0  0  0  0  0  0
   59.9800   29.3130   48.8240 C   0  0  0  0  0  0  0  0  0  0  0  0
   58.1010   29.6280   45.0650 C   0  0  0  0  0  0  0  0  0  0  0  0
   57.5790   28.7870   44.0710 C   0  0  0  0  0  0  0  0  0  0  0  0
   56.8400   29.3590   43.0250 C   0  0  0  0  0  0  0  0  0  0  0  0
   56.5990   30.7430   42.9960 C   0  0  0  0  0  0  0  0  0  0  0  0
   57.0700   31.5640   44.0290 C   0  0  0  0  0  0  0  0  0  0  0  0
   57.8110   30.9830   45.0590 C   0  0  0  0  0  0  0  0  0  0  0  0
   58.2980   31.6650   46.2970 C   0  0  0  0  0  0  0  0  0  0  0  0
   63.2408   31.6393   48.9583 H   0  0  0  0  0  0  0  0  0  0  0  0
   63.8107   30.6059   47.6040 H   0  0  0  0  0  0  0  0  0  0  0  0
   64.1707   32.3658   47.6040 H   0  0  0  0  0  0  0  0  0  0  0  0
   62.3431   31.9961   46.0540 H   0  0  0  0  0  0  0  0  0  0  0  0
   61.4456   31.0155   47.2635 H   0  0  0  0  0  0  0  0  0  0  0  0
   61.5398   34.5696   46.1485 H   0  0  0  0  0  0  0  0  0  0  0  0
   60.4008   33.1597   45.8776 H   0  0  0  0  0  0  0  0  0  0  0  0
   59.6140   34.7181   48.2070 H   0  0  0  0  0  0  0  0  0  0  0  0
   59.7077   35.7485   46.7386 H   0  0  0  0  0  0  0  0  0  0  0  0
   58.6784   34.2764   46.7386 H   0  0  0  0  0  0  0  0  0  0  0  0
   63.3319   33.3547   48.6557 H   0  0  0  0  0  0  0  0  0  0  0  0
   62.6084   34.8552   47.9478 H   0  0  0  0  0  0  0  0  0  0  0  0
   62.3259   35.0825   50.2983 H   0  0  0  0  0  0  0  0  0  0  0  0
   60.7187   34.5527   49.6654 H   0  0  0  0  0  0  0  0  0  0  0  0
   62.1301   33.6896   52.6509 H   0  0  0  0  0  0  0  0  0  0  0  0
   60.6232   34.3358   51.8888 H   0  0  0  0  0  0  0  0  0  0  0  0
   61.1628   31.6088   53.0844 H   0  0  0  0  0  0  0  0  0  0  0  0
   59.7453   32.6944   53.2870 H   0  0  0  0  0  0  0  0  0  0  0  0
   57.7585   31.7422   51.6672 H   0  0  0  0  0  0  0  0  0  0  0  0
   58.6440   33.3109   51.5836 H   0  0  0  0  0  0  0  0  0  0  0  0
   57.5190   31.7170   49.4235 H   0  0  0  0  0  0  0  0  0  0  0  0
   58.2593   33.3575   49.3698 H   0  0  0  0  0  0  0  0  0  0  0  0
   60.5160   32.0780   49.3620 H   0  0  0  0  0  0  0  0  0  0  0  0
   59.7574   26.1216   46.3700 H   0  0  0  0  0  0  0  0  0  0  0  0
   58.7168   26.9557   45.1665 H   0  0  0  0  0  0  0  0  0  0  0  0
   60.4912   27.2351   45.1665 H   0  0  0  0  0  0  0  0  0  0  0  0
   60.2281   25.9644   48.0544 H   0  0  0  0  0  0  0  0  0  0  0  0
   61.1108   25.9062   50.3757 H   0  0  0  0  0  0  0  0  0  0  0  0
   61.2927   27.9982   51.7065 H   0  0  0  0  0  0  0  0  0  0  0  0
   60.5415   30.1648   50.7446 H   0  0  0  0  0  0  0  0  0  0  0  0
   57.7459   27.7005   44.1111 H   0  0  0  0  0  0  0  0  0  0  0  0
   56.4462   28.7193   42.2214 H   0  0  0  0  0  0  0  0  0  0  0  0
   56.0381   31.1838   42.1587 H   0  0  0  0  0  0  0  0  0  0  0  0
   56.8601   32.6438   44.0282 H   0  0  0  0  0  0  0  0  0  0  0  0
   59.0480   32.4360   46.0666 H   0  0  0  0  0  0  0  0  0  0  0  0
   57.5201   32.2048   46.8568 H   0  0  0  0  0  0  0  0  0  0  0  0
  1  2  1  0
  2  3  1  0
  3  4  1  0
  4  5  1  0
  3  6  1  0
  6  7  1  0
  7  8  1  0
  8  9  1  0
  9 10  1  0
 10 11  1  0
 11 12  1  0
 12 13  1  0
 13 14  1  0
 14 15  1  0
 15 16  2  0
 16 17  1  0
 17 18  2  0
 18 19  1  0
 18 20  1  0
 20 21  2  0
 21 22  1  0
 22 23  2  0
 23 24  1  0
 24 25  2  0
 17 26  1  0
 26 27  2  0
 27 28  1  0
 28 29  2  0
 29 30  1  0
 30 31  2  0
 31 32  1  0
 25 15  1  0
 31 26  1  0
 32 16  1  0
 25 20  1  0
  1 33  1  0
  1 34  1  0
  1 35  1  0
  2 36  1  0
  2 37  1  0
  4 38  1  0
  4 39  1  0
  5 40  1  0
  5 41  1  0
  5 42  1  0
  6 43  1  0
  6 44  1  0
  7 45  1  0
  7 46  1  0
  9 47  1  0
  9 48  1  0
 10 49  1  0
 10 50  1  0
 12 51  1  0
 12 52  1  0
 13 53  1  0
 13 54  1  0
 14 55  1  0
 19 56  1  0
 19 57  1  0
 19 58  1  0
 21 59  1  0
 22 60  1  0
 23 61  1  0
 24 62  1  0
 27 63  1  0
 28 64  1  0
 29 65  1  0
 30 66  1  0
 32 67  1  0
 32 68  1  0
M  CHG  1  18   1
M  END
>  <UniqueID>  (7) 
7

>  <SMILES>  (7) 
CCN(CC)CCOCCOCCNc1c2c([n+](C)c3ccccc13)-c1ccccc1C2

>  <Energy>  (7) 
114.20615126340886

>  <Genealogy>  (7) 
CCN(CC)CCOCCOCCNc1c2c([n+](C)c3ccccc13)-c1ccccc1C2 (3D coordinates assigned)
CCN(CC)CCOCCOCCNc1c2c([n+](C)c3ccccc13)-c1ccccc1C2 (nonaromatic ring conformer: 114.20615126340886 kcal/mol)

>  <smiles>  (7) 
CCN(CC)CCOCCOCCNc1c2c([n+](C)c3ccccc13)-c1ccccc1C2

>  <score_type>  (7) 
oracle

>  <origin>  (7) 
adg

>  <m_score__min__energy>  (7) 
-6.71

>  <m_primary>  (7) 
energy

$$$$
7:0
     RDKit          3D

 35 36  0  0  0  0  0  0  0  0999 V2000
   56.0130   30.0920   42.9920 C   0  0  0  0  0  0  0  0  0  0  0  0
   56.5300   30.1210   44.4000 C   0  0  0  0  0  0  0  0  0  0  0  0
   56.0880   29.2620   45.2120 O   0  0  0  0  0  0  0  0  0  0  0  0
   57.4970   31.1030   44.8400 N   0  0  0  0  0  0  0  0  0  0  0  0
   58.1450   30.9330   46.1510 C   0  0  0  0  0  0  0  0  0  0  0  0
   58.5410   32.2870   46.7420 C   0  0  0  0  0  0  0  0  0  0  0  0
   59.3280   33.0530   45.7610 N   0  0  0  0  0  0  0  0  0  0  0  0
   59.9280   34.2740   46.3420 C   0  0  0  0  0  0  0  0  0  0  0  0
   60.5580   34.0570   47.6960 C   0  0  0  0  0  0  0  0  0  0  0  0
   59.8770   34.0490   48.8570 N   0  0  0  0  0  0  0  0  0  0  0  0
   60.7300   33.8240   49.8430 N   0  0  0  0  0  0  0  0  0  0  0  0
   60.3730   33.8230   51.2560 C   0  0  0  0  0  0  0  0  0  0  0  0
   61.9740   33.7090   49.3410 C   0  0  0  0  0  0  0  0  0  0  0  0
   61.9020   33.8440   47.9680 C   0  0  0  0  0  0  0  0  0  0  0  0
   63.3680   33.8040   46.7450 Br  0  0  0  0  0  0  0  0  0  0  0  0
   58.5220   33.3330   44.5600 C   0  0  0  0  0  0  0  0  0  0  0  0
   58.1300   32.0220   43.8780 C   0  0  0  0  0  0  0  0  0  0  0  0
   54.9148   30.0304   43.0058 H   0  0  0  0  0  0  0  0  0  0  0  0
   56.3223   31.0089   42.4689 H   0  0  0  0  0  0  0  0  0  0  0  0
   56.4229   29.2154   42.4689 H   0  0  0  0  0  0  0  0  0  0  0  0
   57.4459   30.4312   46.8362 H   0  0  0  0  0  0  0  0  0  0  0  0
   59.0536   30.3272   46.0188 H   0  0  0  0  0  0  0  0  0  0  0  0
   57.6329   32.8512   47.0011 H   0  0  0  0  0  0  0  0  0  0  0  0
   59.1485   32.1237   47.6444 H   0  0  0  0  0  0  0  0  0  0  0  0
   60.7033   34.6411   45.6534 H   0  0  0  0  0  0  0  0  0  0  0  0
   59.1115   34.9980   46.4804 H   0  0  0  0  0  0  0  0  0  0  0  0
   58.8500   34.2060   48.9780 H   0  0  0  0  0  0  0  0  0  0  0  0
   61.2887   33.8256   51.8655 H   0  0  0  0  0  0  0  0  0  0  0  0
   59.7779   34.7195   51.4845 H   0  0  0  0  0  0  0  0  0  0  0  0
   59.7830   32.9232   51.4845 H   0  0  0  0  0  0  0  0  0  0  0  0
   62.8907   33.5370   49.9242 H   0  0  0  0  0  0  0  0  0  0  0  0
   57.6124   33.8790   44.8506 H   0  0  0  0  0  0  0  0  0  0  0  0
   59.1141   33.9416   43.8607 H   0  0  0  0  0  0  0  0  0  0  0  0
   57.4220   32.2362   43.0639 H   0  0  0  0  0  0  0  0  0  0  0  0
   59.0378   31.5458   43.4791 H   0  0  0  0  0  0  0  0  0  0  0  0
  1  2  1  0
  2  3  2  0
  2  4  1  0
  4  5  1  0
  5  6  1  0
  6  7  1  0
  7  8  1  0
  8  9  1  0
  9 10  2  0
 10 11  1  0
 11 12  1  0
 11 13  1  0
 13 14  2  0
 14 15  1  0
  7 16  1  0
 16 17  1  0
 17  4  1  0
 14  9  1  0
  1 18  1  0
  1 19  1  0
  1 20  1  0
  5 21  1  0
  5 22  1  0
  6 23  1  0
  6 24  1  0
  8 25  1  0
  8 26  1  0
 10 27  1  0
 12 28  1  0
 12 29  1  0
 12 30  1  0
 13 31  1  0
 16 32  1  0
 16 33  1  0
 17 34  1  0
 17 35  1  0
M  CHG  1  10   1
M  END
>  <UniqueID>  (8) 
8

>  <SMILES>  (8) 
CC(=O)N1CCN(Cc2[nH+]n(C)cc2Br)CC1

>  <Energy>  (8) 
64.35130804569216

>  <Genealogy>  (8) 
CC(=O)N1CCN(Cc2[nH+]n(C)cc2Br)CC1 (protonated)
CC(=O)N1CCN(Cc2[nH+]n(C)cc2Br)CC1 (3D coordinates assigned)
CC(=O)N1CCN(Cc2[nH+]n(C)cc2Br)CC1 (nonaromatic ring conformer: 64.35130804569216 kcal/mol)

>  <smiles>  (8) 
CC(=O)N1CCN(Cc2nn(C)cc2Br)CC1

>  <score_type>  (8) 
oracle

>  <origin>  (8) 
adg

>  <m_score__min__energy>  (8) 
-5.21

>  <m_primary>  (8) 
energy

$$$$
8:0
     RDKit          3D

 44 46  0  0  0  0  0  0  0  0999 V2000
   64.5270   31.6120   50.1940 C   0  0  0  0  0  0  0  0  0  0  0  0
   63.6930   32.1820   49.0930 C   0  0  0  0  0  0  0  0  0  0  0  0
   62.4510   31.6220   48.7730 C   0  0  0  0  0  0  0  0  0  0  0  0
   61.7010   32.1720   47.7810 N   0  0  0  0  0  0  0  0  0  0  0  0
   62.1380   33.2600   47.0820 C   0  0  0  0  0  0  0  0  0  0  0  0
   61.2870   33.8580   45.9820 C   0  0  0  0  0  0  0  0  0  0  0  0
   59.8210   33.7540   46.2140 N   0  0  0  0  0  0  0  0  0  0  0  0
   59.3460   34.5490   47.3680 C   0  0  0  0  0  0  0  0  0  0  0  0
   59.3160   33.7220   48.6290 C   0  0  0  0  0  0  0  0  0  0  0  0
   58.5630   32.5360   48.6820 C   0  0  0  0  0  0  0  0  0  0  0  0
   58.5150   31.7820   49.8580 C   0  0  0  0  0  0  0  0  0  0  0  0
   59.2060   32.2120   50.9940 C   0  0  0  0  0  0  0  0  0  0  0  0
   59.9390   33.4010   50.9580 C   0  0  0  0  0  0  0  0  0  0  0  0
   59.9890   34.1580   49.7840 C   0  0  0  0  0  0  0  0  0  0  0  0
   59.0100   34.0220   45.0060 C   0  0  0  0  0  0  0  0  0  0  0  0
   58.2430   32.7960   44.5750 C   0  0  0  0  0  0  0  0  0  0  0  0
   58.0970   32.4870   43.2140 C   0  0  0  0  0  0  0  0  0  0  0  0
   57.4090   31.3350   42.8290 C   0  0  0  0  0  0  0  0  0  0  0  0
   56.8870   30.4910   43.8100 C   0  0  0  0  0  0  0  0  0  0  0  0
   57.0550   30.7890   45.1260 N   0  0  0  0  0  0  0  0  0  0  0  0
   57.7200   31.9070   45.5260 C   0  0  0  0  0  0  0  0  0  0  0  0
   63.3680   33.8370   47.4290 C   0  0  0  0  0  0  0  0  0  0  0  0
   64.1130   33.2860   48.4210 N   0  0  0  0  0  0  0  0  0  0  0  0
   64.1008   31.9033   51.1653 H   0  0  0  0  0  0  0  0  0  0  0  0
   64.5403   30.5150   50.1136 H   0  0  0  0  0  0  0  0  0  0  0  0
   65.5539   31.9980   50.1136 H   0  0  0  0  0  0  0  0  0  0  0  0
   62.0835   30.7418   49.3209 H   0  0  0  0  0  0  0  0  0  0  0  0
   60.7690   31.7520   47.5680 H   0  0  0  0  0  0  0  0  0  0  0  0
   61.5457   34.9230   45.8873 H   0  0  0  0  0  0  0  0  0  0  0  0
   61.5023   33.2818   45.0700 H   0  0  0  0  0  0  0  0  0  0  0  0
   60.0219   35.4041   47.5164 H   0  0  0  0  0  0  0  0  0  0  0  0
   58.3233   34.8933   47.1546 H   0  0  0  0  0  0  0  0  0  0  0  0
   58.0087   32.1996   47.7934 H   0  0  0  0  0  0  0  0  0  0  0  0
   57.9327   30.8493   49.8893 H   0  0  0  0  0  0  0  0  0  0  0  0
   59.1728   31.6142   51.9168 H   0  0  0  0  0  0  0  0  0  0  0  0
   60.4774   33.7418   51.8547 H   0  0  0  0  0  0  0  0  0  0  0  0
   60.5576   35.0994   49.7636 H   0  0  0  0  0  0  0  0  0  0  0  0
   58.2977   34.8311   45.2253 H   0  0  0  0  0  0  0  0  0  0  0  0
   59.6890   34.3104   44.1900 H   0  0  0  0  0  0  0  0  0  0  0  0
   58.5249   33.1529   42.4501 H   0  0  0  0  0  0  0  0  0  0  0  0
   57.2797   31.0950   41.7633 H   0  0  0  0  0  0  0  0  0  0  0  0
   56.3387   29.5831   43.5182 H   0  0  0  0  0  0  0  0  0  0  0  0
   57.8479   32.1143   46.5987 H   0  0  0  0  0  0  0  0  0  0  0  0
   63.7275   34.7319   46.8999 H   0  0  0  0  0  0  0  0  0  0  0  0
  1  2  1  0
  2  3  2  0
  3  4  1  0
  4  5  2  0
  5  6  1  0
  6  7  1  0
  7  8  1  0
  8  9  1  0
  9 10  2  0
 10 11  1  0
 11 12  2  0
 12 13  1  0
 13 14  2  0
  7 15  1  0
 15 16  1  0
 16 17  2  0
 17 18  1  0
 18 19  2  0
 19 20  1  0
 20 21  2  0
  5 22  1  0
 22 23  2  0
 23  2  1  0
 14  9  1  0
 21 16  1  0
  1 24  1  0
  1 25  1  0
  1 26  1  0
  3 27  1  0
  4 28  1  0
  6 29  1  0
  6 30  1  0
  8 31  1  0
  8 32  1  0
 10 33  1  0
 11 34  1  0
 12 35  1  0
 13 36  1  0
 14 37  1  0
 15 38  1  0
 15 39  1  0
 17 40  1  0
 18 41  1  0
 19 42  1  0
 21 43  1  0
 22 44  1  0
M  CHG  1   4   1
M  END
>  <UniqueID>  (9) 
9

>  <SMILES>  (9) 
Cc1c[nH+]c(CN(Cc2ccccc2)Cc2cccnc2)cn1

>  <Energy>  (9) 
51.266939281117175

>  <Genealogy>  (9) 
Cc1c[nH+]c(CN(Cc2ccccc2)Cc2cccnc2)cn1 (protonated)
Cc1c[nH+]c(CN(Cc2ccccc2)Cc2cccnc2)cn1 (3D coordinates assigned)
Cc1c[nH+]c(CN(Cc2ccccc2)Cc2cccnc2)cn1 (optimized conformer: 51.266939281117175 kcal/mol)

>  <smiles>  (9) 
Cc1cnc(CN(Cc2ccccc2)Cc2cccnc2)cn1

>  <score_type>  (9) 
oracle

>  <origin>  (9) 
adg

>  <m_score__min__energy>  (9) 
-5.8600000000000003

>  <m_primary>  (9) 
energy

$$$$
9:0
     RDKit          3D

 66 68  0  0  0  0  0  0  0  0999 V2000
   63.2970   33.8700   46.5630 C   0  0  0  0  0  0  0  0  0  0  0  0
   63.1150   32.4580   47.1170 C   0  0  0  0  0  0  0  0  0  0  0  0
   62.2810   32.4940   48.3400 N   0  0  0  0  0  0  0  0  0  0  0  0
   62.6470   33.6270   49.2210 C   0  0  0  0  0  0  0  0  0  0  0  0
   61.3970   34.2100   49.8870 C   0  0  0  0  0  0  0  0  0  0  0  0
   62.3210   31.2010   49.0620 C   0  0  0  0  0  0  0  0  0  0  0  0
   60.9790   30.4740   48.8770 C   0  0  0  0  0  0  0  0  0  0  0  0
   59.8470   31.4040   48.7100 N   0  0  0  0  0  0  0  0  0  0  0  0
   59.2550   31.3120   47.3790 C   0  0  0  0  0  0  0  0  0  0  0  0
   59.1680   32.4690   46.5530 C   0  0  0  0  0  0  0  0  0  0  0  0
   59.7220   33.7150   46.9490 C   0  0  0  0  0  0  0  0  0  0  0  0
   59.6650   34.8280   46.1150 C   0  0  0  0  0  0  0  0  0  0  0  0
   59.0670   34.7330   44.8680 C   0  0  0  0  0  0  0  0  0  0  0  0
   58.4990   33.5330   44.4560 C   0  0  0  0  0  0  0  0  0  0  0  0
   58.5080   32.3880   45.2940 C   0  0  0  0  0  0  0  0  0  0  0  0
   57.9010   31.2150   44.9010 N   0  0  0  0  0  0  0  0  0  0  0  0
   56.9350   31.2230   43.7790 C   0  0  0  0  0  0  0  0  0  0  0  0
   58.1610   30.0420   45.5770 C   0  0  0  0  0  0  0  0  0  0  0  0
   57.8370   28.7860   45.0030 C   0  0  0  0  0  0  0  0  0  0  0  0
   58.0390   27.5870   45.6920 C   0  0  0  0  0  0  0  0  0  0  0  0
   57.7200   26.3400   45.0410 N   0  0  0  0  0  0  0  0  0  0  0  0
   58.4560   25.0910   45.2480 C   0  0  0  0  0  0  0  0  0  0  0  0
   57.6220   23.8850   44.7610 C   0  0  0  0  0  0  0  0  0  0  0  0
   56.3230   24.2500   44.1440 N   0  0  0  0  0  0  0  0  0  0  0  0
   55.2160   24.3240   45.1120 C   0  0  0  0  0  0  0  0  0  0  0  0
   55.9790   23.3850   43.0050 C   0  0  0  0  0  0  0  0  0  0  0  0
   58.5380   27.6340   46.9950 C   0  0  0  0  0  0  0  0  0  0  0  0
   58.8870   28.8510   47.5760 C   0  0  0  0  0  0  0  0  0  0  0  0
   58.7760   30.0710   46.8590 C   0  0  0  0  0  0  0  0  0  0  0  0
   63.3888   34.5819   47.3965 H   0  0  0  0  0  0  0  0  0  0  0  0
   64.2074   33.9076   45.9468 H   0  0  0  0  0  0  0  0  0  0  0  0
   62.4259   34.1372   45.9468 H   0  0  0  0  0  0  0  0  0  0  0  0
   62.6226   31.8307   46.3593 H   0  0  0  0  0  0  0  0  0  0  0  0
   64.1013   32.0396   47.3664 H   0  0  0  0  0  0  0  0  0  0  0  0
   63.3401   33.2727   49.9982 H   0  0  0  0  0  0  0  0  0  0  0  0
   63.1270   34.4098   48.6153 H   0  0  0  0  0  0  0  0  0  0  0  0
   61.5064   34.1590   50.9804 H   0  0  0  0  0  0  0  0  0  0  0  0
   61.2730   35.2588   49.5795 H   0  0  0  0  0  0  0  0  0  0  0  0
   60.5138   33.6309   49.5795 H   0  0  0  0  0  0  0  0  0  0  0  0
   63.1341   30.5798   48.6584 H   0  0  0  0  0  0  0  0  0  0  0  0
   62.4975   31.3821   50.1325 H   0  0  0  0  0  0  0  0  0  0  0  0
   61.0448   29.8355   47.9837 H   0  0  0  0  0  0  0  0  0  0  0  0
   60.7927   29.8833   49.7860 H   0  0  0  0  0  0  0  0  0  0  0  0
   59.1210   31.1980   49.4310 H   0  0  0  0  0  0  0  0  0  0  0  0
   60.1430   32.3620   48.9780 H   0  0  0  0  0  0  0  0  0  0  0  0
   60.2053   33.8023   47.9333 H   0  0  0  0  0  0  0  0  0  0  0  0
   60.0953   35.7847   46.4461 H   0  0  0  0  0  0  0  0  0  0  0  0
   59.0419   35.6090   44.2031 H   0  0  0  0  0  0  0  0  0  0  0  0
   58.0336   33.4699   43.4613 H   0  0  0  0  0  0  0  0  0  0  0  0
   55.9099   31.2315   44.1778 H   0  0  0  0  0  0  0  0  0  0  0  0
   57.0962   32.1198   43.1628 H   0  0  0  0  0  0  0  0  0  0  0  0
   57.0813   30.3236   43.1628 H   0  0  0  0  0  0  0  0  0  0  0  0
   57.4151   28.7548   43.9876 H   0  0  0  0  0  0  0  0  0  0  0  0
   57.0110   26.3470   44.2720 H   0  0  0  0  0  0  0  0  0  0  0  0
   59.4001   25.1294   44.6848 H   0  0  0  0  0  0  0  0  0  0  0  0
   58.6602   24.9720   46.3223 H   0  0  0  0  0  0  0  0  0  0  0  0
   58.2149   23.3347   44.0156 H   0  0  0  0  0  0  0  0  0  0  0  0
   57.3894   23.2828   45.6516 H   0  0  0  0  0  0  0  0  0  0  0  0
   55.6206   24.2970   46.1345 H   0  0  0  0  0  0  0  0  0  0  0  0
   54.6601   25.2613   44.9623 H   0  0  0  0  0  0  0  0  0  0  0  0
   54.5403   23.4690   44.9623 H   0  0  0  0  0  0  0  0  0  0  0  0
   55.5965   22.4232   43.3774 H   0  0  0  0  0  0  0  0  0  0  0  0
   55.2071   23.8744   42.3929 H   0  0  0  0  0  0  0  0  0  0  0  0
   56.8762   23.2106   42.3929 H   0  0  0  0  0  0  0  0  0  0  0  0
   58.6566   26.7023   47.5676 H   0  0  0  0  0  0  0  0  0  0  0  0
   59.2563   28.8669   48.6120 H   0  0  0  0  0  0  0  0  0  0  0  0
  1  2  1  0
  2  3  1  0
  3  4  1  0
  4  5  1  0
  3  6  1  0
  6  7  1  0
  7  8  1  0
  8  9  1  0
  9 10  2  0
 10 11  1  0
 11 12  2  0
 12 13  1  0
 13 14  2  0
 14 15  1  0
 15 16  2  0
 16 17  1  0
 16 18  1  0
 18 19  2  0
 19 20  1  0
 20 21  1  0
 21 22  1  0
 22 23  1  0
 23 24  1  0
 24 25  1  0
 24 26  1  0
 20 27  2  0
 27 28  1  0
 28 29  2  0
 29  9  1  0
 15 10  1  0
 29 18  1  0
  1 30  1  0
  1 31  1  0
  1 32  1  0
  2 33  1  0
  2 34  1  0
  4 35  1  0
  4 36  1  0
  5 37  1  0
  5 38  1  0
  5 39  1  0
  6 40  1  0
  6 41  1  0
  7 42  1  0
  7 43  1  0
  8 44  1  0
  8 45  1  0
 11 46  1  0
 12 47  1  0
 13 48  1  0
 14 49  1  0
 17 50  1  0
 17 51  1  0
 17 52  1  0
 19 53  1  0
 21 54  1  0
 22 55  1  0
 22 56  1  0
 23 57  1  0
 23 58  1  0
 25 59  1  0
 25 60  1  0
 25 61  1  0
 26 62  1  0
 26 63  1  0
 26 64  1  0
 27 65  1  0
 28 66  1  0
M  CHG  2   8   1  16   1
M  END
>  <UniqueID>  (10) 
10

>  <SMILES>  (10) 
CCN(CC)CC[NH2+]c1c2ccccc2[n+](C)c2cc(NCCN(C)C)ccc12

>  <Energy>  (10) 
97.67366977855485

>  <Genealogy>  (10) 
CCN(CC)CC[NH2+]c1c2ccccc2[n+](C)c2cc(NCCN(C)C)ccc12 (protonated)
CCN(CC)CC[NH2+]c1c2ccccc2[n+](C)c2cc(NCCN(C)C)ccc12 (3D coordinates assigned)
CCN(CC)CC[NH2+]c1c2ccccc2[n+](C)c2cc(NCCN(C)C)ccc12 (optimized conformer: 97.67366977855485 kcal/mol)

>  <smiles>  (10) 
CCN(CC)CCNc1c2ccccc2[n+](C)c2cc(NCCN(C)C)ccc12

>  <score_type>  (10) 
oracle

>  <origin>  (10) 
adg

>  <m_score__min__energy>  (10) 
-4.5

>  <m_primary>  (10) 
energy

$$$$
10:0
     RDKit          3D

 46 48  0  0  0  0  0  0  0  0999 V2000
   59.4910   34.9680   45.5710 C   0  0  0  0  0  0  0  0  0  0  0  0
   58.5060   34.5820   46.6690 C   0  0  0  0  0  0  0  0  0  0  0  0
   57.6150   33.5880   46.2000 O   0  0  0  0  0  0  0  0  0  0  0  0
   57.7690   33.4000   44.8090 C   0  0  0  0  0  0  0  0  0  0  0  0
   57.4120   31.9590   44.4490 C   0  0  0  0  0  0  0  0  0  0  0  0
   57.3970   31.1430   45.6070 O   0  0  0  0  0  0  0  0  0  0  0  0
   58.4830   30.2340   45.6110 C   0  0  0  0  0  0  0  0  0  0  0  0
   59.3200   30.4120   46.8800 C   0  0  0  0  0  0  0  0  0  0  0  0
   58.9740   31.6600   47.5590 N   0  0  0  0  0  0  0  0  0  0  0  0
   59.7970   32.2190   48.5960 C   0  0  0  0  0  0  0  0  0  0  0  0
   61.0840   32.7260   48.3220 C   0  0  0  0  0  0  0  0  0  0  0  0
   61.6120   32.6810   47.0160 C   0  0  0  0  0  0  0  0  0  0  0  0
   62.8690   33.2120   46.7400 C   0  0  0  0  0  0  0  0  0  0  0  0
   63.6170   33.8030   47.7520 C   0  0  0  0  0  0  0  0  0  0  0  0
   63.1270   33.8450   49.0580 C   0  0  0  0  0  0  0  0  0  0  0  0
   61.8660   33.2850   49.3840 C   0  0  0  0  0  0  0  0  0  0  0  0
   61.3840   33.2840   50.6860 N   0  0  0  0  0  0  0  0  0  0  0  0
   62.2330   33.7280   51.8100 C   0  0  0  0  0  0  0  0  0  0  0  0
   60.0920   32.8690   50.9170 C   0  0  0  0  0  0  0  0  0  0  0  0
   59.3880   32.9550   52.1370 C   0  0  0  0  0  0  0  0  0  0  0  0
   58.0850   32.4720   52.0570 C   0  0  0  0  0  0  0  0  0  0  0  0
   57.7920   31.9560   50.4820 S   0  0  0  0  0  0  0  0  0  0  0  0
   59.3230   32.3310   49.8970 C   0  0  0  0  0  0  0  0  0  0  0  0
   60.4232   35.3333   46.0265 H   0  0  0  0  0  0  0  0  0  0  0  0
   59.7079   34.0883   44.9472 H   0  0  0  0  0  0  0  0  0  0  0  0
   59.0525   35.7608   44.9472 H   0  0  0  0  0  0  0  0  0  0  0  0
   59.0616   34.1924   47.5348 H   0  0  0  0  0  0  0  0  0  0  0  0
   57.9289   35.4715   46.9618 H   0  0  0  0  0  0  0  0  0  0  0  0
   57.1024   34.0889   44.2696 H   0  0  0  0  0  0  0  0  0  0  0  0
   58.8121   33.6022   44.5242 H   0  0  0  0  0  0  0  0  0  0  0  0
   56.4169   31.9397   43.9806 H   0  0  0  0  0  0  0  0  0  0  0  0
   58.1692   31.5704   43.7521 H   0  0  0  0  0  0  0  0  0  0  0  0
   58.0953   29.2053   45.5733 H   0  0  0  0  0  0  0  0  0  0  0  0
   59.1170   30.4301   44.7337 H   0  0  0  0  0  0  0  0  0  0  0  0
   59.1301   29.5674   47.5587 H   0  0  0  0  0  0  0  0  0  0  0  0
   60.3831   30.4460   46.5995 H   0  0  0  0  0  0  0  0  0  0  0  0
   58.1770   32.2250   47.1900 H   0  0  0  0  0  0  0  0  0  0  0  0
   61.0251   32.2218   46.2068 H   0  0  0  0  0  0  0  0  0  0  0  0
   63.2718   33.1638   45.7175 H   0  0  0  0  0  0  0  0  0  0  0  0
   64.6001   34.2397   47.5221 H   0  0  0  0  0  0  0  0  0  0  0  0
   63.7286   34.3201   49.8469 H   0  0  0  0  0  0  0  0  0  0  0  0
   61.7444   33.4725   52.7618 H   0  0  0  0  0  0  0  0  0  0  0  0
   63.2097   33.2252   51.7527 H   0  0  0  0  0  0  0  0  0  0  0  0
   62.3773   34.8170   51.7527 H   0  0  0  0  0  0  0  0  0  0  0  0
   59.8256   33.3633   53.0599 H   0  0  0  0  0  0  0  0  0  0  0  0
   57.3646   32.4338   52.8874 H   0  0  0  0  0  0  0  0  0  0  0  0
  1  2  1  0
  2  3  1  0
  3  4  1  0
  4  5  1  0
  5  6  1  0
  6  7  1  0
  7  8  1  0
  8  9  1  0
  9 10  1  0
 10 11  2  0
 11 12  1  0
 12 13  2  0
 13 14  1  0
 14 15  2  0
 15 16  1  0
 16 17  2  0
 17 18  1  0
 17 19  1  0
 19 20  1  0
 20 21  2  0
 21 22  1  0
 22 23  1  0
 23 10  1  0
 16 11  1  0
 23 19  2  0
  1 24  1  0
  1 25  1  0
  1 26  1  0
  2 27  1  0
  2 28  1  0
  4 29  1  0
  4 30  1  0
  5 31  1  0
  5 32  1  0
  7 33  1  0
  7 34  1  0
  8 35  1  0
  8 36  1  0
  9 37  1  0
 12 38  1  0
 13 39  1  0
 14 40  1  0
 15 41  1  0
 18 42  1  0
 18 43  1  0
 18 44  1  0
 20 45  1  0
 21 46  1  0
M  CHG  1  17   1
M  END
>  <UniqueID>  (11) 
11

>  <SMILES>  (11) 
CCOCCOCCNc1c2ccccc2[n+](C)c2ccsc12

>  <Energy>  (11) 
93.44159764702418

>  <Genealogy>  (11) 
CCOCCOCCNc1c2ccccc2[n+](C)c2ccsc12 (3D coordinates assigned)
CCOCCOCCNc1c2ccccc2[n+](C)c2ccsc12 (optimized conformer: 93.44159764702418 kcal/mol)

>  <smiles>  (11) 
CCOCCOCCNc1c2ccccc2[n+](C)c2ccsc12

>  <score_type>  (11) 
oracle

>  <origin>  (11) 
adg

>  <m_score__min__energy>  (11) 
-6.0300000000000002

>  <m_primary>  (11) 
energy

$$$$
11:0
     RDKit          3D

 51 54  0  0  0  0  0  0  0  0999 V2000
   63.7070   32.7180   46.7620 C   0  0  0  0  0  0  0  0  0  0  0  0
   63.3960   33.6350   47.8080 O   0  0  0  0  0  0  0  0  0  0  0  0
   63.7900   33.4800   49.1470 C   0  0  0  0  0  0  0  0  0  0  0  0
   65.0980   33.0830   49.4930 C   0  0  0  0  0  0  0  0  0  0  0  0
   65.4670   32.9640   50.8340 C   0  0  0  0  0  0  0  0  0  0  0  0
   64.5430   33.2320   51.8410 C   0  0  0  0  0  0  0  0  0  0  0  0
   63.2400   33.6110   51.5140 C   0  0  0  0  0  0  0  0  0  0  0  0
   62.8480   33.7350   50.1670 C   0  0  0  0  0  0  0  0  0  0  0  0
   61.4970   34.0970   49.8140 N   0  0  0  0  0  0  0  0  0  0  0  0
   60.5200   33.1760   49.2370 C   0  0  0  0  0  0  0  0  0  0  0  0
   60.0600   33.6590   47.8900 C   0  0  0  0  0  0  0  0  0  0  0  0
   60.8510   34.3190   47.0250 N   0  0  0  0  0  0  0  0  0  0  0  0
   60.1590   34.5420   45.9200 N   0  0  0  0  0  0  0  0  0  0  0  0
   58.9360   34.0110   46.1260 C   0  0  0  0  0  0  0  0  0  0  0  0
   57.8620   33.9980   45.0700 C   0  0  0  0  0  0  0  0  0  0  0  0
   58.1670   32.9740   43.9690 C   0  0  0  0  0  0  0  0  0  0  0  0
   57.9140   31.5670   44.4250 C   0  0  0  0  0  0  0  0  0  0  0  0
   58.9480   30.7870   44.8370 N   0  0  0  0  0  0  0  0  0  0  0  0
   58.7390   29.5170   45.2720 C   0  0  0  0  0  0  0  0  0  0  0  0
   59.8200   28.7310   45.6850 C   0  0  0  0  0  0  0  0  0  0  0  0
   59.6040   27.4290   46.1470 C   0  0  0  0  0  0  0  0  0  0  0  0
   58.3060   26.9100   46.2010 C   0  0  0  0  0  0  0  0  0  0  0  0
   57.2200   27.6880   45.7860 C   0  0  0  0  0  0  0  0  0  0  0  0
   57.4300   28.9940   45.3130 C   0  0  0  0  0  0  0  0  0  0  0  0
   56.3780   29.8180   44.8760 C   0  0  0  0  0  0  0  0  0  0  0  0
   55.1870   29.4070   44.8830 O   0  0  0  0  0  0  0  0  0  0  0  0
   56.6450   31.0770   44.4440 N   0  0  0  0  0  0  0  0  0  0  0  0
   58.8320   33.4650   47.3620 N   0  0  0  0  0  0  0  0  0  0  0  0
   57.7120   32.7170   47.9340 C   0  0  0  0  0  0  0  0  0  0  0  0
   64.0314   31.7614   47.1975 H   0  0  0  0  0  0  0  0  0  0  0  0
   62.8142   32.5540   46.1407 H   0  0  0  0  0  0  0  0  0  0  0  0
   64.5153   33.1309   46.1407 H   0  0  0  0  0  0  0  0  0  0  0  0
   65.8313   32.8660   48.7023 H   0  0  0  0  0  0  0  0  0  0  0  0
   66.4905   32.6577   51.0961 H   0  0  0  0  0  0  0  0  0  0  0  0
   64.8407   33.1448   52.8964 H   0  0  0  0  0  0  0  0  0  0  0  0
   62.5137   33.8144   52.3147 H   0  0  0  0  0  0  0  0  0  0  0  0
   61.1710   35.0710   50.0080 H   0  0  0  0  0  0  0  0  0  0  0  0
   60.9819   32.1839   49.1257 H   0  0  0  0  0  0  0  0  0  0  0  0
   59.6496   33.1208   49.9073 H   0  0  0  0  0  0  0  0  0  0  0  0
   61.8470   34.5980   47.1680 H   0  0  0  0  0  0  0  0  0  0  0  0
   56.9014   33.7412   45.5405 H   0  0  0  0  0  0  0  0  0  0  0  0
   57.8188   34.9962   44.6099 H   0  0  0  0  0  0  0  0  0  0  0  0
   57.5274   33.1861   43.0996 H   0  0  0  0  0  0  0  0  0  0  0  0
   59.2324   33.0609   43.7095 H   0  0  0  0  0  0  0  0  0  0  0  0
   60.8413   29.1377   45.6463 H   0  0  0  0  0  0  0  0  0  0  0  0
   60.4560   26.8119   46.4685 H   0  0  0  0  0  0  0  0  0  0  0  0
   58.1389   25.8876   46.5707 H   0  0  0  0  0  0  0  0  0  0  0  0
   56.2007   27.2768   45.8301 H   0  0  0  0  0  0  0  0  0  0  0  0
   57.7685   32.7547   49.0319 H   0  0  0  0  0  0  0  0  0  0  0  0
   56.7640   33.1639   47.6000 H   0  0  0  0  0  0  0  0  0  0  0  0
   57.7616   31.6701   47.6000 H   0  0  0  0  0  0  0  0  0  0  0  0
  1  2  1  0
  2  3  1  0
  3  4  2  0
  4  5  1  0
  5  6  2  0
  6  7  1  0
  7  8  2  0
  8  9  1  0
  9 10  1  0
 10 11  1  0
 11 12  2  0
 12 13  1  0
 13 14  2  0
 14 15  1  0
 15 16  1  0
 16 17  1  0
 17 18  2  0
 18 19  1  0
 19 20  2  0
 20 21  1  0
 21 22  2  0
 22 23  1  0
 23 24  2  0
 24 25  1  0
 25 26  2  0
 25 27  1  0
 14 28  1  0
 28 29  1  0
  8  3  1  0
 28 11  1  0
 27 17  1  0
 24 19  1  0
  1 30  1  0
  1 31  1  0
  1 32  1  0
  4 33  1  0
  5 34  1  0
  6 35  1  0
  7 36  1  0
  9 37  1  0
 10 38  1  0
 10 39  1  0
 12 40  1  0
 15 41  1  0
 15 42  1  0
 16 43  1  0
 16 44  1  0
 20 45  1  0
 21 46  1  0
 22 47  1  0
 23 48  1  0
 29 49  1  0
 29 50  1  0
 29 51  1  0
M  CHG  2  12   1  27  -1
M  END
>  <UniqueID>  (12) 
12

>  <SMILES>  (12) 
COc1ccccc1NCc1[nH+]nc(CCc2nc3ccccc3c(=O)[n-]2)n1C

>  <Energy>  (12) 
83.79277906618867

>  <Genealogy>  (12) 
COc1ccccc1NCc1[nH+]nc(CCc2nc3ccccc3c(=O)[n-]2)n1C (protonated)
COc1ccccc1NCc1[nH+]nc(CCc2nc3ccccc3c(=O)[n-]2)n1C (3D coordinates assigned)
COc1ccccc1NCc1[nH+]nc(CCc2nc3ccccc3c(=O)[n-]2)n1C (optimized conformer: 83.79277906618867 kcal/mol)

>  <smiles>  (12) 
COc1ccccc1NCc1nnc(CCc2nc3ccccc3c(=O)[nH]2)n1C

>  <score_type>  (12) 
oracle

>  <origin>  (12) 
adg

>  <m_score__min__energy>  (12) 
-8.7400000000000002

>  <m_primary>  (12) 
energy

$$$$
12:0
     RDKit          3D

 49 52  0  0  0  0  0  0  0  0999 V2000
   57.6660   34.5630   44.8780 C   0  0  0  0  0  0  0  0  0  0  0  0
   57.0610   33.3820   45.6270 C   0  0  0  0  0  0  0  0  0  0  0  0
   58.0740   32.3450   45.8450 N   0  0  0  0  0  0  0  0  0  0  0  0
   59.2510   32.4390   46.5270 C   0  0  0  0  0  0  0  0  0  0  0  0
   59.7250   33.6500   47.2850 C   0  0  0  0  0  0  0  0  0  0  0  0
   61.0410   33.3890   47.9010 N   0  0  0  0  0  0  0  0  0  0  0  0
   61.2340   34.2060   49.1260 C   0  0  0  0  0  0  0  0  0  0  0  0
   62.7120   34.3000   49.5590 C   0  0  0  0  0  0  0  0  0  0  0  0
   63.5060   33.2300   48.9440 N   0  0  0  0  0  0  0  0  0  0  0  0
   64.4110   32.4320   49.7330 C   0  0  0  0  0  0  0  0  0  0  0  0
   65.7810   32.7470   49.7790 C   0  0  0  0  0  0  0  0  0  0  0  0
   66.6560   31.9810   50.5550 C   0  0  0  0  0  0  0  0  0  0  0  0
   66.1740   30.8990   51.2950 C   0  0  0  0  0  0  0  0  0  0  0  0
   67.0240   30.1580   52.0470 F   0  0  0  0  0  0  0  0  0  0  0  0
   64.8120   30.5830   51.2630 C   0  0  0  0  0  0  0  0  0  0  0  0
   63.9340   31.3470   50.4880 C   0  0  0  0  0  0  0  0  0  0  0  0
   63.4300   33.0400   47.4890 C   0  0  0  0  0  0  0  0  0  0  0  0
   62.1270   33.6260   46.9330 C   0  0  0  0  0  0  0  0  0  0  0  0
   59.9770   31.2940   46.4690 N   0  0  0  0  0  0  0  0  0  0  0  0
   59.2400   30.4680   45.7110 C   0  0  0  0  0  0  0  0  0  0  0  0
   59.5390   29.1660   45.3160 C   0  0  0  0  0  0  0  0  0  0  0  0
   58.6120   28.5050   44.4910 C   0  0  0  0  0  0  0  0  0  0  0  0
   57.4260   29.1570   44.0810 C   0  0  0  0  0  0  0  0  0  0  0  0
   57.1560   30.4740   44.4960 C   0  0  0  0  0  0  0  0  0  0  0  0
   58.0920   31.1010   45.3230 C   0  0  0  0  0  0  0  0  0  0  0  0
   58.0440   35.3009   45.6009 H   0  0  0  0  0  0  0  0  0  0  0  0
   58.4947   34.2108   44.2462 H   0  0  0  0  0  0  0  0  0  0  0  0
   56.8960   35.0298   44.2462 H   0  0  0  0  0  0  0  0  0  0  0  0
   56.6789   33.7262   46.5994 H   0  0  0  0  0  0  0  0  0  0  0  0
   56.2406   32.9605   45.0276 H   0  0  0  0  0  0  0  0  0  0  0  0
   59.8112   34.5003   46.5924 H   0  0  0  0  0  0  0  0  0  0  0  0
   58.9991   33.8810   48.0785 H   0  0  0  0  0  0  0  0  0  0  0  0
   60.8597   35.2221   48.9326 H   0  0  0  0  0  0  0  0  0  0  0  0
   60.6822   33.7143   49.9407 H   0  0  0  0  0  0  0  0  0  0  0  0
   63.1174   35.2740   49.2476 H   0  0  0  0  0  0  0  0  0  0  0  0
   62.7657   34.1938   50.6525 H   0  0  0  0  0  0  0  0  0  0  0  0
   66.1660   33.6004   49.2015 H   0  0  0  0  0  0  0  0  0  0  0  0
   67.7268   32.2311   50.5828 H   0  0  0  0  0  0  0  0  0  0  0  0
   64.4312   29.7328   51.8479 H   0  0  0  0  0  0  0  0  0  0  0  0
   62.8629   31.0971   50.4692 H   0  0  0  0  0  0  0  0  0  0  0  0
   64.2843   33.5444   47.0139 H   0  0  0  0  0  0  0  0  0  0  0  0
   63.4539   31.9620   47.2715 H   0  0  0  0  0  0  0  0  0  0  0  0
   62.2482   34.7075   46.7726 H   0  0  0  0  0  0  0  0  0  0  0  0
   61.8822   33.1435   45.9753 H   0  0  0  0  0  0  0  0  0  0  0  0
   60.9060   31.1030   46.9060 H   0  0  0  0  0  0  0  0  0  0  0  0
   60.4677   28.6724   45.6382 H   0  0  0  0  0  0  0  0  0  0  0  0
   58.8106   27.4742   44.1624 H   0  0  0  0  0  0  0  0  0  0  0  0
   56.7095   28.6308   43.4331 H   0  0  0  0  0  0  0  0  0  0  0  0
   56.2389   30.9928   44.1801 H   0  0  0  0  0  0  0  0  0  0  0  0
  1  2  1  0
  2  3  1  0
  3  4  1  0
  4  5  1  0
  5  6  1  0
  6  7  1  0
  7  8  1  0
  8  9  1  0
  9 10  1  0
 10 11  2  0
 11 12  1  0
 12 13  2  0
 13 14  1  0
 13 15  1  0
 15 16  2  0
  9 17  1  0
 17 18  1  0
  4 19  2  0
 19 20  1  0
 20 21  2  0
 21 22  1  0
 22 23  2  0
 23 24  1  0
 24 25  2  0
 25  3  1  0
 18  6  1  0
 25 20  1  0
 16 10  1  0
  1 26  1  0
  1 27  1  0
  1 28  1  0
  2 29  1  0
  2 30  1  0
  5 31  1  0
  5 32  1  0
  7 33  1  0
  7 34  1  0
  8 35  1  0
  8 36  1  0
 11 37  1  0
 12 38  1  0
 15 39  1  0
 16 40  1  0
 17 41  1  0
 17 42  1  0
 18 43  1  0
 18 44  1  0
 19 45  1  0
 21 46  1  0
 22 47  1  0
 23 48  1  0
 24 49  1  0
M  CHG  1  19   1
M  END
>  <UniqueID>  (13) 
13

>  <SMILES>  (13) 
CCn1c(CN2CCN(c3ccc(F)cc3)CC2)[nH+]c2ccccc21

>  <Energy>  (13) 
97.21426601126248

>  <Genealogy>  (13) 
CCn1c(CN2CCN(c3ccc(F)cc3)CC2)[nH+]c2ccccc21 (protonated)
CCn1c(CN2CCN(c3ccc(F)cc3)CC2)[nH+]c2ccccc21 (3D coordinates assigned)
CCn1c(CN2CCN(c3ccc(F)cc3)CC2)[nH+]c2ccccc21 (nonaromatic ring conformer: 97.21426601126248 kcal/mol)

>  <smiles>  (13) 
CCn1c(CN2CCN(c3ccc(F)cc3)CC2)nc2ccccc21

>  <score_type>  (13) 
oracle

>  <origin>  (13) 
adg

>  <m_score__min__energy>  (13) 
-5.9400000000000004

>  <m_primary>  (13) 
energy

$$$$
13:0
     RDKit          3D

 53 57  0  0  0  0  0  0  0  0999 V2000
   58.1550   26.4710   44.7330 C   0  0  0  0  0  0  0  0  0  0  0  0
   58.5600   26.2260   46.1250 N   0  0  0  0  0  0  0  0  0  0  0  0
   57.7670   25.1420   46.7290 C   0  0  0  0  0  0  0  0  0  0  0  0
   60.0190   26.0300   46.2790 C   0  0  0  0  0  0  0  0  0  0  0  0
   60.6930   27.0090   47.2770 C   0  0  0  0  0  0  0  0  0  0  0  0
   59.7200   27.5730   48.2350 N   0  0  0  0  0  0  0  0  0  0  0  0
   60.0150   28.9640   48.5670 C   0  0  0  0  0  0  0  0  0  0  0  0
   59.6710   30.0260   47.6800 C   0  0  0  0  0  0  0  0  0  0  0  0
   60.3550   31.2640   47.7960 C   0  0  0  0  0  0  0  0  0  0  0  0
   61.3970   31.3830   48.6930 N   0  0  0  0  0  0  0  0  0  0  0  0
   62.4530   32.3960   48.4950 C   0  0  0  0  0  0  0  0  0  0  0  0
   61.4850   30.5110   49.7540 C   0  0  0  0  0  0  0  0  0  0  0  0
   62.2740   30.8160   50.8910 C   0  0  0  0  0  0  0  0  0  0  0  0
   62.3510   29.9360   51.9670 C   0  0  0  0  0  0  0  0  0  0  0  0
   61.6270   28.7500   51.9500 C   0  0  0  0  0  0  0  0  0  0  0  0
   60.8370   28.4290   50.8490 C   0  0  0  0  0  0  0  0  0  0  0  0
   60.7720   29.2850   49.7240 C   0  0  0  0  0  0  0  0  0  0  0  0
   59.9370   32.4090   46.9140 C   0  0  0  0  0  0  0  0  0  0  0  0
   60.3670   33.6760   47.1730 N   0  0  0  0  0  0  0  0  0  0  0  0
   60.0630   34.7360   46.3810 C   0  0  0  0  0  0  0  0  0  0  0  0
   59.2800   34.5560   45.2430 C   0  0  0  0  0  0  0  0  0  0  0  0
   58.7660   33.2880   44.9620 C   0  0  0  0  0  0  0  0  0  0  0  0
   57.9340   33.0860   43.8510 C   0  0  0  0  0  0  0  0  0  0  0  0
   57.3780   31.8280   43.6130 C   0  0  0  0  0  0  0  0  0  0  0  0
   57.6250   30.7730   44.4930 C   0  0  0  0  0  0  0  0  0  0  0  0
   58.4590   30.9570   45.6110 C   0  0  0  0  0  0  0  0  0  0  0  0
   59.0660   32.2050   45.8240 C   0  0  0  0  0  0  0  0  0  0  0  0
   58.6340   29.8860   46.6120 C   0  0  0  0  0  0  0  0  0  0  0  0
   57.8560   28.8960   46.5800 O   0  0  0  0  0  0  0  0  0  0  0  0
   57.2139   27.0403   44.7197 H   0  0  0  0  0  0  0  0  0  0  0  0
   58.9389   27.0465   44.2189 H   0  0  0  0  0  0  0  0  0  0  0  0
   58.0092   25.5095   44.2189 H   0  0  0  0  0  0  0  0  0  0  0  0
   57.8207   25.2154   47.8252 H   0  0  0  0  0  0  0  0  0  0  0  0
   56.7191   25.2307   46.4065 H   0  0  0  0  0  0  0  0  0  0  0  0
   58.1689   24.1702   46.4065 H   0  0  0  0  0  0  0  0  0  0  0  0
   60.1932   25.0032   46.6329 H   0  0  0  0  0  0  0  0  0  0  0  0
   60.4687   26.2248   45.2942 H   0  0  0  0  0  0  0  0  0  0  0  0
   61.4704   26.4679   47.8363 H   0  0  0  0  0  0  0  0  0  0  0  0
   61.1260   27.8399   46.7007 H   0  0  0  0  0  0  0  0  0  0  0  0
   59.7440   26.9440   49.0620 H   0  0  0  0  0  0  0  0  0  0  0  0
   58.7490   27.4840   47.8670 H   0  0  0  0  0  0  0  0  0  0  0  0
   62.8156   32.7438   49.4736 H   0  0  0  0  0  0  0  0  0  0  0  0
   63.2868   31.9513   47.9320 H   0  0  0  0  0  0  0  0  0  0  0  0
   62.0433   33.2475   47.9320 H   0  0  0  0  0  0  0  0  0  0  0  0
   62.8340   31.7622   50.9238 H   0  0  0  0  0  0  0  0  0  0  0  0
   62.9857   30.1798   52.8317 H   0  0  0  0  0  0  0  0  0  0  0  0
   61.6780   28.0634   52.8079 H   0  0  0  0  0  0  0  0  0  0  0  0
   60.2546   27.4958   50.8539 H   0  0  0  0  0  0  0  0  0  0  0  0
   60.4356   35.7385   46.6383 H   0  0  0  0  0  0  0  0  0  0  0  0
   59.0689   35.4028   44.5733 H   0  0  0  0  0  0  0  0  0  0  0  0
   57.7194   33.9199   43.1665 H   0  0  0  0  0  0  0  0  0  0  0  0
   56.7432   31.6675   42.7291 H   0  0  0  0  0  0  0  0  0  0  0  0
   57.1643   29.7908   44.3111 H   0  0  0  0  0  0  0  0  0  0  0  0
  1  2  1  0
  2  3  1  0
  2  4  1  0
  4  5  1  0
  5  6  1  0
  6  7  1  0
  7  8  2  0
  8  9  1  0
  9 10  2  0
 10 11  1  0
 10 12  1  0
 12 13  2  0
 13 14  1  0
 14 15  2  0
 15 16  1  0
 16 17  2  0
  9 18  1  0
 18 19  2  0
 19 20  1  0
 20 21  2  0
 21 22  1  0
 22 23  2  0
 23 24  1  0
 24 25  2  0
 25 26  1  0
 26 27  2  0
 26 28  1  0
 28 29  2  0
 17  7  1  0
 27 18  1  0
 28  8  1  0
 17 12  1  0
 27 22  1  0
  1 30  1  0
  1 31  1  0
  1 32  1  0
  3 33  1  0
  3 34  1  0
  3 35  1  0
  4 36  1  0
  4 37  1  0
  5 38  1  0
  5 39  1  0
  6 40  1  0
  6 41  1  0
 11 42  1  0
 11 43  1  0
 11 44  1  0
 13 45  1  0
 14 46  1  0
 15 47  1  0
 16 48  1  0
 20 49  1  0
 21 50  1  0
 23 51  1  0
 24 52  1  0
 25 53  1  0
M  CHG  2   6   1  10   1
M  END
>  <UniqueID>  (14) 
14

>  <SMILES>  (14) 
CN(C)CC[NH2+]c1c2c([n+](C)c3ccccc13)-c1nccc3cccc(c13)C2=O

>  <Energy>  (14) 
105.3279832372649

>  <Genealogy>  (14) 
CN(C)CC[NH2+]c1c2c([n+](C)c3ccccc13)-c1nccc3cccc(c13)C2=O (protonated)
CN(C)CC[NH2+]c1c2c([n+](C)c3ccccc13)-c1nccc3cccc(c13)C2=O (3D coordinates assigned)
CN(C)CC[NH2+]c1c2c([n+](C)c3ccccc13)-c1nccc3cccc(c13)C2=O (nonaromatic ring conformer: 105.3279832372649 kcal/mol)

>  <smiles>  (14) 
CN(C)CCNc1c2c([n+](C)c3ccccc13)-c1nccc3cccc(c13)C2=O

>  <score_type>  (14) 
oracle

>  <origin>  (14) 
adg

>  <m_score__min__energy>  (14) 
-4.6299999999999999

>  <m_primary>  (14) 
energy

$$$$
14:0
     RDKit          3D

 41 43  0  0  0  0  0  0  0  0999 V2000
   63.7240   31.9790   47.4280 C   0  0  0  0  0  0  0  0  0  0  0  0
   62.8910   32.7580   48.4460 C   0  0  0  0  0  0  0  0  0  0  0  0
   61.4750   32.8530   48.0220 N   0  0  0  0  0  0  0  0  0  0  0  0
   60.4710   32.1740   48.6820 C   0  0  0  0  0  0  0  0  0  0  0  0
   60.7980   31.0850   50.0910 S   0  0  0  0  0  0  0  0  0  0  0  0
   60.7360   29.5190   49.1490 C   0  0  0  0  0  0  0  0  0  0  0  0
   59.5240   29.4470   48.2640 C   0  0  0  0  0  0  0  0  0  0  0  0
   58.3830   29.5390   48.7900 O   0  0  0  0  0  0  0  0  0  0  0  0
   59.6140   29.2280   46.8490 N   0  0  0  0  0  0  0  0  0  0  0  0
   58.6520   29.6270   45.8670 C   0  0  0  0  0  0  0  0  0  0  0  0
   59.0410   30.5170   44.8570 C   0  0  0  0  0  0  0  0  0  0  0  0
   58.1250   30.9130   43.8770 C   0  0  0  0  0  0  0  0  0  0  0  0
   56.8240   30.4030   43.8880 C   0  0  0  0  0  0  0  0  0  0  0  0
   56.4390   29.4890   44.8730 C   0  0  0  0  0  0  0  0  0  0  0  0
   55.1850   28.9750   44.8680 F   0  0  0  0  0  0  0  0  0  0  0  0
   57.3540   29.0930   45.8560 C   0  0  0  0  0  0  0  0  0  0  0  0
   59.1860   32.2440   48.2360 N   0  0  0  0  0  0  0  0  0  0  0  0
   58.8440   33.0050   47.1660 C   0  0  0  0  0  0  0  0  0  0  0  0
   57.5070   33.0770   46.7410 C   0  0  0  0  0  0  0  0  0  0  0  0
   57.1610   33.8580   45.6350 C   0  0  0  0  0  0  0  0  0  0  0  0
   58.1450   34.5670   44.9440 C   0  0  0  0  0  0  0  0  0  0  0  0
   59.4800   34.5000   45.3570 C   0  0  0  0  0  0  0  0  0  0  0  0
   59.8370   33.7170   46.4720 C   0  0  0  0  0  0  0  0  0  0  0  0
   61.1650   33.6140   46.9170 C   0  0  0  0  0  0  0  0  0  0  0  0
   62.0780   34.2170   46.2840 O   0  0  0  0  0  0  0  0  0  0  0  0
   64.4282   31.3205   47.9575 H   0  0  0  0  0  0  0  0  0  0  0  0
   63.0581   31.3720   46.7970 H   0  0  0  0  0  0  0  0  0  0  0  0
   64.2851   32.6840   46.7970 H   0  0  0  0  0  0  0  0  0  0  0  0
   62.9405   32.2447   49.4176 H   0  0  0  0  0  0  0  0  0  0  0  0
   63.2997   33.7764   48.5229 H   0  0  0  0  0  0  0  0  0  0  0  0
   61.6381   29.4436   48.5240 H   0  0  0  0  0  0  0  0  0  0  0  0
   60.6830   28.6891   49.8690 H   0  0  0  0  0  0  0  0  0  0  0  0
   60.0699   30.9054   44.8348 H   0  0  0  0  0  0  0  0  0  0  0  0
   58.4290   31.6265   43.0969 H   0  0  0  0  0  0  0  0  0  0  0  0
   56.1024   30.7210   43.1210 H   0  0  0  0  0  0  0  0  0  0  0  0
   57.0550   28.3617   46.6214 H   0  0  0  0  0  0  0  0  0  0  0  0
   58.4480   31.6990   48.7380 H   0  0  0  0  0  0  0  0  0  0  0  0
   56.7295   32.5165   47.2808 H   0  0  0  0  0  0  0  0  0  0  0  0
   56.1120   33.9141   45.3086 H   0  0  0  0  0  0  0  0  0  0  0  0
   57.8702   35.1798   44.0728 H   0  0  0  0  0  0  0  0  0  0  0  0
   60.2525   35.0601   44.8097 H   0  0  0  0  0  0  0  0  0  0  0  0
  1  2  1  0
  2  3  1  0
  3  4  1  0
  4  5  1  0
  5  6  1  0
  6  7  1  0
  7  8  2  0
  7  9  1  0
  9 10  1  0
 10 11  2  0
 11 12  1  0
 12 13  2  0
 13 14  1  0
 14 15  1  0
 14 16  2  0
  4 17  2  0
 17 18  1  0
 18 19  2  0
 19 20  1  0
 20 21  2  0
 21 22  1  0
 22 23  2  0
 23 24  1  0
 24 25  2  0
 24  3  1  0
 16 10  1  0
 23 18  1  0
  1 26  1  0
  1 27  1  0
  1 28  1  0
  2 29  1  0
  2 30  1  0
  6 31  1  0
  6 32  1  0
 11 33  1  0
 12 34  1  0
 13 35  1  0
 16 36  1  0
 17 37  1  0
 19 38  1  0
 20 39  1  0
 21 40  1  0
 22 41  1  0
M  CHG  2   9  -1  17   1
M  END
>  <UniqueID>  (15) 
15

>  <SMILES>  (15) 
CCn1c(SCC(=O)[N-]c2cccc(F)c2)[nH+]c2ccccc2c1=O

>  <Energy>  (15) 
52.37034187633159

>  <Genealogy>  (15) 
CCn1c(SCC(=O)[N-]c2cccc(F)c2)[nH+]c2ccccc2c1=O (protonated)
CCn1c(SCC(=O)[N-]c2cccc(F)c2)[nH+]c2ccccc2c1=O (3D coordinates assigned)
CCn1c(SCC(=O)[N-]c2cccc(F)c2)[nH+]c2ccccc2c1=O (optimized conformer: 52.37034187633159 kcal/mol)

>  <smiles>  (15) 
CCn1c(SCC(=O)Nc2cccc(F)c2)nc2ccccc2c1=O

>  <score_type>  (15) 
oracle

>  <origin>  (15) 
adg

>  <m_score__min__energy>  (15) 
-7.7400000000000002

>  <m_primary>  (15) 
energy

$$$$
15:0
     RDKit          3D

 48 50  0  0  0  0  0  0  0  0999 V2000
   56.2450   29.7330   43.0760 C   0  0  0  0  0  0  0  0  0  0  0  0
   55.9930   30.6130   44.2120 N   0  0  0  0  0  0  0  0  0  0  0  0
   57.0150   31.3950   44.8590 C   0  0  0  0  0  0  0  0  0  0  0  0
   56.9150   32.7880   44.8500 C   0  0  0  0  0  0  0  0  0  0  0  0
   57.8850   33.5760   45.4660 C   0  0  0  0  0  0  0  0  0  0  0  0
   58.9890   32.9930   46.1350 C   0  0  0  0  0  0  0  0  0  0  0  0
   59.1120   31.5800   46.1150 C   0  0  0  0  0  0  0  0  0  0  0  0
   58.1230   30.7980   45.4800 C   0  0  0  0  0  0  0  0  0  0  0  0
   60.2410   30.9750   46.7010 C   0  0  0  0  0  0  0  0  0  0  0  0
   60.3490   29.5410   46.7520 N   0  0  0  0  0  0  0  0  0  0  0  0
   60.7370   28.7720   45.5710 C   0  0  0  0  0  0  0  0  0  0  0  0
   59.7140   27.6670   45.2980 C   0  0  0  0  0  0  0  0  0  0  0  0
   58.7070   27.6080   46.3810 N   0  0  0  0  0  0  0  0  0  0  0  0
   57.3640   27.3390   45.8410 C   0  0  0  0  0  0  0  0  0  0  0  0
   59.0630   26.5570   47.3480 C   0  0  0  0  0  0  0  0  0  0  0  0
   61.2870   31.7840   47.1820 C   0  0  0  0  0  0  0  0  0  0  0  0
   62.4790   31.2120   47.6760 C   0  0  0  0  0  0  0  0  0  0  0  0
   63.5290   32.0170   48.1090 C   0  0  0  0  0  0  0  0  0  0  0  0
   63.4150   33.4010   48.0490 C   0  0  0  0  0  0  0  0  0  0  0  0
   62.2390   33.9890   47.5850 C   0  0  0  0  0  0  0  0  0  0  0  0
   61.1350   33.1970   47.1780 C   0  0  0  0  0  0  0  0  0  0  0  0
   59.9410   33.7650   46.7740 N   0  0  0  0  0  0  0  0  0  0  0  0
   59.6730   35.1950   47.0490 C   0  0  0  0  0  0  0  0  0  0  0  0
   56.5306   28.7355   43.4412 H   0  0  0  0  0  0  0  0  0  0  0  0
   55.3337   29.6527   42.4651 H   0  0  0  0  0  0  0  0  0  0  0  0
   57.0606   30.1473   42.4651 H   0  0  0  0  0  0  0  0  0  0  0  0
   55.0130   30.6620   44.5750 H   0  0  0  0  0  0  0  0  0  0  0  0
   56.0606   33.2685   44.3509 H   0  0  0  0  0  0  0  0  0  0  0  0
   57.7917   34.6715   45.4321 H   0  0  0  0  0  0  0  0  0  0  0  0
   58.2224   29.7025   45.4718 H   0  0  0  0  0  0  0  0  0  0  0  0
   59.9060   29.0300   47.5480 H   0  0  0  0  0  0  0  0  0  0  0  0
   60.7871   29.4433   44.7010 H   0  0  0  0  0  0  0  0  0  0  0  0
   61.7207   28.3132   45.7496 H   0  0  0  0  0  0  0  0  0  0  0  0
   59.2066   27.8722   44.3438 H   0  0  0  0  0  0  0  0  0  0  0  0
   60.2397   26.7019   45.2506 H   0  0  0  0  0  0  0  0  0  0  0  0
   56.6566   27.1973   46.6713 H   0  0  0  0  0  0  0  0  0  0  0  0
   57.0396   28.1900   45.2241 H   0  0  0  0  0  0  0  0  0  0  0  0
   57.3924   26.4287   45.2241 H   0  0  0  0  0  0  0  0  0  0  0  0
   58.9331   26.9405   48.3708 H   0  0  0  0  0  0  0  0  0  0  0  0
   58.4103   25.6844   47.1980 H   0  0  0  0  0  0  0  0  0  0  0  0
   60.1116   26.2607   47.1980 H   0  0  0  0  0  0  0  0  0  0  0  0
   62.5795   30.1175   47.7194 H   0  0  0  0  0  0  0  0  0  0  0  0
   64.4493   31.5576   48.4988 H   0  0  0  0  0  0  0  0  0  0  0  0
   64.2555   34.0346   48.3687 H   0  0  0  0  0  0  0  0  0  0  0  0
   62.1662   35.0854   47.5337 H   0  0  0  0  0  0  0  0  0  0  0  0
   59.6421   35.3598   48.1361 H   0  0  0  0  0  0  0  0  0  0  0  0
   60.4717   35.8092   46.6076 H   0  0  0  0  0  0  0  0  0  0  0  0
   58.7061   35.4783   46.6076 H   0  0  0  0  0  0  0  0  0  0  0  0
  1  2  1  0
  2  3  1  0
  3  4  2  0
  4  5  1  0
  5  6  2  0
  6  7  1  0
  7  8  2  0
  7  9  1  0
  9 10  1  0
 10 11  1  0
 11 12  1  0
 12 13  1  0
 13 14  1  0
 13 15  1  0
  9 16  2  0
 16 17  1  0
 17 18  2  0
 18 19  1  0
 19 20  2  0
 20 21  1  0
 21 22  2  0
 22 23  1  0
  8  3  1  0
 21 16  1  0
 22  6  1  0
  1 24  1  0
  1 25  1  0
  1 26  1  0
  2 27  1  0
  4 28  1  0
  5 29  1  0
  8 30  1  0
 10 31  1  0
 11 32  1  0
 11 33  1  0
 12 34  1  0
 12 35  1  0
 14 36  1  0
 14 37  1  0
 14 38  1  0
 15 39  1  0
 15 40  1  0
 15 41  1  0
 17 42  1  0
 18 43  1  0
 19 44  1  0
 20 45  1  0
 23 46  1  0
 23 47  1  0
 23 48  1  0
M  CHG  1  22   1
M  END
>  <UniqueID>  (16) 
16

>  <SMILES>  (16) 
CNc1ccc2c(c1)c(NCCN(C)C)c1ccccc1[n+]2C

>  <Energy>  (16) 
72.53550285448225

>  <Genealogy>  (16) 
CNc1ccc2c(c1)c(NCCN(C)C)c1ccccc1[n+]2C (3D coordinates assigned)
CNc1ccc2c(c1)c(NCCN(C)C)c1ccccc1[n+]2C (optimized conformer: 72.53550285448225 kcal/mol)

>  <smiles>  (16) 
CNc1ccc2c(c1)c(NCCN(C)C)c1ccccc1[n+]2C

>  <score_type>  (16) 
oracle

>  <origin>  (16) 
adg

>  <m_score__min__energy>  (16) 
-5.0999999999999996

>  <m_primary>  (16) 
energy

$$$$
16:0
     RDKit          3D

 41 43  0  0  0  0  0  0  0  0999 V2000
   57.3820   26.8580   45.4230 C   0  0  0  0  0  0  0  0  0  0  0  0
   56.5890   28.0250   45.2470 O   0  0  0  0  0  0  0  0  0  0  0  0
   57.1190   29.3210   45.2930 C   0  0  0  0  0  0  0  0  0  0  0  0
   57.8300   29.8750   46.3580 C   0  0  0  0  0  0  0  0  0  0  0  0
   58.1250   31.1600   45.9530 C   0  0  0  0  0  0  0  0  0  0  0  0
   58.8040   32.1770   46.6180 C   0  0  0  0  0  0  0  0  0  0  0  0
   58.9440   33.4180   45.9620 C   0  0  0  0  0  0  0  0  0  0  0  0
   59.7830   34.7510   46.7610 S   0  0  0  0  0  0  0  0  0  0  0  0
   58.9150   35.2860   47.8660 O   0  0  0  0  0  0  0  0  0  0  0  0
   60.0100   35.8590   45.7710 O   0  0  0  0  0  0  0  0  0  0  0  0
   61.3140   34.2400   47.4250 N   0  0  0  0  0  0  0  0  0  0  0  0
   62.0760   33.4690   46.4200 C   0  0  0  0  0  0  0  0  0  0  0  0
   63.3010   32.7510   47.0310 C   0  0  0  0  0  0  0  0  0  0  0  0
   63.6490   33.3040   48.4170 C   0  0  0  0  0  0  0  0  0  0  0  0
   62.4450   33.2090   49.3680 C   0  0  0  0  0  0  0  0  0  0  0  0
   61.1040   33.4470   48.6480 C   0  0  0  0  0  0  0  0  0  0  0  0
   58.4040   33.5990   44.6660 C   0  0  0  0  0  0  0  0  0  0  0  0
   57.7220   32.5520   44.0210 C   0  0  0  0  0  0  0  0  0  0  0  0
   57.6020   31.3340   44.6960 C   0  0  0  0  0  0  0  0  0  0  0  0
   56.9900   30.2090   44.2790 N   0  0  0  0  0  0  0  0  0  0  0  0
   56.2720   30.0100   43.0220 C   0  0  0  0  0  0  0  0  0  0  0  0
   57.5143   26.6632   46.4975 H   0  0  0  0  0  0  0  0  0  0  0  0
   56.8797   25.9992   44.9538 H   0  0  0  0  0  0  0  0  0  0  0  0
   58.3654   27.0088   44.9538 H   0  0  0  0  0  0  0  0  0  0  0  0
   58.0964   29.3933   47.3104 H   0  0  0  0  0  0  0  0  0  0  0  0
   59.2187   32.0179   47.6243 H   0  0  0  0  0  0  0  0  0  0  0  0
   61.4105   32.7147   45.9748 H   0  0  0  0  0  0  0  0  0  0  0  0
   62.4458   34.1776   45.6643 H   0  0  0  0  0  0  0  0  0  0  0  0
   63.0768   31.6779   47.1214 H   0  0  0  0  0  0  0  0  0  0  0  0
   64.1628   32.9192   46.3684 H   0  0  0  0  0  0  0  0  0  0  0  0
   64.4846   32.7241   48.8359 H   0  0  0  0  0  0  0  0  0  0  0  0
   63.9284   34.3626   48.3111 H   0  0  0  0  0  0  0  0  0  0  0  0
   62.4300   32.2058   49.8190 H   0  0  0  0  0  0  0  0  0  0  0  0
   62.5587   33.9937   50.1305 H   0  0  0  0  0  0  0  0  0  0  0  0
   60.6591   32.4774   48.3798 H   0  0  0  0  0  0  0  0  0  0  0  0
   60.4299   33.9980   49.3203 H   0  0  0  0  0  0  0  0  0  0  0  0
   58.5190   34.5682   44.1585 H   0  0  0  0  0  0  0  0  0  0  0  0
   57.2960   32.6874   43.0159 H   0  0  0  0  0  0  0  0  0  0  0  0
   55.2321   29.7218   43.2354 H   0  0  0  0  0  0  0  0  0  0  0  0
   56.2818   30.9447   42.4422 H   0  0  0  0  0  0  0  0  0  0  0  0
   56.7616   29.2137   42.4422 H   0  0  0  0  0  0  0  0  0  0  0  0
  1  2  1  0
  2  3  1  0
  3  4  2  0
  4  5  1  0
  5  6  2  0
  6  7  1  0
  7  8  1  0
  8  9  2  0
  8 10  2  0
  8 11  1  0
 11 12  1  0
 12 13  1  0
 13 14  1  0
 14 15  1  0
 15 16  1  0
  7 17  2  0
 17 18  1  0
 18 19  2  0
 19 20  1  0
 20 21  1  0
 20  3  1  0
 19  5  1  0
 16 11  1  0
  1 22  1  0
  1 23  1  0
  1 24  1  0
  4 25  1  0
  6 26  1  0
 12 27  1  0
 12 28  1  0
 13 29  1  0
 13 30  1  0
 14 31  1  0
 14 32  1  0
 15 33  1  0
 15 34  1  0
 16 35  1  0
 16 36  1  0
 17 37  1  0
 18 38  1  0
 21 39  1  0
 21 40  1  0
 21 41  1  0
M  END
>  <UniqueID>  (17) 
17

>  <SMILES>  (17) 
COc1cc2cc(S(=O)(=O)N3CCCCC3)ccc2n1C

>  <Energy>  (17) 
75.67895873526498

>  <Genealogy>  (17) 
COc1cc2cc(S(=O)(=O)N3CCCCC3)ccc2n1C (3D coordinates assigned)
COc1cc2cc(S(=O)(=O)N3CCCCC3)ccc2n1C (nonaromatic ring conformer: 75.67895873526498 kcal/mol)

>  <smiles>  (17) 
COc1cc2cc(S(=O)(=O)N3CCCCC3)ccc2n1C

>  <score_type>  (17) 
oracle

>  <origin>  (17) 
adg

>  <m_score__min__energy>  (17) 
-7.7400000000000002

>  <m_primary>  (17) 
energy

$$$$
17:0
     RDKit          3D

 76 78  0  0  0  0  0  0  0  0999 V2000
   62.3760   31.2570   47.4190 C   0  0  0  0  0  0  0  0  0  0  0  0
   63.0110   32.6410   47.2760 C   0  0  0  0  0  0  0  0  0  0  0  0
   61.9990   33.7790   47.5020 C   0  0  0  0  0  0  0  0  0  0  0  0
   60.9860   33.9480   46.3530 C   0  0  0  0  0  0  0  0  0  0  0  0
   59.8330   34.9150   46.6780 C   0  0  0  0  0  0  0  0  0  0  0  0
   58.4910   34.2190   47.0000 C   0  0  0  0  0  0  0  0  0  0  0  0
   58.5590   32.7640   46.7820 N   0  0  0  0  0  0  0  0  0  0  0  0
   58.2000   32.1610   45.6160 C   0  0  0  0  0  0  0  0  0  0  0  0
   57.8020   32.7720   44.4170 C   0  0  0  0  0  0  0  0  0  0  0  0
   57.4710   31.9500   43.3250 C   0  0  0  0  0  0  0  0  0  0  0  0
   57.5360   30.5470   43.4410 C   0  0  0  0  0  0  0  0  0  0  0  0
   57.9340   29.9510   44.6500 C   0  0  0  0  0  0  0  0  0  0  0  0
   58.2610   30.7930   45.7140 C   0  0  0  0  0  0  0  0  0  0  0  0
   58.6830   30.5170   46.9870 C   0  0  0  0  0  0  0  0  0  0  0  0
   58.8930   29.2930   47.6030 C   0  0  0  0  0  0  0  0  0  0  0  0
   59.3330   29.3140   48.9260 C   0  0  0  0  0  0  0  0  0  0  0  0
   59.5620   30.5010   49.5660 N   0  0  0  0  0  0  0  0  0  0  0  0
   59.3640   31.7210   48.9690 C   0  0  0  0  0  0  0  0  0  0  0  0
   59.7500   32.9510   49.7570 C   0  0  0  0  0  0  0  0  0  0  0  0
   59.7710   32.6510   51.1960 N   0  0  0  0  0  0  0  0  0  0  0  0
   58.6010   33.2200   51.8880 C   0  0  0  0  0  0  0  0  0  0  0  0
   57.4000   32.2720   51.8110 C   0  0  0  0  0  0  0  0  0  0  0  0
   57.3690   31.2940   52.9950 C   0  0  0  0  0  0  0  0  0  0  0  0
   57.9870   29.9280   52.6520 C   0  0  0  0  0  0  0  0  0  0  0  0
   59.3760   30.0170   52.1550 N   0  0  0  0  0  0  0  0  0  0  0  0
   60.1940   28.8810   52.6030 C   0  0  0  0  0  0  0  0  0  0  0  0
   61.1420   28.4490   51.4800 C   0  0  0  0  0  0  0  0  0  0  0  0
   62.2140   29.5110   51.1950 C   0  0  0  0  0  0  0  0  0  0  0  0
   61.7720   30.8390   51.6590 N   0  0  0  0  0  0  0  0  0  0  0  0
   62.7880   31.8830   51.4750 C   0  0  0  0  0  0  0  0  0  0  0  0
   63.8000   31.4900   50.4010 C   0  0  0  0  0  0  0  0  0  0  0  0
   58.8820   31.7310   47.6290 C   0  0  0  0  0  0  0  0  0  0  0  0
   62.2642   31.0133   48.4858 H   0  0  0  0  0  0  0  0  0  0  0  0
   61.3872   31.2557   46.9370 H   0  0  0  0  0  0  0  0  0  0  0  0
   63.0199   30.5066   46.9370 H   0  0  0  0  0  0  0  0  0  0  0  0
   63.8201   32.7362   48.0151 H   0  0  0  0  0  0  0  0  0  0  0  0
   63.3909   32.7303   46.2476 H   0  0  0  0  0  0  0  0  0  0  0  0
   61.4422   33.5692   48.4272 H   0  0  0  0  0  0  0  0  0  0  0  0
   62.5759   34.7137   47.5605 H   0  0  0  0  0  0  0  0  0  0  0  0
   61.5218   34.3309   45.4719 H   0  0  0  0  0  0  0  0  0  0  0  0
   60.5353   32.9604   46.1756 H   0  0  0  0  0  0  0  0  0  0  0  0
   60.1254   35.5194   47.5493 H   0  0  0  0  0  0  0  0  0  0  0  0
   59.6653   35.5202   45.7749 H   0  0  0  0  0  0  0  0  0  0  0  0
   58.2359   34.4090   48.0530 H   0  0  0  0  0  0  0  0  0  0  0  0
   57.7248   34.6287   46.3254 H   0  0  0  0  0  0  0  0  0  0  0  0
   57.7502   33.8676   44.3333 H   0  0  0  0  0  0  0  0  0  0  0  0
   57.1591   32.4054   42.3735 H   0  0  0  0  0  0  0  0  0  0  0  0
   57.2736   29.9145   42.5801 H   0  0  0  0  0  0  0  0  0  0  0  0
   57.9861   28.8572   44.7542 H   0  0  0  0  0  0  0  0  0  0  0  0
   58.7200   28.3459   47.0710 H   0  0  0  0  0  0  0  0  0  0  0  0
   59.4976   28.3666   49.4603 H   0  0  0  0  0  0  0  0  0  0  0  0
   59.9160   30.4490   50.5480 H   0  0  0  0  0  0  0  0  0  0  0  0
   60.7495   33.2848   49.4416 H   0  0  0  0  0  0  0  0  0  0  0  0
   59.0103   33.7430   49.5680 H   0  0  0  0  0  0  0  0  0  0  0  0
   59.7340   31.6120   51.3080 H   0  0  0  0  0  0  0  0  0  0  0  0
   58.8564   33.3913   52.9441 H   0  0  0  0  0  0  0  0  0  0  0  0
   58.3310   34.1667   51.3972 H   0  0  0  0  0  0  0  0  0  0  0  0
   56.4752   32.8676   51.8167 H   0  0  0  0  0  0  0  0  0  0  0  0
   57.4863   31.6851   50.8847 H   0  0  0  0  0  0  0  0  0  0  0  0
   57.9319   31.7351   53.8308 H   0  0  0  0  0  0  0  0  0  0  0  0
   56.3147   31.1251   53.2592 H   0  0  0  0  0  0  0  0  0  0  0  0
   57.9810   29.3056   53.5590 H   0  0  0  0  0  0  0  0  0  0  0  0
   57.3814   29.4930   51.8433 H   0  0  0  0  0  0  0  0  0  0  0  0
   59.8270   30.9040   52.4730 H   0  0  0  0  0  0  0  0  0  0  0  0
   60.7826   29.1795   53.4831 H   0  0  0  0  0  0  0  0  0  0  0  0
   59.5350   28.0402   52.8654 H   0  0  0  0  0  0  0  0  0  0  0  0
   61.6385   27.5126   51.7743 H   0  0  0  0  0  0  0  0  0  0  0  0
   60.5466   28.3117   50.5653 H   0  0  0  0  0  0  0  0  0  0  0  0
   63.1417   29.2365   51.7185 H   0  0  0  0  0  0  0  0  0  0  0  0
   62.3858   29.5560   50.1094 H   0  0  0  0  0  0  0  0  0  0  0  0
   60.9370   31.1190   51.0920 H   0  0  0  0  0  0  0  0  0  0  0  0
   62.2912   32.8173   51.1744 H   0  0  0  0  0  0  0  0  0  0  0  0
   63.3250   32.0159   52.4257 H   0  0  0  0  0  0  0  0  0  0  0  0
   64.7229   31.1316   50.8804 H   0  0  0  0  0  0  0  0  0  0  0  0
   63.3779   30.6904   49.7745 H   0  0  0  0  0  0  0  0  0  0  0  0
   64.0282   32.3649   49.7745 H   0  0  0  0  0  0  0  0  0  0  0  0
  1  2  1  0
  2  3  1  0
  3  4  1  0
  4  5  1  0
  5  6  1  0
  6  7  1  0
  7  8  1  0
  8  9  2  0
  9 10  1  0
 10 11  2  0
 11 12  1  0
 12 13  2  0
 13 14  1  0
 14 15  2  0
 15 16  1  0
 16 17  2  0
 17 18  1  0
 18 19  1  0
 19 20  1  0
 20 21  1  0
 21 22  1  0
 22 23  1  0
 23 24  1  0
 24 25  1  0
 25 26  1  0
 26 27  1  0
 27 28  1  0
 28 29  1  0
 29 30  1  0
 30 31  1  0
 18 32  2  0
 32  7  1  0
 13  8  1  0
 32 14  1  0
  1 33  1  0
  1 34  1  0
  1 35  1  0
  2 36  1  0
  2 37  1  0
  3 38  1  0
  3 39  1  0
  4 40  1  0
  4 41  1  0
  5 42  1  0
  5 43  1  0
  6 44  1  0
  6 45  1  0
  9 46  1  0
 10 47  1  0
 11 48  1  0
 12 49  1  0
 15 50  1  0
 16 51  1  0
 17 52  1  0
 19 53  1  0
 19 54  1  0
 20 55  1  0
 21 56  1  0
 21 57  1  0
 22 58  1  0
 22 59  1  0
 23 60  1  0
 23 61  1  0
 24 62  1  0
 24 63  1  0
 25 64  1  0
 26 65  1  0
 26 66  1  0
 27 67  1  0
 27 68  1  0
 28 69  1  0
 28 70  1  0
 29 71  1  0
 30 72  1  0
 30 73  1  0
 31 74  1  0
 31 75  1  0
 31 76  1  0
M  CHG  1  17   1
M  END
>  <UniqueID>  (18) 
18

>  <SMILES>  (18) 
CCCCCCn1c2ccccc2c2cc[nH+]c(CNCCCCNCCCNCC)c21

>  <Energy>  (18) 
109.83956740461689

>  <Genealogy>  (18) 
CCCCCCn1c2ccccc2c2cc[nH+]c(CNCCCCNCCCNCC)c21 (protonated)
CCCCCCn1c2ccccc2c2cc[nH+]c(CNCCCCNCCCNCC)c21 (3D coordinates assigned)
CCCCCCn1c2ccccc2c2cc[nH+]c(CNCCCCNCCCNCC)c21 (optimized conformer: 109.83956740461689 kcal/mol)

>  <smiles>  (18) 
CCCCCCn1c2ccccc2c2ccnc(CNCCCCNCCCNCC)c21

>  <score_type>  (18) 
oracle

>  <origin>  (18) 
adg

>  <m_score__min__energy>  (18) 
-5.2000000000000002

>  <m_primary>  (18) 
energy

$$$$
18:0
     RDKit          3D

 65 67  0  0  0  0  0  0  0  0999 V2000
   58.8500   31.4760   50.3320 C   0  0  0  0  0  0  0  0  0  0  0  0
   60.2390   31.0570   50.8060 C   0  0  0  0  0  0  0  0  0  0  0  0
   60.8290   30.0760   49.8850 N   0  0  0  0  0  0  0  0  0  0  0  0
   60.0190   28.8450   49.7580 C   0  0  0  0  0  0  0  0  0  0  0  0
   59.3870   28.6890   48.3650 C   0  0  0  0  0  0  0  0  0  0  0  0
   59.9470   29.6590   47.4230 N   0  0  0  0  0  0  0  0  0  0  0  0
   59.2230   30.0630   46.2480 C   0  0  0  0  0  0  0  0  0  0  0  0
   58.7820   29.0960   45.3300 C   0  0  0  0  0  0  0  0  0  0  0  0
   59.0690   27.7300   45.5300 C   0  0  0  0  0  0  0  0  0  0  0  0
   58.5820   26.7630   44.6540 C   0  0  0  0  0  0  0  0  0  0  0  0
   57.7900   27.1370   43.5760 C   0  0  0  0  0  0  0  0  0  0  0  0
   57.5030   28.4840   43.3500 C   0  0  0  0  0  0  0  0  0  0  0  0
   58.0230   29.4970   44.1990 C   0  0  0  0  0  0  0  0  0  0  0  0
   57.7890   30.8380   43.9580 N   0  0  0  0  0  0  0  0  0  0  0  0
   57.2390   31.2700   42.6530 C   0  0  0  0  0  0  0  0  0  0  0  0
   58.1050   31.7800   44.9190 C   0  0  0  0  0  0  0  0  0  0  0  0
   57.6620   33.1220   44.8230 C   0  0  0  0  0  0  0  0  0  0  0  0
   58.0600   34.0810   45.7520 C   0  0  0  0  0  0  0  0  0  0  0  0
   58.9030   33.7440   46.8060 C   0  0  0  0  0  0  0  0  0  0  0  0
   59.3070   34.7660   47.6820 O   0  0  0  0  0  0  0  0  0  0  0  0
   59.8220   34.5780   49.0010 C   0  0  0  0  0  0  0  0  0  0  0  0
   61.3570   34.5110   49.0000 C   0  0  0  0  0  0  0  0  0  0  0  0
   61.8580   33.0570   48.8250 C   0  0  0  0  0  0  0  0  0  0  0  0
   63.0370   32.8980   47.9180 N   0  0  0  0  0  0  0  0  0  0  0  0
   63.0200   31.5130   47.3870 C   0  0  0  0  0  0  0  0  0  0  0  0
   62.9700   33.8370   46.7720 C   0  0  0  0  0  0  0  0  0  0  0  0
   64.3110   33.0990   48.6530 C   0  0  0  0  0  0  0  0  0  0  0  0
   59.3010   32.4070   46.9600 C   0  0  0  0  0  0  0  0  0  0  0  0
   58.8800   31.4140   46.0500 C   0  0  0  0  0  0  0  0  0  0  0  0
   58.2080   31.6697   51.2039 H   0  0  0  0  0  0  0  0  0  0  0  0
   58.9299   32.3900   49.7252 H   0  0  0  0  0  0  0  0  0  0  0  0
   58.4111   30.6703   49.7252 H   0  0  0  0  0  0  0  0  0  0  0  0
   60.8875   31.9443   50.8521 H   0  0  0  0  0  0  0  0  0  0  0  0
   60.1489   30.5974   51.8013 H   0  0  0  0  0  0  0  0  0  0  0  0
   61.7980   29.8580   50.2150 H   0  0  0  0  0  0  0  0  0  0  0  0
   60.6667   27.9767   49.9494 H   0  0  0  0  0  0  0  0  0  0  0  0
   59.1991   28.9111   50.4883 H   0  0  0  0  0  0  0  0  0  0  0  0
   59.5825   27.6724   47.9932 H   0  0  0  0  0  0  0  0  0  0  0  0
   58.3048   28.8672   48.4494 H   0  0  0  0  0  0  0  0  0  0  0  0
   60.8530   30.1350   47.6400 H   0  0  0  0  0  0  0  0  0  0  0  0
   59.6851   27.4244   46.3885 H   0  0  0  0  0  0  0  0  0  0  0  0
   58.8247   25.7024   44.8159 H   0  0  0  0  0  0  0  0  0  0  0  0
   57.3878   26.3694   42.8985 H   0  0  0  0  0  0  0  0  0  0  0  0
   56.8636   28.7657   42.5004 H   0  0  0  0  0  0  0  0  0  0  0  0
   56.3839   31.9416   42.8197 H   0  0  0  0  0  0  0  0  0  0  0  0
   58.0170   31.8010   42.0849 H   0  0  0  0  0  0  0  0  0  0  0  0
   56.9074   30.3884   42.0849 H   0  0  0  0  0  0  0  0  0  0  0  0
   56.9918   33.4122   44.0004 H   0  0  0  0  0  0  0  0  0  0  0  0
   57.7035   35.1167   45.6508 H   0  0  0  0  0  0  0  0  0  0  0  0
   59.5010   35.4187   49.6336 H   0  0  0  0  0  0  0  0  0  0  0  0
   59.4345   33.6253   49.3911 H   0  0  0  0  0  0  0  0  0  0  0  0
   61.7416   35.1243   48.1718 H   0  0  0  0  0  0  0  0  0  0  0  0
   61.7209   34.8889   49.9668 H   0  0  0  0  0  0  0  0  0  0  0  0
   62.1361   32.6705   49.8166 H   0  0  0  0  0  0  0  0  0  0  0  0
   61.0324   32.5025   48.3551 H   0  0  0  0  0  0  0  0  0  0  0  0
   63.0112   30.7994   48.2241 H   0  0  0  0  0  0  0  0  0  0  0  0
   62.1200   31.3673   46.7716 H   0  0  0  0  0  0  0  0  0  0  0  0
   63.9162   31.3452   46.7716 H   0  0  0  0  0  0  0  0  0  0  0  0
   62.8964   34.8685   47.1470 H   0  0  0  0  0  0  0  0  0  0  0  0
   63.8778   33.7334   46.1595 H   0  0  0  0  0  0  0  0  0  0  0  0
   62.0861   33.6056   46.1595 H   0  0  0  0  0  0  0  0  0  0  0  0
   64.1185   33.0686   49.7356 H   0  0  0  0  0  0  0  0  0  0  0  0
   65.0193   32.3015   48.3840 H   0  0  0  0  0  0  0  0  0  0  0  0
   64.7393   34.0758   48.3840 H   0  0  0  0  0  0  0  0  0  0  0  0
   59.9509   32.1289   47.8028 H   0  0  0  0  0  0  0  0  0  0  0  0
  1  2  1  0
  2  3  1  0
  3  4  1  0
  4  5  1  0
  5  6  1  0
  6  7  1  0
  7  8  2  0
  8  9  1  0
  9 10  2  0
 10 11  1  0
 11 12  2  0
 12 13  1  0
 13 14  2  0
 14 15  1  0
 14 16  1  0
 16 17  2  0
 17 18  1  0
 18 19  2  0
 19 20  1  0
 20 21  1  0
 21 22  1  0
 22 23  1  0
 23 24  1  0
 24 25  1  0
 24 26  1  0
 24 27  1  0
 19 28  1  0
 28 29  2  0
 29  7  1  0
 13  8  1  0
 29 16  1  0
  1 30  1  0
  1 31  1  0
  1 32  1  0
  2 33  1  0
  2 34  1  0
  3 35  1  0
  4 36  1  0
  4 37  1  0
  5 38  1  0
  5 39  1  0
  6 40  1  0
  9 41  1  0
 10 42  1  0
 11 43  1  0
 12 44  1  0
 15 45  1  0
 15 46  1  0
 15 47  1  0
 17 48  1  0
 18 49  1  0
 21 50  1  0
 21 51  1  0
 22 52  1  0
 22 53  1  0
 23 54  1  0
 23 55  1  0
 25 56  1  0
 25 57  1  0
 25 58  1  0
 26 59  1  0
 26 60  1  0
 26 61  1  0
 27 62  1  0
 27 63  1  0
 27 64  1  0
 28 65  1  0
M  CHG  2  14   1  24   1
M  END
>  <UniqueID>  (19) 
19

>  <SMILES>  (19) 
CCNCCNc1c2ccccc2[n+](C)c2ccc(OCCC[N+](C)(C)C)cc12

>  <Energy>  (19) 
94.5730388788894

>  <Genealogy>  (19) 
CCNCCNc1c2ccccc2[n+](C)c2ccc(OCCC[N+](C)(C)C)cc12 (3D coordinates assigned)
CCNCCNc1c2ccccc2[n+](C)c2ccc(OCCC[N+](C)(C)C)cc12 (optimized conformer: 94.5730388788894 kcal/mol)

>  <smiles>  (19) 
CCNCCNc1c2ccccc2[n+](C)c2ccc(OCCC[N+](C)(C)C)cc12

>  <score_type>  (19) 
oracle

>  <origin>  (19) 
adg

>  <m_score__min__energy>  (19) 
-4.3499999999999996

>  <m_primary>  (19) 
energy

$$$$
19:0
     RDKit          3D

 55 57  0  0  0  0  0  0  0  0999 V2000
   55.3680   23.5940   46.8400 C   0  0  0  0  0  0  0  0  0  0  0  0
   56.4030   23.5310   47.9620 C   0  0  0  0  0  0  0  0  0  0  0  0
   57.0210   22.1870   48.0580 N   0  0  0  0  0  0  0  0  0  0  0  0
   56.7950   21.5060   49.3560 C   0  0  0  0  0  0  0  0  0  0  0  0
   57.5260   22.1540   50.5420 C   0  0  0  0  0  0  0  0  0  0  0  0
   56.6730   21.3330   46.9000 C   0  0  0  0  0  0  0  0  0  0  0  0
   57.9150   20.5780   46.4210 C   0  0  0  0  0  0  0  0  0  0  0  0
   58.7700   21.4450   45.6140 N   0  0  0  0  0  0  0  0  0  0  0  0
   58.3190   22.7240   45.1510 C   0  0  0  0  0  0  0  0  0  0  0  0
   58.6770   23.8720   45.6640 O   0  0  0  0  0  0  0  0  0  0  0  0
   58.0520   24.8040   44.9720 C   0  0  0  0  0  0  0  0  0  0  0  0
   58.1950   26.2490   45.2400 C   0  0  0  0  0  0  0  0  0  0  0  0
   58.2030   27.1660   44.1770 C   0  0  0  0  0  0  0  0  0  0  0  0
   58.3320   28.5370   44.4240 C   0  0  0  0  0  0  0  0  0  0  0  0
   58.4560   29.0120   45.7430 C   0  0  0  0  0  0  0  0  0  0  0  0
   58.5800   30.3770   46.0490 O   0  0  0  0  0  0  0  0  0  0  0  0
   57.9210   31.4410   45.3600 C   0  0  0  0  0  0  0  0  0  0  0  0
   58.5190   32.7720   45.7360 C   0  0  0  0  0  0  0  0  0  0  0  0
   58.8650   33.0510   47.0700 C   0  0  0  0  0  0  0  0  0  0  0  0
   59.4210   34.2890   47.4090 C   0  0  0  0  0  0  0  0  0  0  0  0
   59.6230   35.2610   46.4240 C   0  0  0  0  0  0  0  0  0  0  0  0
   59.2680   34.9950   45.0970 C   0  0  0  0  0  0  0  0  0  0  0  0
   58.7150   33.7580   44.7540 C   0  0  0  0  0  0  0  0  0  0  0  0
   58.4570   28.0950   46.7990 C   0  0  0  0  0  0  0  0  0  0  0  0
   58.3230   26.7250   46.5550 C   0  0  0  0  0  0  0  0  0  0  0  0
   57.2690   24.2920   43.9920 N   0  0  0  0  0  0  0  0  0  0  0  0
   57.4500   22.9640   44.1130 C   0  0  0  0  0  0  0  0  0  0  0  0
   56.8080   21.9830   43.2820 C   0  0  0  0  0  0  0  0  0  0  0  0
   56.2900   21.1950   42.6130 N   0  0  0  0  0  0  0  0  0  0  0  0
   54.3594   23.6554   47.2746 H   0  0  0  0  0  0  0  0  0  0  0  0
   55.5543   24.4825   46.2188 H   0  0  0  0  0  0  0  0  0  0  0  0
   55.4451   22.6895   46.2188 H   0  0  0  0  0  0  0  0  0  0  0  0
   57.1905   24.2729   47.7636 H   0  0  0  0  0  0  0  0  0  0  0  0
   55.8935   23.7447   48.9132 H   0  0  0  0  0  0  0  0  0  0  0  0
   55.7157   21.5169   49.5681 H   0  0  0  0  0  0  0  0  0  0  0  0
   57.1985   20.4878   49.2536 H   0  0  0  0  0  0  0  0  0  0  0  0
   57.1014   21.7776   51.4844 H   0  0  0  0  0  0  0  0  0  0  0  0
   58.5957   21.9020   50.4953 H   0  0  0  0  0  0  0  0  0  0  0  0
   57.4042   23.2462   50.4953 H   0  0  0  0  0  0  0  0  0  0  0  0
   55.8990   20.6106   47.1985 H   0  0  0  0  0  0  0  0  0  0  0  0
   56.2947   21.9652   46.0831 H   0  0  0  0  0  0  0  0  0  0  0  0
   58.4819   20.2250   47.2951 H   0  0  0  0  0  0  0  0  0  0  0  0
   57.5936   19.7263   45.8036 H   0  0  0  0  0  0  0  0  0  0  0  0
   59.6970   21.0820   45.2940 H   0  0  0  0  0  0  0  0  0  0  0  0
   58.1072   26.8040   43.1427 H   0  0  0  0  0  0  0  0  0  0  0  0
   58.3365   29.2468   43.5837 H   0  0  0  0  0  0  0  0  0  0  0  0
   58.0290   31.2903   44.2757 H   0  0  0  0  0  0  0  0  0  0  0  0
   56.8578   31.4393   45.6423 H   0  0  0  0  0  0  0  0  0  0  0  0
   58.6979   32.2932   47.8496 H   0  0  0  0  0  0  0  0  0  0  0  0
   59.6999   34.4984   48.4523 H   0  0  0  0  0  0  0  0  0  0  0  0
   60.0606   36.2339   46.6923 H   0  0  0  0  0  0  0  0  0  0  0  0
   59.4243   35.7604   44.3226 H   0  0  0  0  0  0  0  0  0  0  0  0
   58.4319   33.5553   43.7106 H   0  0  0  0  0  0  0  0  0  0  0  0
   58.5644   28.4556   47.8326 H   0  0  0  0  0  0  0  0  0  0  0  0
   58.3178   26.0168   47.3967 H   0  0  0  0  0  0  0  0  0  0  0  0
  1  2  1  0
  2  3  1  0
  3  4  1  0
  4  5  1  0
  3  6  1  0
  6  7  1  0
  7  8  1  0
  8  9  1  0
  9 10  1  0
 10 11  1  0
 11 12  1  0
 12 13  2  0
 13 14  1  0
 14 15  2  0
 15 16  1  0
 16 17  1  0
 17 18  1  0
 18 19  2  0
 19 20  1  0
 20 21  2  0
 21 22  1  0
 22 23  2  0
 15 24  1  0
 24 25  2  0
 11 26  2  0
 26 27  1  0
 27 28  1  0
 28 29  3  0
 27  9  2  0
 25 12  1  0
 23 18  1  0
  1 30  1  0
  1 31  1  0
  1 32  1  0
  2 33  1  0
  2 34  1  0
  4 35  1  0
  4 36  1  0
  5 37  1  0
  5 38  1  0
  5 39  1  0
  6 40  1  0
  6 41  1  0
  7 42  1  0
  7 43  1  0
  8 44  1  0
 13 45  1  0
 14 46  1  0
 17 47  1  0
 17 48  1  0
 19 49  1  0
 20 50  1  0
 21 51  1  0
 22 52  1  0
 23 53  1  0
 24 54  1  0
 25 55  1  0
M  END
>  <UniqueID>  (20) 
20

>  <SMILES>  (20) 
CCN(CC)CCNc1oc(-c2ccc(OCc3ccccc3)cc2)nc1C#N

>  <Energy>  (20) 
83.88560148952182

>  <Genealogy>  (20) 
CCN(CC)CCNc1oc(-c2ccc(OCc3ccccc3)cc2)nc1C#N (3D coordinates assigned)
CCN(CC)CCNc1oc(-c2ccc(OCc3ccccc3)cc2)nc1C#N (optimized conformer: 83.88560148952182 kcal/mol)

>  <smiles>  (20) 
CCN(CC)CCNc1oc(-c2ccc(OCc3ccccc3)cc2)nc1C#N

>  <score_type>  (20) 
oracle

>  <origin>  (20) 
adg

>  <m_score__min__energy>  (20) 
-7.3399999999999999

>  <m_primary>  (20) 
energy

$$$$
20:0
     RDKit          3D

 54 56  0  0  0  0  0  0  0  0999 V2000
   58.1290   27.0830   42.8300 C   0  0  0  0  0  0  0  0  0  0  0  0
   57.7680   26.7990   44.2850 C   0  0  0  0  0  0  0  0  0  0  0  0
   57.8080   28.0360   45.0800 N   0  0  0  0  0  0  0  0  0  0  0  0
   56.8600   29.1070   44.8620 C   0  0  0  0  0  0  0  0  0  0  0  0
   55.6360   28.9220   45.1080 O   0  0  0  0  0  0  0  0  0  0  0  0
   57.2760   30.4300   44.3580 C   0  0  0  0  0  0  0  0  0  0  0  0
   57.1700   30.7450   42.9930 C   0  0  0  0  0  0  0  0  0  0  0  0
   57.5950   31.9920   42.5220 C   0  0  0  0  0  0  0  0  0  0  0  0
   58.1440   32.9250   43.4050 C   0  0  0  0  0  0  0  0  0  0  0  0
   58.2810   32.6120   44.7650 C   0  0  0  0  0  0  0  0  0  0  0  0
   59.0060   33.7730   45.8800 S   0  0  0  0  0  0  0  0  0  0  0  0
   58.1150   33.9280   47.0800 O   0  0  0  0  0  0  0  0  0  0  0  0
   59.1110   35.1130   45.2030 O   0  0  0  0  0  0  0  0  0  0  0  0
   60.5930   33.2590   46.4000 N   0  0  0  0  0  0  0  0  0  0  0  0
   61.0650   34.0910   47.5180 C   0  0  0  0  0  0  0  0  0  0  0  0
   62.5500   33.7980   47.8160 C   0  0  0  0  0  0  0  0  0  0  0  0
   62.9870   32.4080   47.3210 C   0  0  0  0  0  0  0  0  0  0  0  0
   61.8610   31.3830   47.4900 C   0  0  0  0  0  0  0  0  0  0  0  0
   60.5610   31.8330   46.7840 C   0  0  0  0  0  0  0  0  0  0  0  0
   57.8500   31.3630   45.2360 C   0  0  0  0  0  0  0  0  0  0  0  0
   58.6340   28.0520   46.2530 C   0  0  0  0  0  0  0  0  0  0  0  0
   58.4490   29.0320   47.2390 C   0  0  0  0  0  0  0  0  0  0  0  0
   59.2410   29.0300   48.3900 C   0  0  0  0  0  0  0  0  0  0  0  0
   60.2260   28.0510   48.5750 C   0  0  0  0  0  0  0  0  0  0  0  0
   60.9950   28.0920   49.7470 O   0  0  0  0  0  0  0  0  0  0  0  0
   61.2280   29.2680   50.5150 C   0  0  0  0  0  0  0  0  0  0  0  0
   60.4070   27.0640   47.5870 C   0  0  0  0  0  0  0  0  0  0  0  0
   59.6110   27.0650   46.4380 C   0  0  0  0  0  0  0  0  0  0  0  0
   58.9930   27.7627   42.7926 H   0  0  0  0  0  0  0  0  0  0  0  0
   58.3824   26.1396   42.3242 H   0  0  0  0  0  0  0  0  0  0  0  0
   57.2718   27.5514   42.3242 H   0  0  0  0  0  0  0  0  0  0  0  0
   56.7546   26.3735   44.3295 H   0  0  0  0  0  0  0  0  0  0  0  0
   58.4982   26.0880   44.6989 H   0  0  0  0  0  0  0  0  0  0  0  0
   56.7512   30.0083   42.2917 H   0  0  0  0  0  0  0  0  0  0  0  0
   57.4967   32.2382   41.4544 H   0  0  0  0  0  0  0  0  0  0  0  0
   58.4696   33.9075   43.0326 H   0  0  0  0  0  0  0  0  0  0  0  0
   60.9509   35.1526   47.2533 H   0  0  0  0  0  0  0  0  0  0  0  0
   60.4687   33.8586   48.4126 H   0  0  0  0  0  0  0  0  0  0  0  0
   63.1669   34.5601   47.3174 H   0  0  0  0  0  0  0  0  0  0  0  0
   62.6828   33.8211   48.9077 H   0  0  0  0  0  0  0  0  0  0  0  0
   63.2559   32.4740   46.2564 H   0  0  0  0  0  0  0  0  0  0  0  0
   63.8505   32.0800   47.9184 H   0  0  0  0  0  0  0  0  0  0  0  0
   62.1856   30.4240   47.0600 H   0  0  0  0  0  0  0  0  0  0  0  0
   61.6486   31.2840   48.5647 H   0  0  0  0  0  0  0  0  0  0  0  0
   60.4233   31.2260   45.8770 H   0  0  0  0  0  0  0  0  0  0  0  0
   59.7302   31.6949   47.4916 H   0  0  0  0  0  0  0  0  0  0  0  0
   57.9626   31.1127   46.3012 H   0  0  0  0  0  0  0  0  0  0  0  0
   57.6777   29.8049   47.1057 H   0  0  0  0  0  0  0  0  0  0  0  0
   59.0899   29.8035   49.1573 H   0  0  0  0  0  0  0  0  0  0  0  0
   61.1793   29.0221   51.5861 H   0  0  0  0  0  0  0  0  0  0  0  0
   62.2234   29.6707   50.2762 H   0  0  0  0  0  0  0  0  0  0  0  0
   60.4614   30.0198   50.2762 H   0  0  0  0  0  0  0  0  0  0  0  0
   61.1771   26.2899   47.7199 H   0  0  0  0  0  0  0  0  0  0  0  0
   59.7525   26.2861   45.6743 H   0  0  0  0  0  0  0  0  0  0  0  0
  1  2  1  0
  2  3  1  0
  3  4  1  0
  4  5  2  0
  4  6  1  0
  6  7  2  0
  7  8  1  0
  8  9  2  0
  9 10  1  0
 10 11  1  0
 11 12  2  0
 11 13  2  0
 11 14  1  0
 14 15  1  0
 15 16  1  0
 16 17  1  0
 17 18  1  0
 18 19  1  0
 10 20  2  0
  3 21  1  0
 21 22  2  0
 22 23  1  0
 23 24  2  0
 24 25  1  0
 25 26  1  0
 24 27  1  0
 27 28  2  0
 20  6  1  0
 28 21  1  0
 19 14  1  0
  1 29  1  0
  1 30  1  0
  1 31  1  0
  2 32  1  0
  2 33  1  0
  7 34  1  0
  8 35  1  0
  9 36  1  0
 15 37  1  0
 15 38  1  0
 16 39  1  0
 16 40  1  0
 17 41  1  0
 17 42  1  0
 18 43  1  0
 18 44  1  0
 19 45  1  0
 19 46  1  0
 20 47  1  0
 22 48  1  0
 23 49  1  0
 26 50  1  0
 26 51  1  0
 26 52  1  0
 27 53  1  0
 28 54  1  0
M  END
>  <UniqueID>  (21) 
21

>  <SMILES>  (21) 
CCN(C(=O)c1cccc(S(=O)(=O)N2CCCCC2)c1)c1ccc(OC)cc1

>  <Energy>  (21) 
66.06335858412855

>  <Genealogy>  (21) 
CCN(C(=O)c1cccc(S(=O)(=O)N2CCCCC2)c1)c1ccc(OC)cc1 (3D coordinates assigned)
CCN(C(=O)c1cccc(S(=O)(=O)N2CCCCC2)c1)c1ccc(OC)cc1 (nonaromatic ring conformer: 66.06335858412855 kcal/mol)

>  <smiles>  (21) 
CCN(C(=O)c1cccc(S(=O)(=O)N2CCCCC2)c1)c1ccc(OC)cc1

>  <score_type>  (21) 
oracle

>  <origin>  (21) 
adg

>  <m_score__min__energy>  (21) 
-9.7899999999999991

>  <m_primary>  (21) 
energy

$$$$
21:0
     RDKit          3D

 52 54  0  0  0  0  0  0  0  0999 V2000
   63.3900   33.8010   46.3860 C   0  0  0  0  0  0  0  0  0  0  0  0
   63.0060   33.8760   47.8720 C   0  0  0  0  0  0  0  0  0  0  0  0
   62.7750   32.5590   48.5220 N   0  0  0  0  0  0  0  0  0  0  0  0
   63.9750   31.9630   49.1530 C   0  0  0  0  0  0  0  0  0  0  0  0
   64.9320   33.0280   49.6880 C   0  0  0  0  0  0  0  0  0  0  0  0
   62.0900   31.5960   47.6270 C   0  0  0  0  0  0  0  0  0  0  0  0
   61.3720   30.5050   48.4350 C   0  0  0  0  0  0  0  0  0  0  0  0
   60.2900   31.0730   49.3780 C   0  0  0  0  0  0  0  0  0  0  0  0
   58.9990   31.1980   48.6990 N   0  0  0  0  0  0  0  0  0  0  0  0
   58.9000   31.4330   47.2830 C   0  0  0  0  0  0  0  0  0  0  0  0
   59.0770   32.7280   46.7680 C   0  0  0  0  0  0  0  0  0  0  0  0
   59.4640   33.7950   47.6060 C   0  0  0  0  0  0  0  0  0  0  0  0
   59.6550   35.0730   47.0890 C   0  0  0  0  0  0  0  0  0  0  0  0
   59.4800   35.3080   45.7290 C   0  0  0  0  0  0  0  0  0  0  0  0
   59.0910   34.2690   44.8820 C   0  0  0  0  0  0  0  0  0  0  0  0
   58.8540   32.9660   45.3860 C   0  0  0  0  0  0  0  0  0  0  0  0
   58.4200   31.9390   44.5680 N   0  0  0  0  0  0  0  0  0  0  0  0
   57.8820   32.2390   43.2230 C   0  0  0  0  0  0  0  0  0  0  0  0
   58.4660   30.6330   45.0180 C   0  0  0  0  0  0  0  0  0  0  0  0
   58.3200   29.5340   44.1340 C   0  0  0  0  0  0  0  0  0  0  0  0
   58.3410   28.2210   44.6070 C   0  0  0  0  0  0  0  0  0  0  0  0
   58.1470   26.8820   43.4900 Cl  0  0  0  0  0  0  0  0  0  0  0  0
   58.5340   27.9700   45.9620 C   0  0  0  0  0  0  0  0  0  0  0  0
   58.7180   29.0280   46.8490 C   0  0  0  0  0  0  0  0  0  0  0  0
   58.6840   30.3640   46.3960 C   0  0  0  0  0  0  0  0  0  0  0  0
   64.4659   33.5909   46.2955 H   0  0  0  0  0  0  0  0  0  0  0  0
   62.8173   32.9977   45.8994 H   0  0  0  0  0  0  0  0  0  0  0  0
   63.1616   34.7607   45.8994 H   0  0  0  0  0  0  0  0  0  0  0  0
   63.8185   34.3858   48.4104 H   0  0  0  0  0  0  0  0  0  0  0  0
   62.0494   34.4170   47.9184 H   0  0  0  0  0  0  0  0  0  0  0  0
   63.6554   31.3218   49.9877 H   0  0  0  0  0  0  0  0  0  0  0  0
   64.5085   31.3828   48.3857 H   0  0  0  0  0  0  0  0  0  0  0  0
   64.9189   33.0135   50.7878 H   0  0  0  0  0  0  0  0  0  0  0  0
   65.9509   32.8182   49.3306 H   0  0  0  0  0  0  0  0  0  0  0  0
   64.6148   34.0188   49.3306 H   0  0  0  0  0  0  0  0  0  0  0  0
   61.3512   32.1358   47.0165 H   0  0  0  0  0  0  0  0  0  0  0  0
   62.8448   31.1167   46.9862 H   0  0  0  0  0  0  0  0  0  0  0  0
   60.8945   29.8051   47.7335 H   0  0  0  0  0  0  0  0  0  0  0  0
   62.1267   30.0052   49.0601 H   0  0  0  0  0  0  0  0  0  0  0  0
   60.1769   30.3986   50.2397 H   0  0  0  0  0  0  0  0  0  0  0  0
   60.6072   32.0746   49.7039 H   0  0  0  0  0  0  0  0  0  0  0  0
   58.1220   31.0630   49.2500 H   0  0  0  0  0  0  0  0  0  0  0  0
   59.6165   33.6148   48.6804 H   0  0  0  0  0  0  0  0  0  0  0  0
   59.9446   35.8981   47.7564 H   0  0  0  0  0  0  0  0  0  0  0  0
   59.6486   36.3152   45.3201 H   0  0  0  0  0  0  0  0  0  0  0  0
   58.9665   34.4647   43.8067 H   0  0  0  0  0  0  0  0  0  0  0  0
   56.9251   32.7726   43.3215 H   0  0  0  0  0  0  0  0  0  0  0  0
   58.5978   32.8682   42.6737 H   0  0  0  0  0  0  0  0  0  0  0  0
   57.7230   31.2993   42.6737 H   0  0  0  0  0  0  0  0  0  0  0  0
   58.1880   29.7193   43.0578 H   0  0  0  0  0  0  0  0  0  0  0  0
   58.5413   26.9345   46.3332 H   0  0  0  0  0  0  0  0  0  0  0  0
   58.8918   28.8197   47.9150 H   0  0  0  0  0  0  0  0  0  0  0  0
  1  2  1  0
  2  3  1  0
  3  4  1  0
  4  5  1  0
  3  6  1  0
  6  7  1  0
  7  8  1  0
  8  9  1  0
  9 10  1  0
 10 11  2  0
 11 12  1  0
 12 13  2  0
 13 14  1  0
 14 15  2  0
 15 16  1  0
 16 17  2  0
 17 18  1  0
 17 19  1  0
 19 20  2  0
 20 21  1  0
 21 22  1  0
 21 23  2  0
 23 24  1  0
 24 25  2  0
 25 10  1  0
 16 11  1  0
 25 19  1  0
  1 26  1  0
  1 27  1  0
  1 28  1  0
  2 29  1  0
  2 30  1  0
  4 31  1  0
  4 32  1  0
  5 33  1  0
  5 34  1  0
  5 35  1  0
  6 36  1  0
  6 37  1  0
  7 38  1  0
  7 39  1  0
  8 40  1  0
  8 41  1  0
  9 42  1  0
 12 43  1  0
 13 44  1  0
 14 45  1  0
 15 46  1  0
 18 47  1  0
 18 48  1  0
 18 49  1  0
 20 50  1  0
 23 51  1  0
 24 52  1  0
M  CHG  1  17   1
M  END
>  <UniqueID>  (22) 
22

>  <SMILES>  (22) 
CCN(CC)CCCNc1c2ccccc2[n+](C)c2cc(Cl)ccc12

>  <Energy>  (22) 
76.37201524108993

>  <Genealogy>  (22) 
CCN(CC)CCCNc1c2ccccc2[n+](C)c2cc(Cl)ccc12 (3D coordinates assigned)
CCN(CC)CCCNc1c2ccccc2[n+](C)c2cc(Cl)ccc12 (optimized conformer: 76.37201524108993 kcal/mol)

>  <smiles>  (22) 
CCN(CC)CCCNc1c2ccccc2[n+](C)c2cc(Cl)ccc12

>  <score_type>  (22) 
oracle

>  <origin>  (22) 
adg

>  <m_score__min__energy>  (22) 
-5.8499999999999996

>  <m_primary>  (22) 
energy

$$$$
22:0
     RDKit          3D

 68 72  0  0  0  0  0  0  0  0999 V2000
   55.1080   22.5660   48.2480 C   0  0  0  0  0  0  0  0  0  0  0  0
   56.2780   21.7730   48.8210 C   0  0  0  0  0  0  0  0  0  0  0  0
   57.1120   21.2760   47.7750 O   0  0  0  0  0  0  0  0  0  0  0  0
   56.6690   20.7090   46.5680 C   0  0  0  0  0  0  0  0  0  0  0  0
   55.9900   19.4730   46.5250 C   0  0  0  0  0  0  0  0  0  0  0  0
   55.6040   18.9220   45.3030 C   0  0  0  0  0  0  0  0  0  0  0  0
   55.8870   19.5890   44.1110 C   0  0  0  0  0  0  0  0  0  0  0  0
   56.5550   20.8130   44.1380 C   0  0  0  0  0  0  0  0  0  0  0  0
   56.9430   21.3870   45.3610 C   0  0  0  0  0  0  0  0  0  0  0  0
   57.6180   22.6580   45.3690 N   0  0  0  0  0  0  0  0  0  0  0  0
   56.8620   23.8770   45.6960 C   0  0  0  0  0  0  0  0  0  0  0  0
   57.6450   25.1410   45.3260 C   0  0  0  0  0  0  0  0  0  0  0  0
   59.0260   25.0470   45.8210 N   0  0  0  0  0  0  0  0  0  0  0  0
   59.6630   26.1200   46.5500 C   0  0  0  0  0  0  0  0  0  0  0  0
   60.4630   25.8280   47.4790 O   0  0  0  0  0  0  0  0  0  0  0  0
   59.4430   27.5940   46.2510 C   0  0  0  0  0  0  0  0  0  0  0  0
   60.5380   28.1510   45.3250 C   0  0  0  0  0  0  0  0  0  0  0  0
   60.5010   29.6760   45.2940 C   0  0  0  0  0  0  0  0  0  0  0  0
   60.7300   30.2140   46.6370 N   0  0  0  0  0  0  0  0  0  0  0  0
   61.1010   31.5950   46.7520 C   0  0  0  0  0  0  0  0  0  0  0  0
   62.3650   31.9070   47.1730 N   0  0  0  0  0  0  0  0  0  0  0  0
   62.8000   33.1990   47.2370 C   0  0  0  0  0  0  0  0  0  0  0  0
   61.9810   34.2200   46.8720 N   0  0  0  0  0  0  0  0  0  0  0  0
   60.7250   33.9370   46.4590 C   0  0  0  0  0  0  0  0  0  0  0  0
   59.5780   35.0480   45.9660 S   0  0  0  0  0  0  0  0  0  0  0  0
   58.3890   33.8880   45.6590 C   0  0  0  0  0  0  0  0  0  0  0  0
   57.0150   34.2210   45.1690 C   0  0  0  0  0  0  0  0  0  0  0  0
   58.8790   32.6070   45.9660 C   0  0  0  0  0  0  0  0  0  0  0  0
   58.0390   31.3660   45.8540 C   0  0  0  0  0  0  0  0  0  0  0  0
   60.2290   32.6440   46.3950 C   0  0  0  0  0  0  0  0  0  0  0  0
   60.2000   29.5380   47.8320 C   0  0  0  0  0  0  0  0  0  0  0  0
   59.1410   28.4680   47.5010 C   0  0  0  0  0  0  0  0  0  0  0  0
   59.7810   23.7960   45.6310 C   0  0  0  0  0  0  0  0  0  0  0  0
   58.9820   22.7600   44.8340 C   0  0  0  0  0  0  0  0  0  0  0  0
   54.5042   22.9753   49.0714 H   0  0  0  0  0  0  0  0  0  0  0  0
   55.4919   23.3908   47.6297 H   0  0  0  0  0  0  0  0  0  0  0  0
   54.4841   21.9039   47.6297 H   0  0  0  0  0  0  0  0  0  0  0  0
   56.8717   22.4279   49.4757 H   0  0  0  0  0  0  0  0  0  0  0  0
   55.8812   20.9205   49.3917 H   0  0  0  0  0  0  0  0  0  0  0  0
   55.7637   18.9407   47.4606 H   0  0  0  0  0  0  0  0  0  0  0  0
   55.0746   17.9581   45.2793 H   0  0  0  0  0  0  0  0  0  0  0  0
   55.5832   19.1495   43.1495 H   0  0  0  0  0  0  0  0  0  0  0  0
   56.7799   21.3331   43.1952 H   0  0  0  0  0  0  0  0  0  0  0  0
   55.9131   23.8689   45.1396 H   0  0  0  0  0  0  0  0  0  0  0  0
   56.6804   23.8893   46.7808 H   0  0  0  0  0  0  0  0  0  0  0  0
   57.6582   25.2527   44.2318 H   0  0  0  0  0  0  0  0  0  0  0  0
   57.1574   26.0126   45.7871 H   0  0  0  0  0  0  0  0  0  0  0  0
   58.5022   27.6587   45.6846 H   0  0  0  0  0  0  0  0  0  0  0  0
   61.5215   27.8220   45.6917 H   0  0  0  0  0  0  0  0  0  0  0  0
   60.3621   27.7744   44.3066 H   0  0  0  0  0  0  0  0  0  0  0  0
   61.2848   30.0449   44.6161 H   0  0  0  0  0  0  0  0  0  0  0  0
   59.5130   30.0043   44.9390 H   0  0  0  0  0  0  0  0  0  0  0  0
   63.0230   31.1400   47.4400 H   0  0  0  0  0  0  0  0  0  0  0  0
   63.8204   33.4153   47.5864 H   0  0  0  0  0  0  0  0  0  0  0  0
   56.3482   34.3826   46.0288 H   0  0  0  0  0  0  0  0  0  0  0  0
   57.0549   35.1355   44.5590 H   0  0  0  0  0  0  0  0  0  0  0  0
   56.6318   33.3897   44.5590 H   0  0  0  0  0  0  0  0  0  0  0  0
   57.7907   30.9992   46.8609 H   0  0  0  0  0  0  0  0  0  0  0  0
   57.1119   31.5986   45.3096 H   0  0  0  0  0  0  0  0  0  0  0  0
   58.5995   30.5918   45.3096 H   0  0  0  0  0  0  0  0  0  0  0  0
   61.0348   29.0531   48.3592 H   0  0  0  0  0  0  0  0  0  0  0  0
   59.7106   30.3034   48.4522 H   0  0  0  0  0  0  0  0  0  0  0  0
   59.0520   27.7987   48.3694 H   0  0  0  0  0  0  0  0  0  0  0  0
   58.2169   29.0180   47.2698 H   0  0  0  0  0  0  0  0  0  0  0  0
   60.7112   24.0212   45.0887 H   0  0  0  0  0  0  0  0  0  0  0  0
   59.9925   23.3722   46.6238 H   0  0  0  0  0  0  0  0  0  0  0  0
   58.9374   23.0674   43.7788 H   0  0  0  0  0  0  0  0  0  0  0  0
   59.4765   21.7809   44.9166 H   0  0  0  0  0  0  0  0  0  0  0  0
  1  2  1  0
  2  3  1  0
  3  4  1  0
  4  5  2  0
  5  6  1  0
  6  7  2  0
  7  8  1  0
  8  9  2  0
  9 10  1  0
 10 11  1  0
 11 12  1  0
 12 13  1  0
 13 14  1  0
 14 15  2  0
 14 16  1  0
 16 17  1  0
 17 18  1  0
 18 19  1  0
 19 20  1  0
 20 21  2  0
 21 22  1  0
 22 23  2  0
 23 24  1  0
 24 25  1  0
 25 26  1  0
 26 27  1  0
 26 28  2  0
 28 29  1  0
 28 30  1  0
 19 31  1  0
 31 32  1  0
 13 33  1  0
 33 34  1  0
  9  4  1  0
 34 10  1  0
 32 16  1  0
 30 20  1  0
 30 24  2  0
  1 35  1  0
  1 36  1  0
  1 37  1  0
  2 38  1  0
  2 39  1  0
  5 40  1  0
  6 41  1  0
  7 42  1  0
  8 43  1  0
 11 44  1  0
 11 45  1  0
 12 46  1  0
 12 47  1  0
 16 48  1  0
 17 49  1  0
 17 50  1  0
 18 51  1  0
 18 52  1  0
 21 53  1  0
 22 54  1  0
 27 55  1  0
 27 56  1  0
 27 57  1  0
 29 58  1  0
 29 59  1  0
 29 60  1  0
 31 61  1  0
 31 62  1  0
 32 63  1  0
 32 64  1  0
 33 65  1  0
 33 66  1  0
 34 67  1  0
 34 68  1  0
M  CHG  1  21   1
M  END
>  <UniqueID>  (23) 
23

>  <SMILES>  (23) 
CCOc1ccccc1N1CCN(C(=O)C2CCN(c3[nH+]cnc4sc(C)c(C)c34)CC2)CC1

>  <Energy>  (23) 
120.90618496229625

>  <Genealogy>  (23) 
CCOc1ccccc1N1CCN(C(=O)C2CCN(c3[nH+]cnc4sc(C)c(C)c34)CC2)CC1 (protonated)
CCOc1ccccc1N1CCN(C(=O)C2CCN(c3[nH+]cnc4sc(C)c(C)c34)CC2)CC1 (3D coordinates assigned)
CCOc1ccccc1N1CCN(C(=O)C2CCN(c3[nH+]cnc4sc(C)c(C)c34)CC2)CC1 (nonaromatic ring conformer: 120.90618496229625 kcal/mol)

>  <smiles>  (23) 
CCOc1ccccc1N1CCN(C(=O)C2CCN(c3ncnc4sc(C)c(C)c34)CC2)CC1

>  <score_type>  (23) 
oracle

>  <origin>  (23) 
adg

>  <m_score__min__energy>  (23) 
-6.8399999999999999

>  <m_primary>  (23) 
energy

$$$$
23:0
     RDKit          3D

 46 50  0  0  0  0  0  0  0  0999 V2000
   60.1150   30.6020   50.6260 C   0  0  0  0  0  0  0  0  0  0  0  0
   60.0160   30.7120   49.1730 N   0  0  0  0  0  0  0  0  0  0  0  0
   58.9390   30.3820   48.4400 C   0  0  0  0  0  0  0  0  0  0  0  0
   59.2100   30.6840   47.1200 C   0  0  0  0  0  0  0  0  0  0  0  0
   58.2730   30.5420   45.9800 C   0  0  0  0  0  0  0  0  0  0  0  0
   58.0850   29.2670   45.4170 C   0  0  0  0  0  0  0  0  0  0  0  0
   57.1840   29.0790   44.3720 C   0  0  0  0  0  0  0  0  0  0  0  0
   56.4700   30.1690   43.8830 C   0  0  0  0  0  0  0  0  0  0  0  0
   56.6660   31.4020   44.4170 N   0  0  0  0  0  0  0  0  0  0  0  0
   57.5370   31.6290   45.4390 C   0  0  0  0  0  0  0  0  0  0  0  0
   57.7300   33.3020   45.9730 S   0  0  0  0  0  0  0  0  0  0  0  0
   57.4080   33.3710   47.4410 O   0  0  0  0  0  0  0  0  0  0  0  0
   56.7670   34.1970   45.2450 O   0  0  0  0  0  0  0  0  0  0  0  0
   59.4160   33.8400   45.6730 C   0  0  0  0  0  0  0  0  0  0  0  0
   60.1270   34.4140   46.8870 C   0  0  0  0  0  0  0  0  0  0  0  0
   59.6370   35.3390   45.7830 C   0  0  0  0  0  0  0  0  0  0  0  0
   60.4460   31.2120   47.0260 N   0  0  0  0  0  0  0  0  0  0  0  0
   60.9230   31.1930   48.2880 C   0  0  0  0  0  0  0  0  0  0  0  0
   62.2720   31.6960   48.6110 C   0  0  0  0  0  0  0  0  0  0  0  0
   62.8660   32.7460   47.8910 C   0  0  0  0  0  0  0  0  0  0  0  0
   64.1300   33.2110   48.2600 C   0  0  0  0  0  0  0  0  0  0  0  0
   64.7880   32.6440   49.3560 C   0  0  0  0  0  0  0  0  0  0  0  0
   66.0560   33.0900   49.7580 C   0  0  0  0  0  0  0  0  0  0  0  0
   66.6830   32.5090   50.8660 C   0  0  0  0  0  0  0  0  0  0  0  0
   66.0480   31.4850   51.5760 C   0  0  0  0  0  0  0  0  0  0  0  0
   64.7840   31.0340   51.1830 C   0  0  0  0  0  0  0  0  0  0  0  0
   64.1510   31.6080   50.0740 C   0  0  0  0  0  0  0  0  0  0  0  0
   62.9220   31.1740   49.6870 N   0  0  0  0  0  0  0  0  0  0  0  0
   59.4496   31.3413   51.0959 H   0  0  0  0  0  0  0  0  0  0  0  0
   59.8174   29.5901   50.9382 H   0  0  0  0  0  0  0  0  0  0  0  0
   61.1525   30.7918   50.9382 H   0  0  0  0  0  0  0  0  0  0  0  0
   58.0046   29.9472   48.8244 H   0  0  0  0  0  0  0  0  0  0  0  0
   58.6550   28.4103   45.8057 H   0  0  0  0  0  0  0  0  0  0  0  0
   57.0381   28.0791   43.9374 H   0  0  0  0  0  0  0  0  0  0  0  0
   55.7477   30.0318   43.0648 H   0  0  0  0  0  0  0  0  0  0  0  0
   59.6514   33.0708   44.9227 H   0  0  0  0  0  0  0  0  0  0  0  0
   59.6281   34.4149   47.8673 H   0  0  0  0  0  0  0  0  0  0  0  0
   61.0940   34.2343   47.3795 H   0  0  0  0  0  0  0  0  0  0  0  0
   58.7837   36.0090   45.9650 H   0  0  0  0  0  0  0  0  0  0  0  0
   60.1029   36.1055   45.1463 H   0  0  0  0  0  0  0  0  0  0  0  0
   62.3375   33.2001   47.0399 H   0  0  0  0  0  0  0  0  0  0  0  0
   64.6071   34.0216   47.6897 H   0  0  0  0  0  0  0  0  0  0  0  0
   66.5572   33.8962   49.2023 H   0  0  0  0  0  0  0  0  0  0  0  0
   67.6778   32.8586   51.1793 H   0  0  0  0  0  0  0  0  0  0  0  0
   66.5447   31.0326   52.4470 H   0  0  0  0  0  0  0  0  0  0  0  0
   64.2875   30.2290   51.7447 H   0  0  0  0  0  0  0  0  0  0  0  0
  1  2  1  0
  2  3  1  0
  3  4  2  0
  4  5  1  0
  5  6  2  0
  6  7  1  0
  7  8  2  0
  8  9  1  0
  9 10  2  0
 10 11  1  0
 11 12  2  0
 11 13  2  0
 11 14  1  0
 14 15  1  0
 15 16  1  0
  4 17  1  0
 17 18  2  0
 18 19  1  0
 19 20  2  0
 20 21  1  0
 21 22  2  0
 22 23  1  0
 23 24  2  0
 24 25  1  0
 25 26  2  0
 26 27  1  0
 27 28  2  0
 18  2  1  0
 28 19  1  0
 10  5  1  0
 16 14  1  0
 27 22  1  0
  1 29  1  0
  1 30  1  0
  1 31  1  0
  3 32  1  0
  6 33  1  0
  7 34  1  0
  8 35  1  0
 14 36  1  0
 15 37  1  0
 15 38  1  0
 16 39  1  0
 16 40  1  0
 20 41  1  0
 21 42  1  0
 23 43  1  0
 24 44  1  0
 25 45  1  0
 26 46  1  0
M  END
>  <UniqueID>  (24) 
24

>  <SMILES>  (24) 
Cn1cc(-c2cccnc2S(=O)(=O)C2CC2)nc1-c1ccc2ccccc2n1

>  <Energy>  (24) 
356.589696288757

>  <Genealogy>  (24) 
Cn1cc(-c2cccnc2S(=O)(=O)C2CC2)nc1-c1ccc2ccccc2n1 (3D coordinates assigned)
Cn1cc(-c2cccnc2S(=O)(=O)C2CC2)nc1-c1ccc2ccccc2n1 (nonaromatic ring conformer: 356.589696288757 kcal/mol)

>  <smiles>  (24) 
Cn1cc(-c2cccnc2S(=O)(=O)C2CC2)nc1-c1ccc2ccccc2n1

>  <score_type>  (24) 
oracle

>  <origin>  (24) 
adg

>  <m_score__min__energy>  (24) 
-8.6999999999999993

>  <m_primary>  (24) 
energy

$$$$
24:0
     RDKit          3D

 40 41  0  0  0  0  0  0  0  0999 V2000
   63.3750   33.7630   47.9800 C   0  0  0  0  0  0  0  0  0  0  0  0
   62.9300   34.1790   49.3770 C   0  0  0  0  0  0  0  0  0  0  0  0
   61.5620   34.5880   49.3740 O   0  0  0  0  0  0  0  0  0  0  0  0
   60.5570   34.0670   48.5420 C   0  0  0  0  0  0  0  0  0  0  0  0
   60.0190   34.7800   47.4530 C   0  0  0  0  0  0  0  0  0  0  0  0
   59.0180   34.2090   46.6620 C   0  0  0  0  0  0  0  0  0  0  0  0
   58.5290   32.9240   46.9420 C   0  0  0  0  0  0  0  0  0  0  0  0
   57.4940   32.3680   46.1100 N   0  0  0  0  0  0  0  0  0  0  0  0
   57.0830   32.9610   44.8370 C   0  0  0  0  0  0  0  0  0  0  0  0
   57.9550   32.4700   43.6610 C   0  0  0  0  0  0  0  0  0  0  0  0
   57.9060   31.0080   43.4260 N   0  0  0  0  0  0  0  0  0  0  0  0
   56.6570   30.4920   42.8290 C   0  0  0  0  0  0  0  0  0  0  0  0
   55.6450   29.9870   43.8840 C   0  0  0  0  0  0  0  0  0  0  0  0
   56.1710   29.9570   45.1960 O   0  0  0  0  0  0  0  0  0  0  0  0
   57.4170   29.2960   45.1910 C   0  0  0  0  0  0  0  0  0  0  0  0
   58.4770   30.1700   44.5050 C   0  0  0  0  0  0  0  0  0  0  0  0
   59.0680   32.2140   48.0300 C   0  0  0  0  0  0  0  0  0  0  0  0
   60.0700   32.7850   48.8210 C   0  0  0  0  0  0  0  0  0  0  0  0
   64.1765   33.0137   48.0584 H   0  0  0  0  0  0  0  0  0  0  0  0
   62.5215   33.3314   47.4366 H   0  0  0  0  0  0  0  0  0  0  0  0
   63.7482   34.6436   47.4366 H   0  0  0  0  0  0  0  0  0  0  0  0
   63.0498   33.3268   50.0621 H   0  0  0  0  0  0  0  0  0  0  0  0
   63.5499   35.0260   49.7062 H   0  0  0  0  0  0  0  0  0  0  0  0
   60.3882   35.7906   47.2240 H   0  0  0  0  0  0  0  0  0  0  0  0
   58.6092   34.7731   45.8108 H   0  0  0  0  0  0  0  0  0  0  0  0
   57.0220   31.4950   46.4400 H   0  0  0  0  0  0  0  0  0  0  0  0
   56.0356   32.6886   44.6402 H   0  0  0  0  0  0  0  0  0  0  0  0
   57.2028   34.0516   44.9162 H   0  0  0  0  0  0  0  0  0  0  0  0
   57.6139   32.9763   42.7460 H   0  0  0  0  0  0  0  0  0  0  0  0
   58.9961   32.7091   43.9235 H   0  0  0  0  0  0  0  0  0  0  0  0
   56.1857   31.2998   42.2500 H   0  0  0  0  0  0  0  0  0  0  0  0
   56.9259   29.6344   42.1948 H   0  0  0  0  0  0  0  0  0  0  0  0
   54.7694   30.6528   43.8743 H   0  0  0  0  0  0  0  0  0  0  0  0
   55.3834   28.9530   43.6148 H   0  0  0  0  0  0  0  0  0  0  0  0
   57.7263   29.0955   46.2274 H   0  0  0  0  0  0  0  0  0  0  0  0
   57.3195   28.3495   44.6390 H   0  0  0  0  0  0  0  0  0  0  0  0
   58.9340   30.8279   45.2588 H   0  0  0  0  0  0  0  0  0  0  0  0
   59.2213   29.4996   44.0505 H   0  0  0  0  0  0  0  0  0  0  0  0
   58.6992   31.2035   48.2601 H   0  0  0  0  0  0  0  0  0  0  0  0
   60.4797   32.2205   49.6715 H   0  0  0  0  0  0  0  0  0  0  0  0
  1  2  1  0
  2  3  1  0
  3  4  1  0
  4  5  2  0
  5  6  1  0
  6  7  2  0
  7  8  1  0
  8  9  1  0
  9 10  1  0
 10 11  1  0
 11 12  1  0
 12 13  1  0
 13 14  1  0
 14 15  1  0
 15 16  1  0
  7 17  1  0
 17 18  2  0
 18  4  1  0
 16 11  1  0
  1 19  1  0
  1 20  1  0
  1 21  1  0
  2 22  1  0
  2 23  1  0
  5 24  1  0
  6 25  1  0
  8 26  1  0
  9 27  1  0
  9 28  1  0
 10 29  1  0
 10 30  1  0
 12 31  1  0
 12 32  1  0
 13 33  1  0
 13 34  1  0
 15 35  1  0
 15 36  1  0
 16 37  1  0
 16 38  1  0
 17 39  1  0
 18 40  1  0
M  END
>  <UniqueID>  (25) 
25

>  <SMILES>  (25) 
CCOc1ccc(NCCN2CCOCC2)cc1

>  <Energy>  (25) 
51.891715557211064

>  <Genealogy>  (25) 
CCOc1ccc(NCCN2CCOCC2)cc1 (3D coordinates assigned)
CCOc1ccc(NCCN2CCOCC2)cc1 (nonaromatic ring conformer: 51.891715557211064 kcal/mol)

>  <smiles>  (25) 
CCOc1ccc(NCCN2CCOCC2)cc1

>  <score_type>  (25) 
oracle

>  <origin>  (25) 
adg

>  <m_score__min__energy>  (25) 
-6.04

>  <m_primary>  (25) 
energy

$$$$
25:0
     RDKit          3D

 34 35  0  0  0  0  0  0  0  0999 V2000
   59.2680   30.2310   47.9690 C   0  0  0  0  0  0  0  0  0  0  0  0
   58.3960   31.2160   47.4240 O   0  0  0  0  0  0  0  0  0  0  0  0
   58.2300   31.4630   46.0510 C   0  0  0  0  0  0  0  0  0  0  0  0
   58.3530   30.4350   45.0950 C   0  0  0  0  0  0  0  0  0  0  0  0
   58.1990   30.7080   43.7350 C   0  0  0  0  0  0  0  0  0  0  0  0
   57.9140   32.0070   43.3090 C   0  0  0  0  0  0  0  0  0  0  0  0
   57.7320   32.3490   41.5990 Cl  0  0  0  0  0  0  0  0  0  0  0  0
   57.7840   33.0340   44.2450 C   0  0  0  0  0  0  0  0  0  0  0  0
   57.9480   32.7780   45.6170 C   0  0  0  0  0  0  0  0  0  0  0  0
   57.8670   33.9290   46.5900 C   0  0  0  0  0  0  0  0  0  0  0  0
   59.0440   33.9520   47.4750 N   0  0  0  0  0  0  0  0  0  0  0  0
   60.2250   34.5530   46.8330 C   0  0  0  0  0  0  0  0  0  0  0  0
   61.4870   33.8200   47.2130 C   0  0  0  0  0  0  0  0  0  0  0  0
   61.5570   33.0990   48.4140 C   0  0  0  0  0  0  0  0  0  0  0  0
   62.7220   32.3960   48.7260 C   0  0  0  0  0  0  0  0  0  0  0  0
   63.7870   32.4210   47.8780 N   0  0  0  0  0  0  0  0  0  0  0  0
   63.7520   33.1330   46.7190 C   0  0  0  0  0  0  0  0  0  0  0  0
   62.6060   33.8500   46.3690 C   0  0  0  0  0  0  0  0  0  0  0  0
   59.2294   30.2746   49.0675 H   0  0  0  0  0  0  0  0  0  0  0  0
   58.9516   29.2334   47.6303 H   0  0  0  0  0  0  0  0  0  0  0  0
   60.2966   30.4241   47.6303 H   0  0  0  0  0  0  0  0  0  0  0  0
   58.5723   29.4084   45.4235 H   0  0  0  0  0  0  0  0  0  0  0  0
   58.3023   29.8985   42.9974 H   0  0  0  0  0  0  0  0  0  0  0  0
   57.5509   34.0540   43.9054 H   0  0  0  0  0  0  0  0  0  0  0  0
   57.8204   34.8734   46.0279 H   0  0  0  0  0  0  0  0  0  0  0  0
   56.9651   33.8049   47.2074 H   0  0  0  0  0  0  0  0  0  0  0  0
   59.2860   32.9570   47.6940 H   0  0  0  0  0  0  0  0  0  0  0  0
   60.1003   34.5096   45.7410 H   0  0  0  0  0  0  0  0  0  0  0  0
   60.3127   35.5954   47.1733 H   0  0  0  0  0  0  0  0  0  0  0  0
   60.7008   33.0876   49.1045 H   0  0  0  0  0  0  0  0  0  0  0  0
   62.7799   31.8194   49.6610 H   0  0  0  0  0  0  0  0  0  0  0  0
   64.6490   31.8860   48.1240 H   0  0  0  0  0  0  0  0  0  0  0  0
   64.6293   33.1438   46.0556 H   0  0  0  0  0  0  0  0  0  0  0  0
   62.5814   34.4344   45.4374 H   0  0  0  0  0  0  0  0  0  0  0  0
  1  2  1  0
  2  3  1  0
  3  4  2  0
  4  5  1  0
  5  6  2  0
  6  7  1  0
  6  8  1  0
  8  9  2  0
  9 10  1  0
 10 11  1  0
 11 12  1  0
 12 13  1  0
 13 14  2  0
 14 15  1  0
 15 16  2  0
 16 17  1  0
 17 18  2  0
  9  3  1  0
 18 13  1  0
  1 19  1  0
  1 20  1  0
  1 21  1  0
  4 22  1  0
  5 23  1  0
  8 24  1  0
 10 25  1  0
 10 26  1  0
 11 27  1  0
 12 28  1  0
 12 29  1  0
 14 30  1  0
 15 31  1  0
 16 32  1  0
 17 33  1  0
 18 34  1  0
M  CHG  1  16   1
M  END
>  <UniqueID>  (26) 
26

>  <SMILES>  (26) 
COc1ccc(Cl)cc1CNCc1cc[nH+]cc1

>  <Energy>  (26) 
30.670818795429124

>  <Genealogy>  (26) 
COc1ccc(Cl)cc1CNCc1cc[nH+]cc1 (protonated)
COc1ccc(Cl)cc1CNCc1cc[nH+]cc1 (3D coordinates assigned)
COc1ccc(Cl)cc1CNCc1cc[nH+]cc1 (optimized conformer: 30.670818795429124 kcal/mol)

>  <smiles>  (26) 
COc1ccc(Cl)cc1CNCc1ccncc1

>  <score_type>  (26) 
oracle

>  <origin>  (26) 
adg

>  <m_score__min__energy>  (26) 
-5.0199999999999996

>  <m_primary>  (26) 
energy

$$$$
26:0
     RDKit          3D

 53 56  0  0  0  0  0  0  0  0999 V2000
   65.6540   31.9310   50.4380 C   0  0  0  0  0  0  0  0  0  0  0  0
   65.0830   33.0850   49.6050 C   0  0  0  0  0  0  0  0  0  0  0  0
   64.0520   32.6250   48.6330 N   0  0  0  0  0  0  0  0  0  0  0  0
   63.3180   33.7890   48.0690 C   0  0  0  0  0  0  0  0  0  0  0  0
   63.3970   33.8430   46.5380 C   0  0  0  0  0  0  0  0  0  0  0  0
   63.1090   31.6890   49.3030 C   0  0  0  0  0  0  0  0  0  0  0  0
   61.6600   31.7950   48.7630 C   0  0  0  0  0  0  0  0  0  0  0  0
   61.5750   31.3970   47.3550 N   0  0  0  0  0  0  0  0  0  0  0  0
   60.3160   31.2380   46.6840 C   0  0  0  0  0  0  0  0  0  0  0  0
   59.5990   32.3310   46.1570 C   0  0  0  0  0  0  0  0  0  0  0  0
   60.0100   33.6550   46.4030 C   0  0  0  0  0  0  0  0  0  0  0  0
   59.2900   34.7300   45.8880 C   0  0  0  0  0  0  0  0  0  0  0  0
   58.1390   34.5060   45.1390 C   0  0  0  0  0  0  0  0  0  0  0  0
   57.6970   33.2050   44.8980 C   0  0  0  0  0  0  0  0  0  0  0  0
   58.4150   32.0870   45.3910 C   0  0  0  0  0  0  0  0  0  0  0  0
   57.9840   30.7900   45.1600 N   0  0  0  0  0  0  0  0  0  0  0  0
   57.0340   30.5130   44.0680 C   0  0  0  0  0  0  0  0  0  0  0  0
   58.5570   29.7610   45.8790 C   0  0  0  0  0  0  0  0  0  0  0  0
   59.7430   29.9780   46.5800 C   0  0  0  0  0  0  0  0  0  0  0  0
   60.3320   28.5400   47.2310 S   0  0  0  0  0  0  0  0  0  0  0  0
   59.0440   27.6150   46.6820 C   0  0  0  0  0  0  0  0  0  0  0  0
   58.8370   26.2600   46.9210 C   0  0  0  0  0  0  0  0  0  0  0  0
   57.6450   25.6770   46.4750 C   0  0  0  0  0  0  0  0  0  0  0  0
   57.3410   23.9740   46.7620 Cl  0  0  0  0  0  0  0  0  0  0  0  0
   56.6730   26.4650   45.8350 C   0  0  0  0  0  0  0  0  0  0  0  0
   56.8970   27.8330   45.6070 C   0  0  0  0  0  0  0  0  0  0  0  0
   58.1250   28.4080   45.9890 C   0  0  0  0  0  0  0  0  0  0  0  0
   65.5407   32.1600   51.5079 H   0  0  0  0  0  0  0  0  0  0  0  0
   65.1105   31.0043   50.2018 H   0  0  0  0  0  0  0  0  0  0  0  0
   66.7204   31.8009   50.2018 H   0  0  0  0  0  0  0  0  0  0  0  0
   64.6258   33.8193   50.2845 H   0  0  0  0  0  0  0  0  0  0  0  0
   65.9110   33.5284   49.0324 H   0  0  0  0  0  0  0  0  0  0  0  0
   64.5290   32.1150   47.8520 H   0  0  0  0  0  0  0  0  0  0  0  0
   62.2613   33.7181   48.3661 H   0  0  0  0  0  0  0  0  0  0  0  0
   63.7862   34.7036   48.4618 H   0  0  0  0  0  0  0  0  0  0  0  0
   64.2704   34.4400   46.2367 H   0  0  0  0  0  0  0  0  0  0  0  0
   63.4954   32.8224   46.1397 H   0  0  0  0  0  0  0  0  0  0  0  0
   62.4818   34.3053   46.1397 H   0  0  0  0  0  0  0  0  0  0  0  0
   63.4664   30.6605   49.1466 H   0  0  0  0  0  0  0  0  0  0  0  0
   63.0820   31.9582   50.3692 H   0  0  0  0  0  0  0  0  0  0  0  0
   61.0088   31.1386   49.3588 H   0  0  0  0  0  0  0  0  0  0  0  0
   61.3408   32.8447   48.8422 H   0  0  0  0  0  0  0  0  0  0  0  0
   62.4530   31.3420   46.7910 H   0  0  0  0  0  0  0  0  0  0  0  0
   60.9092   33.8422   47.0083 H   0  0  0  0  0  0  0  0  0  0  0  0
   59.6321   35.7588   46.0738 H   0  0  0  0  0  0  0  0  0  0  0  0
   57.5746   35.3593   44.7348 H   0  0  0  0  0  0  0  0  0  0  0  0
   56.7772   33.0444   44.3165 H   0  0  0  0  0  0  0  0  0  0  0  0
   56.0599   30.2290   44.4927 H   0  0  0  0  0  0  0  0  0  0  0  0
   56.9151   31.4139   43.4481 H   0  0  0  0  0  0  0  0  0  0  0  0
   57.4179   29.6894   43.4481 H   0  0  0  0  0  0  0  0  0  0  0  0
   59.5932   25.6602   47.4487 H   0  0  0  0  0  0  0  0  0  0  0  0
   55.7277   26.0062   45.5095 H   0  0  0  0  0  0  0  0  0  0  0  0
   56.1194   28.4505   45.1338 H   0  0  0  0  0  0  0  0  0  0  0  0
  1  2  1  0
  2  3  1  0
  3  4  1  0
  4  5  1  0
  3  6  1  0
  6  7  1  0
  7  8  1  0
  8  9  1  0
  9 10  2  0
 10 11  1  0
 11 12  2  0
 12 13  1  0
 13 14  2  0
 14 15  1  0
 15 16  2  0
 16 17  1  0
 16 18  1  0
 18 19  2  0
 19 20  1  0
 20 21  1  0
 21 22  2  0
 22 23  1  0
 23 24  1  0
 23 25  2  0
 25 26  1  0
 26 27  2  0
 19  9  1  0
 27 21  1  0
 15 10  1  0
 27 18  1  0
  1 28  1  0
  1 29  1  0
  1 30  1  0
  2 31  1  0
  2 32  1  0
  3 33  1  0
  4 34  1  0
  4 35  1  0
  5 36  1  0
  5 37  1  0
  5 38  1  0
  6 39  1  0
  6 40  1  0
  7 41  1  0
  7 42  1  0
  8 43  1  0
 11 44  1  0
 12 45  1  0
 13 46  1  0
 14 47  1  0
 17 48  1  0
 17 49  1  0
 17 50  1  0
 22 51  1  0
 25 52  1  0
 26 53  1  0
M  CHG  2   3   1  16   1
M  END
>  <UniqueID>  (27) 
27

>  <SMILES>  (27) 
CC[NH+](CC)CCNc1c2ccccc2[n+](C)c2c1sc1cc(Cl)ccc12

>  <Energy>  (27) 
119.79898855122583

>  <Genealogy>  (27) 
CC[NH+](CC)CCNc1c2ccccc2[n+](C)c2c1sc1cc(Cl)ccc12 (protonated)
CC[NH+](CC)CCNc1c2ccccc2[n+](C)c2c1sc1cc(Cl)ccc12 (3D coordinates assigned)
CC[NH+](CC)CCNc1c2ccccc2[n+](C)c2c1sc1cc(Cl)ccc12 (optimized conformer: 119.79898855122583 kcal/mol)

>  <smiles>  (27) 
CCN(CC)CCNc1c2ccccc2[n+](C)c2c1sc1cc(Cl)ccc12

>  <score_type>  (27) 
oracle

>  <origin>  (27) 
adg

>  <m_score__min__energy>  (27) 
-5.5700000000000003

>  <m_primary>  (27) 
energy

$$$$
27:0
     RDKit          3D

 70 73  0  0  0  0  0  0  0  0999 V2000
   57.5150   27.0110   45.2030 C   0  0  0  0  0  0  0  0  0  0  0  0
   58.3140   27.7060   44.1000 C   0  0  0  0  0  0  0  0  0  0  0  0
   57.4180   28.2120   43.0470 N   0  0  0  0  0  0  0  0  0  0  0  0
   56.5830   29.3460   43.4880 C   0  0  0  0  0  0  0  0  0  0  0  0
   57.3820   30.5550   44.0100 C   0  0  0  0  0  0  0  0  0  0  0  0
   57.4090   30.6060   45.4750 N   0  0  0  0  0  0  0  0  0  0  0  0
   58.5150   31.1740   46.2040 C   0  0  0  0  0  0  0  0  0  0  0  0
   58.9030   32.5120   45.9900 C   0  0  0  0  0  0  0  0  0  0  0  0
   58.0890   33.3930   45.2460 C   0  0  0  0  0  0  0  0  0  0  0  0
   58.4620   34.7230   45.0620 C   0  0  0  0  0  0  0  0  0  0  0  0
   59.6330   35.2030   45.6350 C   0  0  0  0  0  0  0  0  0  0  0  0
   60.4410   34.3580   46.3930 C   0  0  0  0  0  0  0  0  0  0  0  0
   60.1030   32.9920   46.5780 C   0  0  0  0  0  0  0  0  0  0  0  0
   60.8920   32.1440   47.3300 N   0  0  0  0  0  0  0  0  0  0  0  0
   62.2790   32.5320   47.6750 C   0  0  0  0  0  0  0  0  0  0  0  0
   60.3910   30.9280   47.7500 C   0  0  0  0  0  0  0  0  0  0  0  0
   61.0310   30.1700   48.7620 C   0  0  0  0  0  0  0  0  0  0  0  0
   60.5470   28.9210   49.1560 C   0  0  0  0  0  0  0  0  0  0  0  0
   61.2280   28.2350   50.1720 O   0  0  0  0  0  0  0  0  0  0  0  0
   60.8230   28.2060   51.5400 C   0  0  0  0  0  0  0  0  0  0  0  0
   61.0640   29.5810   52.1990 C   0  0  0  0  0  0  0  0  0  0  0  0
   59.8580   30.4710   52.2950 N   0  0  0  0  0  0  0  0  0  0  0  0
   59.5790   30.7640   53.7300 C   0  0  0  0  0  0  0  0  0  0  0  0
   58.7100   29.7000   51.7260 C   0  0  0  0  0  0  0  0  0  0  0  0
   57.3850   30.4970   51.6650 C   0  0  0  0  0  0  0  0  0  0  0  0
   57.5870   31.9840   51.3340 C   0  0  0  0  0  0  0  0  0  0  0  0
   58.9230   32.2110   50.6400 C   0  0  0  0  0  0  0  0  0  0  0  0
   60.0990   31.7500   51.5280 C   0  0  0  0  0  0  0  0  0  0  0  0
   59.4040   28.4010   48.5370 C   0  0  0  0  0  0  0  0  0  0  0  0
   58.7380   29.1370   47.5620 C   0  0  0  0  0  0  0  0  0  0  0  0
   59.2000   30.4120   47.1720 C   0  0  0  0  0  0  0  0  0  0  0  0
   57.8879   27.3353   46.1857 H   0  0  0  0  0  0  0  0  0  0  0  0
   56.4517   27.2765   45.1084 H   0  0  0  0  0  0  0  0  0  0  0  0
   57.6306   25.9212   45.1084 H   0  0  0  0  0  0  0  0  0  0  0  0
   58.8719   28.5485   44.5347 H   0  0  0  0  0  0  0  0  0  0  0  0
   59.0075   26.9779   43.6539 H   0  0  0  0  0  0  0  0  0  0  0  0
   58.0000   28.5480   42.2430 H   0  0  0  0  0  0  0  0  0  0  0  0
   56.8130   27.4390   42.6930 H   0  0  0  0  0  0  0  0  0  0  0  0
   55.9739   29.6780   42.6343 H   0  0  0  0  0  0  0  0  0  0  0  0
   55.9758   28.9819   44.3299 H   0  0  0  0  0  0  0  0  0  0  0  0
   58.4149   30.4850   43.6382 H   0  0  0  0  0  0  0  0  0  0  0  0
   56.8891   31.4693   43.6478 H   0  0  0  0  0  0  0  0  0  0  0  0
   56.6620   30.0910   45.9930 H   0  0  0  0  0  0  0  0  0  0  0  0
   57.1499   33.0257   44.8066 H   0  0  0  0  0  0  0  0  0  0  0  0
   57.8286   35.3934   44.4625 H   0  0  0  0  0  0  0  0  0  0  0  0
   59.9234   36.2540   45.4898 H   0  0  0  0  0  0  0  0  0  0  0  0
   61.3561   34.7562   46.8557 H   0  0  0  0  0  0  0  0  0  0  0  0
   62.3897   32.5630   48.7690 H   0  0  0  0  0  0  0  0  0  0  0  0
   62.9807   31.7957   47.2561 H   0  0  0  0  0  0  0  0  0  0  0  0
   62.4968   33.5255   47.2561 H   0  0  0  0  0  0  0  0  0  0  0  0
   61.9304   30.5752   49.2487 H   0  0  0  0  0  0  0  0  0  0  0  0
   59.7526   27.9591   51.5964 H   0  0  0  0  0  0  0  0  0  0  0  0
   61.4135   27.4456   52.0721 H   0  0  0  0  0  0  0  0  0  0  0  0
   61.4394   29.4074   53.2183 H   0  0  0  0  0  0  0  0  0  0  0  0
   61.7775   30.1075   51.5481 H   0  0  0  0  0  0  0  0  0  0  0  0
   60.1987   30.1132   54.3643 H   0  0  0  0  0  0  0  0  0  0  0  0
   59.8166   31.8169   53.9422 H   0  0  0  0  0  0  0  0  0  0  0  0
   58.5158   30.5781   53.9422 H   0  0  0  0  0  0  0  0  0  0  0  0
   58.9743   29.3896   50.7043 H   0  0  0  0  0  0  0  0  0  0  0  0
   58.5368   28.8456   52.3969 H   0  0  0  0  0  0  0  0  0  0  0  0
   56.7439   30.0505   50.8906 H   0  0  0  0  0  0  0  0  0  0  0  0
   56.9257   30.4440   52.6631 H   0  0  0  0  0  0  0  0  0  0  0  0
   56.7756   32.3185   50.6709 H   0  0  0  0  0  0  0  0  0  0  0  0
   57.5777   32.5568   52.2730 H   0  0  0  0  0  0  0  0  0  0  0  0
   58.9396   31.6420   49.6987 H   0  0  0  0  0  0  0  0  0  0  0  0
   59.0354   33.2876   50.4445 H   0  0  0  0  0  0  0  0  0  0  0  0
   60.9761   31.5998   50.8814 H   0  0  0  0  0  0  0  0  0  0  0  0
   60.2415   32.5380   52.2822 H   0  0  0  0  0  0  0  0  0  0  0  0
   59.0309   27.4064   48.8227 H   0  0  0  0  0  0  0  0  0  0  0  0
   57.8378   28.7187   47.0881 H   0  0  0  0  0  0  0  0  0  0  0  0
  1  2  1  0
  2  3  1  0
  3  4  1  0
  4  5  1  0
  5  6  1  0
  6  7  1  0
  7  8  2  0
  8  9  1  0
  9 10  2  0
 10 11  1  0
 11 12  2  0
 12 13  1  0
 13 14  2  0
 14 15  1  0
 14 16  1  0
 16 17  2  0
 17 18  1  0
 18 19  1  0
 19 20  1  0
 20 21  1  0
 21 22  1  0
 22 23  1  0
 22 24  1  0
 24 25  1  0
 25 26  1  0
 26 27  1  0
 27 28  1  0
 18 29  2  0
 29 30  1  0
 30 31  2  0
 31  7  1  0
 13  8  1  0
 31 16  1  0
 28 22  1  0
  1 32  1  0
  1 33  1  0
  1 34  1  0
  2 35  1  0
  2 36  1  0
  3 37  1  0
  3 38  1  0
  4 39  1  0
  4 40  1  0
  5 41  1  0
  5 42  1  0
  6 43  1  0
  9 44  1  0
 10 45  1  0
 11 46  1  0
 12 47  1  0
 15 48  1  0
 15 49  1  0
 15 50  1  0
 17 51  1  0
 20 52  1  0
 20 53  1  0
 21 54  1  0
 21 55  1  0
 23 56  1  0
 23 57  1  0
 23 58  1  0
 24 59  1  0
 24 60  1  0
 25 61  1  0
 25 62  1  0
 26 63  1  0
 26 64  1  0
 27 65  1  0
 27 66  1  0
 28 67  1  0
 28 68  1  0
 29 69  1  0
 30 70  1  0
M  CHG  3   3   1  14   1  22   1
M  END
>  <UniqueID>  (28) 
28

>  <SMILES>  (28) 
CC[NH2+]CCNc1c2ccccc2[n+](C)c2cc(OCC[N+]3(C)CCCCC3)ccc12

>  <Energy>  (28) 
110.5969913246516

>  <Genealogy>  (28) 
CC[NH2+]CCNc1c2ccccc2[n+](C)c2cc(OCC[N+]3(C)CCCCC3)ccc12 (protonated)
CC[NH2+]CCNc1c2ccccc2[n+](C)c2cc(OCC[N+]3(C)CCCCC3)ccc12 (3D coordinates assigned)
CC[NH2+]CCNc1c2ccccc2[n+](C)c2cc(OCC[N+]3(C)CCCCC3)ccc12 (nonaromatic ring conformer: 110.5969913246516 kcal/mol)

>  <smiles>  (28) 
CCNCCNc1c2ccccc2[n+](C)c2cc(OCC[N+]3(C)CCCCC3)ccc12

>  <score_type>  (28) 
oracle

>  <origin>  (28) 
adg

>  <m_score__min__energy>  (28) 
-3.77

>  <m_primary>  (28) 
energy

$$$$
28:0
     RDKit          3D

 37 38  0  0  0  0  0  0  0  0999 V2000
   56.5760   29.3460   42.6110 C   0  0  0  0  0  0  0  0  0  0  0  0
   55.4590   29.7160   43.5910 C   0  0  0  0  0  0  0  0  0  0  0  0
   55.9770   30.2200   44.8730 N   0  0  0  0  0  0  0  0  0  0  0  0
   57.2550   29.6000   45.2420 C   0  0  0  0  0  0  0  0  0  0  0  0
   58.3000   30.6750   45.5890 C   0  0  0  0  0  0  0  0  0  0  0  0
   57.6900   31.9960   45.8510 N   0  0  2  0  0  0  0  0  0  0  0  0
   57.9640   32.8930   44.7590 C   0  0  0  0  0  0  0  0  0  0  0  0
   57.4870   32.7280   43.6040 O   0  0  0  0  0  0  0  0  0  0  0  0
   58.7820   34.0150   45.0880 N   0  0  0  0  0  0  0  0  0  0  0  0
   59.0350   33.8960   46.3450 C   0  0  0  0  0  0  0  0  0  0  0  0
   59.7940   34.9180   47.1320 C   0  0  0  0  0  0  0  0  0  0  0  0
   60.9880   34.2830   47.7900 C   0  0  0  0  0  0  0  0  0  0  0  0
   61.0810   34.2270   49.1910 C   0  0  0  0  0  0  0  0  0  0  0  0
   62.2100   33.6700   49.8000 C   0  0  0  0  0  0  0  0  0  0  0  0
   63.2580   33.1750   49.0170 C   0  0  0  0  0  0  0  0  0  0  0  0
   64.8010   32.4210   49.8520 Br  0  0  0  0  0  0  0  0  0  0  0  0
   63.1770   33.2400   47.6230 C   0  0  0  0  0  0  0  0  0  0  0  0
   62.0500   33.7960   47.0100 C   0  0  0  0  0  0  0  0  0  0  0  0
   58.3680   32.7220   46.8820 C   0  0  0  0  0  0  0  0  0  0  0  0
   58.2940   32.4380   48.1070 O   0  0  0  0  0  0  0  0  0  0  0  0
   57.4735   29.0487   43.1733 H   0  0  0  0  0  0  0  0  0  0  0  0
   56.2460   28.5092   41.9779 H   0  0  0  0  0  0  0  0  0  0  0  0
   56.8109   30.2143   41.9779 H   0  0  0  0  0  0  0  0  0  0  0  0
   54.8321   30.4953   43.1332 H   0  0  0  0  0  0  0  0  0  0  0  0
   54.8820   28.8030   43.7998 H   0  0  0  0  0  0  0  0  0  0  0  0
   55.2740   30.0360   45.6270 H   0  0  0  0  0  0  0  0  0  0  0  0
   57.1020   28.9496   46.1158 H   0  0  0  0  0  0  0  0  0  0  0  0
   57.6225   29.0115   44.3884 H   0  0  0  0  0  0  0  0  0  0  0  0
   58.8490   30.3559   46.4872 H   0  0  0  0  0  0  0  0  0  0  0  0
   58.9686   30.7824   44.7221 H   0  0  0  0  0  0  0  0  0  0  0  0
   56.6590   31.9510   46.0310 H   0  0  0  0  0  0  0  0  0  0  0  0
   60.1332   35.7180   46.4575 H   0  0  0  0  0  0  0  0  0  0  0  0
   59.1357   35.3359   47.9079 H   0  0  0  0  0  0  0  0  0  0  0  0
   60.2629   34.6227   49.8109 H   0  0  0  0  0  0  0  0  0  0  0  0
   62.2740   33.6211   50.8970 H   0  0  0  0  0  0  0  0  0  0  0  0
   64.0019   32.8528   47.0068 H   0  0  0  0  0  0  0  0  0  0  0  0
   61.9948   33.8523   45.9128 H   0  0  0  0  0  0  0  0  0  0  0  0
  1  2  1  0
  2  3  1  0
  3  4  1  0
  4  5  1  0
  5  6  1  0
  6  7  1  0
  7  8  2  0
  7  9  1  0
  9 10  2  0
 10 11  1  0
 11 12  1  0
 12 13  2  0
 13 14  1  0
 14 15  2  0
 15 16  1  0
 15 17  1  0
 17 18  2  0
 10 19  1  0
 19 20  2  0
 19  6  1  0
 18 12  1  0
  1 21  1  0
  1 22  1  0
  1 23  1  0
  2 24  1  0
  2 25  1  0
  3 26  1  0
  4 27  1  0
  4 28  1  0
  5 29  1  0
  5 30  1  0
  6 31  1  1
 11 32  1  0
 11 33  1  0
 13 34  1  0
 14 35  1  0
 17 36  1  0
 18 37  1  0
M  CHG  1   6   1
M  END
>  <UniqueID>  (29) 
29

>  <SMILES>  (29) 
CCNCC[N@@H+]1C(=O)N=C(Cc2ccc(Br)cc2)C1=O

>  <Energy>  (29) 
53.35826249881844

>  <Genealogy>  (29) 
CCNCC[NH+]1C(=O)N=C(Cc2ccc(Br)cc2)C1=O (protonated)
CCNCC[N@@H+]1C(=O)N=C(Cc2ccc(Br)cc2)C1=O (chirality)
CCNCC[N@@H+]1C(=O)N=C(Cc2ccc(Br)cc2)C1=O (3D coordinates assigned)
CCNCC[N@@H+]1C(=O)N=C(Cc2ccc(Br)cc2)C1=O (nonaromatic ring conformer: 53.35826249881844 kcal/mol)

>  <smiles>  (29) 
CCNCCN1C(=O)N=C(Cc2ccc(Br)cc2)C1=O

>  <score_type>  (29) 
oracle

>  <origin>  (29) 
adg

>  <m_score__min__energy>  (29) 
-6.2999999999999998

>  <m_primary>  (29) 
energy

$$$$
29:0
     RDKit          3D

 41 42  0  0  0  0  0  0  0  0999 V2000
   57.9230   32.3430   41.5470 C   0  0  0  0  0  0  0  0  0  0  0  0
   58.1490   32.5570   43.0390 C   0  0  0  0  0  0  0  0  0  0  0  0
   57.2550   31.6890   43.8210 N   0  0  0  0  0  0  0  0  0  0  0  0
   56.6410   30.6570   42.9760 C   0  0  0  0  0  0  0  0  0  0  0  0
   56.0100   29.5630   43.8440 C   0  0  0  0  0  0  0  0  0  0  0  0
   56.4480   29.6880   45.2430 N   0  0  0  0  0  0  0  0  0  0  0  0
   57.6320   28.8590   45.5080 C   0  0  0  0  0  0  0  0  0  0  0  0
   58.8120   29.7410   45.9240 C   0  0  0  0  0  0  0  0  0  0  0  0
   58.3640   30.9050   46.6190 O   0  0  0  0  0  0  0  0  0  0  0  0
   58.9240   32.1930   46.5200 C   0  0  0  0  0  0  0  0  0  0  0  0
   58.1510   33.3170   46.1630 C   0  0  0  0  0  0  0  0  0  0  0  0
   58.7370   34.5810   46.0660 C   0  0  0  0  0  0  0  0  0  0  0  0
   60.0950   34.7500   46.3270 C   0  0  0  0  0  0  0  0  0  0  0  0
   60.8850   33.6520   46.6920 C   0  0  0  0  0  0  0  0  0  0  0  0
   62.2540   33.8190   46.9480 C   0  0  0  0  0  0  0  0  0  0  0  0
   63.0420   32.7210   47.3010 C   0  0  0  0  0  0  0  0  0  0  0  0
   62.4710   31.4510   47.4020 C   0  0  0  0  0  0  0  0  0  0  0  0
   61.1080   31.2690   47.1520 C   0  0  0  0  0  0  0  0  0  0  0  0
   60.2980   32.3630   46.7930 C   0  0  0  0  0  0  0  0  0  0  0  0
   57.1315   31.5935   41.3999 H   0  0  0  0  0  0  0  0  0  0  0  0
   57.6197   33.2927   41.0822 H   0  0  0  0  0  0  0  0  0  0  0  0
   58.8548   31.9884   41.0822 H   0  0  0  0  0  0  0  0  0  0  0  0
   59.1940   32.3178   43.2856 H   0  0  0  0  0  0  0  0  0  0  0  0
   57.9341   33.6071   43.2862 H   0  0  0  0  0  0  0  0  0  0  0  0
   57.8370   31.2020   44.5430 H   0  0  0  0  0  0  0  0  0  0  0  0
   55.8625   31.1171   42.3497 H   0  0  0  0  0  0  0  0  0  0  0  0
   57.4181   30.2058   42.3416 H   0  0  0  0  0  0  0  0  0  0  0  0
   54.9147   29.6544   43.7996 H   0  0  0  0  0  0  0  0  0  0  0  0
   56.3284   28.5821   43.4613 H   0  0  0  0  0  0  0  0  0  0  0  0
   56.7190   30.6860   45.4040 H   0  0  0  0  0  0  0  0  0  0  0  0
   57.4052   28.1497   46.3176 H   0  0  0  0  0  0  0  0  0  0  0  0
   57.8987   28.3107   44.5924 H   0  0  0  0  0  0  0  0  0  0  0  0
   59.4776   29.1635   46.5823 H   0  0  0  0  0  0  0  0  0  0  0  0
   59.3466   30.0598   45.0170 H   0  0  0  0  0  0  0  0  0  0  0  0
   57.0767   33.1972   45.9591 H   0  0  0  0  0  0  0  0  0  0  0  0
   58.1227   35.4482   45.7819 H   0  0  0  0  0  0  0  0  0  0  0  0
   60.5485   35.7489   46.2462 H   0  0  0  0  0  0  0  0  0  0  0  0
   62.7084   34.8177   46.8705 H   0  0  0  0  0  0  0  0  0  0  0  0
   64.1152   32.8573   47.4999 H   0  0  0  0  0  0  0  0  0  0  0  0
   63.0966   30.5898   47.6796 H   0  0  0  0  0  0  0  0  0  0  0  0
   60.6657   30.2654   47.2362 H   0  0  0  0  0  0  0  0  0  0  0  0
  1  2  1  0
  2  3  1  0
  3  4  1  0
  4  5  1  0
  5  6  1  0
  6  7  1  0
  7  8  1  0
  8  9  1  0
  9 10  1  0
 10 11  2  0
 11 12  1  0
 12 13  2  0
 13 14  1  0
 14 15  2  0
 15 16  1  0
 16 17  2  0
 17 18  1  0
 18 19  2  0
 19 10  1  0
 19 14  1  0
  1 20  1  0
  1 21  1  0
  1 22  1  0
  2 23  1  0
  2 24  1  0
  3 25  1  0
  4 26  1  0
  4 27  1  0
  5 28  1  0
  5 29  1  0
  6 30  1  0
  7 31  1  0
  7 32  1  0
  8 33  1  0
  8 34  1  0
 11 35  1  0
 12 36  1  0
 13 37  1  0
 15 38  1  0
 16 39  1  0
 17 40  1  0
 18 41  1  0
M  END
>  <UniqueID>  (30) 
30

>  <SMILES>  (30) 
CCNCCNCCOc1cccc2ccccc12

>  <Energy>  (30) 
34.21606656888463

>  <Genealogy>  (30) 
CCNCCNCCOc1cccc2ccccc12 (3D coordinates assigned)
CCNCCNCCOc1cccc2ccccc12 (optimized conformer: 34.21606656888463 kcal/mol)

>  <smiles>  (30) 
CCNCCNCCOc1cccc2ccccc12

>  <score_type>  (30) 
oracle

>  <origin>  (30) 
adg

>  <m_score__min__energy>  (30) 
-7.1900000000000004

>  <m_primary>  (30) 
energy

$$$$
30:0
     RDKit          3D

 90 95  0  0  0  0  0  0  0  0999 V2000
   60.2070   34.6030   48.7180 C   0  0  0  0  0  0  0  0  0  0  0  0
   59.5530   34.9540   47.3760 C   0  0  0  0  0  0  0  0  0  0  0  0
   60.3870   34.5250   46.2170 N   0  0  0  0  0  0  0  0  0  0  0  0
   61.2880   33.4000   46.5460 C   0  0  0  0  0  0  0  0  0  0  0  0
   62.7390   33.8380   46.3900 C   0  0  0  0  0  0  0  0  0  0  0  0
   59.5980   34.2610   44.9930 C   0  0  0  0  0  0  0  0  0  0  0  0
   58.0470   34.2150   45.1860 C   0  0  0  0  0  0  0  0  0  0  0  0
   57.3670   33.5940   44.1000 O   0  0  0  0  0  0  0  0  0  0  0  0
   58.0760   32.4620   43.6320 C   0  0  0  0  0  0  0  0  0  0  0  0
   57.3050   31.1810   44.0510 C   0  0  0  0  0  0  0  0  0  0  0  0
   58.2150   30.0540   44.0780 N   0  0  0  0  0  0  0  0  0  0  0  0
   58.5160   29.2340   45.2640 C   0  0  0  0  0  0  0  0  0  0  0  0
   58.9800   29.8810   46.4280 C   0  0  0  0  0  0  0  0  0  0  0  0
   59.6050   29.1430   47.4840 C   0  0  0  0  0  0  0  0  0  0  0  0
   59.6100   27.7570   47.4180 N   0  0  0  0  0  0  0  0  0  0  0  0
   59.9070   26.9420   48.6200 C   0  0  0  0  0  0  0  0  0  0  0  0
   59.2300   27.0980   46.2710 C   0  0  0  0  0  0  0  0  0  0  0  0
   59.3670   25.6820   46.1780 C   0  0  0  0  0  0  0  0  0  0  0  0
   58.6010   24.9700   45.2760 C   0  0  0  0  0  0  0  0  0  0  0  0
   57.7500   25.6280   44.4230 C   0  0  0  0  0  0  0  0  0  0  0  0
   57.7850   27.0160   44.3110 C   0  0  0  0  0  0  0  0  0  0  0  0
   58.5260   27.8010   45.2460 C   0  0  0  0  0  0  0  0  0  0  0  0
   60.1160   29.9390   48.6700 C   0  0  0  0  0  0  0  0  0  0  0  0
   61.1650   29.5170   49.5200 C   0  0  0  0  0  0  0  0  0  0  0  0
   61.3550   30.0700   50.7720 C   0  0  0  0  0  0  0  0  0  0  0  0
   60.6450   31.2220   51.1200 C   0  0  0  0  0  0  0  0  0  0  0  0
   60.6940   31.7790   52.3810 O   0  0  0  0  0  0  0  0  0  0  0  0
   61.8630   32.2260   53.0490 C   0  0  0  0  0  0  0  0  0  0  0  0
   62.4570   33.4610   52.3600 C   0  0  0  0  0  0  0  0  0  0  0  0
   63.6100   33.1660   51.4270 N   0  0  0  0  0  0  0  0  0  0  0  0
   64.1130   31.7860   51.6440 C   0  0  0  0  0  0  0  0  0  0  0  0
   65.3220   31.4940   50.7090 C   0  0  0  0  0  0  0  0  0  0  0  0
   65.6650   32.6950   49.9230 N   0  0  0  0  0  0  0  0  0  0  0  0
   64.4760   33.0490   49.0950 C   0  0  0  0  0  0  0  0  0  0  0  0
   63.2370   33.3160   49.9790 C   0  0  0  0  0  0  0  0  0  0  0  0
   65.9560   33.8040   50.8510 C   0  0  0  0  0  0  0  0  0  0  0  0
   64.7050   34.1290   51.7170 C   0  0  0  0  0  0  0  0  0  0  0  0
   59.8150   31.8180   50.1850 C   0  0  0  0  0  0  0  0  0  0  0  0
   59.5520   31.2080   48.9400 C   0  0  0  0  0  0  0  0  0  0  0  0
   58.5620   31.8370   48.0190 C   0  0  0  0  0  0  0  0  0  0  0  0
   58.7720   31.3900   46.5770 C   0  0  0  0  0  0  0  0  0  0  0  0
   59.5637   34.9482   49.5408 H   0  0  0  0  0  0  0  0  0  0  0  0
   60.3385   33.5131   48.7879 H   0  0  0  0  0  0  0  0  0  0  0  0
   61.1879   35.0959   48.7879 H   0  0  0  0  0  0  0  0  0  0  0  0
   58.5761   34.4519   47.3153 H   0  0  0  0  0  0  0  0  0  0  0  0
   59.4431   36.0475   47.3282 H   0  0  0  0  0  0  0  0  0  0  0  0
   61.1119   33.0828   47.5845 H   0  0  0  0  0  0  0  0  0  0  0  0
   61.0863   32.5616   45.8631 H   0  0  0  0  0  0  0  0  0  0  0  0
   63.1898   33.9741   47.3841 H   0  0  0  0  0  0  0  0  0  0  0  0
   63.2969   33.0682   45.8366 H   0  0  0  0  0  0  0  0  0  0  0  0
   62.7778   34.7879   45.8366 H   0  0  0  0  0  0  0  0  0  0  0  0
   59.8252   35.0547   44.2661 H   0  0  0  0  0  0  0  0  0  0  0  0
   59.8896   33.2546   44.6582 H   0  0  0  0  0  0  0  0  0  0  0  0
   57.8252   33.6530   46.1052 H   0  0  0  0  0  0  0  0  0  0  0  0
   57.6927   35.2548   45.2432 H   0  0  0  0  0  0  0  0  0  0  0  0
   58.1564   32.5033   42.5357 H   0  0  0  0  0  0  0  0  0  0  0  0
   59.0870   32.4485   44.0652 H   0  0  0  0  0  0  0  0  0  0  0  0
   56.8711   31.3254   45.0514 H   0  0  0  0  0  0  0  0  0  0  0  0
   56.5011   30.9846   43.3263 H   0  0  0  0  0  0  0  0  0  0  0  0
   58.9770   30.1390   43.3880 H   0  0  0  0  0  0  0  0  0  0  0  0
   59.6925   27.5305   49.5242 H   0  0  0  0  0  0  0  0  0  0  0  0
   59.2806   26.0378   48.6139 H   0  0  0  0  0  0  0  0  0  0  0  0
   60.9683   26.6528   48.6139 H   0  0  0  0  0  0  0  0  0  0  0  0
   60.0838   25.1558   46.8256 H   0  0  0  0  0  0  0  0  0  0  0  0
   58.6729   23.8729   45.2409 H   0  0  0  0  0  0  0  0  0  0  0  0
   57.0319   25.0522   43.8207 H   0  0  0  0  0  0  0  0  0  0  0  0
   57.2374   27.5115   43.4957 H   0  0  0  0  0  0  0  0  0  0  0  0
   61.8482   28.7270   49.1749 H   0  0  0  0  0  0  0  0  0  0  0  0
   62.0553   29.6098   51.4846 H   0  0  0  0  0  0  0  0  0  0  0  0
   61.6069   32.4828   54.0875 H   0  0  0  0  0  0  0  0  0  0  0  0
   62.6099   31.4189   53.0222 H   0  0  0  0  0  0  0  0  0  0  0  0
   61.6597   33.9462   51.7779 H   0  0  0  0  0  0  0  0  0  0  0  0
   62.8578   34.1020   53.1590 H   0  0  0  0  0  0  0  0  0  0  0  0
   64.4307   31.6769   52.6915 H   0  0  0  0  0  0  0  0  0  0  0  0
   63.3066   31.0733   51.4164 H   0  0  0  0  0  0  0  0  0  0  0  0
   66.1891   31.1997   51.3186 H   0  0  0  0  0  0  0  0  0  0  0  0
   65.0520   30.6807   50.0193 H   0  0  0  0  0  0  0  0  0  0  0  0
   64.7019   33.9538   48.5116 H   0  0  0  0  0  0  0  0  0  0  0  0
   64.2519   32.2029   48.4287 H   0  0  0  0  0  0  0  0  0  0  0  0
   62.8719   34.3379   49.7988 H   0  0  0  0  0  0  0  0  0  0  0  0
   62.4464   32.5934   49.7283 H   0  0  0  0  0  0  0  0  0  0  0  0
   66.7883   33.5161   51.5101 H   0  0  0  0  0  0  0  0  0  0  0  0
   66.2273   34.6959   50.2672 H   0  0  0  0  0  0  0  0  0  0  0  0
   64.9738   34.0625   52.7816 H   0  0  0  0  0  0  0  0  0  0  0  0
   64.3593   35.1454   51.4775 H   0  0  0  0  0  0  0  0  0  0  0  0
   59.3508   32.7877   50.4179 H   0  0  0  0  0  0  0  0  0  0  0  0
   57.5481   31.5521   48.3367 H   0  0  0  0  0  0  0  0  0  0  0  0
   58.6965   32.9278   48.0634 H   0  0  0  0  0  0  0  0  0  0  0  0
   57.8870   31.6787   45.9909 H   0  0  0  0  0  0  0  0  0  0  0  0
   59.6893   31.8794   46.2177 H   0  0  0  0  0  0  0  0  0  0  0  0
  1  2  1  0
  2  3  1  0
  3  4  1  0
  4  5  1  0
  3  6  1  0
  6  7  1  0
  7  8  1  0
  8  9  1  0
  9 10  1  0
 10 11  1  0
 11 12  1  0
 12 13  2  0
 13 14  1  0
 14 15  2  0
 15 16  1  0
 15 17  1  0
 17 18  2  0
 18 19  1  0
 19 20  2  0
 20 21  1  0
 21 22  2  0
 14 23  1  0
 23 24  2  0
 24 25  1  0
 25 26  2  0
 26 27  1  0
 27 28  1  0
 28 29  1  0
 29 30  1  0
 30 31  1  0
 31 32  1  0
 32 33  1  0
 33 34  1  0
 34 35  1  0
 33 36  1  0
 36 37  1  0
 26 38  1  0
 38 39  2  0
 39 40  1  0
 40 41  1  0
 22 12  1  0
 39 23  1  0
 41 13  1  0
 22 17  1  0
 35 30  1  0
 37 30  1  0
  1 42  1  0
  1 43  1  0
  1 44  1  0
  2 45  1  0
  2 46  1  0
  4 47  1  0
  4 48  1  0
  5 49  1  0
  5 50  1  0
  5 51  1  0
  6 52  1  0
  6 53  1  0
  7 54  1  0
  7 55  1  0
  9 56  1  0
  9 57  1  0
 10 58  1  0
 10 59  1  0
 11 60  1  0
 16 61  1  0
 16 62  1  0
 16 63  1  0
 18 64  1  0
 19 65  1  0
 20 66  1  0
 21 67  1  0
 24 68  1  0
 25 69  1  0
 28 70  1  0
 28 71  1  0
 29 72  1  0
 29 73  1  0
 31 74  1  0
 31 75  1  0
 32 76  1  0
 32 77  1  0
 34 78  1  0
 34 79  1  0
 35 80  1  0
 35 81  1  0
 36 82  1  0
 36 83  1  0
 37 84  1  0
 37 85  1  0
 38 86  1  0
 40 87  1  0
 40 88  1  0
 41 89  1  0
 41 90  1  0
M  CHG  2  15   1  30   1
M  END
>  <UniqueID>  (31) 
31

>  <SMILES>  (31) 
CCN(CC)CCOCCNc1c2c([n+](C)c3ccccc13)-c1ccc(OCC[N+]34CCN(CC3)CC4)cc1CC2

>  <Energy>  (31) 
197.1827856136344

>  <Genealogy>  (31) 
CCN(CC)CCOCCNc1c2c([n+](C)c3ccccc13)-c1ccc(OCC[N+]34CCN(CC3)CC4)cc1CC2 (3D coordinates assigned)
CCN(CC)CCOCCNc1c2c([n+](C)c3ccccc13)-c1ccc(OCC[N+]34CCN(CC3)CC4)cc1CC2 (nonaromatic ring conformer: 197.1827856136344 kcal/mol)

>  <smiles>  (31) 
CCN(CC)CCOCCNc1c2c([n+](C)c3ccccc13)-c1ccc(OCC[N+]34CCN(CC3)CC4)cc1CC2

>  <score_type>  (31) 
oracle

>  <origin>  (31) 
adg

>  <m_score__min__energy>  (31) 
-6.1200000000000001

>  <m_primary>  (31) 
energy

$$$$
31:0
     RDKit          3D

 93 98  0  0  0  0  0  0  0  0999 V2000
   63.4620   33.1070   46.9640 C   0  0  0  0  0  0  0  0  0  0  0  0
   63.2660   31.8930   47.8660 C   0  0  0  0  0  0  0  0  0  0  0  0
   63.6450   32.2320   49.2570 N   0  0  0  0  0  0  0  0  0  0  0  0
   64.8360   33.1100   49.3180 C   0  0  0  0  0  0  0  0  0  0  0  0
   65.9730   32.4720   50.1170 C   0  0  0  0  0  0  0  0  0  0  0  0
   63.7050   31.0370   50.1380 C   0  0  0  0  0  0  0  0  0  0  0  0
   62.3940   30.7310   50.8920 C   0  0  0  0  0  0  0  0  0  0  0  0
   62.4850   31.1840   52.2300 O   0  0  0  0  0  0  0  0  0  0  0  0
   63.5420   32.1120   52.3930 C   0  0  0  0  0  0  0  0  0  0  0  0
   63.0380   33.5350   52.1400 C   0  0  0  0  0  0  0  0  0  0  0  0
   61.5760   33.5710   52.1200 N   0  0  0  0  0  0  0  0  0  0  0  0
   60.7880   33.5960   50.9170 C   0  0  0  0  0  0  0  0  0  0  0  0
   61.2620   34.2240   49.7420 C   0  0  0  0  0  0  0  0  0  0  0  0
   60.5510   34.1260   48.5300 C   0  0  0  0  0  0  0  0  0  0  0  0
   59.3510   33.3920   48.4550 C   0  0  0  0  0  0  0  0  0  0  0  0
   58.5800   33.2960   47.1650 C   0  0  0  0  0  0  0  0  0  0  0  0
   59.4140   33.6920   46.0230 N   0  0  0  0  0  0  0  0  0  0  0  0
   58.6160   33.8250   44.7960 C   0  0  0  0  0  0  0  0  0  0  0  0
   58.3050   32.4480   44.1930 C   0  0  0  0  0  0  0  0  0  0  0  0
   56.9190   31.9250   44.5840 C   0  0  0  0  0  0  0  0  0  0  0  0
   57.0270   30.6040   45.0700 O   0  0  0  0  0  0  0  0  0  0  0  0
   56.2290   29.7420   44.2890 C   0  0  0  0  0  0  0  0  0  0  0  0
   57.1270   28.9840   43.3100 C   0  0  0  0  0  0  0  0  0  0  0  0
   58.2230   28.2980   43.9940 N   0  0  0  0  0  0  0  0  0  0  0  0
   58.4620   27.8710   45.2130 C   0  0  0  0  0  0  0  0  0  0  0  0
   57.9720   26.5720   45.5240 C   0  0  0  0  0  0  0  0  0  0  0  0
   57.3880   25.7380   44.5400 C   0  0  0  0  0  0  0  0  0  0  0  0
   56.8930   24.4760   44.8810 C   0  0  0  0  0  0  0  0  0  0  0  0
   56.9610   24.0260   46.1990 C   0  0  0  0  0  0  0  0  0  0  0  0
   57.5300   24.8350   47.1820 C   0  0  0  0  0  0  0  0  0  0  0  0
   58.0330   26.0990   46.8530 C   0  0  0  0  0  0  0  0  0  0  0  0
   58.5670   26.8700   47.8250 N   0  0  0  0  0  0  0  0  0  0  0  0
   59.0960   28.0900   47.5770 C   0  0  0  0  0  0  0  0  0  0  0  0
   59.6560   28.7970   48.6480 C   0  0  0  0  0  0  0  0  0  0  0  0
   60.2790   30.0210   48.4330 C   0  0  0  0  0  0  0  0  0  0  0  0
   60.3710   30.5320   47.1440 C   0  0  0  0  0  0  0  0  0  0  0  0
   59.8130   29.8410   46.0660 C   0  0  0  0  0  0  0  0  0  0  0  0
   59.1090   28.6250   46.2550 C   0  0  0  0  0  0  0  0  0  0  0  0
   58.8800   32.7970   49.6280 C   0  0  0  0  0  0  0  0  0  0  0  0
   57.7740   32.0940   49.7700 O   0  0  0  0  0  0  0  0  0  0  0  0
   57.7010   31.7530   51.0380 C   0  0  0  0  0  0  0  0  0  0  0  0
   56.6930   31.0140   51.6530 C   0  0  0  0  0  0  0  0  0  0  0  0
   56.7790   30.8050   53.0410 C   0  0  0  0  0  0  0  0  0  0  0  0
   57.8560   31.3400   53.7800 C   0  0  0  0  0  0  0  0  0  0  0  0
   58.8690   32.0730   53.1380 C   0  0  0  0  0  0  0  0  0  0  0  0
   58.7780   32.2420   51.7520 C   0  0  0  0  0  0  0  0  0  0  0  0
   59.5650   32.9080   50.8270 C   0  0  0  0  0  0  0  0  0  0  0  0
   63.6069   34.0044   47.5834 H   0  0  0  0  0  0  0  0  0  0  0  0
   64.3469   32.9530   46.3290 H   0  0  0  0  0  0  0  0  0  0  0  0
   62.5736   33.2393   46.3290 H   0  0  0  0  0  0  0  0  0  0  0  0
   62.2100   31.5861   47.8402 H   0  0  0  0  0  0  0  0  0  0  0  0
   63.9014   31.0695   47.5080 H   0  0  0  0  0  0  0  0  0  0  0  0
   65.1868   33.3055   48.2939 H   0  0  0  0  0  0  0  0  0  0  0  0
   64.5464   34.0437   49.8224 H   0  0  0  0  0  0  0  0  0  0  0  0
   65.7731   32.5842   51.1928 H   0  0  0  0  0  0  0  0  0  0  0  0
   66.0424   31.4032   49.8665 H   0  0  0  0  0  0  0  0  0  0  0  0
   66.9214   32.9697   49.8665 H   0  0  0  0  0  0  0  0  0  0  0  0
   63.9557   30.1645   49.5168 H   0  0  0  0  0  0  0  0  0  0  0  0
   64.4639   31.2516   50.9048 H   0  0  0  0  0  0  0  0  0  0  0  0
   61.5585   31.2418   50.3910 H   0  0  0  0  0  0  0  0  0  0  0  0
   62.2233   29.6443   50.8907 H   0  0  0  0  0  0  0  0  0  0  0  0
   63.9326   32.0416   53.4189 H   0  0  0  0  0  0  0  0  0  0  0  0
   64.3391   31.8793   51.6715 H   0  0  0  0  0  0  0  0  0  0  0  0
   63.4043   34.1951   52.9400 H   0  0  0  0  0  0  0  0  0  0  0  0
   63.4130   33.8739   51.1630 H   0  0  0  0  0  0  0  0  0  0  0  0
   61.0820   33.4960   53.0360 H   0  0  0  0  0  0  0  0  0  0  0  0
   62.2000   34.7976   49.7750 H   0  0  0  0  0  0  0  0  0  0  0  0
   60.9375   34.6287   47.6312 H   0  0  0  0  0  0  0  0  0  0  0  0
   58.2446   32.2581   47.0227 H   0  0  0  0  0  0  0  0  0  0  0  0
   57.7169   33.9756   47.2211 H   0  0  0  0  0  0  0  0  0  0  0  0
   59.8170   34.6340   46.2460 H   0  0  0  0  0  0  0  0  0  0  0  0
   57.6712   34.3355   45.0344 H   0  0  0  0  0  0  0  0  0  0  0  0
   59.1931   34.4076   44.0628 H   0  0  0  0  0  0  0  0  0  0  0  0
   58.3545   32.5256   43.0969 H   0  0  0  0  0  0  0  0  0  0  0  0
   59.0484   31.7395   44.5873 H   0  0  0  0  0  0  0  0  0  0  0  0
   56.4932   32.5689   45.3676 H   0  0  0  0  0  0  0  0  0  0  0  0
   56.2640   31.9349   43.7003 H   0  0  0  0  0  0  0  0  0  0  0  0
   55.7097   29.0262   44.9432 H   0  0  0  0  0  0  0  0  0  0  0  0
   55.4833   30.3283   43.7321 H   0  0  0  0  0  0  0  0  0  0  0  0
   56.5201   28.2389   42.7747 H   0  0  0  0  0  0  0  0  0  0  0  0
   57.5641   29.7142   42.6131 H   0  0  0  0  0  0  0  0  0  0  0  0
   57.3233   26.0861   43.4985 H   0  0  0  0  0  0  0  0  0  0  0  0
   56.4477   23.8349   44.1059 H   0  0  0  0  0  0  0  0  0  0  0  0
   56.5662   23.0338   46.4631 H   0  0  0  0  0  0  0  0  0  0  0  0
   57.5838   24.4780   48.2211 H   0  0  0  0  0  0  0  0  0  0  0  0
   59.6027   28.3816   49.6652 H   0  0  0  0  0  0  0  0  0  0  0  0
   60.6978   30.5833   49.2806 H   0  0  0  0  0  0  0  0  0  0  0  0
   60.8872   31.4879   46.9713 H   0  0  0  0  0  0  0  0  0  0  0  0
   59.9220   30.2484   45.0501 H   0  0  0  0  0  0  0  0  0  0  0  0
   55.8543   30.6058   51.0700 H   0  0  0  0  0  0  0  0  0  0  0  0
   56.0014   30.2204   53.5544 H   0  0  0  0  0  0  0  0  0  0  0  0
   57.9030   31.1819   54.8676 H   0  0  0  0  0  0  0  0  0  0  0  0
   59.7074   32.5006   53.7075 H   0  0  0  0  0  0  0  0  0  0  0  0
  1  2  1  0
  2  3  1  0
  3  4  1  0
  4  5  1  0
  3  6  1  0
  6  7  1  0
  7  8  1  0
  8  9  1  0
  9 10  1  0
 10 11  1  0
 11 12  1  0
 12 13  2  0
 13 14  1  0
 14 15  2  0
 15 16  1  0
 16 17  1  0
 17 18  1  0
 18 19  1  0
 19 20  1  0
 20 21  1  0
 21 22  1  0
 22 23  1  0
 23 24  1  0
 24 25  2  3
 25 26  1  0
 26 27  2  0
 27 28  1  0
 28 29  2  0
 29 30  1  0
 30 31  2  0
 31 32  1  0
 32 33  1  0
 33 34  2  0
 34 35  1  0
 35 36  2  0
 36 37  1  0
 37 38  2  0
 15 39  1  0
 39 40  1  0
 40 41  1  0
 41 42  2  0
 42 43  1  0
 43 44  2  0
 44 45  1  0
 45 46  2  0
 46 47  1  0
 47 12  1  0
 38 25  1  0
 47 39  2  0
 31 26  1  0
 38 33  1  0
 46 41  1  0
  1 48  1  0
  1 49  1  0
  1 50  1  0
  2 51  1  0
  2 52  1  0
  4 53  1  0
  4 54  1  0
  5 55  1  0
  5 56  1  0
  5 57  1  0
  6 58  1  0
  6 59  1  0
  7 60  1  0
  7 61  1  0
  9 62  1  0
  9 63  1  0
 10 64  1  0
 10 65  1  0
 11 66  1  0
 13 67  1  0
 14 68  1  0
 16 69  1  0
 16 70  1  0
 17 71  1  0
 18 72  1  0
 18 73  1  0
 19 74  1  0
 19 75  1  0
 20 76  1  0
 20 77  1  0
 22 78  1  0
 22 79  1  0
 23 80  1  0
 23 81  1  0
 27 82  1  0
 28 83  1  0
 29 84  1  0
 30 85  1  0
 34 86  1  0
 35 87  1  0
 36 88  1  0
 37 89  1  0
 42 90  1  0
 43 91  1  0
 44 92  1  0
 45 93  1  0
M  CHG  1  32  -1
M  END
>  <UniqueID>  (32) 
32

>  <SMILES>  (32) 
CCN(CC)CCOCCNc1ccc(CNCCCOCCN=c2c3ccccc3[n-]c3ccccc23)c2oc3ccccc3c12

>  <Energy>  (32) 
165.08191481374755

>  <Genealogy>  (32) 
CCN(CC)CCOCCNc1ccc(CNCCCOCCN=c2c3ccccc3[n-]c3ccccc23)c2oc3ccccc3c12 (protonated)
CCN(CC)CCOCCNc1ccc(CNCCCOCCN=c2c3ccccc3[n-]c3ccccc23)c2oc3ccccc3c12 (3D coordinates assigned)
CCN(CC)CCOCCNc1ccc(CNCCCOCCN=c2c3ccccc3[n-]c3ccccc23)c2oc3ccccc3c12 (optimized conformer: 165.08191481374755 kcal/mol)

>  <smiles>  (32) 
CCN(CC)CCOCCNc1ccc(CNCCCOCCN=c2c3ccccc3[nH]c3ccccc23)c2oc3ccccc3c12

>  <score_type>  (32) 
oracle

>  <origin>  (32) 
adg

>  <m_score__min__energy>  (32) 
-11.109999999999999

>  <m_primary>  (32) 
energy

$$$$
32:0
     RDKit          3D

 39 41  0  0  1  0  0  0  0  0999 V2000
   57.7370   25.5920   44.4380 C   0  0  0  0  0  0  0  0  0  0  0  0
   57.1770   26.1320   45.6290 N   0  0  0  0  0  0  0  0  0  0  0  0
   56.0300   25.4170   46.0500 C   0  0  0  0  0  0  0  0  0  0  0  0
   58.1900   26.3880   46.6080 C   0  0  0  0  0  0  0  0  0  0  0  0
   59.5030   26.5550   45.9540 C   0  0  0  0  0  0  0  0  0  0  0  0
   59.7550   28.1040   45.6570 C   0  0  0  0  0  0  0  0  0  0  0  0
   58.5070   28.6280   45.9290 N   0  0  0  0  0  0  0  0  0  0  0  0
   57.8180   29.4320   45.3350 C   0  0  0  0  0  0  0  0  0  0  0  0
   56.7680   28.9460   44.6190 N   0  0  0  0  0  0  0  0  0  0  0  0
   55.8620   29.7120   44.0200 C   0  0  0  0  0  0  0  0  0  0  0  0
   55.9930   31.0390   44.1290 N   0  0  0  0  0  0  0  0  0  0  0  0
   57.0270   31.5610   44.8260 C   0  0  0  0  0  0  0  0  0  0  0  0
   57.3440   32.8120   45.0360 N   0  0  0  0  0  0  0  0  0  0  0  0
   58.4660   32.8360   45.7600 C   0  0  0  0  0  0  0  0  0  0  0  0
   59.1630   33.9430   46.1700 C   0  0  0  0  0  0  0  0  0  0  0  0
   60.3380   33.8740   46.8730 C   0  0  0  0  0  0  0  0  0  0  0  0
   60.8030   32.6260   47.1560 C   0  0  0  0  0  0  0  0  0  0  0  0
   60.0840   31.5310   46.7360 C   0  0  0  0  0  0  0  0  0  0  0  0
   58.9140   31.5290   46.0430 C   0  0  0  0  0  0  0  0  0  0  0  0
   57.9810   30.7540   45.4510 C   0  0  0  0  0  0  0  0  0  0  0  0
   58.5064   24.8501   44.6982 H   0  0  0  0  0  0  0  0  0  0  0  0
   56.9454   25.1076   43.8474 H   0  0  0  0  0  0  0  0  0  0  0  0
   58.1923   26.4007   43.8474 H   0  0  0  0  0  0  0  0  0  0  0  0
   55.9946   25.3950   47.1492 H   0  0  0  0  0  0  0  0  0  0  0  0
   55.1269   25.9124   45.6640 H   0  0  0  0  0  0  0  0  0  0  0  0
   56.0772   24.3880   45.6640 H   0  0  0  0  0  0  0  0  0  0  0  0
   57.9391   27.3068   47.1583 H   0  0  0  0  0  0  0  0  0  0  0  0
   58.2412   25.5358   47.3017 H   0  0  0  0  0  0  0  0  0  0  0  0
   60.2942   26.1751   46.6171 H   0  0  0  0  0  0  0  0  0  0  0  0
   59.5166   25.9928   45.0086 H   0  0  0  0  0  0  0  0  0  0  0  0
   60.5237   28.5236   46.3226 H   0  0  0  0  0  0  0  0  0  0  0  0
   60.1270   28.3180   44.6442 H   0  0  0  0  0  0  0  0  0  0  0  0
   56.6610   27.9150   44.5310 H   0  0  0  0  0  0  0  0  0  0  0  0
   55.0305   29.2688   43.4524 H   0  0  0  0  0  0  0  0  0  0  0  0
   56.7850   33.6340   44.6790 H   0  0  0  0  0  0  0  0  0  0  0  0
   58.7595   34.9360   45.9226 H   0  0  0  0  0  0  0  0  0  0  0  0
   60.8764   34.7788   47.1915 H   0  0  0  0  0  0  0  0  0  0  0  0
   61.7421   32.4949   47.7136 H   0  0  0  0  0  0  0  0  0  0  0  0
   60.5028   30.5459   46.9893 H   0  0  0  0  0  0  0  0  0  0  0  0
  1  2  1  0
  2  3  1  0
  2  4  1  0
  4  5  1  0
  5  6  1  0
  6  7  1  0
  7  8  2  0
  8  9  1  0
  9 10  1  0
 10 11  2  0
 11 12  1  0
 12 13  1  0
 13 14  1  0
 14 15  2  0
 15 16  1  0
 16 17  2  0
 17 18  1  0
 18 19  2  0
 19 20  1  0
 20  8  1  0
 20 12  2  0
 19 14  1  0
  1 21  1  0
  1 22  1  0
  1 23  1  0
  3 24  1  0
  3 25  1  0
  3 26  1  0
  4 27  1  0
  4 28  1  0
  5 29  1  0
  5 30  1  0
  6 31  1  0
  6 32  1  0
  9 33  1  0
 10 34  1  0
 13 35  1  0
 15 36  1  0
 16 37  1  0
 17 38  1  0
 18 39  1  0
M  END
>  <smiles>  (33) 
CN(C)CCCN=c1[nH]cnc2[nH]c3ccccc3c12

>  <score_type>  (33) 
oracle

>  <origin>  (33) 
adg

>  <m_score__min__energy>  (33) 
-6.3799999999999999

>  <m_primary>  (33) 
energy

$$$$
33:0
     RDKit          3D

 53 55  0  0  0  0  0  0  0  0999 V2000
   63.7940   33.0740   48.2620 C   0  0  0  0  0  0  0  0  0  0  0  0
   62.3710   32.7430   48.0610 N   0  0  2  0  0  0  0  0  0  0  0  0
   62.1350   31.2780   48.0070 C   0  0  0  0  0  0  0  0  0  0  0  0
   61.3730   30.7070   49.2240 C   0  0  0  0  0  0  0  0  0  0  0  0
   61.0170   31.7600   50.1210 O   0  0  0  0  0  0  0  0  0  0  0  0
   59.7660   31.9040   50.7460 C   0  0  0  0  0  0  0  0  0  0  0  0
   58.8800   30.8190   50.7070 C   0  0  0  0  0  0  0  0  0  0  0  0
   57.6230   30.9070   51.3130 C   0  0  0  0  0  0  0  0  0  0  0  0
   57.2390   32.0830   51.9600 C   0  0  0  0  0  0  0  0  0  0  0  0
   58.1100   33.1750   51.9970 C   0  0  0  0  0  0  0  0  0  0  0  0
   59.3700   33.0910   51.4010 C   0  0  0  0  0  0  0  0  0  0  0  0
   61.8210   33.4140   46.8950 C   0  0  0  0  0  0  0  0  0  0  0  0
   62.6060   33.8630   46.0100 O   0  0  0  0  0  0  0  0  0  0  0  0
   60.3920   33.5640   46.6980 N   0  0  0  0  0  0  0  0  0  0  0  0
   59.3820   32.9780   47.5950 C   0  0  0  0  0  0  0  0  0  0  0  0
   58.2110   32.3980   46.7810 C   0  0  0  0  0  0  0  0  0  0  0  0
   57.7540   33.2600   45.6550 N   0  0  0  0  0  0  0  0  0  0  0  0
   57.8380   32.5690   44.3500 C   0  0  0  0  0  0  0  0  0  0  0  0
   57.6830   31.0850   44.5360 C   0  0  0  0  0  0  0  0  0  0  0  0
   58.8080   30.2470   44.5230 C   0  0  0  0  0  0  0  0  0  0  0  0
   58.6370   28.8690   44.6870 C   0  0  0  0  0  0  0  0  0  0  0  0
   57.3540   28.3450   44.8600 C   0  0  0  0  0  0  0  0  0  0  0  0
   56.2570   29.2100   44.8640 C   0  0  0  0  0  0  0  0  0  0  0  0
   56.4440   30.5470   44.7010 N   0  0  0  0  0  0  0  0  0  0  0  0
   58.4050   34.5850   45.6140 C   0  0  0  0  0  0  0  0  0  0  0  0
   59.9340   34.4620   45.6270 C   0  0  0  0  0  0  0  0  0  0  0  0
   64.0101   33.1243   49.3394 H   0  0  0  0  0  0  0  0  0  0  0  0
   64.4201   32.2975   47.7983 H   0  0  0  0  0  0  0  0  0  0  0  0
   64.0132   34.0471   47.7983 H   0  0  0  0  0  0  0  0  0  0  0  0
   61.8880   33.1110   48.9120 H   0  0  0  0  0  0  0  0  0  0  0  0
   61.5510   31.0571   47.1014 H   0  0  0  0  0  0  0  0  0  0  0  0
   63.1262   30.8010   48.0063 H   0  0  0  0  0  0  0  0  0  0  0  0
   60.4600   30.2014   48.8765 H   0  0  0  0  0  0  0  0  0  0  0  0
   62.0215   29.9910   49.7501 H   0  0  0  0  0  0  0  0  0  0  0  0
   59.1757   29.8910   50.1957 H   0  0  0  0  0  0  0  0  0  0  0  0
   56.9359   30.0486   51.2799 H   0  0  0  0  0  0  0  0  0  0  0  0
   56.2516   32.1499   52.4402 H   0  0  0  0  0  0  0  0  0  0  0  0
   57.8018   34.1047   52.4977 H   0  0  0  0  0  0  0  0  0  0  0  0
   60.0552   33.9506   51.4417 H   0  0  0  0  0  0  0  0  0  0  0  0
   59.8453   32.1743   48.1862 H   0  0  0  0  0  0  0  0  0  0  0  0
   58.9977   33.7647   48.2609 H   0  0  0  0  0  0  0  0  0  0  0  0
   58.5275   31.4298   46.3658 H   0  0  0  0  0  0  0  0  0  0  0  0
   57.3609   32.3119   47.4738 H   0  0  0  0  0  0  0  0  0  0  0  0
   57.0378   32.9380   43.6915 H   0  0  0  0  0  0  0  0  0  0  0  0
   58.8203   32.7730   43.8989 H   0  0  0  0  0  0  0  0  0  0  0  0
   59.8142   30.6696   44.3852 H   0  0  0  0  0  0  0  0  0  0  0  0
   59.5100   28.1999   44.6798 H   0  0  0  0  0  0  0  0  0  0  0  0
   57.2088   27.2626   44.9917 H   0  0  0  0  0  0  0  0  0  0  0  0
   55.2415   28.8094   44.9991 H   0  0  0  0  0  0  0  0  0  0  0  0
   58.0963   35.1064   44.6959 H   0  0  0  0  0  0  0  0  0  0  0  0
   58.0969   35.1482   46.5073 H   0  0  0  0  0  0  0  0  0  0  0  0
   60.2690   34.0632   44.6581 H   0  0  0  0  0  0  0  0  0  0  0  0
   60.3597   35.4602   45.8071 H   0  0  0  0  0  0  0  0  0  0  0  0
  1  2  1  0
  2  3  1  0
  3  4  1  0
  4  5  1  0
  5  6  1  0
  6  7  2  0
  7  8  1  0
  8  9  2  0
  9 10  1  0
 10 11  2  0
  2 12  1  0
 12 13  2  0
 12 14  1  0
 14 15  1  0
 15 16  1  0
 16 17  1  0
 17 18  1  0
 18 19  1  0
 19 20  2  0
 20 21  1  0
 21 22  2  0
 22 23  1  0
 23 24  2  0
 17 25  1  0
 25 26  1  0
 11  6  1  0
 26 14  1  0
 24 19  1  0
  1 27  1  0
  1 28  1  0
  1 29  1  0
  2 30  1  1
  3 31  1  0
  3 32  1  0
  4 33  1  0
  4 34  1  0
  7 35  1  0
  8 36  1  0
  9 37  1  0
 10 38  1  0
 11 39  1  0
 15 40  1  0
 15 41  1  0
 16 42  1  0
 16 43  1  0
 18 44  1  0
 18 45  1  0
 20 46  1  0
 21 47  1  0
 22 48  1  0
 23 49  1  0
 25 50  1  0
 25 51  1  0
 26 52  1  0
 26 53  1  0
M  CHG  1   2   1
M  END
>  <UniqueID>  (34) 
33

>  <SMILES>  (34) 
C[N@H+](CCOc1ccccc1)C(=O)N1CCN(Cc2ccccn2)CC1

>  <Energy>  (34) 
65.66809729980574

>  <Genealogy>  (34) 
C[NH+](CCOc1ccccc1)C(=O)N1CCN(Cc2ccccn2)CC1 (protonated)
C[N@H+](CCOc1ccccc1)C(=O)N1CCN(Cc2ccccn2)CC1 (chirality)
C[N@H+](CCOc1ccccc1)C(=O)N1CCN(Cc2ccccn2)CC1 (3D coordinates assigned)
C[N@H+](CCOc1ccccc1)C(=O)N1CCN(Cc2ccccn2)CC1 (nonaromatic ring conformer: 65.66809729980574 kcal/mol)

>  <smiles>  (34) 
CN(CCOc1ccccc1)C(=O)N1CCN(Cc2ccccn2)CC1

>  <score_type>  (34) 
oracle

>  <origin>  (34) 
adg

>  <m_score__min__energy>  (34) 
-5.7599999999999998

>  <m_primary>  (34) 
energy

$$$$
34:0
     RDKit          3D

 51 53  0  0  0  0  0  0  0  0999 V2000
   60.3420   29.5950   47.3180 C   0  0  0  0  0  0  0  0  0  0  0  0
   60.0990   30.0330   45.8780 C   0  0  0  0  0  0  0  0  0  0  0  0
   58.9090   30.8860   45.7990 N   0  0  0  0  0  0  0  0  0  0  0  0
   57.8300   30.7180   45.0030 C   0  0  0  0  0  0  0  0  0  0  0  0
   57.5490   29.4790   44.1910 C   0  0  0  0  0  0  0  0  0  0  0  0
   56.4630   28.6780   44.7770 N   0  0  0  0  0  0  0  0  0  0  0  0
   57.0120   27.5540   45.4980 C   0  0  0  0  0  0  0  0  0  0  0  0
   58.4070   27.3840   45.5810 C   0  0  0  0  0  0  0  0  0  0  0  0
   58.9530   26.2790   46.2500 C   0  0  0  0  0  0  0  0  0  0  0  0
   60.4400   26.1190   46.3720 C   0  0  0  0  0  0  0  0  0  0  0  0
   58.1000   25.3450   46.8540 C   0  0  0  0  0  0  0  0  0  0  0  0
   56.7140   25.4980   46.7660 C   0  0  0  0  0  0  0  0  0  0  0  0
   56.1680   26.5900   46.0860 C   0  0  0  0  0  0  0  0  0  0  0  0
   54.7840   26.7120   45.9980 O   0  0  0  0  0  0  0  0  0  0  0  0
   57.0240   31.7990   45.0330 N   0  0  0  0  0  0  0  0  0  0  0  0
   57.5940   32.6880   45.8310 N   0  0  0  0  0  0  0  0  0  0  0  0
   58.7320   32.1330   46.2930 C   0  0  0  0  0  0  0  0  0  0  0  0
   59.6710   32.8520   47.1730 C   0  0  0  0  0  0  0  0  0  0  0  0
   60.9650   33.1630   46.7370 C   0  0  0  0  0  0  0  0  0  0  0  0
   61.8550   33.8250   47.5850 C   0  0  0  0  0  0  0  0  0  0  0  0
   61.4670   34.1740   48.8930 C   0  0  0  0  0  0  0  0  0  0  0  0
   62.3330   34.8420   49.7730 O   0  0  0  0  0  0  0  0  0  0  0  0
   63.2420   34.1930   50.6580 C   0  0  0  0  0  0  0  0  0  0  0  0
   60.1800   33.8440   49.3460 C   0  0  0  0  0  0  0  0  0  0  0  0
   59.8250   34.1930   50.6580 O   0  0  0  0  0  0  0  0  0  0  0  0
   59.0900   33.3560   51.5460 C   0  0  0  0  0  0  0  0  0  0  0  0
   59.2880   33.1770   48.4820 C   0  0  0  0  0  0  0  0  0  0  0  0
   59.9252   30.3462   48.0050 H   0  0  0  0  0  0  0  0  0  0  0  0
   59.8527   28.6257   47.4940 H   0  0  0  0  0  0  0  0  0  0  0  0
   61.4234   29.4971   47.4940 H   0  0  0  0  0  0  0  0  0  0  0  0
   60.9730   30.5953   45.5174 H   0  0  0  0  0  0  0  0  0  0  0  0
   59.9413   29.1406   45.2545 H   0  0  0  0  0  0  0  0  0  0  0  0
   57.2613   29.7782   43.1723 H   0  0  0  0  0  0  0  0  0  0  0  0
   58.4605   28.8634   44.1789 H   0  0  0  0  0  0  0  0  0  0  0  0
   55.8220   28.3370   44.0210 H   0  0  0  0  0  0  0  0  0  0  0  0
   55.8990   29.2720   45.4290 H   0  0  0  0  0  0  0  0  0  0  0  0
   59.0748   28.1247   45.1169 H   0  0  0  0  0  0  0  0  0  0  0  0
   60.7195   26.0889   47.4355 H   0  0  0  0  0  0  0  0  0  0  0  0
   60.7492   25.1824   45.8850 H   0  0  0  0  0  0  0  0  0  0  0  0
   60.9414   26.9684   45.8850 H   0  0  0  0  0  0  0  0  0  0  0  0
   58.5233   24.4885   47.3992 H   0  0  0  0  0  0  0  0  0  0  0  0
   56.0501   24.7561   47.2337 H   0  0  0  0  0  0  0  0  0  0  0  0
   61.2819   32.8843   45.7212 H   0  0  0  0  0  0  0  0  0  0  0  0
   62.8653   34.0755   47.2293 H   0  0  0  0  0  0  0  0  0  0  0  0
   62.9517   34.4003   51.6986 H   0  0  0  0  0  0  0  0  0  0  0  0
   63.2161   33.1079   50.4793 H   0  0  0  0  0  0  0  0  0  0  0  0
   64.2599   34.5698   50.4793 H   0  0  0  0  0  0  0  0  0  0  0  0
   59.3274   33.6263   52.5855 H   0  0  0  0  0  0  0  0  0  0  0  0
   58.0127   33.4903   51.3691 H   0  0  0  0  0  0  0  0  0  0  0  0
   59.3624   32.3050   51.3691 H   0  0  0  0  0  0  0  0  0  0  0  0
   58.2823   32.9090   48.8380 H   0  0  0  0  0  0  0  0  0  0  0  0
  1  2  1  0
  2  3  1  0
  3  4  1  0
  4  5  1  0
  5  6  1  0
  6  7  1  0
  7  8  2  0
  8  9  1  0
  9 10  1  0
  9 11  2  0
 11 12  1  0
 12 13  2  0
 13 14  1  0
  4 15  2  0
 15 16  1  0
 16 17  2  0
 17 18  1  0
 18 19  2  0
 19 20  1  0
 20 21  2  0
 21 22  1  0
 22 23  1  0
 21 24  1  0
 24 25  1  0
 25 26  1  0
 24 27  2  0
 17  3  1  0
 27 18  1  0
 13  7  1  0
  1 28  1  0
  1 29  1  0
  1 30  1  0
  2 31  1  0
  2 32  1  0
  5 33  1  0
  5 34  1  0
  6 35  1  0
  6 36  1  0
  8 37  1  0
 10 38  1  0
 10 39  1  0
 10 40  1  0
 11 41  1  0
 12 42  1  0
 19 43  1  0
 20 44  1  0
 23 45  1  0
 23 46  1  0
 23 47  1  0
 26 48  1  0
 26 49  1  0
 26 50  1  0
 27 51  1  0
M  CHG  2   6   1  14  -1
M  END
>  <UniqueID>  (35) 
34

>  <SMILES>  (35) 
CCn1c(C[NH2+]c2cc(C)ccc2[O-])nnc1-c1ccc(OC)c(OC)c1

>  <Energy>  (35) 
89.2606510868549

>  <Genealogy>  (35) 
CCn1c(C[NH2+]c2cc(C)ccc2[O-])nnc1-c1ccc(OC)c(OC)c1 (protonated)
CCn1c(C[NH2+]c2cc(C)ccc2[O-])nnc1-c1ccc(OC)c(OC)c1 (3D coordinates assigned)
CCn1c(C[NH2+]c2cc(C)ccc2[O-])nnc1-c1ccc(OC)c(OC)c1 (optimized conformer: 89.2606510868549 kcal/mol)

>  <smiles>  (35) 
CCn1c(CNc2cc(C)ccc2O)nnc1-c1ccc(OC)c(OC)c1

>  <score_type>  (35) 
oracle

>  <origin>  (35) 
adg

>  <m_score__min__energy>  (35) 
-9.5299999999999994

>  <m_primary>  (35) 
energy

$$$$
