0:0
     RDKit          3D

 45 48  0  0  0  0  0  0  0  0999 V2000
   56.2140   29.8300   43.3820 C   0  0  0  0  0  0  0  0  0  0  0  0
   56.0350   30.8720   44.3350 O   0  0  0  0  0  0  0  0  0  0  0  0
   57.0830   31.5630   44.9620 C   0  0  0  0  0  0  0  0  0  0  0  0
   57.1700   32.9610   44.9590 C   0  0  0  0  0  0  0  0  0  0  0  0
   58.2140   33.6010   45.6190 C   0  0  0  0  0  0  0  0  0  0  0  0
   59.2090   32.8680   46.2890 C   0  0  0  0  0  0  0  0  0  0  0  0
   59.1630   31.4360   46.2520 C   0  0  0  0  0  0  0  0  0  0  0  0
   58.0730   30.8190   45.6070 C   0  0  0  0  0  0  0  0  0  0  0  0
   60.2010   30.5830   46.8130 N   0  0  0  0  0  0  0  0  0  0  0  0
   60.8270   29.5490   45.9730 C   0  0  0  0  0  0  0  0  0  0  0  0
   59.8680   28.4100   45.7660 C   0  0  0  0  0  0  0  0  0  0  0  0
   59.3540   28.1370   44.4890 C   0  0  0  0  0  0  0  0  0  0  0  0
   58.4230   27.1090   44.3100 C   0  0  0  0  0  0  0  0  0  0  0  0
   57.9950   26.3530   45.4060 C   0  0  0  0  0  0  0  0  0  0  0  0
   58.4920   26.6290   46.6820 C   0  0  0  0  0  0  0  0  0  0  0  0
   59.4230   27.6560   46.8650 C   0  0  0  0  0  0  0  0  0  0  0  0
   60.7500   30.7760   48.1350 C   0  0  0  0  0  0  0  0  0  0  0  0
   60.7620   29.8110   48.9460 O   0  0  0  0  0  0  0  0  0  0  0  0
   61.3840   32.0790   48.5460 C   0  0  2  0  0  0  0  0  0  0  0  0
   60.5410   32.7600   49.6680 C   0  0  0  0  0  0  0  0  0  0  0  0
   60.3570   34.2780   49.4460 C   0  0  0  0  0  0  0  0  0  0  0  0
   59.7450   34.5740   48.0520 C   0  0  0  0  0  0  0  0  0  0  0  0
   60.2010   33.6020   47.0390 N   0  0  0  0  0  0  0  0  0  0  0  0
   61.4220   32.9520   47.3450 C   0  0  0  0  0  0  0  0  0  0  0  0
   62.4370   33.0670   46.6100 O   0  0  0  0  0  0  0  0  0  0  0  0
   56.3777   28.8772   43.9068 H   0  0  0  0  0  0  0  0  0  0  0  0
   55.3162   29.7517   42.7513 H   0  0  0  0  0  0  0  0  0  0  0  0
   57.0865   30.0558   42.7513 H   0  0  0  0  0  0  0  0  0  0  0  0
   56.4091   33.5556   44.4322 H   0  0  0  0  0  0  0  0  0  0  0  0
   58.2618   34.7000   45.6166 H   0  0  0  0  0  0  0  0  0  0  0  0
   57.9999   29.7214   45.6116 H   0  0  0  0  0  0  0  0  0  0  0  0
   61.0940   29.9830   44.9982 H   0  0  0  0  0  0  0  0  0  0  0  0
   61.7323   29.1745   46.4731 H   0  0  0  0  0  0  0  0  0  0  0  0
   59.6845   28.7336   43.6260 H   0  0  0  0  0  0  0  0  0  0  0  0
   58.0270   26.8948   43.3064 H   0  0  0  0  0  0  0  0  0  0  0  0
   57.2669   25.5409   45.2632 H   0  0  0  0  0  0  0  0  0  0  0  0
   58.1504   26.0374   47.5442 H   0  0  0  0  0  0  0  0  0  0  0  0
   59.8081   27.8743   47.8720 H   0  0  0  0  0  0  0  0  0  0  0  0
   62.3971   31.9066   48.9382 H   0  0  0  0  0  0  0  0  0  0  0  0
   59.5484   32.2869   49.6970 H   0  0  0  0  0  0  0  0  0  0  0  0
   61.0854   32.6290   50.6148 H   0  0  0  0  0  0  0  0  0  0  0  0
   59.6872   34.6751   50.2230 H   0  0  0  0  0  0  0  0  0  0  0  0
   61.3448   34.7589   49.5005 H   0  0  0  0  0  0  0  0  0  0  0  0
   58.6486   34.5242   48.1260 H   0  0  0  0  0  0  0  0  0  0  0  0
   60.0734   35.5760   47.7386 H   0  0  0  0  0  0  0  0  0  0  0  0
  1  2  1  0
  2  3  1  0
  3  4  2  0
  4  5  1  0
  5  6  2  0
  6  7  1  0
  7  8  2  0
  7  9  1  0
  9 10  1  0
 10 11  1  0
 11 12  2  0
 12 13  1  0
 13 14  2  0
 14 15  1  0
 15 16  2  0
  9 17  1  0
 17 18  2  0
 17 19  1  0
 19 20  1  0
 20 21  1  0
 21 22  1  0
 22 23  1  0
 23 24  1  0
 24 25  2  0
  8  3  1  0
 16 11  1  0
 24 19  1  0
 23  6  1  0
  1 26  1  0
  1 27  1  0
  1 28  1  0
  4 29  1  0
  5 30  1  0
  8 31  1  0
 10 32  1  0
 10 33  1  0
 12 34  1  0
 13 35  1  0
 14 36  1  0
 15 37  1  0
 16 38  1  0
 19 39  1  1
 20 40  1  0
 20 41  1  0
 21 42  1  0
 21 43  1  0
 22 44  1  0
 22 45  1  0
M  END
>  <UniqueID>  (1) 
1

>  <SMILES>  (1) 
COc1ccc2c(c1)N(Cc1ccccc1)C(=O)[C@@H]1CCCN2C1=O

>  <Energy>  (1) 
84.51634100962306

>  <Genealogy>  (1) 
COc1ccc2c(c1)N(Cc1ccccc1)C(=O)[C@@H]1CCCN2C1=O (chirality)
COc1ccc2c(c1)N(Cc1ccccc1)C(=O)[C@@H]1CCCN2C1=O (3D coordinates assigned)
COc1ccc2c(c1)N(Cc1ccccc1)C(=O)[C@@H]1CCCN2C1=O (nonaromatic ring conformer: 84.51634100962306 kcal/mol)

>  <smiles>  (1) 
COc1ccc2c(c1)N(Cc1ccccc1)C(=O)C1CCCN2C1=O

>  <score_type>  (1) 
oracle

>  <origin>  (1) 
adg

>  <m_score__min__energy>  (1) 
-6.5999999999999996

>  <m_primary>  (1) 
energy

$$$$
1:0
     RDKit          3D

 30 30  0  0  0  0  0  0  0  0999 V2000
   61.0019   29.2595   44.6265 H   0  0  0  0  0  0  0  0  0  0  0  0
   59.9400   28.9940   44.7360 C   0  0  0  0  0  0  0  0  0  0  0  0
   58.7760   28.7030   44.8560 C   0  0  0  0  0  0  0  0  0  0  0  0
   57.3570   28.3480   45.0040 C   0  0  0  0  0  0  0  0  0  0  0  0
   57.2016   27.3392   44.5940 H   0  0  0  0  0  0  0  0  0  0  0  0
   57.1123   28.3925   46.0755 H   0  0  0  0  0  0  0  0  0  0  0  0
   56.4210   29.3290   44.2700 C   0  0  1  0  0  0  0  0  0  0  0  0
   56.2565   28.9264   43.2596 H   0  0  0  0  0  0  0  0  0  0  0  0
   55.1730   29.4100   44.9150 O   0  0  0  0  0  0  0  0  0  0  0  0
   55.2390   30.1050   45.6200 H   0  0  0  0  0  0  0  0  0  0  0  0
   57.0580   30.7240   44.0840 C   0  0  0  0  0  0  0  0  0  0  0  0
   58.1523   30.6183   44.0485 H   0  0  0  0  0  0  0  0  0  0  0  0
   56.6833   31.1591   43.1458 H   0  0  0  0  0  0  0  0  0  0  0  0
   56.6990   31.6120   45.1860 N   0  0  0  0  0  0  0  0  0  0  0  0
   57.1930   32.8040   45.3290 C   0  0  0  0  0  0  0  0  0  0  0  0
   56.5812   33.6791   45.0648 H   0  0  0  0  0  0  0  0  0  0  0  0
   58.5640   33.0030   45.8410 C   0  0  0  0  0  0  0  0  0  0  0  0
   59.2790   31.9060   46.3420 C   0  0  0  0  0  0  0  0  0  0  0  0
   58.8146   30.9089   46.3493 H   0  0  0  0  0  0  0  0  0  0  0  0
   60.5770   32.0700   46.8320 C   0  0  0  0  0  0  0  0  0  0  0  0
   61.1213   31.2033   47.2352 H   0  0  0  0  0  0  0  0  0  0  0  0
   61.1930   33.3330   46.8140 C   0  0  0  0  0  0  0  0  0  0  0  0
   62.5750   33.5180   47.3880 C   0  0  0  0  0  0  0  0  0  0  0  0
   63.1670   32.2940   47.6430 F   0  0  0  0  0  0  0  0  0  0  0  0
   63.3530   34.2150   46.4830 F   0  0  0  0  0  0  0  0  0  0  0  0
   62.5200   34.2280   48.5750 F   0  0  0  0  0  0  0  0  0  0  0  0
   60.4670   34.4370   46.3350 C   0  0  0  0  0  0  0  0  0  0  0  0
   60.9244   35.4374   46.3455 H   0  0  0  0  0  0  0  0  0  0  0  0
   59.1670   34.2730   45.8450 C   0  0  0  0  0  0  0  0  0  0  0  0
   58.6135   35.1425   45.4607 H   0  0  0  0  0  0  0  0  0  0  0  0
  1  2  1  0
  2  3  3  0
  3  4  1  0
  4  5  1  0
  4  6  1  0
  4  7  1  0
  7  8  1  6
  7  9  1  0
  9 10  1  0
  7 11  1  0
 11 12  1  0
 11 13  1  0
 11 14  1  0
 14 15  2  0
 15 16  1  0
 15 17  1  0
 17 18  2  0
 18 19  1  0
 18 20  1  0
 20 21  1  0
 20 22  2  0
 22 23  1  0
 23 24  1  0
 23 25  1  0
 23 26  1  0
 22 27  1  0
 27 28  1  0
 27 29  2  0
 29 30  1  0
 29 17  1  0
M  END
>  <UniqueID>  (2) 
2

>  <SMILES>  (2) 
C#CC[C@@H](O)C/N=C/c1ccc(C(F)(F)F)cc1

>  <Energy>  (2) 
23.382056085528202

>  <Genealogy>  (2) 
C#CC[C@@H](O)CN=Cc1ccc(C(F)(F)F)cc1 (chirality)
C#CC[C@@H](O)C/N=C/c1ccc(C(F)(F)F)cc1 (cis-trans isomerization)
C#CC[C@@H](O)C/N=C/c1ccc(C(F)(F)F)cc1 (3D coordinates assigned)
C#CC[C@@H](O)C/N=C/c1ccc(C(F)(F)F)cc1 (optimized conformer: 23.382056085528202 kcal/mol)

>  <smiles>  (2) 
C#CCC(O)CN=Cc1ccc(C(F)(F)F)cc1

>  <score_type>  (2) 
oracle

>  <origin>  (2) 
adg

>  <m_score__min__energy>  (2) 
-6.3300000000000001

>  <m_primary>  (2) 
energy

$$$$
2:0
     RDKit          3D

 26 28  0  0  0  0  0  0  0  0999 V2000
   57.2710   24.7860   46.2230 C   0  0  0  0  0  0  0  0  0  0  0  0
   57.4960   25.9750   45.3470 C   0  0  0  0  0  0  0  0  0  0  0  0
   57.2080   27.2920   45.7720 C   0  0  0  0  0  0  0  0  0  0  0  0
   57.5260   28.2480   44.8170 C   0  0  0  0  0  0  0  0  0  0  0  0
   57.3610   29.7000   44.9180 C   0  0  0  0  0  0  0  0  0  0  0  0
   56.2680   30.3690   44.5070 N   0  0  0  0  0  0  0  0  0  0  0  0
   56.4990   31.6470   44.7650 N   0  0  0  0  0  0  0  0  0  0  0  0
   57.7260   31.7080   45.3210 C   0  0  0  0  0  0  0  0  0  0  0  0
   58.3820   32.9520   45.7650 C   0  0  0  0  0  0  0  0  0  0  0  0
   58.6970   33.1540   47.1200 C   0  0  0  0  0  0  0  0  0  0  0  0
   59.3180   34.3370   47.5320 C   0  0  0  0  0  0  0  0  0  0  0  0
   59.6310   35.3260   46.5970 C   0  0  0  0  0  0  0  0  0  0  0  0
   59.3220   35.1350   45.2480 C   0  0  0  0  0  0  0  0  0  0  0  0
   58.7010   33.9540   44.8310 C   0  0  0  0  0  0  0  0  0  0  0  0
   58.2590   30.5130   45.4170 O   0  0  0  0  0  0  0  0  0  0  0  0
   58.1490   27.4020   43.5260 S   0  0  0  0  0  0  0  0  0  0  0  0
   58.0410   25.8490   44.1080 N   0  0  0  0  0  0  0  0  0  0  0  0
   57.3288   25.0917   47.2781 H   0  0  0  0  0  0  0  0  0  0  0  0
   56.2768   24.3624   46.0180 H   0  0  0  0  0  0  0  0  0  0  0  0
   58.0417   24.0284   46.0180 H   0  0  0  0  0  0  0  0  0  0  0  0
   56.7776   27.5337   46.7550 H   0  0  0  0  0  0  0  0  0  0  0  0
   58.4537   32.3773   47.8600 H   0  0  0  0  0  0  0  0  0  0  0  0
   59.5604   34.4889   48.5942 H   0  0  0  0  0  0  0  0  0  0  0  0
   60.1209   36.2555   46.9227 H   0  0  0  0  0  0  0  0  0  0  0  0
   59.5678   35.9153   44.5126 H   0  0  0  0  0  0  0  0  0  0  0  0
   58.4608   33.8077   43.7676 H   0  0  0  0  0  0  0  0  0  0  0  0
  1  2  1  0
  2  3  1  0
  3  4  2  0
  4  5  1  0
  5  6  2  0
  6  7  1  0
  7  8  2  0
  8  9  1  0
  9 10  2  0
 10 11  1  0
 11 12  2  0
 12 13  1  0
 13 14  2  0
  8 15  1  0
  4 16  1  0
 16 17  1  0
 17  2  2  0
 15  5  1  0
 14  9  1  0
  1 18  1  0
  1 19  1  0
  1 20  1  0
  3 21  1  0
 10 22  1  0
 11 23  1  0
 12 24  1  0
 13 25  1  0
 14 26  1  0
M  END
>  <UniqueID>  (3) 
3

>  <SMILES>  (3) 
Cc1cc(-c2nnc(-c3ccccc3)o2)sn1

>  <Energy>  (3) 
92.8135851751556

>  <Genealogy>  (3) 
Cc1cc(-c2nnc(-c3ccccc3)o2)sn1 (3D coordinates assigned)
Cc1cc(-c2nnc(-c3ccccc3)o2)sn1 (optimized conformer: 92.8135851751556 kcal/mol)

>  <smiles>  (3) 
Cc1cc(-c2nnc(-c3ccccc3)o2)sn1

>  <score_type>  (3) 
oracle

>  <origin>  (3) 
adg

>  <m_score__min__energy>  (3) 
-7.0499999999999998

>  <m_primary>  (3) 
energy

$$$$
3:0
     RDKit          3D

 50 53  0  0  0  0  0  0  0  0999 V2000
   60.7990   26.9300   50.1610 C   0  0  0  0  0  0  0  0  0  0  0  0
   61.0650   27.3010   48.8120 O   0  0  0  0  0  0  0  0  0  0  0  0
   60.2780   28.1890   48.0610 C   0  0  0  0  0  0  0  0  0  0  0  0
   60.5630   29.5540   48.1430 C   0  0  0  0  0  0  0  0  0  0  0  0
   59.8210   30.4810   47.4120 C   0  0  0  0  0  0  0  0  0  0  0  0
   58.7610   30.0570   46.5910 C   0  0  0  0  0  0  0  0  0  0  0  0
   58.0150   30.9700   45.8250 C   0  0  0  0  0  0  0  0  0  0  0  0
   58.2740   32.3780   45.8780 N   0  0  0  0  0  0  0  0  0  0  0  0
   58.2100   33.0590   47.1750 C   0  0  0  0  0  0  0  0  0  0  0  0
   58.5110   34.5530   47.0170 C   0  0  0  0  0  0  0  0  0  0  0  0
   59.6130   34.7520   46.0690 N   0  0  0  0  0  0  0  0  0  0  0  0
   59.2570   34.3320   44.6990 C   0  0  0  0  0  0  0  0  0  0  0  0
   58.2550   33.1580   44.6400 C   0  0  0  0  0  0  0  0  0  0  0  0
   57.0370   30.5100   45.0060 N   0  0  0  0  0  0  0  0  0  0  0  0
   56.7370   29.2150   44.9270 N   0  0  0  0  0  0  0  0  0  0  0  0
   57.3920   28.2750   45.6590 C   0  0  0  0  0  0  0  0  0  0  0  0
   56.9510   26.8690   45.5320 C   0  0  0  0  0  0  0  0  0  0  0  0
   55.9580   26.3500   46.3730 C   0  0  0  0  0  0  0  0  0  0  0  0
   55.5390   25.0670   46.2230 N   0  0  0  0  0  0  0  0  0  0  0  0
   56.0600   24.2680   45.2570 C   0  0  0  0  0  0  0  0  0  0  0  0
   55.6050   22.9530   45.1360 O   0  0  0  0  0  0  0  0  0  0  0  0
   56.3810   21.9240   44.5340 C   0  0  0  0  0  0  0  0  0  0  0  0
   57.0140   24.7570   44.4190 N   0  0  0  0  0  0  0  0  0  0  0  0
   57.4680   26.0360   44.5290 C   0  0  0  0  0  0  0  0  0  0  0  0
   58.4500   26.5170   43.6550 O   0  0  0  0  0  0  0  0  0  0  0  0
   58.1480   27.0310   42.3650 C   0  0  0  0  0  0  0  0  0  0  0  0
   58.4500   28.6780   46.5060 C   0  0  0  0  0  0  0  0  0  0  0  0
   59.2260   27.7530   47.2360 C   0  0  0  0  0  0  0  0  0  0  0  0
   61.3029   27.6328   50.8407 H   0  0  0  0  0  0  0  0  0  0  0  0
   59.7144   26.9586   50.3421 H   0  0  0  0  0  0  0  0  0  0  0  0
   61.1742   25.9120   50.3421 H   0  0  0  0  0  0  0  0  0  0  0  0
   61.3813   29.9012   48.7910 H   0  0  0  0  0  0  0  0  0  0  0  0
   60.0665   31.5512   47.4780 H   0  0  0  0  0  0  0  0  0  0  0  0
   57.2020   32.9364   47.5980 H   0  0  0  0  0  0  0  0  0  0  0  0
   58.9613   32.6155   47.8450 H   0  0  0  0  0  0  0  0  0  0  0  0
   57.6131   35.0667   46.6429 H   0  0  0  0  0  0  0  0  0  0  0  0
   58.8007   34.9654   47.9947 H   0  0  0  0  0  0  0  0  0  0  0  0
   60.4380   34.1900   46.3920 H   0  0  0  0  0  0  0  0  0  0  0  0
   58.8118   35.1927   44.1785 H   0  0  0  0  0  0  0  0  0  0  0  0
   60.1848   33.9815   44.2233 H   0  0  0  0  0  0  0  0  0  0  0  0
   57.2425   33.5589   44.4850 H   0  0  0  0  0  0  0  0  0  0  0  0
   58.5441   32.4971   43.8096 H   0  0  0  0  0  0  0  0  0  0  0  0
   55.5167   26.9833   47.1567 H   0  0  0  0  0  0  0  0  0  0  0  0
   56.8453   21.3083   45.3185 H   0  0  0  0  0  0  0  0  0  0  0  0
   55.7318   21.2932   43.9090 H   0  0  0  0  0  0  0  0  0  0  0  0
   57.1660   22.3748   43.9090 H   0  0  0  0  0  0  0  0  0  0  0  0
   57.5932   27.9753   42.4672 H   0  0  0  0  0  0  0  0  0  0  0  0
   59.0829   27.2128   41.8146 H   0  0  0  0  0  0  0  0  0  0  0  0
   57.5342   26.3028   41.8146 H   0  0  0  0  0  0  0  0  0  0  0  0
   59.0055   26.6781   47.1589 H   0  0  0  0  0  0  0  0  0  0  0  0
  1  2  1  0
  2  3  1  0
  3  4  2  0
  4  5  1  0
  5  6  2  0
  6  7  1  0
  7  8  1  0
  8  9  1  0
  9 10  1  0
 10 11  1  0
 11 12  1  0
 12 13  1  0
  7 14  2  0
 14 15  1  0
 15 16  2  0
 16 17  1  0
 17 18  2  0
 18 19  1  0
 19 20  2  0
 20 21  1  0
 21 22  1  0
 20 23  1  0
 23 24  2  0
 24 25  1  0
 25 26  1  0
 16 27  1  0
 27 28  2  0
 28  3  1  0
 27  6  1  0
 13  8  1  0
 24 17  1  0
  1 29  1  0
  1 30  1  0
  1 31  1  0
  4 32  1  0
  5 33  1  0
  9 34  1  0
  9 35  1  0
 10 36  1  0
 10 37  1  0
 11 38  1  0
 12 39  1  0
 12 40  1  0
 13 41  1  0
 13 42  1  0
 18 43  1  0
 22 44  1  0
 22 45  1  0
 22 46  1  0
 26 47  1  0
 26 48  1  0
 26 49  1  0
 28 50  1  0
M  END
>  <UniqueID>  (4) 
4

>  <SMILES>  (4) 
COc1ccc2c(N3CCNCC3)nnc(-c3cnc(OC)nc3OC)c2c1

>  <Energy>  (4) 
72.07389594649247

>  <Genealogy>  (4) 
COc1ccc2c(N3CCNCC3)nnc(-c3cnc(OC)nc3OC)c2c1 (3D coordinates assigned)
COc1ccc2c(N3CCNCC3)nnc(-c3cnc(OC)nc3OC)c2c1 (nonaromatic ring conformer: 72.07389594649247 kcal/mol)

>  <smiles>  (4) 
COc1ccc2c(N3CCNCC3)nnc(-c3cnc(OC)nc3OC)c2c1

>  <score_type>  (4) 
oracle

>  <origin>  (4) 
adg

>  <m_score__min__energy>  (4) 
-7.21

>  <m_primary>  (4) 
energy

$$$$
4:0
     RDKit          3D

 48 50  0  0  0  0  0  0  0  0999 V2000
   58.6460   34.6220   44.8980 C   0  0  0  0  0  0  0  0  0  0  0  0
   57.3570   33.9450   45.3490 C   0  0  0  0  0  0  0  0  0  0  0  0
   57.6340   32.8660   46.2390 O   0  0  0  0  0  0  0  0  0  0  0  0
   58.5960   31.8920   45.9740 C   0  0  0  0  0  0  0  0  0  0  0  0
   58.7580   31.4690   44.7970 O   0  0  0  0  0  0  0  0  0  0  0  0
   59.4270   31.3760   47.0830 C   0  0  0  0  0  0  0  0  0  0  0  0
   60.0570   32.1490   47.9870 C   0  0  0  0  0  0  0  0  0  0  0  0
   60.0350   33.6180   47.8990 C   0  0  0  0  0  0  0  0  0  0  0  0
   59.2890   34.2810   48.6710 O   0  0  0  0  0  0  0  0  0  0  0  0
   60.9000   34.2590   47.0110 O   0  0  0  0  0  0  0  0  0  0  0  0
   62.2210   33.7960   46.7650 C   0  0  0  0  0  0  0  0  0  0  0  0
   61.0730   31.5370   48.9390 C   0  0  0  0  0  0  0  0  0  0  0  0
   60.6280   29.9390   49.7580 S   0  0  0  0  0  0  0  0  0  0  0  0
   59.4950   29.2130   48.5180 C   0  0  2  0  0  0  0  0  0  0  0  0
   59.9580   28.0170   47.8530 C   0  0  1  0  0  0  0  0  0  0  0  0
   59.0270   26.9000   47.9960 N   0  0  0  0  0  0  0  0  0  0  0  0
   58.4720   26.1710   46.8920 C   0  0  0  0  0  0  0  0  0  0  0  0
   59.1320   25.2210   46.3980 O   0  0  0  0  0  0  0  0  0  0  0  0
   57.1780   26.5460   46.2840 C   0  0  0  0  0  0  0  0  0  0  0  0
   56.1210   25.8640   46.6130 N   0  0  0  0  0  0  0  0  0  0  0  0
   54.9150   26.0010   45.9620 O   0  0  0  0  0  0  0  0  0  0  0  0
   54.1630   24.8570   45.6000 C   0  0  0  0  0  0  0  0  0  0  0  0
   57.0950   27.6580   45.3090 C   0  0  0  0  0  0  0  0  0  0  0  0
   57.5820   27.5670   44.0040 C   0  0  0  0  0  0  0  0  0  0  0  0
   57.2530   29.0230   43.2240 S   0  0  0  0  0  0  0  0  0  0  0  0
   56.4940   29.6810   44.5610 C   0  0  0  0  0  0  0  0  0  0  0  0
   55.9620   30.8590   44.5930 N   0  0  0  0  0  0  0  0  0  0  0  0
   56.4970   28.8440   45.6220 N   0  0  0  0  0  0  0  0  0  0  0  0
   59.7690   28.7370   46.5520 C   0  0  0  0  0  0  0  0  0  0  0  0
   59.8520   28.4180   45.3350 O   0  0  0  0  0  0  0  0  0  0  0  0
   59.4760   29.9770   47.3020 N   0  0  0  0  0  0  0  0  0  0  0  0
   59.2278   34.9275   45.7802 H   0  0  0  0  0  0  0  0  0  0  0  0
   59.2379   33.9184   44.2942 H   0  0  0  0  0  0  0  0  0  0  0  0
   58.4026   35.5087   44.2942 H   0  0  0  0  0  0  0  0  0  0  0  0
   56.7235   34.6827   45.8634 H   0  0  0  0  0  0  0  0  0  0  0  0
   56.8405   33.5465   44.4633 H   0  0  0  0  0  0  0  0  0  0  0  0
   62.7312   33.6172   47.7230 H   0  0  0  0  0  0  0  0  0  0  0  0
   62.1800   32.8586   46.1908 H   0  0  0  0  0  0  0  0  0  0  0  0
   62.7742   34.5538   46.1908 H   0  0  0  0  0  0  0  0  0  0  0  0
   61.9979   31.3675   48.3682 H   0  0  0  0  0  0  0  0  0  0  0  0
   61.1526   32.2602   49.7640 H   0  0  0  0  0  0  0  0  0  0  0  0
   58.5888   29.1144   49.1336 H   0  0  0  0  0  0  0  0  0  0  0  0
   60.9106   27.5391   48.1253 H   0  0  0  0  0  0  0  0  0  0  0  0
   53.8227   24.3392   46.5089 H   0  0  0  0  0  0  0  0  0  0  0  0
   53.2906   25.1649   45.0049 H   0  0  0  0  0  0  0  0  0  0  0  0
   54.7916   24.1782   45.0049 H   0  0  0  0  0  0  0  0  0  0  0  0
   58.0910   26.6974   43.5627 H   0  0  0  0  0  0  0  0  0  0  0  0
   56.5420   31.7110   44.7830 H   0  0  0  0  0  0  0  0  0  0  0  0
  1  2  1  0
  2  3  1  0
  3  4  1  0
  4  5  2  0
  4  6  1  0
  6  7  2  0
  7  8  1  0
  8  9  2  0
  8 10  1  0
 10 11  1  0
  7 12  1  0
 12 13  1  0
 13 14  1  0
 14 15  1  0
 15 16  1  0
 16 17  1  0
 17 18  2  0
 17 19  1  0
 19 20  2  3
 20 21  1  0
 21 22  1  0
 19 23  1  0
 23 24  2  0
 24 25  1  0
 25 26  1  0
 26 27  2  3
 26 28  1  0
 15 29  1  0
 29 30  2  0
 29 31  1  0
 31  6  1  0
 31 14  1  0
 28 23  1  0
  1 32  1  0
  1 33  1  0
  1 34  1  0
  2 35  1  0
  2 36  1  0
 11 37  1  0
 11 38  1  0
 11 39  1  0
 12 40  1  0
 12 41  1  0
 14 42  1  1
 15 43  1  1
 22 44  1  0
 22 45  1  0
 22 46  1  0
 24 47  1  0
 27 48  1  0
M  CHG  2  16  -1  28  -1
M  END
>  <UniqueID>  (5) 
5

>  <SMILES>  (5) 
CCOC(=O)C1=C(C(=O)OC)CS[C@@H]2[C@@H]([N-]C(=O)C(=NOC)c3csc(=N)[n-]3)C(=O)N12

>  <Energy>  (5) 
130.4969532239748

>  <Genealogy>  (5) 
CCOC(=O)C1=C(C(=O)OC)CSC2C([N-]C(=O)C(=NOC)c3csc(=N)[n-]3)C(=O)N12 (protonated)
CCOC(=O)C1=C(C(=O)OC)CS[C@@H]2[C@@H]([N-]C(=O)C(=NOC)c3csc(=N)[n-]3)C(=O)N12 (chirality)
CCOC(=O)C1=C(C(=O)OC)CS[C@@H]2[C@@H]([N-]C(=O)C(=NOC)c3csc(=N)[n-]3)C(=O)N12 (3D coordinates assigned)
CCOC(=O)C1=C(C(=O)OC)CS[C@@H]2[C@@H]([N-]C(=O)C(=NOC)c3csc(=N)[n-]3)C(=O)N12 (nonaromatic ring conformer: 130.4969532239748 kcal/mol)

>  <smiles>  (5) 
CCOC(=O)C1=C(C(=O)OC)CSC2C(NC(=O)C(=NOC)c3csc(=N)[nH]3)C(=O)N12

>  <score_type>  (5) 
oracle

>  <origin>  (5) 
adg

>  <m_score__min__energy>  (5) 
-11.44

>  <m_primary>  (5) 
energy

$$$$
5:0
     RDKit          3D

101106  0  0  0  0  0  0  0  0999 V2000
   57.0420   25.8720   43.2700 H   0  0  0  0  0  0  0  0  0  0  0  0
   57.6500   25.9240   44.0420 O   0  0  0  0  0  0  0  0  0  0  0  0
   57.3490   27.0450   44.8410 C   0  0  1  0  0  0  0  0  0  0  0  0
   56.2677   27.0998   45.0354 H   0  0  0  0  0  0  0  0  0  0  0  0
   58.0050   26.8620   46.2310 C   0  0  0  0  0  0  0  0  0  0  0  0
   58.6653   25.9850   46.1613 H   0  0  0  0  0  0  0  0  0  0  0  0
   57.1476   26.7835   46.9156 H   0  0  0  0  0  0  0  0  0  0  0  0
   58.8550   28.0260   46.8340 C   0  0  0  0  0  0  0  0  0  0  0  0
   59.8358   27.6017   47.0946 H   0  0  0  0  0  0  0  0  0  0  0  0
   58.2298   28.3954   47.6603 H   0  0  0  0  0  0  0  0  0  0  0  0
   59.1270   29.3010   45.9930 C   0  0  1  0  0  0  0  0  0  0  0  0
   60.3770   29.0320   45.0970 C   0  0  0  0  0  0  0  0  0  0  0  0
   61.2524   28.8436   45.7359 H   0  0  0  0  0  0  0  0  0  0  0  0
   60.1907   28.1534   44.4619 H   0  0  0  0  0  0  0  0  0  0  0  0
   60.5686   29.9095   44.4619 H   0  0  0  0  0  0  0  0  0  0  0  0
   57.8590   29.5510   45.1020 C   0  0  1  0  0  0  0  0  0  0  0  0
   56.9768   29.5177   45.7582 H   0  0  0  0  0  0  0  0  0  0  0  0
   57.8790   30.9600   44.5140 C   0  0  0  0  0  0  0  0  0  0  0  0
   57.7110   31.2160   43.0230 C   0  0  0  0  0  0  0  0  0  0  0  0
   57.1131   32.1270   42.8725 H   0  0  0  0  0  0  0  0  0  0  0  0
   58.7001   31.3458   42.5595 H   0  0  0  0  0  0  0  0  0  0  0  0
   57.1983   30.3602   42.5595 H   0  0  0  0  0  0  0  0  0  0  0  0
   58.0280   31.9910   45.3700 C   0  0  0  0  0  0  0  0  0  0  0  0
   57.9113   33.0251   45.0135 H   0  0  0  0  0  0  0  0  0  0  0  0
   58.3620   31.7170   46.8480 C   0  0  2  0  0  0  0  0  0  0  0  0
   57.4140   31.3787   47.2917 H   0  0  0  0  0  0  0  0  0  0  0  0
   58.6630   32.9680   47.8190 C   0  0  2  0  0  0  0  0  0  0  0  0
   57.7790   32.7972   48.4510 H   0  0  0  0  0  0  0  0  0  0  0  0
   58.6640   34.4020   47.1900 C   0  0  0  0  0  0  0  0  0  0  0  0
   58.3671   34.3479   46.1322 H   0  0  0  0  0  0  0  0  0  0  0  0
   57.9509   35.0548   47.7147 H   0  0  0  0  0  0  0  0  0  0  0  0
   60.0930   34.9590   47.3060 C   0  0  0  0  0  0  0  0  0  0  0  0
   60.4311   35.3660   46.3416 H   0  0  0  0  0  0  0  0  0  0  0  0
   60.1631   35.7830   48.0314 H   0  0  0  0  0  0  0  0  0  0  0  0
   60.9370   33.7610   47.7090 C   0  0  1  0  0  0  0  0  0  0  0  0
   61.2242   33.0836   46.8913 H   0  0  0  0  0  0  0  0  0  0  0  0
   62.4700   34.0350   48.0070 C   0  0  1  0  0  0  0  0  0  0  0  0
   62.8150   34.7364   47.2331 H   0  0  0  0  0  0  0  0  0  0  0  0
   62.6270   34.6880   49.4070 C   0  0  0  0  0  0  0  0  0  0  0  0
   62.4455   33.9330   50.1862 H   0  0  0  0  0  0  0  0  0  0  0  0
   63.6466   35.0868   49.5133 H   0  0  0  0  0  0  0  0  0  0  0  0
   61.9001   35.5067   49.5133 H   0  0  0  0  0  0  0  0  0  0  0  0
   63.3990   32.7970   47.8360 C   0  0  0  0  0  0  0  0  0  0  0  0
   62.7625   31.8999   47.8417 H   0  0  0  0  0  0  0  0  0  0  0  0
   63.9410   32.9715   46.8948 H   0  0  0  0  0  0  0  0  0  0  0  0
   64.4960   32.5980   48.9030 C   0  0  0  0  0  0  0  0  0  0  0  0
   65.3830   32.1640   48.4183 H   0  0  0  0  0  0  0  0  0  0  0  0
   64.7119   33.5827   49.3432 H   0  0  0  0  0  0  0  0  0  0  0  0
   64.0540   31.6640   50.0490 C   0  0  0  0  0  0  0  0  0  0  0  0
   63.3531   32.2078   50.6994 H   0  0  0  0  0  0  0  0  0  0  0  0
   63.5782   30.7794   49.6005 H   0  0  0  0  0  0  0  0  0  0  0  0
   65.2000   31.2010   50.8640 N   0  0  0  0  0  0  0  0  0  0  0  0
   65.8200   32.0190   51.0590 H   0  0  0  0  0  0  0  0  0  0  0  0
   64.7970   30.5760   52.1350 C   0  0  0  0  0  0  0  0  0  0  0  0
   63.7064   30.4326   52.1233 H   0  0  0  0  0  0  0  0  0  0  0  0
   65.3394   29.6225   52.2157 H   0  0  0  0  0  0  0  0  0  0  0  0
   65.1680   31.4210   53.3770 C   0  0  0  0  0  0  0  0  0  0  0  0
   65.5200   30.7505   54.1749 H   0  0  0  0  0  0  0  0  0  0  0  0
   65.9571   32.1320   53.0911 H   0  0  0  0  0  0  0  0  0  0  0  0
   64.0020   32.1890   53.8710 N   0  0  0  0  0  0  0  0  0  0  0  0
   63.1360   31.5980   53.8170 H   0  0  0  0  0  0  0  0  0  0  0  0
   64.1300   32.4340   54.8810 H   0  0  0  0  0  0  0  0  0  0  0  0
   63.7460   33.4180   53.0870 C   0  0  0  0  0  0  0  0  0  0  0  0
   63.9130   34.2908   53.7354 H   0  0  0  0  0  0  0  0  0  0  0  0
   64.4324   33.4141   52.2275 H   0  0  0  0  0  0  0  0  0  0  0  0
   62.3130   33.4800   52.5380 C   0  0  0  0  0  0  0  0  0  0  0  0
   61.8475   34.4199   52.8696 H   0  0  0  0  0  0  0  0  0  0  0  0
   62.3703   33.4253   51.4409 H   0  0  0  0  0  0  0  0  0  0  0  0
   61.4940   32.3620   52.9990 N   0  0  0  0  0  0  0  0  0  0  0  0
   60.7900   31.4240   52.4260 C   0  0  0  0  0  0  0  0  0  0  0  0
   61.5240   30.3270   51.9500 C   0  0  0  0  0  0  0  0  0  0  0  0
   62.6228   30.3764   51.9378 H   0  0  0  0  0  0  0  0  0  0  0  0
   60.8850   29.1750   51.4920 C   0  0  0  0  0  0  0  0  0  0  0  0
   61.4856   28.3207   51.1466 H   0  0  0  0  0  0  0  0  0  0  0  0
   59.5400   29.0970   51.4680 N   0  0  0  0  0  0  0  0  0  0  0  0
   58.7630   30.1510   51.8450 C   0  0  0  0  0  0  0  0  0  0  0  0
   57.3770   30.0070   51.7530 C   0  0  0  0  0  0  0  0  0  0  0  0
   56.9450   29.0532   51.4159 H   0  0  0  0  0  0  0  0  0  0  0  0
   56.5400   31.0710   52.0880 C   0  0  0  0  0  0  0  0  0  0  0  0
   54.7900   30.8590   51.9940 Cl  0  0  0  0  0  0  0  0  0  0  0  0
   57.0810   32.2810   52.4880 C   0  0  0  0  0  0  0  0  0  0  0  0
   56.4162   33.1148   52.7580 H   0  0  0  0  0  0  0  0  0  0  0  0
   58.4750   32.4500   52.5510 C   0  0  0  0  0  0  0  0  0  0  0  0
   58.8896   33.4368   52.8045 H   0  0  0  0  0  0  0  0  0  0  0  0
   59.3520   31.3730   52.2940 C   0  0  0  0  0  0  0  0  0  0  0  0
   60.0030   32.9490   48.6600 C   0  0  1  0  0  0  0  0  0  0  0  0
   59.6980   33.7030   50.0050 C   0  0  0  0  0  0  0  0  0  0  0  0
   59.9596   33.0562   50.8554 H   0  0  0  0  0  0  0  0  0  0  0  0
   60.2931   34.6270   50.0504 H   0  0  0  0  0  0  0  0  0  0  0  0
   58.6279   33.9534   50.0504 H   0  0  0  0  0  0  0  0  0  0  0  0
   60.5720   31.5240   48.9980 C   0  0  0  0  0  0  0  0  0  0  0  0
   60.5767   31.4103   50.0921 H   0  0  0  0  0  0  0  0  0  0  0  0
   61.5744   31.4811   48.5472 H   0  0  0  0  0  0  0  0  0  0  0  0
   59.7880   30.3500   48.4030 C   0  0  0  0  0  0  0  0  0  0  0  0
   58.8549   30.2173   48.9701 H   0  0  0  0  0  0  0  0  0  0  0  0
   60.4119   29.4463   48.4665 H   0  0  0  0  0  0  0  0  0  0  0  0
   59.4440   30.6040   46.9190 C   0  0  1  0  0  0  0  0  0  0  0  0
   60.3713   30.9479   46.4374 H   0  0  0  0  0  0  0  0  0  0  0  0
   57.5410   28.4070   44.1130 C   0  0  0  0  0  0  0  0  0  0  0  0
   58.3720   28.3139   43.3983 H   0  0  0  0  0  0  0  0  0  0  0  0
   56.6004   28.6535   43.5987 H   0  0  0  0  0  0  0  0  0  0  0  0
  1  2  1  0
  2  3  1  0
  3  4  1  1
  3  5  1  0
  5  6  1  0
  5  7  1  0
  5  8  1  0
  8  9  1  0
  8 10  1  0
  8 11  1  0
 11 12  1  6
 12 13  1  0
 12 14  1  0
 12 15  1  0
 11 16  1  0
 16 17  1  1
 16 18  1  0
 18 19  1  0
 19 20  1  0
 19 21  1  0
 19 22  1  0
 18 23  2  0
 23 24  1  0
 23 25  1  0
 25 26  1  1
 25 27  1  0
 27 28  1  1
 27 29  1  0
 29 30  1  0
 29 31  1  0
 29 32  1  0
 32 33  1  0
 32 34  1  0
 32 35  1  0
 35 36  1  6
 35 37  1  0
 37 38  1  6
 37 39  1  0
 39 40  1  0
 39 41  1  0
 39 42  1  0
 37 43  1  0
 43 44  1  0
 43 45  1  0
 43 46  1  0
 46 47  1  0
 46 48  1  0
 46 49  1  0
 49 50  1  0
 49 51  1  0
 49 52  1  0
 52 53  1  0
 52 54  1  0
 54 55  1  0
 54 56  1  0
 54 57  1  0
 57 58  1  0
 57 59  1  0
 57 60  1  0
 60 61  1  0
 60 62  1  0
 60 63  1  0
 63 64  1  0
 63 65  1  0
 63 66  1  0
 66 67  1  0
 66 68  1  0
 66 69  1  0
 69 70  2  0
 70 71  1  0
 71 72  1  0
 71 73  2  0
 73 74  1  0
 73 75  1  0
 75 76  1  0
 76 77  2  0
 77 78  1  0
 77 79  1  0
 79 80  1  0
 79 81  2  0
 81 82  1  0
 81 83  1  0
 83 84  1  0
 83 85  2  0
 35 86  1  0
 86 87  1  1
 87 88  1  0
 87 89  1  0
 87 90  1  0
 86 91  1  0
 91 92  1  0
 91 93  1  0
 91 94  1  0
 94 95  1  0
 94 96  1  0
 94 97  1  0
 97 98  1  6
 16 99  1  0
 99100  1  0
 99101  1  0
 99  3  1  0
 97 11  1  0
 97 25  1  0
 86 27  1  0
 85 70  1  0
 85 76  1  0
M  CHG  2  60   1  75  -1
M  END
>  <UniqueID>  (6) 
6

>  <SMILES>  (6) 
CC1=C[C@@H]2C3CCC(C(C)CCCNCC[NH2+]CC/N=c4/cc[n-]c5cc(Cl)ccc45)C3(C)CC[C@H]2C2(C)CCC(O)CC12

>  <Energy>  (6) 
219.6888856785745

>  <Genealogy>  (6) 
CC1=CC2C(CCC3(C)C(C(C)CCCNCC[NH2+]CCN=c4cc[n-]c5cc(Cl)ccc45)CCC23)C2(C)CCC(O)CC12 (protonated)
CC1=C[C@@H]2C3CCC(C(C)CCCNCC[NH2+]CCN=c4cc[n-]c5cc(Cl)ccc45)C3(C)CC[C@H]2C2(C)CCC(O)CC12 (chirality)
CC1=C[C@@H]2C3CCC(C(C)CCCNCC[NH2+]CC/N=c4/cc[n-]c5cc(Cl)ccc45)C3(C)CC[C@H]2C2(C)CCC(O)CC12 (cis-trans isomerization)
CC1=C[C@@H]2C3CCC(C(C)CCCNCC[NH2+]CC/N=c4/cc[n-]c5cc(Cl)ccc45)C3(C)CC[C@H]2C2(C)CCC(O)CC12 (3D coordinates assigned)
CC1=C[C@@H]2C3CCC(C(C)CCCNCC[NH2+]CC/N=c4/cc[n-]c5cc(Cl)ccc45)C3(C)CC[C@H]2C2(C)CCC(O)CC12 (nonaromatic ring conformer: 219.6888856785745 kcal/mol)

>  <smiles>  (6) 
CC1=CC2C(CCC3(C)C(C(C)CCCNCCNCCN=c4cc[nH]c5cc(Cl)ccc45)CCC23)C2(C)CCC(O)CC12

>  <score_type>  (6) 
oracle

>  <origin>  (6) 
adg

>  <m_score__min__energy>  (6) 
-10.25

>  <m_primary>  (6) 
energy

$$$$
6:0
     RDKit          3D

 23 24  0  0  0  0  0  0  0  0999 V2000
   55.5220   28.9810   44.8700 O   0  0  0  0  0  0  0  0  0  0  0  0
   56.5720   29.6690   44.7750 C   0  0  0  0  0  0  0  0  0  0  0  0
   56.4600   31.0680   44.4720 N   0  0  0  0  0  0  0  0  0  0  0  0
   57.2500   32.0230   44.8780 C   0  0  0  0  0  0  0  0  0  0  0  0
   57.9270   32.8780   43.9850 C   0  0  0  0  0  0  0  0  0  0  0  0
   58.7500   33.8850   44.4890 C   0  0  0  0  0  0  0  0  0  0  0  0
   58.8960   34.0560   45.8730 C   0  0  0  0  0  0  0  0  0  0  0  0
   59.7430   35.0930   46.4000 N   0  0  0  0  0  0  0  0  0  0  0  0
   60.3060   34.9550   47.5060 O   0  0  0  0  0  0  0  0  0  0  0  0
   59.9490   36.2550   45.6910 O   0  0  0  0  0  0  0  0  0  0  0  0
   58.1900   33.1940   46.7280 C   0  0  0  0  0  0  0  0  0  0  0  0
   57.3960   32.2180   46.2160 N   0  0  0  0  0  0  0  0  0  0  0  0
   57.8750   29.0430   45.0580 C   0  0  0  0  0  0  0  0  0  0  0  0
   59.0990   29.3720   44.4800 C   0  0  0  0  0  0  0  0  0  0  0  0
   60.1500   28.6460   44.9440 N   0  0  0  0  0  0  0  0  0  0  0  0
   59.7970   27.7460   45.8870 C   0  0  0  0  0  0  0  0  0  0  0  0
   58.1440   27.8200   46.1860 S   0  0  0  0  0  0  0  0  0  0  0  0
   57.8072   32.7520   42.8988 H   0  0  0  0  0  0  0  0  0  0  0  0
   59.2879   34.5491   43.7964 H   0  0  0  0  0  0  0  0  0  0  0  0
   58.2805   33.3099   47.8181 H   0  0  0  0  0  0  0  0  0  0  0  0
   59.2058   30.1532   43.7130 H   0  0  0  0  0  0  0  0  0  0  0  0
   61.1310   28.7730   44.6100 H   0  0  0  0  0  0  0  0  0  0  0  0
   60.4942   27.0597   46.3898 H   0  0  0  0  0  0  0  0  0  0  0  0
  1  2  2  0
  2  3  1  0
  3  4  2  3
  4  5  1  0
  5  6  2  0
  6  7  1  0
  7  8  1  0
  8  9  2  0
  8 10  1  0
  7 11  2  0
 11 12  1  0
  2 13  1  0
 13 14  2  0
 14 15  1  0
 15 16  2  0
 16 17  1  0
 12  4  1  0
 17 13  1  0
  5 18  1  0
  6 19  1  0
 11 20  1  0
 14 21  1  0
 15 22  1  0
 16 23  1  0
M  CHG  4   8   1  10  -1  12  -1  15   1
M  END
>  <UniqueID>  (7) 
7

>  <SMILES>  (7) 
O=C(N=c1ccc([N+](=O)[O-])c[n-]1)c1c[nH+]cs1

>  <Energy>  (7) 
63.62840922311379

>  <Genealogy>  (7) 
O=C(N=c1ccc([N+](=O)[O-])c[n-]1)c1c[nH+]cs1 (protonated)
O=C(N=c1ccc([N+](=O)[O-])c[n-]1)c1c[nH+]cs1 (3D coordinates assigned)
O=C(N=c1ccc([N+](=O)[O-])c[n-]1)c1c[nH+]cs1 (optimized conformer: 63.62840922311379 kcal/mol)

>  <smiles>  (7) 
O=C(N=c1ccc([N+](=O)[O-])c[nH]1)c1cncs1

>  <score_type>  (7) 
oracle

>  <origin>  (7) 
adg

>  <m_score__min__energy>  (7) 
-6.6699999999999999

>  <m_primary>  (7) 
energy

$$$$
7:0
     RDKit          3D

 36 38  0  0  0  0  0  0  0  0999 V2000
   57.3810   34.2410   45.4170 C   0  0  0  0  0  0  0  0  0  0  0  0
   58.5030   33.4790   46.0450 C   0  0  0  0  0  0  0  0  0  0  0  0
   59.5050   34.0480   46.7390 N   0  0  0  0  0  0  0  0  0  0  0  0
   60.3310   33.0260   47.0560 C   0  0  0  0  0  0  0  0  0  0  0  0
   61.6070   33.1710   47.7850 C   0  0  0  0  0  0  0  0  0  0  0  0
   62.8050   33.0280   47.0650 C   0  0  0  0  0  0  0  0  0  0  0  0
   64.0390   33.1760   47.7030 C   0  0  0  0  0  0  0  0  0  0  0  0
   64.0890   33.4540   49.0700 C   0  0  0  0  0  0  0  0  0  0  0  0
   62.9060   33.5730   49.8030 C   0  0  0  0  0  0  0  0  0  0  0  0
   61.6630   33.4270   49.1740 C   0  0  0  0  0  0  0  0  0  0  0  0
   60.0990   33.4740   50.2860 Br  0  0  0  0  0  0  0  0  0  0  0  0
   59.8900   31.8750   46.5910 O   0  0  0  0  0  0  0  0  0  0  0  0
   58.7550   32.1210   45.9790 C   0  0  0  0  0  0  0  0  0  0  0  0
   57.9670   31.1160   45.3240 N   0  0  0  0  0  0  0  0  0  0  0  0
   57.0360   31.5310   44.2690 C   0  0  0  0  0  0  0  0  0  0  0  0
   56.2020   30.3380   43.7810 C   0  0  0  0  0  0  0  0  0  0  0  0
   55.8100   29.4900   44.9140 N   0  0  0  0  0  0  0  0  0  0  0  0
   56.9700   28.8630   45.5810 C   0  0  0  0  0  0  0  0  0  0  0  0
   58.2680   29.6900   45.4820 C   0  0  0  0  0  0  0  0  0  0  0  0
   56.7453   34.6728   46.2040 H   0  0  0  0  0  0  0  0  0  0  0  0
   57.7906   35.0485   44.7924 H   0  0  0  0  0  0  0  0  0  0  0  0
   56.7814   33.5625   44.7924 H   0  0  0  0  0  0  0  0  0  0  0  0
   59.6440   35.0670   46.9220 H   0  0  0  0  0  0  0  0  0  0  0  0
   62.7710   32.7976   45.9899 H   0  0  0  0  0  0  0  0  0  0  0  0
   64.9712   33.0735   47.1281 H   0  0  0  0  0  0  0  0  0  0  0  0
   65.0606   33.5794   49.5703 H   0  0  0  0  0  0  0  0  0  0  0  0
   62.9508   33.7829   50.8819 H   0  0  0  0  0  0  0  0  0  0  0  0
   56.3620   32.3044   44.6659 H   0  0  0  0  0  0  0  0  0  0  0  0
   57.6153   31.9275   43.4221 H   0  0  0  0  0  0  0  0  0  0  0  0
   55.2979   30.7099   43.2767 H   0  0  0  0  0  0  0  0  0  0  0  0
   56.8068   29.7420   43.0816 H   0  0  0  0  0  0  0  0  0  0  0  0
   55.2990   30.0830   45.6120 H   0  0  0  0  0  0  0  0  0  0  0  0
   56.7261   28.7267   46.6449 H   0  0  0  0  0  0  0  0  0  0  0  0
   57.1582   27.9093   45.0662 H   0  0  0  0  0  0  0  0  0  0  0  0
   58.8582   29.5456   46.3989 H   0  0  0  0  0  0  0  0  0  0  0  0
   58.8358   29.3504   44.6032 H   0  0  0  0  0  0  0  0  0  0  0  0
  1  2  1  0
  2  3  1  0
  3  4  2  0
  4  5  1  0
  5  6  2  0
  6  7  1  0
  7  8  2  0
  8  9  1  0
  9 10  2  0
 10 11  1  0
  4 12  1  0
 12 13  1  0
 13 14  1  0
 14 15  1  0
 15 16  1  0
 16 17  1  0
 17 18  1  0
 18 19  1  0
 13  2  2  0
 19 14  1  0
 10  5  1  0
  1 20  1  0
  1 21  1  0
  1 22  1  0
  3 23  1  0
  6 24  1  0
  7 25  1  0
  8 26  1  0
  9 27  1  0
 15 28  1  0
 15 29  1  0
 16 30  1  0
 16 31  1  0
 17 32  1  0
 18 33  1  0
 18 34  1  0
 19 35  1  0
 19 36  1  0
M  CHG  1   3   1
M  END
>  <UniqueID>  (8) 
8

>  <SMILES>  (8) 
Cc1[nH+]c(-c2ccccc2Br)oc1N1CCNCC1

>  <Energy>  (8) 
80.68732530210971

>  <Genealogy>  (8) 
Cc1[nH+]c(-c2ccccc2Br)oc1N1CCNCC1 (protonated)
Cc1[nH+]c(-c2ccccc2Br)oc1N1CCNCC1 (3D coordinates assigned)
Cc1[nH+]c(-c2ccccc2Br)oc1N1CCNCC1 (nonaromatic ring conformer: 80.68732530210971 kcal/mol)

>  <smiles>  (8) 
Cc1nc(-c2ccccc2Br)oc1N1CCNCC1

>  <score_type>  (8) 
oracle

>  <origin>  (8) 
adg

>  <m_score__min__energy>  (8) 
-6.1699999999999999

>  <m_primary>  (8) 
energy

$$$$
8:0
     RDKit          3D

 65 67  0  0  0  0  0  0  0  0999 V2000
   57.7940   25.8300   44.5510 C   0  0  0  0  0  0  0  0  0  0  0  0
   57.8940   26.7490   45.7630 C   0  0  0  0  0  0  0  0  0  0  0  0
   57.0210   28.0040   45.6150 C   0  0  0  0  0  0  0  0  0  0  0  0
   57.8040   29.1140   45.0020 N   0  0  0  0  0  0  0  0  0  0  0  0
   58.4450   29.9590   46.0410 C   0  0  0  0  0  0  0  0  0  0  0  0
   59.9770   30.0230   45.8940 C   0  0  0  0  0  0  0  0  0  0  0  0
   60.5130   28.9350   44.9690 C   0  0  0  0  0  0  0  0  0  0  0  0
   56.9730   29.9250   44.0790 C   0  0  0  0  0  0  0  0  0  0  0  0
   57.4580   31.3770   44.0190 C   0  0  0  0  0  0  0  0  0  0  0  0
   56.6570   32.2080   44.9110 N   0  0  0  0  0  0  0  0  0  0  0  0
   57.1460   33.4110   45.5090 C   0  0  0  0  0  0  0  0  0  0  0  0
   56.5860   34.5120   45.2440 O   0  0  0  0  0  0  0  0  0  0  0  0
   58.3230   33.3590   46.4150 C   0  0  0  0  0  0  0  0  0  0  0  0
   58.1480   32.9710   47.7520 C   0  0  0  0  0  0  0  0  0  0  0  0
   59.2070   32.8810   48.6110 N   0  0  0  0  0  0  0  0  0  0  0  0
   58.9170   32.4870   49.9660 C   0  0  0  0  0  0  0  0  0  0  0  0
   58.9020   33.4510   50.9790 C   0  0  0  0  0  0  0  0  0  0  0  0
   58.5430   33.0970   52.2810 C   0  0  0  0  0  0  0  0  0  0  0  0
   58.1990   31.7770   52.5870 C   0  0  0  0  0  0  0  0  0  0  0  0
   57.8410   31.4730   53.9080 O   0  0  0  0  0  0  0  0  0  0  0  0
   57.0600   30.3490   54.2940 C   0  0  0  0  0  0  0  0  0  0  0  0
   58.2190   30.8050   51.5680 C   0  0  0  0  0  0  0  0  0  0  0  0
   58.5720   31.1560   50.2520 C   0  0  0  0  0  0  0  0  0  0  0  0
   58.5940   30.2120   49.2080 O   0  0  0  0  0  0  0  0  0  0  0  0
   59.5220   29.1350   49.1190 C   0  0  0  0  0  0  0  0  0  0  0  0
   60.4860   33.1620   48.1930 C   0  0  0  0  0  0  0  0  0  0  0  0
   61.5930   33.0600   49.0680 C   0  0  0  0  0  0  0  0  0  0  0  0
   62.8850   33.3480   48.6210 C   0  0  0  0  0  0  0  0  0  0  0  0
   63.1000   33.7370   47.3000 C   0  0  0  0  0  0  0  0  0  0  0  0
   62.0250   33.8460   46.4170 C   0  0  0  0  0  0  0  0  0  0  0  0
   60.7140   33.5620   46.8490 C   0  0  0  0  0  0  0  0  0  0  0  0
   59.6230   33.6590   45.9640 C   0  0  0  0  0  0  0  0  0  0  0  0
   59.8140   34.0000   44.7620 O   0  0  0  0  0  0  0  0  0  0  0  0
   57.6807   24.7892   44.8884 H   0  0  0  0  0  0  0  0  0  0  0  0
   56.9217   26.1160   43.9450 H   0  0  0  0  0  0  0  0  0  0  0  0
   58.7074   25.9217   43.9450 H   0  0  0  0  0  0  0  0  0  0  0  0
   57.5684   26.1945   46.6555 H   0  0  0  0  0  0  0  0  0  0  0  0
   58.9406   27.0752   45.8532 H   0  0  0  0  0  0  0  0  0  0  0  0
   56.1585   27.7716   44.9730 H   0  0  0  0  0  0  0  0  0  0  0  0
   56.6775   28.3185   46.6116 H   0  0  0  0  0  0  0  0  0  0  0  0
   58.0412   30.9792   45.9632 H   0  0  0  0  0  0  0  0  0  0  0  0
   58.2239   29.5072   47.0193 H   0  0  0  0  0  0  0  0  0  0  0  0
   60.2527   31.0052   45.4826 H   0  0  0  0  0  0  0  0  0  0  0  0
   60.4186   29.8677   46.8894 H   0  0  0  0  0  0  0  0  0  0  0  0
   60.9198   28.1093   45.5713 H   0  0  0  0  0  0  0  0  0  0  0  0
   59.6972   28.5586   44.3343 H   0  0  0  0  0  0  0  0  0  0  0  0
   61.3086   29.3525   44.3343 H   0  0  0  0  0  0  0  0  0  0  0  0
   57.0271   29.4878   43.0711 H   0  0  0  0  0  0  0  0  0  0  0  0
   55.9380   29.9211   44.4514 H   0  0  0  0  0  0  0  0  0  0  0  0
   58.5126   31.4219   44.3286 H   0  0  0  0  0  0  0  0  0  0  0  0
   57.3552   31.7497   42.9892 H   0  0  0  0  0  0  0  0  0  0  0  0
   57.1374   32.7344   48.1163 H   0  0  0  0  0  0  0  0  0  0  0  0
   59.1740   34.4918   50.7492 H   0  0  0  0  0  0  0  0  0  0  0  0
   58.5308   33.8619   53.0714 H   0  0  0  0  0  0  0  0  0  0  0  0
   57.0193   30.2904   55.3917 H   0  0  0  0  0  0  0  0  0  0  0  0
   56.0407   30.4561   53.8944 H   0  0  0  0  0  0  0  0  0  0  0  0
   57.5159   29.4311   53.8944 H   0  0  0  0  0  0  0  0  0  0  0  0
   57.9565   29.7629   51.8029 H   0  0  0  0  0  0  0  0  0  0  0  0
   59.8032   28.8087   50.1312 H   0  0  0  0  0  0  0  0  0  0  0  0
   59.0593   28.2960   48.5786 H   0  0  0  0  0  0  0  0  0  0  0  0
   60.4201   29.4686   48.5786 H   0  0  0  0  0  0  0  0  0  0  0  0
   61.4348   32.7506   50.1117 H   0  0  0  0  0  0  0  0  0  0  0  0
   63.7354   33.2675   49.3140 H   0  0  0  0  0  0  0  0  0  0  0  0
   64.1199   33.9587   46.9525 H   0  0  0  0  0  0  0  0  0  0  0  0
   62.2021   34.1558   45.3765 H   0  0  0  0  0  0  0  0  0  0  0  0
  1  2  1  0
  2  3  1  0
  3  4  1  0
  4  5  1  0
  5  6  1  0
  6  7  1  0
  4  8  1  0
  8  9  1  0
  9 10  1  0
 10 11  1  0
 11 12  2  0
 11 13  1  0
 13 14  2  0
 14 15  1  0
 15 16  1  0
 16 17  2  0
 17 18  1  0
 18 19  2  0
 19 20  1  0
 20 21  1  0
 19 22  1  0
 22 23  2  0
 23 24  1  0
 24 25  1  0
 15 26  1  0
 26 27  2  0
 27 28  1  0
 28 29  2  0
 29 30  1  0
 30 31  2  0
 31 32  1  0
 32 33  2  0
 32 13  1  0
 23 16  1  0
 31 26  1  0
  1 34  1  0
  1 35  1  0
  1 36  1  0
  2 37  1  0
  2 38  1  0
  3 39  1  0
  3 40  1  0
  5 41  1  0
  5 42  1  0
  6 43  1  0
  6 44  1  0
  7 45  1  0
  7 46  1  0
  7 47  1  0
  8 48  1  0
  8 49  1  0
  9 50  1  0
  9 51  1  0
 14 52  1  0
 17 53  1  0
 18 54  1  0
 21 55  1  0
 21 56  1  0
 21 57  1  0
 22 58  1  0
 25 59  1  0
 25 60  1  0
 25 61  1  0
 27 62  1  0
 28 63  1  0
 29 64  1  0
 30 65  1  0
M  CHG  1  10  -1
M  END
>  <UniqueID>  (9) 
9

>  <SMILES>  (9) 
CCCN(CCC)CC[N-]C(=O)c1cn(-c2ccc(OC)cc2OC)c2ccccc2c1=O

>  <Energy>  (9) 
72.91394838275384

>  <Genealogy>  (9) 
CCCN(CCC)CC[N-]C(=O)c1cn(-c2ccc(OC)cc2OC)c2ccccc2c1=O (protonated)
CCCN(CCC)CC[N-]C(=O)c1cn(-c2ccc(OC)cc2OC)c2ccccc2c1=O (3D coordinates assigned)
CCCN(CCC)CC[N-]C(=O)c1cn(-c2ccc(OC)cc2OC)c2ccccc2c1=O (optimized conformer: 72.91394838275384 kcal/mol)

>  <smiles>  (9) 
CCCN(CCC)CCNC(=O)c1cn(-c2ccc(OC)cc2OC)c2ccccc2c1=O

>  <score_type>  (9) 
oracle

>  <origin>  (9) 
adg

>  <m_score__min__energy>  (9) 
-8.8699999999999992

>  <m_primary>  (9) 
energy

$$$$
9:0
     RDKit          3D

 43 45  0  0  0  0  0  0  0  0999 V2000
   56.3340   29.8780   45.1770 O   0  0  0  0  0  0  0  0  0  0  0  0
   57.4310   30.2050   44.6490 C   0  0  0  0  0  0  0  0  0  0  0  0
   58.1900   29.2330   43.9110 N   0  0  0  0  0  0  0  0  0  0  0  0
   57.7690   27.8400   43.7880 C   0  0  0  0  0  0  0  0  0  0  0  0
   57.4930   27.2410   45.1810 C   0  0  0  0  0  0  0  0  0  0  0  0
   58.6900   27.1660   46.0440 N   0  0  0  0  0  0  0  0  0  0  0  0
   58.4680   27.6800   47.4170 C   0  0  0  0  0  0  0  0  0  0  0  0
   59.7610   28.1720   48.0660 C   0  0  0  0  0  0  0  0  0  0  0  0
   60.3570   29.1970   47.2050 N   0  0  0  0  0  0  0  0  0  0  0  0
   60.7490   30.4720   47.7430 C   0  0  0  0  0  0  0  0  0  0  0  0
   60.1170   30.9850   48.8880 C   0  0  0  0  0  0  0  0  0  0  0  0
   60.4910   32.2310   49.4020 C   0  0  0  0  0  0  0  0  0  0  0  0
   61.4940   32.9750   48.7760 C   0  0  0  0  0  0  0  0  0  0  0  0
   62.1260   32.4750   47.6330 C   0  0  0  0  0  0  0  0  0  0  0  0
   63.3870   33.4100   46.8490 Cl  0  0  0  0  0  0  0  0  0  0  0  0
   61.7540   31.2290   47.1160 C   0  0  0  0  0  0  0  0  0  0  0  0
   60.4390   28.9630   45.7580 C   0  0  0  0  0  0  0  0  0  0  0  0
   59.9620   27.5480   45.3840 C   0  0  0  0  0  0  0  0  0  0  0  0
   57.9170   31.5890   44.7940 C   0  0  0  0  0  0  0  0  0  0  0  0
   57.8760   32.5700   43.8050 C   0  0  0  0  0  0  0  0  0  0  0  0
   58.4030   33.7990   44.2200 C   0  0  0  0  0  0  0  0  0  0  0  0
   58.8550   33.7860   45.5300 C   0  0  0  0  0  0  0  0  0  0  0  0
   59.6350   35.2580   46.4580 Br  0  0  0  0  0  0  0  0  0  0  0  0
   58.6060   32.2570   46.1790 S   0  0  0  0  0  0  0  0  0  0  0  0
   59.0480   29.5320   43.3960 H   0  0  0  0  0  0  0  0  0  0  0  0
   56.8517   27.7900   43.1830 H   0  0  0  0  0  0  0  0  0  0  0  0
   58.5714   27.2646   43.3031 H   0  0  0  0  0  0  0  0  0  0  0  0
   56.7406   27.8657   45.6846 H   0  0  0  0  0  0  0  0  0  0  0  0
   57.1454   26.2093   45.0237 H   0  0  0  0  0  0  0  0  0  0  0  0
   57.7544   28.5159   47.3711 H   0  0  0  0  0  0  0  0  0  0  0  0
   58.0774   26.8528   48.0279 H   0  0  0  0  0  0  0  0  0  0  0  0
   59.5393   28.6015   49.0541 H   0  0  0  0  0  0  0  0  0  0  0  0
   60.4613   27.3329   48.1905 H   0  0  0  0  0  0  0  0  0  0  0  0
   59.3245   30.4042   49.3825 H   0  0  0  0  0  0  0  0  0  0  0  0
   59.9945   32.6257   50.3007 H   0  0  0  0  0  0  0  0  0  0  0  0
   61.7868   33.9544   49.1822 H   0  0  0  0  0  0  0  0  0  0  0  0
   62.2503   30.8400   46.2147 H   0  0  0  0  0  0  0  0  0  0  0  0
   59.8077   29.7006   45.2409 H   0  0  0  0  0  0  0  0  0  0  0  0
   61.4911   29.0629   45.4528 H   0  0  0  0  0  0  0  0  0  0  0  0
   59.8171   27.5046   44.2944 H   0  0  0  0  0  0  0  0  0  0  0  0
   60.7328   26.8422   45.7272 H   0  0  0  0  0  0  0  0  0  0  0  0
   57.4697   32.3959   42.7977 H   0  0  0  0  0  0  0  0  0  0  0  0
   58.4532   34.6859   43.5713 H   0  0  0  0  0  0  0  0  0  0  0  0
  1  2  2  0
  2  3  1  0
  3  4  1  0
  4  5  1  0
  5  6  1  0
  6  7  1  0
  7  8  1  0
  8  9  1  0
  9 10  1  0
 10 11  2  0
 11 12  1  0
 12 13  2  0
 13 14  1  0
 14 15  1  0
 14 16  2  0
  9 17  1  0
 17 18  1  0
  2 19  1  0
 19 20  2  0
 20 21  1  0
 21 22  2  0
 22 23  1  0
 22 24  1  0
 18  6  1  0
 24 19  1  0
 16 10  1  0
  3 25  1  0
  4 26  1  0
  4 27  1  0
  5 28  1  0
  5 29  1  0
  7 30  1  0
  7 31  1  0
  8 32  1  0
  8 33  1  0
 11 34  1  0
 12 35  1  0
 13 36  1  0
 16 37  1  0
 17 38  1  0
 17 39  1  0
 18 40  1  0
 18 41  1  0
 20 42  1  0
 21 43  1  0
M  END
>  <UniqueID>  (10) 
10

>  <SMILES>  (10) 
O=C(NCCN1CCN(c2cccc(Cl)c2)CC1)c1ccc(Br)s1

>  <Energy>  (10) 
81.35052404732897

>  <Genealogy>  (10) 
O=C(NCCN1CCN(c2cccc(Cl)c2)CC1)c1ccc(Br)s1 (3D coordinates assigned)
O=C(NCCN1CCN(c2cccc(Cl)c2)CC1)c1ccc(Br)s1 (nonaromatic ring conformer: 81.35052404732897 kcal/mol)

>  <smiles>  (10) 
O=C(NCCN1CCN(c2cccc(Cl)c2)CC1)c1ccc(Br)s1

>  <score_type>  (10) 
oracle

>  <origin>  (10) 
adg

>  <m_score__min__energy>  (10) 
-8.1799999999999997

>  <m_primary>  (10) 
energy

$$$$
10:0
     RDKit          3D

 42 45  0  0  0  0  0  0  0  0999 V2000
   63.2290   34.1370   50.5540 C   0  0  0  0  0  0  0  0  0  0  0  0
   62.3090   33.2660   49.9030 O   0  0  0  0  0  0  0  0  0  0  0  0
   61.5370   33.6210   48.7870 C   0  0  0  0  0  0  0  0  0  0  0  0
   61.9940   33.4460   47.4670 C   0  0  0  0  0  0  0  0  0  0  0  0
   61.1860   33.8130   46.3870 C   0  0  0  0  0  0  0  0  0  0  0  0
   59.9050   34.3500   46.6050 C   0  0  0  0  0  0  0  0  0  0  0  0
   59.0410   34.7420   45.4660 C   0  0  0  0  0  0  0  0  0  0  0  0
   59.2760   35.8180   44.8550 O   0  0  0  0  0  0  0  0  0  0  0  0
   57.9710   33.9070   44.9990 N   0  0  0  0  0  0  0  0  0  0  0  0
   57.9750   32.4740   44.9510 C   0  0  0  0  0  0  0  0  0  0  0  0
   58.3600   31.7600   46.0900 C   0  0  0  0  0  0  0  0  0  0  0  0
   58.3870   30.3630   46.0750 C   0  0  0  0  0  0  0  0  0  0  0  0
   58.0380   29.6530   44.9140 C   0  0  0  0  0  0  0  0  0  0  0  0
   58.0690   28.1720   44.9250 C   0  0  0  0  0  0  0  0  0  0  0  0
   57.4570   27.3730   44.0080 N   0  0  0  0  0  0  0  0  0  0  0  0
   57.7580   26.1340   44.4230 C   0  0  0  0  0  0  0  0  0  0  0  0
   57.3900   24.9150   43.8590 C   0  0  0  0  0  0  0  0  0  0  0  0
   57.8400   23.7430   44.4970 C   0  0  0  0  0  0  0  0  0  0  0  0
   58.6350   23.8220   45.6650 C   0  0  0  0  0  0  0  0  0  0  0  0
   58.9860   25.0740   46.2060 C   0  0  0  0  0  0  0  0  0  0  0  0
   58.5220   26.2100   45.5480 C   0  0  0  0  0  0  0  0  0  0  0  0
   58.7090   27.4690   45.8500 O   0  0  0  0  0  0  0  0  0  0  0  0
   57.6750   30.3750   43.7610 C   0  0  0  0  0  0  0  0  0  0  0  0
   57.6510   31.7720   43.7790 C   0  0  0  0  0  0  0  0  0  0  0  0
   59.4600   34.5380   47.9230 C   0  0  0  0  0  0  0  0  0  0  0  0
   60.2700   34.1710   49.0030 C   0  0  0  0  0  0  0  0  0  0  0  0
   63.1216   34.0353   51.6440 H   0  0  0  0  0  0  0  0  0  0  0  0
   64.2554   33.8719   50.2604 H   0  0  0  0  0  0  0  0  0  0  0  0
   63.0205   35.1764   50.2604 H   0  0  0  0  0  0  0  0  0  0  0  0
   62.9911   33.0187   47.2847 H   0  0  0  0  0  0  0  0  0  0  0  0
   61.5550   33.6807   45.3592 H   0  0  0  0  0  0  0  0  0  0  0  0
   58.6436   32.3019   47.0043 H   0  0  0  0  0  0  0  0  0  0  0  0
   58.6843   29.8140   46.9807 H   0  0  0  0  0  0  0  0  0  0  0  0
   56.8830   27.6360   43.1780 H   0  0  0  0  0  0  0  0  0  0  0  0
   56.7717   24.8694   42.9503 H   0  0  0  0  0  0  0  0  0  0  0  0
   57.5716   22.7592   44.0845 H   0  0  0  0  0  0  0  0  0  0  0  0
   58.9812   22.8993   46.1537 H   0  0  0  0  0  0  0  0  0  0  0  0
   59.6029   25.1515   47.1134 H   0  0  0  0  0  0  0  0  0  0  0  0
   57.4085   29.8358   42.8400 H   0  0  0  0  0  0  0  0  0  0  0  0
   57.3764   32.3255   42.8689 H   0  0  0  0  0  0  0  0  0  0  0  0
   58.4683   34.9766   48.1078 H   0  0  0  0  0  0  0  0  0  0  0  0
   59.9068   34.3165   50.0311 H   0  0  0  0  0  0  0  0  0  0  0  0
  1  2  1  0
  2  3  1  0
  3  4  2  0
  4  5  1  0
  5  6  2  0
  6  7  1  0
  7  8  2  0
  7  9  1  0
  9 10  1  0
 10 11  2  0
 11 12  1  0
 12 13  2  0
 13 14  1  0
 14 15  2  0
 15 16  1  0
 16 17  2  0
 17 18  1  0
 18 19  2  0
 19 20  1  0
 20 21  2  0
 21 22  1  0
 13 23  1  0
 23 24  2  0
  6 25  1  0
 25 26  2  0
 26  3  1  0
 24 10  1  0
 22 14  1  0
 21 16  1  0
  1 27  1  0
  1 28  1  0
  1 29  1  0
  4 30  1  0
  5 31  1  0
 11 32  1  0
 12 33  1  0
 15 34  1  0
 17 35  1  0
 18 36  1  0
 19 37  1  0
 20 38  1  0
 23 39  1  0
 24 40  1  0
 25 41  1  0
 26 42  1  0
M  CHG  2   9  -1  15   1
M  END
>  <UniqueID>  (11) 
11

>  <SMILES>  (11) 
COc1ccc(C(=O)[N-]c2ccc(-c3[nH+]c4ccccc4o3)cc2)cc1

>  <Energy>  (11) 
93.20323178729059

>  <Genealogy>  (11) 
COc1ccc(C(=O)[N-]c2ccc(-c3[nH+]c4ccccc4o3)cc2)cc1 (protonated)
COc1ccc(C(=O)[N-]c2ccc(-c3[nH+]c4ccccc4o3)cc2)cc1 (3D coordinates assigned)
COc1ccc(C(=O)[N-]c2ccc(-c3[nH+]c4ccccc4o3)cc2)cc1 (optimized conformer: 93.20323178729059 kcal/mol)

>  <smiles>  (11) 
COc1ccc(C(=O)Nc2ccc(-c3nc4ccccc4o3)cc2)cc1

>  <score_type>  (11) 
oracle

>  <origin>  (11) 
adg

>  <m_score__min__energy>  (11) 
-7.4800000000000004

>  <m_primary>  (11) 
energy

$$$$
11:0
     RDKit          3D

 55 59  0  0  0  0  0  0  0  0999 V2000
   61.0478   25.1039   46.6965 H   0  0  0  0  0  0  0  0  0  0  0  0
   60.3800   25.9240   46.3940 C   0  0  0  0  0  0  0  0  0  0  0  0
   60.8980   27.1380   46.0710 N   0  0  0  0  0  0  0  0  0  0  0  0
   60.1090   28.1810   45.7000 C   0  0  0  0  0  0  0  0  0  0  0  0
   60.5655   29.1484   45.4438 H   0  0  0  0  0  0  0  0  0  0  0  0
   58.7090   28.0290   45.6420 C   0  0  0  0  0  0  0  0  0  0  0  0
   57.8120   29.1370   45.2170 C   0  0  0  0  0  0  0  0  0  0  0  0
   58.2100   30.4230   45.4180 N   0  0  0  0  0  0  0  0  0  0  0  0
   57.4310   31.4830   45.0690 C   0  0  0  0  0  0  0  0  0  0  0  0
   57.8350   32.7060   45.2510 N   0  0  0  0  0  0  0  0  0  0  0  0
   58.8210   33.1530   46.1970 C   0  0  0  0  0  0  0  0  0  0  0  0
   58.5210   34.2720   47.0110 C   0  0  0  0  0  0  0  0  0  0  0  0
   57.5475   34.7734   46.9068 H   0  0  0  0  0  0  0  0  0  0  0  0
   59.4510   34.7510   47.9510 C   0  0  0  0  0  0  0  0  0  0  0  0
   59.2268   35.6293   48.5741 H   0  0  0  0  0  0  0  0  0  0  0  0
   60.6650   34.0780   48.0680 C   0  0  0  0  0  0  0  0  0  0  0  0
   60.9500   32.9750   47.3100 C   0  0  0  0  0  0  0  0  0  0  0  0
   60.0520   32.4730   46.3720 C   0  0  0  0  0  0  0  0  0  0  0  0
   60.2910   31.5747   45.7838 H   0  0  0  0  0  0  0  0  0  0  0  0
   62.2110   32.5450   47.6600 C   0  0  0  0  0  0  0  0  0  0  0  0
   62.7609   31.6827   47.2549 H   0  0  0  0  0  0  0  0  0  0  0  0
   62.6390   33.4410   48.6400 C   0  0  0  0  0  0  0  0  0  0  0  0
   63.9560   33.4300   49.3070 C   0  0  0  0  0  0  0  0  0  0  0  0
   64.9750   33.0900   48.6470 O   0  0  0  0  0  0  0  0  0  0  0  0
   64.0890   33.7950   50.6890 N   0  0  0  0  0  0  0  0  0  0  0  0
   63.2870   34.2360   51.1920 H   0  0  0  0  0  0  0  0  0  0  0  0
   65.3180   33.5580   51.4420 C   0  0  0  0  0  0  0  0  0  0  0  0
   65.2002   33.9490   52.4634 H   0  0  0  0  0  0  0  0  0  0  0  0
   66.1525   34.0693   50.9399 H   0  0  0  0  0  0  0  0  0  0  0  0
   65.6090   32.0840   51.5040 C   0  0  0  0  0  0  0  0  0  0  0  0
   66.8700   31.5860   51.1420 C   0  0  0  0  0  0  0  0  0  0  0  0
   67.6642   32.2814   50.8328 H   0  0  0  0  0  0  0  0  0  0  0  0
   67.1230   30.2110   51.1720 C   0  0  0  0  0  0  0  0  0  0  0  0
   68.1163   29.8306   50.8915 H   0  0  0  0  0  0  0  0  0  0  0  0
   66.1110   29.3110   51.5600 C   0  0  0  0  0  0  0  0  0  0  0  0
   66.3140   27.9240   51.6030 O   0  0  0  0  0  0  0  0  0  0  0  0
   67.2390   27.2210   50.7790 C   0  0  0  0  0  0  0  0  0  0  0  0
   67.9548   26.6770   51.4128 H   0  0  0  0  0  0  0  0  0  0  0  0
   66.6948   26.5065   50.1439 H   0  0  0  0  0  0  0  0  0  0  0  0
   67.7817   27.9366   50.1439 H   0  0  0  0  0  0  0  0  0  0  0  0
   64.8540   29.8110   51.9170 C   0  0  0  0  0  0  0  0  0  0  0  0
   64.0578   29.1165   52.2231 H   0  0  0  0  0  0  0  0  0  0  0  0
   64.6010   31.1860   51.8880 C   0  0  0  0  0  0  0  0  0  0  0  0
   63.6071   31.5657   52.1675 H   0  0  0  0  0  0  0  0  0  0  0  0
   61.6880   34.3760   48.8850 N   0  0  0  0  0  0  0  0  0  0  0  0
   61.7390   35.1700   49.5620 H   0  0  0  0  0  0  0  0  0  0  0  0
   56.2280   31.2620   44.4770 N   0  0  0  0  0  0  0  0  0  0  0  0
   55.7860   30.0000   44.2420 C   0  0  0  0  0  0  0  0  0  0  0  0
   54.8071   29.8410   43.7661 H   0  0  0  0  0  0  0  0  0  0  0  0
   56.5710   28.9040   44.6030 C   0  0  0  0  0  0  0  0  0  0  0  0
   56.2243   27.8780   44.4103 H   0  0  0  0  0  0  0  0  0  0  0  0
   58.1680   26.7700   45.9620 C   0  0  0  0  0  0  0  0  0  0  0  0
   57.0802   26.6142   45.9122 H   0  0  0  0  0  0  0  0  0  0  0  0
   59.0020   25.7180   46.3420 C   0  0  0  0  0  0  0  0  0  0  0  0
   58.5768   24.7363   46.5979 H   0  0  0  0  0  0  0  0  0  0  0  0
  1  2  1  0
  2  3  2  0
  3  4  1  0
  4  5  1  0
  4  6  2  0
  6  7  1  0
  7  8  2  0
  8  9  1  0
  9 10  2  0
 10 11  1  0
 11 12  2  0
 12 13  1  0
 12 14  1  0
 14 15  1  0
 14 16  2  0
 16 17  1  0
 17 18  2  0
 18 19  1  0
 17 20  1  0
 20 21  1  0
 20 22  2  0
 22 23  1  0
 23 24  2  0
 23 25  1  0
 25 26  1  0
 25 27  1  0
 27 28  1  0
 27 29  1  0
 27 30  1  0
 30 31  2  0
 31 32  1  0
 31 33  1  0
 33 34  1  0
 33 35  2  0
 35 36  1  0
 36 37  1  0
 37 38  1  0
 37 39  1  0
 37 40  1  0
 35 41  1  0
 41 42  1  0
 41 43  2  0
 43 44  1  0
 22 45  1  0
 45 46  1  0
  9 47  1  0
 47 48  1  0
 48 49  1  0
 48 50  2  0
 50 51  1  0
  6 52  1  0
 52 53  1  0
 52 54  2  0
 54 55  1  0
 54  2  1  0
 50  7  1  0
 18 11  1  0
 43 30  1  0
 45 16  1  0
M  CHG  1  47  -1
M  END
>  <UniqueID>  (12) 
12

>  <SMILES>  (12) 
COc1ccc(CNC(=O)c2cc3cc(/N=c4\nc(-c5cccnc5)cc[n-]4)ccc3[nH]2)cc1

>  <Energy>  (12) 
102.12056754385105

>  <Genealogy>  (12) 
COc1ccc(CNC(=O)c2cc3cc(N=c4nc(-c5cccnc5)cc[n-]4)ccc3[nH]2)cc1 (protonated)
COc1ccc(CNC(=O)c2cc3cc(/N=c4\nc(-c5cccnc5)cc[n-]4)ccc3[nH]2)cc1 (cis-trans isomerization)
COc1ccc(CNC(=O)c2cc3cc(/N=c4\nc(-c5cccnc5)cc[n-]4)ccc3[nH]2)cc1 (3D coordinates assigned)
COc1ccc(CNC(=O)c2cc3cc(/N=c4\nc(-c5cccnc5)cc[n-]4)ccc3[nH]2)cc1 (optimized conformer: 102.12056754385105 kcal/mol)

>  <smiles>  (12) 
COc1ccc(CNC(=O)c2cc3cc(N=c4nc(-c5cccnc5)cc[nH]4)ccc3[nH]2)cc1

>  <score_type>  (12) 
oracle

>  <origin>  (12) 
adg

>  <m_score__min__energy>  (12) 
-9.6300000000000008

>  <m_primary>  (12) 
energy

$$$$
12:0
     RDKit          3D

 53 57  0  0  0  0  0  0  0  0999 V2000
   62.2930   32.0590   49.1140 C   0  0  0  0  0  0  0  0  0  0  0  0
   60.9600   31.4640   49.4490 C   0  0  0  0  0  0  0  0  0  0  0  0
   60.7860   30.1230   49.6120 N   0  0  0  0  0  0  0  0  0  0  0  0
   59.5140   29.7890   49.9240 C   0  0  0  0  0  0  0  0  0  0  0  0
   58.5450   31.1610   50.0140 S   0  0  0  0  0  0  0  0  0  0  0  0
   59.7980   32.2190   49.6290 C   0  0  0  0  0  0  0  0  0  0  0  0
   59.6720   33.7120   49.5680 C   0  0  0  0  0  0  0  0  0  0  0  0
   59.9460   34.2150   48.1840 C   0  0  0  0  0  0  0  0  0  0  0  0
   61.1860   34.4650   47.7100 N   0  0  0  0  0  0  0  0  0  0  0  0
   61.1120   34.6010   46.3910 N   0  0  0  0  0  0  0  0  0  0  0  0
   59.8150   34.4920   46.0500 C   0  0  0  0  0  0  0  0  0  0  0  0
   59.0640   34.2350   47.1240 C   0  0  0  0  0  0  0  0  0  0  0  0
   57.9160   33.3730   46.7810 C   0  0  0  0  0  0  0  0  0  0  0  0
   58.0720   33.0900   45.3290 N   0  0  0  0  0  0  0  0  0  0  0  0
   58.0920   31.6370   45.0200 C   0  0  1  0  0  0  0  0  0  0  0  0
   58.1130   30.7980   46.3250 C   0  0  0  0  0  0  0  0  0  0  0  0
   58.1240   29.3820   46.1630 O   0  0  0  0  0  0  0  0  0  0  0  0
   57.8290   28.9250   44.8500 C   0  0  1  0  0  0  0  0  0  0  0  0
   57.5610   27.4340   44.8770 C   0  0  0  0  0  0  0  0  0  0  0  0
   57.0340   26.8200   46.0300 C   0  0  0  0  0  0  0  0  0  0  0  0
   56.7540   25.4510   46.0390 C   0  0  0  0  0  0  0  0  0  0  0  0
   56.2520   24.8710   47.1580 F   0  0  0  0  0  0  0  0  0  0  0  0
   56.9840   24.6810   44.8970 C   0  0  0  0  0  0  0  0  0  0  0  0
   57.4890   25.2810   43.7420 C   0  0  0  0  0  0  0  0  0  0  0  0
   57.7700   26.6500   43.7230 C   0  0  0  0  0  0  0  0  0  0  0  0
   58.2410   27.2100   42.5800 F   0  0  0  0  0  0  0  0  0  0  0  0
   56.6370   29.6770   44.2070 C   0  0  1  0  0  0  0  0  0  0  0  0
   55.4080   29.4680   44.9790 N   0  0  0  0  0  0  0  0  0  0  0  0
   56.9630   31.1790   44.0540 C   0  0  0  0  0  0  0  0  0  0  0  0
   59.2530   33.8590   44.8420 C   0  0  0  0  0  0  0  0  0  0  0  0
   62.8312   32.2992   50.0428 H   0  0  0  0  0  0  0  0  0  0  0  0
   62.8795   31.3372   48.5266 H   0  0  0  0  0  0  0  0  0  0  0  0
   62.1473   32.9775   48.5266 H   0  0  0  0  0  0  0  0  0  0  0  0
   61.5500   29.4180   49.5140 H   0  0  0  0  0  0  0  0  0  0  0  0
   59.1610   28.7614   50.0955 H   0  0  0  0  0  0  0  0  0  0  0  0
   58.6513   33.9996   49.8603 H   0  0  0  0  0  0  0  0  0  0  0  0
   60.4076   34.1553   50.2553 H   0  0  0  0  0  0  0  0  0  0  0  0
   57.9450   32.4399   47.3627 H   0  0  0  0  0  0  0  0  0  0  0  0
   56.9534   33.8544   47.0086 H   0  0  0  0  0  0  0  0  0  0  0  0
   59.0264   31.4533   44.4694 H   0  0  0  0  0  0  0  0  0  0  0  0
   59.0146   31.0782   46.8895 H   0  0  0  0  0  0  0  0  0  0  0  0
   57.1675   31.0281   46.8380 H   0  0  0  0  0  0  0  0  0  0  0  0
   58.7081   29.1357   44.2233 H   0  0  0  0  0  0  0  0  0  0  0  0
   56.8415   27.4226   46.9299 H   0  0  0  0  0  0  0  0  0  0  0  0
   56.7675   23.6026   44.9074 H   0  0  0  0  0  0  0  0  0  0  0  0
   57.6666   24.6733   42.8425 H   0  0  0  0  0  0  0  0  0  0  0  0
   56.4670   29.2657   43.2011 H   0  0  0  0  0  0  0  0  0  0  0  0
   54.6700   30.1120   44.6110 H   0  0  0  0  0  0  0  0  0  0  0  0
   55.5650   29.7190   45.9810 H   0  0  0  0  0  0  0  0  0  0  0  0
   57.2841   31.3680   43.0190 H   0  0  0  0  0  0  0  0  0  0  0  0
   56.0551   31.7483   44.3021 H   0  0  0  0  0  0  0  0  0  0  0  0
   59.9895   33.1859   44.3790 H   0  0  0  0  0  0  0  0  0  0  0  0
   58.9793   34.5984   44.0750 H   0  0  0  0  0  0  0  0  0  0  0  0
  1  2  1  0
  2  3  1  0
  3  4  2  0
  4  5  1  0
  5  6  1  0
  6  7  1  0
  7  8  1  0
  8  9  1  0
  9 10  1  0
 10 11  2  0
 11 12  1  0
 12 13  1  0
 13 14  1  0
 14 15  1  0
 15 16  1  0
 16 17  1  0
 17 18  1  0
 18 19  1  0
 19 20  2  0
 20 21  1  0
 21 22  1  0
 21 23  2  0
 23 24  1  0
 24 25  2  0
 25 26  1  0
 18 27  1  0
 27 28  1  0
 27 29  1  0
 14 30  1  0
  6  2  2  0
 12  8  2  0
 29 15  1  0
 30 11  1  0
 25 19  1  0
  1 31  1  0
  1 32  1  0
  1 33  1  0
  3 34  1  0
  4 35  1  0
  7 36  1  0
  7 37  1  0
 13 38  1  0
 13 39  1  0
 15 40  1  6
 16 41  1  0
 16 42  1  0
 18 43  1  6
 20 44  1  0
 23 45  1  0
 24 46  1  0
 27 47  1  6
 28 48  1  0
 28 49  1  0
 29 50  1  0
 29 51  1  0
 30 52  1  0
 30 53  1  0
M  CHG  2   3   1   9  -1
M  END
>  <UniqueID>  (13) 
13

>  <SMILES>  (13) 
Cc1[nH+]csc1Cc1[n-]nc2c1CN([C@H]1CO[C@@H](c3cc(F)ccc3F)C(N)C1)C2

>  <Energy>  (13) 
159.83767904856737

>  <Genealogy>  (13) 
Cc1[nH+]csc1Cc1[n-]nc2c1CN(C1COC(c3cc(F)ccc3F)C(N)C1)C2 (protonated)
Cc1[nH+]csc1Cc1[n-]nc2c1CN([C@H]1CO[C@@H](c3cc(F)ccc3F)C(N)C1)C2 (chirality)
Cc1[nH+]csc1Cc1[n-]nc2c1CN([C@H]1CO[C@@H](c3cc(F)ccc3F)C(N)C1)C2 (3D coordinates assigned)
Cc1[nH+]csc1Cc1[n-]nc2c1CN([C@H]1CO[C@@H](c3cc(F)ccc3F)C(N)C1)C2 (nonaromatic ring conformer: 159.83767904856737 kcal/mol)

>  <smiles>  (13) 
Cc1ncsc1Cc1[nH]nc2c1CN(C1COC(c3cc(F)ccc3F)C(N)C1)C2

>  <score_type>  (13) 
oracle

>  <origin>  (13) 
adg

>  <m_score__min__energy>  (13) 
-8.7899999999999991

>  <m_primary>  (13) 
energy

$$$$
13:0
     RDKit          3D

 29 29  0  0  0  0  0  0  0  0999 V2000
   58.0880   27.0680   42.5090 C   0  0  0  0  0  0  0  0  0  0  0  0
   57.7700   28.1170   43.4810 N   0  0  0  0  0  0  0  0  0  0  0  0
   58.6040   27.9810   44.6860 C   0  0  0  0  0  0  0  0  0  0  0  0
   58.2390   29.0340   45.7470 C   0  0  0  0  0  0  0  0  0  0  0  0
   57.5580   30.2520   45.1670 C   0  0  0  0  0  0  0  0  0  0  0  0
   56.4950   30.1050   44.5030 O   0  0  0  0  0  0  0  0  0  0  0  0
   58.0760   31.6220   45.4060 C   0  0  0  0  0  0  0  0  0  0  0  0
   59.0640   31.8370   46.3830 C   0  0  0  0  0  0  0  0  0  0  0  0
   59.5650   33.1210   46.6190 C   0  0  0  0  0  0  0  0  0  0  0  0
   59.0830   34.2140   45.8860 C   0  0  0  0  0  0  0  0  0  0  0  0
   59.6490   35.5850   46.1130 C   0  0  0  0  0  0  0  0  0  0  0  0
   58.1190   34.0030   44.8910 C   0  0  0  0  0  0  0  0  0  0  0  0
   57.6160   32.7210   44.6550 C   0  0  0  0  0  0  0  0  0  0  0  0
   58.3672   26.1470   43.0417 H   0  0  0  0  0  0  0  0  0  0  0  0
   57.2083   26.8741   41.8777 H   0  0  0  0  0  0  0  0  0  0  0  0
   58.9273   27.3953   41.8777 H   0  0  0  0  0  0  0  0  0  0  0  0
   56.7580   28.0390   43.7330 H   0  0  0  0  0  0  0  0  0  0  0  0
   57.9430   29.0490   43.0350 H   0  0  0  0  0  0  0  0  0  0  0  0
   58.4552   26.9779   45.1122 H   0  0  0  0  0  0  0  0  0  0  0  0
   59.6546   28.1322   44.3972 H   0  0  0  0  0  0  0  0  0  0  0  0
   57.5625   28.5713   46.4806 H   0  0  0  0  0  0  0  0  0  0  0  0
   59.1785   29.3731   46.2079 H   0  0  0  0  0  0  0  0  0  0  0  0
   59.4465   30.9871   46.9673 H   0  0  0  0  0  0  0  0  0  0  0  0
   60.3410   33.2739   47.3835 H   0  0  0  0  0  0  0  0  0  0  0  0
   59.7274   35.7750   47.1936 H   0  0  0  0  0  0  0  0  0  0  0  0
   60.6474   35.6498   45.6559 H   0  0  0  0  0  0  0  0  0  0  0  0
   58.9871   36.3353   45.6559 H   0  0  0  0  0  0  0  0  0  0  0  0
   57.7562   34.8515   44.2923 H   0  0  0  0  0  0  0  0  0  0  0  0
   56.8543   32.5688   43.8761 H   0  0  0  0  0  0  0  0  0  0  0  0
  1  2  1  0
  2  3  1  0
  3  4  1  0
  4  5  1  0
  5  6  2  0
  5  7  1  0
  7  8  2  0
  8  9  1  0
  9 10  2  0
 10 11  1  0
 10 12  1  0
 12 13  2  0
 13  7  1  0
  1 14  1  0
  1 15  1  0
  1 16  1  0
  2 17  1  0
  2 18  1  0
  3 19  1  0
  3 20  1  0
  4 21  1  0
  4 22  1  0
  8 23  1  0
  9 24  1  0
 11 25  1  0
 11 26  1  0
 11 27  1  0
 12 28  1  0
 13 29  1  0
M  CHG  1   2   1
M  END
>  <UniqueID>  (14) 
14

>  <SMILES>  (14) 
C[NH2+]CCC(=O)c1ccc(C)cc1

>  <Energy>  (14) 
25.24970813204401

>  <Genealogy>  (14) 
C[NH2+]CCC(=O)c1ccc(C)cc1 (protonated)
C[NH2+]CCC(=O)c1ccc(C)cc1 (3D coordinates assigned)
C[NH2+]CCC(=O)c1ccc(C)cc1 (optimized conformer: 25.24970813204401 kcal/mol)

>  <smiles>  (14) 
CNCCC(=O)c1ccc(C)cc1

>  <score_type>  (14) 
oracle

>  <origin>  (14) 
adg

>  <m_score__min__energy>  (14) 
-4.29

>  <m_primary>  (14) 
energy

$$$$
14:0
     RDKit          3D

 51 54  0  0  0  0  0  0  0  0999 V2000
   61.1110   30.7590   50.7880 O   0  0  0  0  0  0  0  0  0  0  0  0
   60.6240   30.9630   49.6400 C   0  0  0  0  0  0  0  0  0  0  0  0
   61.4310   31.5860   48.6230 N   0  0  0  0  0  0  0  0  0  0  0  0
   62.8920   31.4500   48.5900 C   0  0  0  0  0  0  0  0  0  0  0  0
   63.5310   32.3700   49.6500 C   0  0  0  0  0  0  0  0  0  0  0  0
   63.3490   33.8700   49.3310 C   0  0  0  0  0  0  0  0  0  0  0  0
   63.3920   34.1940   47.8190 C   0  0  0  0  0  0  0  0  0  0  0  0
   64.1200   33.1110   47.0160 C   0  0  0  0  0  0  0  0  0  0  0  0
   63.4240   31.7400   47.1590 C   0  0  0  0  0  0  0  0  0  0  0  0
   59.1590   30.6790   49.4030 C   0  0  1  0  0  0  0  0  0  0  0  0
   58.2630   31.1460   50.5260 C   0  0  0  0  0  0  0  0  0  0  0  0
   58.3860   32.3480   51.1960 C   0  0  0  0  0  0  0  0  0  0  0  0
   57.4000   32.3400   52.1590 C   0  0  0  0  0  0  0  0  0  0  0  0
   56.7460   31.1310   52.0280 C   0  0  0  0  0  0  0  0  0  0  0  0
   57.2830   30.4420   51.0490 O   0  0  0  0  0  0  0  0  0  0  0  0
   58.7110   31.2240   48.1000 N   0  0  0  0  0  0  0  0  0  0  0  0
   58.0660   32.5440   48.0910 C   0  0  0  0  0  0  0  0  0  0  0  0
   58.7990   33.4700   47.1700 C   0  0  0  0  0  0  0  0  0  0  0  0
   58.2420   34.1860   46.1290 C   0  0  0  0  0  0  0  0  0  0  0  0
   59.2720   34.9340   45.6010 C   0  0  0  0  0  0  0  0  0  0  0  0
   60.3910   34.6290   46.3510 C   0  0  0  0  0  0  0  0  0  0  0  0
   60.0760   33.7550   47.2790 O   0  0  0  0  0  0  0  0  0  0  0  0
   59.0710   30.6220   46.8300 C   0  0  0  0  0  0  0  0  0  0  0  0
   60.2670   30.2810   46.6190 O   0  0  0  0  0  0  0  0  0  0  0  0
   58.0860   30.3510   45.7700 C   0  0  0  0  0  0  0  0  0  0  0  0
   58.0120   29.1490   45.0660 C   0  0  0  0  0  0  0  0  0  0  0  0
   56.7130   29.3530   44.0410 S   0  0  0  0  0  0  0  0  0  0  0  0
   56.2790   30.8860   44.4960 N   0  0  0  0  0  0  0  0  0  0  0  0
   57.1230   31.2690   45.4500 N   0  0  0  0  0  0  0  0  0  0  0  0
   60.9520   32.0150   47.7960 H   0  0  0  0  0  0  0  0  0  0  0  0
   63.1738   30.4163   48.8391 H   0  0  0  0  0  0  0  0  0  0  0  0
   63.0658   32.1592   50.6242 H   0  0  0  0  0  0  0  0  0  0  0  0
   64.6113   32.1629   49.6593 H   0  0  0  0  0  0  0  0  0  0  0  0
   62.3756   34.1938   49.7280 H   0  0  0  0  0  0  0  0  0  0  0  0
   64.1908   34.4023   49.7978 H   0  0  0  0  0  0  0  0  0  0  0  0
   62.3609   34.2792   47.4454 H   0  0  0  0  0  0  0  0  0  0  0  0
   63.9431   35.1374   47.6911 H   0  0  0  0  0  0  0  0  0  0  0  0
   64.1297   33.3984   45.9543 H   0  0  0  0  0  0  0  0  0  0  0  0
   65.1448   33.0213   47.4055 H   0  0  0  0  0  0  0  0  0  0  0  0
   62.5746   31.7083   46.4607 H   0  0  0  0  0  0  0  0  0  0  0  0
   64.1811   30.9731   46.9384 H   0  0  0  0  0  0  0  0  0  0  0  0
   59.0651   29.5833   49.3766 H   0  0  0  0  0  0  0  0  0  0  0  0
   59.1184   33.1454   51.0014 H   0  0  0  0  0  0  0  0  0  0  0  0
   57.1788   33.1360   52.8853 H   0  0  0  0  0  0  0  0  0  0  0  0
   55.9027   30.7963   52.6500 H   0  0  0  0  0  0  0  0  0  0  0  0
   57.0261   32.4382   47.7483 H   0  0  0  0  0  0  0  0  0  0  0  0
   58.0847   32.9602   49.1090 H   0  0  0  0  0  0  0  0  0  0  0  0
   57.1952   34.1640   45.7917 H   0  0  0  0  0  0  0  0  0  0  0  0
   59.2146   35.6328   44.7534 H   0  0  0  0  0  0  0  0  0  0  0  0
   61.3936   35.0537   46.1947 H   0  0  0  0  0  0  0  0  0  0  0  0
   58.6625   28.2674   45.1647 H   0  0  0  0  0  0  0  0  0  0  0  0
  1  2  2  0
  2  3  1  0
  3  4  1  0
  4  5  1  0
  5  6  1  0
  6  7  1  0
  7  8  1  0
  8  9  1  0
  2 10  1  0
 10 11  1  0
 11 12  2  0
 12 13  1  0
 13 14  2  0
 14 15  1  0
 10 16  1  0
 16 17  1  0
 17 18  1  0
 18 19  2  0
 19 20  1  0
 20 21  2  0
 21 22  1  0
 16 23  1  0
 23 24  2  0
 23 25  1  0
 25 26  2  0
 26 27  1  0
 27 28  1  0
 28 29  2  0
  9  4  1  0
 15 11  1  0
 22 18  1  0
 29 25  1  0
  3 30  1  0
  4 31  1  0
  5 32  1  0
  5 33  1  0
  6 34  1  0
  6 35  1  0
  7 36  1  0
  7 37  1  0
  8 38  1  0
  8 39  1  0
  9 40  1  0
  9 41  1  0
 10 42  1  6
 12 43  1  0
 13 44  1  0
 14 45  1  0
 17 46  1  0
 17 47  1  0
 19 48  1  0
 20 49  1  0
 21 50  1  0
 26 51  1  0
M  END
>  <UniqueID>  (15) 
15

>  <SMILES>  (15) 
O=C(NC1CCCCC1)[C@@H](c1ccco1)N(Cc1ccco1)C(=O)c1csnn1

>  <Energy>  (15) 
146.77066899436332

>  <Genealogy>  (15) 
O=C(NC1CCCCC1)[C@@H](c1ccco1)N(Cc1ccco1)C(=O)c1csnn1 (chirality)
O=C(NC1CCCCC1)[C@@H](c1ccco1)N(Cc1ccco1)C(=O)c1csnn1 (3D coordinates assigned)
O=C(NC1CCCCC1)[C@@H](c1ccco1)N(Cc1ccco1)C(=O)c1csnn1 (nonaromatic ring conformer: 146.77066899436332 kcal/mol)

>  <smiles>  (15) 
O=C(NC1CCCCC1)C(c1ccco1)N(Cc1ccco1)C(=O)c1csnn1

>  <score_type>  (15) 
oracle

>  <origin>  (15) 
adg

>  <m_score__min__energy>  (15) 
-8.5500000000000007

>  <m_primary>  (15) 
energy

$$$$
15:0
     RDKit          3D

 49 53  0  0  0  0  0  0  0  0999 V2000
   58.8720   33.3550   54.2800 C   0  0  0  0  0  0  0  0  0  0  0  0
   58.1400   33.3950   53.0910 C   0  0  0  0  0  0  0  0  0  0  0  0
   58.8010   33.4700   51.8620 C   0  0  0  0  0  0  0  0  0  0  0  0
   60.2090   33.5100   51.8100 C   0  0  0  0  0  0  0  0  0  0  0  0
   60.9270   33.5720   50.5160 C   0  0  0  0  0  0  0  0  0  0  0  0
   60.3540   33.7330   49.2610 C   0  0  0  0  0  0  0  0  0  0  0  0
   61.3470   33.6890   48.3550 N   0  0  0  0  0  0  0  0  0  0  0  0
   61.3350   33.7840   46.9920 C   0  0  0  0  0  0  0  0  0  0  0  0
   60.0750   33.8700   46.2120 C   0  0  0  0  0  0  0  0  0  0  0  0
   59.6550   35.0840   45.6470 C   0  0  0  0  0  0  0  0  0  0  0  0
   58.5090   35.1420   44.9170 N   0  0  0  0  0  0  0  0  0  0  0  0
   57.7300   34.0460   44.7150 C   0  0  0  0  0  0  0  0  0  0  0  0
   58.0930   32.8140   45.2720 C   0  0  0  0  0  0  0  0  0  0  0  0
   57.2450   31.6670   45.1000 N   0  0  0  0  0  0  0  0  0  0  0  0
   56.9460   31.1090   43.7790 C   0  0  0  0  0  0  0  0  0  0  0  0
   56.4210   29.6680   43.8870 C   0  0  1  0  0  0  0  0  0  0  0  0
   57.3970   28.6410   43.3340 C   0  0  0  0  0  0  0  0  0  0  0  0
   58.1970   28.2550   44.5390 C   0  0  0  0  0  0  0  0  0  0  0  0
   57.2490   28.5420   45.6900 C   0  0  0  0  0  0  0  0  0  0  0  0
   56.1920   29.3650   45.2460 O   0  0  0  0  0  0  0  0  0  0  0  0
   59.2940   32.7280   45.9860 C   0  0  0  0  0  0  0  0  0  0  0  0
   62.5850   33.7500   46.3390 C   0  0  0  0  0  0  0  0  0  0  0  0
   63.7320   33.6070   47.0680 N   0  0  0  0  0  0  0  0  0  0  0  0
   63.7100   33.4980   48.4270 C   0  0  0  0  0  0  0  0  0  0  0  0
   62.4760   33.5410   49.0670 C   0  0  0  0  0  0  0  0  0  0  0  0
   62.2730   33.4590   50.3960 N   0  0  0  0  0  0  0  0  0  0  0  0
   60.9340   33.4620   53.0140 C   0  0  0  0  0  0  0  0  0  0  0  0
   60.2680   33.3900   54.2410 C   0  0  0  0  0  0  0  0  0  0  0  0
   58.3496   33.2960   55.2463 H   0  0  0  0  0  0  0  0  0  0  0  0
   57.0408   33.3674   53.1221 H   0  0  0  0  0  0  0  0  0  0  0  0
   58.2187   33.4980   50.9292 H   0  0  0  0  0  0  0  0  0  0  0  0
   59.2839   33.8712   49.0472 H   0  0  0  0  0  0  0  0  0  0  0  0
   60.2558   35.9934   45.7953 H   0  0  0  0  0  0  0  0  0  0  0  0
   56.8130   34.1275   44.1129 H   0  0  0  0  0  0  0  0  0  0  0  0
   57.0350   31.0720   45.9330 H   0  0  0  0  0  0  0  0  0  0  0  0
   56.1827   31.7328   43.2909 H   0  0  0  0  0  0  0  0  0  0  0  0
   57.8743   31.0970   43.1890 H   0  0  0  0  0  0  0  0  0  0  0  0
   55.4976   29.6148   43.2917 H   0  0  0  0  0  0  0  0  0  0  0  0
   56.8644   27.7730   42.9182 H   0  0  0  0  0  0  0  0  0  0  0  0
   58.0138   29.0285   42.5097 H   0  0  0  0  0  0  0  0  0  0  0  0
   58.4685   27.1895   44.5077 H   0  0  0  0  0  0  0  0  0  0  0  0
   59.1493   28.7999   44.6178 H   0  0  0  0  0  0  0  0  0  0  0  0
   56.8391   27.5947   46.0701 H   0  0  0  0  0  0  0  0  0  0  0  0
   57.7977   29.0573   46.4921 H   0  0  0  0  0  0  0  0  0  0  0  0
   59.6283   31.7544   46.3737 H   0  0  0  0  0  0  0  0  0  0  0  0
   62.6364   33.8385   45.2438 H   0  0  0  0  0  0  0  0  0  0  0  0
   64.6412   33.3795   49.0005 H   0  0  0  0  0  0  0  0  0  0  0  0
   62.0336   33.4813   52.9901 H   0  0  0  0  0  0  0  0  0  0  0  0
   60.8443   33.3608   55.1775 H   0  0  0  0  0  0  0  0  0  0  0  0
  1  2  2  0
  2  3  1  0
  3  4  2  0
  4  5  1  0
  5  6  2  0
  6  7  1  0
  7  8  1  0
  8  9  1  0
  9 10  2  0
 10 11  1  0
 11 12  2  0
 12 13  1  0
 13 14  1  0
 14 15  1  0
 15 16  1  0
 16 17  1  0
 17 18  1  0
 18 19  1  0
 19 20  1  0
 13 21  2  0
  8 22  2  0
 22 23  1  0
 23 24  2  0
 24 25  1  0
 25 26  2  0
  4 27  1  0
 27 28  2  0
 28  1  1  0
 26  5  1  0
 25  7  1  0
 21  9  1  0
 20 16  1  0
  1 29  1  0
  2 30  1  0
  3 31  1  0
  6 32  1  0
 10 33  1  0
 12 34  1  0
 14 35  1  0
 15 36  1  0
 15 37  1  0
 16 38  1  6
 17 39  1  0
 17 40  1  0
 18 41  1  0
 18 42  1  0
 19 43  1  0
 19 44  1  0
 21 45  1  0
 22 46  1  0
 24 47  1  0
 27 48  1  0
 28 49  1  0
M  END
>  <UniqueID>  (16) 
16

>  <SMILES>  (16) 
c1ccc(-c2cn3c(-c4cncc(NC[C@H]5CCCO5)c4)cncc3n2)cc1

>  <Energy>  (16) 
98.2084515050364

>  <Genealogy>  (16) 
c1ccc(-c2cn3c(-c4cncc(NC[C@H]5CCCO5)c4)cncc3n2)cc1 (chirality)
c1ccc(-c2cn3c(-c4cncc(NC[C@H]5CCCO5)c4)cncc3n2)cc1 (3D coordinates assigned)
c1ccc(-c2cn3c(-c4cncc(NC[C@H]5CCCO5)c4)cncc3n2)cc1 (nonaromatic ring conformer: 98.2084515050364 kcal/mol)

>  <smiles>  (16) 
c1ccc(-c2cn3c(-c4cncc(NCC5CCCO5)c4)cncc3n2)cc1

>  <score_type>  (16) 
oracle

>  <origin>  (16) 
adg

>  <m_score__min__energy>  (16) 
-8.3200000000000003

>  <m_primary>  (16) 
energy

$$$$
16:0
     RDKit          3D

 35 35  0  0  0  0  0  0  0  0999 V2000
   58.1020   23.0620   45.0930 C   0  0  0  0  0  0  0  0  0  0  0  0
   56.9760   23.2160   46.1090 C   0  0  0  0  0  0  0  0  0  0  0  0
   55.9900   24.2010   45.6380 N   0  0  0  0  0  0  0  0  0  0  0  0
   54.8020   23.7430   44.9040 C   0  0  0  0  0  0  0  0  0  0  0  0
   55.1770   23.3460   43.4790 C   0  0  0  0  0  0  0  0  0  0  0  0
   56.1510   25.6100   45.9130 C   0  0  0  0  0  0  0  0  0  0  0  0
   55.1350   26.3490   46.0080 O   0  0  0  0  0  0  0  0  0  0  0  0
   57.5130   26.2400   46.0220 C   0  0  0  0  0  0  0  0  0  0  0  0
   57.4120   27.6890   45.8630 N   0  0  0  0  0  0  0  0  0  0  0  0
   58.4980   28.4850   45.3630 C   0  0  0  0  0  0  0  0  0  0  0  0
   59.5820   27.9360   45.0270 O   0  0  0  0  0  0  0  0  0  0  0  0
   58.3820   29.9550   45.2960 C   0  0  0  0  0  0  0  0  0  0  0  0
   59.2680   30.7380   46.0570 C   0  0  0  0  0  0  0  0  0  0  0  0
   59.1770   32.1320   46.0390 C   0  0  0  0  0  0  0  0  0  0  0  0
   58.2090   32.7600   45.2540 C   0  0  0  0  0  0  0  0  0  0  0  0
   58.0980   34.5110   45.2310 Cl  0  0  0  0  0  0  0  0  0  0  0  0
   57.3340   31.9940   44.4770 C   0  0  0  0  0  0  0  0  0  0  0  0
   57.4170   30.5960   44.4880 C   0  0  0  0  0  0  0  0  0  0  0  0
   56.3490   29.6940   43.4150 Cl  0  0  0  0  0  0  0  0  0  0  0  0
   59.0577   22.9313   45.6218 H   0  0  0  0  0  0  0  0  0  0  0  0
   57.9087   22.1819   44.4620 H   0  0  0  0  0  0  0  0  0  0  0  0
   58.1521   23.9617   44.4620 H   0  0  0  0  0  0  0  0  0  0  0  0
   56.4792   22.2446   46.2491 H   0  0  0  0  0  0  0  0  0  0  0  0
   57.4010   23.5648   47.0618 H   0  0  0  0  0  0  0  0  0  0  0  0
   54.3698   22.8734   45.4206 H   0  0  0  0  0  0  0  0  0  0  0  0
   54.0691   24.5623   44.8648 H   0  0  0  0  0  0  0  0  0  0  0  0
   55.9321   22.5466   43.5077 H   0  0  0  0  0  0  0  0  0  0  0  0
   54.2817   22.9859   42.9510 H   0  0  0  0  0  0  0  0  0  0  0  0
   55.5875   24.2193   42.9510 H   0  0  0  0  0  0  0  0  0  0  0  0
   57.9412   26.0116   47.0091 H   0  0  0  0  0  0  0  0  0  0  0  0
   58.1603   25.8359   45.2297 H   0  0  0  0  0  0  0  0  0  0  0  0
   56.5370   28.1610   46.1830 H   0  0  0  0  0  0  0  0  0  0  0  0
   60.0386   30.2492   46.6712 H   0  0  0  0  0  0  0  0  0  0  0  0
   59.8693   32.7354   46.6444 H   0  0  0  0  0  0  0  0  0  0  0  0
   56.5766   32.4922   43.8540 H   0  0  0  0  0  0  0  0  0  0  0  0
  1  2  1  0
  2  3  1  0
  3  4  1  0
  4  5  1  0
  3  6  1  0
  6  7  2  0
  6  8  1  0
  8  9  1  0
  9 10  1  0
 10 11  2  0
 10 12  1  0
 12 13  2  0
 13 14  1  0
 14 15  2  0
 15 16  1  0
 15 17  1  0
 17 18  2  0
 18 19  1  0
 18 12  1  0
  1 20  1  0
  1 21  1  0
  1 22  1  0
  2 23  1  0
  2 24  1  0
  4 25  1  0
  4 26  1  0
  5 27  1  0
  5 28  1  0
  5 29  1  0
  8 30  1  0
  8 31  1  0
  9 32  1  0
 13 33  1  0
 14 34  1  0
 17 35  1  0
M  END
>  <UniqueID>  (17) 
17

>  <SMILES>  (17) 
CCN(CC)C(=O)CNC(=O)c1ccc(Cl)cc1Cl

>  <Energy>  (17) 
28.93121359338562

>  <Genealogy>  (17) 
CCN(CC)C(=O)CNC(=O)c1ccc(Cl)cc1Cl (3D coordinates assigned)
CCN(CC)C(=O)CNC(=O)c1ccc(Cl)cc1Cl (optimized conformer: 28.93121359338562 kcal/mol)

>  <smiles>  (17) 
CCN(CC)C(=O)CNC(=O)c1ccc(Cl)cc1Cl

>  <score_type>  (17) 
oracle

>  <origin>  (17) 
adg

>  <m_score__min__energy>  (17) 
-6.96

>  <m_primary>  (17) 
energy

$$$$
17:0
     RDKit          3D

 30 31  0  0  0  0  0  0  0  0999 V2000
   60.6190   28.6460   44.8370 C   0  0  0  0  0  0  0  0  0  0  0  0
   59.1900   28.1120   44.7880 C   0  0  0  0  0  0  0  0  0  0  0  0
   58.1970   29.1310   45.3640 C   0  0  0  0  0  0  0  0  0  0  0  0
   58.1310   30.4270   44.5830 C   0  0  0  0  0  0  0  0  0  0  0  0
   57.7450   30.4900   43.2810 N   0  0  0  0  0  0  0  0  0  0  0  0
   57.8060   31.7890   42.9340 C   0  0  0  0  0  0  0  0  0  0  0  0
   57.4020   32.3380   41.6040 C   0  0  0  0  0  0  0  0  0  0  0  0
   58.2010   32.4990   44.0380 C   0  0  0  0  0  0  0  0  0  0  0  0
   58.3730   33.8360   44.1290 N   0  0  0  0  0  0  0  0  0  0  0  0
   58.7790   34.3690   45.3110 C   0  0  0  0  0  0  0  0  0  0  0  0
   59.0100   33.5480   46.4260 C   0  0  0  0  0  0  0  0  0  0  0  0
   59.6110   34.4030   48.0390 Br  0  0  0  0  0  0  0  0  0  0  0  0
   58.7990   32.1490   46.3080 C   0  0  0  0  0  0  0  0  0  0  0  0
   59.0230   31.2350   47.4870 C   0  0  0  0  0  0  0  0  0  0  0  0
   58.4080   31.6700   45.0790 N   0  0  0  0  0  0  0  0  0  0  0  0
   60.9311   28.7626   45.8853 H   0  0  0  0  0  0  0  0  0  0  0  0
   61.2923   27.9388   44.3305 H   0  0  0  0  0  0  0  0  0  0  0  0
   60.6635   29.6214   44.3305 H   0  0  0  0  0  0  0  0  0  0  0  0
   58.9215   27.9008   43.7424 H   0  0  0  0  0  0  0  0  0  0  0  0
   59.1395   27.1953   45.3940 H   0  0  0  0  0  0  0  0  0  0  0  0
   57.1954   28.6762   45.3669 H   0  0  0  0  0  0  0  0  0  0  0  0
   58.5469   29.3835   46.3758 H   0  0  0  0  0  0  0  0  0  0  0  0
   57.4500   29.7080   42.6560 H   0  0  0  0  0  0  0  0  0  0  0  0
   56.7559   33.2161   41.7507 H   0  0  0  0  0  0  0  0  0  0  0  0
   58.2998   32.6333   41.0412 H   0  0  0  0  0  0  0  0  0  0  0  0
   56.8530   31.5687   41.0412 H   0  0  0  0  0  0  0  0  0  0  0  0
   58.9283   35.4556   45.3952 H   0  0  0  0  0  0  0  0  0  0  0  0
   58.8845   31.8001   48.4205 H   0  0  0  0  0  0  0  0  0  0  0  0
   58.3016   30.4054   47.4501 H   0  0  0  0  0  0  0  0  0  0  0  0
   60.0462   30.8330   47.4501 H   0  0  0  0  0  0  0  0  0  0  0  0
  1  2  1  0
  2  3  1  0
  3  4  1  0
  4  5  2  0
  5  6  1  0
  6  7  1  0
  6  8  2  0
  8  9  1  0
  9 10  2  0
 10 11  1  0
 11 12  1  0
 11 13  2  0
 13 14  1  0
 13 15  1  0
 15  4  1  0
 15  8  1  0
  1 16  1  0
  1 17  1  0
  1 18  1  0
  2 19  1  0
  2 20  1  0
  3 21  1  0
  3 22  1  0
  5 23  1  0
  7 24  1  0
  7 25  1  0
  7 26  1  0
 10 27  1  0
 14 28  1  0
 14 29  1  0
 14 30  1  0
M  CHG  1   5   1
M  END
>  <UniqueID>  (18) 
18

>  <SMILES>  (18) 
CCCc1[nH+]c(C)c2ncc(Br)c(C)n12

>  <Energy>  (18) 
69.27180856129928

>  <Genealogy>  (18) 
CCCc1[nH+]c(C)c2ncc(Br)c(C)n12 (protonated)
CCCc1[nH+]c(C)c2ncc(Br)c(C)n12 (3D coordinates assigned)
CCCc1[nH+]c(C)c2ncc(Br)c(C)n12 (optimized conformer: 69.27180856129928 kcal/mol)

>  <smiles>  (18) 
CCCc1nc(C)c2ncc(Br)c(C)n12

>  <score_type>  (18) 
oracle

>  <origin>  (18) 
adg

>  <m_score__min__energy>  (18) 
-4.6399999999999997

>  <m_primary>  (18) 
energy

$$$$
18:0
     RDKit          3D

 41 42  0  0  0  0  0  0  0  0999 V2000
   61.7240   30.8340   49.7990 C   0  0  0  0  0  0  0  0  0  0  0  0
   62.8760   31.8310   49.6870 C   0  0  0  0  0  0  0  0  0  0  0  0
   62.5770   32.8480   48.6530 N   0  0  0  0  0  0  0  0  0  0  0  0
   63.7360   33.0580   47.7540 C   0  0  0  0  0  0  0  0  0  0  0  0
   63.3140   33.8520   46.5190 C   0  0  0  0  0  0  0  0  0  0  0  0
   62.1400   34.1250   49.2670 C   0  0  0  0  0  0  0  0  0  0  0  0
   60.8020   34.5630   48.6690 C   0  0  0  0  0  0  0  0  0  0  0  0
   60.2400   33.4870   47.8560 N   0  0  0  0  0  0  0  0  0  0  0  0
   59.1780   33.7060   46.9150 C   0  0  0  0  0  0  0  0  0  0  0  0
   58.6920   34.8600   46.7710 O   0  0  0  0  0  0  0  0  0  0  0  0
   58.6050   32.5790   46.1480 C   0  0  0  0  0  0  0  0  0  0  0  0
   57.3440   32.7480   45.5260 C   0  0  0  0  0  0  0  0  0  0  0  0
   56.7580   31.7270   44.8430 N   0  0  0  0  0  0  0  0  0  0  0  0
   57.4090   30.5450   44.7510 C   0  0  0  0  0  0  0  0  0  0  0  0
   56.9930   29.4010   44.1160 C   0  0  0  0  0  0  0  0  0  0  0  0
   58.0490   28.5260   44.3440 C   0  0  0  0  0  0  0  0  0  0  0  0
   58.1330   26.8720   43.7800 Cl  0  0  0  0  0  0  0  0  0  0  0  0
   59.0250   29.1230   45.0700 N   0  0  0  0  0  0  0  0  0  0  0  0
   58.6100   30.3560   45.3090 N   0  0  0  0  0  0  0  0  0  0  0  0
   59.2690   31.3320   45.9930 C   0  0  0  0  0  0  0  0  0  0  0  0
   60.6480   31.0690   46.5380 C   0  0  0  0  0  0  0  0  0  0  0  0
   61.5050   30.6445   50.8602 H   0  0  0  0  0  0  0  0  0  0  0  0
   60.8310   31.2489   49.3087 H   0  0  0  0  0  0  0  0  0  0  0  0
   62.0065   29.8907   49.3087 H   0  0  0  0  0  0  0  0  0  0  0  0
   63.0191   32.3305   50.6565 H   0  0  0  0  0  0  0  0  0  0  0  0
   63.7908   31.2902   49.4029 H   0  0  0  0  0  0  0  0  0  0  0  0
   64.5170   33.6141   48.2932 H   0  0  0  0  0  0  0  0  0  0  0  0
   64.1221   32.0788   47.4343 H   0  0  0  0  0  0  0  0  0  0  0  0
   62.8192   34.7829   46.8330 H   0  0  0  0  0  0  0  0  0  0  0  0
   64.2025   34.0939   45.9174 H   0  0  0  0  0  0  0  0  0  0  0  0
   62.6164   33.2509   45.9174 H   0  0  0  0  0  0  0  0  0  0  0  0
   62.0260   33.9870   50.3523 H   0  0  0  0  0  0  0  0  0  0  0  0
   62.8955   34.8989   49.0663 H   0  0  0  0  0  0  0  0  0  0  0  0
   60.1028   34.8081   49.4820 H   0  0  0  0  0  0  0  0  0  0  0  0
   60.9629   35.4473   48.0349 H   0  0  0  0  0  0  0  0  0  0  0  0
   60.4960   32.5050   48.1100 H   0  0  0  0  0  0  0  0  0  0  0  0
   56.8308   33.7184   45.5959 H   0  0  0  0  0  0  0  0  0  0  0  0
   56.0581   29.2217   43.5648 H   0  0  0  0  0  0  0  0  0  0  0  0
   60.6151   31.0753   47.6375 H   0  0  0  0  0  0  0  0  0  0  0  0
   60.9998   30.0876   46.1873 H   0  0  0  0  0  0  0  0  0  0  0  0
   61.3364   31.8521   46.1873 H   0  0  0  0  0  0  0  0  0  0  0  0
  1  2  1  0
  2  3  1  0
  3  4  1  0
  4  5  1  0
  3  6  1  0
  6  7  1  0
  7  8  1  0
  8  9  1  0
  9 10  2  0
  9 11  1  0
 11 12  1  0
 12 13  2  0
 13 14  1  0
 14 15  2  0
 15 16  1  0
 16 17  1  0
 16 18  2  0
 18 19  1  0
 19 20  1  0
 20 21  1  0
 20 11  2  0
 19 14  1  0
  1 22  1  0
  1 23  1  0
  1 24  1  0
  2 25  1  0
  2 26  1  0
  4 27  1  0
  4 28  1  0
  5 29  1  0
  5 30  1  0
  5 31  1  0
  6 32  1  0
  6 33  1  0
  7 34  1  0
  7 35  1  0
  8 36  1  0
 12 37  1  0
 15 38  1  0
 21 39  1  0
 21 40  1  0
 21 41  1  0
M  END
>  <UniqueID>  (19) 
19

>  <SMILES>  (19) 
CCN(CC)CCNC(=O)c1cnc2cc(Cl)nn2c1C

>  <Energy>  (19) 
78.44871249880556

>  <Genealogy>  (19) 
CCN(CC)CCNC(=O)c1cnc2cc(Cl)nn2c1C (3D coordinates assigned)
CCN(CC)CCNC(=O)c1cnc2cc(Cl)nn2c1C (optimized conformer: 78.44871249880556 kcal/mol)

>  <smiles>  (19) 
CCN(CC)CCNC(=O)c1cnc2cc(Cl)nn2c1C

>  <score_type>  (19) 
oracle

>  <origin>  (19) 
adg

>  <m_score__min__energy>  (19) 
-6.5099999999999998

>  <m_primary>  (19) 
energy

$$$$
19:0
     RDKit          3D

 57 60  0  0  0  0  0  0  0  0999 V2000
   60.7830   27.9590   45.5990 C   0  0  0  0  0  0  0  0  0  0  0  0
   59.3860   28.4750   45.4540 C   0  0  0  0  0  0  0  0  0  0  0  0
   59.1850   29.7930   45.1570 N   0  0  0  0  0  0  0  0  0  0  0  0
   57.9610   30.3310   45.0130 N   0  0  0  0  0  0  0  0  0  0  0  0
   57.8730   31.7580   44.6740 C   0  0  0  0  0  0  0  0  0  0  0  0
   58.1010   32.6410   45.9200 C   0  0  1  0  0  0  0  0  0  0  0  0
   58.5070   31.8060   47.1440 C   0  0  0  0  0  0  0  0  0  0  0  0
   58.6830   32.6860   48.3930 C   0  0  0  0  0  0  0  0  0  0  0  0
   58.9110   34.1690   48.0460 C   0  0  0  0  0  0  0  0  0  0  0  0
   59.7790   34.3410   46.8570 N   0  0  0  0  0  0  0  0  0  0  0  0
   61.2210   33.9900   47.0410 C   0  0  0  0  0  0  0  0  0  0  0  0
   61.6560   34.3140   48.4840 C   0  0  0  0  0  0  0  0  0  0  0  0
   61.5320   32.4980   46.7940 C   0  0  0  0  0  0  0  0  0  0  0  0
   59.1840   33.7190   45.6360 C   0  0  0  0  0  0  0  0  0  0  0  0
   56.8350   29.5540   45.1620 C   0  0  0  0  0  0  0  0  0  0  0  0
   55.6780   30.0350   45.0260 O   0  0  0  0  0  0  0  0  0  0  0  0
   57.0070   28.2100   45.4580 C   0  0  0  0  0  0  0  0  0  0  0  0
   56.0540   27.2800   45.6430 N   0  0  0  0  0  0  0  0  0  0  0  0
   56.6800   26.1390   45.9060 N   0  0  0  0  0  0  0  0  0  0  0  0
   55.9720   24.9220   46.1940 C   0  0  0  0  0  0  0  0  0  0  0  0
   55.1690   24.3080   45.2170 C   0  0  0  0  0  0  0  0  0  0  0  0
   54.5090   23.1080   45.5000 C   0  0  0  0  0  0  0  0  0  0  0  0
   54.6560   22.5060   46.7530 C   0  0  0  0  0  0  0  0  0  0  0  0
   55.4710   23.0990   47.7220 C   0  0  0  0  0  0  0  0  0  0  0  0
   56.1320   24.2990   47.4420 C   0  0  0  0  0  0  0  0  0  0  0  0
   58.0290   26.3270   45.8660 C   0  0  0  0  0  0  0  0  0  0  0  0
   59.0650   25.2520   46.0310 C   0  0  0  0  0  0  0  0  0  0  0  0
   58.2510   27.6700   45.5960 C   0  0  0  0  0  0  0  0  0  0  0  0
   61.0311   27.8674   46.6667 H   0  0  0  0  0  0  0  0  0  0  0  0
   60.8613   26.9726   45.1184 H   0  0  0  0  0  0  0  0  0  0  0  0
   61.4837   28.6577   45.1184 H   0  0  0  0  0  0  0  0  0  0  0  0
   58.6381   31.9959   43.9203 H   0  0  0  0  0  0  0  0  0  0  0  0
   56.8661   31.9620   44.2810 H   0  0  0  0  0  0  0  0  0  0  0  0
   57.1454   33.1365   46.1467 H   0  0  0  0  0  0  0  0  0  0  0  0
   57.7255   31.0575   47.3413 H   0  0  0  0  0  0  0  0  0  0  0  0
   59.4691   31.3193   46.9262 H   0  0  0  0  0  0  0  0  0  0  0  0
   57.7773   32.6043   49.0118 H   0  0  0  0  0  0  0  0  0  0  0  0
   59.5746   32.3287   48.9291 H   0  0  0  0  0  0  0  0  0  0  0  0
   57.9371   34.6389   47.8441 H   0  0  0  0  0  0  0  0  0  0  0  0
   59.4150   34.6415   48.9020 H   0  0  0  0  0  0  0  0  0  0  0  0
   61.7694   34.5850   46.2959 H   0  0  0  0  0  0  0  0  0  0  0  0
   60.9809   33.8112   49.1921 H   0  0  0  0  0  0  0  0  0  0  0  0
   62.6852   33.9607   48.6448 H   0  0  0  0  0  0  0  0  0  0  0  0
   61.6122   35.4013   48.6448 H   0  0  0  0  0  0  0  0  0  0  0  0
   61.6397   31.9813   47.7591 H   0  0  0  0  0  0  0  0  0  0  0  0
   60.7097   32.0416   46.2235 H   0  0  0  0  0  0  0  0  0  0  0  0
   62.4682   32.4082   46.2235 H   0  0  0  0  0  0  0  0  0  0  0  0
   58.7242   34.5167   45.0341 H   0  0  0  0  0  0  0  0  0  0  0  0
   60.0061   33.2050   45.1164 H   0  0  0  0  0  0  0  0  0  0  0  0
   55.0594   24.7732   44.2262 H   0  0  0  0  0  0  0  0  0  0  0  0
   53.8733   22.6372   44.7356 H   0  0  0  0  0  0  0  0  0  0  0  0
   54.1305   21.5658   46.9766 H   0  0  0  0  0  0  0  0  0  0  0  0
   55.5923   22.6212   48.7054 H   0  0  0  0  0  0  0  0  0  0  0  0
   56.7805   24.7571   48.2033 H   0  0  0  0  0  0  0  0  0  0  0  0
   59.2388   25.0716   47.1021 H   0  0  0  0  0  0  0  0  0  0  0  0
   58.7107   24.3253   45.5559 H   0  0  0  0  0  0  0  0  0  0  0  0
   60.0041   25.5718   45.5559 H   0  0  0  0  0  0  0  0  0  0  0  0
  1  2  1  0
  2  3  2  0
  3  4  1  0
  4  5  1  0
  5  6  1  0
  6  7  1  0
  7  8  1  0
  8  9  1  0
  9 10  1  0
 10 11  1  0
 11 12  1  0
 11 13  1  0
 10 14  1  0
  4 15  1  0
 15 16  2  0
 15 17  1  0
 17 18  2  0
 18 19  1  0
 19 20  1  0
 20 21  2  0
 21 22  1  0
 22 23  2  0
 23 24  1  0
 24 25  2  0
 19 26  1  0
 26 27  1  0
 26 28  2  0
 28  2  1  0
 14  6  1  0
 28 17  1  0
 25 20  1  0
  1 29  1  0
  1 30  1  0
  1 31  1  0
  5 32  1  0
  5 33  1  0
  6 34  1  1
  7 35  1  0
  7 36  1  0
  8 37  1  0
  8 38  1  0
  9 39  1  0
  9 40  1  0
 11 41  1  0
 12 42  1  0
 12 43  1  0
 12 44  1  0
 13 45  1  0
 13 46  1  0
 13 47  1  0
 14 48  1  0
 14 49  1  0
 21 50  1  0
 22 51  1  0
 23 52  1  0
 24 53  1  0
 25 54  1  0
 27 55  1  0
 27 56  1  0
 27 57  1  0
M  END
>  <UniqueID>  (20) 
20

>  <SMILES>  (20) 
Cc1nn(C[C@H]2CCCN(C(C)C)C2)c(=O)c2nn(-c3ccccc3)c(C)c12

>  <Energy>  (20) 
116.8952943024682

>  <Genealogy>  (20) 
Cc1nn(C[C@H]2CCCN(C(C)C)C2)c(=O)c2nn(-c3ccccc3)c(C)c12 (chirality)
Cc1nn(C[C@H]2CCCN(C(C)C)C2)c(=O)c2nn(-c3ccccc3)c(C)c12 (3D coordinates assigned)
Cc1nn(C[C@H]2CCCN(C(C)C)C2)c(=O)c2nn(-c3ccccc3)c(C)c12 (nonaromatic ring conformer: 116.8952943024682 kcal/mol)

>  <smiles>  (20) 
Cc1nn(CC2CCCN(C(C)C)C2)c(=O)c2nn(-c3ccccc3)c(C)c12

>  <score_type>  (20) 
oracle

>  <origin>  (20) 
adg

>  <m_score__min__energy>  (20) 
-9.0899999999999999

>  <m_primary>  (20) 
energy

$$$$
20:0
     RDKit          3D

 40 41  0  0  0  0  0  0  0  0999 V2000
   57.9690   27.7620   44.4590 C   0  0  0  0  0  0  0  0  0  0  0  0
   57.4450   28.5070   45.6800 C   0  0  0  0  0  0  0  0  0  0  0  0
   56.9370   29.8450   45.2660 N   0  0  0  0  0  0  0  0  0  0  0  0
   55.8710   29.7390   44.2460 C   0  0  0  0  0  0  0  0  0  0  0  0
   56.3780   30.1780   42.8720 C   0  0  0  0  0  0  0  0  0  0  0  0
   58.0300   30.7180   44.7820 C   0  0  0  0  0  0  0  0  0  0  0  0
   59.1460   30.7100   45.7350 C   0  0  0  0  0  0  0  0  0  0  0  0
   60.0620   30.6730   46.5170 C   0  0  0  0  0  0  0  0  0  0  0  0
   61.1480   30.5950   47.4970 C   0  0  0  0  0  0  0  0  0  0  0  0
   62.0890   31.7010   47.2980 N   0  0  0  0  0  0  0  0  0  0  0  0
   63.4350   31.5990   47.3100 C   0  0  0  0  0  0  0  0  0  0  0  0
   64.0310   32.7840   47.0740 N   0  0  0  0  0  0  0  0  0  0  0  0
   63.0320   33.6700   46.9040 C   0  0  0  0  0  0  0  0  0  0  0  0
   61.8280   33.0060   47.0400 C   0  0  0  0  0  0  0  0  0  0  0  0
   60.4920   33.6190   46.8970 C   0  0  0  0  0  0  0  0  0  0  0  0
   59.7090   33.5430   45.8020 N   0  0  0  0  0  0  0  0  0  0  0  0
   58.5390   34.2350   45.9560 C   0  0  0  0  0  0  0  0  0  0  0  0
   57.5490   34.3340   44.8420 C   0  0  0  0  0  0  0  0  0  0  0  0
   58.3450   34.8860   47.1370 N   0  0  0  0  0  0  0  0  0  0  0  0
   59.7090   34.5560   48.0240 S   0  0  0  0  0  0  0  0  0  0  0  0
   58.5734   26.9027   44.7852 H   0  0  0  0  0  0  0  0  0  0  0  0
   57.1214   27.4059   43.8550 H   0  0  0  0  0  0  0  0  0  0  0  0
   58.5906   28.4393   43.8550 H   0  0  0  0  0  0  0  0  0  0  0  0
   56.6280   27.9305   46.1384 H   0  0  0  0  0  0  0  0  0  0  0  0
   58.2589   28.6336   46.4091 H   0  0  0  0  0  0  0  0  0  0  0  0
   55.5329   28.6939   44.1870 H   0  0  0  0  0  0  0  0  0  0  0  0
   55.0405   30.3982   44.5389 H   0  0  0  0  0  0  0  0  0  0  0  0
   57.2042   30.8934   42.9974 H   0  0  0  0  0  0  0  0  0  0  0  0
   56.7352   29.2993   42.3150 H   0  0  0  0  0  0  0  0  0  0  0  0
   55.5594   30.6572   42.3150 H   0  0  0  0  0  0  0  0  0  0  0  0
   58.3827   30.3515   43.8067 H   0  0  0  0  0  0  0  0  0  0  0  0
   57.6507   31.7457   44.6827 H   0  0  0  0  0  0  0  0  0  0  0  0
   60.7270   30.6541   48.5115 H   0  0  0  0  0  0  0  0  0  0  0  0
   61.6814   29.6418   47.3670 H   0  0  0  0  0  0  0  0  0  0  0  0
   63.9799   30.6607   47.4908 H   0  0  0  0  0  0  0  0  0  0  0  0
   65.0580   32.9740   47.0280 H   0  0  0  0  0  0  0  0  0  0  0  0
   63.1537   34.7426   46.6923 H   0  0  0  0  0  0  0  0  0  0  0  0
   56.5363   34.4353   45.2594 H   0  0  0  0  0  0  0  0  0  0  0  0
   57.7802   35.2135   44.2231 H   0  0  0  0  0  0  0  0  0  0  0  0
   57.6014   33.4261   44.2231 H   0  0  0  0  0  0  0  0  0  0  0  0
  1  2  1  0
  2  3  1  0
  3  4  1  0
  4  5  1  0
  3  6  1  0
  6  7  1  0
  7  8  3  0
  8  9  1  0
  9 10  1  0
 10 11  1  0
 11 12  2  0
 12 13  1  0
 13 14  2  0
 14 15  1  0
 15 16  2  0
 16 17  1  0
 17 18  1  0
 17 19  2  0
 19 20  1  0
 14 10  1  0
 20 15  1  0
  1 21  1  0
  1 22  1  0
  1 23  1  0
  2 24  1  0
  2 25  1  0
  4 26  1  0
  4 27  1  0
  5 28  1  0
  5 29  1  0
  5 30  1  0
  6 31  1  0
  6 32  1  0
  9 33  1  0
  9 34  1  0
 11 35  1  0
 12 36  1  0
 13 37  1  0
 18 38  1  0
 18 39  1  0
 18 40  1  0
M  CHG  1  12   1
M  END
>  <UniqueID>  (21) 
21

>  <SMILES>  (21) 
CCN(CC)CC#CCn1c[nH+]cc1-c1nc(C)ns1

>  <Energy>  (21) 
98.42015860239697

>  <Genealogy>  (21) 
CCN(CC)CC#CCn1c[nH+]cc1-c1nc(C)ns1 (protonated)
CCN(CC)CC#CCn1c[nH+]cc1-c1nc(C)ns1 (3D coordinates assigned)
CCN(CC)CC#CCn1c[nH+]cc1-c1nc(C)ns1 (optimized conformer: 98.42015860239697 kcal/mol)

>  <smiles>  (21) 
CCN(CC)CC#CCn1cncc1-c1nc(C)ns1

>  <score_type>  (21) 
oracle

>  <origin>  (21) 
adg

>  <m_score__min__energy>  (21) 
-5.0499999999999998

>  <m_primary>  (21) 
energy

$$$$
21:0
     RDKit          3D

 47 49  0  0  0  0  0  0  0  0999 V2000
   54.1234   29.5870   44.3039 H   0  0  0  0  0  0  0  0  0  0  0  0
   55.2080   29.6670   44.4690 C   0  0  0  0  0  0  0  0  0  0  0  0
   55.8440   28.7430   45.2310 N   0  0  0  0  0  0  0  0  0  0  0  0
   57.1800   28.8030   45.4630 C   0  0  0  0  0  0  0  0  0  0  0  0
   57.7880   27.8240   46.2580 C   0  0  0  0  0  0  0  0  0  0  0  0
   57.1822   27.0135   46.6893 H   0  0  0  0  0  0  0  0  0  0  0  0
   59.1630   27.8740   46.5050 C   0  0  0  0  0  0  0  0  0  0  0  0
   59.9190   26.6440   47.5030 Cl  0  0  0  0  0  0  0  0  0  0  0  0
   59.9350   28.9030   45.9600 C   0  0  0  0  0  0  0  0  0  0  0  0
   61.0165   28.9397   46.1574 H   0  0  0  0  0  0  0  0  0  0  0  0
   59.3390   29.8860   45.1650 C   0  0  0  0  0  0  0  0  0  0  0  0
   59.9544   30.6927   44.7402 H   0  0  0  0  0  0  0  0  0  0  0  0
   57.9530   29.8500   44.9040 C   0  0  0  0  0  0  0  0  0  0  0  0
   57.3120   30.8290   44.1070 C   0  0  0  0  0  0  0  0  0  0  0  0
   58.0240   31.7980   43.5900 N   0  0  0  0  0  0  0  0  0  0  0  0
   58.6440   32.9440   44.2620 C   0  0  0  0  0  0  0  0  0  0  0  0
   59.2446   33.5056   43.5313 H   0  0  0  0  0  0  0  0  0  0  0  0
   59.2767   32.5662   45.0786 H   0  0  0  0  0  0  0  0  0  0  0  0
   57.5860   33.8790   44.8630 C   0  0  0  0  0  0  0  0  0  0  0  0
   56.7634   33.9878   44.1408 H   0  0  0  0  0  0  0  0  0  0  0  0
   58.0776   34.8403   45.0732 H   0  0  0  0  0  0  0  0  0  0  0  0
   57.0090   33.3590   46.1870 C   0  0  0  0  0  0  0  0  0  0  0  0
   56.8013   32.2828   46.0945 H   0  0  0  0  0  0  0  0  0  0  0  0
   56.0802   33.9041   46.4112 H   0  0  0  0  0  0  0  0  0  0  0  0
   57.9720   33.5770   47.2870 N   0  0  0  0  0  0  0  0  0  0  0  0
   58.6340   32.3170   47.7190 C   0  0  0  0  0  0  0  0  0  0  0  0
   58.0453   31.4642   47.3500 H   0  0  0  0  0  0  0  0  0  0  0  0
   58.6864   32.3256   48.8177 H   0  0  0  0  0  0  0  0  0  0  0  0
   60.0680   32.1950   47.1830 C   0  0  0  0  0  0  0  0  0  0  0  0
   60.0387   32.2020   46.0834 H   0  0  0  0  0  0  0  0  0  0  0  0
   60.4952   31.2547   47.5617 H   0  0  0  0  0  0  0  0  0  0  0  0
   60.9290   33.3130   47.6480 N   0  0  0  0  0  0  0  0  0  0  0  0
   62.1020   33.4980   46.7660 C   0  0  0  0  0  0  0  0  0  0  0  0
   62.3520   34.5684   46.7245 H   0  0  0  0  0  0  0  0  0  0  0  0
   61.8450   33.1153   45.7673 H   0  0  0  0  0  0  0  0  0  0  0  0
   63.3180   32.7240   47.2760 C   0  0  0  0  0  0  0  0  0  0  0  0
   63.3178   32.7241   48.3760 H   0  0  0  0  0  0  0  0  0  0  0  0
   63.2732   31.6878   46.9095 H   0  0  0  0  0  0  0  0  0  0  0  0
   64.2378   33.2032   46.9095 H   0  0  0  0  0  0  0  0  0  0  0  0
   60.1820   34.5850   47.8280 C   0  0  0  0  0  0  0  0  0  0  0  0
   60.8443   35.4245   47.5697 H   0  0  0  0  0  0  0  0  0  0  0  0
   59.8567   34.6403   48.8774 H   0  0  0  0  0  0  0  0  0  0  0  0
   58.9300   34.6520   46.9420 C   0  0  0  0  0  0  0  0  0  0  0  0
   59.2291   34.5418   45.8892 H   0  0  0  0  0  0  0  0  0  0  0  0
   58.4386   35.6224   47.1060 H   0  0  0  0  0  0  0  0  0  0  0  0
   55.9220   30.7190   43.8930 C   0  0  0  0  0  0  0  0  0  0  0  0
   55.4007   31.4624   43.2721 H   0  0  0  0  0  0  0  0  0  0  0  0
  1  2  1  0
  2  3  1  0
  3  4  1  0
  4  5  2  0
  5  6  1  0
  5  7  1  0
  7  8  1  0
  7  9  2  0
  9 10  1  0
  9 11  1  0
 11 12  1  0
 11 13  2  0
 13 14  1  0
 14 15  2  0
 15 16  1  0
 16 17  1  0
 16 18  1  0
 16 19  1  0
 19 20  1  0
 19 21  1  0
 19 22  1  0
 22 23  1  0
 22 24  1  0
 22 25  1  0
 25 26  1  0
 26 27  1  0
 26 28  1  0
 26 29  1  0
 29 30  1  0
 29 31  1  0
 29 32  1  0
 32 33  1  0
 33 34  1  0
 33 35  1  0
 33 36  1  0
 36 37  1  0
 36 38  1  0
 36 39  1  0
 32 40  1  0
 40 41  1  0
 40 42  1  0
 40 43  1  0
 43 44  1  0
 43 45  1  0
 14 46  1  0
 46 47  1  0
 46  2  2  0
 13  4  1  0
 43 25  1  0
M  CHG  1   3  -1
M  END
>  <UniqueID>  (22) 
22

>  <SMILES>  (22) 
CCN1CCN(CCC/N=c2\cc[n-]c3cc(Cl)ccc23)CC1

>  <Energy>  (22) 
65.39856850766797

>  <Genealogy>  (22) 
CCN1CCN(CCCN=c2cc[n-]c3cc(Cl)ccc23)CC1 (protonated)
CCN1CCN(CCC/N=c2\cc[n-]c3cc(Cl)ccc23)CC1 (cis-trans isomerization)
CCN1CCN(CCC/N=c2\cc[n-]c3cc(Cl)ccc23)CC1 (3D coordinates assigned)
CCN1CCN(CCC/N=c2\cc[n-]c3cc(Cl)ccc23)CC1 (nonaromatic ring conformer: 65.39856850766797 kcal/mol)

>  <smiles>  (22) 
CCN1CCN(CCCN=c2cc[nH]c3cc(Cl)ccc23)CC1

>  <score_type>  (22) 
oracle

>  <origin>  (22) 
adg

>  <m_score__min__energy>  (22) 
-9.6699999999999999

>  <m_primary>  (22) 
energy

$$$$
22:0
     RDKit          3D

 48 49  0  0  0  0  0  0  0  0999 V2000
   59.7010   35.3390   45.9610 C   0  0  0  0  0  0  0  0  0  0  0  0
   58.5790   34.5440   45.3030 C   0  0  0  0  0  0  0  0  0  0  0  0
   57.6320   33.9520   46.3510 C   0  0  0  0  0  0  0  0  0  0  0  0
   58.2400   32.7250   46.9660 C   0  0  0  0  0  0  0  0  0  0  0  0
   58.7050   32.7890   48.1350 O   0  0  0  0  0  0  0  0  0  0  0  0
   58.3670   31.4700   46.1940 C   0  0  0  0  0  0  0  0  0  0  0  0
   57.4540   31.2220   45.1530 C   0  0  0  0  0  0  0  0  0  0  0  0
   57.5250   30.0430   44.4080 C   0  0  0  0  0  0  0  0  0  0  0  0
   56.2720   29.7260   43.0030 Br  0  0  0  0  0  0  0  0  0  0  0  0
   58.5070   29.0940   44.6950 C   0  0  0  0  0  0  0  0  0  0  0  0
   59.4240   29.3240   45.7210 C   0  0  0  0  0  0  0  0  0  0  0  0
   59.3780   30.5110   46.4760 C   0  0  0  0  0  0  0  0  0  0  0  0
   60.3740   30.7260   47.5040 N   0  0  0  0  0  0  0  0  0  0  0  0
   60.7250   29.4530   48.1520 C   0  0  0  0  0  0  0  0  0  0  0  0
   60.9480   29.6230   49.6650 C   0  0  0  0  0  0  0  0  0  0  0  0
   61.9560   30.7530   49.9880 C   0  0  0  0  0  0  0  0  0  0  0  0
   62.0520   31.8000   48.9470 N   0  0  0  0  0  0  0  0  0  0  0  0
   63.4000   31.9660   48.3800 C   0  0  0  0  0  0  0  0  0  0  0  0
   63.3290   32.8870   47.1450 C   0  0  0  0  0  0  0  0  0  0  0  0
   62.1090   33.6100   47.0660 O   0  0  0  0  0  0  0  0  0  0  0  0
   61.8050   34.1880   48.3170 C   0  0  0  0  0  0  0  0  0  0  0  0
   61.4660   33.0940   49.3490 C   0  0  0  0  0  0  0  0  0  0  0  0
   59.6056   35.2714   47.0548 H   0  0  0  0  0  0  0  0  0  0  0  0
   60.6728   34.9268   45.6515 H   0  0  0  0  0  0  0  0  0  0  0  0
   59.6342   36.3925   45.6515 H   0  0  0  0  0  0  0  0  0  0  0  0
   58.0084   35.2104   44.6394 H   0  0  0  0  0  0  0  0  0  0  0  0
   59.0264   33.7177   44.7311 H   0  0  0  0  0  0  0  0  0  0  0  0
   57.4476   34.6990   47.1371 H   0  0  0  0  0  0  0  0  0  0  0  0
   56.6848   33.6772   45.8639 H   0  0  0  0  0  0  0  0  0  0  0  0
   56.6758   31.9647   44.9233 H   0  0  0  0  0  0  0  0  0  0  0  0
   58.5582   28.1630   44.1113 H   0  0  0  0  0  0  0  0  0  0  0  0
   60.1922   28.5685   45.9426 H   0  0  0  0  0  0  0  0  0  0  0  0
   61.2330   31.1380   47.0660 H   0  0  0  0  0  0  0  0  0  0  0  0
   60.0320   31.4220   48.2020 H   0  0  0  0  0  0  0  0  0  0  0  0
   59.9076   28.7347   47.9913 H   0  0  0  0  0  0  0  0  0  0  0  0
   61.6636   29.0908   47.7071 H   0  0  0  0  0  0  0  0  0  0  0  0
   59.9849   29.8620   50.1397 H   0  0  0  0  0  0  0  0  0  0  0  0
   61.3640   28.6809   50.0514 H   0  0  0  0  0  0  0  0  0  0  0  0
   61.6476   31.2308   50.9296 H   0  0  0  0  0  0  0  0  0  0  0  0
   62.9476   30.2813   50.0523 H   0  0  0  0  0  0  0  0  0  0  0  0
   64.0623   32.4152   49.1347 H   0  0  0  0  0  0  0  0  0  0  0  0
   63.7959   30.9838   48.0824 H   0  0  0  0  0  0  0  0  0  0  0  0
   64.1605   33.6054   47.1943 H   0  0  0  0  0  0  0  0  0  0  0  0
   63.3934   32.2482   46.2518 H   0  0  0  0  0  0  0  0  0  0  0  0
   62.6735   34.7628   48.6709 H   0  0  0  0  0  0  0  0  0  0  0  0
   60.9341   34.8498   48.2010 H   0  0  0  0  0  0  0  0  0  0  0  0
   61.8703   33.3847   50.3298 H   0  0  0  0  0  0  0  0  0  0  0  0
   60.3727   32.9859   49.4046 H   0  0  0  0  0  0  0  0  0  0  0  0
  1  2  1  0
  2  3  1  0
  3  4  1  0
  4  5  2  0
  4  6  1  0
  6  7  2  0
  7  8  1  0
  8  9  1  0
  8 10  2  0
 10 11  1  0
 11 12  2  0
 12 13  1  0
 13 14  1  0
 14 15  1  0
 15 16  1  0
 16 17  1  0
 17 18  1  0
 18 19  1  0
 19 20  1  0
 20 21  1  0
 21 22  1  0
 12  6  1  0
 22 17  1  0
  1 23  1  0
  1 24  1  0
  1 25  1  0
  2 26  1  0
  2 27  1  0
  3 28  1  0
  3 29  1  0
  7 30  1  0
 10 31  1  0
 11 32  1  0
 13 33  1  0
 13 34  1  0
 14 35  1  0
 14 36  1  0
 15 37  1  0
 15 38  1  0
 16 39  1  0
 16 40  1  0
 18 41  1  0
 18 42  1  0
 19 43  1  0
 19 44  1  0
 21 45  1  0
 21 46  1  0
 22 47  1  0
 22 48  1  0
M  CHG  1  13   1
M  END
>  <UniqueID>  (23) 
23

>  <SMILES>  (23) 
CCCC(=O)c1cc(Br)ccc1[NH2+]CCCN1CCOCC1

>  <Energy>  (23) 
57.787730309531185

>  <Genealogy>  (23) 
CCCC(=O)c1cc(Br)ccc1[NH2+]CCCN1CCOCC1 (protonated)
CCCC(=O)c1cc(Br)ccc1[NH2+]CCCN1CCOCC1 (3D coordinates assigned)
CCCC(=O)c1cc(Br)ccc1[NH2+]CCCN1CCOCC1 (nonaromatic ring conformer: 57.787730309531185 kcal/mol)

>  <smiles>  (23) 
CCCC(=O)c1cc(Br)ccc1NCCCN1CCOCC1

>  <score_type>  (23) 
oracle

>  <origin>  (23) 
adg

>  <m_score__min__energy>  (23) 
-5.2800000000000002

>  <m_primary>  (23) 
energy

$$$$
23:0
     RDKit          3D

 28 30  0  0  0  0  0  0  0  0999 V2000
   59.4760   33.0860   50.6620 C   0  0  0  0  0  0  0  0  0  0  0  0
   59.2810   33.4340   49.2230 C   0  0  0  0  0  0  0  0  0  0  0  0
   59.7170   34.5880   48.5980 C   0  0  0  0  0  0  0  0  0  0  0  0
   59.3760   34.4080   47.2690 C   0  0  0  0  0  0  0  0  0  0  0  0
   59.6450   35.3890   46.1690 C   0  0  0  0  0  0  0  0  0  0  0  0
   58.7820   33.2000   47.1250 N   0  0  0  0  0  0  0  0  0  0  0  0
   58.2870   32.6040   45.9170 C   0  0  0  0  0  0  0  0  0  0  0  0
   58.4710   33.1620   44.6900 N   0  0  0  0  0  0  0  0  0  0  0  0
   57.8530   32.2770   43.8890 C   0  0  0  0  0  0  0  0  0  0  0  0
   57.7170   32.3240   42.5040 C   0  0  0  0  0  0  0  0  0  0  0  0
   57.0210   31.2710   41.8810 C   0  0  0  0  0  0  0  0  0  0  0  0
   56.4850   30.2120   42.6500 C   0  0  0  0  0  0  0  0  0  0  0  0
   56.6420   30.1970   44.0500 C   0  0  0  0  0  0  0  0  0  0  0  0
   57.3360   31.2560   44.6280 C   0  0  0  0  0  0  0  0  0  0  0  0
   57.6100   31.4670   45.8870 O   0  0  0  0  0  0  0  0  0  0  0  0
   58.7330   32.6100   48.3100 N   0  0  0  0  0  0  0  0  0  0  0  0
   59.0353   33.8724   51.2924 H   0  0  0  0  0  0  0  0  0  0  0  0
   58.9846   32.1256   50.8768 H   0  0  0  0  0  0  0  0  0  0  0  0
   60.5517   33.0037   50.8768 H   0  0  0  0  0  0  0  0  0  0  0  0
   60.2208   35.4530   49.0540 H   0  0  0  0  0  0  0  0  0  0  0  0
   59.9122   36.3634   46.6039 H   0  0  0  0  0  0  0  0  0  0  0  0
   60.4763   35.0244   45.5477 H   0  0  0  0  0  0  0  0  0  0  0  0
   58.7440   35.4994   45.5477 H   0  0  0  0  0  0  0  0  0  0  0  0
   58.1383   33.1541   41.9179 H   0  0  0  0  0  0  0  0  0  0  0  0
   56.8931   31.2718   40.7885 H   0  0  0  0  0  0  0  0  0  0  0  0
   55.9422   29.3951   42.1520 H   0  0  0  0  0  0  0  0  0  0  0  0
   56.2321   29.3803   44.6623 H   0  0  0  0  0  0  0  0  0  0  0  0
   58.3420   31.6580   48.4920 H   0  0  0  0  0  0  0  0  0  0  0  0
  1  2  1  0
  2  3  1  0
  3  4  2  0
  4  5  1  0
  4  6  1  0
  6  7  1  0
  7  8  2  0
  8  9  1  0
  9 10  2  0
 10 11  1  0
 11 12  2  0
 12 13  1  0
 13 14  2  0
 14 15  1  0
  6 16  1  0
 16  2  2  0
 15  7  1  0
 14  9  1  0
  1 17  1  0
  1 18  1  0
  1 19  1  0
  3 20  1  0
  5 21  1  0
  5 22  1  0
  5 23  1  0
 10 24  1  0
 11 25  1  0
 12 26  1  0
 13 27  1  0
 16 28  1  0
M  CHG  1  16   1
M  END
>  <UniqueID>  (24) 
24

>  <SMILES>  (24) 
Cc1cc(C)n(-c2nc3ccccc3o2)[nH+]1

>  <Energy>  (24) 
96.47629501455481

>  <Genealogy>  (24) 
Cc1cc(C)n(-c2nc3ccccc3o2)[nH+]1 (protonated)
Cc1cc(C)n(-c2nc3ccccc3o2)[nH+]1 (3D coordinates assigned)
Cc1cc(C)n(-c2nc3ccccc3o2)[nH+]1 (optimized conformer: 96.47629501455481 kcal/mol)

>  <smiles>  (24) 
Cc1cc(C)n(-c2nc3ccccc3o2)n1

>  <score_type>  (24) 
oracle

>  <origin>  (24) 
adg

>  <m_score__min__energy>  (24) 
-4.71

>  <m_primary>  (24) 
energy

$$$$
24:0
     RDKit          3D

 54 58  0  0  0  0  0  0  0  0999 V2000
   56.5590   30.2150   43.8060 C   0  0  0  0  0  0  0  0  0  0  0  0
   56.6490   30.4810   45.2010 O   0  0  0  0  0  0  0  0  0  0  0  0
   57.8490   30.8960   45.7870 C   0  0  0  0  0  0  0  0  0  0  0  0
   58.2180   32.2520   45.6990 C   0  0  0  0  0  0  0  0  0  0  0  0
   57.4330   33.1570   44.9540 C   0  0  0  0  0  0  0  0  0  0  0  0
   57.7860   34.5020   44.8650 C   0  0  0  0  0  0  0  0  0  0  0  0
   58.9270   34.9670   45.5130 C   0  0  0  0  0  0  0  0  0  0  0  0
   59.7230   34.0900   46.2480 C   0  0  0  0  0  0  0  0  0  0  0  0
   59.3860   32.7200   46.3520 C   0  0  0  0  0  0  0  0  0  0  0  0
   60.1860   31.8160   47.0900 C   0  0  0  0  0  0  0  0  0  0  0  0
   61.3970   32.3070   47.7910 C   0  0  0  0  0  0  0  0  0  0  0  0
   61.3100   32.7570   49.1170 C   0  0  0  0  0  0  0  0  0  0  0  0
   62.4520   33.2200   49.7770 C   0  0  0  0  0  0  0  0  0  0  0  0
   63.6840   33.2360   49.1160 C   0  0  0  0  0  0  0  0  0  0  0  0
   63.7760   32.7890   47.7950 C   0  0  0  0  0  0  0  0  0  0  0  0
   62.6360   32.3250   47.1310 C   0  0  0  0  0  0  0  0  0  0  0  0
   59.8390   30.4420   47.1470 C   0  0  0  0  0  0  0  0  0  0  0  0
   60.6280   29.5260   47.8780 C   0  0  0  0  0  0  0  0  0  0  0  0
   60.2980   28.1760   47.9300 C   0  0  0  0  0  0  0  0  0  0  0  0
   59.1900   27.7030   47.2420 C   0  0  0  0  0  0  0  0  0  0  0  0
   58.3870   28.5720   46.4980 C   0  0  0  0  0  0  0  0  0  0  0  0
   57.2960   28.0000   45.7650 N   0  0  0  0  0  0  0  0  0  0  0  0
   57.1920   26.7360   45.4680 C   0  0  0  0  0  0  0  0  0  0  0  0
   56.4680   25.8230   46.4140 C   0  0  0  0  0  0  0  0  0  0  0  0
   55.4930   24.9250   45.6380 C   0  0  0  0  0  0  0  0  0  0  0  0
   56.1190   24.2440   44.3950 C   0  0  0  0  0  0  0  0  0  0  0  0
   57.5810   24.6430   44.1320 C   0  0  0  0  0  0  0  0  0  0  0  0
   57.7700   26.1630   44.1930 C   0  0  0  0  0  0  0  0  0  0  0  0
   58.6790   29.9670   46.4670 C   0  0  0  0  0  0  0  0  0  0  0  0
   56.2100   29.1834   43.6512 H   0  0  0  0  0  0  0  0  0  0  0  0
   55.8480   30.9158   43.3442 H   0  0  0  0  0  0  0  0  0  0  0  0
   57.5495   30.3401   43.3442 H   0  0  0  0  0  0  0  0  0  0  0  0
   56.5314   32.7965   44.4371 H   0  0  0  0  0  0  0  0  0  0  0  0
   57.1629   35.1966   44.2825 H   0  0  0  0  0  0  0  0  0  0  0  0
   59.2013   36.0301   45.4448 H   0  0  0  0  0  0  0  0  0  0  0  0
   60.6241   34.4678   46.7533 H   0  0  0  0  0  0  0  0  0  0  0  0
   60.3414   32.7455   49.6382 H   0  0  0  0  0  0  0  0  0  0  0  0
   62.3814   33.5719   50.8168 H   0  0  0  0  0  0  0  0  0  0  0  0
   64.5819   33.6008   49.6363 H   0  0  0  0  0  0  0  0  0  0  0  0
   64.7463   32.8022   47.2769 H   0  0  0  0  0  0  0  0  0  0  0  0
   62.7101   31.9740   46.0911 H   0  0  0  0  0  0  0  0  0  0  0  0
   61.5179   29.8865   48.4148 H   0  0  0  0  0  0  0  0  0  0  0  0
   60.9167   27.4819   48.5178 H   0  0  0  0  0  0  0  0  0  0  0  0
   58.9407   26.6324   47.2825 H   0  0  0  0  0  0  0  0  0  0  0  0
   57.1988   25.1942   46.9437 H   0  0  0  0  0  0  0  0  0  0  0  0
   55.9020   26.4288   47.1370 H   0  0  0  0  0  0  0  0  0  0  0  0
   55.1305   24.1394   46.3173 H   0  0  0  0  0  0  0  0  0  0  0  0
   54.6838   25.5742   45.2723 H   0  0  0  0  0  0  0  0  0  0  0  0
   56.0788   23.1544   44.5407 H   0  0  0  0  0  0  0  0  0  0  0  0
   55.5368   24.5769   43.5231 H   0  0  0  0  0  0  0  0  0  0  0  0
   58.2219   24.1726   44.8923 H   0  0  0  0  0  0  0  0  0  0  0  0
   57.8548   24.3022   43.1226 H   0  0  0  0  0  0  0  0  0  0  0  0
   58.8449   26.3927   44.1515 H   0  0  0  0  0  0  0  0  0  0  0  0
   57.2435   26.6137   43.3388 H   0  0  0  0  0  0  0  0  0  0  0  0
  1  2  1  0
  2  3  1  0
  3  4  2  0
  4  5  1  0
  5  6  2  0
  6  7  1  0
  7  8  2  0
  8  9  1  0
  9 10  2  0
 10 11  1  0
 11 12  2  0
 12 13  1  0
 13 14  2  0
 14 15  1  0
 15 16  2  0
 10 17  1  0
 17 18  2  0
 18 19  1  0
 19 20  2  0
 20 21  1  0
 21 22  1  0
 22 23  2  3
 23 24  1  0
 24 25  1  0
 25 26  1  0
 26 27  1  0
 27 28  1  0
 21 29  2  0
 29  3  1  0
  9  4  1  0
 16 11  1  0
 29 17  1  0
 28 23  1  0
  1 30  1  0
  1 31  1  0
  1 32  1  0
  5 33  1  0
  6 34  1  0
  7 35  1  0
  8 36  1  0
 12 37  1  0
 13 38  1  0
 14 39  1  0
 15 40  1  0
 16 41  1  0
 18 42  1  0
 19 43  1  0
 20 44  1  0
 24 45  1  0
 24 46  1  0
 25 47  1  0
 25 48  1  0
 26 49  1  0
 26 50  1  0
 27 51  1  0
 27 52  1  0
 28 53  1  0
 28 54  1  0
M  END
>  <UniqueID>  (25) 
25

>  <SMILES>  (25) 
COc1c2ccccc2c(-c2ccccc2)c2cccc(N=C3CCCCC3)c12

>  <Energy>  (25) 
95.48577630167372

>  <Genealogy>  (25) 
COc1c2ccccc2c(-c2ccccc2)c2cccc(N=C3CCCCC3)c12 (3D coordinates assigned)
COc1c2ccccc2c(-c2ccccc2)c2cccc(N=C3CCCCC3)c12 (nonaromatic ring conformer: 95.48577630167372 kcal/mol)

>  <smiles>  (25) 
COc1c2ccccc2c(-c2ccccc2)c2cccc(N=C3CCCCC3)c12

>  <score_type>  (25) 
oracle

>  <origin>  (25) 
adg

>  <m_score__min__energy>  (25) 
-10.210000000000001

>  <m_primary>  (25) 
energy

$$$$
25:0
     RDKit          3D

 45 47  0  0  0  0  0  0  0  0999 V2000
   60.7436   34.6518   49.9647 H   0  0  0  0  0  0  0  0  0  0  0  0
   60.9870   34.3280   48.9420 C   0  0  0  0  0  0  0  0  0  0  0  0
   60.0210   34.4170   47.9360 C   0  0  0  0  0  0  0  0  0  0  0  0
   59.0193   34.8048   48.1732 H   0  0  0  0  0  0  0  0  0  0  0  0
   60.3210   34.0140   46.6220 C   0  0  0  0  0  0  0  0  0  0  0  0
   59.2810   34.0590   45.5270 C   0  0  0  0  0  0  0  0  0  0  0  0
   59.7867   34.2304   44.5653 H   0  0  0  0  0  0  0  0  0  0  0  0
   58.5793   34.8729   45.7617 H   0  0  0  0  0  0  0  0  0  0  0  0
   58.5080   32.8070   45.4400 N   0  0  0  0  0  0  0  0  0  0  0  0
   58.1380   31.8980   46.4030 C   0  0  0  0  0  0  0  0  0  0  0  0
   58.3940   31.9690   47.6810 N   0  0  0  0  0  0  0  0  0  0  0  0
   58.9730   30.9770   48.5770 C   0  0  0  0  0  0  0  0  0  0  0  0
   58.2394   30.1794   48.7656 H   0  0  0  0  0  0  0  0  0  0  0  0
   59.2447   31.4546   49.5299 H   0  0  0  0  0  0  0  0  0  0  0  0
   60.2210   30.3800   47.9290 C   0  0  0  0  0  0  0  0  0  0  0  0
   60.6775   29.6590   48.6231 H   0  0  0  0  0  0  0  0  0  0  0  0
   60.9248   31.1950   47.7044 H   0  0  0  0  0  0  0  0  0  0  0  0
   59.8840   29.6960   46.6810 N   0  0  0  0  0  0  0  0  0  0  0  0
   59.5280   30.2440   45.8640 H   0  0  0  0  0  0  0  0  0  0  0  0
   60.0270   28.2770   46.5430 C   0  0  0  0  0  0  0  0  0  0  0  0
   60.4690   27.5850   47.4990 O   0  0  0  0  0  0  0  0  0  0  0  0
   59.6730   27.6140   45.2520 C   0  0  0  0  0  0  0  0  0  0  0  0
   59.1640   26.6606   45.4569 H   0  0  0  0  0  0  0  0  0  0  0  0
   59.0049   28.2696   44.6742 H   0  0  0  0  0  0  0  0  0  0  0  0
   60.5895   27.4235   44.6742 H   0  0  0  0  0  0  0  0  0  0  0  0
   57.4440   30.8420   45.9100 N   0  0  0  0  0  0  0  0  0  0  0  0
   57.3800   31.0960   44.5950 C   0  0  0  0  0  0  0  0  0  0  0  0
   56.7830   30.3090   43.6130 C   0  0  0  0  0  0  0  0  0  0  0  0
   56.2726   29.3691   43.8699 H   0  0  0  0  0  0  0  0  0  0  0  0
   56.8550   30.7570   42.2820 C   0  0  0  0  0  0  0  0  0  0  0  0
   56.3916   30.1642   41.4796 H   0  0  0  0  0  0  0  0  0  0  0  0
   57.5180   31.9620   41.9700 C   0  0  0  0  0  0  0  0  0  0  0  0
   57.5709   32.3013   40.9250 H   0  0  0  0  0  0  0  0  0  0  0  0
   58.1120   32.7330   42.9850 C   0  0  0  0  0  0  0  0  0  0  0  0
   58.6362   33.6715   42.7515 H   0  0  0  0  0  0  0  0  0  0  0  0
   58.0150   32.2680   44.3030 C   0  0  0  0  0  0  0  0  0  0  0  0
   61.5860   33.4690   46.3510 C   0  0  0  0  0  0  0  0  0  0  0  0
   61.8185   33.1080   45.3383 H   0  0  0  0  0  0  0  0  0  0  0  0
   62.5530   33.3810   47.3570 C   0  0  0  0  0  0  0  0  0  0  0  0
   63.5433   32.9595   47.1299 H   0  0  0  0  0  0  0  0  0  0  0  0
   62.2650   33.8280   48.6540 C   0  0  0  0  0  0  0  0  0  0  0  0
   63.2890   33.6970   49.7430 C   0  0  0  0  0  0  0  0  0  0  0  0
   62.7927   33.7605   50.7226 H   0  0  0  0  0  0  0  0  0  0  0  0
   63.7985   32.7263   49.6524 H   0  0  0  0  0  0  0  0  0  0  0  0
   64.0265   34.5081   49.6524 H   0  0  0  0  0  0  0  0  0  0  0  0
  1  2  1  0
  2  3  2  0
  3  4  1  0
  3  5  1  0
  5  6  1  0
  6  7  1  0
  6  8  1  0
  6  9  1  0
  9 10  1  0
 10 11  2  0
 11 12  1  0
 12 13  1  0
 12 14  1  0
 12 15  1  0
 15 16  1  0
 15 17  1  0
 15 18  1  0
 18 19  1  0
 18 20  1  0
 20 21  2  0
 20 22  1  0
 22 23  1  0
 22 24  1  0
 22 25  1  0
 10 26  1  0
 26 27  1  0
 27 28  2  0
 28 29  1  0
 28 30  1  0
 30 31  1  0
 30 32  2  0
 32 33  1  0
 32 34  1  0
 34 35  1  0
 34 36  2  0
  5 37  2  0
 37 38  1  0
 37 39  1  0
 39 40  1  0
 39 41  2  0
 41 42  1  0
 42 43  1  0
 42 44  1  0
 42 45  1  0
 41  2  1  0
 36  9  1  0
 36 27  1  0
M  CHG  1  26  -1
M  END
>  <UniqueID>  (26) 
26

>  <SMILES>  (26) 
CC(=O)NCC/N=c1/[n-]c2ccccc2n1Cc1ccc(C)cc1

>  <Energy>  (26) 
83.64942424671506

>  <Genealogy>  (26) 
CC(=O)NCCN=c1[n-]c2ccccc2n1Cc1ccc(C)cc1 (protonated)
CC(=O)NCC/N=c1/[n-]c2ccccc2n1Cc1ccc(C)cc1 (cis-trans isomerization)
CC(=O)NCC/N=c1/[n-]c2ccccc2n1Cc1ccc(C)cc1 (3D coordinates assigned)
CC(=O)NCC/N=c1/[n-]c2ccccc2n1Cc1ccc(C)cc1 (optimized conformer: 83.64942424671506 kcal/mol)

>  <smiles>  (26) 
CC(=O)NCCN=c1[nH]c2ccccc2n1Cc1ccc(C)cc1

>  <score_type>  (26) 
oracle

>  <origin>  (26) 
adg

>  <m_score__min__energy>  (26) 
-8.8399999999999999

>  <m_primary>  (26) 
energy

$$$$
26:0
     RDKit          3D

 47 49  0  0  0  0  0  0  0  0999 V2000
   58.5239   31.8607   43.5617 H   0  0  0  0  0  0  0  0  0  0  0  0
   58.0090   31.6220   44.5040 C   0  0  0  0  0  0  0  0  0  0  0  0
   57.1600   32.5280   45.0050 C   0  0  0  0  0  0  0  0  0  0  0  0
   56.2320   32.1616   45.4683 H   0  0  0  0  0  0  0  0  0  0  0  0
   57.3920   34.0160   44.9760 C   0  0  0  0  0  0  0  0  0  0  0  0
   57.3197   34.3702   43.9371 H   0  0  0  0  0  0  0  0  0  0  0  0
   56.6298   34.4995   45.6047 H   0  0  0  0  0  0  0  0  0  0  0  0
   58.7270   34.3600   45.5110 N   0  0  0  0  0  0  0  0  0  0  0  0
   59.2690   35.5670   44.8690 C   0  0  0  0  0  0  0  0  0  0  0  0
   59.5896   36.2809   45.6420 H   0  0  0  0  0  0  0  0  0  0  0  0
   60.1307   35.2935   44.2424 H   0  0  0  0  0  0  0  0  0  0  0  0
   58.4921   36.0294   44.2424 H   0  0  0  0  0  0  0  0  0  0  0  0
   58.8010   34.4050   46.9930 C   0  0  0  0  0  0  0  0  0  0  0  0
   59.3180   35.3313   47.2840 H   0  0  0  0  0  0  0  0  0  0  0  0
   57.7655   34.3591   47.3613 H   0  0  0  0  0  0  0  0  0  0  0  0
   59.5420   33.2250   47.6230 C   0  0  0  0  0  0  0  0  0  0  0  0
   58.7860   32.3210   48.3930 C   0  0  0  0  0  0  0  0  0  0  0  0
   57.7124   32.5074   48.5433 H   0  0  0  0  0  0  0  0  0  0  0  0
   59.3700   31.1960   48.9680 C   0  0  0  0  0  0  0  0  0  0  0  0
   58.7545   30.4995   49.5562 H   0  0  0  0  0  0  0  0  0  0  0  0
   60.7280   30.9490   48.8020 C   0  0  0  0  0  0  0  0  0  0  0  0
   61.1787   30.0483   49.2443 H   0  0  0  0  0  0  0  0  0  0  0  0
   61.5250   31.8420   48.0740 C   0  0  0  0  0  0  0  0  0  0  0  0
   62.8990   31.5900   47.9360 C   0  0  0  0  0  0  0  0  0  0  0  0
   63.3370   30.6857   48.3837 H   0  0  0  0  0  0  0  0  0  0  0  0
   63.7110   32.4790   47.2350 C   0  0  0  0  0  0  0  0  0  0  0  0
   64.7856   32.2716   47.1249 H   0  0  0  0  0  0  0  0  0  0  0  0
   63.1640   33.6290   46.6740 C   0  0  0  0  0  0  0  0  0  0  0  0
   63.8108   34.3321   46.1287 H   0  0  0  0  0  0  0  0  0  0  0  0
   61.7990   33.8960   46.7990 C   0  0  0  0  0  0  0  0  0  0  0  0
   61.3824   34.8131   46.3571 H   0  0  0  0  0  0  0  0  0  0  0  0
   60.9460   33.0030   47.4860 C   0  0  0  0  0  0  0  0  0  0  0  0
   58.2950   30.3210   45.1420 C   0  0  0  0  0  0  0  0  0  0  0  0
   59.5980   30.0080   45.5580 C   0  0  0  0  0  0  0  0  0  0  0  0
   60.4104   30.7335   45.4042 H   0  0  0  0  0  0  0  0  0  0  0  0
   59.8690   28.7810   46.1660 C   0  0  0  0  0  0  0  0  0  0  0  0
   60.8910   28.5456   46.4978 H   0  0  0  0  0  0  0  0  0  0  0  0
   58.8440   27.8530   46.3530 C   0  0  0  0  0  0  0  0  0  0  0  0
   59.0586   26.8884   46.8362 H   0  0  0  0  0  0  0  0  0  0  0  0
   57.5460   28.1460   45.9280 C   0  0  0  0  0  0  0  0  0  0  0  0
   56.7434   27.4077   46.0723 H   0  0  0  0  0  0  0  0  0  0  0  0
   57.2590   29.3830   45.3150 C   0  0  0  0  0  0  0  0  0  0  0  0
   55.9640   29.7150   44.8840 O   0  0  0  0  0  0  0  0  0  0  0  0
   55.5500   29.7490   43.5230 C   0  0  0  0  0  0  0  0  0  0  0  0
   54.4547   29.8390   43.4751 H   0  0  0  0  0  0  0  0  0  0  0  0
   56.0111   30.6123   43.0209 H   0  0  0  0  0  0  0  0  0  0  0  0
   55.8641   28.8220   43.0209 H   0  0  0  0  0  0  0  0  0  0  0  0
  1  2  1  0
  2  3  2  0
  3  4  1  0
  3  5  1  0
  5  6  1  0
  5  7  1  0
  5  8  1  0
  8  9  1  0
  9 10  1  0
  9 11  1  0
  9 12  1  0
  8 13  1  0
 13 14  1  0
 13 15  1  0
 13 16  1  0
 16 17  2  0
 17 18  1  0
 17 19  1  0
 19 20  1  0
 19 21  2  0
 21 22  1  0
 21 23  1  0
 23 24  2  0
 24 25  1  0
 24 26  1  0
 26 27  1  0
 26 28  2  0
 28 29  1  0
 28 30  1  0
 30 31  1  0
 30 32  2  0
  2 33  1  0
 33 34  2  0
 34 35  1  0
 34 36  1  0
 36 37  1  0
 36 38  2  0
 38 39  1  0
 38 40  1  0
 40 41  1  0
 40 42  2  0
 42 43  1  0
 43 44  1  0
 44 45  1  0
 44 46  1  0
 44 47  1  0
 32 16  1  0
 42 33  1  0
 32 23  1  0
M  END
>  <UniqueID>  (27) 
27

>  <SMILES>  (27) 
COc1ccccc1/C=C\CN(C)Cc1cccc2ccccc12

>  <Energy>  (27) 
63.736363883871675

>  <Genealogy>  (27) 
COc1ccccc1/C=C\CN(C)Cc1cccc2ccccc12 (cis-trans isomerization)
COc1ccccc1/C=C\CN(C)Cc1cccc2ccccc12 (3D coordinates assigned)
COc1ccccc1/C=C\CN(C)Cc1cccc2ccccc12 (optimized conformer: 63.736363883871675 kcal/mol)

>  <smiles>  (27) 
COc1ccccc1C=CCN(C)Cc1cccc2ccccc12

>  <score_type>  (27) 
oracle

>  <origin>  (27) 
adg

>  <m_score__min__energy>  (27) 
-8.0399999999999991

>  <m_primary>  (27) 
energy

$$$$
27:0
     RDKit          3D

 42 44  0  0  0  0  0  0  0  0999 V2000
   61.7130   29.6375   48.0923 H   0  0  0  0  0  0  0  0  0  0  0  0
   61.6110   30.6840   47.7690 C   0  0  0  0  0  0  0  0  0  0  0  0
   62.6730   31.5680   47.9620 C   0  0  0  0  0  0  0  0  0  0  0  0
   63.5854   31.2220   48.4698 H   0  0  0  0  0  0  0  0  0  0  0  0
   62.5870   32.8910   47.5150 C   0  0  0  0  0  0  0  0  0  0  0  0
   63.7260   33.8470   47.7460 C   0  0  0  0  0  0  0  0  0  0  0  0
   63.3245   34.8637   47.8689 H   0  0  0  0  0  0  0  0  0  0  0  0
   64.4031   33.8056   46.8801 H   0  0  0  0  0  0  0  0  0  0  0  0
   64.5080   33.4630   48.9980 C   0  0  0  0  0  0  0  0  0  0  0  0
   63.9319   33.7459   49.8913 H   0  0  0  0  0  0  0  0  0  0  0  0
   64.6822   32.3769   49.0028 H   0  0  0  0  0  0  0  0  0  0  0  0
   65.4739   33.9893   49.0028 H   0  0  0  0  0  0  0  0  0  0  0  0
   61.4200   33.3210   46.8740 C   0  0  0  0  0  0  0  0  0  0  0  0
   61.3494   34.3564   46.5095 H   0  0  0  0  0  0  0  0  0  0  0  0
   60.3380   32.4450   46.6910 C   0  0  0  0  0  0  0  0  0  0  0  0
   60.4040   31.1110   47.1640 C   0  0  0  0  0  0  0  0  0  0  0  0
   59.2450   30.1670   46.9290 C   0  0  0  0  0  0  0  0  0  0  0  0
   59.2050   28.9560   47.6310 C   0  0  0  0  0  0  0  0  0  0  0  0
   59.8797   28.8843   48.4968 H   0  0  0  0  0  0  0  0  0  0  0  0
   58.4280   27.8350   47.3800 C   0  0  0  0  0  0  0  0  0  0  0  0
   58.3838   27.0896   48.1877 H   0  0  0  0  0  0  0  0  0  0  0  0
   57.6970   27.5350   46.2340 C   0  0  0  0  0  0  0  0  0  0  0  0
   57.3570   26.2780   46.1080 N   0  0  0  0  0  0  0  0  0  0  0  0
   57.4000   25.4490   44.9040 C   0  0  0  0  0  0  0  0  0  0  0  0
   57.4550   24.3885   45.1908 H   0  0  0  0  0  0  0  0  0  0  0  0
   56.4917   25.6210   44.3078 H   0  0  0  0  0  0  0  0  0  0  0  0
   58.2856   25.7140   44.3078 H   0  0  0  0  0  0  0  0  0  0  0  0
   57.3000   28.4780   45.2660 C   0  0  0  0  0  0  0  0  0  0  0  0
   56.9370   28.0613   44.3149 H   0  0  0  0  0  0  0  0  0  0  0  0
   57.3060   29.8830   45.3540 C   0  0  0  0  0  0  0  0  0  0  0  0
   56.4560   30.6150   44.4960 O   0  0  0  0  0  0  0  0  0  0  0  0
   56.6330   30.8120   43.0950 C   0  0  0  0  0  0  0  0  0  0  0  0
   57.3596   31.6207   42.9274 H   0  0  0  0  0  0  0  0  0  0  0  0
   57.0061   29.8834   42.6384 H   0  0  0  0  0  0  0  0  0  0  0  0
   55.6699   31.0839   42.6384 H   0  0  0  0  0  0  0  0  0  0  0  0
   58.1370   30.6520   46.2010 C   0  0  0  0  0  0  0  0  0  0  0  0
   57.9040   32.1510   46.2900 C   0  0  0  0  0  0  0  0  0  0  0  0
   57.6375   32.4146   47.3242 H   0  0  0  0  0  0  0  0  0  0  0  0
   57.0877   32.4242   45.6052 H   0  0  0  0  0  0  0  0  0  0  0  0
   59.1580   32.9130   45.8870 C   0  0  0  0  0  0  0  0  0  0  0  0
   59.0018   33.9873   46.0646 H   0  0  0  0  0  0  0  0  0  0  0  0
   59.3585   32.7307   44.8209 H   0  0  0  0  0  0  0  0  0  0  0  0
  1  2  1  0
  2  3  2  0
  3  4  1  0
  3  5  1  0
  5  6  1  0
  6  7  1  0
  6  8  1  0
  6  9  1  0
  9 10  1  0
  9 11  1  0
  9 12  1  0
  5 13  2  0
 13 14  1  0
 13 15  1  0
 15 16  2  0
 16 17  1  0
 17 18  1  0
 18 19  1  0
 18 20  2  0
 20 21  1  0
 20 22  1  0
 22 23  2  0
 23 24  1  0
 24 25  1  0
 24 26  1  0
 24 27  1  0
 22 28  1  0
 28 29  1  0
 28 30  2  0
 30 31  1  0
 31 32  1  0
 32 33  1  0
 32 34  1  0
 32 35  1  0
 30 36  1  0
 36 37  1  0
 37 38  1  0
 37 39  1  0
 37 40  1  0
 40 41  1  0
 40 42  1  0
 16  2  1  0
 36 17  2  0
 40 15  1  0
M  END
>  <UniqueID>  (28) 
28

>  <SMILES>  (28) 
CCc1ccc2c(c1)CCc1c(OC)c/c(=N\C)ccc1-2

>  <Energy>  (28) 
84.21823920454872

>  <Genealogy>  (28) 
CCc1ccc2c(c1)CCc1c(OC)c/c(=N\C)ccc1-2 (cis-trans isomerization)
CCc1ccc2c(c1)CCc1c(OC)c/c(=N\C)ccc1-2 (3D coordinates assigned)
CCc1ccc2c(c1)CCc1c(OC)c/c(=N\C)ccc1-2 (nonaromatic ring conformer: 84.21823920454872 kcal/mol)

>  <smiles>  (28) 
CCc1ccc2c(c1)CCc1c(OC)cc(=NC)ccc1-2

>  <score_type>  (28) 
oracle

>  <origin>  (28) 
adg

>  <m_score__min__energy>  (28) 
-6.9000000000000004

>  <m_primary>  (28) 
energy

$$$$
28:0
     RDKit          3D

 51 54  0  0  0  0  0  0  0  0999 V2000
   57.2160   32.6200   40.6310 C   0  0  0  0  0  0  0  0  0  0  0  0
   58.4410   32.4600   41.5240 C   0  0  0  0  0  0  0  0  0  0  0  0
   58.1430   31.5540   42.6430 N   0  0  0  0  0  0  0  0  0  0  0  0
   56.7170   31.1740   42.7110 C   0  0  0  0  0  0  0  0  0  0  0  0
   56.4550   29.9670   43.6350 C   0  0  0  0  0  0  0  0  0  0  0  0
   57.4890   29.8250   44.7730 C   0  0  1  0  0  0  0  0  0  0  0  0
   58.8280   29.5480   44.2500 N   0  0  0  0  0  0  0  0  0  0  0  0
   59.9400   29.2180   45.1000 C   0  0  0  0  0  0  0  0  0  0  0  0
   61.0520   28.9640   44.5660 O   0  0  0  0  0  0  0  0  0  0  0  0
   59.8110   29.1150   46.5790 C   0  0  0  0  0  0  0  0  0  0  0  0
   60.5250   28.0990   47.2400 C   0  0  0  0  0  0  0  0  0  0  0  0
   60.4220   27.9390   48.6230 C   0  0  0  0  0  0  0  0  0  0  0  0
   59.6000   28.7830   49.3650 C   0  0  0  0  0  0  0  0  0  0  0  0
   58.8980   29.8090   48.7310 C   0  0  0  0  0  0  0  0  0  0  0  0
   59.0170   30.0100   47.3460 C   0  0  0  0  0  0  0  0  0  0  0  0
   58.3240   31.1140   46.7340 N   0  0  0  0  0  0  0  0  0  0  0  0
   58.3400   32.4180   47.0870 C   0  0  0  0  0  0  0  0  0  0  0  0
   59.2250   33.0400   48.1350 C   0  0  0  0  0  0  0  0  0  0  0  0
   60.6720   32.9690   47.7200 C   0  0  0  0  0  0  0  0  0  0  0  0
   61.5010   31.9360   48.1880 C   0  0  0  0  0  0  0  0  0  0  0  0
   62.8320   31.8530   47.7650 C   0  0  0  0  0  0  0  0  0  0  0  0
   63.3460   32.8030   46.8800 C   0  0  0  0  0  0  0  0  0  0  0  0
   62.5320   33.8400   46.4170 C   0  0  0  0  0  0  0  0  0  0  0  0
   61.2000   33.9260   46.8350 C   0  0  0  0  0  0  0  0  0  0  0  0
   57.5960   33.1220   46.1640 C   0  0  0  0  0  0  0  0  0  0  0  0
   57.1280   32.2780   45.2250 N   0  0  0  0  0  0  0  0  0  0  0  0
   57.5800   31.0640   45.6110 C   0  0  0  0  0  0  0  0  0  0  0  0
   56.3189   32.7372   41.2567 H   0  0  0  0  0  0  0  0  0  0  0  0
   57.3389   33.5097   39.9959 H   0  0  0  0  0  0  0  0  0  0  0  0
   57.1062   31.7286   39.9959 H   0  0  0  0  0  0  0  0  0  0  0  0
   59.2698   32.0447   40.9318 H   0  0  0  0  0  0  0  0  0  0  0  0
   58.7212   33.4447   41.9263 H   0  0  0  0  0  0  0  0  0  0  0  0
   58.4540   31.9990   43.5390 H   0  0  0  0  0  0  0  0  0  0  0  0
   56.1433   32.0338   43.0873 H   0  0  0  0  0  0  0  0  0  0  0  0
   56.4066   30.8834   41.6965 H   0  0  0  0  0  0  0  0  0  0  0  0
   55.4574   30.0824   44.0838 H   0  0  0  0  0  0  0  0  0  0  0  0
   56.5317   29.0622   43.0141 H   0  0  0  0  0  0  0  0  0  0  0  0
   57.1368   28.9847   45.3893 H   0  0  0  0  0  0  0  0  0  0  0  0
   59.0090   29.6240   43.2230 H   0  0  0  0  0  0  0  0  0  0  0  0
   61.1715   27.4233   46.6608 H   0  0  0  0  0  0  0  0  0  0  0  0
   60.9914   27.1445   49.1275 H   0  0  0  0  0  0  0  0  0  0  0  0
   59.5039   28.6410   50.4516 H   0  0  0  0  0  0  0  0  0  0  0  0
   58.2445   30.4673   49.3222 H   0  0  0  0  0  0  0  0  0  0  0  0
   58.9393   34.0936   48.2700 H   0  0  0  0  0  0  0  0  0  0  0  0
   59.0997   32.4870   49.0776 H   0  0  0  0  0  0  0  0  0  0  0  0
   61.1019   31.1891   48.8901 H   0  0  0  0  0  0  0  0  0  0  0  0
   63.4745   31.0382   48.1301 H   0  0  0  0  0  0  0  0  0  0  0  0
   64.3922   32.7349   46.5472 H   0  0  0  0  0  0  0  0  0  0  0  0
   62.9393   34.5898   45.7228 H   0  0  0  0  0  0  0  0  0  0  0  0
   60.5630   34.7452   46.4701 H   0  0  0  0  0  0  0  0  0  0  0  0
   57.4129   34.2063   46.1906 H   0  0  0  0  0  0  0  0  0  0  0  0
  1  2  1  0
  2  3  1  0
  3  4  1  0
  4  5  1  0
  5  6  1  0
  6  7  1  0
  7  8  1  0
  8  9  2  0
  8 10  1  0
 10 11  2  0
 11 12  1  0
 12 13  2  0
 13 14  1  0
 14 15  2  0
 15 16  1  0
 16 17  1  0
 17 18  1  0
 18 19  1  0
 19 20  2  0
 20 21  1  0
 21 22  2  0
 22 23  1  0
 23 24  2  0
 17 25  2  0
 25 26  1  0
 26 27  2  0
 27  6  1  0
 15 10  1  0
 27 16  1  0
 24 19  1  0
  1 28  1  0
  1 29  1  0
  1 30  1  0
  2 31  1  0
  2 32  1  0
  3 33  1  0
  4 34  1  0
  4 35  1  0
  5 36  1  0
  5 37  1  0
  6 38  1  1
  7 39  1  0
 11 40  1  0
 12 41  1  0
 13 42  1  0
 14 43  1  0
 18 44  1  0
 18 45  1  0
 20 46  1  0
 21 47  1  0
 22 48  1  0
 23 49  1  0
 24 50  1  0
 25 51  1  0
M  END
>  <UniqueID>  (29) 
29

>  <SMILES>  (29) 
CCNCC[C@H]1NC(=O)c2ccccc2-n2c(Cc3ccccc3)cnc21

>  <Energy>  (29) 
91.44733815580011

>  <Genealogy>  (29) 
CCNCC[C@H]1NC(=O)c2ccccc2-n2c(Cc3ccccc3)cnc21 (chirality)
CCNCC[C@H]1NC(=O)c2ccccc2-n2c(Cc3ccccc3)cnc21 (3D coordinates assigned)
CCNCC[C@H]1NC(=O)c2ccccc2-n2c(Cc3ccccc3)cnc21 (nonaromatic ring conformer: 91.44733815580011 kcal/mol)

>  <smiles>  (29) 
CCNCCC1NC(=O)c2ccccc2-n2c(Cc3ccccc3)cnc21

>  <score_type>  (29) 
oracle

>  <origin>  (29) 
adg

>  <m_score__min__energy>  (29) 
-8.9100000000000001

>  <m_primary>  (29) 
energy

$$$$
29:0
     RDKit          3D

 65 69  0  0  0  0  0  0  0  0999 V2000
   59.9170   28.6890   45.4070 C   0  0  0  0  0  0  0  0  0  0  0  0
   59.0550   28.4410   44.1740 C   0  0  0  0  0  0  0  0  0  0  0  0
   57.6500   28.1960   44.5630 N   0  0  0  0  0  0  0  0  0  0  0  0
   57.4960   27.8750   45.9980 C   0  0  0  0  0  0  0  0  0  0  0  0
   56.8430   26.5120   46.2690 C   0  0  0  0  0  0  0  0  0  0  0  0
   56.5830   29.4960   44.0640 S   0  0  0  0  0  0  0  0  0  0  0  0
   55.3160   29.4770   44.8730 O   0  0  0  0  0  0  0  0  0  0  0  0
   56.2230   29.3420   42.6110 O   0  0  0  0  0  0  0  0  0  0  0  0
   57.3980   31.0430   44.2620 C   0  0  0  0  0  0  0  0  0  0  0  0
   57.5880   31.8710   43.1490 C   0  0  0  0  0  0  0  0  0  0  0  0
   58.2560   33.0890   43.2860 C   0  0  0  0  0  0  0  0  0  0  0  0
   58.7390   33.4890   44.5340 C   0  0  0  0  0  0  0  0  0  0  0  0
   58.5540   32.6710   45.6630 C   0  0  0  0  0  0  0  0  0  0  0  0
   59.0710   33.0630   46.9490 N   0  0  0  0  0  0  0  0  0  0  0  0
   58.5170   32.7940   48.1530 C   0  0  0  0  0  0  0  0  0  0  0  0
   59.3350   33.3250   49.1260 C   0  0  0  0  0  0  0  0  0  0  0  0
   59.1260   33.2370   50.4970 O   0  0  0  0  0  0  0  0  0  0  0  0
   60.3860   33.9410   48.5500 N   0  0  0  0  0  0  0  0  0  0  0  0
   61.5280   34.5660   49.2170 C   0  0  0  0  0  0  0  0  0  0  0  0
   62.4590   33.5060   49.7350 C   0  0  0  0  0  0  0  0  0  0  0  0
   62.4520   33.1540   51.0940 C   0  0  0  0  0  0  0  0  0  0  0  0
   63.3590   32.2090   51.5830 C   0  0  0  0  0  0  0  0  0  0  0  0
   64.2990   31.6200   50.7240 C   0  0  0  0  0  0  0  0  0  0  0  0
   65.2720   30.6340   51.2470 C   0  0  0  0  0  0  0  0  0  0  0  0
   64.8060   29.3510   51.5820 C   0  0  0  0  0  0  0  0  0  0  0  0
   65.6950   28.3540   51.9860 C   0  0  0  0  0  0  0  0  0  0  0  0
   67.0600   28.6230   52.0550 C   0  0  0  0  0  0  0  0  0  0  0  0
   67.5410   29.8940   51.7400 C   0  0  0  0  0  0  0  0  0  0  0  0
   66.6600   30.9190   51.3520 C   0  0  0  0  0  0  0  0  0  0  0  0
   67.2200   32.2680   51.1020 C   0  0  0  0  0  0  0  0  0  0  0  0
   67.6210   33.1140   52.0690 N   0  0  0  0  0  0  0  0  0  0  0  0
   67.9980   34.2130   51.4310 N   0  0  0  0  0  0  0  0  0  0  0  0
   67.8270   34.0590   50.1270 N   0  0  0  0  0  0  0  0  0  0  0  0
   67.3390   32.8530   49.8980 N   0  0  0  0  0  0  0  0  0  0  0  0
   64.3020   31.9680   49.3630 C   0  0  0  0  0  0  0  0  0  0  0  0
   63.3930   32.9080   48.8740 C   0  0  0  0  0  0  0  0  0  0  0  0
   60.2010   33.7560   47.2260 C   0  0  0  0  0  0  0  0  0  0  0  0
   60.9870   34.2040   46.3470 O   0  0  0  0  0  0  0  0  0  0  0  0
   57.8820   31.4450   45.5150 C   0  0  0  0  0  0  0  0  0  0  0  0
   59.3183   28.5168   46.3136 H   0  0  0  0  0  0  0  0  0  0  0  0
   60.7756   28.0014   45.3985 H   0  0  0  0  0  0  0  0  0  0  0  0
   60.2789   29.7277   45.3985 H   0  0  0  0  0  0  0  0  0  0  0  0
   59.1001   29.3228   43.5179 H   0  0  0  0  0  0  0  0  0  0  0  0
   59.4369   27.5546   43.6463 H   0  0  0  0  0  0  0  0  0  0  0  0
   58.4935   27.8785   46.4617 H   0  0  0  0  0  0  0  0  0  0  0  0
   56.8270   28.6374   46.4235 H   0  0  0  0  0  0  0  0  0  0  0  0
   56.7661   26.3516   47.3545 H   0  0  0  0  0  0  0  0  0  0  0  0
   55.8375   26.4920   45.8233 H   0  0  0  0  0  0  0  0  0  0  0  0
   57.4575   25.7159   45.8233 H   0  0  0  0  0  0  0  0  0  0  0  0
   57.2098   31.5608   42.1638 H   0  0  0  0  0  0  0  0  0  0  0  0
   58.4025   33.7358   42.4084 H   0  0  0  0  0  0  0  0  0  0  0  0
   59.2669   34.4488   44.6344 H   0  0  0  0  0  0  0  0  0  0  0  0
   57.5782   32.2473   48.3252 H   0  0  0  0  0  0  0  0  0  0  0  0
   62.0648   35.2046   48.5000 H   0  0  0  0  0  0  0  0  0  0  0  0
   61.1675   35.1751   50.0590 H   0  0  0  0  0  0  0  0  0  0  0  0
   61.7294   33.6239   51.7774 H   0  0  0  0  0  0  0  0  0  0  0  0
   63.3355   31.9261   52.6457 H   0  0  0  0  0  0  0  0  0  0  0  0
   63.7298   29.1305   51.5252 H   0  0  0  0  0  0  0  0  0  0  0  0
   65.3176   27.3551   52.2501 H   0  0  0  0  0  0  0  0  0  0  0  0
   67.7605   27.8311   52.3587 H   0  0  0  0  0  0  0  0  0  0  0  0
   68.6208   30.0965   51.7957 H   0  0  0  0  0  0  0  0  0  0  0  0
   67.0700   32.4830   48.9610 H   0  0  0  0  0  0  0  0  0  0  0  0
   65.0240   31.4976   48.6793 H   0  0  0  0  0  0  0  0  0  0  0  0
   63.4086   33.1815   47.8087 H   0  0  0  0  0  0  0  0  0  0  0  0
   57.7346   30.7952   46.3902 H   0  0  0  0  0  0  0  0  0  0  0  0
  1  2  1  0
  2  3  1  0
  3  4  1  0
  4  5  1  0
  3  6  1  0
  6  7  2  0
  6  8  2  0
  6  9  1  0
  9 10  2  0
 10 11  1  0
 11 12  2  0
 12 13  1  0
 13 14  1  0
 14 15  1  0
 15 16  2  0
 16 17  1  0
 16 18  1  0
 18 19  1  0
 19 20  1  0
 20 21  2  0
 21 22  1  0
 22 23  2  0
 23 24  1  0
 24 25  2  0
 25 26  1  0
 26 27  2  0
 27 28  1  0
 28 29  2  0
 29 30  1  0
 30 31  2  0
 31 32  1  0
 32 33  1  0
 33 34  2  0
 23 35  1  0
 35 36  2  0
 18 37  1  0
 37 38  2  0
 13 39  2  0
 39  9  1  0
 37 14  1  0
 36 20  1  0
 29 24  1  0
 34 30  1  0
  1 40  1  0
  1 41  1  0
  1 42  1  0
  2 43  1  0
  2 44  1  0
  4 45  1  0
  4 46  1  0
  5 47  1  0
  5 48  1  0
  5 49  1  0
 10 50  1  0
 11 51  1  0
 12 52  1  0
 15 53  1  0
 19 54  1  0
 19 55  1  0
 21 56  1  0
 22 57  1  0
 25 58  1  0
 26 59  1  0
 27 60  1  0
 28 61  1  0
 34 62  1  0
 35 63  1  0
 36 64  1  0
 39 65  1  0
M  CHG  3  17  -1  32  -1  34   1
M  END
>  <UniqueID>  (30) 
30

>  <SMILES>  (30) 
CCN(CC)S(=O)(=O)c1cccc(-n2cc([O-])n(Cc3ccc(-c4ccccc4-c4n[n-]n[nH+]4)cc3)c2=O)c1

>  <Energy>  (30) 
157.76674057490945

>  <Genealogy>  (30) 
CCN(CC)S(=O)(=O)c1cccc(-n2cc([O-])n(Cc3ccc(-c4ccccc4-c4n[n-]n[nH+]4)cc3)c2=O)c1 (protonated)
CCN(CC)S(=O)(=O)c1cccc(-n2cc([O-])n(Cc3ccc(-c4ccccc4-c4n[n-]n[nH+]4)cc3)c2=O)c1 (3D coordinates assigned)
CCN(CC)S(=O)(=O)c1cccc(-n2cc([O-])n(Cc3ccc(-c4ccccc4-c4n[n-]n[nH+]4)cc3)c2=O)c1 (optimized conformer: 157.76674057490945 kcal/mol)

>  <smiles>  (30) 
CCN(CC)S(=O)(=O)c1cccc(-n2cc(O)n(Cc3ccc(-c4ccccc4-c4nn[nH]n4)cc3)c2=O)c1

>  <score_type>  (30) 
oracle

>  <origin>  (30) 
adg

>  <m_score__min__energy>  (30) 
-12.17

>  <m_primary>  (30) 
energy

$$$$
30:0
     RDKit          3D

 34 35  0  0  0  0  0  0  0  0999 V2000
   56.7230   30.2100   43.3240 C   0  0  0  0  0  0  0  0  0  0  0  0
   56.5080   30.8990   44.5520 O   0  0  0  0  0  0  0  0  0  0  0  0
   57.3660   31.8800   45.0710 C   0  0  0  0  0  0  0  0  0  0  0  0
   57.4700   33.1650   44.5050 C   0  0  0  0  0  0  0  0  0  0  0  0
   58.3370   34.1110   45.0590 C   0  0  0  0  0  0  0  0  0  0  0  0
   59.1170   33.7880   46.1790 C   0  0  0  0  0  0  0  0  0  0  0  0
   60.0200   34.8260   46.7990 C   0  0  0  0  0  0  0  0  0  0  0  0
   61.1020   34.2170   47.5880 N   0  0  0  0  0  0  0  0  0  0  0  0
   61.9950   33.3500   46.7890 C   0  0  0  0  0  0  0  0  0  0  0  0
   62.2060   31.9780   47.4410 C   0  0  0  0  0  0  0  0  0  0  0  0
   63.4600   32.0940   48.3060 C   0  0  0  0  0  0  0  0  0  0  0  0
   64.1160   33.4280   47.9620 C   0  0  0  0  0  0  0  0  0  0  0  0
   63.3860   33.9650   46.7410 C   0  0  0  0  0  0  0  0  0  0  0  0
   59.0120   32.5090   46.7450 C   0  0  0  0  0  0  0  0  0  0  0  0
   58.1430   31.5620   46.1930 C   0  0  0  0  0  0  0  0  0  0  0  0
   58.0530   30.3300   46.7520 F   0  0  0  0  0  0  0  0  0  0  0  0
   57.0447   29.1791   43.5334 H   0  0  0  0  0  0  0  0  0  0  0  0
   55.7878   30.1918   42.7451 H   0  0  0  0  0  0  0  0  0  0  0  0
   57.5026   30.7269   42.7451 H   0  0  0  0  0  0  0  0  0  0  0  0
   56.8664   33.4255   43.6231 H   0  0  0  0  0  0  0  0  0  0  0  0
   58.4080   35.1145   44.6141 H   0  0  0  0  0  0  0  0  0  0  0  0
   60.4644   35.4341   45.9973 H   0  0  0  0  0  0  0  0  0  0  0  0
   59.4119   35.4429   47.4770 H   0  0  0  0  0  0  0  0  0  0  0  0
   60.7080   33.7120   48.4170 H   0  0  0  0  0  0  0  0  0  0  0  0
   61.5213   33.2487   45.8014 H   0  0  0  0  0  0  0  0  0  0  0  0
   61.3380   31.7163   48.0640 H   0  0  0  0  0  0  0  0  0  0  0  0
   62.3197   31.1909   46.6810 H   0  0  0  0  0  0  0  0  0  0  0  0
   63.1877   32.0703   49.3715 H   0  0  0  0  0  0  0  0  0  0  0  0
   64.1478   31.2570   48.1153 H   0  0  0  0  0  0  0  0  0  0  0  0
   64.0158   34.1291   48.8037 H   0  0  0  0  0  0  0  0  0  0  0  0
   65.1902   33.3032   47.7607 H   0  0  0  0  0  0  0  0  0  0  0  0
   63.3219   35.0623   46.7844 H   0  0  0  0  0  0  0  0  0  0  0  0
   63.9111   33.7088   45.8090 H   0  0  0  0  0  0  0  0  0  0  0  0
   59.6158   32.2494   47.6271 H   0  0  0  0  0  0  0  0  0  0  0  0
  1  2  1  0
  2  3  1  0
  3  4  2  0
  4  5  1  0
  5  6  2  0
  6  7  1  0
  7  8  1  0
  8  9  1  0
  9 10  1  0
 10 11  1  0
 11 12  1  0
 12 13  1  0
  6 14  1  0
 14 15  2  0
 15 16  1  0
 15  3  1  0
 13  9  1  0
  1 17  1  0
  1 18  1  0
  1 19  1  0
  4 20  1  0
  5 21  1  0
  7 22  1  0
  7 23  1  0
  8 24  1  0
  9 25  1  0
 10 26  1  0
 10 27  1  0
 11 28  1  0
 11 29  1  0
 12 30  1  0
 12 31  1  0
 13 32  1  0
 13 33  1  0
 14 34  1  0
M  END
>  <UniqueID>  (31) 
31

>  <SMILES>  (31) 
COc1ccc(CNC2CCCC2)cc1F

>  <Energy>  (31) 
33.88562406908582

>  <Genealogy>  (31) 
COc1ccc(CNC2CCCC2)cc1F (3D coordinates assigned)
COc1ccc(CNC2CCCC2)cc1F (nonaromatic ring conformer: 33.88562406908582 kcal/mol)

>  <smiles>  (31) 
COc1ccc(CNC2CCCC2)cc1F

>  <score_type>  (31) 
oracle

>  <origin>  (31) 
adg

>  <m_score__min__energy>  (31) 
-6.0499999999999998

>  <m_primary>  (31) 
energy

$$$$
31:0
     RDKit          3D

 49 52  0  0  0  0  0  0  0  0999 V2000
   54.3700   25.0330   45.6210 C   0  0  0  0  0  0  0  0  0  0  0  0
   54.9790   26.2680   45.9870 O   0  0  0  0  0  0  0  0  0  0  0  0
   56.3590   26.4490   46.1650 C   0  0  0  0  0  0  0  0  0  0  0  0
   57.0960   25.7270   47.1230 C   0  0  0  0  0  0  0  0  0  0  0  0
   58.4700   25.9400   47.2560 C   0  0  0  0  0  0  0  0  0  0  0  0
   59.1180   26.8720   46.4450 C   0  0  0  0  0  0  0  0  0  0  0  0
   58.3970   27.6120   45.4890 C   0  0  0  0  0  0  0  0  0  0  0  0
   59.0920   28.6080   44.5730 C   0  0  2  0  0  0  0  0  0  0  0  0
   60.4680   28.9960   45.1320 C   0  0  0  0  0  0  0  0  0  0  0  0
   60.3400   30.0890   46.1380 C   0  0  0  0  0  0  0  0  0  0  0  0
   61.0610   30.0810   47.1720 O   0  0  0  0  0  0  0  0  0  0  0  0
   59.4570   31.1880   45.8690 N   0  0  0  0  0  0  0  0  0  0  0  0
   60.0110   32.5370   46.0820 C   0  0  0  0  0  0  0  0  0  0  0  0
   58.9810   33.5860   46.1430 N   0  0  0  0  0  0  0  0  0  0  0  0
   58.3730   33.8500   47.4680 C   0  0  0  0  0  0  0  0  0  0  0  0
   59.1260   33.2510   48.6360 C   0  0  0  0  0  0  0  0  0  0  0  0
   60.2190   33.9310   49.2010 C   0  0  0  0  0  0  0  0  0  0  0  0
   60.9260   33.3720   50.2700 C   0  0  0  0  0  0  0  0  0  0  0  0
   60.5650   32.1180   50.7680 C   0  0  0  0  0  0  0  0  0  0  0  0
   59.5000   31.4180   50.1940 C   0  0  0  0  0  0  0  0  0  0  0  0
   58.7880   31.9770   49.1280 C   0  0  0  0  0  0  0  0  0  0  0  0
   58.0920   33.6350   44.9750 C   0  0  0  0  0  0  0  0  0  0  0  0
   57.0060   32.1900   44.9050 S   0  0  0  0  0  0  0  0  0  0  0  0
   58.3390   30.9740   44.9740 C   0  0  0  0  0  0  0  0  0  0  0  0
   58.2010   29.8070   44.2980 C   0  0  0  0  0  0  0  0  0  0  0  0
   57.0840   29.5980   43.4030 C   0  0  0  0  0  0  0  0  0  0  0  0
   56.1890   29.4310   42.6890 N   0  0  0  0  0  0  0  0  0  0  0  0
   57.0160   27.3810   45.3540 C   0  0  0  0  0  0  0  0  0  0  0  0
   54.0955   24.4762   46.5291 H   0  0  0  0  0  0  0  0  0  0  0  0
   53.4667   25.2319   45.0257 H   0  0  0  0  0  0  0  0  0  0  0  0
   55.0777   24.4374   45.0257 H   0  0  0  0  0  0  0  0  0  0  0  0
   56.5890   24.9940   47.7677 H   0  0  0  0  0  0  0  0  0  0  0  0
   59.0431   25.3709   48.0028 H   0  0  0  0  0  0  0  0  0  0  0  0
   60.2012   27.0299   46.5535 H   0  0  0  0  0  0  0  0  0  0  0  0
   59.2742   28.1281   43.6001 H   0  0  0  0  0  0  0  0  0  0  0  0
   60.9242   28.1168   45.6104 H   0  0  0  0  0  0  0  0  0  0  0  0
   61.0987   29.3505   44.3035 H   0  0  0  0  0  0  0  0  0  0  0  0
   60.5687   32.5397   47.0301 H   0  0  0  0  0  0  0  0  0  0  0  0
   60.6566   32.7639   45.2208 H   0  0  0  0  0  0  0  0  0  0  0  0
   58.3250   34.9394   47.6128 H   0  0  0  0  0  0  0  0  0  0  0  0
   57.3820   33.3727   47.4575 H   0  0  0  0  0  0  0  0  0  0  0  0
   60.5202   34.9097   48.7993 H   0  0  0  0  0  0  0  0  0  0  0  0
   61.7672   33.9203   50.7192 H   0  0  0  0  0  0  0  0  0  0  0  0
   61.1189   31.6812   51.6121 H   0  0  0  0  0  0  0  0  0  0  0  0
   59.2217   30.4267   50.5810 H   0  0  0  0  0  0  0  0  0  0  0  0
   57.9585   31.4171   48.6714 H   0  0  0  0  0  0  0  0  0  0  0  0
   57.4744   34.5434   45.0341 H   0  0  0  0  0  0  0  0  0  0  0  0
   58.7147   33.6421   44.0682 H   0  0  0  0  0  0  0  0  0  0  0  0
   56.4441   27.9413   44.5997 H   0  0  0  0  0  0  0  0  0  0  0  0
  1  2  1  0
  2  3  1  0
  3  4  2  0
  4  5  1  0
  5  6  2  0
  6  7  1  0
  7  8  1  0
  8  9  1  0
  9 10  1  0
 10 11  2  0
 10 12  1  0
 12 13  1  0
 13 14  1  0
 14 15  1  0
 15 16  1  0
 16 17  2  0
 17 18  1  0
 18 19  2  0
 19 20  1  0
 20 21  2  0
 14 22  1  0
 22 23  1  0
 23 24  1  0
 24 25  2  0
 25 26  1  0
 26 27  3  0
  7 28  2  0
 28  3  1  0
 25  8  1  0
 24 12  1  0
 21 16  1  0
  1 29  1  0
  1 30  1  0
  1 31  1  0
  4 32  1  0
  5 33  1  0
  6 34  1  0
  8 35  1  6
  9 36  1  0
  9 37  1  0
 13 38  1  0
 13 39  1  0
 15 40  1  0
 15 41  1  0
 17 42  1  0
 18 43  1  0
 19 44  1  0
 20 45  1  0
 21 46  1  0
 22 47  1  0
 22 48  1  0
 28 49  1  0
M  END
>  <UniqueID>  (32) 
32

>  <SMILES>  (32) 
COc1cccc([C@@H]2CC(=O)N3CN(Cc4ccccc4)CSC3=C2C#N)c1

>  <Energy>  (32) 
71.3017113489884

>  <Genealogy>  (32) 
COc1cccc([C@@H]2CC(=O)N3CN(Cc4ccccc4)CSC3=C2C#N)c1 (chirality)
COc1cccc([C@@H]2CC(=O)N3CN(Cc4ccccc4)CSC3=C2C#N)c1 (3D coordinates assigned)
COc1cccc([C@@H]2CC(=O)N3CN(Cc4ccccc4)CSC3=C2C#N)c1 (nonaromatic ring conformer: 71.3017113489884 kcal/mol)

>  <smiles>  (32) 
COc1cccc(C2CC(=O)N3CN(Cc4ccccc4)CSC3=C2C#N)c1

>  <score_type>  (32) 
oracle

>  <origin>  (32) 
adg

>  <m_score__min__energy>  (32) 
-8.8100000000000005

>  <m_primary>  (32) 
energy

$$$$
32:0
     RDKit          3D

 43 45  0  0  1  0  0  0  0  0999 V2000
   60.8270   30.8990   46.8480 C   0  0  0  0  0  0  0  0  0  0  0  0
   60.1260   29.8290   47.6640 C   0  0  0  0  0  0  0  0  0  0  0  0
   59.9990   28.6090   46.8220 C   0  0  0  0  0  0  0  0  0  0  0  0
   58.6380   28.4050   46.2850 C   0  0  0  0  0  0  0  0  0  0  0  0
   58.0140   29.4640   45.6650 C   0  0  0  0  0  0  0  0  0  0  0  0
   56.7440   29.3410   45.1420 C   0  0  0  0  0  0  0  0  0  0  0  0
   56.1190   30.2910   44.5560 N   0  0  0  0  0  0  0  0  0  0  0  0
   56.7900   31.2040   43.6930 C   0  0  0  0  0  0  0  0  0  0  0  0
   57.4290   32.3340   44.4340 C   0  0  0  0  0  0  0  0  0  0  0  0
   58.4770   33.0750   43.8690 C   0  0  0  0  0  0  0  0  0  0  0  0
   59.0790   34.1150   44.5270 C   0  0  0  0  0  0  0  0  0  0  0  0
   58.6650   34.4710   45.7830 C   0  0  0  0  0  0  0  0  0  0  0  0
   57.6460   33.7750   46.3690 C   0  0  0  0  0  0  0  0  0  0  0  0
   57.0420   32.7210   45.6940 C   0  0  0  0  0  0  0  0  0  0  0  0
   56.1080   28.1440   45.2470 N   0  0  0  0  0  0  0  0  0  0  0  0
   56.7360   27.1200   45.8580 C   0  0  0  0  0  0  0  0  0  0  0  0
   56.0360   25.8330   45.9640 C   0  0  0  0  0  0  0  0  0  0  0  0
   56.6950   24.7220   46.4480 C   0  0  0  0  0  0  0  0  0  0  0  0
   56.0180   23.5240   46.5390 C   0  0  0  0  0  0  0  0  0  0  0  0
   54.6990   23.4120   46.1590 C   0  0  0  0  0  0  0  0  0  0  0  0
   54.0700   24.5570   45.6780 C   0  0  0  0  0  0  0  0  0  0  0  0
   54.7450   25.7300   45.5910 N   0  0  0  0  0  0  0  0  0  0  0  0
   57.9640   27.2450   46.3620 N   0  0  0  0  0  0  0  0  0  0  0  0
   61.3021   31.6241   47.5251 H   0  0  0  0  0  0  0  0  0  0  0  0
   61.5949   30.4321   46.2136 H   0  0  0  0  0  0  0  0  0  0  0  0
   60.0923   31.4165   46.2136 H   0  0  0  0  0  0  0  0  0  0  0  0
   60.7164   29.6005   48.5635 H   0  0  0  0  0  0  0  0  0  0  0  0
   59.1312   30.1803   47.9755 H   0  0  0  0  0  0  0  0  0  0  0  0
   60.6980   28.6944   45.9769 H   0  0  0  0  0  0  0  0  0  0  0  0
   60.2268   27.7460   47.4649 H   0  0  0  0  0  0  0  0  0  0  0  0
   58.5389   30.4274   45.5852 H   0  0  0  0  0  0  0  0  0  0  0  0
   57.5702   30.6587   43.1418 H   0  0  0  0  0  0  0  0  0  0  0  0
   56.0383   31.6341   43.0148 H   0  0  0  0  0  0  0  0  0  0  0  0
   58.8286   32.8116   42.8605 H   0  0  0  0  0  0  0  0  0  0  0  0
   59.8989   34.6668   44.0441 H   0  0  0  0  0  0  0  0  0  0  0  0
   59.1465   35.3061   46.3128 H   0  0  0  0  0  0  0  0  0  0  0  0
   57.3028   34.0494   47.3774 H   0  0  0  0  0  0  0  0  0  0  0  0
   56.2234   32.1762   46.1871 H   0  0  0  0  0  0  0  0  0  0  0  0
   55.1440   27.9890   44.8690 H   0  0  0  0  0  0  0  0  0  0  0  0
   57.7482   24.7908   46.7578 H   0  0  0  0  0  0  0  0  0  0  0  0
   56.5435   22.6376   46.9239 H   0  0  0  0  0  0  0  0  0  0  0  0
   54.1629   22.4543   46.2327 H   0  0  0  0  0  0  0  0  0  0  0  0
   53.0163   24.5099   45.3658 H   0  0  0  0  0  0  0  0  0  0  0  0
  1  2  1  0
  2  3  1  0
  3  4  1  0
  4  5  2  0
  5  6  1  0
  6  7  2  0
  7  8  1  0
  8  9  1  0
  9 10  2  0
 10 11  1  0
 11 12  2  0
 12 13  1  0
 13 14  2  0
  6 15  1  0
 15 16  1  0
 16 17  1  0
 17 18  2  0
 18 19  1  0
 19 20  2  0
 20 21  1  0
 21 22  2  0
 16 23  2  0
 23  4  1  0
 14  9  1  0
 22 17  1  0
  1 24  1  0
  1 25  1  0
  1 26  1  0
  2 27  1  0
  2 28  1  0
  3 29  1  0
  3 30  1  0
  5 31  1  0
  8 32  1  0
  8 33  1  0
 10 34  1  0
 11 35  1  0
 12 36  1  0
 13 37  1  0
 14 38  1  0
 15 39  1  0
 18 40  1  0
 19 41  1  0
 20 42  1  0
 21 43  1  0
M  END
>  <smiles>  (33) 
CCCc1cc(=NCc2ccccc2)[nH]c(-c2ccccn2)n1

>  <score_type>  (33) 
oracle

>  <origin>  (33) 
adg

>  <m_score__min__energy>  (33) 
-8.3100000000000005

>  <m_primary>  (33) 
energy

$$$$
33:0
     RDKit          3D

 59 61  0  0  0  0  0  0  0  0999 V2000
   60.4950   28.2100   45.2980 C   0  0  0  0  0  0  0  0  0  0  0  0
   59.0550   27.4800   44.4520 S   0  0  0  0  0  0  0  0  0  0  0  0
   58.1230   29.0130   44.4670 C   0  0  0  0  0  0  0  0  0  0  0  0
   56.9900   29.1560   43.6550 C   0  0  0  0  0  0  0  0  0  0  0  0
   56.2650   30.3510   43.6700 C   0  0  0  0  0  0  0  0  0  0  0  0
   56.6620   31.4010   44.5020 C   0  0  0  0  0  0  0  0  0  0  0  0
   57.7920   31.2610   45.3230 C   0  0  0  0  0  0  0  0  0  0  0  0
   58.1980   32.3370   46.1800 N   0  0  0  0  0  0  0  0  0  0  0  0
   58.2290   33.6490   45.8580 C   0  0  0  0  0  0  0  0  0  0  0  0
   57.8090   34.2170   44.5380 C   0  0  0  0  0  0  0  0  0  0  0  0
   58.8050   34.3800   46.8790 C   0  0  0  0  0  0  0  0  0  0  0  0
   59.1280   33.4700   47.8710 C   0  0  0  0  0  0  0  0  0  0  0  0
   59.9380   33.7780   49.0970 C   0  0  0  0  0  0  0  0  0  0  0  0
   61.2240   34.3750   48.7160 N   0  0  0  0  0  0  0  0  0  0  0  0
   61.8230   33.6870   47.5610 C   0  0  0  0  0  0  0  0  0  0  0  0
   63.3590   33.7840   47.6080 C   0  0  0  0  0  0  0  0  0  0  0  0
   64.0300   32.6360   48.2780 N   0  0  0  0  0  0  0  0  0  0  0  0
   63.0110   31.6320   48.7170 C   0  0  0  0  0  0  0  0  0  0  0  0
   63.1770   31.1730   50.1780 C   0  0  0  0  0  0  0  0  0  0  0  0
   63.2570   32.3170   51.1130 N   0  0  0  0  0  0  0  0  0  0  0  0
   61.9200   32.8410   51.4460 C   0  0  0  0  0  0  0  0  0  0  0  0
   64.1700   33.3980   50.6650 C   0  0  0  0  0  0  0  0  0  0  0  0
   64.9380   33.0490   49.3790 C   0  0  0  0  0  0  0  0  0  0  0  0
   58.7330   32.2180   47.4160 C   0  0  0  0  0  0  0  0  0  0  0  0
   59.0120   30.9060   48.0920 C   0  0  0  0  0  0  0  0  0  0  0  0
   58.5210   30.0640   45.3000 C   0  0  0  0  0  0  0  0  0  0  0  0
   60.3553   28.1392   46.3868 H   0  0  0  0  0  0  0  0  0  0  0  0
   61.4055   27.6646   45.0089 H   0  0  0  0  0  0  0  0  0  0  0  0
   60.5932   29.2668   45.0089 H   0  0  0  0  0  0  0  0  0  0  0  0
   56.6710   28.3275   43.0055 H   0  0  0  0  0  0  0  0  0  0  0  0
   55.3806   30.4649   43.0259 H   0  0  0  0  0  0  0  0  0  0  0  0
   56.0879   32.3392   44.5137 H   0  0  0  0  0  0  0  0  0  0  0  0
   57.1625   35.0913   44.7041 H   0  0  0  0  0  0  0  0  0  0  0  0
   58.7001   34.5225   43.9700 H   0  0  0  0  0  0  0  0  0  0  0  0
   57.2558   33.4545   43.9700 H   0  0  0  0  0  0  0  0  0  0  0  0
   58.9732   35.4669   46.8996 H   0  0  0  0  0  0  0  0  0  0  0  0
   59.3829   34.4844   49.7317 H   0  0  0  0  0  0  0  0  0  0  0  0
   60.1240   32.8449   49.6490 H   0  0  0  0  0  0  0  0  0  0  0  0
   61.0530   35.3710   48.4440 H   0  0  0  0  0  0  0  0  0  0  0  0
   61.5272   32.6277   47.5781 H   0  0  0  0  0  0  0  0  0  0  0  0
   61.4658   34.1674   46.6382 H   0  0  0  0  0  0  0  0  0  0  0  0
   63.7312   33.8441   46.5746 H   0  0  0  0  0  0  0  0  0  0  0  0
   63.5980   34.6772   48.2039 H   0  0  0  0  0  0  0  0  0  0  0  0
   64.6280   32.1590   47.5640 H   0  0  0  0  0  0  0  0  0  0  0  0
   62.0127   32.0804   48.6060 H   0  0  0  0  0  0  0  0  0  0  0  0
   63.1465   30.7419   48.0850 H   0  0  0  0  0  0  0  0  0  0  0  0
   62.3147   30.5484   50.4541 H   0  0  0  0  0  0  0  0  0  0  0  0
   64.1178   30.6077   50.2516 H   0  0  0  0  0  0  0  0  0  0  0  0
   61.8056   32.8858   52.5391 H   0  0  0  0  0  0  0  0  0  0  0  0
   61.8061   33.8503   51.0237 H   0  0  0  0  0  0  0  0  0  0  0  0
   61.1506   32.1779   51.0237 H   0  0  0  0  0  0  0  0  0  0  0  0
   63.5747   34.3046   50.4814 H   0  0  0  0  0  0  0  0  0  0  0  0
   64.9152   33.5467   51.4603 H   0  0  0  0  0  0  0  0  0  0  0  0
   65.5078   33.9327   49.0557 H   0  0  0  0  0  0  0  0  0  0  0  0
   65.6045   32.2029   49.6026 H   0  0  0  0  0  0  0  0  0  0  0  0
   58.9830   31.0423   49.1831 H   0  0  0  0  0  0  0  0  0  0  0  0
   58.2501   30.1706   47.7940 H   0  0  0  0  0  0  0  0  0  0  0  0
   60.0072   30.5443   47.7940 H   0  0  0  0  0  0  0  0  0  0  0  0
   59.4091   29.9507   45.9391 H   0  0  0  0  0  0  0  0  0  0  0  0
  1  2  1  0
  2  3  1  0
  3  4  2  0
  4  5  1  0
  5  6  2  0
  6  7  1  0
  7  8  1  0
  8  9  1  0
  9 10  1  0
  9 11  2  0
 11 12  1  0
 12 13  1  0
 13 14  1  0
 14 15  1  0
 15 16  1  0
 16 17  1  0
 17 18  1  0
 18 19  1  0
 19 20  1  0
 20 21  1  0
 20 22  1  0
 22 23  1  0
 12 24  2  0
 24 25  1  0
  7 26  2  0
 26  3  1  0
 24  8  1  0
 23 17  1  0
  1 27  1  0
  1 28  1  0
  1 29  1  0
  4 30  1  0
  5 31  1  0
  6 32  1  0
 10 33  1  0
 10 34  1  0
 10 35  1  0
 11 36  1  0
 13 37  1  0
 13 38  1  0
 14 39  1  0
 15 40  1  0
 15 41  1  0
 16 42  1  0
 16 43  1  0
 17 44  1  0
 18 45  1  0
 18 46  1  0
 19 47  1  0
 19 48  1  0
 21 49  1  0
 21 50  1  0
 21 51  1  0
 22 52  1  0
 22 53  1  0
 23 54  1  0
 23 55  1  0
 25 56  1  0
 25 57  1  0
 25 58  1  0
 26 59  1  0
M  CHG  1  17   1
M  END
>  <UniqueID>  (34) 
33

>  <SMILES>  (34) 
CSc1cccc(-n2c(C)cc(CNCC[NH+]3CCN(C)CC3)c2C)c1

>  <Energy>  (34) 
96.85662047877317

>  <Genealogy>  (34) 
CSc1cccc(-n2c(C)cc(CNCC[NH+]3CCN(C)CC3)c2C)c1 (protonated)
CSc1cccc(-n2c(C)cc(CNCC[NH+]3CCN(C)CC3)c2C)c1 (3D coordinates assigned)
CSc1cccc(-n2c(C)cc(CNCC[NH+]3CCN(C)CC3)c2C)c1 (nonaromatic ring conformer: 96.85662047877317 kcal/mol)

>  <smiles>  (34) 
CSc1cccc(-n2c(C)cc(CNCCN3CCN(C)CC3)c2C)c1

>  <score_type>  (34) 
oracle

>  <origin>  (34) 
adg

>  <m_score__min__energy>  (34) 
-6.7000000000000002

>  <m_primary>  (34) 
energy

$$$$
34:0
     RDKit          3D

 37 39  0  0  0  0  0  0  0  0999 V2000
   55.1710   26.7090   45.9840 N   0  0  0  0  0  0  0  0  0  0  0  0
   56.0540   25.6500   46.3510 C   0  0  0  0  0  0  0  0  0  0  0  0
   55.5870   24.4910   46.5150 O   0  0  0  0  0  0  0  0  0  0  0  0
   57.5010   25.9080   46.5400 C   0  0  0  0  0  0  0  0  0  0  0  0
   58.4640   25.1020   45.9130 C   0  0  0  0  0  0  0  0  0  0  0  0
   59.7880   25.3500   46.0930 N   0  0  0  0  0  0  0  0  0  0  0  0
   60.2270   26.3740   46.8710 C   0  0  0  0  0  0  0  0  0  0  0  0
   59.3160   27.2130   47.5160 C   0  0  0  0  0  0  0  0  0  0  0  0
   59.8160   28.2650   48.3020 O   0  0  0  0  0  0  0  0  0  0  0  0
   59.0360   29.3290   48.8480 C   0  0  0  0  0  0  0  0  0  0  0  0
   58.9550   30.4820   47.8820 C   0  0  0  0  0  0  0  0  0  0  0  0
   59.5280   31.7170   48.2170 C   0  0  0  0  0  0  0  0  0  0  0  0
   59.4760   32.7840   47.3190 C   0  0  0  0  0  0  0  0  0  0  0  0
   58.8400   32.6310   46.0850 C   0  0  0  0  0  0  0  0  0  0  0  0
   58.2350   31.4100   45.7390 C   0  0  0  0  0  0  0  0  0  0  0  0
   57.5920   31.2570   44.4580 N   0  0  0  0  0  0  0  0  0  0  0  0
   57.9400   31.9860   43.2420 C   0  0  0  0  0  0  0  0  0  0  0  0
   57.0890   31.3440   42.1200 C   0  0  0  0  0  0  0  0  0  0  0  0
   56.2700   30.3780   42.7680 O   0  0  0  0  0  0  0  0  0  0  0  0
   56.5730   30.3390   44.1080 C   0  0  0  0  0  0  0  0  0  0  0  0
   55.9610   29.6090   44.9320 O   0  0  0  0  0  0  0  0  0  0  0  0
   58.3020   30.3360   46.6460 C   0  0  0  0  0  0  0  0  0  0  0  0
   57.9410   26.9680   47.3510 C   0  0  0  0  0  0  0  0  0  0  0  0
   55.4980   27.4980   45.3850 H   0  0  0  0  0  0  0  0  0  0  0  0
   58.1456   24.2659   45.2731 H   0  0  0  0  0  0  0  0  0  0  0  0
   61.3070   26.5431   46.9935 H   0  0  0  0  0  0  0  0  0  0  0  0
   58.0205   28.9614   49.0570 H   0  0  0  0  0  0  0  0  0  0  0  0
   59.5148   29.6780   49.7748 H   0  0  0  0  0  0  0  0  0  0  0  0
   60.0208   31.8455   49.1920 H   0  0  0  0  0  0  0  0  0  0  0  0
   59.9367   33.7472   47.5835 H   0  0  0  0  0  0  0  0  0  0  0  0
   58.8122   33.4730   45.3778 H   0  0  0  0  0  0  0  0  0  0  0  0
   57.6939   33.0528   43.3491 H   0  0  0  0  0  0  0  0  0  0  0  0
   59.0165   31.9269   43.0236 H   0  0  0  0  0  0  0  0  0  0  0  0
   56.4675   32.1053   41.6258 H   0  0  0  0  0  0  0  0  0  0  0  0
   57.7182   30.8884   41.3413 H   0  0  0  0  0  0  0  0  0  0  0  0
   57.8388   29.3730   46.3851 H   0  0  0  0  0  0  0  0  0  0  0  0
   57.2061   27.6094   47.8594 H   0  0  0  0  0  0  0  0  0  0  0  0
  1  2  1  0
  2  3  2  0
  2  4  1  0
  4  5  2  0
  5  6  1  0
  6  7  2  0
  7  8  1  0
  8  9  1  0
  9 10  1  0
 10 11  1  0
 11 12  2  0
 12 13  1  0
 13 14  2  0
 14 15  1  0
 15 16  1  0
 16 17  1  0
 17 18  1  0
 18 19  1  0
 19 20  1  0
 20 21  2  0
 15 22  2  0
  8 23  2  0
 23  4  1  0
 22 11  1  0
 20 16  1  0
  1 24  1  0
  5 25  1  0
  7 26  1  0
 10 27  1  0
 10 28  1  0
 12 29  1  0
 13 30  1  0
 14 31  1  0
 17 32  1  0
 17 33  1  0
 18 34  1  0
 18 35  1  0
 22 36  1  0
 23 37  1  0
M  CHG  1   1  -1
M  END
>  <UniqueID>  (35) 
34

>  <SMILES>  (35) 
[NH-]C(=O)c1cncc(OCc2cccc(N3CCOC3=O)c2)c1

>  <Energy>  (35) 
57.576628785810314

>  <Genealogy>  (35) 
[NH-]C(=O)c1cncc(OCc2cccc(N3CCOC3=O)c2)c1 (protonated)
[NH-]C(=O)c1cncc(OCc2cccc(N3CCOC3=O)c2)c1 (3D coordinates assigned)
[NH-]C(=O)c1cncc(OCc2cccc(N3CCOC3=O)c2)c1 (nonaromatic ring conformer: 57.576628785810314 kcal/mol)

>  <smiles>  (35) 
NC(=O)c1cncc(OCc2cccc(N3CCOC3=O)c2)c1

>  <score_type>  (35) 
oracle

>  <origin>  (35) 
adg

>  <m_score__min__energy>  (35) 
-10.92

>  <m_primary>  (35) 
energy

$$$$
35:0
     RDKit          3D

 52 55  0  0  0  0  0  0  0  0999 V2000
   57.6060   22.6890   50.1800 C   0  0  0  0  0  0  0  0  0  0  0  0
   56.8990   22.2400   49.0280 O   0  0  0  0  0  0  0  0  0  0  0  0
   56.8980   22.8980   47.7880 C   0  0  0  0  0  0  0  0  0  0  0  0
   56.6320   24.2740   47.6720 C   0  0  0  0  0  0  0  0  0  0  0  0
   56.6440   24.9030   46.4190 C   0  0  0  0  0  0  0  0  0  0  0  0
   56.8970   24.1470   45.2570 C   0  0  0  0  0  0  0  0  0  0  0  0
   57.1730   22.7750   45.3780 C   0  0  0  0  0  0  0  0  0  0  0  0
   57.1730   22.1460   46.6370 C   0  0  0  0  0  0  0  0  0  0  0  0
   57.4410   20.7760   46.7860 O   0  0  0  0  0  0  0  0  0  0  0  0
   56.9950   19.7630   45.8910 C   0  0  0  0  0  0  0  0  0  0  0  0
   56.9160   24.7970   43.8850 C   0  0  0  0  0  0  0  0  0  0  0  0
   57.9550   25.9380   43.6770 C   0  0  0  0  0  0  0  0  0  0  0  0
   57.5880   27.2440   44.2890 N   0  0  0  0  0  0  0  0  0  0  0  0
   58.5070   28.3300   43.8570 C   0  0  0  0  0  0  0  0  0  0  0  0
   58.1550   29.6840   44.4180 C   0  0  0  0  0  0  0  0  0  0  0  0
   57.0100   30.4000   44.1570 C   0  0  0  0  0  0  0  0  0  0  0  0
   57.0820   31.5130   44.8430 O   0  0  0  0  0  0  0  0  0  0  0  0
   58.2190   31.5010   45.5040 C   0  0  0  0  0  0  0  0  0  0  0  0
   58.6790   32.5820   46.4140 C   0  0  0  0  0  0  0  0  0  0  0  0
   58.6480   33.9130   45.9510 C   0  0  0  0  0  0  0  0  0  0  0  0
   59.0770   34.9640   46.7650 C   0  0  0  0  0  0  0  0  0  0  0  0
   59.5420   34.7060   48.0510 C   0  0  0  0  0  0  0  0  0  0  0  0
   59.5790   33.3970   48.5320 C   0  0  0  0  0  0  0  0  0  0  0  0
   59.1520   32.3300   47.7280 C   0  0  0  0  0  0  0  0  0  0  0  0
   59.2280   30.5800   48.5160 Br  0  0  0  0  0  0  0  0  0  0  0  0
   58.9320   30.3750   45.2730 N   0  0  0  0  0  0  0  0  0  0  0  0
   57.5070   27.1850   45.7740 C   0  0  0  0  0  0  0  0  0  0  0  0
   56.3140   26.3680   46.3100 C   0  0  0  0  0  0  0  0  0  0  0  0
   57.0799   22.3549   51.0864 H   0  0  0  0  0  0  0  0  0  0  0  0
   58.6236   22.2713   50.1716 H   0  0  0  0  0  0  0  0  0  0  0  0
   57.6606   23.7876   50.1716 H   0  0  0  0  0  0  0  0  0  0  0  0
   56.4121   24.8634   48.5744 H   0  0  0  0  0  0  0  0  0  0  0  0
   57.3921   22.1842   44.4764 H   0  0  0  0  0  0  0  0  0  0  0  0
   56.6173   18.9053   46.4669 H   0  0  0  0  0  0  0  0  0  0  0  0
   56.1895   20.1624   45.2572 H   0  0  0  0  0  0  0  0  0  0  0  0
   57.8335   19.4385   45.2572 H   0  0  0  0  0  0  0  0  0  0  0  0
   57.1281   24.0114   43.1448 H   0  0  0  0  0  0  0  0  0  0  0  0
   55.9308   25.2730   43.7721 H   0  0  0  0  0  0  0  0  0  0  0  0
   58.9105   25.6130   44.1145 H   0  0  0  0  0  0  0  0  0  0  0  0
   58.0071   26.1115   42.5920 H   0  0  0  0  0  0  0  0  0  0  0  0
   56.6530   27.5390   43.9190 H   0  0  0  0  0  0  0  0  0  0  0  0
   59.5253   28.0732   44.1841 H   0  0  0  0  0  0  0  0  0  0  0  0
   58.4225   28.4048   42.7628 H   0  0  0  0  0  0  0  0  0  0  0  0
   56.1865   30.0943   43.4948 H   0  0  0  0  0  0  0  0  0  0  0  0
   58.2814   34.1267   44.9361 H   0  0  0  0  0  0  0  0  0  0  0  0
   59.0472   35.9973   46.3889 H   0  0  0  0  0  0  0  0  0  0  0  0
   59.8809   35.5354   48.6892 H   0  0  0  0  0  0  0  0  0  0  0  0
   59.9460   33.2001   49.5501 H   0  0  0  0  0  0  0  0  0  0  0  0
   58.4344   26.7301   46.1523 H   0  0  0  0  0  0  0  0  0  0  0  0
   57.3654   28.2181   46.1241 H   0  0  0  0  0  0  0  0  0  0  0  0
   56.0418   26.7468   47.3062 H   0  0  0  0  0  0  0  0  0  0  0  0
   55.4784   26.4788   45.6032 H   0  0  0  0  0  0  0  0  0  0  0  0
  1  2  1  0
  2  3  1  0
  3  4  2  0
  4  5  1  0
  5  6  2  0
  6  7  1  0
  7  8  2  0
  8  9  1  0
  9 10  1  0
  6 11  1  0
 11 12  1  0
 12 13  1  0
 13 14  1  0
 14 15  1  0
 15 16  2  0
 16 17  1  0
 17 18  1  0
 18 19  1  0
 19 20  2  0
 20 21  1  0
 21 22  2  0
 22 23  1  0
 23 24  2  0
 24 25  1  0
 18 26  2  0
 13 27  1  0
 27 28  1  0
  8  3  1  0
 26 15  1  0
 28  5  1  0
 24 19  1  0
  1 29  1  0
  1 30  1  0
  1 31  1  0
  4 32  1  0
  7 33  1  0
 10 34  1  0
 10 35  1  0
 10 36  1  0
 11 37  1  0
 11 38  1  0
 12 39  1  0
 12 40  1  0
 13 41  1  0
 14 42  1  0
 14 43  1  0
 16 44  1  0
 20 45  1  0
 21 46  1  0
 22 47  1  0
 23 48  1  0
 27 49  1  0
 27 50  1  0
 28 51  1  0
 28 52  1  0
M  CHG  1  13   1
M  END
>  <UniqueID>  (36) 
35

>  <SMILES>  (36) 
COc1cc2c(cc1OC)CC[NH+](Cc1coc(-c3ccccc3Br)n1)CC2

>  <Energy>  (36) 
102.61874560386399

>  <Genealogy>  (36) 
COc1cc2c(cc1OC)CC[NH+](Cc1coc(-c3ccccc3Br)n1)CC2 (protonated)
COc1cc2c(cc1OC)CC[NH+](Cc1coc(-c3ccccc3Br)n1)CC2 (3D coordinates assigned)
COc1cc2c(cc1OC)CC[NH+](Cc1coc(-c3ccccc3Br)n1)CC2 (nonaromatic ring conformer: 102.61874560386399 kcal/mol)

>  <smiles>  (36) 
COc1cc2c(cc1OC)CCN(Cc1coc(-c3ccccc3Br)n1)CC2

>  <score_type>  (36) 
oracle

>  <origin>  (36) 
adg

>  <m_score__min__energy>  (36) 
-4.5999999999999996

>  <m_primary>  (36) 
energy

$$$$
36:0
     RDKit          3D

 48 50  0  0  0  0  0  0  0  0999 V2000
   63.3810   34.2170   46.5610 C   0  0  0  0  0  0  0  0  0  0  0  0
   63.2210   33.8600   48.0380 C   0  0  0  0  0  0  0  0  0  0  0  0
   62.5320   32.5310   48.1920 C   0  0  0  0  0  0  0  0  0  0  0  0
   61.8570   31.9510   47.1030 C   0  0  0  0  0  0  0  0  0  0  0  0
   61.1920   30.7310   47.2550 C   0  0  0  0  0  0  0  0  0  0  0  0
   61.1600   30.0890   48.5010 C   0  0  0  0  0  0  0  0  0  0  0  0
   60.4860   28.8260   48.5980 N   0  0  0  0  0  0  0  0  0  0  0  0
   59.3250   28.3990   47.8760 C   0  0  0  0  0  0  0  0  0  0  0  0
   58.1720   28.6700   48.3090 O   0  0  0  0  0  0  0  0  0  0  0  0
   59.4550   27.6250   46.5810 C   0  0  0  0  0  0  0  0  0  0  0  0
   60.2470   28.4340   45.5220 C   0  0  0  0  0  0  0  0  0  0  0  0
   59.3600   29.2340   44.5480 C   0  0  0  0  0  0  0  0  0  0  0  0
   58.0200   29.4490   45.1050 N   0  0  0  0  0  0  0  0  0  0  0  0
   57.3660   30.7240   44.9620 C   0  0  0  0  0  0  0  0  0  0  0  0
   56.1890   30.7650   44.5100 O   0  0  0  0  0  0  0  0  0  0  0  0
   58.0270   31.9890   45.3710 C   0  0  0  0  0  0  0  0  0  0  0  0
   58.2700   32.2730   46.7260 C   0  0  0  0  0  0  0  0  0  0  0  0
   58.8290   33.4990   47.1080 C   0  0  0  0  0  0  0  0  0  0  0  0
   59.1610   34.4470   46.1390 C   0  0  0  0  0  0  0  0  0  0  0  0
   59.6780   35.6470   46.5090 F   0  0  0  0  0  0  0  0  0  0  0  0
   58.9410   34.1730   44.7880 C   0  0  0  0  0  0  0  0  0  0  0  0
   58.3700   32.9540   44.4050 C   0  0  0  0  0  0  0  0  0  0  0  0
   57.2180   28.2740   45.4700 C   0  0  0  0  0  0  0  0  0  0  0  0
   58.1010   27.1330   46.0180 C   0  0  0  0  0  0  0  0  0  0  0  0
   61.8410   30.6660   49.5900 C   0  0  0  0  0  0  0  0  0  0  0  0
   62.5150   31.8820   49.4380 C   0  0  0  0  0  0  0  0  0  0  0  0
   63.8294   35.2175   46.4721 H   0  0  0  0  0  0  0  0  0  0  0  0
   64.0340   33.4779   46.0738 H   0  0  0  0  0  0  0  0  0  0  0  0
   62.3948   34.2126   46.0738 H   0  0  0  0  0  0  0  0  0  0  0  0
   64.2148   33.8081   48.5067 H   0  0  0  0  0  0  0  0  0  0  0  0
   62.6096   34.6340   48.5249 H   0  0  0  0  0  0  0  0  0  0  0  0
   61.8524   32.4596   46.1276 H   0  0  0  0  0  0  0  0  0  0  0  0
   60.6902   30.2713   46.3908 H   0  0  0  0  0  0  0  0  0  0  0  0
   60.0268   26.7174   46.8247 H   0  0  0  0  0  0  0  0  0  0  0  0
   60.9058   29.1402   46.0486 H   0  0  0  0  0  0  0  0  0  0  0  0
   60.8040   27.7037   44.9166 H   0  0  0  0  0  0  0  0  0  0  0  0
   59.8291   30.2100   44.3548 H   0  0  0  0  0  0  0  0  0  0  0  0
   59.2613   28.6596   43.6151 H   0  0  0  0  0  0  0  0  0  0  0  0
   58.0189   31.5257   47.4932 H   0  0  0  0  0  0  0  0  0  0  0  0
   59.0064   33.7148   48.1719 H   0  0  0  0  0  0  0  0  0  0  0  0
   59.2165   34.9153   44.0244 H   0  0  0  0  0  0  0  0  0  0  0  0
   58.1876   32.7481   43.3399 H   0  0  0  0  0  0  0  0  0  0  0  0
   56.4898   28.5643   46.2417 H   0  0  0  0  0  0  0  0  0  0  0  0
   56.7075   27.9108   44.5658 H   0  0  0  0  0  0  0  0  0  0  0  0
   57.5524   26.6228   46.8235 H   0  0  0  0  0  0  0  0  0  0  0  0
   58.3228   26.4595   45.1771 H   0  0  0  0  0  0  0  0  0  0  0  0
   61.8429   30.1577   50.5655 H   0  0  0  0  0  0  0  0  0  0  0  0
   63.0338   32.3320   50.2973 H   0  0  0  0  0  0  0  0  0  0  0  0
  1  2  1  0
  2  3  1  0
  3  4  2  0
  4  5  1  0
  5  6  2  0
  6  7  1  0
  7  8  1  0
  8  9  2  0
  8 10  1  0
 10 11  1  0
 11 12  1  0
 12 13  1  0
 13 14  1  0
 14 15  2  0
 14 16  1  0
 16 17  2  0
 17 18  1  0
 18 19  2  0
 19 20  1  0
 19 21  1  0
 21 22  2  0
 13 23  1  0
 23 24  1  0
  6 25  1  0
 25 26  2  0
 26  3  1  0
 24 10  1  0
 22 16  1  0
  1 27  1  0
  1 28  1  0
  1 29  1  0
  2 30  1  0
  2 31  1  0
  4 32  1  0
  5 33  1  0
 10 34  1  0
 11 35  1  0
 11 36  1  0
 12 37  1  0
 12 38  1  0
 17 39  1  0
 18 40  1  0
 21 41  1  0
 22 42  1  0
 23 43  1  0
 23 44  1  0
 24 45  1  0
 24 46  1  0
 25 47  1  0
 26 48  1  0
M  CHG  1   7  -1
M  END
>  <UniqueID>  (37) 
36

>  <SMILES>  (37) 
CCc1ccc([N-]C(=O)C2CCN(C(=O)c3ccc(F)cc3)CC2)cc1

>  <Energy>  (37) 
56.25652272242987

>  <Genealogy>  (37) 
CCc1ccc([N-]C(=O)C2CCN(C(=O)c3ccc(F)cc3)CC2)cc1 (protonated)
CCc1ccc([N-]C(=O)C2CCN(C(=O)c3ccc(F)cc3)CC2)cc1 (3D coordinates assigned)
CCc1ccc([N-]C(=O)C2CCN(C(=O)c3ccc(F)cc3)CC2)cc1 (nonaromatic ring conformer: 56.25652272242987 kcal/mol)

>  <smiles>  (37) 
CCc1ccc(NC(=O)C2CCN(C(=O)c3ccc(F)cc3)CC2)cc1

>  <score_type>  (37) 
oracle

>  <origin>  (37) 
adg

>  <m_score__min__energy>  (37) 
-9.3699999999999992

>  <m_primary>  (37) 
energy

$$$$
37:0
     RDKit          3D

 53 56  0  0  0  0  0  0  0  0999 V2000
   60.4380   25.9160   46.3560 C   0  0  0  0  0  0  0  0  0  0  0  0
   59.4750   26.9350   45.8220 C   0  0  0  0  0  0  0  0  0  0  0  0
   58.1250   26.8820   46.1980 C   0  0  0  0  0  0  0  0  0  0  0  0
   57.2250   27.8450   45.7320 C   0  0  0  0  0  0  0  0  0  0  0  0
   57.6650   28.8750   44.8920 C   0  0  0  0  0  0  0  0  0  0  0  0
   56.5170   30.0900   44.3400 S   0  0  0  0  0  0  0  0  0  0  0  0
   55.1470   29.7220   44.8330 O   0  0  0  0  0  0  0  0  0  0  0  0
   56.4790   30.1620   42.8380 O   0  0  0  0  0  0  0  0  0  0  0  0
   56.9580   31.6360   44.9930 N   0  0  0  0  0  0  0  0  0  0  0  0
   58.0990   31.8920   45.8220 C   0  0  0  0  0  0  0  0  0  0  0  0
   58.8910   33.0100   45.5440 C   0  0  0  0  0  0  0  0  0  0  0  0
   60.0200   33.2950   46.3170 C   0  0  0  0  0  0  0  0  0  0  0  0
   60.3980   32.4510   47.3820 C   0  0  0  0  0  0  0  0  0  0  0  0
   61.6240   32.6930   48.2100 C   0  0  0  0  0  0  0  0  0  0  0  0
   61.5820   33.2430   49.5010 C   0  0  0  0  0  0  0  0  0  0  0  0
   62.7700   33.4640   50.1940 C   0  0  0  0  0  0  0  0  0  0  0  0
   63.9920   33.1380   49.5990 C   0  0  0  0  0  0  0  0  0  0  0  0
   65.2400   33.3600   50.2950 N   0  0  0  0  0  0  0  0  0  0  0  0
   65.2720   34.1280   51.5480 C   0  0  0  0  0  0  0  0  0  0  0  0
   66.5730   34.9320   51.6500 C   0  0  0  0  0  0  0  0  0  0  0  0
   67.8360   34.0620   51.4730 C   0  0  0  0  0  0  0  0  0  0  0  0
   67.5530   32.6770   50.8710 C   0  0  0  0  0  0  0  0  0  0  0  0
   66.4760   32.7460   49.7840 C   0  0  0  0  0  0  0  0  0  0  0  0
   63.9840   32.5920   48.3500 N   0  0  0  0  0  0  0  0  0  0  0  0
   62.8440   32.3880   47.6860 N   0  0  0  0  0  0  0  0  0  0  0  0
   59.5830   31.3360   47.6610 C   0  0  0  0  0  0  0  0  0  0  0  0
   58.4450   31.0610   46.8970 C   0  0  0  0  0  0  0  0  0  0  0  0
   59.0150   28.9380   44.5220 C   0  0  0  0  0  0  0  0  0  0  0  0
   59.9160   27.9770   44.9910 C   0  0  0  0  0  0  0  0  0  0  0  0
   60.4198   25.9352   47.4557 H   0  0  0  0  0  0  0  0  0  0  0  0
   60.1474   24.9159   46.0019 H   0  0  0  0  0  0  0  0  0  0  0  0
   61.4529   26.1497   46.0019 H   0  0  0  0  0  0  0  0  0  0  0  0
   57.7727   26.0793   46.8625 H   0  0  0  0  0  0  0  0  0  0  0  0
   56.1665   27.7932   46.0266 H   0  0  0  0  0  0  0  0  0  0  0  0
   58.6227   33.6725   44.7079 H   0  0  0  0  0  0  0  0  0  0  0  0
   60.6211   34.1884   46.0921 H   0  0  0  0  0  0  0  0  0  0  0  0
   60.6166   33.4979   49.9626 H   0  0  0  0  0  0  0  0  0  0  0  0
   62.7465   33.8937   51.2063 H   0  0  0  0  0  0  0  0  0  0  0  0
   64.4164   34.8189   51.5714 H   0  0  0  0  0  0  0  0  0  0  0  0
   65.2175   33.4292   52.3958 H   0  0  0  0  0  0  0  0  0  0  0  0
   66.5686   35.7063   50.8687 H   0  0  0  0  0  0  0  0  0  0  0  0
   66.6123   35.3670   52.6596 H   0  0  0  0  0  0  0  0  0  0  0  0
   68.5334   34.5934   50.8087 H   0  0  0  0  0  0  0  0  0  0  0  0
   68.2554   33.8966   52.4764 H   0  0  0  0  0  0  0  0  0  0  0  0
   68.4806   32.2826   50.4304 H   0  0  0  0  0  0  0  0  0  0  0  0
   67.1902   32.0193   51.6746 H   0  0  0  0  0  0  0  0  0  0  0  0
   66.8534   33.3464   48.9431 H   0  0  0  0  0  0  0  0  0  0  0  0
   66.2456   31.7211   49.4575 H   0  0  0  0  0  0  0  0  0  0  0  0
   64.8790   32.3440   47.8750 H   0  0  0  0  0  0  0  0  0  0  0  0
   59.8470   30.6696   48.4954 H   0  0  0  0  0  0  0  0  0  0  0  0
   57.8190   30.1898   47.1400 H   0  0  0  0  0  0  0  0  0  0  0  0
   59.3665   29.7445   43.8617 H   0  0  0  0  0  0  0  0  0  0  0  0
   60.9770   28.0379   44.7070 H   0  0  0  0  0  0  0  0  0  0  0  0
  1  2  1  0
  2  3  2  0
  3  4  1  0
  4  5  2  0
  5  6  1  0
  6  7  2  0
  6  8  2  0
  6  9  1  0
  9 10  1  0
 10 11  2  0
 11 12  1  0
 12 13  2  0
 13 14  1  0
 14 15  2  0
 15 16  1  0
 16 17  2  0
 17 18  1  0
 18 19  1  0
 19 20  1  0
 20 21  1  0
 21 22  1  0
 22 23  1  0
 17 24  1  0
 24 25  2  0
 13 26  1  0
 26 27  2  0
  5 28  1  0
 28 29  2  0
 29  2  1  0
 27 10  1  0
 25 14  1  0
 23 18  1  0
  1 30  1  0
  1 31  1  0
  1 32  1  0
  3 33  1  0
  4 34  1  0
 11 35  1  0
 12 36  1  0
 15 37  1  0
 16 38  1  0
 19 39  1  0
 19 40  1  0
 20 41  1  0
 20 42  1  0
 21 43  1  0
 21 44  1  0
 22 45  1  0
 22 46  1  0
 23 47  1  0
 23 48  1  0
 24 49  1  0
 26 50  1  0
 27 51  1  0
 28 52  1  0
 29 53  1  0
M  CHG  2   9  -1  24   1
M  END
>  <UniqueID>  (38) 
37

>  <SMILES>  (38) 
Cc1ccc(S(=O)(=O)[N-]c2ccc(-c3ccc(N4CCCCC4)[nH+]n3)cc2)cc1

>  <Energy>  (38) 
67.86970024150641

>  <Genealogy>  (38) 
Cc1ccc(S(=O)(=O)[N-]c2ccc(-c3ccc(N4CCCCC4)[nH+]n3)cc2)cc1 (protonated)
Cc1ccc(S(=O)(=O)[N-]c2ccc(-c3ccc(N4CCCCC4)[nH+]n3)cc2)cc1 (3D coordinates assigned)
Cc1ccc(S(=O)(=O)[N-]c2ccc(-c3ccc(N4CCCCC4)[nH+]n3)cc2)cc1 (nonaromatic ring conformer: 67.86970024150641 kcal/mol)

>  <smiles>  (38) 
Cc1ccc(S(=O)(=O)Nc2ccc(-c3ccc(N4CCCCC4)nn3)cc2)cc1

>  <score_type>  (38) 
oracle

>  <origin>  (38) 
adg

>  <m_score__min__energy>  (38) 
-9.8900000000000006

>  <m_primary>  (38) 
energy

$$$$
38:0
     RDKit          3D

 56 59  0  0  0  0  0  0  0  0999 V2000
   64.0500   32.7780   48.4930 C   0  0  0  0  0  0  0  0  0  0  0  0
   63.0350   32.5870   47.3660 C   0  0  0  0  0  0  0  0  0  0  0  0
   62.2220   33.8690   47.1080 C   0  0  0  0  0  0  0  0  0  0  0  0
   60.9380   33.8400   47.8590 N   0  0  0  0  0  0  0  0  0  0  0  0
   61.1830   34.1120   49.3000 C   0  0  0  0  0  0  0  0  0  0  0  0
   59.9130   33.8600   50.1160 C   0  0  0  0  0  0  0  0  0  0  0  0
   60.2420   33.4640   51.5530 C   0  0  0  0  0  0  0  0  0  0  0  0
   59.9730   34.8340   47.3200 C   0  0  0  0  0  0  0  0  0  0  0  0
   58.7350   34.2040   46.6460 C   0  0  0  0  0  0  0  0  0  0  0  0
   59.0170   33.4920   45.3120 C   0  0  0  0  0  0  0  0  0  0  0  0
   58.7560   32.0490   45.3790 N   0  0  0  0  0  0  0  0  0  0  0  0
   58.0230   31.2970   44.5120 C   0  0  0  0  0  0  0  0  0  0  0  0
   57.3370   31.7190   43.3670 C   0  0  0  0  0  0  0  0  0  0  0  0
   56.6510   30.7520   42.6090 C   0  0  0  0  0  0  0  0  0  0  0  0
   56.6440   29.3970   43.0050 C   0  0  0  0  0  0  0  0  0  0  0  0
   57.3130   28.9920   44.1740 C   0  0  0  0  0  0  0  0  0  0  0  0
   57.9880   29.9680   44.9010 C   0  0  0  0  0  0  0  0  0  0  0  0
   58.7110   29.9010   46.0620 C   0  0  0  0  0  0  0  0  0  0  0  0
   58.9740   28.8480   46.8700 N   0  0  0  0  0  0  0  0  0  0  0  0
   59.7020   29.0740   48.0030 C   0  0  0  0  0  0  0  0  0  0  0  0
   60.0140   28.0140   48.8620 C   0  0  0  0  0  0  0  0  0  0  0  0
   60.7590   28.2500   50.0220 C   0  0  0  0  0  0  0  0  0  0  0  0
   61.1950   29.5430   50.3330 C   0  0  0  0  0  0  0  0  0  0  0  0
   60.8930   30.6140   49.4850 C   0  0  0  0  0  0  0  0  0  0  0  0
   60.1490   30.3960   48.3160 C   0  0  0  0  0  0  0  0  0  0  0  0
   59.8560   31.4350   47.4700 N   0  0  0  0  0  0  0  0  0  0  0  0
   59.1510   31.1700   46.3380 C   0  0  0  0  0  0  0  0  0  0  0  0
   63.5421   32.6824   49.4640 H   0  0  0  0  0  0  0  0  0  0  0  0
   64.8353   32.0119   48.4130 H   0  0  0  0  0  0  0  0  0  0  0  0
   64.5031   33.7772   48.4130 H   0  0  0  0  0  0  0  0  0  0  0  0
   63.5717   32.3140   46.4454 H   0  0  0  0  0  0  0  0  0  0  0  0
   62.3359   31.7922   47.6654 H   0  0  0  0  0  0  0  0  0  0  0  0
   62.8099   34.7403   47.4323 H   0  0  0  0  0  0  0  0  0  0  0  0
   62.0003   33.9356   46.0326 H   0  0  0  0  0  0  0  0  0  0  0  0
   61.9835   33.4503   49.6624 H   0  0  0  0  0  0  0  0  0  0  0  0
   61.4790   35.1648   49.4182 H   0  0  0  0  0  0  0  0  0  0  0  0
   59.3074   34.7782   50.1278 H   0  0  0  0  0  0  0  0  0  0  0  0
   59.3597   33.0327   49.6476 H   0  0  0  0  0  0  0  0  0  0  0  0
   59.6971   34.1198   52.2480 H   0  0  0  0  0  0  0  0  0  0  0  0
   59.9422   32.4194   51.7233 H   0  0  0  0  0  0  0  0  0  0  0  0
   61.3238   33.5673   51.7233 H   0  0  0  0  0  0  0  0  0  0  0  0
   59.6297   35.4686   48.1503 H   0  0  0  0  0  0  0  0  0  0  0  0
   60.5033   35.4043   46.5431 H   0  0  0  0  0  0  0  0  0  0  0  0
   58.3041   33.4688   47.3415 H   0  0  0  0  0  0  0  0  0  0  0  0
   58.0529   35.0353   46.4143 H   0  0  0  0  0  0  0  0  0  0  0  0
   58.3741   33.9311   44.5349 H   0  0  0  0  0  0  0  0  0  0  0  0
   60.0834   33.6284   45.0792 H   0  0  0  0  0  0  0  0  0  0  0  0
   57.3343   32.7776   43.0680 H   0  0  0  0  0  0  0  0  0  0  0  0
   56.1143   31.0553   41.6979 H   0  0  0  0  0  0  0  0  0  0  0  0
   56.1115   28.6526   42.3949 H   0  0  0  0  0  0  0  0  0  0  0  0
   57.3031   27.9420   44.5017 H   0  0  0  0  0  0  0  0  0  0  0  0
   59.6733   26.9953   48.6249 H   0  0  0  0  0  0  0  0  0  0  0  0
   61.0037   27.4142   50.6940 H   0  0  0  0  0  0  0  0  0  0  0  0
   61.7782   29.7181   51.2491 H   0  0  0  0  0  0  0  0  0  0  0  0
   61.2392   31.6277   49.7351 H   0  0  0  0  0  0  0  0  0  0  0  0
   60.1820   32.4010   47.6930 H   0  0  0  0  0  0  0  0  0  0  0  0
  1  2  1  0
  2  3  1  0
  3  4  1  0
  4  5  1  0
  5  6  1  0
  6  7  1  0
  4  8  1  0
  8  9  1  0
  9 10  1  0
 10 11  1  0
 11 12  1  0
 12 13  2  0
 13 14  1  0
 14 15  2  0
 15 16  1  0
 16 17  2  0
 17 18  1  0
 18 19  2  0
 19 20  1  0
 20 21  2  0
 21 22  1  0
 22 23  2  0
 23 24  1  0
 24 25  2  0
 25 26  1  0
 26 27  2  0
 27 11  1  0
 17 12  1  0
 27 18  1  0
 25 20  1  0
  1 28  1  0
  1 29  1  0
  1 30  1  0
  2 31  1  0
  2 32  1  0
  3 33  1  0
  3 34  1  0
  5 35  1  0
  5 36  1  0
  6 37  1  0
  6 38  1  0
  7 39  1  0
  7 40  1  0
  7 41  1  0
  8 42  1  0
  8 43  1  0
  9 44  1  0
  9 45  1  0
 10 46  1  0
 10 47  1  0
 13 48  1  0
 14 49  1  0
 15 50  1  0
 16 51  1  0
 21 52  1  0
 22 53  1  0
 23 54  1  0
 24 55  1  0
 26 56  1  0
M  CHG  1  26   1
M  END
>  <UniqueID>  (39) 
38

>  <SMILES>  (39) 
CCCN(CCC)CCCn1c2ccccc2c2nc3ccccc3[nH+]c21

>  <Energy>  (39) 
95.81348888449966

>  <Genealogy>  (39) 
CCCN(CCC)CCCn1c2ccccc2c2nc3ccccc3[nH+]c21 (protonated)
CCCN(CCC)CCCn1c2ccccc2c2nc3ccccc3[nH+]c21 (3D coordinates assigned)
CCCN(CCC)CCCn1c2ccccc2c2nc3ccccc3[nH+]c21 (optimized conformer: 95.81348888449966 kcal/mol)

>  <smiles>  (39) 
CCCN(CCC)CCCn1c2ccccc2c2nc3ccccc3nc21

>  <score_type>  (39) 
oracle

>  <origin>  (39) 
adg

>  <m_score__min__energy>  (39) 
-6.3300000000000001

>  <m_primary>  (39) 
energy

$$$$
39:0
     RDKit          3D

 27 29  0  0  0  0  0  0  0  0999 V2000
   56.1010   29.7730   43.2000 O   0  0  0  0  0  0  0  0  0  0  0  0
   56.4080   29.7200   44.4230 C   0  0  0  0  0  0  0  0  0  0  0  0
   55.9220   28.6470   45.2400 N   0  0  0  0  0  0  0  0  0  0  0  0
   56.6450   27.4700   45.6290 C   0  0  0  0  0  0  0  0  0  0  0  0
   58.0520   27.4190   45.6090 C   0  0  0  0  0  0  0  0  0  0  0  0
   58.7180   26.2450   45.9730 C   0  0  0  0  0  0  0  0  0  0  0  0
   57.9910   25.1120   46.3460 C   0  0  0  0  0  0  0  0  0  0  0  0
   56.5950   25.1470   46.3450 C   0  0  0  0  0  0  0  0  0  0  0  0
   55.9230   26.3190   45.9810 C   0  0  0  0  0  0  0  0  0  0  0  0
   54.5670   26.3390   45.9790 F   0  0  0  0  0  0  0  0  0  0  0  0
   57.3150   30.7400   44.9990 C   0  0  0  0  0  0  0  0  0  0  0  0
   58.1420   30.4200   46.1070 C   0  0  0  0  0  0  0  0  0  0  0  0
   59.0040   31.3780   46.6610 C   0  0  0  0  0  0  0  0  0  0  0  0
   59.0270   32.6470   46.0940 C   0  0  0  0  0  0  0  0  0  0  0  0
   59.9440   33.9790   46.5340 S   0  0  0  0  0  0  0  0  0  0  0  0
   59.2780   34.9420   45.3100 C   0  0  0  0  0  0  0  0  0  0  0  0
   58.3670   34.2600   44.5720 N   0  0  0  0  0  0  0  0  0  0  0  0
   58.2310   32.9830   45.0130 C   0  0  0  0  0  0  0  0  0  0  0  0
   57.3680   32.0430   44.4500 C   0  0  0  0  0  0  0  0  0  0  0  0
   58.6287   28.3054   45.3061 H   0  0  0  0  0  0  0  0  0  0  0  0
   59.8175   26.2133   45.9657 H   0  0  0  0  0  0  0  0  0  0  0  0
   58.5180   24.1925   46.6404 H   0  0  0  0  0  0  0  0  0  0  0  0
   56.0229   24.2520   46.6308 H   0  0  0  0  0  0  0  0  0  0  0  0
   58.1066   29.4081   46.5368 H   0  0  0  0  0  0  0  0  0  0  0  0
   59.6444   31.1317   47.5208 H   0  0  0  0  0  0  0  0  0  0  0  0
   59.5512   35.9930   45.1349 H   0  0  0  0  0  0  0  0  0  0  0  0
   56.7366   32.3112   43.5901 H   0  0  0  0  0  0  0  0  0  0  0  0
  1  2  2  0
  2  3  1  0
  3  4  1  0
  4  5  2  0
  5  6  1  0
  6  7  2  0
  7  8  1  0
  8  9  2  0
  9 10  1  0
  2 11  1  0
 11 12  2  0
 12 13  1  0
 13 14  2  0
 14 15  1  0
 15 16  1  0
 16 17  2  0
 17 18  1  0
 18 19  2  0
  9  4  1  0
 19 11  1  0
 18 14  1  0
  5 20  1  0
  6 21  1  0
  7 22  1  0
  8 23  1  0
 12 24  1  0
 13 25  1  0
 16 26  1  0
 19 27  1  0
M  CHG  1   3  -1
M  END
>  <UniqueID>  (40) 
39

>  <SMILES>  (40) 
O=C([N-]c1ccccc1F)c1ccc2scnc2c1

>  <Energy>  (40) 
68.81337115459127

>  <Genealogy>  (40) 
O=C([N-]c1ccccc1F)c1ccc2scnc2c1 (protonated)
O=C([N-]c1ccccc1F)c1ccc2scnc2c1 (3D coordinates assigned)
O=C([N-]c1ccccc1F)c1ccc2scnc2c1 (optimized conformer: 68.81337115459127 kcal/mol)

>  <smiles>  (40) 
O=C(Nc1ccccc1F)c1ccc2scnc2c1

>  <score_type>  (40) 
oracle

>  <origin>  (40) 
adg

>  <m_score__min__energy>  (40) 
-8.9800000000000004

>  <m_primary>  (40) 
energy

$$$$
40:0
     RDKit          3D

 56 59  0  0  0  0  0  0  0  0999 V2000
   59.8250   27.1074   47.9516 H   0  0  0  0  0  0  0  0  0  0  0  0
   58.9590   27.3090   47.3040 C   0  0  0  0  0  0  0  0  0  0  0  0
   56.8790   22.4670   47.8690 N   0  0  0  0  0  0  0  0  0  0  0  0
   56.4040   21.5750   46.9580 C   0  0  0  0  0  0  0  0  0  0  0  0
   56.5760   20.3040   47.1890 N   0  0  0  0  0  0  0  0  0  0  0  0
   56.0720   24.3280   46.5940 C   0  0  0  0  0  0  0  0  0  0  0  0
   56.7400   23.8110   47.7170 C   0  0  0  0  0  0  0  0  0  0  0  0
   57.1511   24.4947   48.4743 H   0  0  0  0  0  0  0  0  0  0  0  0
   57.9460   26.4090   47.2270 N   0  0  0  0  0  0  0  0  0  0  0  0
   56.8640   26.6380   46.4390 C   0  0  0  0  0  0  0  0  0  0  0  0
   55.9250   25.7410   46.3710 N   0  0  0  0  0  0  0  0  0  0  0  0
   57.7660   19.6470   47.7370 C   0  0  0  0  0  0  0  0  0  0  0  0
   57.8134   18.6174   47.3527 H   0  0  0  0  0  0  0  0  0  0  0  0
   58.6494   20.2248   47.4276 H   0  0  0  0  0  0  0  0  0  0  0  0
   57.7360   19.6040   49.2780 C   0  0  0  0  0  0  0  0  0  0  0  0
   57.5478   18.5673   49.5939 H   0  0  0  0  0  0  0  0  0  0  0  0
   58.7085   19.9775   49.6313 H   0  0  0  0  0  0  0  0  0  0  0  0
   56.6910   20.4740   49.8740 N   0  0  0  0  0  0  0  0  0  0  0  0
   56.3390   21.1490   49.1550 H   0  0  0  0  0  0  0  0  0  0  0  0
   57.2710   21.2650   50.9740 C   0  0  0  0  0  0  0  0  0  0  0  0
   56.9576   20.8376   51.9379 H   0  0  0  0  0  0  0  0  0  0  0  0
   58.3685   21.2428   50.9026 H   0  0  0  0  0  0  0  0  0  0  0  0
   56.9199   22.3050   50.9026 H   0  0  0  0  0  0  0  0  0  0  0  0
   55.5490   19.6890   50.3810 C   0  0  0  0  0  0  0  0  0  0  0  0
   55.5589   19.6958   51.4809 H   0  0  0  0  0  0  0  0  0  0  0  0
   54.6096   20.1332   50.0200 H   0  0  0  0  0  0  0  0  0  0  0  0
   55.6272   18.6529   50.0200 H   0  0  0  0  0  0  0  0  0  0  0  0
   55.7520   22.0590   45.8060 C   0  0  0  0  0  0  0  0  0  0  0  0
   55.3627   21.3574   45.0536 H   0  0  0  0  0  0  0  0  0  0  0  0
   55.6040   23.4360   45.6270 C   0  0  0  0  0  0  0  0  0  0  0  0
   55.1160   23.8202   44.7191 H   0  0  0  0  0  0  0  0  0  0  0  0
   56.8030   27.7810   45.7030 N   0  0  0  0  0  0  0  0  0  0  0  0
   57.7890   28.7160   45.7420 C   0  0  0  0  0  0  0  0  0  0  0  0
   57.6620   29.9520   44.9340 C   0  0  0  0  0  0  0  0  0  0  0  0
   57.3490   30.0290   43.5760 C   0  0  0  0  0  0  0  0  0  0  0  0
   57.1276   29.1639   42.9336 H   0  0  0  0  0  0  0  0  0  0  0  0
   57.3560   31.3170   43.1600 N   0  0  0  0  0  0  0  0  0  0  0  0
   57.0240   31.7790   41.8120 C   0  0  0  0  0  0  0  0  0  0  0  0
   56.2015   32.5071   41.8705 H   0  0  0  0  0  0  0  0  0  0  0  0
   56.7205   30.9149   41.2027 H   0  0  0  0  0  0  0  0  0  0  0  0
   58.2350   32.4400   41.1650 C   0  0  0  0  0  0  0  0  0  0  0  0
   58.9129   32.8100   41.9483 H   0  0  0  0  0  0  0  0  0  0  0  0
   58.7634   31.7052   40.5398 H   0  0  0  0  0  0  0  0  0  0  0  0
   57.9028   33.2819   40.5398 H   0  0  0  0  0  0  0  0  0  0  0  0
   57.6520   32.0660   44.2420 C   0  0  0  0  0  0  0  0  0  0  0  0
   57.7480   33.4590   44.3190 C   0  0  0  0  0  0  0  0  0  0  0  0
   57.5840   34.0876   43.4314 H   0  0  0  0  0  0  0  0  0  0  0  0
   58.0600   34.0320   45.5630 C   0  0  0  0  0  0  0  0  0  0  0  0
   58.1505   35.1245   45.6540 H   0  0  0  0  0  0  0  0  0  0  0  0
   58.2580   33.2160   46.6960 C   0  0  0  0  0  0  0  0  0  0  0  0
   58.4995   33.6768   47.6652 H   0  0  0  0  0  0  0  0  0  0  0  0
   58.1490   31.8180   46.5960 C   0  0  0  0  0  0  0  0  0  0  0  0
   58.2938   31.1748   47.4765 H   0  0  0  0  0  0  0  0  0  0  0  0
   57.8510   31.2680   45.3440 C   0  0  0  0  0  0  0  0  0  0  0  0
   58.9030   28.4890   46.5630 C   0  0  0  0  0  0  0  0  0  0  0  0
   59.7165   29.2271   46.6213 H   0  0  0  0  0  0  0  0  0  0  0  0
  1  2  1  0
  2  3  1  0
  3  4  1  0
  4  5  2  0
  5  6  1  0
  6  7  2  0
  7  8  1  0
  7  9  1  0
  9 10  1  0
 10 11  2  0
 11 12  1  0
 12 13  1  0
 12 14  1  0
 12 15  1  0
 15 16  1  0
 15 17  1  0
 15 18  1  0
 18 19  1  0
 18 20  1  0
 20 21  1  0
 20 22  1  0
 20 23  1  0
 18 24  1  0
 24 25  1  0
 24 26  1  0
 24 27  1  0
 10 28  1  0
 28 29  1  0
 28 30  2  0
 30 31  1  0
  4 32  1  0
 32 33  2  0
 33 34  1  0
 34 35  2  0
 35 36  1  0
 35 37  1  0
 37 38  1  0
 38 39  1  0
 38 40  1  0
 38 41  1  0
 41 42  1  0
 41 43  1  0
 41 44  1  0
 37 45  1  0
 45 46  2  0
 46 47  1  0
 46 48  1  0
 48 49  1  0
 48 50  2  0
 50 51  1  0
 50 52  1  0
 52 53  1  0
 52 54  2  0
 33 55  1  0
 55 56  1  0
 55  2  2  0
 30  6  1  0
 54 34  1  0
 54 45  1  0
M  CHG  3   3  -1   9  -1  18   1
M  END
>  <UniqueID>  (41) 
40

>  <SMILES>  (41) 
CCn1cc(-c2cc[n-]/c(=N/c3cc/c(=N\CC[NH+](C)C)[n-]c3)n2)c2ccccc21

>  <Energy>  (41) 
101.46974428846731

>  <Genealogy>  (41) 
CCn1cc(-c2cc[n-]c(=Nc3ccc(=NCC[NH+](C)C)[n-]c3)n2)c2ccccc21 (protonated)
CCn1cc(-c2cc[n-]/c(=N/c3cc/c(=N\CC[NH+](C)C)[n-]c3)n2)c2ccccc21 (cis-trans isomerization)
CCn1cc(-c2cc[n-]/c(=N/c3cc/c(=N\CC[NH+](C)C)[n-]c3)n2)c2ccccc21 (3D coordinates assigned)
CCn1cc(-c2cc[n-]/c(=N/c3cc/c(=N\CC[NH+](C)C)[n-]c3)n2)c2ccccc21 (optimized conformer: 101.46974428846731 kcal/mol)

>  <smiles>  (41) 
CCn1cc(-c2cc[nH]c(=Nc3ccc(=NCCN(C)C)[nH]c3)n2)c2ccccc21

>  <score_type>  (41) 
oracle

>  <origin>  (41) 
adg

>  <m_score__min__energy>  (41) 
-9.2899999999999991

>  <m_primary>  (41) 
energy

$$$$
41:0
     RDKit          3D

 50 52  0  0  0  0  0  0  0  0999 V2000
   51.6700   23.8000   44.5090 C   0  0  0  0  0  0  0  0  0  0  0  0
   52.8200   22.9850   44.7110 O   0  0  0  0  0  0  0  0  0  0  0  0
   54.0450   23.4530   45.2120 C   0  0  0  0  0  0  0  0  0  0  0  0
   55.0820   22.5350   45.3930 C   0  0  0  0  0  0  0  0  0  0  0  0
   56.3240   22.9510   45.8740 C   0  0  0  0  0  0  0  0  0  0  0  0
   56.5480   24.3030   46.1970 C   0  0  0  0  0  0  0  0  0  0  0  0
   57.8030   24.7610   46.6290 O   0  0  0  0  0  0  0  0  0  0  0  0
   59.0390   24.4580   45.9900 C   0  0  0  0  0  0  0  0  0  0  0  0
   55.4920   25.2260   46.0520 C   0  0  0  0  0  0  0  0  0  0  0  0
   55.6580   26.6140   46.3700 N   0  0  0  0  0  0  0  0  0  0  0  0
   56.3760   27.5580   45.5670 C   0  0  0  0  0  0  0  0  0  0  0  0
   55.8500   28.6570   45.2440 O   0  0  0  0  0  0  0  0  0  0  0  0
   57.7230   27.1950   45.0280 C   0  0  0  0  0  0  0  0  0  0  0  0
   58.1910   28.1640   43.9300 C   0  0  0  0  0  0  0  0  0  0  0  0
   58.1270   29.6240   44.3620 C   0  0  0  0  0  0  0  0  0  0  0  0
   57.2550   30.5560   43.7040 C   0  0  0  0  0  0  0  0  0  0  0  0
   56.2940   30.1270   42.6230 C   0  0  0  0  0  0  0  0  0  0  0  0
   57.2710   31.8780   44.0610 N   0  0  0  0  0  0  0  0  0  0  0  0
   58.0890   32.2900   45.0530 C   0  0  0  0  0  0  0  0  0  0  0  0
   58.1870   33.5500   45.5120 N   0  0  0  0  0  0  0  0  0  0  0  0
   59.1020   33.3890   46.5030 C   0  0  0  0  0  0  0  0  0  0  0  0
   59.6230   34.5160   47.3270 C   0  0  0  0  0  0  0  0  0  0  0  0
   59.5420   32.1140   46.6260 N   0  0  0  0  0  0  0  0  0  0  0  0
   58.8820   31.4420   45.7030 N   0  0  0  0  0  0  0  0  0  0  0  0
   58.9530   30.1150   45.4170 C   0  0  0  0  0  0  0  0  0  0  0  0
   59.8330   29.2140   46.2480 C   0  0  0  0  0  0  0  0  0  0  0  0
   54.2610   24.8040   45.5370 C   0  0  0  0  0  0  0  0  0  0  0  0
   51.2538   24.0949   45.4836 H   0  0  0  0  0  0  0  0  0  0  0  0
   51.9532   24.7001   43.9437 H   0  0  0  0  0  0  0  0  0  0  0  0
   50.9146   23.2345   43.9437 H   0  0  0  0  0  0  0  0  0  0  0  0
   54.9180   21.4739   45.1541 H   0  0  0  0  0  0  0  0  0  0  0  0
   57.1338   22.2176   46.0017 H   0  0  0  0  0  0  0  0  0  0  0  0
   59.8092   24.2692   46.7523 H   0  0  0  0  0  0  0  0  0  0  0  0
   58.9174   23.5631   45.3621 H   0  0  0  0  0  0  0  0  0  0  0  0
   59.3451   25.3077   45.3621 H   0  0  0  0  0  0  0  0  0  0  0  0
   58.4513   27.2154   45.8521 H   0  0  0  0  0  0  0  0  0  0  0  0
   57.6489   26.1917   44.5831 H   0  0  0  0  0  0  0  0  0  0  0  0
   59.2311   27.9209   43.6671 H   0  0  0  0  0  0  0  0  0  0  0  0
   57.5134   28.0433   43.0719 H   0  0  0  0  0  0  0  0  0  0  0  0
   55.3819   29.7198   43.0837 H   0  0  0  0  0  0  0  0  0  0  0  0
   56.0336   30.9943   41.9986 H   0  0  0  0  0  0  0  0  0  0  0  0
   56.7658   29.3541   41.9986 H   0  0  0  0  0  0  0  0  0  0  0  0
   56.6560   32.5740   43.5830 H   0  0  0  0  0  0  0  0  0  0  0  0
   59.5106   34.2728   48.3939 H   0  0  0  0  0  0  0  0  0  0  0  0
   60.6868   34.6767   47.0977 H   0  0  0  0  0  0  0  0  0  0  0  0
   59.0563   35.4305   47.0977 H   0  0  0  0  0  0  0  0  0  0  0  0
   59.6478   29.4037   47.3156 H   0  0  0  0  0  0  0  0  0  0  0  0
   59.6039   28.1632   46.0171 H   0  0  0  0  0  0  0  0  0  0  0  0
   60.8889   29.4183   46.0171 H   0  0  0  0  0  0  0  0  0  0  0  0
   53.4544   25.5364   45.3849 H   0  0  0  0  0  0  0  0  0  0  0  0
  1  2  1  0
  2  3  1  0
  3  4  2  0
  4  5  1  0
  5  6  2  0
  6  7  1  0
  7  8  1  0
  6  9  1  0
  9 10  1  0
 10 11  1  0
 11 12  2  0
 11 13  1  0
 13 14  1  0
 14 15  1  0
 15 16  1  0
 16 17  1  0
 16 18  2  0
 18 19  1  0
 19 20  2  0
 20 21  1  0
 21 22  1  0
 21 23  2  0
 23 24  1  0
 24 25  1  0
 25 26  1  0
  9 27  2  0
 27  3  1  0
 25 15  2  0
 24 19  1  0
  1 28  1  0
  1 29  1  0
  1 30  1  0
  4 31  1  0
  5 32  1  0
  8 33  1  0
  8 34  1  0
  8 35  1  0
 13 36  1  0
 13 37  1  0
 14 38  1  0
 14 39  1  0
 17 40  1  0
 17 41  1  0
 17 42  1  0
 18 43  1  0
 22 44  1  0
 22 45  1  0
 22 46  1  0
 26 47  1  0
 26 48  1  0
 26 49  1  0
 27 50  1  0
M  CHG  2  10  -1  18   1
M  END
>  <UniqueID>  (42) 
41

>  <SMILES>  (42) 
COc1ccc(OC)c([N-]C(=O)CCc2c(C)[nH+]c3nc(C)nn3c2C)c1

>  <Energy>  (42) 
92.8060536034701

>  <Genealogy>  (42) 
COc1ccc(OC)c([N-]C(=O)CCc2c(C)[nH+]c3nc(C)nn3c2C)c1 (protonated)
COc1ccc(OC)c([N-]C(=O)CCc2c(C)[nH+]c3nc(C)nn3c2C)c1 (3D coordinates assigned)
COc1ccc(OC)c([N-]C(=O)CCc2c(C)[nH+]c3nc(C)nn3c2C)c1 (optimized conformer: 92.8060536034701 kcal/mol)

>  <smiles>  (42) 
COc1ccc(OC)c(NC(=O)CCc2c(C)nc3nc(C)nn3c2C)c1

>  <score_type>  (42) 
oracle

>  <origin>  (42) 
adg

>  <m_score__min__energy>  (42) 
-8.9100000000000001

>  <m_primary>  (42) 
energy

$$$$
42:0
     RDKit          3D

 35 37  0  0  0  0  0  0  0  0999 V2000
   60.5853   35.6790   46.4109 H   0  0  0  0  0  0  0  0  0  0  0  0
   59.8580   34.9740   45.9820 C   0  0  0  0  0  0  0  0  0  0  0  0
   58.8960   35.3300   45.1020 N   0  0  0  0  0  0  0  0  0  0  0  0
   58.2650   34.1620   44.8740 C   0  0  0  0  0  0  0  0  0  0  0  0
   57.4087   34.0416   44.1942 H   0  0  0  0  0  0  0  0  0  0  0  0
   58.8170   33.1610   45.5850 N   0  0  0  0  0  0  0  0  0  0  0  0
   58.4600   31.7670   45.5710 C   0  0  0  0  0  0  0  0  0  0  0  0
   57.9470   31.2060   44.3920 C   0  0  0  0  0  0  0  0  0  0  0  0
   57.8336   31.8337   43.4958 H   0  0  0  0  0  0  0  0  0  0  0  0
   57.5790   29.8610   44.3430 C   0  0  0  0  0  0  0  0  0  0  0  0
   57.1664   29.4428   43.4130 H   0  0  0  0  0  0  0  0  0  0  0  0
   57.7300   29.0370   45.4680 C   0  0  0  0  0  0  0  0  0  0  0  0
   57.3220   27.6110   45.3970 C   0  0  0  0  0  0  0  0  0  0  0  0
   56.0480   27.2630   45.7260 N   0  0  0  0  0  0  0  0  0  0  0  0
   55.6170   25.9720   45.6730 C   0  0  0  0  0  0  0  0  0  0  0  0
   54.3970   25.6600   45.9940 N   0  0  0  0  0  0  0  0  0  0  0  0
   53.7420   24.4190   45.5960 C   0  0  0  0  0  0  0  0  0  0  0  0
   53.4453   23.8568   46.4937 H   0  0  0  0  0  0  0  0  0  0  0  0
   52.8491   24.6514   44.9971 H   0  0  0  0  0  0  0  0  0  0  0  0
   54.4377   23.8129   44.9971 H   0  0  0  0  0  0  0  0  0  0  0  0
   56.5050   24.9750   45.2650 C   0  0  0  0  0  0  0  0  0  0  0  0
   56.1776   23.9258   45.2197 H   0  0  0  0  0  0  0  0  0  0  0  0
   57.7780   25.3110   44.9240 N   0  0  0  0  0  0  0  0  0  0  0  0
   58.4370   24.5660   44.6090 H   0  0  0  0  0  0  0  0  0  0  0  0
   58.2060   26.6020   44.9760 C   0  0  0  0  0  0  0  0  0  0  0  0
   59.2378   26.8545   44.6902 H   0  0  0  0  0  0  0  0  0  0  0  0
   58.2510   29.5940   46.6520 C   0  0  0  0  0  0  0  0  0  0  0  0
   58.3622   28.9617   47.5452 H   0  0  0  0  0  0  0  0  0  0  0  0
   58.6320   30.9500   46.7090 C   0  0  0  0  0  0  0  0  0  0  0  0
   59.2030   31.5030   47.8670 O   0  0  0  0  0  0  0  0  0  0  0  0
   58.5180   32.3440   48.7900 C   0  0  0  0  0  0  0  0  0  0  0  0
   58.7661   32.0394   49.8175 H   0  0  0  0  0  0  0  0  0  0  0  0
   58.8258   33.3883   48.6327 H   0  0  0  0  0  0  0  0  0  0  0  0
   57.4330   32.2539   48.6327 H   0  0  0  0  0  0  0  0  0  0  0  0
   59.8270   33.6610   46.2750 N   0  0  0  0  0  0  0  0  0  0  0  0
  1  2  1  0
  2  3  1  0
  3  4  2  0
  4  5  1  0
  4  6  1  0
  6  7  1  0
  7  8  2  0
  8  9  1  0
  8 10  1  0
 10 11  1  0
 10 12  2  0
 12 13  1  0
 13 14  1  0
 14 15  1  0
 15 16  2  0
 16 17  1  0
 17 18  1  0
 17 19  1  0
 17 20  1  0
 15 21  1  0
 21 22  1  0
 21 23  2  0
 23 24  1  0
 23 25  1  0
 25 26  1  0
 12 27  1  0
 27 28  1  0
 27 29  2  0
 29 30  1  0
 30 31  1  0
 31 32  1  0
 31 33  1  0
 31 34  1  0
  6 35  1  0
 35  2  2  0
 29  7  1  0
 25 13  2  0
M  CHG  2  14  -1  23   1
M  END
>  <UniqueID>  (43) 
42

>  <SMILES>  (43) 
C/N=c1/c[nH+]cc(-c2ccc(-n3cncn3)c(OC)c2)[n-]1

>  <Energy>  (43) 
77.88049734320167

>  <Genealogy>  (43) 
CN=c1c[nH+]cc(-c2ccc(-n3cncn3)c(OC)c2)[n-]1 (protonated)
C/N=c1/c[nH+]cc(-c2ccc(-n3cncn3)c(OC)c2)[n-]1 (cis-trans isomerization)
C/N=c1/c[nH+]cc(-c2ccc(-n3cncn3)c(OC)c2)[n-]1 (3D coordinates assigned)
C/N=c1/c[nH+]cc(-c2ccc(-n3cncn3)c(OC)c2)[n-]1 (optimized conformer: 77.88049734320167 kcal/mol)

>  <smiles>  (43) 
CN=c1cncc(-c2ccc(-n3cncn3)c(OC)c2)[nH]1

>  <score_type>  (43) 
oracle

>  <origin>  (43) 
adg

>  <m_score__min__energy>  (43) 
-6.4000000000000004

>  <m_primary>  (43) 
energy

$$$$
43:0
     RDKit          3D

 45 47  0  0  0  0  0  0  0  0999 V2000
   60.8310   30.2870   48.8760 C   0  0  0  0  0  0  0  0  0  0  0  0
   60.5810   30.5590   47.5020 O   0  0  0  0  0  0  0  0  0  0  0  0
   60.0250   29.6410   46.5960 C   0  0  0  0  0  0  0  0  0  0  0  0
   60.3650   28.2750   46.6200 C   0  0  0  0  0  0  0  0  0  0  0  0
   59.7950   27.3870   45.7060 C   0  0  0  0  0  0  0  0  0  0  0  0
   58.8760   27.8470   44.7620 C   0  0  0  0  0  0  0  0  0  0  0  0
   58.1410   26.7260   43.6300 Cl  0  0  0  0  0  0  0  0  0  0  0  0
   58.5300   29.2000   44.7270 C   0  0  0  0  0  0  0  0  0  0  0  0
   59.1090   30.1100   45.6310 C   0  0  0  0  0  0  0  0  0  0  0  0
   58.7310   31.4990   45.6210 N   0  0  0  0  0  0  0  0  0  0  0  0
   57.4170   31.9670   45.2870 C   0  0  0  0  0  0  0  0  0  0  0  0
   56.6020   31.2160   44.6860 O   0  0  0  0  0  0  0  0  0  0  0  0
   57.0140   33.3750   45.6110 C   0  0  0  0  0  0  0  0  0  0  0  0
   58.1770   34.5800   44.8780 S   0  0  0  0  0  0  0  0  0  0  0  0
   59.4650   34.3160   46.0970 C   0  0  0  0  0  0  0  0  0  0  0  0
   59.2430   34.6070   47.4410 C   0  0  0  0  0  0  0  0  0  0  0  0
   60.2620   34.3790   48.3640 C   0  0  0  0  0  0  0  0  0  0  0  0
   61.4900   33.8590   47.9210 C   0  0  0  0  0  0  0  0  0  0  0  0
   62.6150   33.5920   48.8540 C   0  0  0  0  0  0  0  0  0  0  0  0
   63.6230   32.6790   48.4900 C   0  0  0  0  0  0  0  0  0  0  0  0
   64.6840   32.4070   49.3590 C   0  0  0  0  0  0  0  0  0  0  0  0
   64.7470   33.0240   50.6140 C   0  0  0  0  0  0  0  0  0  0  0  0
   65.9060   32.7600   51.5300 C   0  0  0  0  0  0  0  0  0  0  0  0
   63.7500   33.9390   50.9830 C   0  0  0  0  0  0  0  0  0  0  0  0
   62.6880   34.2140   50.1160 C   0  0  0  0  0  0  0  0  0  0  0  0
   61.6500   33.6150   46.5910 N   0  0  0  0  0  0  0  0  0  0  0  0
   60.6730   33.8340   45.7100 N   0  0  0  0  0  0  0  0  0  0  0  0
   60.2177   30.9543   49.4994 H   0  0  0  0  0  0  0  0  0  0  0  0
   60.5730   29.2404   49.0954 H   0  0  0  0  0  0  0  0  0  0  0  0
   61.8956   30.4560   49.0954 H   0  0  0  0  0  0  0  0  0  0  0  0
   61.0851   27.9047   47.3645 H   0  0  0  0  0  0  0  0  0  0  0  0
   60.0709   26.3224   45.7300 H   0  0  0  0  0  0  0  0  0  0  0  0
   57.7989   29.5571   43.9867 H   0  0  0  0  0  0  0  0  0  0  0  0
   59.4610   32.2160   45.8360 H   0  0  0  0  0  0  0  0  0  0  0  0
   56.0059   33.5607   45.2119 H   0  0  0  0  0  0  0  0  0  0  0  0
   57.0269   33.4985   46.7040 H   0  0  0  0  0  0  0  0  0  0  0  0
   58.2747   35.0120   47.7700 H   0  0  0  0  0  0  0  0  0  0  0  0
   60.1065   34.6040   49.4294 H   0  0  0  0  0  0  0  0  0  0  0  0
   63.5754   32.1752   47.5133 H   0  0  0  0  0  0  0  0  0  0  0  0
   65.4737   31.7042   49.0548 H   0  0  0  0  0  0  0  0  0  0  0  0
   65.5720   32.8361   52.5753 H   0  0  0  0  0  0  0  0  0  0  0  0
   66.2983   31.7495   51.3431 H   0  0  0  0  0  0  0  0  0  0  0  0
   66.6973   33.5009   51.3431 H   0  0  0  0  0  0  0  0  0  0  0  0
   63.8038   34.4428   51.9594 H   0  0  0  0  0  0  0  0  0  0  0  0
   61.9033   34.9216   50.4217 H   0  0  0  0  0  0  0  0  0  0  0  0
  1  2  1  0
  2  3  1  0
  3  4  2  0
  4  5  1  0
  5  6  2  0
  6  7  1  0
  6  8  1  0
  8  9  2  0
  9 10  1  0
 10 11  1  0
 11 12  2  0
 11 13  1  0
 13 14  1  0
 14 15  1  0
 15 16  2  0
 16 17  1  0
 17 18  2  0
 18 19  1  0
 19 20  2  0
 20 21  1  0
 21 22  2  0
 22 23  1  0
 22 24  1  0
 24 25  2  0
 18 26  1  0
 26 27  2  0
  9  3  1  0
 27 15  1  0
 25 19  1  0
  1 28  1  0
  1 29  1  0
  1 30  1  0
  4 31  1  0
  5 32  1  0
  8 33  1  0
 10 34  1  0
 13 35  1  0
 13 36  1  0
 16 37  1  0
 17 38  1  0
 20 39  1  0
 21 40  1  0
 23 41  1  0
 23 42  1  0
 23 43  1  0
 24 44  1  0
 25 45  1  0
M  END
>  <UniqueID>  (44) 
43

>  <SMILES>  (44) 
COc1ccc(Cl)cc1NC(=O)CSc1ccc(-c2ccc(C)cc2)nn1

>  <Energy>  (44) 
49.18651771665208

>  <Genealogy>  (44) 
COc1ccc(Cl)cc1NC(=O)CSc1ccc(-c2ccc(C)cc2)nn1 (3D coordinates assigned)
COc1ccc(Cl)cc1NC(=O)CSc1ccc(-c2ccc(C)cc2)nn1 (optimized conformer: 49.18651771665208 kcal/mol)

>  <smiles>  (44) 
COc1ccc(Cl)cc1NC(=O)CSc1ccc(-c2ccc(C)cc2)nn1

>  <score_type>  (44) 
oracle

>  <origin>  (44) 
adg

>  <m_score__min__energy>  (44) 
-8.3900000000000006

>  <m_primary>  (44) 
energy

$$$$
44:0
     RDKit          3D

 33 35  0  0  0  0  0  0  0  0999 V2000
   58.1970   22.5070   44.6360 C   0  0  0  0  0  0  0  0  0  0  0  0
   56.7420   22.9520   44.7150 C   0  0  0  0  0  0  0  0  0  0  0  0
   56.6500   24.2890   45.3010 N   0  0  0  0  0  0  0  0  0  0  0  0
   56.0260   24.6300   46.4540 C   0  0  0  0  0  0  0  0  0  0  0  0
   56.0530   25.9660   46.7020 N   0  0  0  0  0  0  0  0  0  0  0  0
   56.7170   26.4590   45.6400 C   0  0  0  0  0  0  0  0  0  0  0  0
   57.0170   27.7920   45.3740 C   0  0  0  0  0  0  0  0  0  0  0  0
   57.7100   28.0940   44.1740 C   0  0  0  0  0  0  0  0  0  0  0  0
   58.0520   29.4450   43.8170 N   0  0  0  0  0  0  0  0  0  0  0  0
   56.9380   30.7740   43.8770 S   0  0  0  0  0  0  0  0  0  0  0  0
   55.6600   30.3230   44.5250 O   0  0  0  0  0  0  0  0  0  0  0  0
   56.6420   31.2370   42.4780 O   0  0  0  0  0  0  0  0  0  0  0  0
   57.6220   32.0840   44.8220 C   0  0  0  0  0  0  0  0  0  0  0  0
   57.7610   33.3990   44.4070 C   0  0  0  0  0  0  0  0  0  0  0  0
   58.3630   34.2130   45.3740 C   0  0  0  0  0  0  0  0  0  0  0  0
   58.6950   33.5380   46.5430 C   0  0  0  0  0  0  0  0  0  0  0  0
   58.2420   31.9270   46.3750 S   0  0  0  0  0  0  0  0  0  0  0  0
   58.0770   27.0380   43.2990 C   0  0  0  0  0  0  0  0  0  0  0  0
   57.7560   25.7030   43.6010 C   0  0  0  0  0  0  0  0  0  0  0  0
   57.0740   25.4560   44.7910 C   0  0  0  0  0  0  0  0  0  0  0  0
   58.5986   22.3842   45.6527 H   0  0  0  0  0  0  0  0  0  0  0  0
   58.2588   21.5489   44.0991 H   0  0  0  0  0  0  0  0  0  0  0  0
   58.7841   23.2666   44.0991 H   0  0  0  0  0  0  0  0  0  0  0  0
   56.3126   22.9695   43.7024 H   0  0  0  0  0  0  0  0  0  0  0  0
   56.1861   22.2452   45.3485 H   0  0  0  0  0  0  0  0  0  0  0  0
   55.5460   23.8996   47.1219 H   0  0  0  0  0  0  0  0  0  0  0  0
   56.7250   28.5883   46.0744 H   0  0  0  0  0  0  0  0  0  0  0  0
   59.0030   29.6420   43.4310 H   0  0  0  0  0  0  0  0  0  0  0  0
   57.4332   33.7643   43.4226 H   0  0  0  0  0  0  0  0  0  0  0  0
   58.5551   35.2855   45.2230 H   0  0  0  0  0  0  0  0  0  0  0  0
   59.1732   33.9824   47.4283 H   0  0  0  0  0  0  0  0  0  0  0  0
   58.6207   27.2678   42.3708 H   0  0  0  0  0  0  0  0  0  0  0  0
   58.0332   24.8828   42.9224 H   0  0  0  0  0  0  0  0  0  0  0  0
  1  2  1  0
  2  3  1  0
  3  4  1  0
  4  5  2  0
  5  6  1  0
  6  7  2  0
  7  8  1  0
  8  9  1  0
  9 10  1  0
 10 11  2  0
 10 12  2  0
 10 13  1  0
 13 14  2  0
 14 15  1  0
 15 16  2  0
 16 17  1  0
  8 18  2  0
 18 19  1  0
 19 20  2  0
 20  3  1  0
 20  6  1  0
 17 13  1  0
  1 21  1  0
  1 22  1  0
  1 23  1  0
  2 24  1  0
  2 25  1  0
  4 26  1  0
  7 27  1  0
  9 28  1  0
 14 29  1  0
 15 30  1  0
 16 31  1  0
 18 32  1  0
 19 33  1  0
M  END
>  <UniqueID>  (45) 
44

>  <SMILES>  (45) 
CCn1cnc2cc(NS(=O)(=O)c3cccs3)ccc21

>  <Energy>  (45) 
97.38170953905866

>  <Genealogy>  (45) 
CCn1cnc2cc(NS(=O)(=O)c3cccs3)ccc21 (3D coordinates assigned)
CCn1cnc2cc(NS(=O)(=O)c3cccs3)ccc21 (optimized conformer: 97.38170953905866 kcal/mol)

>  <smiles>  (45) 
CCn1cnc2cc(NS(=O)(=O)c3cccs3)ccc21

>  <score_type>  (45) 
oracle

>  <origin>  (45) 
adg

>  <m_score__min__energy>  (45) 
-7.6100000000000003

>  <m_primary>  (45) 
energy

$$$$
45:0
     RDKit          3D

 42 43  0  0  0  0  0  0  0  0999 V2000
   63.2440   32.3140   47.1850 C   0  0  0  0  0  0  0  0  0  0  0  0
   63.3200   33.7170   47.7820 C   0  0  0  0  0  0  0  0  0  0  0  0
   63.7080   33.6630   49.2080 N   0  0  0  0  0  0  0  0  0  0  0  0
   63.8200   32.2840   49.7390 C   0  0  0  0  0  0  0  0  0  0  0  0
   65.2490   32.0300   50.1970 C   0  0  0  0  0  0  0  0  0  0  0  0
   62.8770   34.5450   50.0600 C   0  0  0  0  0  0  0  0  0  0  0  0
   61.7550   33.8060   50.8070 C   0  0  0  0  0  0  0  0  0  0  0  0
   60.4950   34.2220   50.2870 O   0  0  0  0  0  0  0  0  0  0  0  0
   59.9460   33.7670   49.0790 C   0  0  0  0  0  0  0  0  0  0  0  0
   60.0340   34.5950   47.9550 C   0  0  0  0  0  0  0  0  0  0  0  0
   59.5040   34.1880   46.7290 C   0  0  0  0  0  0  0  0  0  0  0  0
   58.8780   32.9350   46.5990 C   0  0  0  0  0  0  0  0  0  0  0  0
   58.3150   32.5230   45.2870 C   0  0  0  0  0  0  0  0  0  0  0  0
   58.6970   33.1510   44.0860 C   0  0  0  0  0  0  0  0  0  0  0  0
   58.1350   32.7290   42.8800 C   0  0  0  0  0  0  0  0  0  0  0  0
   57.1980   31.6960   42.8710 C   0  0  0  0  0  0  0  0  0  0  0  0
   56.8320   31.0990   44.0790 C   0  0  0  0  0  0  0  0  0  0  0  0
   55.5460   29.6910   44.1050 Br  0  0  0  0  0  0  0  0  0  0  0  0
   57.3900   31.5230   45.2430 N   0  0  0  0  0  0  0  0  0  0  0  0
   58.7800   32.1080   47.7340 C   0  0  0  0  0  0  0  0  0  0  0  0
   59.3110   32.5180   48.9600 C   0  0  0  0  0  0  0  0  0  0  0  0
   63.2038   31.5721   47.9961 H   0  0  0  0  0  0  0  0  0  0  0  0
   62.3399   32.2281   46.5644 H   0  0  0  0  0  0  0  0  0  0  0  0
   64.1335   32.1309   46.5644 H   0  0  0  0  0  0  0  0  0  0  0  0
   64.0666   34.3044   47.2275 H   0  0  0  0  0  0  0  0  0  0  0  0
   62.3280   34.1861   47.7050 H   0  0  0  0  0  0  0  0  0  0  0  0
   63.1350   32.1627   50.5911 H   0  0  0  0  0  0  0  0  0  0  0  0
   63.5552   31.5651   48.9497 H   0  0  0  0  0  0  0  0  0  0  0  0
   65.2860   32.0234   51.2964 H   0  0  0  0  0  0  0  0  0  0  0  0
   65.5897   31.0572   49.8128 H   0  0  0  0  0  0  0  0  0  0  0  0
   65.9041   32.8258   49.8128 H   0  0  0  0  0  0  0  0  0  0  0  0
   63.5304   35.0259   50.8029 H   0  0  0  0  0  0  0  0  0  0  0  0
   62.3928   35.2729   49.3923 H   0  0  0  0  0  0  0  0  0  0  0  0
   61.8714   32.7212   50.6664 H   0  0  0  0  0  0  0  0  0  0  0  0
   61.8081   34.0402   51.8805 H   0  0  0  0  0  0  0  0  0  0  0  0
   60.5252   35.5757   48.0377 H   0  0  0  0  0  0  0  0  0  0  0  0
   59.5767   34.8537   45.8563 H   0  0  0  0  0  0  0  0  0  0  0  0
   59.4331   33.9683   44.0981 H   0  0  0  0  0  0  0  0  0  0  0  0
   58.4311   33.2112   41.9367 H   0  0  0  0  0  0  0  0  0  0  0  0
   56.7530   31.3559   41.9243 H   0  0  0  0  0  0  0  0  0  0  0  0
   58.2812   31.1308   47.6552 H   0  0  0  0  0  0  0  0  0  0  0  0
   59.2317   31.8595   49.8375 H   0  0  0  0  0  0  0  0  0  0  0  0
  1  2  1  0
  2  3  1  0
  3  4  1  0
  4  5  1  0
  3  6  1  0
  6  7  1  0
  7  8  1  0
  8  9  1  0
  9 10  2  0
 10 11  1  0
 11 12  2  0
 12 13  1  0
 13 14  2  0
 14 15  1  0
 15 16  2  0
 16 17  1  0
 17 18  1  0
 17 19  2  0
 12 20  1  0
 20 21  2  0
 21  9  1  0
 19 13  1  0
  1 22  1  0
  1 23  1  0
  1 24  1  0
  2 25  1  0
  2 26  1  0
  4 27  1  0
  4 28  1  0
  5 29  1  0
  5 30  1  0
  5 31  1  0
  6 32  1  0
  6 33  1  0
  7 34  1  0
  7 35  1  0
 10 36  1  0
 11 37  1  0
 14 38  1  0
 15 39  1  0
 16 40  1  0
 20 41  1  0
 21 42  1  0
M  END
>  <UniqueID>  (46) 
45

>  <SMILES>  (46) 
CCN(CC)CCOc1ccc(-c2cccc(Br)n2)cc1

>  <Energy>  (46) 
45.448378850039106

>  <Genealogy>  (46) 
CCN(CC)CCOc1ccc(-c2cccc(Br)n2)cc1 (3D coordinates assigned)
CCN(CC)CCOc1ccc(-c2cccc(Br)n2)cc1 (optimized conformer: 45.448378850039106 kcal/mol)

>  <smiles>  (46) 
CCN(CC)CCOc1ccc(-c2cccc(Br)n2)cc1

>  <score_type>  (46) 
oracle

>  <origin>  (46) 
adg

>  <m_score__min__energy>  (46) 
-6.4900000000000002

>  <m_primary>  (46) 
energy

$$$$
46:0
     RDKit          3D

 55 57  0  0  0  0  0  0  0  0999 V2000
   63.3660   33.8600   46.3920 C   0  0  0  0  0  0  0  0  0  0  0  0
   63.3650   32.7460   47.4420 C   0  0  0  0  0  0  0  0  0  0  0  0
   62.0920   32.6340   48.1870 N   0  0  0  0  0  0  0  0  0  0  0  0
   61.6800   33.8630   48.9120 C   0  0  0  0  0  0  0  0  0  0  0  0
   60.2210   33.8750   49.3920 C   0  0  0  0  0  0  0  0  0  0  0  0
   61.9140   31.3450   48.8910 C   0  0  0  0  0  0  0  0  0  0  0  0
   60.7610   30.5280   48.2890 C   0  0  0  0  0  0  0  0  0  0  0  0
   60.7790   30.5680   46.7550 C   0  0  0  0  0  0  0  0  0  0  0  0
   59.4600   30.9320   46.2310 N   0  0  0  0  0  0  0  0  0  0  0  0
   58.4690   30.1110   45.7880 C   0  0  0  0  0  0  0  0  0  0  0  0
   58.5600   28.6790   45.7780 N   0  0  0  0  0  0  0  0  0  0  0  0
   58.9150   27.9650   44.5510 C   0  0  0  0  0  0  0  0  0  0  0  0
   58.0820   26.6750   44.4100 C   0  0  0  0  0  0  0  0  0  0  0  0
   57.6900   26.0590   45.7040 N   0  0  0  0  0  0  0  0  0  0  0  0
   56.2710   26.2950   46.0190 C   0  0  0  0  0  0  0  0  0  0  0  0
   58.5750   26.4410   46.8250 C   0  0  0  0  0  0  0  0  0  0  0  0
   58.5850   27.9610   47.0530 C   0  0  0  0  0  0  0  0  0  0  0  0
   57.4090   30.7740   45.2540 N   0  0  0  0  0  0  0  0  0  0  0  0
   57.7610   32.0640   45.3910 C   0  0  0  0  0  0  0  0  0  0  0  0
   57.0420   33.1860   44.9860 C   0  0  0  0  0  0  0  0  0  0  0  0
   57.6290   34.4480   45.1880 C   0  0  0  0  0  0  0  0  0  0  0  0
   58.9110   34.5560   45.7730 C   0  0  0  0  0  0  0  0  0  0  0  0
   59.6150   33.4040   46.1650 C   0  0  0  0  0  0  0  0  0  0  0  0
   58.9950   32.1670   45.9690 C   0  0  0  0  0  0  0  0  0  0  0  0
   63.3669   34.8382   46.8952 H   0  0  0  0  0  0  0  0  0  0  0  0
   64.2641   33.7704   45.7632 H   0  0  0  0  0  0  0  0  0  0  0  0
   62.4678   33.7720   45.7632 H   0  0  0  0  0  0  0  0  0  0  0  0
   63.5556   31.7892   46.9338 H   0  0  0  0  0  0  0  0  0  0  0  0
   64.1466   32.9939   48.1753 H   0  0  0  0  0  0  0  0  0  0  0  0
   62.3299   33.9738   49.7926 H   0  0  0  0  0  0  0  0  0  0  0  0
   61.7740   34.6902   48.1930 H   0  0  0  0  0  0  0  0  0  0  0  0
   60.1968   33.8752   50.4917 H   0  0  0  0  0  0  0  0  0  0  0  0
   59.7181   34.7773   49.0140 H   0  0  0  0  0  0  0  0  0  0  0  0
   59.7033   32.9811   49.0140 H   0  0  0  0  0  0  0  0  0  0  0  0
   62.8440   30.7630   48.8112 H   0  0  0  0  0  0  0  0  0  0  0  0
   61.6733   31.5573   49.9431 H   0  0  0  0  0  0  0  0  0  0  0  0
   60.8537   29.4830   48.6197 H   0  0  0  0  0  0  0  0  0  0  0  0
   59.8129   30.9671   48.6329 H   0  0  0  0  0  0  0  0  0  0  0  0
   61.5178   31.3118   46.4218 H   0  0  0  0  0  0  0  0  0  0  0  0
   61.0460   29.5696   46.3783 H   0  0  0  0  0  0  0  0  0  0  0  0
   58.7216   28.6160   43.6857 H   0  0  0  0  0  0  0  0  0  0  0  0
   59.9804   27.6947   44.5950 H   0  0  0  0  0  0  0  0  0  0  0  0
   57.1658   26.9153   43.8507 H   0  0  0  0  0  0  0  0  0  0  0  0
   58.7182   25.9429   43.8911 H   0  0  0  0  0  0  0  0  0  0  0  0
   56.1365   26.3174   47.1105 H   0  0  0  0  0  0  0  0  0  0  0  0
   55.9556   27.2579   45.5909 H   0  0  0  0  0  0  0  0  0  0  0  0
   55.6609   25.4860   45.5909 H   0  0  0  0  0  0  0  0  0  0  0  0
   58.2221   25.9459   47.7417 H   0  0  0  0  0  0  0  0  0  0  0  0
   59.5988   26.1265   46.5744 H   0  0  0  0  0  0  0  0  0  0  0  0
   57.7003   28.2428   47.6428 H   0  0  0  0  0  0  0  0  0  0  0  0
   59.5060   28.2303   47.5908 H   0  0  0  0  0  0  0  0  0  0  0  0
   56.0486   33.0884   44.5238 H   0  0  0  0  0  0  0  0  0  0  0  0
   57.0867   35.3570   44.8887 H   0  0  0  0  0  0  0  0  0  0  0  0
   59.3611   35.5485   45.9227 H   0  0  0  0  0  0  0  0  0  0  0  0
   60.6184   33.4738   46.6103 H   0  0  0  0  0  0  0  0  0  0  0  0
  1  2  1  0
  2  3  1  0
  3  4  1  0
  4  5  1  0
  3  6  1  0
  6  7  1  0
  7  8  1  0
  8  9  1  0
  9 10  1  0
 10 11  1  0
 11 12  1  0
 12 13  1  0
 13 14  1  0
 14 15  1  0
 14 16  1  0
 16 17  1  0
 10 18  2  0
 18 19  1  0
 19 20  2  0
 20 21  1  0
 21 22  2  0
 22 23  1  0
 23 24  2  0
 24  9  1  0
 17 11  1  0
 24 19  1  0
  1 25  1  0
  1 26  1  0
  1 27  1  0
  2 28  1  0
  2 29  1  0
  4 30  1  0
  4 31  1  0
  5 32  1  0
  5 33  1  0
  5 34  1  0
  6 35  1  0
  6 36  1  0
  7 37  1  0
  7 38  1  0
  8 39  1  0
  8 40  1  0
 12 41  1  0
 12 42  1  0
 13 43  1  0
 13 44  1  0
 15 45  1  0
 15 46  1  0
 15 47  1  0
 16 48  1  0
 16 49  1  0
 17 50  1  0
 17 51  1  0
 20 52  1  0
 21 53  1  0
 22 54  1  0
 23 55  1  0
M  END
>  <UniqueID>  (47) 
46

>  <SMILES>  (47) 
CCN(CC)CCCn1c(N2CCN(C)CC2)nc2ccccc21

>  <Energy>  (47) 
104.68109460139313

>  <Genealogy>  (47) 
CCN(CC)CCCn1c(N2CCN(C)CC2)nc2ccccc21 (3D coordinates assigned)
CCN(CC)CCCn1c(N2CCN(C)CC2)nc2ccccc21 (nonaromatic ring conformer: 104.68109460139313 kcal/mol)

>  <smiles>  (47) 
CCN(CC)CCCn1c(N2CCN(C)CC2)nc2ccccc21

>  <score_type>  (47) 
oracle

>  <origin>  (47) 
adg

>  <m_score__min__energy>  (47) 
-6.7199999999999998

>  <m_primary>  (47) 
energy

$$$$
47:0
     RDKit          3D

 40 42  0  0  0  0  0  0  0  0999 V2000
   66.1340   32.5760   50.1460 C   0  0  0  0  0  0  0  0  0  0  0  0
   64.6920   32.4020   49.6830 C   0  0  0  0  0  0  0  0  0  0  0  0
   64.2110   33.5940   49.0640 O   0  0  0  0  0  0  0  0  0  0  0  0
   62.9450   33.7580   48.4750 C   0  0  0  0  0  0  0  0  0  0  0  0
   62.7280   33.6460   47.0890 C   0  0  0  0  0  0  0  0  0  0  0  0
   61.4460   33.8200   46.5590 C   0  0  0  0  0  0  0  0  0  0  0  0
   60.3580   34.1030   47.4000 C   0  0  0  0  0  0  0  0  0  0  0  0
   58.9690   34.2890   46.8140 C   0  0  1  0  0  0  0  0  0  0  0  0
   59.0300   34.7360   45.3370 C   0  0  0  0  0  0  0  0  0  0  0  0
   58.5250   33.5560   44.6080 C   0  0  0  0  0  0  0  0  0  0  0  0
   58.5210   33.4610   43.3520 O   0  0  0  0  0  0  0  0  0  0  0  0
   58.0210   32.5430   45.4610 N   0  0  0  0  0  0  0  0  0  0  0  0
   57.8160   31.1780   45.0660 C   0  0  0  0  0  0  0  0  0  0  0  0
   56.6820   30.8350   44.3090 C   0  0  0  0  0  0  0  0  0  0  0  0
   56.4790   29.5160   43.8940 C   0  0  0  0  0  0  0  0  0  0  0  0
   57.4060   28.5280   44.2310 C   0  0  0  0  0  0  0  0  0  0  0  0
   58.5350   28.8560   44.9860 C   0  0  0  0  0  0  0  0  0  0  0  0
   58.7460   30.1740   45.4060 C   0  0  0  0  0  0  0  0  0  0  0  0
   60.1520   30.5240   46.4020 Cl  0  0  0  0  0  0  0  0  0  0  0  0
   58.1550   32.9690   46.8460 C   0  0  0  0  0  0  0  0  0  0  0  0
   60.5780   34.2080   48.7860 C   0  0  0  0  0  0  0  0  0  0  0  0
   61.8600   34.0360   49.3140 C   0  0  0  0  0  0  0  0  0  0  0  0
   66.1681   32.5801   51.2455 H   0  0  0  0  0  0  0  0  0  0  0  0
   66.7448   31.7450   49.7633 H   0  0  0  0  0  0  0  0  0  0  0  0
   66.5296   33.5284   49.7633 H   0  0  0  0  0  0  0  0  0  0  0  0
   64.6429   31.5749   48.9595 H   0  0  0  0  0  0  0  0  0  0  0  0
   64.0646   32.1821   50.5593 H   0  0  0  0  0  0  0  0  0  0  0  0
   63.5711   33.4205   46.4194 H   0  0  0  0  0  0  0  0  0  0  0  0
   61.2884   33.7344   45.4737 H   0  0  0  0  0  0  0  0  0  0  0  0
   58.4858   35.0591   47.4332 H   0  0  0  0  0  0  0  0  0  0  0  0
   58.3880   35.6121   45.1629 H   0  0  0  0  0  0  0  0  0  0  0  0
   60.0379   35.0413   45.0193 H   0  0  0  0  0  0  0  0  0  0  0  0
   55.9492   31.6105   44.0414 H   0  0  0  0  0  0  0  0  0  0  0  0
   55.5890   29.2564   43.3020 H   0  0  0  0  0  0  0  0  0  0  0  0
   57.2474   27.4904   43.9019 H   0  0  0  0  0  0  0  0  0  0  0  0
   59.2617   28.0741   45.2516 H   0  0  0  0  0  0  0  0  0  0  0  0
   57.1635   33.1427   47.2895 H   0  0  0  0  0  0  0  0  0  0  0  0
   58.6566   32.2026   47.4551 H   0  0  0  0  0  0  0  0  0  0  0  0
   59.7351   34.4269   49.4580 H   0  0  0  0  0  0  0  0  0  0  0  0
   62.0180   34.1199   50.3994 H   0  0  0  0  0  0  0  0  0  0  0  0
  1  2  1  0
  2  3  1  0
  3  4  1  0
  4  5  2  0
  5  6  1  0
  6  7  2  0
  7  8  1  0
  8  9  1  0
  9 10  1  0
 10 11  2  0
 10 12  1  0
 12 13  1  0
 13 14  2  0
 14 15  1  0
 15 16  2  0
 16 17  1  0
 17 18  2  0
 18 19  1  0
 12 20  1  0
  7 21  1  0
 21 22  2  0
 22  4  1  0
 20  8  1  0
 18 13  1  0
  1 23  1  0
  1 24  1  0
  1 25  1  0
  2 26  1  0
  2 27  1  0
  5 28  1  0
  6 29  1  0
  8 30  1  1
  9 31  1  0
  9 32  1  0
 14 33  1  0
 15 34  1  0
 16 35  1  0
 17 36  1  0
 20 37  1  0
 20 38  1  0
 21 39  1  0
 22 40  1  0
M  END
>  <UniqueID>  (48) 
47

>  <SMILES>  (48) 
CCOc1ccc([C@H]2CC(=O)N(c3ccccc3Cl)C2)cc1

>  <Energy>  (48) 
54.53770243486631

>  <Genealogy>  (48) 
CCOc1ccc([C@H]2CC(=O)N(c3ccccc3Cl)C2)cc1 (chirality)
CCOc1ccc([C@H]2CC(=O)N(c3ccccc3Cl)C2)cc1 (3D coordinates assigned)
CCOc1ccc([C@H]2CC(=O)N(c3ccccc3Cl)C2)cc1 (nonaromatic ring conformer: 54.53770243486631 kcal/mol)

>  <smiles>  (48) 
CCOc1ccc(C2CC(=O)N(c3ccccc3Cl)C2)cc1

>  <score_type>  (48) 
oracle

>  <origin>  (48) 
adg

>  <m_score__min__energy>  (48) 
-7.6900000000000004

>  <m_primary>  (48) 
energy

$$$$
