0:0
     RDKit          3D

 47 46  0  0  0  0  0  0  0  0999 V2000
   57.7130   26.6550   45.1100 C   0  0  0  0  0  0  0  0  0  0  0  0
   57.2480   27.4900   46.2980 C   0  0  0  0  0  0  0  0  0  0  0  0
   58.0020   28.7460   46.3660 N   0  0  0  0  0  0  0  0  0  0  0  0
   59.3000   28.5980   45.6950 C   0  0  0  0  0  0  0  0  0  0  0  0
   60.4580   28.8300   46.6790 C   0  0  0  0  0  0  0  0  0  0  0  0
   60.7940   30.3190   46.8980 C   0  0  0  0  0  0  0  0  0  0  0  0
   59.6360   31.1930   46.6250 N   0  0  0  0  0  0  0  0  0  0  0  0
   59.6830   32.4550   47.3920 C   0  0  0  0  0  0  0  0  0  0  0  0
   58.9250   33.6150   46.7140 C   0  0  0  0  0  0  0  0  0  0  0  0
   57.4040   33.3680   46.6280 C   0  0  0  0  0  0  0  0  0  0  0  0
   57.0090   32.7140   45.3000 C   0  0  0  0  0  0  0  0  0  0  0  0
   57.4430   31.3090   45.2870 N   0  0  0  0  0  0  0  0  0  0  0  0
   57.8260   30.8520   43.9430 C   0  0  0  0  0  0  0  0  0  0  0  0
   56.6220   30.7760   42.9850 C   0  0  0  0  0  0  0  0  0  0  0  0
   55.6070   29.7160   43.4270 C   0  0  0  0  0  0  0  0  0  0  0  0
   55.4650   29.7040   44.8820 N   0  0  0  0  0  0  0  0  0  0  0  0
   58.2180   25.7482   45.4744 H   0  0  0  0  0  0  0  0  0  0  0  0
   56.8436   26.3702   44.4993 H   0  0  0  0  0  0  0  0  0  0  0  0
   58.4129   27.2442   44.4993 H   0  0  0  0  0  0  0  0  0  0  0  0
   56.1773   27.7156   46.1856 H   0  0  0  0  0  0  0  0  0  0  0  0
   57.4190   26.9204   47.2234 H   0  0  0  0  0  0  0  0  0  0  0  0
   57.4560   29.4770   45.8500 H   0  0  0  0  0  0  0  0  0  0  0  0
   59.3774   27.5816   45.2814 H   0  0  0  0  0  0  0  0  0  0  0  0
   59.3669   29.3467   44.8919 H   0  0  0  0  0  0  0  0  0  0  0  0
   60.1837   28.3892   47.6488 H   0  0  0  0  0  0  0  0  0  0  0  0
   61.3511   28.3589   46.2426 H   0  0  0  0  0  0  0  0  0  0  0  0
   61.1087   30.4622   47.9422 H   0  0  0  0  0  0  0  0  0  0  0  0
   61.5983   30.5923   46.1991 H   0  0  0  0  0  0  0  0  0  0  0  0
   58.7580   30.6900   46.8990 H   0  0  0  0  0  0  0  0  0  0  0  0
   59.5850   31.3950   45.6030 H   0  0  0  0  0  0  0  0  0  0  0  0
   59.2361   32.2781   48.3814 H   0  0  0  0  0  0  0  0  0  0  0  0
   60.7395   32.7540   47.4592 H   0  0  0  0  0  0  0  0  0  0  0  0
   59.0994   34.5342   47.2926 H   0  0  0  0  0  0  0  0  0  0  0  0
   59.3046   33.7014   45.6852 H   0  0  0  0  0  0  0  0  0  0  0  0
   57.1032   32.7068   47.4541 H   0  0  0  0  0  0  0  0  0  0  0  0
   56.8949   34.3407   46.6954 H   0  0  0  0  0  0  0  0  0  0  0  0
   55.9164   32.7596   45.1814 H   0  0  0  0  0  0  0  0  0  0  0  0
   57.4949   33.2514   44.4723 H   0  0  0  0  0  0  0  0  0  0  0  0
   56.6690   30.7070   45.6570 H   0  0  0  0  0  0  0  0  0  0  0  0
   58.5643   31.5539   43.5280 H   0  0  0  0  0  0  0  0  0  0  0  0
   58.2437   29.8389   44.0389 H   0  0  0  0  0  0  0  0  0  0  0  0
   56.1244   31.7567   42.9605 H   0  0  0  0  0  0  0  0  0  0  0  0
   56.9956   30.4963   41.9889 H   0  0  0  0  0  0  0  0  0  0  0  0
   54.6310   29.9401   42.9718 H   0  0  0  0  0  0  0  0  0  0  0  0
   55.9656   28.7286   43.1008 H   0  0  0  0  0  0  0  0  0  0  0  0
   56.3710   29.3850   45.2980 H   0  0  0  0  0  0  0  0  0  0  0  0
   55.3240   30.6910   45.1950 H   0  0  0  0  0  0  0  0  0  0  0  0
  1  2  1  0
  2  3  1  0
  3  4  1  0
  4  5  1  0
  5  6  1  0
  6  7  1  0
  7  8  1  0
  8  9  1  0
  9 10  1  0
 10 11  1  0
 11 12  1  0
 12 13  1  0
 13 14  1  0
 14 15  1  0
 15 16  1  0
  1 17  1  0
  1 18  1  0
  1 19  1  0
  2 20  1  0
  2 21  1  0
  3 22  1  0
  4 23  1  0
  4 24  1  0
  5 25  1  0
  5 26  1  0
  6 27  1  0
  6 28  1  0
  7 29  1  0
  7 30  1  0
  8 31  1  0
  8 32  1  0
  9 33  1  0
  9 34  1  0
 10 35  1  0
 10 36  1  0
 11 37  1  0
 11 38  1  0
 12 39  1  0
 13 40  1  0
 13 41  1  0
 14 42  1  0
 14 43  1  0
 15 44  1  0
 15 45  1  0
 16 46  1  0
 16 47  1  0
M  CHG  1   7   1
M  END
>  <UniqueID>  (1) 
1

>  <SMILES>  (1) 
CCNCCC[NH2+]CCCCNCCCN

>  <Energy>  (1) 
25.196642386138112

>  <Genealogy>  (1) 
CCNCCC[NH2+]CCCCNCCCN (protonated)
CCNCCC[NH2+]CCCCNCCCN (3D coordinates assigned)
CCNCCC[NH2+]CCCCNCCCN (optimized conformer: 25.196642386138112 kcal/mol)

>  <smiles>  (1) 
CCNCCCNCCCCNCCCN

>  <score_type>  (1) 
oracle

>  <origin>  (1) 
adg

>  <m_score__min__energy>  (1) 
-2.2000000000000002

>  <m_primary>  (1) 
energy

$$$$
1:0
     RDKit          3D

 69 71  0  0  0  0  0  0  0  0999 V2000
   62.6770   33.8270   46.4150 C   0  0  0  0  0  0  0  0  0  0  0  0
   63.3280   33.2490   47.6770 C   0  0  0  0  0  0  0  0  0  0  0  0
   62.4650   32.2420   48.3540 N   0  0  0  0  0  0  0  0  0  0  0  0
   63.1330   31.5800   49.5090 C   0  0  0  0  0  0  0  0  0  0  0  0
   64.4710   32.2100   49.9330 C   0  0  0  0  0  0  0  0  0  0  0  0
   61.9330   31.2450   47.3830 C   0  0  0  0  0  0  0  0  0  0  0  0
   61.1850   30.0800   48.0700 C   0  0  0  0  0  0  0  0  0  0  0  0
   59.7320   30.1940   47.8950 N   0  0  0  0  0  0  0  0  0  0  0  0
   59.0870   29.9500   46.6360 C   0  0  0  0  0  0  0  0  0  0  0  0
   58.7830   28.6360   46.2120 C   0  0  0  0  0  0  0  0  0  0  0  0
   59.1800   27.5220   46.9790 C   0  0  0  0  0  0  0  0  0  0  0  0
   58.8810   26.2270   46.5610 C   0  0  0  0  0  0  0  0  0  0  0  0
   58.1890   26.0190   45.3730 C   0  0  0  0  0  0  0  0  0  0  0  0
   57.7760   27.1030   44.5970 C   0  0  0  0  0  0  0  0  0  0  0  0
   58.0540   28.4320   44.9960 C   0  0  0  0  0  0  0  0  0  0  0  0
   57.6400   29.5150   44.2390 N   0  0  0  0  0  0  0  0  0  0  0  0
   56.8720   29.3270   42.9950 C   0  0  0  0  0  0  0  0  0  0  0  0
   57.9810   30.7740   44.6600 C   0  0  0  0  0  0  0  0  0  0  0  0
   57.7210   32.2390   43.8640 S   0  0  0  0  0  0  0  0  0  0  0  0
   58.5270   33.1890   45.0010 C   0  0  0  0  0  0  0  0  0  0  0  0
   58.8920   34.6300   44.8060 C   0  0  0  0  0  0  0  0  0  0  0  0
   59.6530   35.1440   45.9570 N   0  0  0  0  0  0  0  0  0  0  0  0
   58.9100   35.0360   47.2270 C   0  0  0  0  0  0  0  0  0  0  0  0
   59.7830   34.3470   48.2860 C   0  0  0  0  0  0  0  0  0  0  0  0
   59.0530   33.1470   48.9290 C   0  0  0  0  0  0  0  0  0  0  0  0
   59.8740   32.3890   49.9010 N   0  0  0  0  0  0  0  0  0  0  0  0
   59.0870   31.4240   50.6850 C   0  0  0  0  0  0  0  0  0  0  0  0
   60.6740   33.2600   50.7760 C   0  0  0  0  0  0  0  0  0  0  0  0
   59.0150   32.3690   46.0160 C   0  0  0  0  0  0  0  0  0  0  0  0
   58.7000   31.0150   45.8200 C   0  0  0  0  0  0  0  0  0  0  0  0
   61.8829   34.5320   46.7021 H   0  0  0  0  0  0  0  0  0  0  0  0
   63.4368   34.3535   45.8187 H   0  0  0  0  0  0  0  0  0  0  0  0
   62.2442   33.0102   45.8187 H   0  0  0  0  0  0  0  0  0  0  0  0
   64.2768   32.7685   47.3960 H   0  0  0  0  0  0  0  0  0  0  0  0
   63.4878   34.0792   48.3807 H   0  0  0  0  0  0  0  0  0  0  0  0
   61.6540   32.7580   48.7650 H   0  0  0  0  0  0  0  0  0  0  0  0
   62.4484   31.6213   50.3690 H   0  0  0  0  0  0  0  0  0  0  0  0
   63.3644   30.5547   49.1847 H   0  0  0  0  0  0  0  0  0  0  0  0
   64.5313   32.2384   51.0310 H   0  0  0  0  0  0  0  0  0  0  0  0
   65.3018   31.6084   49.5356 H   0  0  0  0  0  0  0  0  0  0  0  0
   64.5366   33.2336   49.5356 H   0  0  0  0  0  0  0  0  0  0  0  0
   61.2374   31.7555   46.7007 H   0  0  0  0  0  0  0  0  0  0  0  0
   62.7913   30.8161   46.8450 H   0  0  0  0  0  0  0  0  0  0  0  0
   61.5241   29.1299   47.6315 H   0  0  0  0  0  0  0  0  0  0  0  0
   61.4061   30.1161   49.1469 H   0  0  0  0  0  0  0  0  0  0  0  0
   59.1630   30.5760   48.6830 H   0  0  0  0  0  0  0  0  0  0  0  0
   59.7319   27.6768   47.9178 H   0  0  0  0  0  0  0  0  0  0  0  0
   59.1930   25.3673   47.1721 H   0  0  0  0  0  0  0  0  0  0  0  0
   57.9657   24.9938   45.0428 H   0  0  0  0  0  0  0  0  0  0  0  0
   57.2264   26.9217   43.6616 H   0  0  0  0  0  0  0  0  0  0  0  0
   55.8308   29.0721   43.2419 H   0  0  0  0  0  0  0  0  0  0  0  0
   56.8925   30.2567   42.4074 H   0  0  0  0  0  0  0  0  0  0  0  0
   57.3196   28.5119   42.4074 H   0  0  0  0  0  0  0  0  0  0  0  0
   59.5055   34.7256   43.8980 H   0  0  0  0  0  0  0  0  0  0  0  0
   57.9657   35.2154   44.7098 H   0  0  0  0  0  0  0  0  0  0  0  0
   60.5190   34.5610   46.0380 H   0  0  0  0  0  0  0  0  0  0  0  0
   58.6380   36.0426   47.5772 H   0  0  0  0  0  0  0  0  0  0  0  0
   57.9996   34.4403   47.0646 H   0  0  0  0  0  0  0  0  0  0  0  0
   60.7075   33.9891   47.8092 H   0  0  0  0  0  0  0  0  0  0  0  0
   60.0074   35.0781   49.0767 H   0  0  0  0  0  0  0  0  0  0  0  0
   58.1612   33.5245   49.4506 H   0  0  0  0  0  0  0  0  0  0  0  0
   58.8060   32.4520   48.1129 H   0  0  0  0  0  0  0  0  0  0  0  0
   59.2401   31.6118   51.7580 H   0  0  0  0  0  0  0  0  0  0  0  0
   58.0203   31.5371   50.4415 H   0  0  0  0  0  0  0  0  0  0  0  0
   59.4123   30.4018   50.4415 H   0  0  0  0  0  0  0  0  0  0  0  0
   60.4561   33.0228   51.8278 H   0  0  0  0  0  0  0  0  0  0  0  0
   61.7435   33.0967   50.5772 H   0  0  0  0  0  0  0  0  0  0  0  0
   60.4206   34.3118   50.5772 H   0  0  0  0  0  0  0  0  0  0  0  0
   59.5861   32.7425   46.8788 H   0  0  0  0  0  0  0  0  0  0  0  0
  1  2  1  0
  2  3  1  0
  3  4  1  0
  4  5  1  0
  3  6  1  0
  6  7  1  0
  7  8  1  0
  8  9  1  0
  9 10  2  0
 10 11  1  0
 11 12  2  0
 12 13  1  0
 13 14  2  0
 14 15  1  0
 15 16  2  0
 16 17  1  0
 16 18  1  0
 18 19  1  0
 19 20  1  0
 20 21  1  0
 21 22  1  0
 22 23  1  0
 23 24  1  0
 24 25  1  0
 25 26  1  0
 26 27  1  0
 26 28  1  0
 20 29  2  0
 29 30  1  0
 30  9  1  0
 15 10  1  0
 30 18  2  0
  1 31  1  0
  1 32  1  0
  1 33  1  0
  2 34  1  0
  2 35  1  0
  3 36  1  0
  4 37  1  0
  4 38  1  0
  5 39  1  0
  5 40  1  0
  5 41  1  0
  6 42  1  0
  6 43  1  0
  7 44  1  0
  7 45  1  0
  8 46  1  0
 11 47  1  0
 12 48  1  0
 13 49  1  0
 14 50  1  0
 17 51  1  0
 17 52  1  0
 17 53  1  0
 21 54  1  0
 21 55  1  0
 22 56  1  0
 23 57  1  0
 23 58  1  0
 24 59  1  0
 24 60  1  0
 25 61  1  0
 25 62  1  0
 27 63  1  0
 27 64  1  0
 27 65  1  0
 28 66  1  0
 28 67  1  0
 28 68  1  0
 29 69  1  0
M  CHG  2   3   1  16   1
M  END
>  <UniqueID>  (2) 
2

>  <SMILES>  (2) 
CC[NH+](CC)CCNc1c2ccccc2[n+](C)c2sc(CNCCCN(C)C)cc12

>  <Energy>  (2) 
113.02829934797582

>  <Genealogy>  (2) 
CC[NH+](CC)CCNc1c2ccccc2[n+](C)c2sc(CNCCCN(C)C)cc12 (protonated)
CC[NH+](CC)CCNc1c2ccccc2[n+](C)c2sc(CNCCCN(C)C)cc12 (3D coordinates assigned)
CC[NH+](CC)CCNc1c2ccccc2[n+](C)c2sc(CNCCCN(C)C)cc12 (optimized conformer: 113.02829934797582 kcal/mol)

>  <smiles>  (2) 
CCN(CC)CCNc1c2ccccc2[n+](C)c2sc(CNCCCN(C)C)cc12

>  <score_type>  (2) 
oracle

>  <origin>  (2) 
adg

>  <m_score__min__energy>  (2) 
-6.2800000000000002

>  <m_primary>  (2) 
energy

$$$$
2:0
     RDKit          3D

 54 56  0  0  0  0  0  0  0  0999 V2000
   58.6050   32.4760   50.8100 C   0  0  0  0  0  0  0  0  0  0  0  0
   59.7430   33.4570   51.0150 C   0  0  0  0  0  0  0  0  0  0  0  0
   60.8680   33.1110   50.1370 N   0  0  0  0  0  0  0  0  0  0  0  0
   61.8140   34.2210   50.0030 C   0  0  0  0  0  0  0  0  0  0  0  0
   63.1920   33.7700   49.4880 C   0  0  0  0  0  0  0  0  0  0  0  0
   63.2190   32.3580   49.3530 O   0  0  0  0  0  0  0  0  0  0  0  0
   63.6640   31.9840   48.0700 C   0  0  0  0  0  0  0  0  0  0  0  0
   62.4630   31.7190   47.1570 C   0  0  0  0  0  0  0  0  0  0  0  0
   61.1670   31.9400   47.8500 N   0  0  0  0  0  0  0  0  0  0  0  0
   60.0240   31.4230   47.1090 C   0  0  0  0  0  0  0  0  0  0  0  0
   59.2610   32.3110   46.2960 C   0  0  0  0  0  0  0  0  0  0  0  0
   59.4420   33.7170   46.3340 C   0  0  0  0  0  0  0  0  0  0  0  0
   58.5950   34.5720   45.6380 C   0  0  0  0  0  0  0  0  0  0  0  0
   57.5540   34.0540   44.8810 C   0  0  0  0  0  0  0  0  0  0  0  0
   57.4070   32.6760   44.7530 C   0  0  0  0  0  0  0  0  0  0  0  0
   58.3010   31.7850   45.3960 C   0  0  0  0  0  0  0  0  0  0  0  0
   58.2800   30.4380   45.1220 N   0  0  0  0  0  0  0  0  0  0  0  0
   57.6300   29.9530   43.8780 C   0  0  0  0  0  0  0  0  0  0  0  0
   58.8990   29.5480   45.9760 C   0  0  0  0  0  0  0  0  0  0  0  0
   58.7150   28.1550   45.8030 C   0  0  0  0  0  0  0  0  0  0  0  0
   59.3600   27.2360   46.6100 C   0  0  0  0  0  0  0  0  0  0  0  0
   60.1100   27.6650   47.6840 C   0  0  0  0  0  0  0  0  0  0  0  0
   60.2370   29.0310   47.9780 C   0  0  0  0  0  0  0  0  0  0  0  0
   60.7680   29.3290   49.3550 C   0  0  0  0  0  0  0  0  0  0  0  0
   59.7280   30.0140   47.0530 C   0  0  0  0  0  0  0  0  0  0  0  0
   58.2236   32.1473   51.7880 H   0  0  0  0  0  0  0  0  0  0  0  0
   57.7965   32.9648   50.2466 H   0  0  0  0  0  0  0  0  0  0  0  0
   58.9693   31.6043   50.2466 H   0  0  0  0  0  0  0  0  0  0  0  0
   59.3951   34.4733   50.7781 H   0  0  0  0  0  0  0  0  0  0  0  0
   60.0750   33.4113   52.0627 H   0  0  0  0  0  0  0  0  0  0  0  0
   61.3670   32.2730   50.5150 H   0  0  0  0  0  0  0  0  0  0  0  0
   61.3976   34.9546   49.2970 H   0  0  0  0  0  0  0  0  0  0  0  0
   61.9596   34.6551   51.0032 H   0  0  0  0  0  0  0  0  0  0  0  0
   63.3852   34.2336   48.5094 H   0  0  0  0  0  0  0  0  0  0  0  0
   63.9658   34.0799   50.2057 H   0  0  0  0  0  0  0  0  0  0  0  0
   64.2732   32.7951   47.6447 H   0  0  0  0  0  0  0  0  0  0  0  0
   64.2671   31.0675   48.1493 H   0  0  0  0  0  0  0  0  0  0  0  0
   62.5209   32.3952   46.2914 H   0  0  0  0  0  0  0  0  0  0  0  0
   62.5028   30.6644   46.8469 H   0  0  0  0  0  0  0  0  0  0  0  0
   61.2040   31.4730   48.7850 H   0  0  0  0  0  0  0  0  0  0  0  0
   61.0190   32.9370   48.1070 H   0  0  0  0  0  0  0  0  0  0  0  0
   60.2680   34.1390   46.9252 H   0  0  0  0  0  0  0  0  0  0  0  0
   58.7503   35.6599   45.6875 H   0  0  0  0  0  0  0  0  0  0  0  0
   56.8455   34.7319   44.3825 H   0  0  0  0  0  0  0  0  0  0  0  0
   56.5847   32.2729   44.1437 H   0  0  0  0  0  0  0  0  0  0  0  0
   56.7732   29.3137   44.1372 H   0  0  0  0  0  0  0  0  0  0  0  0
   57.2805   30.8129   43.2876 H   0  0  0  0  0  0  0  0  0  0  0  0
   58.3548   29.3732   43.2876 H   0  0  0  0  0  0  0  0  0  0  0  0
   58.0440   27.7958   45.0089 H   0  0  0  0  0  0  0  0  0  0  0  0
   59.2745   26.1607   46.3946 H   0  0  0  0  0  0  0  0  0  0  0  0
   60.6169   26.9248   48.3205 H   0  0  0  0  0  0  0  0  0  0  0  0
   60.0702   28.9374   50.1098 H   0  0  0  0  0  0  0  0  0  0  0  0
   61.7504   28.8504   49.4806 H   0  0  0  0  0  0  0  0  0  0  0  0
   60.8713   30.4169   49.4806 H   0  0  0  0  0  0  0  0  0  0  0  0
  1  2  1  0
  2  3  1  0
  3  4  1  0
  4  5  1  0
  5  6  1  0
  6  7  1  0
  7  8  1  0
  8  9  1  0
  9 10  1  0
 10 11  2  0
 11 12  1  0
 12 13  2  0
 13 14  1  0
 14 15  2  0
 15 16  1  0
 16 17  2  0
 17 18  1  0
 17 19  1  0
 19 20  2  0
 20 21  1  0
 21 22  2  0
 22 23  1  0
 23 24  1  0
 23 25  2  0
 25 10  1  0
 16 11  1  0
 25 19  1  0
  1 26  1  0
  1 27  1  0
  1 28  1  0
  2 29  1  0
  2 30  1  0
  3 31  1  0
  4 32  1  0
  4 33  1  0
  5 34  1  0
  5 35  1  0
  7 36  1  0
  7 37  1  0
  8 38  1  0
  8 39  1  0
  9 40  1  0
  9 41  1  0
 12 42  1  0
 13 43  1  0
 14 44  1  0
 15 45  1  0
 18 46  1  0
 18 47  1  0
 18 48  1  0
 20 49  1  0
 21 50  1  0
 22 51  1  0
 24 52  1  0
 24 53  1  0
 24 54  1  0
M  CHG  2   9   1  17   1
M  END
>  <UniqueID>  (3) 
3

>  <SMILES>  (3) 
CCNCCOCC[NH2+]c1c2ccccc2[n+](C)c2cccc(C)c12

>  <Energy>  (3) 
100.96865790872401

>  <Genealogy>  (3) 
CCNCCOCC[NH2+]c1c2ccccc2[n+](C)c2cccc(C)c12 (protonated)
CCNCCOCC[NH2+]c1c2ccccc2[n+](C)c2cccc(C)c12 (3D coordinates assigned)
CCNCCOCC[NH2+]c1c2ccccc2[n+](C)c2cccc(C)c12 (optimized conformer: 100.96865790872401 kcal/mol)

>  <smiles>  (3) 
CCNCCOCCNc1c2ccccc2[n+](C)c2cccc(C)c12

>  <score_type>  (3) 
oracle

>  <origin>  (3) 
adg

>  <m_score__min__energy>  (3) 
-3.3199999999999998

>  <m_primary>  (3) 
energy

$$$$
3:0
     RDKit          3D

 40 41  0  0  0  0  0  0  0  0999 V2000
   58.1520   29.6770   50.2840 O   0  0  0  0  0  0  0  0  0  0  0  0
   59.2830   29.7970   49.7710 N   0  0  0  0  0  0  0  0  0  0  0  0
   60.3080   30.3010   50.5380 O   0  0  0  0  0  0  0  0  0  0  0  0
   59.4480   29.6900   48.3490 C   0  0  0  0  0  0  0  0  0  0  0  0
   58.4320   29.0760   47.5980 C   0  0  0  0  0  0  0  0  0  0  0  0
   58.5400   28.9550   46.2080 C   0  0  0  0  0  0  0  0  0  0  0  0
   57.2790   28.1470   45.2780 S   0  0  0  0  0  0  0  0  0  0  0  0
   57.7600   27.8720   43.8790 O   0  0  0  0  0  0  0  0  0  0  0  0
   56.9500   26.8360   45.9340 O   0  0  0  0  0  0  0  0  0  0  0  0
   55.8510   29.1320   45.2260 N   0  0  0  0  0  0  0  0  0  0  0  0
   55.7000   29.7180   43.8970 C   0  0  0  0  0  0  0  0  0  0  0  0
   56.6380   30.8810   43.7620 C   0  0  0  0  0  0  0  0  0  0  0  0
   57.1880   31.2040   42.5100 C   0  0  0  0  0  0  0  0  0  0  0  0
   58.0900   32.2670   42.3900 C   0  0  0  0  0  0  0  0  0  0  0  0
   58.4580   33.0030   43.5200 C   0  0  0  0  0  0  0  0  0  0  0  0
   57.9290   32.6760   44.7710 C   0  0  0  0  0  0  0  0  0  0  0  0
   57.0260   31.6150   44.8950 C   0  0  0  0  0  0  0  0  0  0  0  0
   59.6690   29.4550   45.5570 C   0  0  0  0  0  0  0  0  0  0  0  0
   60.6780   30.0860   46.2830 C   0  0  0  0  0  0  0  0  0  0  0  0
   60.5920   30.2110   47.6820 C   0  0  0  0  0  0  0  0  0  0  0  0
   61.6170   30.9510   48.3860 N   0  0  0  0  0  0  0  0  0  0  0  0
   62.5320   31.5880   47.4250 C   0  0  0  0  0  0  0  0  0  0  0  0
   62.4680   33.1160   47.5160 C   0  0  0  0  0  0  0  0  0  0  0  0
   60.8020   33.8010   46.7940 Br  0  0  0  0  0  0  0  0  0  0  0  0
   57.5398   28.6852   48.1092 H   0  0  0  0  0  0  0  0  0  0  0  0
   55.9373   28.9632   43.1328 H   0  0  0  0  0  0  0  0  0  0  0  0
   54.6638   30.0606   43.7594 H   0  0  0  0  0  0  0  0  0  0  0  0
   56.9085   30.6192   41.6212 H   0  0  0  0  0  0  0  0  0  0  0  0
   58.5096   32.5236   41.4061 H   0  0  0  0  0  0  0  0  0  0  0  0
   59.1648   33.8404   43.4241 H   0  0  0  0  0  0  0  0  0  0  0  0
   58.2230   33.2537   45.6597 H   0  0  0  0  0  0  0  0  0  0  0  0
   56.6184   31.3546   45.8830 H   0  0  0  0  0  0  0  0  0  0  0  0
   59.7630   29.3506   44.4660 H   0  0  0  0  0  0  0  0  0  0  0  0
   61.5535   30.4918   45.7550 H   0  0  0  0  0  0  0  0  0  0  0  0
   61.1910   31.6670   49.0140 H   0  0  0  0  0  0  0  0  0  0  0  0
   62.1590   30.3010   49.0030 H   0  0  0  0  0  0  0  0  0  0  0  0
   63.5599   31.2600   47.6390 H   0  0  0  0  0  0  0  0  0  0  0  0
   62.2288   31.2899   46.4105 H   0  0  0  0  0  0  0  0  0  0  0  0
   62.5502   33.4152   48.5713 H   0  0  0  0  0  0  0  0  0  0  0  0
   63.2976   33.5324   46.9257 H   0  0  0  0  0  0  0  0  0  0  0  0
  1  2  2  0
  2  3  1  0
  2  4  1  0
  4  5  2  0
  5  6  1  0
  6  7  1  0
  7  8  2  0
  7  9  2  0
  7 10  1  0
 10 11  1  0
 11 12  1  0
 12 13  2  0
 13 14  1  0
 14 15  2  0
 15 16  1  0
 16 17  2  0
  6 18  2  0
 18 19  1  0
 19 20  2  0
 20 21  1  0
 21 22  1  0
 22 23  1  0
 23 24  1  0
 20  4  1  0
 17 12  1  0
  5 25  1  0
 11 26  1  0
 11 27  1  0
 13 28  1  0
 14 29  1  0
 15 30  1  0
 16 31  1  0
 17 32  1  0
 18 33  1  0
 19 34  1  0
 21 35  1  0
 21 36  1  0
 22 37  1  0
 22 38  1  0
 23 39  1  0
 23 40  1  0
M  CHG  4   2   1   3  -1  10  -1  21   1
M  END
>  <UniqueID>  (4) 
4

>  <SMILES>  (4) 
O=[N+]([O-])c1cc(S(=O)(=O)[N-]Cc2ccccc2)ccc1[NH2+]CCBr

>  <Energy>  (4) 
43.144144868744824

>  <Genealogy>  (4) 
O=[N+]([O-])c1cc(S(=O)(=O)[N-]Cc2ccccc2)ccc1[NH2+]CCBr (protonated)
O=[N+]([O-])c1cc(S(=O)(=O)[N-]Cc2ccccc2)ccc1[NH2+]CCBr (3D coordinates assigned)
O=[N+]([O-])c1cc(S(=O)(=O)[N-]Cc2ccccc2)ccc1[NH2+]CCBr (optimized conformer: 43.144144868744824 kcal/mol)

>  <smiles>  (4) 
O=[N+]([O-])c1cc(S(=O)(=O)NCc2ccccc2)ccc1NCCBr

>  <score_type>  (4) 
oracle

>  <origin>  (4) 
adg

>  <m_score__min__energy>  (4) 
-8.0899999999999999

>  <m_primary>  (4) 
energy

$$$$
4:0
     RDKit          3D

 66 68  0  0  0  0  0  0  0  0999 V2000
   56.9260   26.4330   46.2570 C   0  0  0  0  0  0  0  0  0  0  0  0
   58.4410   26.2980   46.4210 C   0  0  0  0  0  0  0  0  0  0  0  0
   59.1050   27.6140   46.2880 N   0  0  0  0  0  0  0  0  0  0  0  0
   59.6520   27.8330   44.9230 C   0  0  0  0  0  0  0  0  0  0  0  0
   60.7550   28.8970   44.8490 C   0  0  0  0  0  0  0  0  0  0  0  0
   60.0770   27.8540   47.3800 C   0  0  0  0  0  0  0  0  0  0  0  0
   59.8880   29.2370   48.0200 C   0  0  0  0  0  0  0  0  0  0  0  0
   58.5260   29.7470   47.7920 N   0  0  0  0  0  0  0  0  0  0  0  0
   58.5820   30.9810   47.0270 C   0  0  0  0  0  0  0  0  0  0  0  0
   58.0440   31.0690   45.7080 C   0  0  0  0  0  0  0  0  0  0  0  0
   57.3910   29.9690   45.1020 C   0  0  0  0  0  0  0  0  0  0  0  0
   56.9230   30.0480   43.7900 C   0  0  0  0  0  0  0  0  0  0  0  0
   57.0940   31.2130   43.0520 C   0  0  0  0  0  0  0  0  0  0  0  0
   57.7060   32.3220   43.6300 C   0  0  0  0  0  0  0  0  0  0  0  0
   58.1610   32.2960   44.9730 C   0  0  0  0  0  0  0  0  0  0  0  0
   58.7040   33.4200   45.5700 N   0  0  0  0  0  0  0  0  0  0  0  0
   58.7750   34.7160   44.8660 C   0  0  0  0  0  0  0  0  0  0  0  0
   59.2020   33.3140   46.8410 C   0  0  0  0  0  0  0  0  0  0  0  0
   60.0170   34.5000   47.7310 S   0  0  0  0  0  0  0  0  0  0  0  0
   60.2900   33.5240   49.0770 C   0  0  0  0  0  0  0  0  0  0  0  0
   61.1500   33.8950   50.2530 C   0  0  0  0  0  0  0  0  0  0  0  0
   62.3080   32.9920   50.3870 N   0  0  0  0  0  0  0  0  0  0  0  0
   63.5950   33.6840   50.1870 C   0  0  0  0  0  0  0  0  0  0  0  0
   64.1430   33.4310   48.7760 C   0  0  0  0  0  0  0  0  0  0  0  0
   63.0740   33.0550   47.8230 N   0  0  0  0  0  0  0  0  0  0  0  0
   63.1750   33.8450   46.5830 C   0  0  0  0  0  0  0  0  0  0  0  0
   63.1910   31.6240   47.4980 C   0  0  0  0  0  0  0  0  0  0  0  0
   59.7460   32.2650   48.8510 C   0  0  0  0  0  0  0  0  0  0  0  0
   59.1520   32.1400   47.5780 C   0  0  0  0  0  0  0  0  0  0  0  0
   56.4521   26.4752   47.2488 H   0  0  0  0  0  0  0  0  0  0  0  0
   56.6980   27.3550   45.7021 H   0  0  0  0  0  0  0  0  0  0  0  0
   56.5385   25.5658   45.7021 H   0  0  0  0  0  0  0  0  0  0  0  0
   58.6602   25.8827   47.4157 H   0  0  0  0  0  0  0  0  0  0  0  0
   58.8220   25.6305   45.6341 H   0  0  0  0  0  0  0  0  0  0  0  0
   60.0669   26.8807   44.5611 H   0  0  0  0  0  0  0  0  0  0  0  0
   58.8191   28.1985   44.3044 H   0  0  0  0  0  0  0  0  0  0  0  0
   61.0546   29.1860   45.8672 H   0  0  0  0  0  0  0  0  0  0  0  0
   61.6241   28.4875   44.3134 H   0  0  0  0  0  0  0  0  0  0  0  0
   60.3770   29.7803   44.3134 H   0  0  0  0  0  0  0  0  0  0  0  0
   59.9416   27.0829   48.1527 H   0  0  0  0  0  0  0  0  0  0  0  0
   61.0892   27.8118   46.9513 H   0  0  0  0  0  0  0  0  0  0  0  0
   60.0653   29.1586   49.1028 H   0  0  0  0  0  0  0  0  0  0  0  0
   60.6030   29.9347   47.5596 H   0  0  0  0  0  0  0  0  0  0  0  0
   57.9650   29.0250   47.2900 H   0  0  0  0  0  0  0  0  0  0  0  0
   58.0220   29.8880   48.6950 H   0  0  0  0  0  0  0  0  0  0  0  0
   57.2506   29.0394   45.6731 H   0  0  0  0  0  0  0  0  0  0  0  0
   56.4158   29.1833   43.3372 H   0  0  0  0  0  0  0  0  0  0  0  0
   56.7454   31.2591   42.0097 H   0  0  0  0  0  0  0  0  0  0  0  0
   57.8392   33.2364   43.0332 H   0  0  0  0  0  0  0  0  0  0  0  0
   58.8197   35.5315   45.6028 H   0  0  0  0  0  0  0  0  0  0  0  0
   59.6759   34.7418   44.2354 H   0  0  0  0  0  0  0  0  0  0  0  0
   57.8823   34.8401   44.2354 H   0  0  0  0  0  0  0  0  0  0  0  0
   61.5140   34.9242   50.1181 H   0  0  0  0  0  0  0  0  0  0  0  0
   60.5405   33.8093   51.1647 H   0  0  0  0  0  0  0  0  0  0  0  0
   62.2230   32.2420   49.6650 H   0  0  0  0  0  0  0  0  0  0  0  0
   63.4475   34.7650   50.3270 H   0  0  0  0  0  0  0  0  0  0  0  0
   64.3188   33.2954   50.9185 H   0  0  0  0  0  0  0  0  0  0  0  0
   64.6329   34.3477   48.4160 H   0  0  0  0  0  0  0  0  0  0  0  0
   64.8551   32.5946   48.8339 H   0  0  0  0  0  0  0  0  0  0  0  0
   63.3108   34.9071   46.8350 H   0  0  0  0  0  0  0  0  0  0  0  0
   64.0357   33.4949   45.9943 H   0  0  0  0  0  0  0  0  0  0  0  0
   62.2539   33.7227   45.9943 H   0  0  0  0  0  0  0  0  0  0  0  0
   63.2388   31.0394   48.4286 H   0  0  0  0  0  0  0  0  0  0  0  0
   62.3157   31.3085   46.9113 H   0  0  0  0  0  0  0  0  0  0  0  0
   64.1060   31.4549   46.9113 H   0  0  0  0  0  0  0  0  0  0  0  0
   59.7757   31.4500   49.5891 H   0  0  0  0  0  0  0  0  0  0  0  0
  1  2  1  0
  2  3  1  0
  3  4  1  0
  4  5  1  0
  3  6  1  0
  6  7  1  0
  7  8  1  0
  8  9  1  0
  9 10  2  0
 10 11  1  0
 11 12  2  0
 12 13  1  0
 13 14  2  0
 14 15  1  0
 15 16  2  0
 16 17  1  0
 16 18  1  0
 18 19  1  0
 19 20  1  0
 20 21  1  0
 21 22  1  0
 22 23  1  0
 23 24  1  0
 24 25  1  0
 25 26  1  0
 25 27  1  0
 20 28  2  0
 28 29  1  0
 29  9  1  0
 15 10  1  0
 29 18  2  0
  1 30  1  0
  1 31  1  0
  1 32  1  0
  2 33  1  0
  2 34  1  0
  4 35  1  0
  4 36  1  0
  5 37  1  0
  5 38  1  0
  5 39  1  0
  6 40  1  0
  6 41  1  0
  7 42  1  0
  7 43  1  0
  8 44  1  0
  8 45  1  0
 11 46  1  0
 12 47  1  0
 13 48  1  0
 14 49  1  0
 17 50  1  0
 17 51  1  0
 17 52  1  0
 21 53  1  0
 21 54  1  0
 22 55  1  0
 23 56  1  0
 23 57  1  0
 24 58  1  0
 24 59  1  0
 26 60  1  0
 26 61  1  0
 26 62  1  0
 27 63  1  0
 27 64  1  0
 27 65  1  0
 28 66  1  0
M  CHG  2   8   1  16   1
M  END
>  <UniqueID>  (5) 
5

>  <SMILES>  (5) 
CCN(CC)CC[NH2+]c1c2ccccc2[n+](C)c2sc(CNCCN(C)C)cc12

>  <Energy>  (5) 
113.08498932756753

>  <Genealogy>  (5) 
CCN(CC)CC[NH2+]c1c2ccccc2[n+](C)c2sc(CNCCN(C)C)cc12 (protonated)
CCN(CC)CC[NH2+]c1c2ccccc2[n+](C)c2sc(CNCCN(C)C)cc12 (3D coordinates assigned)
CCN(CC)CC[NH2+]c1c2ccccc2[n+](C)c2sc(CNCCN(C)C)cc12 (optimized conformer: 113.08498932756753 kcal/mol)

>  <smiles>  (5) 
CCN(CC)CCNc1c2ccccc2[n+](C)c2sc(CNCCN(C)C)cc12

>  <score_type>  (5) 
oracle

>  <origin>  (5) 
adg

>  <m_score__min__energy>  (5) 
-5.0199999999999996

>  <m_primary>  (5) 
energy

$$$$
5:0
     RDKit          3D

 55 56  0  0  0  0  0  0  0  0999 V2000
   57.7160   31.9540   42.5390 C   0  0  0  0  0  0  0  0  0  0  0  0
   56.9320   31.0070   43.4590 C   0  0  0  0  0  0  0  0  0  0  0  0
   57.0860   31.2970   44.9050 N   0  0  0  0  0  0  0  0  0  0  0  0
   58.3970   30.8920   45.4620 C   0  0  0  0  0  0  0  0  0  0  0  0
   58.9120   29.6080   44.8150 C   0  0  0  0  0  0  0  0  0  0  0  0
   56.7570   32.7000   45.2390 C   0  0  0  0  0  0  0  0  0  0  0  0
   58.0410   33.5050   45.4540 C   0  0  0  0  0  0  0  0  0  0  0  0
   57.9890   34.1820   46.6980 O   0  0  0  0  0  0  0  0  0  0  0  0
   59.1910   34.8850   46.9570 C   0  0  0  0  0  0  0  0  0  0  0  0
   60.3910   34.0980   46.3970 C   0  0  0  0  0  0  0  0  0  0  0  0
   61.3870   33.4900   47.4360 C   0  0  0  0  0  0  0  0  0  0  0  0
   60.8120   32.0960   47.8020 C   0  0  0  0  0  0  0  0  0  0  0  0
   59.6750   31.9890   48.6380 C   0  0  0  0  0  0  0  0  0  0  0  0
   59.1210   30.7440   48.9450 C   0  0  0  0  0  0  0  0  0  0  0  0
   59.6640   29.5810   48.4040 C   0  0  0  0  0  0  0  0  0  0  0  0
   60.7530   29.6610   47.5390 C   0  0  0  0  0  0  0  0  0  0  0  0
   61.3150   30.9030   47.2270 C   0  0  0  0  0  0  0  0  0  0  0  0
   62.8300   33.4200   46.8490 C   0  0  0  0  0  0  0  0  0  0  0  0
   63.8920   32.8910   47.8440 C   0  0  0  0  0  0  0  0  0  0  0  0
   63.3990   32.7160   49.2910 C   0  0  0  0  0  0  0  0  0  0  0  0
   62.4590   33.8360   49.7760 C   0  0  0  0  0  0  0  0  0  0  0  0
   61.5120   34.4020   48.6940 C   0  0  0  0  0  0  0  0  0  0  0  0
   58.2995   32.6588   43.1497 H   0  0  0  0  0  0  0  0  0  0  0  0
   58.3969   31.3681   41.9041 H   0  0  0  0  0  0  0  0  0  0  0  0
   57.0133   32.5136   41.9041 H   0  0  0  0  0  0  0  0  0  0  0  0
   55.8648   31.0836   43.2038 H   0  0  0  0  0  0  0  0  0  0  0  0
   57.3389   29.9984   43.2943 H   0  0  0  0  0  0  0  0  0  0  0  0
   59.1244   31.6977   45.2840 H   0  0  0  0  0  0  0  0  0  0  0  0
   58.2702   30.7070   46.5389 H   0  0  0  0  0  0  0  0  0  0  0  0
   59.1992   28.8920   45.5991 H   0  0  0  0  0  0  0  0  0  0  0  0
   58.1203   29.1693   44.1899 H   0  0  0  0  0  0  0  0  0  0  0  0
   59.7875   29.8380   44.1899 H   0  0  0  0  0  0  0  0  0  0  0  0
   56.1824   33.1453   44.4134 H   0  0  0  0  0  0  0  0  0  0  0  0
   56.1610   32.7196   46.1633 H   0  0  0  0  0  0  0  0  0  0  0  0
   58.9037   32.8226   45.4470 H   0  0  0  0  0  0  0  0  0  0  0  0
   58.1419   34.2443   44.6458 H   0  0  0  0  0  0  0  0  0  0  0  0
   59.1464   35.8731   46.4756 H   0  0  0  0  0  0  0  0  0  0  0  0
   59.3127   35.0053   48.0436 H   0  0  0  0  0  0  0  0  0  0  0  0
   59.9920   33.2684   45.7948 H   0  0  0  0  0  0  0  0  0  0  0  0
   60.9804   34.8372   45.8347 H   0  0  0  0  0  0  0  0  0  0  0  0
   59.2203   32.9008   49.0526 H   0  0  0  0  0  0  0  0  0  0  0  0
   58.2522   30.6818   49.6168 H   0  0  0  0  0  0  0  0  0  0  0  0
   59.2338   28.6013   48.6593 H   0  0  0  0  0  0  0  0  0  0  0  0
   61.1724   28.7439   47.0997 H   0  0  0  0  0  0  0  0  0  0  0  0
   62.1601   30.9543   46.5247 H   0  0  0  0  0  0  0  0  0  0  0  0
   62.8149   32.7542   45.9735 H   0  0  0  0  0  0  0  0  0  0  0  0
   63.1192   34.4502   46.5942 H   0  0  0  0  0  0  0  0  0  0  0  0
   64.2410   31.9127   47.4820 H   0  0  0  0  0  0  0  0  0  0  0  0
   64.6850   33.6524   47.8800 H   0  0  0  0  0  0  0  0  0  0  0  0
   62.8601   31.7594   49.3589 H   0  0  0  0  0  0  0  0  0  0  0  0
   64.2899   32.7490   49.9354 H   0  0  0  0  0  0  0  0  0  0  0  0
   61.8427   33.4350   50.5941 H   0  0  0  0  0  0  0  0  0  0  0  0
   63.1058   34.6694   50.0877 H   0  0  0  0  0  0  0  0  0  0  0  0
   60.5121   34.5239   49.1360 H   0  0  0  0  0  0  0  0  0  0  0  0
   61.9401   35.3581   48.3584 H   0  0  0  0  0  0  0  0  0  0  0  0
  1  2  1  0
  2  3  1  0
  3  4  1  0
  4  5  1  0
  3  6  1  0
  6  7  1  0
  7  8  1  0
  8  9  1  0
  9 10  1  0
 10 11  1  0
 11 12  1  0
 12 13  2  0
 13 14  1  0
 14 15  2  0
 15 16  1  0
 16 17  2  0
 11 18  1  0
 18 19  1  0
 19 20  1  0
 20 21  1  0
 21 22  1  0
 22 11  1  0
 17 12  1  0
  1 23  1  0
  1 24  1  0
  1 25  1  0
  2 26  1  0
  2 27  1  0
  4 28  1  0
  4 29  1  0
  5 30  1  0
  5 31  1  0
  5 32  1  0
  6 33  1  0
  6 34  1  0
  7 35  1  0
  7 36  1  0
  9 37  1  0
  9 38  1  0
 10 39  1  0
 10 40  1  0
 13 41  1  0
 14 42  1  0
 15 43  1  0
 16 44  1  0
 17 45  1  0
 18 46  1  0
 18 47  1  0
 19 48  1  0
 19 49  1  0
 20 50  1  0
 20 51  1  0
 21 52  1  0
 21 53  1  0
 22 54  1  0
 22 55  1  0
M  END
>  <UniqueID>  (6) 
6

>  <SMILES>  (6) 
CCN(CC)CCOCCC1(c2ccccc2)CCCCC1

>  <Energy>  (6) 
71.1793602990708

>  <Genealogy>  (6) 
CCN(CC)CCOCCC1(c2ccccc2)CCCCC1 (3D coordinates assigned)
CCN(CC)CCOCCC1(c2ccccc2)CCCCC1 (nonaromatic ring conformer: 71.1793602990708 kcal/mol)

>  <smiles>  (6) 
CCN(CC)CCOCCC1(c2ccccc2)CCCCC1

>  <score_type>  (6) 
oracle

>  <origin>  (6) 
adg

>  <m_score__min__energy>  (6) 
-7.1299999999999999

>  <m_primary>  (6) 
energy

$$$$
6:0
     RDKit          3D

 58 60  0  0  0  0  0  0  0  0999 V2000
   60.4110   29.5470   48.3530 C   0  0  0  0  0  0  0  0  0  0  0  0
   58.9110   29.6160   48.0410 C   0  0  0  0  0  0  0  0  0  0  0  0
   58.6170   30.5030   46.9010 N   0  0  0  0  0  0  0  0  0  0  0  0
   59.4040   30.1380   45.7140 C   0  0  0  0  0  0  0  0  0  0  0  0
   58.5280   30.1290   44.4510 C   0  0  0  0  0  0  0  0  0  0  0  0
   57.8940   31.4940   44.1390 C   0  0  0  0  0  0  0  0  0  0  0  0
   57.4540   32.1580   45.3830 N   0  0  0  0  0  0  0  0  0  0  0  0
   57.0770   33.5670   45.1820 C   0  0  0  0  0  0  0  0  0  0  0  0
   58.2970   34.5080   45.2500 C   0  0  0  0  0  0  0  0  0  0  0  0
   58.9490   34.4700   46.6390 C   0  0  0  0  0  0  0  0  0  0  0  0
   59.0700   33.0820   47.1230 N   0  0  0  0  0  0  0  0  0  0  0  0
   59.9750   32.9890   48.2550 C   0  0  0  0  0  0  0  0  0  0  0  0
   61.3740   33.1670   48.0890 C   0  0  0  0  0  0  0  0  0  0  0  0
   61.9720   33.1930   46.8070 C   0  0  0  0  0  0  0  0  0  0  0  0
   63.3490   33.3540   46.6610 C   0  0  0  0  0  0  0  0  0  0  0  0
   64.1600   33.4730   47.7830 C   0  0  0  0  0  0  0  0  0  0  0  0
   63.6010   33.4390   49.0570 C   0  0  0  0  0  0  0  0  0  0  0  0
   62.1990   33.3130   49.2400 C   0  0  0  0  0  0  0  0  0  0  0  0
   61.6370   33.3120   50.5010 N   0  0  0  0  0  0  0  0  0  0  0  0
   62.4180   33.8020   51.6590 C   0  0  0  0  0  0  0  0  0  0  0  0
   60.3380   32.8740   50.6780 C   0  0  0  0  0  0  0  0  0  0  0  0
   59.8350   32.5560   51.9660 C   0  0  0  0  0  0  0  0  0  0  0  0
   58.5130   32.1520   52.1440 C   0  0  0  0  0  0  0  0  0  0  0  0
   57.9150   31.7770   53.7520 Cl  0  0  0  0  0  0  0  0  0  0  0  0
   57.6670   32.0350   51.0470 C   0  0  0  0  0  0  0  0  0  0  0  0
   58.1400   32.3080   49.7680 C   0  0  0  0  0  0  0  0  0  0  0  0
   59.4770   32.7240   49.5560 C   0  0  0  0  0  0  0  0  0  0  0  0
   60.5589   29.5402   49.4430 H   0  0  0  0  0  0  0  0  0  0  0  0
   60.8337   28.6285   47.9199 H   0  0  0  0  0  0  0  0  0  0  0  0
   60.9163   30.4229   47.9199 H   0  0  0  0  0  0  0  0  0  0  0  0
   58.5522   28.6037   47.8033 H   0  0  0  0  0  0  0  0  0  0  0  0
   58.4017   30.0252   48.9259 H   0  0  0  0  0  0  0  0  0  0  0  0
   57.5970   30.4600   46.6670 H   0  0  0  0  0  0  0  0  0  0  0  0
   60.2161   30.8683   45.5828 H   0  0  0  0  0  0  0  0  0  0  0  0
   59.8130   29.1278   45.8629 H   0  0  0  0  0  0  0  0  0  0  0  0
   59.1521   29.8306   43.5957 H   0  0  0  0  0  0  0  0  0  0  0  0
   57.7049   29.4219   44.6313 H   0  0  0  0  0  0  0  0  0  0  0  0
   58.6350   32.1297   43.6322 H   0  0  0  0  0  0  0  0  0  0  0  0
   57.0192   31.3394   43.4904 H   0  0  0  0  0  0  0  0  0  0  0  0
   56.6520   31.6270   45.8080 H   0  0  0  0  0  0  0  0  0  0  0  0
   56.6036   33.6704   44.1945 H   0  0  0  0  0  0  0  0  0  0  0  0
   56.3841   33.8511   45.9877 H   0  0  0  0  0  0  0  0  0  0  0  0
   59.0355   34.1933   44.4980 H   0  0  0  0  0  0  0  0  0  0  0  0
   57.9567   35.5352   45.0524 H   0  0  0  0  0  0  0  0  0  0  0  0
   59.9511   34.9198   46.5794 H   0  0  0  0  0  0  0  0  0  0  0  0
   58.3171   35.0343   47.3407 H   0  0  0  0  0  0  0  0  0  0  0  0
   59.3960   32.4430   46.3600 H   0  0  0  0  0  0  0  0  0  0  0  0
   58.1260   32.7030   47.3670 H   0  0  0  0  0  0  0  0  0  0  0  0
   61.3412   33.0846   45.9124 H   0  0  0  0  0  0  0  0  0  0  0  0
   63.7943   33.3869   45.6557 H   0  0  0  0  0  0  0  0  0  0  0  0
   65.2468   33.5944   47.6639 H   0  0  0  0  0  0  0  0  0  0  0  0
   64.2568   33.5110   49.9372 H   0  0  0  0  0  0  0  0  0  0  0  0
   61.9242   33.4922   52.5918 H   0  0  0  0  0  0  0  0  0  0  0  0
   63.4324   33.3782   51.6229 H   0  0  0  0  0  0  0  0  0  0  0  0
   62.4778   34.8998   51.6229 H   0  0  0  0  0  0  0  0  0  0  0  0
   60.4999   32.6296   52.8392 H   0  0  0  0  0  0  0  0  0  0  0  0
   56.6212   31.7258   51.1910 H   0  0  0  0  0  0  0  0  0  0  0  0
   57.4644   32.1990   48.9068 H   0  0  0  0  0  0  0  0  0  0  0  0
  1  2  1  0
  2  3  1  0
  3  4  1  0
  4  5  1  0
  5  6  1  0
  6  7  1  0
  7  8  1  0
  8  9  1  0
  9 10  1  0
 10 11  1  0
 11 12  1  0
 12 13  2  0
 13 14  1  0
 14 15  2  0
 15 16  1  0
 16 17  2  0
 17 18  1  0
 18 19  2  0
 19 20  1  0
 19 21  1  0
 21 22  2  0
 22 23  1  0
 23 24  1  0
 23 25  2  0
 25 26  1  0
 26 27  2  0
 27 12  1  0
 18 13  1  0
 27 21  1  0
  1 28  1  0
  1 29  1  0
  1 30  1  0
  2 31  1  0
  2 32  1  0
  3 33  1  0
  4 34  1  0
  4 35  1  0
  5 36  1  0
  5 37  1  0
  6 38  1  0
  6 39  1  0
  7 40  1  0
  8 41  1  0
  8 42  1  0
  9 43  1  0
  9 44  1  0
 10 45  1  0
 10 46  1  0
 11 47  1  0
 11 48  1  0
 14 49  1  0
 15 50  1  0
 16 51  1  0
 17 52  1  0
 20 53  1  0
 20 54  1  0
 20 55  1  0
 22 56  1  0
 25 57  1  0
 26 58  1  0
M  CHG  2  11   1  19   1
M  END
>  <UniqueID>  (7) 
7

>  <SMILES>  (7) 
CCNCCCNCCC[NH2+]c1c2ccccc2[n+](C)c2cc(Cl)ccc12

>  <Energy>  (7) 
80.8262870172054

>  <Genealogy>  (7) 
CCNCCCNCCC[NH2+]c1c2ccccc2[n+](C)c2cc(Cl)ccc12 (protonated)
CCNCCCNCCC[NH2+]c1c2ccccc2[n+](C)c2cc(Cl)ccc12 (3D coordinates assigned)
CCNCCCNCCC[NH2+]c1c2ccccc2[n+](C)c2cc(Cl)ccc12 (optimized conformer: 80.8262870172054 kcal/mol)

>  <smiles>  (7) 
CCNCCCNCCCNc1c2ccccc2[n+](C)c2cc(Cl)ccc12

>  <score_type>  (7) 
oracle

>  <origin>  (7) 
adg

>  <m_score__min__energy>  (7) 
-4.5300000000000002

>  <m_primary>  (7) 
energy

$$$$
7:0
     RDKit          3D

 54 56  0  0  0  0  0  0  0  0999 V2000
   59.3500   28.6180   47.4570 C   0  0  0  0  0  0  0  0  0  0  0  0
   59.0660   29.9950   47.2290 O   0  0  0  0  0  0  0  0  0  0  0  0
   58.5140   30.5070   46.0440 C   0  0  0  0  0  0  0  0  0  0  0  0
   58.2230   29.6830   44.9380 C   0  0  0  0  0  0  0  0  0  0  0  0
   57.6740   30.2310   43.7770 C   0  0  0  0  0  0  0  0  0  0  0  0
   57.4130   31.5980   43.7050 C   0  0  0  0  0  0  0  0  0  0  0  0
   57.6970   32.4250   44.7930 C   0  0  0  0  0  0  0  0  0  0  0  0
   58.2470   31.8850   45.9730 C   0  0  0  0  0  0  0  0  0  0  0  0
   58.5510   32.6770   47.0960 O   0  0  0  0  0  0  0  0  0  0  0  0
   58.5890   34.1030   47.1230 C   0  0  0  0  0  0  0  0  0  0  0  0
   59.6530   34.5900   48.1290 C   0  0  0  0  0  0  0  0  0  0  0  0
   60.9440   33.8740   48.0520 N   0  0  0  0  0  0  0  0  0  0  0  0
   61.8970   34.2350   49.1130 C   0  0  0  0  0  0  0  0  0  0  0  0
   63.0210   33.1830   49.1820 C   0  0  0  0  0  0  0  0  0  0  0  0
   63.2850   32.5160   47.8800 N   0  0  0  0  0  0  0  0  0  0  0  0
   62.5760   31.2270   47.7460 C   0  0  0  0  0  0  0  0  0  0  0  0
   61.6360   31.0360   48.8960 C   0  0  0  0  0  0  0  0  0  0  0  0
   61.9160   30.3920   50.0850 C   0  0  0  0  0  0  0  0  0  0  0  0
   60.7960   30.4020   50.8340 N   0  0  0  0  0  0  0  0  0  0  0  0
   60.6200   29.7700   52.1380 C   0  0  0  0  0  0  0  0  0  0  0  0
   59.8570   31.0240   50.0870 C   0  0  0  0  0  0  0  0  0  0  0  0
   58.4400   31.2380   50.5150 C   0  0  0  0  0  0  0  0  0  0  0  0
   60.3470   31.4300   48.8970 N   0  0  0  0  0  0  0  0  0  0  0  0
   63.0220   33.4160   46.7380 C   0  0  0  0  0  0  0  0  0  0  0  0
   61.5610   33.9140   46.7100 C   0  0  0  0  0  0  0  0  0  0  0  0
   59.3896   28.4261   48.5394 H   0  0  0  0  0  0  0  0  0  0  0  0
   58.5602   28.0008   47.0038 H   0  0  0  0  0  0  0  0  0  0  0  0
   60.3195   28.3636   47.0038 H   0  0  0  0  0  0  0  0  0  0  0  0
   58.4293   28.6038   44.9898 H   0  0  0  0  0  0  0  0  0  0  0  0
   57.4472   29.5826   42.9178 H   0  0  0  0  0  0  0  0  0  0  0  0
   56.9820   32.0265   42.7882 H   0  0  0  0  0  0  0  0  0  0  0  0
   57.4905   33.5036   44.7292 H   0  0  0  0  0  0  0  0  0  0  0  0
   58.8389   34.4787   46.1198 H   0  0  0  0  0  0  0  0  0  0  0  0
   57.6036   34.4820   47.4319 H   0  0  0  0  0  0  0  0  0  0  0  0
   59.8406   35.6574   47.9406 H   0  0  0  0  0  0  0  0  0  0  0  0
   59.2468   34.3946   49.1324 H   0  0  0  0  0  0  0  0  0  0  0  0
   62.3322   35.2211   48.8935 H   0  0  0  0  0  0  0  0  0  0  0  0
   61.3710   34.2698   50.0785 H   0  0  0  0  0  0  0  0  0  0  0  0
   63.9446   33.6805   49.5127 H   0  0  0  0  0  0  0  0  0  0  0  0
   62.6941   32.4037   49.8861 H   0  0  0  0  0  0  0  0  0  0  0  0
   62.0061   31.2211   46.8052 H   0  0  0  0  0  0  0  0  0  0  0  0
   63.3119   30.4094   47.7423 H   0  0  0  0  0  0  0  0  0  0  0  0
   62.8819   29.9494   50.3700 H   0  0  0  0  0  0  0  0  0  0  0  0
   60.8243   30.5037   52.9316 H   0  0  0  0  0  0  0  0  0  0  0  0
   59.5863   29.4060   52.2325 H   0  0  0  0  0  0  0  0  0  0  0  0
   61.3167   28.9241   52.2325 H   0  0  0  0  0  0  0  0  0  0  0  0
   58.3861   31.2461   51.6136 H   0  0  0  0  0  0  0  0  0  0  0  0
   58.0800   32.2007   50.1231 H   0  0  0  0  0  0  0  0  0  0  0  0
   57.8118   30.4246   50.1231 H   0  0  0  0  0  0  0  0  0  0  0  0
   59.8360   31.9240   48.1330 H   0  0  0  0  0  0  0  0  0  0  0  0
   63.6911   34.2860   46.8116 H   0  0  0  0  0  0  0  0  0  0  0  0
   63.2022   32.8483   45.8132 H   0  0  0  0  0  0  0  0  0  0  0  0
   61.5446   34.9501   46.3409 H   0  0  0  0  0  0  0  0  0  0  0  0
   60.9852   33.2504   46.0480 H   0  0  0  0  0  0  0  0  0  0  0  0
  1  2  1  0
  2  3  1  0
  3  4  2  0
  4  5  1  0
  5  6  2  0
  6  7  1  0
  7  8  2  0
  8  9  1  0
  9 10  1  0
 10 11  1  0
 11 12  1  0
 12 13  1  0
 13 14  1  0
 14 15  1  0
 15 16  1  0
 16 17  1  0
 17 18  2  0
 18 19  1  0
 19 20  1  0
 19 21  1  0
 21 22  1  0
 21 23  2  0
 15 24  1  0
 24 25  1  0
  8  3  1  0
 25 12  1  0
 23 17  1  0
  1 26  1  0
  1 27  1  0
  1 28  1  0
  4 29  1  0
  5 30  1  0
  6 31  1  0
  7 32  1  0
 10 33  1  0
 10 34  1  0
 11 35  1  0
 11 36  1  0
 13 37  1  0
 13 38  1  0
 14 39  1  0
 14 40  1  0
 16 41  1  0
 16 42  1  0
 18 43  1  0
 20 44  1  0
 20 45  1  0
 20 46  1  0
 22 47  1  0
 22 48  1  0
 22 49  1  0
 23 50  1  0
 24 51  1  0
 24 52  1  0
 25 53  1  0
 25 54  1  0
M  CHG  1  23   1
M  END
>  <UniqueID>  (8) 
8

>  <SMILES>  (8) 
COc1ccccc1OCCN1CCN(Cc2cn(C)c(C)[nH+]2)CC1

>  <Energy>  (8) 
95.48936049036148

>  <Genealogy>  (8) 
COc1ccccc1OCCN1CCN(Cc2cn(C)c(C)[nH+]2)CC1 (protonated)
COc1ccccc1OCCN1CCN(Cc2cn(C)c(C)[nH+]2)CC1 (3D coordinates assigned)
COc1ccccc1OCCN1CCN(Cc2cn(C)c(C)[nH+]2)CC1 (nonaromatic ring conformer: 95.48936049036148 kcal/mol)

>  <smiles>  (8) 
COc1ccccc1OCCN1CCN(Cc2cn(C)c(C)n2)CC1

>  <score_type>  (8) 
oracle

>  <origin>  (8) 
adg

>  <m_score__min__energy>  (8) 
-6.2699999999999996

>  <m_primary>  (8) 
energy

$$$$
8:0
     RDKit          3D

 78 81  0  0  0  0  0  0  0  0999 V2000
   63.3750   33.7770   46.3880 C   0  0  0  0  0  0  0  0  0  0  0  0
   62.1980   33.2620   47.2090 C   0  0  0  0  0  0  0  0  0  0  0  0
   61.7820   34.2630   48.2150 N   0  0  0  0  0  0  0  0  0  0  0  0
   62.6000   34.1650   49.4390 C   0  0  0  0  0  0  0  0  0  0  0  0
   60.3420   34.1410   48.5460 C   0  0  0  0  0  0  0  0  0  0  0  0
   59.4870   34.9500   47.5560 C   0  0  0  0  0  0  0  0  0  0  0  0
   58.2930   34.2530   47.1870 O   0  0  0  0  0  0  0  0  0  0  0  0
   58.2270   32.9270   46.7230 C   0  0  0  0  0  0  0  0  0  0  0  0
   57.9150   32.7130   45.3840 C   0  0  0  0  0  0  0  0  0  0  0  0
   57.8890   31.4220   44.8550 C   0  0  0  0  0  0  0  0  0  0  0  0
   58.1770   30.2930   45.6610 C   0  0  0  0  0  0  0  0  0  0  0  0
   58.4880   30.5100   47.0230 C   0  0  0  0  0  0  0  0  0  0  0  0
   58.4770   31.8210   47.5470 C   0  0  0  0  0  0  0  0  0  0  0  0
   58.8300   29.4200   47.8450 C   0  0  0  0  0  0  0  0  0  0  0  0
   59.0820   29.6530   49.2390 N   0  0  0  0  0  0  0  0  0  0  0  0
   60.4100   29.8940   49.7380 C   0  0  0  0  0  0  0  0  0  0  0  0
   61.2860   30.7560   49.0530 C   0  0  0  0  0  0  0  0  0  0  0  0
   62.5710   30.9910   49.5400 C   0  0  0  0  0  0  0  0  0  0  0  0
   62.9960   30.3760   50.7160 C   0  0  0  0  0  0  0  0  0  0  0  0
   62.1390   29.5150   51.4060 C   0  0  0  0  0  0  0  0  0  0  0  0
   60.8460   29.2550   50.9150 C   0  0  0  0  0  0  0  0  0  0  0  0
   59.9810   28.3480   51.5440 O   0  0  0  0  0  0  0  0  0  0  0  0
   59.1320   28.6590   52.6450 C   0  0  0  0  0  0  0  0  0  0  0  0
   58.7100   30.1280   52.5540 C   0  0  0  0  0  0  0  0  0  0  0  0
   57.5000   30.2850   51.7190 N   0  0  0  0  0  0  0  0  0  0  0  0
   56.2510   29.8230   52.3660 C   0  0  0  0  0  0  0  0  0  0  0  0
   55.0220   30.6680   52.0170 C   0  0  0  0  0  0  0  0  0  0  0  0
   57.3790   31.5500   50.9470 C   0  0  0  0  0  0  0  0  0  0  0  0
   58.5760   32.5080   51.0700 C   0  0  0  0  0  0  0  0  0  0  0  0
   58.9420   28.1530   47.3240 N   0  0  0  0  0  0  0  0  0  0  0  0
   59.4430   27.0610   48.1850 C   0  0  0  0  0  0  0  0  0  0  0  0
   58.5710   27.8970   46.0180 C   0  0  0  0  0  0  0  0  0  0  0  0
   58.5600   26.5750   45.5050 C   0  0  0  0  0  0  0  0  0  0  0  0
   58.1760   26.3120   44.1950 C   0  0  0  0  0  0  0  0  0  0  0  0
   57.7760   27.3450   43.3650 C   0  0  0  0  0  0  0  0  0  0  0  0
   57.7640   28.6550   43.8350 C   0  0  0  0  0  0  0  0  0  0  0  0
   58.1690   28.9630   45.1600 C   0  0  0  0  0  0  0  0  0  0  0  0
   64.1697   34.1247   47.0645 H   0  0  0  0  0  0  0  0  0  0  0  0
   63.7623   32.9661   45.7536 H   0  0  0  0  0  0  0  0  0  0  0  0
   63.0422   34.6117   45.7536 H   0  0  0  0  0  0  0  0  0  0  0  0
   61.3528   33.0537   46.5365 H   0  0  0  0  0  0  0  0  0  0  0  0
   62.5068   32.3444   47.7311 H   0  0  0  0  0  0  0  0  0  0  0  0
   61.9490   34.2430   50.3223 H   0  0  0  0  0  0  0  0  0  0  0  0
   63.1236   33.1977   49.4536 H   0  0  0  0  0  0  0  0  0  0  0  0
   63.3372   34.9812   49.4536 H   0  0  0  0  0  0  0  0  0  0  0  0
   60.0482   33.0821   48.4957 H   0  0  0  0  0  0  0  0  0  0  0  0
   60.1772   34.5346   49.5599 H   0  0  0  0  0  0  0  0  0  0  0  0
   59.2101   35.9061   48.0242 H   0  0  0  0  0  0  0  0  0  0  0  0
   60.0822   35.1115   46.6451 H   0  0  0  0  0  0  0  0  0  0  0  0
   57.6862   33.5712   44.7351 H   0  0  0  0  0  0  0  0  0  0  0  0
   57.6404   31.2783   43.7931 H   0  0  0  0  0  0  0  0  0  0  0  0
   58.6677   31.9769   48.6191 H   0  0  0  0  0  0  0  0  0  0  0  0
   58.3200   29.3940   49.9060 H   0  0  0  0  0  0  0  0  0  0  0  0
   60.9546   31.2480   48.1266 H   0  0  0  0  0  0  0  0  0  0  0  0
   63.2504   31.6629   48.9951 H   0  0  0  0  0  0  0  0  0  0  0  0
   64.0080   30.5688   51.1017 H   0  0  0  0  0  0  0  0  0  0  0  0
   62.4766   29.0379   52.3378 H   0  0  0  0  0  0  0  0  0  0  0  0
   58.2394   28.0169   52.6145 H   0  0  0  0  0  0  0  0  0  0  0  0
   59.6708   28.4863   53.5883 H   0  0  0  0  0  0  0  0  0  0  0  0
   58.4992   30.5043   53.5659 H   0  0  0  0  0  0  0  0  0  0  0  0
   59.5292   30.6982   52.0916 H   0  0  0  0  0  0  0  0  0  0  0  0
   56.0600   28.7868   52.0500 H   0  0  0  0  0  0  0  0  0  0  0  0
   56.4020   29.9123   53.4519 H   0  0  0  0  0  0  0  0  0  0  0  0
   54.5331   31.0041   52.9433 H   0  0  0  0  0  0  0  0  0  0  0  0
   55.3340   31.5434   51.4285 H   0  0  0  0  0  0  0  0  0  0  0  0
   54.3163   30.0632   51.4285 H   0  0  0  0  0  0  0  0  0  0  0  0
   57.2583   31.2905   49.8849 H   0  0  0  0  0  0  0  0  0  0  0  0
   56.5151   32.0843   51.3691 H   0  0  0  0  0  0  0  0  0  0  0  0
   58.7966   32.6846   52.1331 H   0  0  0  0  0  0  0  0  0  0  0  0
   59.4549   32.0611   50.5824 H   0  0  0  0  0  0  0  0  0  0  0  0
   58.3325   33.4635   50.5824 H   0  0  0  0  0  0  0  0  0  0  0  0
   59.3154   27.3392   49.2416 H   0  0  0  0  0  0  0  0  0  0  0  0
   58.8769   26.1410   47.9771 H   0  0  0  0  0  0  0  0  0  0  0  0
   60.5096   26.8901   47.9771 H   0  0  0  0  0  0  0  0  0  0  0  0
   58.8612   25.7413   46.1563 H   0  0  0  0  0  0  0  0  0  0  0  0
   58.1901   25.2792   43.8167 H   0  0  0  0  0  0  0  0  0  0  0  0
   57.4669   27.1300   42.3314 H   0  0  0  0  0  0  0  0  0  0  0  0
   57.4350   29.4656   43.1681 H   0  0  0  0  0  0  0  0  0  0  0  0
  1  2  1  0
  2  3  1  0
  3  4  1  0
  3  5  1  0
  5  6  1  0
  6  7  1  0
  7  8  1  0
  8  9  2  0
  9 10  1  0
 10 11  2  0
 11 12  1  0
 12 13  2  0
 12 14  1  0
 14 15  1  0
 15 16  1  0
 16 17  2  0
 17 18  1  0
 18 19  2  0
 19 20  1  0
 20 21  2  0
 21 22  1  0
 22 23  1  0
 23 24  1  0
 24 25  1  0
 25 26  1  0
 26 27  1  0
 25 28  1  0
 28 29  1  0
 14 30  2  0
 30 31  1  0
 30 32  1  0
 32 33  2  0
 33 34  1  0
 34 35  2  0
 35 36  1  0
 36 37  2  0
 13  8  1  0
 21 16  1  0
 37 32  1  0
 37 11  1  0
  1 38  1  0
  1 39  1  0
  1 40  1  0
  2 41  1  0
  2 42  1  0
  4 43  1  0
  4 44  1  0
  4 45  1  0
  5 46  1  0
  5 47  1  0
  6 48  1  0
  6 49  1  0
  9 50  1  0
 10 51  1  0
 13 52  1  0
 15 53  1  0
 17 54  1  0
 18 55  1  0
 19 56  1  0
 20 57  1  0
 23 58  1  0
 23 59  1  0
 24 60  1  0
 24 61  1  0
 26 62  1  0
 26 63  1  0
 27 64  1  0
 27 65  1  0
 27 66  1  0
 28 67  1  0
 28 68  1  0
 29 69  1  0
 29 70  1  0
 29 71  1  0
 31 72  1  0
 31 73  1  0
 31 74  1  0
 33 75  1  0
 34 76  1  0
 35 77  1  0
 36 78  1  0
M  CHG  1  30   1
M  END
>  <UniqueID>  (9) 
9

>  <SMILES>  (9) 
CCN(C)CCOc1ccc2c(c1)c(Nc1ccccc1OCCN(CC)CC)[n+](C)c1ccccc21

>  <Energy>  (9) 
110.86579020128596

>  <Genealogy>  (9) 
CCN(C)CCOc1ccc2c(c1)c(Nc1ccccc1OCCN(CC)CC)[n+](C)c1ccccc21 (3D coordinates assigned)
CCN(C)CCOc1ccc2c(c1)c(Nc1ccccc1OCCN(CC)CC)[n+](C)c1ccccc21 (optimized conformer: 110.86579020128596 kcal/mol)

>  <smiles>  (9) 
CCN(C)CCOc1ccc2c(c1)c(Nc1ccccc1OCCN(CC)CC)[n+](C)c1ccccc21

>  <score_type>  (9) 
oracle

>  <origin>  (9) 
adg

>  <m_score__min__energy>  (9) 
-6.4199999999999999

>  <m_primary>  (9) 
energy

$$$$
9:0
     RDKit          3D

 63 65  0  0  0  0  0  0  0  0999 V2000
   58.9840   33.7840   51.6310 C   0  0  0  0  0  0  0  0  0  0  0  0
   59.9060   33.8310   50.4170 C   0  0  0  0  0  0  0  0  0  0  0  0
   60.1190   32.4650   49.8940 N   0  0  0  0  0  0  0  0  0  0  0  0
   61.0850   31.7090   50.7230 C   0  0  0  0  0  0  0  0  0  0  0  0
   62.3030   32.5720   51.0240 C   0  0  0  0  0  0  0  0  0  0  0  0
   58.8440   31.7270   49.7380 C   0  0  0  0  0  0  0  0  0  0  0  0
   59.1370   30.3490   49.1330 C   0  0  0  0  0  0  0  0  0  0  0  0
   59.9230   30.4160   47.8940 N   0  0  0  0  0  0  0  0  0  0  0  0
   59.3130   30.5430   46.5980 C   0  0  0  0  0  0  0  0  0  0  0  0
   59.0490   29.3640   45.8720 C   0  0  0  0  0  0  0  0  0  0  0  0
   59.7430   28.1650   46.1520 C   0  0  0  0  0  0  0  0  0  0  0  0
   59.4690   27.0010   45.4420 C   0  0  0  0  0  0  0  0  0  0  0  0
   58.5120   27.0100   44.4350 C   0  0  0  0  0  0  0  0  0  0  0  0
   57.8190   28.1830   44.1380 C   0  0  0  0  0  0  0  0  0  0  0  0
   58.0640   29.3760   44.8630 C   0  0  0  0  0  0  0  0  0  0  0  0
   57.3670   30.5320   44.6080 N   0  0  0  0  0  0  0  0  0  0  0  0
   56.0930   30.4740   43.8570 C   0  0  0  0  0  0  0  0  0  0  0  0
   57.8590   31.7440   45.0550 C   0  0  0  0  0  0  0  0  0  0  0  0
   57.3970   32.9460   44.4750 C   0  0  0  0  0  0  0  0  0  0  0  0
   57.8870   34.1730   44.8750 C   0  0  0  0  0  0  0  0  0  0  0  0
   58.8580   34.2490   45.8530 C   0  0  0  0  0  0  0  0  0  0  0  0
   59.3620   33.0980   46.4930 C   0  0  0  0  0  0  0  0  0  0  0  0
   60.4780   33.3140   47.4020 N   0  0  0  0  0  0  0  0  0  0  0  0
   61.6960   33.8530   46.7520 C   0  0  0  0  0  0  0  0  0  0  0  0
   63.0040   33.5680   47.5180 C   0  0  0  0  0  0  0  0  0  0  0  0
   63.4530   32.0970   47.4780 C   0  0  0  0  0  0  0  0  0  0  0  0
   62.4570   31.2310   48.1060 N   0  0  0  0  0  0  0  0  0  0  0  0
   58.8630   31.7980   46.0830 C   0  0  0  0  0  0  0  0  0  0  0  0
   59.5868   33.8147   52.5506 H   0  0  0  0  0  0  0  0  0  0  0  0
   58.3044   34.6487   51.6090 H   0  0  0  0  0  0  0  0  0  0  0  0
   58.3958   32.8547   51.6090 H   0  0  0  0  0  0  0  0  0  0  0  0
   59.4475   34.4537   49.6347 H   0  0  0  0  0  0  0  0  0  0  0  0
   60.8743   34.2602   50.7140 H   0  0  0  0  0  0  0  0  0  0  0  0
   60.6034   31.4170   51.6679 H   0  0  0  0  0  0  0  0  0  0  0  0
   61.4061   30.8115   50.1739 H   0  0  0  0  0  0  0  0  0  0  0  0
   62.4290   32.6613   52.1131 H   0  0  0  0  0  0  0  0  0  0  0  0
   63.1992   32.1062   50.5882 H   0  0  0  0  0  0  0  0  0  0  0  0
   62.1607   33.5719   50.5882 H   0  0  0  0  0  0  0  0  0  0  0  0
   58.3660   31.6043   50.7211 H   0  0  0  0  0  0  0  0  0  0  0  0
   58.1680   32.2879   49.0760 H   0  0  0  0  0  0  0  0  0  0  0  0
   59.6970   29.7553   49.8705 H   0  0  0  0  0  0  0  0  0  0  0  0
   58.1694   29.8900   48.8817 H   0  0  0  0  0  0  0  0  0  0  0  0
   60.8030   29.8510   47.9220 H   0  0  0  0  0  0  0  0  0  0  0  0
   60.5092   28.1524   46.9411 H   0  0  0  0  0  0  0  0  0  0  0  0
   60.0102   26.0729   45.6778 H   0  0  0  0  0  0  0  0  0  0  0  0
   58.3005   26.0898   43.8707 H   0  0  0  0  0  0  0  0  0  0  0  0
   57.0723   28.1824   43.3303 H   0  0  0  0  0  0  0  0  0  0  0  0
   55.2517   30.4357   44.5646 H   0  0  0  0  0  0  0  0  0  0  0  0
   55.9994   31.3688   43.2241 H   0  0  0  0  0  0  0  0  0  0  0  0
   56.0811   29.5744   43.2241 H   0  0  0  0  0  0  0  0  0  0  0  0
   56.6301   32.9035   43.6875 H   0  0  0  0  0  0  0  0  0  0  0  0
   57.5021   35.0938   44.4125 H   0  0  0  0  0  0  0  0  0  0  0  0
   59.2499   35.2356   46.1414 H   0  0  0  0  0  0  0  0  0  0  0  0
   60.2650   33.8820   48.2350 H   0  0  0  0  0  0  0  0  0  0  0  0
   60.7290   32.3780   47.7980 H   0  0  0  0  0  0  0  0  0  0  0  0
   61.7788   33.4053   45.7507 H   0  0  0  0  0  0  0  0  0  0  0  0
   61.5798   34.9465   46.7235 H   0  0  0  0  0  0  0  0  0  0  0  0
   63.8022   34.1840   47.0781 H   0  0  0  0  0  0  0  0  0  0  0  0
   62.8102   33.8098   48.5735 H   0  0  0  0  0  0  0  0  0  0  0  0
   63.5881   31.7899   46.4304 H   0  0  0  0  0  0  0  0  0  0  0  0
   64.3994   32.0030   48.0307 H   0  0  0  0  0  0  0  0  0  0  0  0
   61.8040   31.8280   48.6610 H   0  0  0  0  0  0  0  0  0  0  0  0
   62.9520   30.6120   48.7860 H   0  0  0  0  0  0  0  0  0  0  0  0
  1  2  1  0
  2  3  1  0
  3  4  1  0
  4  5  1  0
  3  6  1  0
  6  7  1  0
  7  8  1  0
  8  9  1  0
  9 10  2  0
 10 11  1  0
 11 12  2  0
 12 13  1  0
 13 14  2  0
 14 15  1  0
 15 16  2  0
 16 17  1  0
 16 18  1  0
 18 19  2  0
 19 20  1  0
 20 21  2  0
 21 22  1  0
 22 23  1  0
 23 24  1  0
 24 25  1  0
 25 26  1  0
 26 27  1  0
 22 28  2  0
 28  9  1  0
 15 10  1  0
 28 18  1  0
  1 29  1  0
  1 30  1  0
  1 31  1  0
  2 32  1  0
  2 33  1  0
  4 34  1  0
  4 35  1  0
  5 36  1  0
  5 37  1  0
  5 38  1  0
  6 39  1  0
  6 40  1  0
  7 41  1  0
  7 42  1  0
  8 43  1  0
 11 44  1  0
 12 45  1  0
 13 46  1  0
 14 47  1  0
 17 48  1  0
 17 49  1  0
 17 50  1  0
 19 51  1  0
 20 52  1  0
 21 53  1  0
 23 54  1  0
 23 55  1  0
 24 56  1  0
 24 57  1  0
 25 58  1  0
 25 59  1  0
 26 60  1  0
 26 61  1  0
 27 62  1  0
 27 63  1  0
M  CHG  2  16   1  23   1
M  END
>  <UniqueID>  (10) 
10

>  <SMILES>  (10) 
CCN(CC)CCNc1c2ccccc2[n+](C)c2cccc([NH2+]CCCN)c12

>  <Energy>  (10) 
105.78771159422783

>  <Genealogy>  (10) 
CCN(CC)CCNc1c2ccccc2[n+](C)c2cccc([NH2+]CCCN)c12 (protonated)
CCN(CC)CCNc1c2ccccc2[n+](C)c2cccc([NH2+]CCCN)c12 (3D coordinates assigned)
CCN(CC)CCNc1c2ccccc2[n+](C)c2cccc([NH2+]CCCN)c12 (optimized conformer: 105.78771159422783 kcal/mol)

>  <smiles>  (10) 
CCN(CC)CCNc1c2ccccc2[n+](C)c2cccc(NCCCN)c12

>  <score_type>  (10) 
oracle

>  <origin>  (10) 
adg

>  <m_score__min__energy>  (10) 
-4.4400000000000004

>  <m_primary>  (10) 
energy

$$$$
10:0
     RDKit          3D

 62 64  0  0  0  0  0  0  0  0999 V2000
   63.4670   33.7870   46.3840 C   0  0  0  0  0  0  0  0  0  0  0  0
   63.4850   33.8770   47.9140 C   0  0  0  0  0  0  0  0  0  0  0  0
   64.1270   32.6840   48.5300 N   0  0  0  0  0  0  0  0  0  0  0  0
   64.9960   33.0920   49.6700 C   0  0  0  0  0  0  0  0  0  0  0  0
   65.9260   31.9610   50.1190 C   0  0  0  0  0  0  0  0  0  0  0  0
   63.0930   31.7190   48.9930 C   0  0  0  0  0  0  0  0  0  0  0  0
   62.2220   31.2000   47.8320 C   0  0  0  0  0  0  0  0  0  0  0  0
   60.8070   31.4090   48.1340 N   0  0  0  0  0  0  0  0  0  0  0  0
   59.8550   31.5820   47.0710 C   0  0  0  0  0  0  0  0  0  0  0  0
   59.6760   32.8430   46.4810 C   0  0  0  0  0  0  0  0  0  0  0  0
   60.3700   33.9750   46.9610 C   0  0  0  0  0  0  0  0  0  0  0  0
   60.1710   35.2250   46.3810 C   0  0  0  0  0  0  0  0  0  0  0  0
   59.2760   35.3710   45.3250 C   0  0  0  0  0  0  0  0  0  0  0  0
   58.5920   34.2610   44.8270 C   0  0  0  0  0  0  0  0  0  0  0  0
   58.7930   32.9710   45.3790 C   0  0  0  0  0  0  0  0  0  0  0  0
   58.1540   31.8560   44.8710 N   0  0  0  0  0  0  0  0  0  0  0  0
   57.6050   31.9020   43.4980 C   0  0  0  0  0  0  0  0  0  0  0  0
   58.1410   30.6730   45.5910 C   0  0  0  0  0  0  0  0  0  0  0  0
   57.2010   29.6290   45.3380 C   0  0  0  0  0  0  0  0  0  0  0  0
   56.1010   29.8850   44.5010 O   0  0  0  0  0  0  0  0  0  0  0  0
   55.9740   29.4270   43.1520 C   0  0  0  0  0  0  0  0  0  0  0  0
   57.3610   28.3670   45.9530 C   0  0  0  0  0  0  0  0  0  0  0  0
   56.5250   27.3110   45.5620 O   0  0  0  0  0  0  0  0  0  0  0  0
   56.9940   26.0000   45.2610 C   0  0  0  0  0  0  0  0  0  0  0  0
   58.3340   28.1850   46.9490 C   0  0  0  0  0  0  0  0  0  0  0  0
   58.4270   26.9450   47.6030 O   0  0  0  0  0  0  0  0  0  0  0  0
   59.6390   26.3520   48.0500 C   0  0  0  0  0  0  0  0  0  0  0  0
   59.1570   29.2590   47.3050 C   0  0  0  0  0  0  0  0  0  0  0  0
   59.0610   30.5000   46.6560 C   0  0  0  0  0  0  0  0  0  0  0  0
   63.2597   32.7503   46.0801 H   0  0  0  0  0  0  0  0  0  0  0  0
   62.6835   34.4492   45.9869 H   0  0  0  0  0  0  0  0  0  0  0  0
   64.4449   34.0969   45.9869 H   0  0  0  0  0  0  0  0  0  0  0  0
   64.0448   34.7760   48.2113 H   0  0  0  0  0  0  0  0  0  0  0  0
   62.4440   33.9253   48.2661 H   0  0  0  0  0  0  0  0  0  0  0  0
   64.7250   32.2110   47.8090 H   0  0  0  0  0  0  0  0  0  0  0  0
   65.6076   33.9520   49.3597 H   0  0  0  0  0  0  0  0  0  0  0  0
   64.3440   33.3509   50.5172 H   0  0  0  0  0  0  0  0  0  0  0  0
   65.9555   31.9251   51.2180 H   0  0  0  0  0  0  0  0  0  0  0  0
   65.5515   31.0024   49.7307 H   0  0  0  0  0  0  0  0  0  0  0  0
   66.9389   32.1432   49.7307 H   0  0  0  0  0  0  0  0  0  0  0  0
   63.5943   30.8639   49.4699 H   0  0  0  0  0  0  0  0  0  0  0  0
   62.4348   32.2425   49.7021 H   0  0  0  0  0  0  0  0  0  0  0  0
   62.4817   31.7430   46.9113 H   0  0  0  0  0  0  0  0  0  0  0  0
   62.4064   30.1241   47.6963 H   0  0  0  0  0  0  0  0  0  0  0  0
   60.5340   31.7200   49.0920 H   0  0  0  0  0  0  0  0  0  0  0  0
   61.0735   33.8685   47.7999 H   0  0  0  0  0  0  0  0  0  0  0  0
   60.7222   36.0990   46.7581 H   0  0  0  0  0  0  0  0  0  0  0  0
   59.1074   36.3636   44.8819 H   0  0  0  0  0  0  0  0  0  0  0  0
   57.8860   34.3892   43.9932 H   0  0  0  0  0  0  0  0  0  0  0  0
   56.5098   31.9938   43.5439 H   0  0  0  0  0  0  0  0  0  0  0  0
   58.0235   32.7682   42.9646 H   0  0  0  0  0  0  0  0  0  0  0  0
   57.8735   30.9782   42.9646 H   0  0  0  0  0  0  0  0  0  0  0  0
   55.6801   28.3670   43.1508 H   0  0  0  0  0  0  0  0  0  0  0  0
   55.2066   30.0209   42.6339 H   0  0  0  0  0  0  0  0  0  0  0  0
   56.9376   29.5409   42.6339 H   0  0  0  0  0  0  0  0  0  0  0  0
   57.1885   25.4562   46.1972 H   0  0  0  0  0  0  0  0  0  0  0  0
   56.2322   25.4632   44.6767 H   0  0  0  0  0  0  0  0  0  0  0  0
   57.9235   26.0682   44.6767 H   0  0  0  0  0  0  0  0  0  0  0  0
   59.6587   26.3424   49.1498 H   0  0  0  0  0  0  0  0  0  0  0  0
   59.7034   25.3206   47.6731 H   0  0  0  0  0  0  0  0  0  0  0  0
   60.4929   26.9341   47.6731 H   0  0  0  0  0  0  0  0  0  0  0  0
   59.8948   29.1282   48.1104 H   0  0  0  0  0  0  0  0  0  0  0  0
  1  2  1  0
  2  3  1  0
  3  4  1  0
  4  5  1  0
  3  6  1  0
  6  7  1  0
  7  8  1  0
  8  9  1  0
  9 10  2  0
 10 11  1  0
 11 12  2  0
 12 13  1  0
 13 14  2  0
 14 15  1  0
 15 16  2  0
 16 17  1  0
 16 18  1  0
 18 19  2  0
 19 20  1  0
 20 21  1  0
 19 22  1  0
 22 23  1  0
 23 24  1  0
 22 25  2  0
 25 26  1  0
 26 27  1  0
 25 28  1  0
 28 29  2  0
 29  9  1  0
 15 10  1  0
 29 18  1  0
  1 30  1  0
  1 31  1  0
  1 32  1  0
  2 33  1  0
  2 34  1  0
  3 35  1  0
  4 36  1  0
  4 37  1  0
  5 38  1  0
  5 39  1  0
  5 40  1  0
  6 41  1  0
  6 42  1  0
  7 43  1  0
  7 44  1  0
  8 45  1  0
 11 46  1  0
 12 47  1  0
 13 48  1  0
 14 49  1  0
 17 50  1  0
 17 51  1  0
 17 52  1  0
 21 53  1  0
 21 54  1  0
 21 55  1  0
 24 56  1  0
 24 57  1  0
 24 58  1  0
 27 59  1  0
 27 60  1  0
 27 61  1  0
 28 62  1  0
M  CHG  2   3   1  16   1
M  END
>  <UniqueID>  (11) 
11

>  <SMILES>  (11) 
CC[NH+](CC)CCNc1c2ccccc2[n+](C)c2c(OC)c(OC)c(OC)cc12

>  <Energy>  (11) 
103.58764559217333

>  <Genealogy>  (11) 
CC[NH+](CC)CCNc1c2ccccc2[n+](C)c2c(OC)c(OC)c(OC)cc12 (protonated)
CC[NH+](CC)CCNc1c2ccccc2[n+](C)c2c(OC)c(OC)c(OC)cc12 (3D coordinates assigned)
CC[NH+](CC)CCNc1c2ccccc2[n+](C)c2c(OC)c(OC)c(OC)cc12 (optimized conformer: 103.58764559217333 kcal/mol)

>  <smiles>  (11) 
CCN(CC)CCNc1c2ccccc2[n+](C)c2c(OC)c(OC)c(OC)cc12

>  <score_type>  (11) 
oracle

>  <origin>  (11) 
adg

>  <m_score__min__energy>  (11) 
-4.8399999999999999

>  <m_primary>  (11) 
energy

$$$$
11:0
     RDKit          3D

 33 33  0  0  0  0  0  0  0  0999 V2000
   56.8080   34.1420   45.3020 C   0  0  0  0  0  0  0  0  0  0  0  0
   57.8580   33.4550   44.8270 C   0  0  0  0  0  0  0  0  0  0  0  0
   59.2630   33.9700   45.0240 C   0  0  0  0  0  0  0  0  0  0  0  0
   59.2770   34.9980   45.9950 O   0  0  0  0  0  0  0  0  0  0  0  0
   59.9120   34.5490   47.1710 C   0  0  0  0  0  0  0  0  0  0  0  0
   57.6390   32.1470   44.1140 C   0  0  0  0  0  0  0  0  0  0  0  0
   56.4050   31.5710   44.5300 O   0  0  0  0  0  0  0  0  0  0  0  0
   55.9690   30.3200   44.0850 C   0  0  0  0  0  0  0  0  0  0  0  0
   55.8180   30.0940   42.8540 O   0  0  0  0  0  0  0  0  0  0  0  0
   55.6900   29.2810   45.0250 N   0  0  0  0  0  0  0  0  0  0  0  0
   56.6720   28.2780   45.4200 C   0  0  0  0  0  0  0  0  0  0  0  0
   57.8620   28.9260   46.0740 C   0  0  0  0  0  0  0  0  0  0  0  0
   58.9890   28.1550   46.3980 C   0  0  0  0  0  0  0  0  0  0  0  0
   60.0850   28.7640   47.0100 C   0  0  0  0  0  0  0  0  0  0  0  0
   60.0470   30.1270   47.3020 C   0  0  0  0  0  0  0  0  0  0  0  0
   58.9090   30.8650   46.9720 C   0  0  0  0  0  0  0  0  0  0  0  0
   57.8510   30.2610   46.3640 N   0  0  0  0  0  0  0  0  0  0  0  0
   55.7875   33.7590   45.1537 H   0  0  0  0  0  0  0  0  0  0  0  0
   56.9676   35.0882   45.8397 H   0  0  0  0  0  0  0  0  0  0  0  0
   59.9083   33.1448   45.3597 H   0  0  0  0  0  0  0  0  0  0  0  0
   59.6333   34.3736   44.0701 H   0  0  0  0  0  0  0  0  0  0  0  0
   59.3708   34.9317   48.0489 H   0  0  0  0  0  0  0  0  0  0  0  0
   59.9118   33.4492   47.1908 H   0  0  0  0  0  0  0  0  0  0  0  0
   60.9488   34.9159   47.1908 H   0  0  0  0  0  0  0  0  0  0  0  0
   57.6122   32.3229   43.0285 H   0  0  0  0  0  0  0  0  0  0  0  0
   58.4615   31.4585   44.3580 H   0  0  0  0  0  0  0  0  0  0  0  0
   56.2072   27.5776   46.1295 H   0  0  0  0  0  0  0  0  0  0  0  0
   57.0111   27.7425   44.5210 H   0  0  0  0  0  0  0  0  0  0  0  0
   59.0081   27.0788   46.1712 H   0  0  0  0  0  0  0  0  0  0  0  0
   60.9765   28.1707   47.2614 H   0  0  0  0  0  0  0  0  0  0  0  0
   60.9048   30.6155   47.7873 H   0  0  0  0  0  0  0  0  0  0  0  0
   58.8668   31.9394   47.2042 H   0  0  0  0  0  0  0  0  0  0  0  0
   57.0170   30.8420   46.1240 H   0  0  0  0  0  0  0  0  0  0  0  0
  1  2  2  0
  2  3  1  0
  3  4  1  0
  4  5  1  0
  2  6  1  0
  6  7  1  0
  7  8  1  0
  8  9  2  0
  8 10  1  0
 10 11  1  0
 11 12  1  0
 12 13  2  0
 13 14  1  0
 14 15  2  0
 15 16  1  0
 16 17  2  0
 17 12  1  0
  1 18  1  0
  1 19  1  0
  3 20  1  0
  3 21  1  0
  5 22  1  0
  5 23  1  0
  5 24  1  0
  6 25  1  0
  6 26  1  0
 11 27  1  0
 11 28  1  0
 13 29  1  0
 14 30  1  0
 15 31  1  0
 16 32  1  0
 17 33  1  0
M  CHG  2  10  -1  17   1
M  END
>  <UniqueID>  (12) 
12

>  <SMILES>  (12) 
C=C(COC)COC(=O)[N-]Cc1cccc[nH+]1

>  <Energy>  (12) 
22.58044020563279

>  <Genealogy>  (12) 
C=C(COC)COC(=O)[N-]Cc1cccc[nH+]1 (protonated)
C=C(COC)COC(=O)[N-]Cc1cccc[nH+]1 (3D coordinates assigned)
C=C(COC)COC(=O)[N-]Cc1cccc[nH+]1 (optimized conformer: 22.58044020563279 kcal/mol)

>  <smiles>  (12) 
C=C(COC)COC(=O)NCc1ccccn1

>  <score_type>  (12) 
oracle

>  <origin>  (12) 
adg

>  <m_score__min__energy>  (12) 
-6.1699999999999999

>  <m_primary>  (12) 
energy

$$$$
12:0
     RDKit          3D

 51 53  0  0  0  0  0  0  0  0999 V2000
   58.2350   22.2740   44.5050 C   0  0  0  0  0  0  0  0  0  0  0  0
   59.2200   23.1710   45.2500 C   0  0  0  0  0  0  0  0  0  0  0  0
   58.5120   24.0800   46.1520 N   0  0  0  0  0  0  0  0  0  0  0  0
   58.2390   25.4670   45.8750 C   0  0  0  0  0  0  0  0  0  0  0  0
   58.0610   25.8760   44.5450 C   0  0  0  0  0  0  0  0  0  0  0  0
   57.7990   27.2130   44.2370 C   0  0  0  0  0  0  0  0  0  0  0  0
   57.7120   28.1770   45.2570 C   0  0  0  0  0  0  0  0  0  0  0  0
   57.4310   29.5930   44.9130 C   0  0  0  0  0  0  0  0  0  0  0  0
   58.3560   30.5760   44.6030 C   0  0  0  0  0  0  0  0  0  0  0  0
   57.5800   31.6900   44.3710 C   0  0  0  0  0  0  0  0  0  0  0  0
   58.0740   33.0630   44.0200 C   0  0  0  0  0  0  0  0  0  0  0  0
   59.0340   33.5720   45.0110 N   0  0  0  0  0  0  0  0  0  0  0  0
   58.4920   33.5210   46.3760 C   0  0  0  0  0  0  0  0  0  0  0  0
   59.6080   33.2470   47.3970 C   0  0  0  0  0  0  0  0  0  0  0  0
   60.8370   32.7330   46.7490 N   0  0  0  0  0  0  0  0  0  0  0  0
   61.4120   31.5810   47.4890 C   0  0  0  0  0  0  0  0  0  0  0  0
   62.9130   31.4210   47.2120 C   0  0  0  0  0  0  0  0  0  0  0  0
   63.6770   32.6000   47.6560 N   0  0  0  0  0  0  0  0  0  0  0  0
   62.9160   33.8620   47.5850 C   0  0  0  0  0  0  0  0  0  0  0  0
   61.8210   33.8200   46.5070 C   0  0  0  0  0  0  0  0  0  0  0  0
   56.3180   31.3740   44.5390 O   0  0  0  0  0  0  0  0  0  0  0  0
   56.1900   30.1210   44.8630 N   0  0  0  0  0  0  0  0  0  0  0  0
   57.8950   27.7710   46.5900 C   0  0  0  0  0  0  0  0  0  0  0  0
   58.1580   26.4330   46.8960 C   0  0  0  0  0  0  0  0  0  0  0  0
   57.6241   21.7177   45.2312 H   0  0  0  0  0  0  0  0  0  0  0  0
   57.5808   22.8930   43.8735 H   0  0  0  0  0  0  0  0  0  0  0  0
   58.7902   21.5649   43.8735 H   0  0  0  0  0  0  0  0  0  0  0  0
   59.9075   22.5435   45.8363 H   0  0  0  0  0  0  0  0  0  0  0  0
   59.7803   23.7676   44.5151 H   0  0  0  0  0  0  0  0  0  0  0  0
   58.1770   23.6790   47.0580 H   0  0  0  0  0  0  0  0  0  0  0  0
   58.1286   25.1349   43.7349 H   0  0  0  0  0  0  0  0  0  0  0  0
   57.6596   27.5142   43.1882 H   0  0  0  0  0  0  0  0  0  0  0  0
   59.4514   30.4879   44.5537 H   0  0  0  0  0  0  0  0  0  0  0  0
   58.5657   33.0231   43.0368 H   0  0  0  0  0  0  0  0  0  0  0  0
   57.2089   33.7422   44.0043 H   0  0  0  0  0  0  0  0  0  0  0  0
   59.9080   32.9950   44.9690 H   0  0  0  0  0  0  0  0  0  0  0  0
   58.0166   34.4846   46.6114 H   0  0  0  0  0  0  0  0  0  0  0  0
   57.7550   32.7063   46.4323 H   0  0  0  0  0  0  0  0  0  0  0  0
   59.8478   34.1838   47.9213 H   0  0  0  0  0  0  0  0  0  0  0  0
   59.2469   32.4805   48.0985 H   0  0  0  0  0  0  0  0  0  0  0  0
   61.2634   31.7398   48.5673 H   0  0  0  0  0  0  0  0  0  0  0  0
   60.9015   30.6670   47.1513 H   0  0  0  0  0  0  0  0  0  0  0  0
   63.2821   30.5343   47.7482 H   0  0  0  0  0  0  0  0  0  0  0  0
   63.0519   31.3109   46.1264 H   0  0  0  0  0  0  0  0  0  0  0  0
   64.5230   32.6860   47.0450 H   0  0  0  0  0  0  0  0  0  0  0  0
   62.4447   34.0469   48.5616 H   0  0  0  0  0  0  0  0  0  0  0  0
   63.6190   34.6658   47.3211 H   0  0  0  0  0  0  0  0  0  0  0  0
   61.2906   34.7837   46.5030 H   0  0  0  0  0  0  0  0  0  0  0  0
   62.3068   33.6266   45.5392 H   0  0  0  0  0  0  0  0  0  0  0  0
   57.8307   28.5129   47.3996 H   0  0  0  0  0  0  0  0  0  0  0  0
   58.3030   26.1319   47.9440 H   0  0  0  0  0  0  0  0  0  0  0  0
  1  2  1  0
  2  3  1  0
  3  4  1  0
  4  5  2  0
  5  6  1  0
  6  7  2  0
  7  8  1  0
  8  9  1  0
  9 10  2  0
 10 11  1  0
 11 12  1  0
 12 13  1  0
 13 14  1  0
 14 15  1  0
 15 16  1  0
 16 17  1  0
 17 18  1  0
 18 19  1  0
 19 20  1  0
 10 21  1  0
 21 22  1  0
  7 23  1  0
 23 24  2  0
 24  4  1  0
 22  8  2  0
 20 15  1  0
  1 25  1  0
  1 26  1  0
  1 27  1  0
  2 28  1  0
  2 29  1  0
  3 30  1  0
  5 31  1  0
  6 32  1  0
  9 33  1  0
 11 34  1  0
 11 35  1  0
 12 36  1  0
 13 37  1  0
 13 38  1  0
 14 39  1  0
 14 40  1  0
 16 41  1  0
 16 42  1  0
 17 43  1  0
 17 44  1  0
 18 45  1  0
 19 46  1  0
 19 47  1  0
 20 48  1  0
 20 49  1  0
 23 50  1  0
 24 51  1  0
M  END
>  <UniqueID>  (13) 
13

>  <SMILES>  (13) 
CCNc1ccc(-c2cc(CNCCN3CCNCC3)on2)cc1

>  <Energy>  (13) 
89.67813986670625

>  <Genealogy>  (13) 
CCNc1ccc(-c2cc(CNCCN3CCNCC3)on2)cc1 (3D coordinates assigned)
CCNc1ccc(-c2cc(CNCCN3CCNCC3)on2)cc1 (nonaromatic ring conformer: 89.67813986670625 kcal/mol)

>  <smiles>  (13) 
CCNc1ccc(-c2cc(CNCCN3CCNCC3)on2)cc1

>  <score_type>  (13) 
oracle

>  <origin>  (13) 
adg

>  <m_score__min__energy>  (13) 
-7.8600000000000003

>  <m_primary>  (13) 
energy

$$$$
13:0
     RDKit          3D

 41 42  0  0  1  0  0  0  0  0999 V2000
   59.9140   29.9910   47.2390 C   0  0  0  0  0  0  0  0  0  0  0  0
   58.9060   29.3860   48.2150 C   0  0  0  0  0  0  0  0  0  0  0  0
   58.1850   28.3710   47.6280 O   0  0  0  0  0  0  0  0  0  0  0  0
   58.8600   27.8250   46.5610 C   0  0  0  0  0  0  0  0  0  0  0  0
   57.9700   27.3430   45.4700 C   0  0  2  0  0  0  0  0  0  0  0  0
   58.7430   27.1710   44.1550 C   0  0  0  0  0  0  0  0  0  0  0  0
   57.7740   26.9390   43.1840 O   0  0  0  0  0  0  0  0  0  0  0  0
   56.8180   28.1790   45.2470 N   0  0  0  0  0  0  0  0  0  0  0  0
   56.9240   29.3270   44.6750 C   0  0  0  0  0  0  0  0  0  0  0  0
   57.3310   30.4450   45.3020 N   0  0  0  0  0  0  0  0  0  0  0  0
   57.4050   31.5750   44.6170 C   0  0  0  0  0  0  0  0  0  0  0  0
   57.8450   32.7730   45.2960 N   0  0  0  0  0  0  0  0  0  0  0  0
   57.7960   32.7620   46.7440 C   0  0  0  0  0  0  0  0  0  0  0  0
   58.5920   33.8430   47.3470 C   0  0  0  0  0  0  0  0  0  0  0  0
   59.2250   34.7610   46.6340 C   0  0  0  0  0  0  0  0  0  0  0  0
   59.2200   34.8280   45.1580 C   0  0  0  0  0  0  0  0  0  0  0  0
   58.2920   33.8770   44.5030 C   0  0  0  0  0  0  0  0  0  0  0  0
   57.0740   31.6000   43.3100 N   0  0  0  0  0  0  0  0  0  0  0  0
   56.6670   30.5080   42.6680 C   0  0  0  0  0  0  0  0  0  0  0  0
   56.5910   29.3580   43.3540 N   0  0  0  0  0  0  0  0  0  0  0  0
   60.7239   30.4771   47.8027 H   0  0  0  0  0  0  0  0  0  0  0  0
   60.3341   29.1956   46.6058 H   0  0  0  0  0  0  0  0  0  0  0  0
   59.4097   30.7358   46.6058 H   0  0  0  0  0  0  0  0  0  0  0  0
   59.4467   28.9842   49.0846 H   0  0  0  0  0  0  0  0  0  0  0  0
   58.2047   30.1759   48.5220 H   0  0  0  0  0  0  0  0  0  0  0  0
   59.5322   28.5911   46.1472 H   0  0  0  0  0  0  0  0  0  0  0  0
   59.4044   26.9480   46.9412 H   0  0  0  0  0  0  0  0  0  0  0  0
   57.5977   26.3665   45.8131 H   0  0  0  0  0  0  0  0  0  0  0  0
   59.3117   28.0830   43.9209 H   0  0  0  0  0  0  0  0  0  0  0  0
   59.4696   26.3472   44.2126 H   0  0  0  0  0  0  0  0  0  0  0  0
   56.8940   26.8270   43.5810 H   0  0  0  0  0  0  0  0  0  0  0  0
   56.7491   32.8765   47.0616 H   0  0  0  0  0  0  0  0  0  0  0  0
   58.2218   31.8064   47.0838 H   0  0  0  0  0  0  0  0  0  0  0  0
   58.6644   33.8903   48.4436 H   0  0  0  0  0  0  0  0  0  0  0  0
   59.7950   35.5281   47.1787 H   0  0  0  0  0  0  0  0  0  0  0  0
   58.9330   35.8476   44.8613 H   0  0  0  0  0  0  0  0  0  0  0  0
   60.2331   34.5534   44.8289 H   0  0  0  0  0  0  0  0  0  0  0  0
   57.4032   34.4421   44.1856 H   0  0  0  0  0  0  0  0  0  0  0  0
   58.8671   33.4297   43.6789 H   0  0  0  0  0  0  0  0  0  0  0  0
   56.3996   30.5474   41.6017 H   0  0  0  0  0  0  0  0  0  0  0  0
   56.2700   28.4840   42.8610 H   0  0  0  0  0  0  0  0  0  0  0  0
  1  2  1  0
  2  3  1  0
  3  4  1  0
  4  5  1  0
  5  6  1  0
  6  7  1  0
  5  8  1  0
  8  9  2  0
  9 10  1  0
 10 11  2  0
 11 12  1  0
 12 13  1  0
 13 14  1  0
 14 15  2  0
 15 16  1  0
 16 17  1  0
 11 18  1  0
 18 19  2  0
 19 20  1  0
 20  9  1  0
 17 12  1  0
  1 21  1  0
  1 22  1  0
  1 23  1  0
  2 24  1  0
  2 25  1  0
  4 26  1  0
  4 27  1  0
  5 28  1  1
  6 29  1  0
  6 30  1  0
  7 31  1  0
 13 32  1  0
 13 33  1  0
 14 34  1  0
 15 35  1  0
 16 36  1  0
 16 37  1  0
 17 38  1  0
 17 39  1  0
 19 40  1  0
 20 41  1  0
M  END
>  <smiles>  (14) 
CCOCC(CO)N=c1nc(N2CC=CCC2)nc[nH]1

>  <score_type>  (14) 
oracle

>  <origin>  (14) 
adg

>  <m_score__min__energy>  (14) 
-7.8799999999999999

>  <m_primary>  (14) 
energy

$$$$
14:0
     RDKit          3D

 59 62  0  0  0  0  0  0  0  0999 V2000
   57.4120   32.0210   41.4380 C   0  0  0  0  0  0  0  0  0  0  0  0
   58.1200   32.2870   42.7630 C   0  0  0  0  0  0  0  0  0  0  0  0
   57.3520   31.7430   43.8850 N   0  0  0  0  0  0  0  0  0  0  0  0
   57.7640   30.5800   44.6310 C   0  0  0  0  0  0  0  0  0  0  0  0
   57.5620   29.2860   44.1180 C   0  0  0  0  0  0  0  0  0  0  0  0
   57.9130   28.1580   44.8650 C   0  0  0  0  0  0  0  0  0  0  0  0
   57.7000   26.9210   44.3460 N   0  0  0  0  0  0  0  0  0  0  0  0
   58.0120   25.7800   45.0160 C   0  0  0  0  0  0  0  0  0  0  0  0
   57.7570   24.5000   44.3950 N   0  0  0  0  0  0  0  0  0  0  0  0
   57.0120   24.4500   43.1310 C   0  0  0  0  0  0  0  0  0  0  0  0
   56.2950   23.1040   42.9910 C   0  0  0  0  0  0  0  0  0  0  0  0
   57.1960   22.0330   43.1920 O   0  0  0  0  0  0  0  0  0  0  0  0
   57.6500   22.0430   44.5320 C   0  0  0  0  0  0  0  0  0  0  0  0
   58.4850   23.2960   44.8150 C   0  0  0  0  0  0  0  0  0  0  0  0
   58.5850   25.8750   46.2950 C   0  0  0  0  0  0  0  0  0  0  0  0
   58.8210   27.1320   46.8740 C   0  0  0  0  0  0  0  0  0  0  0  0
   59.4380   27.2010   48.2480 C   0  0  0  0  0  0  0  0  0  0  0  0
   58.4810   28.2990   46.1500 C   0  0  0  0  0  0  0  0  0  0  0  0
   58.6920   29.5940   46.6580 C   0  0  0  0  0  0  0  0  0  0  0  0
   58.3450   30.7270   45.9080 C   0  0  0  0  0  0  0  0  0  0  0  0
   58.6240   32.0300   46.4480 N   0  0  0  0  0  0  0  0  0  0  0  0
   57.6890   33.1240   46.1360 C   0  0  0  0  0  0  0  0  0  0  0  0
   58.3760   34.2600   45.3770 C   0  0  0  0  0  0  0  0  0  0  0  0
   59.9340   32.2790   47.0020 C   0  0  0  0  0  0  0  0  0  0  0  0
   61.0140   31.4140   46.7400 C   0  0  0  0  0  0  0  0  0  0  0  0
   62.2720   31.6660   47.2970 C   0  0  0  0  0  0  0  0  0  0  0  0
   62.4640   32.7760   48.1240 C   0  0  0  0  0  0  0  0  0  0  0  0
   64.1830   33.1140   48.8850 Br  0  0  0  0  0  0  0  0  0  0  0  0
   61.3960   33.6350   48.3970 C   0  0  0  0  0  0  0  0  0  0  0  0
   60.1380   33.3870   47.8420 C   0  0  0  0  0  0  0  0  0  0  0  0
   56.3987   31.6403   41.6337 H   0  0  0  0  0  0  0  0  0  0  0  0
   57.3475   32.9562   40.8625 H   0  0  0  0  0  0  0  0  0  0  0  0
   57.9793   31.2747   40.8625 H   0  0  0  0  0  0  0  0  0  0  0  0
   59.1124   31.8129   42.7425 H   0  0  0  0  0  0  0  0  0  0  0  0
   58.2161   33.3745   42.8977 H   0  0  0  0  0  0  0  0  0  0  0  0
   56.4760   32.2340   44.1710 H   0  0  0  0  0  0  0  0  0  0  0  0
   57.1227   29.1603   43.1174 H   0  0  0  0  0  0  0  0  0  0  0  0
   56.2687   25.2607   43.1153 H   0  0  0  0  0  0  0  0  0  0  0  0
   57.7166   24.5694   42.2948 H   0  0  0  0  0  0  0  0  0  0  0  0
   55.4907   23.0441   43.7390 H   0  0  0  0  0  0  0  0  0  0  0  0
   55.8790   23.0295   41.9754 H   0  0  0  0  0  0  0  0  0  0  0  0
   56.7816   22.0285   45.2070 H   0  0  0  0  0  0  0  0  0  0  0  0
   58.2789   21.1558   44.6975 H   0  0  0  0  0  0  0  0  0  0  0  0
   58.6945   23.3564   45.8932 H   0  0  0  0  0  0  0  0  0  0  0  0
   59.4271   23.2328   44.2506 H   0  0  0  0  0  0  0  0  0  0  0  0
   58.8500   24.9603   46.8455 H   0  0  0  0  0  0  0  0  0  0  0  0
   58.6488   27.1127   49.0092 H   0  0  0  0  0  0  0  0  0  0  0  0
   60.1575   26.3777   48.3686 H   0  0  0  0  0  0  0  0  0  0  0  0
   59.9578   28.1629   48.3686 H   0  0  0  0  0  0  0  0  0  0  0  0
   59.1351   29.7194   47.6570 H   0  0  0  0  0  0  0  0  0  0  0  0
   56.8702   32.7270   45.5179 H   0  0  0  0  0  0  0  0  0  0  0  0
   57.3079   33.5288   47.0852 H   0  0  0  0  0  0  0  0  0  0  0  0
   58.8071   34.9728   46.0953 H   0  0  0  0  0  0  0  0  0  0  0  0
   59.1761   33.8474   44.7448 H   0  0  0  0  0  0  0  0  0  0  0  0
   57.6390   34.7769   44.7448 H   0  0  0  0  0  0  0  0  0  0  0  0
   60.8675   30.5358   46.0941 H   0  0  0  0  0  0  0  0  0  0  0  0
   63.1122   30.9889   47.0836 H   0  0  0  0  0  0  0  0  0  0  0  0
   61.5460   34.5076   49.0497 H   0  0  0  0  0  0  0  0  0  0  0  0
   59.3004   34.0645   48.0644 H   0  0  0  0  0  0  0  0  0  0  0  0
  1  2  1  0
  2  3  1  0
  3  4  1  0
  4  5  2  0
  5  6  1  0
  6  7  2  0
  7  8  1  0
  8  9  1  0
  9 10  1  0
 10 11  1  0
 11 12  1  0
 12 13  1  0
 13 14  1  0
  8 15  2  0
 15 16  1  0
 16 17  1  0
 16 18  2  0
 18 19  1  0
 19 20  2  0
 20 21  1  0
 21 22  1  0
 22 23  1  0
 21 24  1  0
 24 25  2  0
 25 26  1  0
 26 27  2  0
 27 28  1  0
 27 29  1  0
 29 30  2  0
 20  4  1  0
 30 24  1  0
 18  6  1  0
 14  9  1  0
  1 31  1  0
  1 32  1  0
  1 33  1  0
  2 34  1  0
  2 35  1  0
  3 36  1  0
  5 37  1  0
 10 38  1  0
 10 39  1  0
 11 40  1  0
 11 41  1  0
 13 42  1  0
 13 43  1  0
 14 44  1  0
 14 45  1  0
 15 46  1  0
 17 47  1  0
 17 48  1  0
 17 49  1  0
 19 50  1  0
 22 51  1  0
 22 52  1  0
 23 53  1  0
 23 54  1  0
 23 55  1  0
 25 56  1  0
 26 57  1  0
 29 58  1  0
 30 59  1  0
M  END
>  <UniqueID>  (15) 
14

>  <SMILES>  (15) 
CCNc1cc2nc(N3CCOCC3)cc(C)c2cc1N(CC)c1ccc(Br)cc1

>  <Energy>  (15) 
75.25453022909555

>  <Genealogy>  (15) 
CCNc1cc2nc(N3CCOCC3)cc(C)c2cc1N(CC)c1ccc(Br)cc1 (3D coordinates assigned)
CCNc1cc2nc(N3CCOCC3)cc(C)c2cc1N(CC)c1ccc(Br)cc1 (nonaromatic ring conformer: 75.25453022909555 kcal/mol)

>  <smiles>  (15) 
CCNc1cc2nc(N3CCOCC3)cc(C)c2cc1N(CC)c1ccc(Br)cc1

>  <score_type>  (15) 
oracle

>  <origin>  (15) 
adg

>  <m_score__min__energy>  (15) 
-8.5399999999999991

>  <m_primary>  (15) 
energy

$$$$
15:0
     RDKit          3D

 46 49  0  0  0  0  0  0  0  0999 V2000
   56.0000   20.6880   45.1710 C   0  0  0  0  0  0  0  0  0  0  0  0
   56.0820   20.2400   43.7780 N   0  0  0  0  0  0  0  0  0  0  0  0
   57.1450   20.9380   43.0400 C   0  0  0  0  0  0  0  0  0  0  0  0
   57.3950   22.3280   43.5780 C   0  0  0  0  0  0  0  0  0  0  0  0
   56.6510   23.4190   43.1020 C   0  0  0  0  0  0  0  0  0  0  0  0
   56.8680   24.7000   43.6150 C   0  0  0  0  0  0  0  0  0  0  0  0
   57.8310   24.9130   44.6180 C   0  0  0  0  0  0  0  0  0  0  0  0
   58.0610   26.2750   45.1660 C   0  0  0  0  0  0  0  0  0  0  0  0
   59.2270   26.5700   45.8850 C   0  0  0  0  0  0  0  0  0  0  0  0
   59.4250   27.8540   46.3940 C   0  0  0  0  0  0  0  0  0  0  0  0
   58.4910   28.8340   46.2030 N   0  0  0  0  0  0  0  0  0  0  0  0
   58.7340   30.1430   46.7560 C   0  0  0  0  0  0  0  0  0  0  0  0
   59.0470   30.2920   48.1340 C   0  0  0  0  0  0  0  0  0  0  0  0
   59.2960   31.5640   48.6820 C   0  0  0  0  0  0  0  0  0  0  0  0
   59.2240   32.6610   47.8240 C   0  0  0  0  0  0  0  0  0  0  0  0
   58.9330   32.5290   46.4990 C   0  0  0  0  0  0  0  0  0  0  0  0
   58.6830   31.2860   45.9230 C   0  0  0  0  0  0  0  0  0  0  0  0
   58.9420   33.7300   45.8910 N   0  0  0  0  0  0  0  0  0  0  0  0
   59.2480   34.5850   46.9030 C   0  0  0  0  0  0  0  0  0  0  0  0
   59.4190   33.9600   48.0940 N   0  0  0  0  0  0  0  0  0  0  0  0
   59.7930   34.5680   49.3670 C   0  0  0  0  0  0  0  0  0  0  0  0
   57.3470   28.5710   45.4930 C   0  0  0  0  0  0  0  0  0  0  0  0
   56.4950   29.4780   45.2840 O   0  0  0  0  0  0  0  0  0  0  0  0
   57.1160   27.2930   44.9730 C   0  0  0  0  0  0  0  0  0  0  0  0
   58.5710   23.8160   45.0960 C   0  0  0  0  0  0  0  0  0  0  0  0
   58.3520   22.5350   44.5800 C   0  0  0  0  0  0  0  0  0  0  0  0
   56.1570   19.8304   45.8418 H   0  0  0  0  0  0  0  0  0  0  0  0
   56.7742   21.4466   45.3584 H   0  0  0  0  0  0  0  0  0  0  0  0
   55.0073   21.1232   45.3584 H   0  0  0  0  0  0  0  0  0  0  0  0
   56.2660   19.2100   43.7690 H   0  0  0  0  0  0  0  0  0  0  0  0
   58.0740   20.3545   43.1205 H   0  0  0  0  0  0  0  0  0  0  0  0
   56.8222   21.0341   41.9928 H   0  0  0  0  0  0  0  0  0  0  0  0
   55.8926   23.2643   42.3204 H   0  0  0  0  0  0  0  0  0  0  0  0
   56.2817   25.5482   43.2319 H   0  0  0  0  0  0  0  0  0  0  0  0
   59.9855   25.7901   46.0480 H   0  0  0  0  0  0  0  0  0  0  0  0
   60.3434   28.0804   46.9556 H   0  0  0  0  0  0  0  0  0  0  0  0
   59.0952   29.4028   48.7798 H   0  0  0  0  0  0  0  0  0  0  0  0
   59.5385   31.6884   49.7477 H   0  0  0  0  0  0  0  0  0  0  0  0
   58.4525   31.1952   44.8513 H   0  0  0  0  0  0  0  0  0  0  0  0
   59.3467   35.6724   46.7692 H   0  0  0  0  0  0  0  0  0  0  0  0
   59.4130   33.9503   50.1941 H   0  0  0  0  0  0  0  0  0  0  0  0
   60.8889   34.6354   49.4332 H   0  0  0  0  0  0  0  0  0  0  0  0
   59.3589   35.5766   49.4332 H   0  0  0  0  0  0  0  0  0  0  0  0
   56.1924   27.0865   44.4123 H   0  0  0  0  0  0  0  0  0  0  0  0
   59.3268   23.9671   45.8808 H   0  0  0  0  0  0  0  0  0  0  0  0
   58.9348   21.6844   44.9632 H   0  0  0  0  0  0  0  0  0  0  0  0
  1  2  1  0
  2  3  1  0
  3  4  1  0
  4  5  2  0
  5  6  1  0
  6  7  2  0
  7  8  1  0
  8  9  1  0
  9 10  2  0
 10 11  1  0
 11 12  1  0
 12 13  2  0
 13 14  1  0
 14 15  2  0
 15 16  1  0
 16 17  2  0
 16 18  1  0
 18 19  2  0
 19 20  1  0
 20 21  1  0
 11 22  1  0
 22 23  2  0
 22 24  1  0
  7 25  1  0
 25 26  2  0
 26  4  1  0
 24  8  2  0
 17 12  1  0
 20 15  1  0
  1 27  1  0
  1 28  1  0
  1 29  1  0
  2 30  1  0
  3 31  1  0
  3 32  1  0
  5 33  1  0
  6 34  1  0
  9 35  1  0
 10 36  1  0
 13 37  1  0
 14 38  1  0
 17 39  1  0
 19 40  1  0
 21 41  1  0
 21 42  1  0
 21 43  1  0
 24 44  1  0
 25 45  1  0
 26 46  1  0
M  END
>  <UniqueID>  (16) 
15

>  <SMILES>  (16) 
CNCc1ccc(-c2ccn(-c3ccc4c(c3)ncn4C)c(=O)c2)cc1

>  <Energy>  (16) 
100.14386839739018

>  <Genealogy>  (16) 
CNCc1ccc(-c2ccn(-c3ccc4c(c3)ncn4C)c(=O)c2)cc1 (3D coordinates assigned)
CNCc1ccc(-c2ccn(-c3ccc4c(c3)ncn4C)c(=O)c2)cc1 (optimized conformer: 100.14386839739018 kcal/mol)

>  <smiles>  (16) 
CNCc1ccc(-c2ccn(-c3ccc4c(c3)ncn4C)c(=O)c2)cc1

>  <score_type>  (16) 
oracle

>  <origin>  (16) 
adg

>  <m_score__min__energy>  (16) 
-7.7800000000000002

>  <m_primary>  (16) 
energy

$$$$
16:0
     RDKit          3D

 55 57  0  0  0  0  0  0  0  0999 V2000
   60.5670   33.6930   49.9540 C   0  0  0  0  0  0  0  0  0  0  0  0
   61.9050   34.2250   49.4410 C   0  0  0  0  0  0  0  0  0  0  0  0
   62.2020   33.8030   47.9910 C   0  0  0  0  0  0  0  0  0  0  0  0
   63.2800   32.7100   47.8370 C   0  0  0  0  0  0  0  0  0  0  0  0
   62.8110   31.4180   47.1430 C   0  0  0  0  0  0  0  0  0  0  0  0
   61.3160   31.1290   47.3700 C   0  0  0  0  0  0  0  0  0  0  0  0
   61.0440   30.5130   48.7520 C   0  0  0  0  0  0  0  0  0  0  0  0
   60.7550   29.0080   48.6760 C   0  0  0  0  0  0  0  0  0  0  0  0
   59.6260   28.7420   47.7260 C   0  0  0  0  0  0  0  0  0  0  0  0
   58.5240   29.5180   47.6460 N   0  0  0  0  0  0  0  0  0  0  0  0
   57.7660   28.9870   46.6980 N   0  0  0  0  0  0  0  0  0  0  0  0
   58.4020   27.9080   46.2110 C   0  0  0  0  0  0  0  0  0  0  0  0
   57.7240   26.8400   44.9340 S   0  0  0  0  0  0  0  0  0  0  0  0
   57.8630   28.0780   43.5980 C   0  0  0  0  0  0  0  0  0  0  0  0
   57.5350   29.4440   44.1050 C   0  0  0  0  0  0  0  0  0  0  0  0
   58.4580   30.3870   44.3730 N   0  0  0  0  0  0  0  0  0  0  0  0
   57.6870   31.3870   44.8480 C   0  0  0  0  0  0  0  0  0  0  0  0
   58.2290   32.6650   45.3600 C   0  0  0  0  0  0  0  0  0  0  0  0
   58.2790   32.9180   46.7430 C   0  0  0  0  0  0  0  0  0  0  0  0
   58.8090   34.1200   47.2220 C   0  0  0  0  0  0  0  0  0  0  0  0
   59.2950   35.0770   46.3270 C   0  0  0  0  0  0  0  0  0  0  0  0
   59.2520   34.8350   44.9520 C   0  0  0  0  0  0  0  0  0  0  0  0
   58.7210   33.6350   44.4680 C   0  0  0  0  0  0  0  0  0  0  0  0
   56.3760   31.0650   44.8610 N   0  0  0  0  0  0  0  0  0  0  0  0
   56.3250   29.8540   44.3950 O   0  0  0  0  0  0  0  0  0  0  0  0
   59.5900   27.7330   46.8270 N   0  0  0  0  0  0  0  0  0  0  0  0
   60.5790   26.6780   46.6270 C   0  0  0  0  0  0  0  0  0  0  0  0
   60.5695   33.6940   51.0540 H   0  0  0  0  0  0  0  0  0  0  0  0
   59.7525   34.3357   49.5886 H   0  0  0  0  0  0  0  0  0  0  0  0
   60.4162   32.6665   49.5886 H   0  0  0  0  0  0  0  0  0  0  0  0
   61.8877   35.3238   49.4901 H   0  0  0  0  0  0  0  0  0  0  0  0
   62.6950   33.7988   50.0769 H   0  0  0  0  0  0  0  0  0  0  0  0
   61.2685   33.4263   47.5474 H   0  0  0  0  0  0  0  0  0  0  0  0
   62.5966   34.6969   47.4857 H   0  0  0  0  0  0  0  0  0  0  0  0
   64.1089   33.1304   47.2486 H   0  0  0  0  0  0  0  0  0  0  0  0
   63.5679   32.4200   48.8583 H   0  0  0  0  0  0  0  0  0  0  0  0
   62.9903   31.5145   46.0620 H   0  0  0  0  0  0  0  0  0  0  0  0
   63.3799   30.5828   47.5775 H   0  0  0  0  0  0  0  0  0  0  0  0
   60.7568   32.0726   47.2870 H   0  0  0  0  0  0  0  0  0  0  0  0
   60.9943   30.4030   46.6088 H   0  0  0  0  0  0  0  0  0  0  0  0
   61.9267   30.6713   49.3891 H   0  0  0  0  0  0  0  0  0  0  0  0
   60.1524   31.0047   49.1683 H   0  0  0  0  0  0  0  0  0  0  0  0
   61.6557   28.4829   48.3253 H   0  0  0  0  0  0  0  0  0  0  0  0
   60.4735   28.6469   49.6762 H   0  0  0  0  0  0  0  0  0  0  0  0
   56.8390   29.3590   46.3980 H   0  0  0  0  0  0  0  0  0  0  0  0
   58.8920   28.0750   43.2091 H   0  0  0  0  0  0  0  0  0  0  0  0
   57.1517   27.8176   42.8004 H   0  0  0  0  0  0  0  0  0  0  0  0
   57.8993   32.1666   47.4510 H   0  0  0  0  0  0  0  0  0  0  0  0
   58.8434   34.3125   48.3045 H   0  0  0  0  0  0  0  0  0  0  0  0
   59.7118   36.0219   46.7058 H   0  0  0  0  0  0  0  0  0  0  0  0
   59.6361   35.5889   44.2491 H   0  0  0  0  0  0  0  0  0  0  0  0
   58.6880   33.4488   43.3844 H   0  0  0  0  0  0  0  0  0  0  0  0
   60.9246   26.3094   47.6041 H   0  0  0  0  0  0  0  0  0  0  0  0
   60.1236   25.8506   46.0631 H   0  0  0  0  0  0  0  0  0  0  0  0
   61.4341   27.0791   46.0631 H   0  0  0  0  0  0  0  0  0  0  0  0
  1  2  1  0
  2  3  1  0
  3  4  1  0
  4  5  1  0
  5  6  1  0
  6  7  1  0
  7  8  1  0
  8  9  1  0
  9 10  2  0
 10 11  1  0
 11 12  2  0
 12 13  1  0
 13 14  1  0
 14 15  1  0
 15 16  2  0
 16 17  1  0
 17 18  1  0
 18 19  2  0
 19 20  1  0
 20 21  2  0
 21 22  1  0
 22 23  2  0
 17 24  2  0
 24 25  1  0
 12 26  1  0
 26 27  1  0
 26  9  1  0
 25 15  1  0
 23 18  1  0
  1 28  1  0
  1 29  1  0
  1 30  1  0
  2 31  1  0
  2 32  1  0
  3 33  1  0
  3 34  1  0
  4 35  1  0
  4 36  1  0
  5 37  1  0
  5 38  1  0
  6 39  1  0
  6 40  1  0
  7 41  1  0
  7 42  1  0
  8 43  1  0
  8 44  1  0
 11 45  1  0
 14 46  1  0
 14 47  1  0
 19 48  1  0
 20 49  1  0
 21 50  1  0
 22 51  1  0
 23 52  1  0
 27 53  1  0
 27 54  1  0
 27 55  1  0
M  CHG  1  11   1
M  END
>  <UniqueID>  (17) 
16

>  <SMILES>  (17) 
CCCCCCCCc1n[nH+]c(SCc2nc(-c3ccccc3)no2)n1C

>  <Energy>  (17) 
105.3309226449806

>  <Genealogy>  (17) 
CCCCCCCCc1n[nH+]c(SCc2nc(-c3ccccc3)no2)n1C (protonated)
CCCCCCCCc1n[nH+]c(SCc2nc(-c3ccccc3)no2)n1C (3D coordinates assigned)
CCCCCCCCc1n[nH+]c(SCc2nc(-c3ccccc3)no2)n1C (optimized conformer: 105.3309226449806 kcal/mol)

>  <smiles>  (17) 
CCCCCCCCc1nnc(SCc2nc(-c3ccccc3)no2)n1C

>  <score_type>  (17) 
oracle

>  <origin>  (17) 
adg

>  <m_score__min__energy>  (17) 
-7.4500000000000002

>  <m_primary>  (17) 
energy

$$$$
17:0
     RDKit          3D

 37 38  0  0  0  0  0  0  0  0999 V2000
   64.8040   32.7170   49.4920 C   0  0  0  0  0  0  0  0  0  0  0  0
   63.3810   32.1620   49.6210 C   0  0  0  0  0  0  0  0  0  0  0  0
   62.4690   32.6520   48.5530 N   0  0  0  0  0  0  0  0  0  0  0  0
   63.0320   32.4890   47.1850 C   0  0  0  0  0  0  0  0  0  0  0  0
   63.2970   33.8100   46.4460 C   0  0  0  0  0  0  0  0  0  0  0  0
   62.0590   34.0650   48.8090 C   0  0  0  0  0  0  0  0  0  0  0  0
   60.5460   34.2190   49.0610 C   0  0  0  0  0  0  0  0  0  0  0  0
   59.7560   33.7460   47.9260 N   0  0  0  0  0  0  0  0  0  0  0  0
   59.3900   34.4810   46.7560 C   0  0  0  0  0  0  0  0  0  0  0  0
   59.5810   35.7170   46.6040 O   0  0  0  0  0  0  0  0  0  0  0  0
   58.7840   33.5870   45.7770 C   0  0  0  0  0  0  0  0  0  0  0  0
   58.2900   33.8390   44.4980 C   0  0  0  0  0  0  0  0  0  0  0  0
   57.7700   32.7550   43.7670 C   0  0  0  0  0  0  0  0  0  0  0  0
   57.7600   31.4570   44.3210 C   0  0  0  0  0  0  0  0  0  0  0  0
   58.2680   31.2280   45.6120 C   0  0  0  0  0  0  0  0  0  0  0  0
   58.7730   32.3180   46.3190 C   0  0  0  0  0  0  0  0  0  0  0  0
   59.3750   32.3970   47.6450 C   0  0  0  0  0  0  0  0  0  0  0  0
   59.5560   31.4300   48.4300 O   0  0  0  0  0  0  0  0  0  0  0  0
   65.2257   32.8815   50.4946 H   0  0  0  0  0  0  0  0  0  0  0  0
   65.4301   31.9971   48.9444 H   0  0  0  0  0  0  0  0  0  0  0  0
   64.7774   33.6707   48.9444 H   0  0  0  0  0  0  0  0  0  0  0  0
   63.4263   31.0642   49.5673 H   0  0  0  0  0  0  0  0  0  0  0  0
   62.9777   32.5088   50.5839 H   0  0  0  0  0  0  0  0  0  0  0  0
   61.6120   32.0490   48.5750 H   0  0  0  0  0  0  0  0  0  0  0  0
   63.9839   31.9440   47.2674 H   0  0  0  0  0  0  0  0  0  0  0  0
   62.2768   31.9466   46.5973 H   0  0  0  0  0  0  0  0  0  0  0  0
   63.4583   34.6142   47.1790 H   0  0  0  0  0  0  0  0  0  0  0  0
   64.1918   33.7041   45.8150 H   0  0  0  0  0  0  0  0  0  0  0  0
   62.4306   34.0574   45.8150 H   0  0  0  0  0  0  0  0  0  0  0  0
   62.6004   34.4320   49.6934 H   0  0  0  0  0  0  0  0  0  0  0  0
   62.3023   34.6458   47.9071 H   0  0  0  0  0  0  0  0  0  0  0  0
   60.2724   33.6361   49.9529 H   0  0  0  0  0  0  0  0  0  0  0  0
   60.3305   35.2879   49.2059 H   0  0  0  0  0  0  0  0  0  0  0  0
   58.3062   34.8537   44.0735 H   0  0  0  0  0  0  0  0  0  0  0  0
   57.3684   32.9204   42.7564 H   0  0  0  0  0  0  0  0  0  0  0  0
   57.3517   30.6180   43.7384 H   0  0  0  0  0  0  0  0  0  0  0  0
   58.2669   30.2193   46.0507 H   0  0  0  0  0  0  0  0  0  0  0  0
  1  2  1  0
  2  3  1  0
  3  4  1  0
  4  5  1  0
  3  6  1  0
  6  7  1  0
  7  8  1  0
  8  9  1  0
  9 10  2  0
  9 11  1  0
 11 12  2  0
 12 13  1  0
 13 14  2  0
 14 15  1  0
 15 16  2  0
 16 17  1  0
 17 18  2  0
 17  8  1  0
 16 11  1  0
  1 19  1  0
  1 20  1  0
  1 21  1  0
  2 22  1  0
  2 23  1  0
  3 24  1  0
  4 25  1  0
  4 26  1  0
  5 27  1  0
  5 28  1  0
  5 29  1  0
  6 30  1  0
  6 31  1  0
  7 32  1  0
  7 33  1  0
 12 34  1  0
 13 35  1  0
 14 36  1  0
 15 37  1  0
M  CHG  1   3   1
M  END
>  <UniqueID>  (18) 
17

>  <SMILES>  (18) 
CC[NH+](CC)CCN1C(=O)c2ccccc2C1=O

>  <Energy>  (18) 
70.2830888615052

>  <Genealogy>  (18) 
CC[NH+](CC)CCN1C(=O)c2ccccc2C1=O (protonated)
CC[NH+](CC)CCN1C(=O)c2ccccc2C1=O (3D coordinates assigned)
CC[NH+](CC)CCN1C(=O)c2ccccc2C1=O (nonaromatic ring conformer: 70.2830888615052 kcal/mol)

>  <smiles>  (18) 
CCN(CC)CCN1C(=O)c2ccccc2C1=O

>  <score_type>  (18) 
oracle

>  <origin>  (18) 
adg

>  <m_score__min__energy>  (18) 
-4.21

>  <m_primary>  (18) 
energy

$$$$
18:0
     RDKit          3D

 51 52  0  0  0  0  0  0  0  0999 V2000
   63.2660   33.8400   46.4170 C   0  0  0  0  0  0  0  0  0  0  0  0
   62.7320   32.8380   47.4360 C   0  0  0  0  0  0  0  0  0  0  0  0
   61.2860   32.6100   47.2190 N   0  0  0  0  0  0  0  0  0  0  0  0
   60.6770   31.7910   48.2980 C   0  0  0  0  0  0  0  0  0  0  0  0
   61.6700   30.8740   49.0250 C   0  0  0  0  0  0  0  0  0  0  0  0
   60.5680   33.8790   46.9460 C   0  0  0  0  0  0  0  0  0  0  0  0
   59.1950   33.9250   47.6240 C   0  0  0  0  0  0  0  0  0  0  0  0
   58.2460   33.2640   46.8140 O   0  0  0  0  0  0  0  0  0  0  0  0
   58.0590   33.9910   45.6180 C   0  0  0  0  0  0  0  0  0  0  0  0
   57.3990   33.0830   44.5830 C   0  0  0  0  0  0  0  0  0  0  0  0
   58.2750   32.0190   44.2120 O   0  0  0  0  0  0  0  0  0  0  0  0
   58.3800   30.7730   44.8570 C   0  0  0  0  0  0  0  0  0  0  0  0
   59.5400   30.3910   45.5560 C   0  0  0  0  0  0  0  0  0  0  0  0
   59.6100   29.1600   46.2050 C   0  0  0  0  0  0  0  0  0  0  0  0
   58.5150   28.2790   46.1850 C   0  0  0  0  0  0  0  0  0  0  0  0
   58.5350   27.0280   46.8450 C   0  0  0  0  0  0  0  0  0  0  0  0
   59.7400   26.5450   47.6100 C   0  0  0  0  0  0  0  0  0  0  0  0
   57.3950   26.2180   46.7840 C   0  0  0  0  0  0  0  0  0  0  0  0
   56.2760   26.6610   46.0790 C   0  0  0  0  0  0  0  0  0  0  0  0
   55.2450   25.9410   46.0200 O   0  0  0  0  0  0  0  0  0  0  0  0
   56.2900   27.8380   45.4670 O   0  0  0  0  0  0  0  0  0  0  0  0
   57.3420   28.6540   45.4850 C   0  0  0  0  0  0  0  0  0  0  0  0
   57.2820   29.8890   44.8060 C   0  0  0  0  0  0  0  0  0  0  0  0
   56.0230   30.2990   44.0860 C   0  0  0  0  0  0  0  0  0  0  0  0
   63.7201   34.6921   46.9439 H   0  0  0  0  0  0  0  0  0  0  0  0
   64.0241   33.3528   45.7862 H   0  0  0  0  0  0  0  0  0  0  0  0
   62.4388   34.1976   45.7862 H   0  0  0  0  0  0  0  0  0  0  0  0
   63.2707   31.8853   47.3255 H   0  0  0  0  0  0  0  0  0  0  0  0
   62.8840   33.2401   48.4485 H   0  0  0  0  0  0  0  0  0  0  0  0
   60.2300   32.4715   49.0377 H   0  0  0  0  0  0  0  0  0  0  0  0
   59.9337   31.1370   47.8186 H   0  0  0  0  0  0  0  0  0  0  0  0
   61.5463   30.9882   50.1120 H   0  0  0  0  0  0  0  0  0  0  0  0
   61.4784   29.8284   48.7420 H   0  0  0  0  0  0  0  0  0  0  0  0
   62.6970   31.1481   48.7420 H   0  0  0  0  0  0  0  0  0  0  0  0
   61.1754   34.7169   47.3189 H   0  0  0  0  0  0  0  0  0  0  0  0
   60.4105   33.9507   45.8597 H   0  0  0  0  0  0  0  0  0  0  0  0
   59.2527   33.4257   48.6025 H   0  0  0  0  0  0  0  0  0  0  0  0
   58.8906   34.9728   47.7635 H   0  0  0  0  0  0  0  0  0  0  0  0
   57.4130   34.8600   45.8117 H   0  0  0  0  0  0  0  0  0  0  0  0
   59.0308   34.3410   45.2398 H   0  0  0  0  0  0  0  0  0  0  0  0
   56.4776   32.6598   45.0095 H   0  0  0  0  0  0  0  0  0  0  0  0
   57.1674   33.6783   43.6875 H   0  0  0  0  0  0  0  0  0  0  0  0
   60.4025   31.0729   45.5905 H   0  0  0  0  0  0  0  0  0  0  0  0
   60.5296   28.8754   46.7373 H   0  0  0  0  0  0  0  0  0  0  0  0
   59.5445   26.6234   48.6896 H   0  0  0  0  0  0  0  0  0  0  0  0
   59.9434   25.4959   47.3494 H   0  0  0  0  0  0  0  0  0  0  0  0
   60.6117   27.1632   47.3494 H   0  0  0  0  0  0  0  0  0  0  0  0
   57.3818   25.2403   47.2879 H   0  0  0  0  0  0  0  0  0  0  0  0
   55.2456   30.5522   44.8219 H   0  0  0  0  0  0  0  0  0  0  0  0
   56.2304   31.1760   43.4553 H   0  0  0  0  0  0  0  0  0  0  0  0
   55.6741   29.4680   43.4553 H   0  0  0  0  0  0  0  0  0  0  0  0
  1  2  1  0
  2  3  1  0
  3  4  1  0
  4  5  1  0
  3  6  1  0
  6  7  1  0
  7  8  1  0
  8  9  1  0
  9 10  1  0
 10 11  1  0
 11 12  1  0
 12 13  2  0
 13 14  1  0
 14 15  2  0
 15 16  1  0
 16 17  1  0
 16 18  2  0
 18 19  1  0
 19 20  2  0
 19 21  1  0
 21 22  1  0
 22 23  2  0
 23 24  1  0
 23 12  1  0
 22 15  1  0
  1 25  1  0
  1 26  1  0
  1 27  1  0
  2 28  1  0
  2 29  1  0
  4 30  1  0
  4 31  1  0
  5 32  1  0
  5 33  1  0
  5 34  1  0
  6 35  1  0
  6 36  1  0
  7 37  1  0
  7 38  1  0
  9 39  1  0
  9 40  1  0
 10 41  1  0
 10 42  1  0
 13 43  1  0
 14 44  1  0
 17 45  1  0
 17 46  1  0
 17 47  1  0
 18 48  1  0
 24 49  1  0
 24 50  1  0
 24 51  1  0
M  END
>  <UniqueID>  (19) 
18

>  <SMILES>  (19) 
CCN(CC)CCOCCOc1ccc2c(C)cc(=O)oc2c1C

>  <Energy>  (19) 
55.631020772466584

>  <Genealogy>  (19) 
CCN(CC)CCOCCOc1ccc2c(C)cc(=O)oc2c1C (3D coordinates assigned)
CCN(CC)CCOCCOc1ccc2c(C)cc(=O)oc2c1C (optimized conformer: 55.631020772466584 kcal/mol)

>  <smiles>  (19) 
CCN(CC)CCOCCOc1ccc2c(C)cc(=O)oc2c1C

>  <score_type>  (19) 
oracle

>  <origin>  (19) 
adg

>  <m_score__min__energy>  (19) 
-7.0899999999999999

>  <m_primary>  (19) 
energy

$$$$
19:0
     RDKit          3D

 48 50  0  0  0  0  0  0  0  0999 V2000
   58.5840   32.5120   51.6190 C   0  0  0  0  0  0  0  0  0  0  0  0
   59.2140   31.9030   50.4330 N   0  0  1  0  0  0  0  0  0  0  0  0
   60.6820   31.7690   50.5750 C   0  0  0  0  0  0  0  0  0  0  0  0
   61.4690   32.3320   49.4100 C   0  0  0  0  0  0  0  0  0  0  0  0
   61.7200   31.5450   48.2730 C   0  0  0  0  0  0  0  0  0  0  0  0
   62.4690   32.0570   47.2110 C   0  0  0  0  0  0  0  0  0  0  0  0
   62.9870   33.3550   47.2810 C   0  0  0  0  0  0  0  0  0  0  0  0
   63.7350   33.8450   46.2590 F   0  0  0  0  0  0  0  0  0  0  0  0
   62.7370   34.1490   48.4040 C   0  0  0  0  0  0  0  0  0  0  0  0
   61.9820   33.6420   49.4660 C   0  0  0  0  0  0  0  0  0  0  0  0
   58.5970   30.6330   50.0920 C   0  0  0  0  0  0  0  0  0  0  0  0
   57.7700   30.1010   50.8840 O   0  0  0  0  0  0  0  0  0  0  0  0
   58.9860   29.8840   48.8720 C   0  0  0  0  0  0  0  0  0  0  0  0
   59.8300   28.7620   48.9360 C   0  0  0  0  0  0  0  0  0  0  0  0
   60.2100   28.0910   47.7710 C   0  0  0  0  0  0  0  0  0  0  0  0
   59.7690   28.5410   46.5290 C   0  0  0  0  0  0  0  0  0  0  0  0
   58.9430   29.6700   46.4400 C   0  0  0  0  0  0  0  0  0  0  0  0
   58.4730   30.1590   45.0950 C   0  0  0  0  0  0  0  0  0  0  0  0
   57.2520   30.9720   45.2070 N   0  0  0  0  0  0  0  0  0  0  0  0
   57.3940   32.2960   44.5770 C   0  0  0  0  0  0  0  0  0  0  0  0
   58.1530   33.2110   45.4900 C   0  0  0  0  0  0  0  0  0  0  0  0
   59.2700   33.9620   45.0860 C   0  0  0  0  0  0  0  0  0  0  0  0
   59.8490   34.6880   46.1140 C   0  0  0  0  0  0  0  0  0  0  0  0
   58.9690   34.4010   47.5170 S   0  0  0  0  0  0  0  0  0  0  0  0
   57.8490   33.3490   46.8410 C   0  0  0  0  0  0  0  0  0  0  0  0
   58.5440   30.3270   47.6150 C   0  0  0  0  0  0  0  0  0  0  0  0
   59.0271   32.0837   52.5302 H   0  0  0  0  0  0  0  0  0  0  0  0
   58.7517   33.5991   51.6058 H   0  0  0  0  0  0  0  0  0  0  0  0
   57.5032   32.3075   51.6058 H   0  0  0  0  0  0  0  0  0  0  0  0
   59.0610   32.5810   49.6570 H   0  0  0  0  0  0  0  0  0  0  0  0
   60.9906   32.2983   51.4886 H   0  0  0  0  0  0  0  0  0  0  0  0
   60.9002   30.6916   50.6146 H   0  0  0  0  0  0  0  0  0  0  0  0
   61.3244   30.5200   48.2191 H   0  0  0  0  0  0  0  0  0  0  0  0
   62.6517   31.4395   46.3192 H   0  0  0  0  0  0  0  0  0  0  0  0
   63.1346   35.1735   48.4522 H   0  0  0  0  0  0  0  0  0  0  0  0
   61.7880   34.2690   50.3487 H   0  0  0  0  0  0  0  0  0  0  0  0
   60.1946   28.4091   49.9120 H   0  0  0  0  0  0  0  0  0  0  0  0
   60.8590   27.2052   47.8349 H   0  0  0  0  0  0  0  0  0  0  0  0
   60.0699   28.0086   45.6147 H   0  0  0  0  0  0  0  0  0  0  0  0
   59.2671   30.7695   44.6404 H   0  0  0  0  0  0  0  0  0  0  0  0
   58.2444   29.2816   44.4722 H   0  0  0  0  0  0  0  0  0  0  0  0
   56.4910   30.4560   44.7130 H   0  0  0  0  0  0  0  0  0  0  0  0
   57.9392   32.1924   43.6272 H   0  0  0  0  0  0  0  0  0  0  0  0
   56.3961   32.7175   44.3860 H   0  0  0  0  0  0  0  0  0  0  0  0
   59.6481   33.9724   44.0531 H   0  0  0  0  0  0  0  0  0  0  0  0
   60.7313   35.3391   46.0272 H   0  0  0  0  0  0  0  0  0  0  0  0
   57.0213   32.8560   47.3719 H   0  0  0  0  0  0  0  0  0  0  0  0
   57.8771   31.1993   47.5500 H   0  0  0  0  0  0  0  0  0  0  0  0
  1  2  1  0
  2  3  1  0
  3  4  1  0
  4  5  2  0
  5  6  1  0
  6  7  2  0
  7  8  1  0
  7  9  1  0
  9 10  2  0
  2 11  1  0
 11 12  2  0
 11 13  1  0
 13 14  2  0
 14 15  1  0
 15 16  2  0
 16 17  1  0
 17 18  1  0
 18 19  1  0
 19 20  1  0
 20 21  1  0
 21 22  1  0
 22 23  2  0
 23 24  1  0
 24 25  1  0
 17 26  2  0
 10  4  1  0
 26 13  1  0
 25 21  2  0
  1 27  1  0
  1 28  1  0
  1 29  1  0
  2 30  1  6
  3 31  1  0
  3 32  1  0
  5 33  1  0
  6 34  1  0
  9 35  1  0
 10 36  1  0
 14 37  1  0
 15 38  1  0
 16 39  1  0
 18 40  1  0
 18 41  1  0
 19 42  1  0
 20 43  1  0
 20 44  1  0
 22 45  1  0
 23 46  1  0
 25 47  1  0
 26 48  1  0
M  CHG  1   2   1
M  END
>  <UniqueID>  (20) 
19

>  <SMILES>  (20) 
C[N@@H+](Cc1ccc(F)cc1)C(=O)c1cccc(CNCc2ccsc2)c1

>  <Energy>  (20) 
80.67882224002837

>  <Genealogy>  (20) 
C[NH+](Cc1ccc(F)cc1)C(=O)c1cccc(CNCc2ccsc2)c1 (protonated)
C[N@@H+](Cc1ccc(F)cc1)C(=O)c1cccc(CNCc2ccsc2)c1 (chirality)
C[N@@H+](Cc1ccc(F)cc1)C(=O)c1cccc(CNCc2ccsc2)c1 (3D coordinates assigned)
C[N@@H+](Cc1ccc(F)cc1)C(=O)c1cccc(CNCc2ccsc2)c1 (optimized conformer: 80.67882224002837 kcal/mol)

>  <smiles>  (20) 
CN(Cc1ccc(F)cc1)C(=O)c1cccc(CNCc2ccsc2)c1

>  <score_type>  (20) 
oracle

>  <origin>  (20) 
adg

>  <m_score__min__energy>  (20) 
-7.4699999999999998

>  <m_primary>  (20) 
energy

$$$$
20:0
     RDKit          3D

 66 68  0  0  0  0  0  0  0  0999 V2000
   57.0470   28.9810   43.5380 C   0  0  0  0  0  0  0  0  0  0  0  0
   56.2630   30.2170   43.9730 C   0  0  0  0  0  0  0  0  0  0  0  0
   57.0780   31.0400   44.8970 N   0  0  0  0  0  0  0  0  0  0  0  0
   57.3990   32.3770   44.3330 C   0  0  0  0  0  0  0  0  0  0  0  0
   58.1150   32.3420   42.9710 C   0  0  0  0  0  0  0  0  0  0  0  0
   58.2480   30.3000   45.4290 C   0  0  0  0  0  0  0  0  0  0  0  0
   58.7090   30.8460   46.7910 C   0  0  0  0  0  0  0  0  0  0  0  0
   58.5500   29.8820   47.8170 O   0  0  0  0  0  0  0  0  0  0  0  0
   59.7970   29.4080   48.3000 C   0  0  0  0  0  0  0  0  0  0  0  0
   60.5300   30.5470   49.0140 C   0  0  0  0  0  0  0  0  0  0  0  0
   59.9710   30.7880   50.2920 O   0  0  0  0  0  0  0  0  0  0  0  0
   58.8240   31.6130   50.1960 C   0  0  0  0  0  0  0  0  0  0  0  0
   58.9170   32.7210   51.2410 C   0  0  0  0  0  0  0  0  0  0  0  0
   59.5620   33.9110   50.6860 N   0  0  0  0  0  0  0  0  0  0  0  0
   60.5960   33.7830   49.7020 C   0  0  0  0  0  0  0  0  0  0  0  0
   60.2900   33.9200   48.3390 C   0  0  0  0  0  0  0  0  0  0  0  0
   58.9710   34.2060   47.9240 C   0  0  0  0  0  0  0  0  0  0  0  0
   58.6760   34.3870   46.5750 C   0  0  0  0  0  0  0  0  0  0  0  0
   59.6860   34.3020   45.6230 C   0  0  0  0  0  0  0  0  0  0  0  0
   60.9940   34.0090   46.0110 C   0  0  0  0  0  0  0  0  0  0  0  0
   61.3200   33.7760   47.3720 C   0  0  0  0  0  0  0  0  0  0  0  0
   62.6010   33.4350   47.7690 N   0  0  0  0  0  0  0  0  0  0  0  0
   63.5990   33.0140   46.7590 C   0  0  0  0  0  0  0  0  0  0  0  0
   62.9410   33.4640   49.1100 C   0  0  0  0  0  0  0  0  0  0  0  0
   64.2890   33.3820   49.5430 C   0  0  0  0  0  0  0  0  0  0  0  0
   64.6190   33.3760   50.9050 C   0  0  0  0  0  0  0  0  0  0  0  0
   66.0510   33.2390   51.3360 C   0  0  0  0  0  0  0  0  0  0  0  0
   63.6030   33.4410   51.8620 C   0  0  0  0  0  0  0  0  0  0  0  0
   62.2750   33.5710   51.4650 C   0  0  0  0  0  0  0  0  0  0  0  0
   61.9300   33.6030   50.0980 C   0  0  0  0  0  0  0  0  0  0  0  0
   57.3935   28.4347   44.4277 H   0  0  0  0  0  0  0  0  0  0  0  0
   56.3977   28.3279   42.9365 H   0  0  0  0  0  0  0  0  0  0  0  0
   57.9146   29.2900   42.9365 H   0  0  0  0  0  0  0  0  0  0  0  0
   56.0046   30.8142   43.0861 H   0  0  0  0  0  0  0  0  0  0  0  0
   55.3463   29.8973   44.4902 H   0  0  0  0  0  0  0  0  0  0  0  0
   56.4578   32.9334   44.2118 H   0  0  0  0  0  0  0  0  0  0  0  0
   58.0943   32.8547   45.0389 H   0  0  0  0  0  0  0  0  0  0  0  0
   59.2022   32.2889   43.1296 H   0  0  0  0  0  0  0  0  0  0  0  0
   57.7834   31.4590   42.4050 H   0  0  0  0  0  0  0  0  0  0  0  0
   57.8711   33.2531   42.4050 H   0  0  0  0  0  0  0  0  0  0  0  0
   57.9744   29.2410   45.5459 H   0  0  0  0  0  0  0  0  0  0  0  0
   59.0777   30.4223   44.7172 H   0  0  0  0  0  0  0  0  0  0  0  0
   59.7710   31.1246   46.7236 H   0  0  0  0  0  0  0  0  0  0  0  0
   58.0901   31.7206   47.0399 H   0  0  0  0  0  0  0  0  0  0  0  0
   59.6274   28.5812   49.0054 H   0  0  0  0  0  0  0  0  0  0  0  0
   60.4061   29.0495   47.4571 H   0  0  0  0  0  0  0  0  0  0  0  0
   61.5896   30.2756   49.1303 H   0  0  0  0  0  0  0  0  0  0  0  0
   60.4301   31.4609   48.4100 H   0  0  0  0  0  0  0  0  0  0  0  0
   58.7732   32.0577   49.1912 H   0  0  0  0  0  0  0  0  0  0  0  0
   57.9196   31.0122   50.3724 H   0  0  0  0  0  0  0  0  0  0  0  0
   57.9034   32.9847   51.5771 H   0  0  0  0  0  0  0  0  0  0  0  0
   59.5200   32.3568   52.0858 H   0  0  0  0  0  0  0  0  0  0  0  0
   59.1900   34.8670   50.8910 H   0  0  0  0  0  0  0  0  0  0  0  0
   58.1693   34.2866   48.6729 H   0  0  0  0  0  0  0  0  0  0  0  0
   57.6426   34.5975   46.2622 H   0  0  0  0  0  0  0  0  0  0  0  0
   59.4531   34.4663   44.5606 H   0  0  0  0  0  0  0  0  0  0  0  0
   61.7856   33.9578   45.2489 H   0  0  0  0  0  0  0  0  0  0  0  0
   64.4977   32.6349   47.2674 H   0  0  0  0  0  0  0  0  0  0  0  0
   63.1712   32.2197   46.1297 H   0  0  0  0  0  0  0  0  0  0  0  0
   63.8693   33.8747   46.1297 H   0  0  0  0  0  0  0  0  0  0  0  0
   65.0924   33.3218   48.7940 H   0  0  0  0  0  0  0  0  0  0  0  0
   66.1043   33.2339   52.4347 H   0  0  0  0  0  0  0  0  0  0  0  0
   66.4633   32.2973   50.9445 H   0  0  0  0  0  0  0  0  0  0  0  0
   66.6343   34.0854   50.9445 H   0  0  0  0  0  0  0  0  0  0  0  0
   63.8531   33.3893   52.9319 H   0  0  0  0  0  0  0  0  0  0  0  0
   61.4853   33.6497   52.2267 H   0  0  0  0  0  0  0  0  0  0  0  0
  1  2  1  0
  2  3  1  0
  3  4  1  0
  4  5  1  0
  3  6  1  0
  6  7  1  0
  7  8  1  0
  8  9  1  0
  9 10  1  0
 10 11  1  0
 11 12  1  0
 12 13  1  0
 13 14  1  0
 14 15  1  0
 15 16  2  0
 16 17  1  0
 17 18  2  0
 18 19  1  0
 19 20  2  0
 20 21  1  0
 21 22  2  0
 22 23  1  0
 22 24  1  0
 24 25  2  0
 25 26  1  0
 26 27  1  0
 26 28  2  0
 28 29  1  0
 29 30  2  0
 30 15  1  0
 21 16  1  0
 30 24  1  0
  1 31  1  0
  1 32  1  0
  1 33  1  0
  2 34  1  0
  2 35  1  0
  4 36  1  0
  4 37  1  0
  5 38  1  0
  5 39  1  0
  5 40  1  0
  6 41  1  0
  6 42  1  0
  7 43  1  0
  7 44  1  0
  9 45  1  0
  9 46  1  0
 10 47  1  0
 10 48  1  0
 12 49  1  0
 12 50  1  0
 13 51  1  0
 13 52  1  0
 14 53  1  0
 17 54  1  0
 18 55  1  0
 19 56  1  0
 20 57  1  0
 23 58  1  0
 23 59  1  0
 23 60  1  0
 25 61  1  0
 27 62  1  0
 27 63  1  0
 27 64  1  0
 28 65  1  0
 29 66  1  0
M  CHG  1  22   1
M  END
>  <UniqueID>  (21) 
20

>  <SMILES>  (21) 
CCN(CC)CCOCCOCCNc1c2ccccc2[n+](C)c2cc(C)ccc12

>  <Energy>  (21) 
95.28167170781589

>  <Genealogy>  (21) 
CCN(CC)CCOCCOCCNc1c2ccccc2[n+](C)c2cc(C)ccc12 (3D coordinates assigned)
CCN(CC)CCOCCOCCNc1c2ccccc2[n+](C)c2cc(C)ccc12 (optimized conformer: 95.28167170781589 kcal/mol)

>  <smiles>  (21) 
CCN(CC)CCOCCOCCNc1c2ccccc2[n+](C)c2cc(C)ccc12

>  <score_type>  (21) 
oracle

>  <origin>  (21) 
adg

>  <m_score__min__energy>  (21) 
-5.79

>  <m_primary>  (21) 
energy

$$$$
21:0
     RDKit          3D

 47 49  0  0  0  0  0  0  0  0999 V2000
   63.3810   33.8340   46.4450 C   0  0  0  0  0  0  0  0  0  0  0  0
   62.8790   33.8440   47.8890 C   0  0  0  0  0  0  0  0  0  0  0  0
   62.8940   32.4750   48.4500 N   0  0  0  0  0  0  0  0  0  0  0  0
   64.1030   32.2760   49.2680 C   0  0  0  0  0  0  0  0  0  0  0  0
   61.6740   32.1980   49.2450 C   0  0  0  0  0  0  0  0  0  0  0  0
   60.9070   31.0170   48.6320 C   0  0  0  0  0  0  0  0  0  0  0  0
   61.2310   30.8120   47.2070 N   0  0  0  0  0  0  0  0  0  0  0  0
   60.0340   30.7600   46.3720 C   0  0  0  0  0  0  0  0  0  0  0  0
   59.3410   31.9480   45.9930 C   0  0  0  0  0  0  0  0  0  0  0  0
   59.7770   33.2410   46.3860 C   0  0  0  0  0  0  0  0  0  0  0  0
   59.0410   34.3790   46.0730 C   0  0  0  0  0  0  0  0  0  0  0  0
   57.8530   34.2680   45.3700 C   0  0  0  0  0  0  0  0  0  0  0  0
   57.4150   33.0220   44.9350 C   0  0  0  0  0  0  0  0  0  0  0  0
   58.1680   31.8470   45.1890 C   0  0  0  0  0  0  0  0  0  0  0  0
   57.7720   30.6280   44.6820 N   0  0  0  0  0  0  0  0  0  0  0  0
   56.7700   30.5720   43.5900 C   0  0  0  0  0  0  0  0  0  0  0  0
   58.3330   29.4610   45.1550 C   0  0  0  0  0  0  0  0  0  0  0  0
   57.7550   28.1980   44.8650 C   0  0  0  0  0  0  0  0  0  0  0  0
   58.3610   27.0140   45.2750 C   0  0  0  0  0  0  0  0  0  0  0  0
   57.5600   25.3300   44.8520 Br  0  0  0  0  0  0  0  0  0  0  0  0
   59.5490   27.0540   45.9900 C   0  0  0  0  0  0  0  0  0  0  0  0
   60.1150   28.2790   46.3360 C   0  0  0  0  0  0  0  0  0  0  0  0
   59.5050   29.5030   45.9610 C   0  0  0  0  0  0  0  0  0  0  0  0
   64.4808   33.8121   46.4393 H   0  0  0  0  0  0  0  0  0  0  0  0
   62.9938   32.9434   45.9284 H   0  0  0  0  0  0  0  0  0  0  0  0
   63.0296   34.7393   45.9284 H   0  0  0  0  0  0  0  0  0  0  0  0
   63.5305   34.4910   48.4947 H   0  0  0  0  0  0  0  0  0  0  0  0
   61.8472   34.2249   47.9053 H   0  0  0  0  0  0  0  0  0  0  0  0
   63.8357   32.3200   50.3341 H   0  0  0  0  0  0  0  0  0  0  0  0
   64.5421   31.2935   49.0403 H   0  0  0  0  0  0  0  0  0  0  0  0
   64.8339   33.0659   49.0403 H   0  0  0  0  0  0  0  0  0  0  0  0
   61.9602   31.9502   50.2778 H   0  0  0  0  0  0  0  0  0  0  0  0
   61.0294   33.0893   49.2412 H   0  0  0  0  0  0  0  0  0  0  0  0
   61.1640   30.1029   49.1873 H   0  0  0  0  0  0  0  0  0  0  0  0
   59.8328   31.2436   48.7015 H   0  0  0  0  0  0  0  0  0  0  0  0
   61.8530   31.5850   46.8810 H   0  0  0  0  0  0  0  0  0  0  0  0
   61.8530   29.9860   47.0950 H   0  0  0  0  0  0  0  0  0  0  0  0
   60.7160   33.3448   46.9495 H   0  0  0  0  0  0  0  0  0  0  0  0
   59.4035   35.3697   46.3847 H   0  0  0  0  0  0  0  0  0  0  0  0
   57.2554   35.1662   45.1555 H   0  0  0  0  0  0  0  0  0  0  0  0
   56.4664   32.9460   44.3833 H   0  0  0  0  0  0  0  0  0  0  0  0
   55.7599   30.5155   44.0218 H   0  0  0  0  0  0  0  0  0  0  0  0
   56.8534   31.4762   42.9691 H   0  0  0  0  0  0  0  0  0  0  0  0
   56.9536   29.6827   42.9691 H   0  0  0  0  0  0  0  0  0  0  0  0
   56.8092   28.1537   44.3050 H   0  0  0  0  0  0  0  0  0  0  0  0
   60.0448   26.1172   46.2842 H   0  0  0  0  0  0  0  0  0  0  0  0
   61.0527   28.2971   46.9109 H   0  0  0  0  0  0  0  0  0  0  0  0
  1  2  1  0
  2  3  1  0
  3  4  1  0
  3  5  1  0
  5  6  1  0
  6  7  1  0
  7  8  1  0
  8  9  2  0
  9 10  1  0
 10 11  2  0
 11 12  1  0
 12 13  2  0
 13 14  1  0
 14 15  2  0
 15 16  1  0
 15 17  1  0
 17 18  2  0
 18 19  1  0
 19 20  1  0
 19 21  2  0
 21 22  1  0
 22 23  2  0
 23  8  1  0
 14  9  1  0
 23 17  1  0
  1 24  1  0
  1 25  1  0
  1 26  1  0
  2 27  1  0
  2 28  1  0
  4 29  1  0
  4 30  1  0
  4 31  1  0
  5 32  1  0
  5 33  1  0
  6 34  1  0
  6 35  1  0
  7 36  1  0
  7 37  1  0
 10 38  1  0
 11 39  1  0
 12 40  1  0
 13 41  1  0
 16 42  1  0
 16 43  1  0
 16 44  1  0
 18 45  1  0
 21 46  1  0
 22 47  1  0
M  CHG  2   7   1  15   1
M  END
>  <UniqueID>  (22) 
21

>  <SMILES>  (22) 
CCN(C)CC[NH2+]c1c2ccccc2[n+](C)c2cc(Br)ccc12

>  <Energy>  (22) 
77.0382196168352

>  <Genealogy>  (22) 
CCN(C)CC[NH2+]c1c2ccccc2[n+](C)c2cc(Br)ccc12 (protonated)
CCN(C)CC[NH2+]c1c2ccccc2[n+](C)c2cc(Br)ccc12 (3D coordinates assigned)
CCN(C)CC[NH2+]c1c2ccccc2[n+](C)c2cc(Br)ccc12 (optimized conformer: 77.0382196168352 kcal/mol)

>  <smiles>  (22) 
CCN(C)CCNc1c2ccccc2[n+](C)c2cc(Br)ccc12

>  <score_type>  (22) 
oracle

>  <origin>  (22) 
adg

>  <m_score__min__energy>  (22) 
-4.4500000000000002

>  <m_primary>  (22) 
energy

$$$$
22:0
     RDKit          3D

 39 41  0  0  0  0  0  0  0  0999 V2000
   56.0420   27.0170   45.2480 H   0  0  0  0  0  0  0  0  0  0  0  0
   55.4770   26.6750   45.9890 O   0  0  0  0  0  0  0  0  0  0  0  0
   56.2630   25.7660   46.7110 C   0  0  0  0  0  0  0  0  0  0  0  0
   56.3095   24.8133   46.1631 H   0  0  0  0  0  0  0  0  0  0  0  0
   55.8095   25.6132   47.7015 H   0  0  0  0  0  0  0  0  0  0  0  0
   57.6820   26.3100   46.8960 C   0  0  0  0  0  0  0  0  0  0  0  0
   58.3453   25.4870   47.2006 H   0  0  0  0  0  0  0  0  0  0  0  0
   57.6578   27.0933   47.6679 H   0  0  0  0  0  0  0  0  0  0  0  0
   58.1880   26.8970   45.6540 N   0  0  0  0  0  0  0  0  0  0  0  0
   58.0570   28.1450   45.3150 C   0  0  0  0  0  0  0  0  0  0  0  0
   57.2920   28.4670   44.2420 N   0  0  0  0  0  0  0  0  0  0  0  0
   57.1220   29.7570   43.8430 C   0  0  0  0  0  0  0  0  0  0  0  0
   56.2750   30.0270   42.6350 C   0  0  0  0  0  0  0  0  0  0  0  0
   55.2721   30.3467   42.9544 H   0  0  0  0  0  0  0  0  0  0  0  0
   56.7386   30.8219   42.0323 H   0  0  0  0  0  0  0  0  0  0  0  0
   56.1931   29.1104   42.0323 H   0  0  0  0  0  0  0  0  0  0  0  0
   57.7370   30.7980   44.5730 C   0  0  0  0  0  0  0  0  0  0  0  0
   58.5520   30.4330   45.6650 C   0  0  0  0  0  0  0  0  0  0  0  0
   58.6850   29.1290   46.0130 N   0  0  0  0  0  0  0  0  0  0  0  0
   59.2130   31.4970   46.4330 C   0  0  0  0  0  0  0  0  0  0  0  0
   58.9290   32.8190   46.2120 C   0  0  0  0  0  0  0  0  0  0  0  0
   59.6200   33.5070   47.1930 C   0  0  0  0  0  0  0  0  0  0  0  0
   59.5120   34.9640   47.5050 C   0  0  0  0  0  0  0  0  0  0  0  0
   59.5015   35.1056   48.5958 H   0  0  0  0  0  0  0  0  0  0  0  0
   60.3732   35.4960   47.0745 H   0  0  0  0  0  0  0  0  0  0  0  0
   58.5818   35.3632   47.0745 H   0  0  0  0  0  0  0  0  0  0  0  0
   60.2950   32.6130   47.9470 N   0  0  0  0  0  0  0  0  0  0  0  0
   60.8730   32.8280   48.7910 H   0  0  0  0  0  0  0  0  0  0  0  0
   60.0590   31.3930   47.4820 N   0  0  0  0  0  0  0  0  0  0  0  0
   60.5670   30.1710   48.0970 C   0  0  0  0  0  0  0  0  0  0  0  0
   60.5269   30.2675   49.1920 H   0  0  0  0  0  0  0  0  0  0  0  0
   59.9492   29.3174   47.7813 H   0  0  0  0  0  0  0  0  0  0  0  0
   61.6079   30.0069   47.7813 H   0  0  0  0  0  0  0  0  0  0  0  0
   57.8510   33.2750   45.2790 C   0  0  0  0  0  0  0  0  0  0  0  0
   58.1289   34.2517   44.8562 H   0  0  0  0  0  0  0  0  0  0  0  0
   56.9086   33.3561   45.8405 H   0  0  0  0  0  0  0  0  0  0  0  0
   57.6580   32.2600   44.1280 C   0  0  0  0  0  0  0  0  0  0  0  0
   58.4408   32.4361   43.3756 H   0  0  0  0  0  0  0  0  0  0  0  0
   56.6457   32.4185   43.7279 H   0  0  0  0  0  0  0  0  0  0  0  0
  1  2  1  0
  2  3  1  0
  3  4  1  0
  3  5  1  0
  3  6  1  0
  6  7  1  0
  6  8  1  0
  6  9  1  0
  9 10  2  0
 10 11  1  0
 11 12  2  0
 12 13  1  0
 13 14  1  0
 13 15  1  0
 13 16  1  0
 12 17  1  0
 17 18  2  0
 18 19  1  0
 18 20  1  0
 20 21  2  0
 21 22  1  0
 22 23  1  0
 23 24  1  0
 23 25  1  0
 23 26  1  0
 22 27  2  0
 27 28  1  0
 27 29  1  0
 29 30  1  0
 30 31  1  0
 30 32  1  0
 30 33  1  0
 21 34  1  0
 34 35  1  0
 34 36  1  0
 34 37  1  0
 37 38  1  0
 37 39  1  0
 19 10  1  0
 29 20  1  0
 37 17  1  0
M  CHG  2  19  -1  27   1
M  END
>  <UniqueID>  (23) 
22

>  <SMILES>  (23) 
Cc1n/c(=N/CCO)[n-]c2c1CCc1c(C)[nH+]n(C)c1-2

>  <Energy>  (23) 
73.38359009555616

>  <Genealogy>  (23) 
Cc1nc(=NCCO)[n-]c2c1CCc1c(C)[nH+]n(C)c1-2 (protonated)
Cc1n/c(=N/CCO)[n-]c2c1CCc1c(C)[nH+]n(C)c1-2 (cis-trans isomerization)
Cc1n/c(=N/CCO)[n-]c2c1CCc1c(C)[nH+]n(C)c1-2 (3D coordinates assigned)
Cc1n/c(=N/CCO)[n-]c2c1CCc1c(C)[nH+]n(C)c1-2 (nonaromatic ring conformer: 73.38359009555616 kcal/mol)

>  <smiles>  (23) 
Cc1nc(=NCCO)[nH]c2c1CCc1c(C)nn(C)c1-2

>  <score_type>  (23) 
oracle

>  <origin>  (23) 
adg

>  <m_score__min__energy>  (23) 
-7.75

>  <m_primary>  (23) 
energy

$$$$
23:0
     RDKit          3D

 63 66  0  0  0  0  0  0  0  0999 V2000
   63.4000   32.8450   47.7920 C   0  0  0  0  0  0  0  0  0  0  0  0
   62.4240   31.6750   47.7160 C   0  0  0  0  0  0  0  0  0  0  0  0
   62.3560   30.9790   49.0130 N   0  0  0  0  0  0  0  0  0  0  0  0
   63.3690   31.4250   49.9910 C   0  0  0  0  0  0  0  0  0  0  0  0
   62.9990   31.1730   51.4740 C   0  0  0  0  0  0  0  0  0  0  0  0
   62.5990   29.7270   51.7990 C   0  0  0  0  0  0  0  0  0  0  0  0
   61.2650   29.4260   51.2570 N   0  0  0  0  0  0  0  0  0  0  0  0
   61.2250   28.0520   50.7150 C   0  0  0  0  0  0  0  0  0  0  0  0
   60.4560   27.9720   49.3830 C   0  0  0  0  0  0  0  0  0  0  0  0
   60.4710   29.2340   48.6220 N   0  0  0  0  0  0  0  0  0  0  0  0
   59.3640   29.3450   47.7010 C   0  0  0  0  0  0  0  0  0  0  0  0
   58.7450   30.5230   47.2550 C   0  0  0  0  0  0  0  0  0  0  0  0
   59.0910   31.9130   47.6440 C   0  0  0  0  0  0  0  0  0  0  0  0
   59.3400   32.1830   49.0090 C   0  0  0  0  0  0  0  0  0  0  0  0
   59.2710   31.1230   49.9380 O   0  0  0  0  0  0  0  0  0  0  0  0
   58.3940   31.0800   51.0560 C   0  0  0  0  0  0  0  0  0  0  0  0
   59.6590   33.4900   49.4170 C   0  0  0  0  0  0  0  0  0  0  0  0
   59.7430   34.5230   48.4840 C   0  0  0  0  0  0  0  0  0  0  0  0
   59.4550   34.2860   47.1350 C   0  0  0  0  0  0  0  0  0  0  0  0
   59.5060   35.3430   46.2120 C   0  0  0  0  0  0  0  0  0  0  0  0
   59.1580   35.1310   44.8770 C   0  0  0  0  0  0  0  0  0  0  0  0
   58.7400   33.8670   44.4550 C   0  0  0  0  0  0  0  0  0  0  0  0
   58.6960   32.8010   45.3590 C   0  0  0  0  0  0  0  0  0  0  0  0
   59.0890   32.9810   46.7060 C   0  0  0  0  0  0  0  0  0  0  0  0
   57.7870   30.2510   46.3340 N   0  0  0  0  0  0  0  0  0  0  0  0
   57.8300   28.9130   46.1690 C   0  0  0  0  0  0  0  0  0  0  0  0
   57.0630   28.1670   45.2760 C   0  0  0  0  0  0  0  0  0  0  0  0
   57.3060   26.7860   45.1860 C   0  0  0  0  0  0  0  0  0  0  0  0
   58.3220   26.1850   45.9670 C   0  0  0  0  0  0  0  0  0  0  0  0
   59.0890   26.9640   46.8530 C   0  0  0  0  0  0  0  0  0  0  0  0
   58.7950   28.3280   46.9540 C   0  0  0  0  0  0  0  0  0  0  0  0
   63.6015   33.0865   48.8461 H   0  0  0  0  0  0  0  0  0  0  0  0
   64.3408   32.5707   47.2924 H   0  0  0  0  0  0  0  0  0  0  0  0
   62.9615   33.7214   47.2924 H   0  0  0  0  0  0  0  0  0  0  0  0
   61.4246   32.0528   47.4544 H   0  0  0  0  0  0  0  0  0  0  0  0
   62.7729   30.9679   46.9490 H   0  0  0  0  0  0  0  0  0  0  0  0
   61.3930   31.0500   49.4210 H   0  0  0  0  0  0  0  0  0  0  0  0
   64.3076   30.8925   49.7777 H   0  0  0  0  0  0  0  0  0  0  0  0
   63.4511   32.5157   49.8745 H   0  0  0  0  0  0  0  0  0  0  0  0
   63.8693   31.4351   52.0935 H   0  0  0  0  0  0  0  0  0  0  0  0
   62.1156   31.7941   51.6834 H   0  0  0  0  0  0  0  0  0  0  0  0
   63.3337   29.0397   51.3542 H   0  0  0  0  0  0  0  0  0  0  0  0
   62.5750   29.6021   52.8916 H   0  0  0  0  0  0  0  0  0  0  0  0
   61.0760   30.1180   50.4910 H   0  0  0  0  0  0  0  0  0  0  0  0
   62.2562   27.7067   50.5496 H   0  0  0  0  0  0  0  0  0  0  0  0
   60.7014   27.4171   51.4449 H   0  0  0  0  0  0  0  0  0  0  0  0
   60.9123   27.1858   48.7636 H   0  0  0  0  0  0  0  0  0  0  0  0
   59.4061   27.7522   49.6268 H   0  0  0  0  0  0  0  0  0  0  0  0
   60.4900   30.0350   49.2890 H   0  0  0  0  0  0  0  0  0  0  0  0
   61.3500   29.2650   48.0620 H   0  0  0  0  0  0  0  0  0  0  0  0
   58.9824   31.1089   51.9849 H   0  0  0  0  0  0  0  0  0  0  0  0
   57.7165   31.9460   51.0241 H   0  0  0  0  0  0  0  0  0  0  0  0
   57.8045   30.1519   51.0241 H   0  0  0  0  0  0  0  0  0  0  0  0
   59.8439   33.6995   50.4809 H   0  0  0  0  0  0  0  0  0  0  0  0
   60.0377   35.5312   48.8106 H   0  0  0  0  0  0  0  0  0  0  0  0
   59.8219   36.3434   46.5428 H   0  0  0  0  0  0  0  0  0  0  0  0
   59.2130   35.9604   44.1565 H   0  0  0  0  0  0  0  0  0  0  0  0
   58.4442   33.7093   43.4073 H   0  0  0  0  0  0  0  0  0  0  0  0
   58.3524   31.8128   45.0194 H   0  0  0  0  0  0  0  0  0  0  0  0
   56.2888   28.6461   44.6587 H   0  0  0  0  0  0  0  0  0  0  0  0
   56.7029   26.1681   44.5044 H   0  0  0  0  0  0  0  0  0  0  0  0
   58.5127   25.1051   45.8810 H   0  0  0  0  0  0  0  0  0  0  0  0
   59.8964   26.5135   47.4489 H   0  0  0  0  0  0  0  0  0  0  0  0
  1  2  1  0
  2  3  1  0
  3  4  1  0
  4  5  1  0
  5  6  1  0
  6  7  1  0
  7  8  1  0
  8  9  1  0
  9 10  1  0
 10 11  1  0
 11 12  2  0
 12 13  1  0
 13 14  2  0
 14 15  1  0
 15 16  1  0
 14 17  1  0
 17 18  2  0
 18 19  1  0
 19 20  2  0
 20 21  1  0
 21 22  2  0
 22 23  1  0
 23 24  2  0
 12 25  1  0
 25 26  1  0
 26 27  2  0
 27 28  1  0
 28 29  2  0
 29 30  1  0
 30 31  2  0
 31 11  1  0
 24 13  1  0
 31 26  1  0
 24 19  1  0
  1 32  1  0
  1 33  1  0
  1 34  1  0
  2 35  1  0
  2 36  1  0
  3 37  1  0
  4 38  1  0
  4 39  1  0
  5 40  1  0
  5 41  1  0
  6 42  1  0
  6 43  1  0
  7 44  1  0
  8 45  1  0
  8 46  1  0
  9 47  1  0
  9 48  1  0
 10 49  1  0
 10 50  1  0
 16 51  1  0
 16 52  1  0
 16 53  1  0
 17 54  1  0
 18 55  1  0
 20 56  1  0
 21 57  1  0
 22 58  1  0
 23 59  1  0
 27 60  1  0
 28 61  1  0
 29 62  1  0
 30 63  1  0
M  CHG  2  10   1  25  -1
M  END
>  <UniqueID>  (24) 
23

>  <SMILES>  (24) 
CCNCCCNCC[NH2+]c1c(-c2c(OC)ccc3ccccc23)[n-]c2ccccc12

>  <Energy>  (24) 
107.38533933384338

>  <Genealogy>  (24) 
CCNCCCNCC[NH2+]c1c(-c2c(OC)ccc3ccccc23)[n-]c2ccccc12 (protonated)
CCNCCCNCC[NH2+]c1c(-c2c(OC)ccc3ccccc23)[n-]c2ccccc12 (3D coordinates assigned)
CCNCCCNCC[NH2+]c1c(-c2c(OC)ccc3ccccc23)[n-]c2ccccc12 (optimized conformer: 107.38533933384338 kcal/mol)

>  <smiles>  (24) 
CCNCCCNCCNc1c(-c2c(OC)ccc3ccccc23)[nH]c2ccccc12

>  <score_type>  (24) 
oracle

>  <origin>  (24) 
adg

>  <m_score__min__energy>  (24) 
-7.3799999999999999

>  <m_primary>  (24) 
energy

$$$$
24:0
     RDKit          3D

 61 65  0  0  0  0  0  0  0  0999 V2000
   62.2890   30.7920   50.0290 C   0  0  0  0  0  0  0  0  0  0  0  0
   62.9150   31.7830   49.1010 C   0  0  0  0  0  0  0  0  0  0  0  0
   64.1130   32.3580   49.3220 N   0  0  0  0  0  0  0  0  0  0  0  0
   64.3530   33.1430   48.3110 O   0  0  0  0  0  0  0  0  0  0  0  0
   63.3770   33.1060   47.4350 C   0  0  0  0  0  0  0  0  0  0  0  0
   63.3850   33.8830   46.1580 C   0  0  0  0  0  0  0  0  0  0  0  0
   62.3970   32.2420   47.9010 C   0  0  0  0  0  0  0  0  0  0  0  0
   61.1270   31.8420   47.2610 C   0  0  0  0  0  0  0  0  0  0  0  0
   60.1110   32.7750   47.0120 C   0  0  0  0  0  0  0  0  0  0  0  0
   58.9110   32.3710   46.4040 C   0  0  0  0  0  0  0  0  0  0  0  0
   57.8370   33.4090   46.1590 C   0  0  0  0  0  0  0  0  0  0  0  0
   58.0570   34.0970   44.8700 N   0  0  0  0  0  0  0  0  0  0  0  0
   59.2530   34.9570   44.9320 C   0  0  0  0  0  0  0  0  0  0  0  0
   58.2190   33.1060   43.7930 C   0  0  0  0  0  0  0  0  0  0  0  0
   58.7390   31.0060   46.0630 C   0  0  0  0  0  0  0  0  0  0  0  0
   57.5630   30.5140   45.4620 C   0  0  0  0  0  0  0  0  0  0  0  0
   57.4420   29.1590   45.1440 C   0  0  0  0  0  0  0  0  0  0  0  0
   58.4900   28.2650   45.4130 C   0  0  0  0  0  0  0  0  0  0  0  0
   58.3590   26.8690   45.0860 N   0  0  0  0  0  0  0  0  0  0  0  0
   57.7950   26.4710   43.7890 C   0  0  0  0  0  0  0  0  0  0  0  0
   57.5030   24.9620   43.7490 C   0  0  0  0  0  0  0  0  0  0  0  0
   56.8730   24.4940   45.0020 N   0  0  0  0  0  0  0  0  0  0  0  0
   55.3980   24.3650   45.0780 C   0  0  0  0  0  0  0  0  0  0  0  0
   54.7660   23.7020   46.3050 C   0  0  0  0  0  0  0  0  0  0  0  0
   54.8830   22.9300   45.0040 C   0  0  0  0  0  0  0  0  0  0  0  0
   57.5250   24.8940   46.2730 C   0  0  0  0  0  0  0  0  0  0  0  0
   58.7200   25.8310   46.0590 C   0  0  0  0  0  0  0  0  0  0  0  0
   59.6590   28.7440   46.0230 C   0  0  0  0  0  0  0  0  0  0  0  0
   59.7890   30.1000   46.3440 C   0  0  0  0  0  0  0  0  0  0  0  0
   60.9320   30.5390   46.9290 N   0  0  0  0  0  0  0  0  0  0  0  0
   62.4793   31.0932   51.0697 H   0  0  0  0  0  0  0  0  0  0  0  0
   61.2042   30.7565   49.8500 H   0  0  0  0  0  0  0  0  0  0  0  0
   62.7229   29.7972   49.8500 H   0  0  0  0  0  0  0  0  0  0  0  0
   63.3961   34.9595   46.3839 H   0  0  0  0  0  0  0  0  0  0  0  0
   64.2805   33.6214   45.5752 H   0  0  0  0  0  0  0  0  0  0  0  0
   62.4843   33.6399   45.5752 H   0  0  0  0  0  0  0  0  0  0  0  0
   60.2541   33.8285   47.2941 H   0  0  0  0  0  0  0  0  0  0  0  0
   56.8547   32.9143   46.1408 H   0  0  0  0  0  0  0  0  0  0  0  0
   57.8754   34.1539   46.9675 H   0  0  0  0  0  0  0  0  0  0  0  0
   59.5150   35.1454   45.9836 H   0  0  0  0  0  0  0  0  0  0  0  0
   60.0925   34.4544   44.4293 H   0  0  0  0  0  0  0  0  0  0  0  0
   59.0438   35.9128   44.4293 H   0  0  0  0  0  0  0  0  0  0  0  0
   58.3817   32.1106   44.2321 H   0  0  0  0  0  0  0  0  0  0  0  0
   57.3118   33.0886   43.1712 H   0  0  0  0  0  0  0  0  0  0  0  0
   59.0845   33.3784   43.1712 H   0  0  0  0  0  0  0  0  0  0  0  0
   56.7338   31.2023   45.2415 H   0  0  0  0  0  0  0  0  0  0  0  0
   56.5165   28.7893   44.6784 H   0  0  0  0  0  0  0  0  0  0  0  0
   56.8581   27.0223   43.6208 H   0  0  0  0  0  0  0  0  0  0  0  0
   58.5289   26.7046   43.0037 H   0  0  0  0  0  0  0  0  0  0  0  0
   56.8247   24.7522   42.9088 H   0  0  0  0  0  0  0  0  0  0  0  0
   58.4584   24.4308   43.6261 H   0  0  0  0  0  0  0  0  0  0  0  0
   55.2167   25.3175   44.5584 H   0  0  0  0  0  0  0  0  0  0  0  0
   55.3934   23.4271   47.1657 H   0  0  0  0  0  0  0  0  0  0  0  0
   53.9409   23.9554   46.9869 H   0  0  0  0  0  0  0  0  0  0  0  0
   55.5945   22.0950   44.9233 H   0  0  0  0  0  0  0  0  0  0  0  0
   54.1760   22.3924   44.3551 H   0  0  0  0  0  0  0  0  0  0  0  0
   56.7833   25.4084   46.9017 H   0  0  0  0  0  0  0  0  0  0  0  0
   57.9032   23.9795   46.7532 H   0  0  0  0  0  0  0  0  0  0  0  0
   58.9919   26.3028   47.0148 H   0  0  0  0  0  0  0  0  0  0  0  0
   59.5756   25.2535   45.6790 H   0  0  0  0  0  0  0  0  0  0  0  0
   60.4800   28.0482   46.2508 H   0  0  0  0  0  0  0  0  0  0  0  0
  1  2  1  0
  2  3  2  0
  3  4  1  0
  4  5  1  0
  5  6  1  0
  5  7  2  0
  7  8  1  0
  8  9  2  0
  9 10  1  0
 10 11  1  0
 11 12  1  0
 12 13  1  0
 12 14  1  0
 10 15  2  0
 15 16  1  0
 16 17  2  0
 17 18  1  0
 18 19  1  0
 19 20  1  0
 20 21  1  0
 21 22  1  0
 22 23  1  0
 23 24  1  0
 24 25  1  0
 22 26  1  0
 26 27  1  0
 18 28  2  0
 28 29  1  0
 29 30  2  0
  7  2  1  0
 30  8  1  0
 29 15  1  0
 27 19  1  0
 25 23  1  0
  1 31  1  0
  1 32  1  0
  1 33  1  0
  6 34  1  0
  6 35  1  0
  6 36  1  0
  9 37  1  0
 11 38  1  0
 11 39  1  0
 13 40  1  0
 13 41  1  0
 13 42  1  0
 14 43  1  0
 14 44  1  0
 14 45  1  0
 16 46  1  0
 17 47  1  0
 20 48  1  0
 20 49  1  0
 21 50  1  0
 21 51  1  0
 23 52  1  0
 24 53  1  0
 24 54  1  0
 25 55  1  0
 25 56  1  0
 26 57  1  0
 26 58  1  0
 27 59  1  0
 27 60  1  0
 28 61  1  0
M  END
>  <UniqueID>  (25) 
24

>  <SMILES>  (25) 
Cc1noc(C)c1-c1cc(CN(C)C)c2ccc(N3CCN(C4CC4)CC3)cc2n1

>  <Energy>  (25) 
387.93924951923555

>  <Genealogy>  (25) 
Cc1noc(C)c1-c1cc(CN(C)C)c2ccc(N3CCN(C4CC4)CC3)cc2n1 (3D coordinates assigned)
Cc1noc(C)c1-c1cc(CN(C)C)c2ccc(N3CCN(C4CC4)CC3)cc2n1 (nonaromatic ring conformer: 387.93924951923555 kcal/mol)

>  <smiles>  (25) 
Cc1noc(C)c1-c1cc(CN(C)C)c2ccc(N3CCN(C4CC4)CC3)cc2n1

>  <score_type>  (25) 
oracle

>  <origin>  (25) 
adg

>  <m_score__min__energy>  (25) 
-8.1999999999999993

>  <m_primary>  (25) 
energy

$$$$
25:0
     RDKit          3D

 68 71  0  0  0  0  0  0  0  0999 V2000
   62.3880   35.1628   49.8648 H   0  0  0  0  0  0  0  0  0  0  0  0
   62.6310   34.1050   49.6860 C   0  0  0  0  0  0  0  0  0  0  0  0
   63.3620   33.8310   48.5890 C   0  0  0  0  0  0  0  0  0  0  0  0
   64.4092   34.1678   48.5925 H   0  0  0  0  0  0  0  0  0  0  0  0
   62.8820   33.1050   47.3530 C   0  0  0  0  0  0  0  0  0  0  0  0
   61.7821   33.0883   47.3491 H   0  0  0  0  0  0  0  0  0  0  0  0
   63.4010   31.6630   47.3570 C   0  0  0  0  0  0  0  0  0  0  0  0
   63.5243   31.3205   48.3950 H   0  0  0  0  0  0  0  0  0  0  0  0
   62.6806   31.0126   46.8394 H   0  0  0  0  0  0  0  0  0  0  0  0
   64.3707   31.6209   46.8394 H   0  0  0  0  0  0  0  0  0  0  0  0
   63.3830   33.8340   46.1010 C   0  0  0  0  0  0  0  0  0  0  0  0
   63.9826   34.7064   46.4000 H   0  0  0  0  0  0  0  0  0  0  0  0
   64.0032   33.1506   45.5023 H   0  0  0  0  0  0  0  0  0  0  0  0
   62.5228   34.1680   45.5023 H   0  0  0  0  0  0  0  0  0  0  0  0
   62.1180   33.1260   50.6810 C   0  0  0  0  0  0  0  0  0  0  0  0
   62.8040   32.9860   51.9030 C   0  0  0  0  0  0  0  0  0  0  0  0
   63.5405   33.7474   52.1994 H   0  0  0  0  0  0  0  0  0  0  0  0
   62.5670   31.9030   52.7410 C   0  0  0  0  0  0  0  0  0  0  0  0
   63.0346   31.8653   53.7360 H   0  0  0  0  0  0  0  0  0  0  0  0
   61.7400   30.8680   52.3230 C   0  0  0  0  0  0  0  0  0  0  0  0
   61.5872   29.9915   52.9699 H   0  0  0  0  0  0  0  0  0  0  0  0
   61.1010   30.9390   51.0800 C   0  0  0  0  0  0  0  0  0  0  0  0
   60.4870   29.7970   50.5620 C   0  0  0  0  0  0  0  0  0  0  0  0
   60.3715   28.9022   51.1913 H   0  0  0  0  0  0  0  0  0  0  0  0
   60.0220   29.7890   49.2540 C   0  0  0  0  0  0  0  0  0  0  0  0
   59.6871   28.8444   48.8007 H   0  0  0  0  0  0  0  0  0  0  0  0
   59.9750   30.9770   48.5030 C   0  0  0  0  0  0  0  0  0  0  0  0
   59.5140   30.9790   47.1740 C   0  0  0  0  0  0  0  0  0  0  0  0
   59.3670   29.7310   46.4670 N   0  0  0  0  0  0  0  0  0  0  0  0
   58.5940   29.0860   46.7440 H   0  0  0  0  0  0  0  0  0  0  0  0
   60.3140   29.2680   45.4440 C   0  0  0  0  0  0  0  0  0  0  0  0
   61.1792   28.8130   45.9484 H   0  0  0  0  0  0  0  0  0  0  0  0
   60.6006   30.1434   44.8428 H   0  0  0  0  0  0  0  0  0  0  0  0
   59.7060   28.2300   44.4820 C   0  0  0  0  0  0  0  0  0  0  0  0
   60.2568   27.2848   44.5967 H   0  0  0  0  0  0  0  0  0  0  0  0
   59.7911   28.6426   43.4659 H   0  0  0  0  0  0  0  0  0  0  0  0
   58.2670   27.9670   44.7260 N   0  0  0  0  0  0  0  0  0  0  0  0
   58.0150   26.5030   44.6930 C   0  0  0  0  0  0  0  0  0  0  0  0
   58.9563   25.9722   44.8985 H   0  0  0  0  0  0  0  0  0  0  0  0
   57.6297   26.2384   43.6972 H   0  0  0  0  0  0  0  0  0  0  0  0
   56.9780   26.0980   45.7350 C   0  0  0  0  0  0  0  0  0  0  0  0
   57.3888   26.2584   46.7427 H   0  0  0  0  0  0  0  0  0  0  0  0
   56.0718   26.7083   45.6070 H   0  0  0  0  0  0  0  0  0  0  0  0
   56.7253   25.0351   45.6070 H   0  0  0  0  0  0  0  0  0  0  0  0
   57.4170   28.6460   43.7160 C   0  0  0  0  0  0  0  0  0  0  0  0
   58.0605   29.1390   42.9725 H   0  0  0  0  0  0  0  0  0  0  0  0
   56.7783   27.8975   43.2243 H   0  0  0  0  0  0  0  0  0  0  0  0
   56.5300   29.6920   44.3870 C   0  0  0  0  0  0  0  0  0  0  0  0
   56.6118   29.5956   45.4797 H   0  0  0  0  0  0  0  0  0  0  0  0
   56.8546   30.6979   44.0824 H   0  0  0  0  0  0  0  0  0  0  0  0
   55.4846   29.5361   44.0824 H   0  0  0  0  0  0  0  0  0  0  0  0
   59.2370   32.2080   46.5470 C   0  0  0  0  0  0  0  0  0  0  0  0
   58.6220   32.2590   45.2780 C   0  0  0  0  0  0  0  0  0  0  0  0
   58.3568   31.3225   44.7656 H   0  0  0  0  0  0  0  0  0  0  0  0
   58.3460   33.4800   44.6650 C   0  0  0  0  0  0  0  0  0  0  0  0
   57.8889   33.5022   43.6647 H   0  0  0  0  0  0  0  0  0  0  0  0
   58.6480   34.6690   45.3170 C   0  0  0  0  0  0  0  0  0  0  0  0
   58.4556   35.6313   44.8200 H   0  0  0  0  0  0  0  0  0  0  0  0
   59.1940   34.6460   46.5990 C   0  0  0  0  0  0  0  0  0  0  0  0
   59.4079   35.5944   47.1137 H   0  0  0  0  0  0  0  0  0  0  0  0
   59.4780   33.4190   47.2500 C   0  0  0  0  0  0  0  0  0  0  0  0
   59.9400   33.3860   48.5510 N   0  0  0  0  0  0  0  0  0  0  0  0
   59.6690   34.5520   49.4190 C   0  0  0  0  0  0  0  0  0  0  0  0
   59.7396   34.2481   50.4738 H   0  0  0  0  0  0  0  0  0  0  0  0
   60.4077   35.3410   49.2144 H   0  0  0  0  0  0  0  0  0  0  0  0
   58.6581   34.9343   49.2144 H   0  0  0  0  0  0  0  0  0  0  0  0
   60.3760   32.1970   49.1050 C   0  0  0  0  0  0  0  0  0  0  0  0
   61.1660   32.1280   50.3020 C   0  0  0  0  0  0  0  0  0  0  0  0
  1  2  1  0
  2  3  2  0
  3  4  1  0
  3  5  1  0
  5  6  1  0
  5  7  1  0
  7  8  1  0
  7  9  1  0
  7 10  1  0
  5 11  1  0
 11 12  1  0
 11 13  1  0
 11 14  1  0
  2 15  1  0
 15 16  2  0
 16 17  1  0
 16 18  1  0
 18 19  1  0
 18 20  2  0
 20 21  1  0
 20 22  1  0
 22 23  2  0
 23 24  1  0
 23 25  1  0
 25 26  1  0
 25 27  2  0
 27 28  1  0
 28 29  1  0
 29 30  1  0
 29 31  1  0
 31 32  1  0
 31 33  1  0
 31 34  1  0
 34 35  1  0
 34 36  1  0
 34 37  1  0
 37 38  1  0
 38 39  1  0
 38 40  1  0
 38 41  1  0
 41 42  1  0
 41 43  1  0
 41 44  1  0
 37 45  1  0
 45 46  1  0
 45 47  1  0
 45 48  1  0
 48 49  1  0
 48 50  1  0
 48 51  1  0
 28 52  2  0
 52 53  1  0
 53 54  1  0
 53 55  2  0
 55 56  1  0
 55 57  1  0
 57 58  1  0
 57 59  2  0
 59 60  1  0
 59 61  1  0
 61 62  2  0
 62 63  1  0
 63 64  1  0
 63 65  1  0
 63 66  1  0
 62 67  1  0
 67 68  2  0
 68 15  1  0
 68 22  1  0
 67 27  1  0
 61 52  1  0
M  CHG  1  62   1
M  END
>  <UniqueID>  (26) 
25

>  <SMILES>  (26) 
CCN(CC)CCNc1c2ccccc2[n+](C)c2c1ccc1cccc(/C=C\C(C)C)c12

>  <Energy>  (26) 
118.05225680138491

>  <Genealogy>  (26) 
CCN(CC)CCNc1c2ccccc2[n+](C)c2c1ccc1cccc(/C=C\C(C)C)c12 (cis-trans isomerization)
CCN(CC)CCNc1c2ccccc2[n+](C)c2c1ccc1cccc(/C=C\C(C)C)c12 (3D coordinates assigned)
CCN(CC)CCNc1c2ccccc2[n+](C)c2c1ccc1cccc(/C=C\C(C)C)c12 (optimized conformer: 118.05225680138491 kcal/mol)

>  <smiles>  (26) 
CCN(CC)CCNc1c2ccccc2[n+](C)c2c1ccc1cccc(C=CC(C)C)c12

>  <score_type>  (26) 
oracle

>  <origin>  (26) 
adg

>  <m_score__min__energy>  (26) 
-6.79

>  <m_primary>  (26) 
energy

$$$$
26:0
     RDKit          3D

 44 46  0  0  0  0  0  0  0  0999 V2000
   55.5100   29.0580   44.8820 O   0  0  0  0  0  0  0  0  0  0  0  0
   56.2190   28.0980   45.2500 N   0  0  0  0  0  0  0  0  0  0  0  0
   55.6100   27.0030   45.8170 O   0  0  0  0  0  0  0  0  0  0  0  0
   57.6410   28.2590   45.3530 C   0  0  0  0  0  0  0  0  0  0  0  0
   58.3780   27.2900   46.0570 C   0  0  0  0  0  0  0  0  0  0  0  0
   59.7700   27.3450   46.1020 C   0  0  0  0  0  0  0  0  0  0  0  0
   60.4480   28.3620   45.4350 C   0  0  0  0  0  0  0  0  0  0  0  0
   59.7350   29.3450   44.7500 C   0  0  0  0  0  0  0  0  0  0  0  0
   58.3260   29.3400   44.7320 C   0  0  0  0  0  0  0  0  0  0  0  0
   57.6090   30.5110   44.0660 C   0  0  0  0  0  0  0  0  0  0  0  0
   57.3480   31.6600   44.9660 N   0  0  0  0  0  0  0  0  0  0  0  0
   57.8460   31.4950   46.3500 C   0  0  0  0  0  0  0  0  0  0  0  0
   59.0920   32.3520   46.6070 C   0  0  0  0  0  0  0  0  0  0  0  0
   58.8180   33.8010   46.4140 N   0  0  0  0  0  0  0  0  0  0  0  0
   60.0490   34.5380   46.0520 C   0  0  0  0  0  0  0  0  0  0  0  0
   61.1980   34.1480   46.9460 C   0  0  0  0  0  0  0  0  0  0  0  0
   62.4320   33.7820   46.3860 C   0  0  0  0  0  0  0  0  0  0  0  0
   63.5110   33.4500   47.2120 C   0  0  0  0  0  0  0  0  0  0  0  0
   63.3660   33.4870   48.6020 C   0  0  0  0  0  0  0  0  0  0  0  0
   64.8400   33.0370   49.7290 Br  0  0  0  0  0  0  0  0  0  0  0  0
   62.1420   33.8570   49.1670 C   0  0  0  0  0  0  0  0  0  0  0  0
   61.0610   34.1890   48.3440 C   0  0  0  0  0  0  0  0  0  0  0  0
   57.7230   34.0720   45.4450 C   0  0  0  0  0  0  0  0  0  0  0  0
   57.6310   32.9830   44.3660 C   0  0  0  0  0  0  0  0  0  0  0  0
   57.8493   26.4786   46.5786 H   0  0  0  0  0  0  0  0  0  0  0  0
   60.3328   26.5853   46.6642 H   0  0  0  0  0  0  0  0  0  0  0  0
   61.5476   28.3899   45.4485 H   0  0  0  0  0  0  0  0  0  0  0  0
   60.2807   30.1365   44.2155 H   0  0  0  0  0  0  0  0  0  0  0  0
   58.2295   30.8635   43.2289 H   0  0  0  0  0  0  0  0  0  0  0  0
   56.6269   30.1355   43.7427 H   0  0  0  0  0  0  0  0  0  0  0  0
   57.0547   31.7956   47.0525 H   0  0  0  0  0  0  0  0  0  0  0  0
   58.1186   30.4391   46.4943 H   0  0  0  0  0  0  0  0  0  0  0  0
   59.4289   32.1885   47.6413 H   0  0  0  0  0  0  0  0  0  0  0  0
   59.8665   32.0525   45.8856 H   0  0  0  0  0  0  0  0  0  0  0  0
   60.3115   34.3083   45.0088 H   0  0  0  0  0  0  0  0  0  0  0  0
   59.8604   35.6147   46.1753 H   0  0  0  0  0  0  0  0  0  0  0  0
   62.5511   33.7561   45.2928 H   0  0  0  0  0  0  0  0  0  0  0  0
   64.4744   33.1596   46.7675 H   0  0  0  0  0  0  0  0  0  0  0  0
   62.0289   33.8871   50.2608 H   0  0  0  0  0  0  0  0  0  0  0  0
   60.1006   34.4831   48.7924 H   0  0  0  0  0  0  0  0  0  0  0  0
   56.7683   34.1144   45.9898 H   0  0  0  0  0  0  0  0  0  0  0  0
   57.9378   35.0287   44.9465 H   0  0  0  0  0  0  0  0  0  0  0  0
   56.8232   33.2395   43.6648 H   0  0  0  0  0  0  0  0  0  0  0  0
   58.5963   32.9291   43.8413 H   0  0  0  0  0  0  0  0  0  0  0  0
  1  2  2  0
  2  3  1  0
  2  4  1  0
  4  5  2  0
  5  6  1  0
  6  7  2  0
  7  8  1  0
  8  9  2  0
  9 10  1  0
 10 11  1  0
 11 12  1  0
 12 13  1  0
 13 14  1  0
 14 15  1  0
 15 16  1  0
 16 17  2  0
 17 18  1  0
 18 19  2  0
 19 20  1  0
 19 21  1  0
 21 22  2  0
 14 23  1  0
 23 24  1  0
  9  4  1  0
 24 11  1  0
 22 16  1  0
  5 25  1  0
  6 26  1  0
  7 27  1  0
  8 28  1  0
 10 29  1  0
 10 30  1  0
 12 31  1  0
 12 32  1  0
 13 33  1  0
 13 34  1  0
 15 35  1  0
 15 36  1  0
 17 37  1  0
 18 38  1  0
 21 39  1  0
 22 40  1  0
 23 41  1  0
 23 42  1  0
 24 43  1  0
 24 44  1  0
M  CHG  2   2   1   3  -1
M  END
>  <UniqueID>  (27) 
26

>  <SMILES>  (27) 
O=[N+]([O-])c1ccccc1CN1CCN(Cc2ccc(Br)cc2)CC1

>  <Energy>  (27) 
68.60736030667098

>  <Genealogy>  (27) 
O=[N+]([O-])c1ccccc1CN1CCN(Cc2ccc(Br)cc2)CC1 (3D coordinates assigned)
O=[N+]([O-])c1ccccc1CN1CCN(Cc2ccc(Br)cc2)CC1 (nonaromatic ring conformer: 68.60736030667098 kcal/mol)

>  <smiles>  (27) 
O=[N+]([O-])c1ccccc1CN1CCN(Cc2ccc(Br)cc2)CC1

>  <score_type>  (27) 
oracle

>  <origin>  (27) 
adg

>  <m_score__min__energy>  (27) 
-9.7400000000000002

>  <m_primary>  (27) 
energy

$$$$
27:0
     RDKit          3D

 83 86  0  0  0  0  0  0  0  0999 V2000
   56.9890   24.3790   43.3710 C   0  0  0  0  0  0  0  0  0  0  0  0
   57.4270   25.3380   44.4940 C   0  0  0  0  0  0  0  0  0  0  0  0
   58.4710   24.7920   45.4050 N   0  0  0  0  0  0  0  0  0  0  0  0
   58.4380   23.3110   45.5400 C   0  0  0  0  0  0  0  0  0  0  0  0
   59.6210   22.6280   44.8430 C   0  0  0  0  0  0  0  0  0  0  0  0
   58.4290   25.4570   46.7420 C   0  0  0  0  0  0  0  0  0  0  0  0
   59.4700   26.5860   46.8490 C   0  0  0  0  0  0  0  0  0  0  0  0
   59.7060   27.1740   45.5830 O   0  0  0  0  0  0  0  0  0  0  0  0
   59.0200   28.4050   45.4430 C   0  0  0  0  0  0  0  0  0  0  0  0
   57.5810   28.3100   45.9680 C   0  0  0  0  0  0  0  0  0  0  0  0
   56.8890   29.5910   45.8260 N   0  0  0  0  0  0  0  0  0  0  0  0
   57.6130   30.8020   45.5440 C   0  0  0  0  0  0  0  0  0  0  0  0
   57.6210   31.3420   44.2430 C   0  0  0  0  0  0  0  0  0  0  0  0
   56.9610   30.6900   43.1780 C   0  0  0  0  0  0  0  0  0  0  0  0
   57.0270   31.1970   41.8820 C   0  0  0  0  0  0  0  0  0  0  0  0
   57.7540   32.3530   41.6220 C   0  0  0  0  0  0  0  0  0  0  0  0
   58.3910   33.0280   42.6610 C   0  0  0  0  0  0  0  0  0  0  0  0
   58.3010   32.5680   44.0010 C   0  0  0  0  0  0  0  0  0  0  0  0
   58.8610   33.2720   45.0510 N   0  0  0  0  0  0  0  0  0  0  0  0
   59.2780   34.6810   44.8710 C   0  0  0  0  0  0  0  0  0  0  0  0
   59.0020   32.6690   46.2880 C   0  0  0  0  0  0  0  0  0  0  0  0
   59.7900   33.2530   47.3140 C   0  0  0  0  0  0  0  0  0  0  0  0
   59.8990   32.6570   48.5840 C   0  0  0  0  0  0  0  0  0  0  0  0
   60.6370   33.2280   49.6370 O   0  0  0  0  0  0  0  0  0  0  0  0
   61.3440   32.5100   50.6480 C   0  0  0  0  0  0  0  0  0  0  0  0
   62.8150   32.9800   50.7210 C   0  0  0  0  0  0  0  0  0  0  0  0
   63.6210   32.6640   49.5040 N   0  0  1  0  0  0  0  0  0  0  0  0
   65.0220   32.3220   49.8670 C   0  0  0  0  0  0  0  0  0  0  0  0
   63.0120   31.5200   48.7860 C   0  0  0  0  0  0  0  0  0  0  0  0
   63.3350   31.6730   47.3020 C   0  0  0  0  0  0  0  0  0  0  0  0
   63.7580   33.1300   47.1280 C   0  0  1  0  0  0  0  0  0  0  0  0
   62.9480   33.8530   46.0460 C   0  0  0  0  0  0  0  0  0  0  0  0
   63.5930   33.7640   48.5130 C   0  0  0  0  0  0  0  0  0  0  0  0
   59.2650   31.4410   48.8190 C   0  0  0  0  0  0  0  0  0  0  0  0
   58.5190   30.8250   47.8180 C   0  0  0  0  0  0  0  0  0  0  0  0
   58.3650   31.4290   46.5540 C   0  0  0  0  0  0  0  0  0  0  0  0
   56.5706   23.4630   43.8135 H   0  0  0  0  0  0  0  0  0  0  0  0
   56.2248   24.8677   42.7488 H   0  0  0  0  0  0  0  0  0  0  0  0
   57.8588   24.1215   42.7488 H   0  0  0  0  0  0  0  0  0  0  0  0
   57.8224   26.2530   44.0287 H   0  0  0  0  0  0  0  0  0  0  0  0
   56.5365   25.5186   45.1140 H   0  0  0  0  0  0  0  0  0  0  0  0
   59.3950   25.0160   44.9610 H   0  0  0  0  0  0  0  0  0  0  0  0
   58.4633   23.0542   46.6093 H   0  0  0  0  0  0  0  0  0  0  0  0
   57.5161   22.9533   45.0581 H   0  0  0  0  0  0  0  0  0  0  0  0
   60.3121   22.2290   45.6001 H   0  0  0  0  0  0  0  0  0  0  0  0
   59.2507   21.8047   44.2145 H   0  0  0  0  0  0  0  0  0  0  0  0
   60.1488   23.3604   44.2145 H   0  0  0  0  0  0  0  0  0  0  0  0
   57.4260   25.8809   46.8980 H   0  0  0  0  0  0  0  0  0  0  0  0
   58.6614   24.7024   47.5079 H   0  0  0  0  0  0  0  0  0  0  0  0
   59.0971   27.3560   47.5404 H   0  0  0  0  0  0  0  0  0  0  0  0
   60.4137   26.1612   47.2218 H   0  0  0  0  0  0  0  0  0  0  0  0
   59.5569   29.1798   46.0099 H   0  0  0  0  0  0  0  0  0  0  0  0
   58.9810   28.6586   44.3733 H   0  0  0  0  0  0  0  0  0  0  0  0
   57.0389   27.5423   45.3965 H   0  0  0  0  0  0  0  0  0  0  0  0
   57.6125   28.0434   47.0347 H   0  0  0  0  0  0  0  0  0  0  0  0
   55.9070   29.6610   46.1800 H   0  0  0  0  0  0  0  0  0  0  0  0
   56.3884   29.7715   43.3741 H   0  0  0  0  0  0  0  0  0  0  0  0
   56.5031   30.6819   41.0634 H   0  0  0  0  0  0  0  0  0  0  0  0
   57.8265   32.7357   40.5933 H   0  0  0  0  0  0  0  0  0  0  0  0
   58.9743   33.9338   42.4390 H   0  0  0  0  0  0  0  0  0  0  0  0
   59.4171   35.1509   45.8558 H   0  0  0  0  0  0  0  0  0  0  0  0
   60.2246   34.7146   44.3117 H   0  0  0  0  0  0  0  0  0  0  0  0
   58.5022   35.2244   44.3117 H   0  0  0  0  0  0  0  0  0  0  0  0
   60.3270   34.1916   47.1120 H   0  0  0  0  0  0  0  0  0  0  0  0
   60.8602   32.6840   51.6204 H   0  0  0  0  0  0  0  0  0  0  0  0
   61.3259   31.4384   50.4005 H   0  0  0  0  0  0  0  0  0  0  0  0
   62.8217   34.0705   50.8654 H   0  0  0  0  0  0  0  0  0  0  0  0
   63.2790   32.4359   51.5568 H   0  0  0  0  0  0  0  0  0  0  0  0
   65.1215   32.2977   50.9622 H   0  0  0  0  0  0  0  0  0  0  0  0
   65.2774   31.3351   49.4536 H   0  0  0  0  0  0  0  0  0  0  0  0
   65.7034   33.0802   49.4536 H   0  0  0  0  0  0  0  0  0  0  0  0
   63.4304   30.5756   49.1643 H   0  0  0  0  0  0  0  0  0  0  0  0
   61.9232   31.5050   48.9420 H   0  0  0  0  0  0  0  0  0  0  0  0
   64.1541   30.9974   47.0146 H   0  0  0  0  0  0  0  0  0  0  0  0
   62.4736   31.4182   46.6671 H   0  0  0  0  0  0  0  0  0  0  0  0
   64.7963   33.2080   46.7732 H   0  0  0  0  0  0  0  0  0  0  0  0
   62.2081   34.5134   46.5218 H   0  0  0  0  0  0  0  0  0  0  0  0
   63.6254   34.4523   45.4199 H   0  0  0  0  0  0  0  0  0  0  0  0
   62.4292   33.1122   45.4199 H   0  0  0  0  0  0  0  0  0  0  0  0
   64.4169   34.4667   48.7065 H   0  0  0  0  0  0  0  0  0  0  0  0
   62.6478   34.3230   48.5766 H   0  0  0  0  0  0  0  0  0  0  0  0
   59.3541   30.9618   49.8051 H   0  0  0  0  0  0  0  0  0  0  0  0
   58.0431   29.8533   48.0164 H   0  0  0  0  0  0  0  0  0  0  0  0
  1  2  1  0
  2  3  1  0
  3  4  1  0
  4  5  1  0
  3  6  1  0
  6  7  1  0
  7  8  1  0
  8  9  1  0
  9 10  1  0
 10 11  1  0
 11 12  1  0
 12 13  2  0
 13 14  1  0
 14 15  2  0
 15 16  1  0
 16 17  2  0
 17 18  1  0
 18 19  2  0
 19 20  1  0
 19 21  1  0
 21 22  2  0
 22 23  1  0
 23 24  1  0
 24 25  1  0
 25 26  1  0
 27 26  1  1
 27 28  1  0
 27 29  1  0
 29 30  1  0
 30 31  1  0
 31 32  1  0
 31 33  1  0
 23 34  2  0
 34 35  1  0
 35 36  2  0
 36 12  1  0
 18 13  1  0
 36 21  1  0
 33 27  1  0
  1 37  1  0
  1 38  1  0
  1 39  1  0
  2 40  1  0
  2 41  1  0
  3 42  1  0
  4 43  1  0
  4 44  1  0
  5 45  1  0
  5 46  1  0
  5 47  1  0
  6 48  1  0
  6 49  1  0
  7 50  1  0
  7 51  1  0
  9 52  1  0
  9 53  1  0
 10 54  1  0
 10 55  1  0
 11 56  1  0
 14 57  1  0
 15 58  1  0
 16 59  1  0
 17 60  1  0
 20 61  1  0
 20 62  1  0
 20 63  1  0
 22 64  1  0
 25 65  1  0
 25 66  1  0
 26 67  1  0
 26 68  1  0
 28 69  1  0
 28 70  1  0
 28 71  1  0
 29 72  1  0
 29 73  1  0
 30 74  1  0
 30 75  1  0
 31 76  1  6
 32 77  1  0
 32 78  1  0
 32 79  1  0
 33 80  1  0
 33 81  1  0
 34 82  1  0
 35 83  1  0
M  CHG  3   3   1  19   1  27   1
M  END
>  <UniqueID>  (28) 
27

>  <SMILES>  (28) 
CC[NH+](CC)CCOCCNc1c2ccccc2[n+](C)c2cc(OCC[N@@+]3(C)CC[C@@H](C)C3)ccc12

>  <Energy>  (28) 
124.25594471555632

>  <Genealogy>  (28) 
CC[NH+](CC)CCOCCNc1c2ccccc2[n+](C)c2cc(OCC[N+]3(C)CCC(C)C3)ccc12 (protonated)
CC[NH+](CC)CCOCCNc1c2ccccc2[n+](C)c2cc(OCC[N@@+]3(C)CC[C@@H](C)C3)ccc12 (chirality)
CC[NH+](CC)CCOCCNc1c2ccccc2[n+](C)c2cc(OCC[N@@+]3(C)CC[C@@H](C)C3)ccc12 (3D coordinates assigned)
CC[NH+](CC)CCOCCNc1c2ccccc2[n+](C)c2cc(OCC[N@@+]3(C)CC[C@@H](C)C3)ccc12 (nonaromatic ring conformer: 124.25594471555632 kcal/mol)

>  <smiles>  (28) 
CCN(CC)CCOCCNc1c2ccccc2[n+](C)c2cc(OCC[N+]3(C)CCC(C)C3)ccc12

>  <score_type>  (28) 
oracle

>  <origin>  (28) 
adg

>  <m_score__min__energy>  (28) 
-3.8199999999999998

>  <m_primary>  (28) 
energy

$$$$
28:0
     RDKit          3D

 53 55  0  0  0  0  0  0  0  0999 V2000
   59.0610   30.5710   49.1970 C   0  0  0  0  0  0  0  0  0  0  0  0
   60.5830   30.6080   49.2500 C   0  0  0  0  0  0  0  0  0  0  0  0
   61.1150   29.2900   49.6480 N   0  0  0  0  0  0  0  0  0  0  0  0
   61.8650   29.3290   50.9250 C   0  0  0  0  0  0  0  0  0  0  0  0
   61.0700   28.8010   52.1260 C   0  0  0  0  0  0  0  0  0  0  0  0
   60.1050   28.2060   49.5980 C   0  0  0  0  0  0  0  0  0  0  0  0
   60.7860   26.8630   49.3240 C   0  0  0  0  0  0  0  0  0  0  0  0
   60.3930   26.3410   48.0130 N   0  0  0  0  0  0  0  0  0  0  0  0
   59.2310   26.7920   47.2910 C   0  0  0  0  0  0  0  0  0  0  0  0
   58.0460   26.0410   47.3180 C   0  0  0  0  0  0  0  0  0  0  0  0
   56.9130   26.5150   46.6560 C   0  0  0  0  0  0  0  0  0  0  0  0
   55.8450   25.8470   46.6770 O   0  0  0  0  0  0  0  0  0  0  0  0
   56.9490   27.6720   46.0100 O   0  0  0  0  0  0  0  0  0  0  0  0
   58.0370   28.4380   45.9490 C   0  0  0  0  0  0  0  0  0  0  0  0
   58.0020   29.6620   45.2510 C   0  0  0  0  0  0  0  0  0  0  0  0
   56.5350   30.2660   44.4700 S   0  0  0  0  0  0  0  0  0  0  0  0
   55.3170   29.4740   44.8560 O   0  0  0  0  0  0  0  0  0  0  0  0
   56.7090   30.1510   42.9840 O   0  0  0  0  0  0  0  0  0  0  0  0
   56.3180   31.9370   44.8760 N   0  0  0  0  0  0  0  0  0  0  0  0
   57.3480   32.8340   45.3100 C   0  0  0  0  0  0  0  0  0  0  0  0
   58.1930   33.5040   44.4060 C   0  0  0  0  0  0  0  0  0  0  0  0
   59.1940   34.3570   44.8770 C   0  0  0  0  0  0  0  0  0  0  0  0
   59.3570   34.5550   46.2510 C   0  0  0  0  0  0  0  0  0  0  0  0
   58.5190   33.8950   47.1580 C   0  0  0  0  0  0  0  0  0  0  0  0
   57.5220   33.0350   46.6880 C   0  0  0  0  0  0  0  0  0  0  0  0
   59.1570   30.4510   45.1840 C   0  0  0  0  0  0  0  0  0  0  0  0
   60.3410   30.0290   45.7850 C   0  0  0  0  0  0  0  0  0  0  0  0
   60.3860   28.8220   46.4790 C   0  0  0  0  0  0  0  0  0  0  0  0
   59.2350   28.0180   46.5880 C   0  0  0  0  0  0  0  0  0  0  0  0
   58.6586   30.5612   50.2207 H   0  0  0  0  0  0  0  0  0  0  0  0
   58.6909   31.4604   48.6660 H   0  0  0  0  0  0  0  0  0  0  0  0
   58.7345   29.6647   48.6660 H   0  0  0  0  0  0  0  0  0  0  0  0
   60.9742   30.8720   48.2564 H   0  0  0  0  0  0  0  0  0  0  0  0
   60.8966   31.3584   49.9906 H   0  0  0  0  0  0  0  0  0  0  0  0
   62.7721   28.7169   50.8133 H   0  0  0  0  0  0  0  0  0  0  0  0
   62.0927   30.3853   51.1308 H   0  0  0  0  0  0  0  0  0  0  0  0
   61.5563   29.1240   53.0583 H   0  0  0  0  0  0  0  0  0  0  0  0
   60.0449   29.1984   52.0905 H   0  0  0  0  0  0  0  0  0  0  0  0
   61.0387   27.7020   52.0905 H   0  0  0  0  0  0  0  0  0  0  0  0
   59.5772   28.1561   50.5618 H   0  0  0  0  0  0  0  0  0  0  0  0
   59.3899   28.4180   48.7895 H   0  0  0  0  0  0  0  0  0  0  0  0
   61.8772   27.0004   49.3456 H   0  0  0  0  0  0  0  0  0  0  0  0
   60.4763   26.1451   50.0978 H   0  0  0  0  0  0  0  0  0  0  0  0
   61.0030   25.6070   47.5930 H   0  0  0  0  0  0  0  0  0  0  0  0
   58.0105   25.0835   47.8583 H   0  0  0  0  0  0  0  0  0  0  0  0
   58.0648   33.3554   43.3237 H   0  0  0  0  0  0  0  0  0  0  0  0
   59.8549   34.8736   44.1655 H   0  0  0  0  0  0  0  0  0  0  0  0
   60.1438   35.2295   46.6198 H   0  0  0  0  0  0  0  0  0  0  0  0
   58.6450   34.0530   48.2393 H   0  0  0  0  0  0  0  0  0  0  0  0
   56.8696   32.5124   47.4030 H   0  0  0  0  0  0  0  0  0  0  0  0
   59.1292   31.4132   44.6517 H   0  0  0  0  0  0  0  0  0  0  0  0
   61.2446   30.6519   45.7111 H   0  0  0  0  0  0  0  0  0  0  0  0
   61.3271   28.4947   46.9451 H   0  0  0  0  0  0  0  0  0  0  0  0
  1  2  1  0
  2  3  1  0
  3  4  1  0
  4  5  1  0
  3  6  1  0
  6  7  1  0
  7  8  1  0
  8  9  1  0
  9 10  2  0
 10 11  1  0
 11 12  2  0
 11 13  1  0
 13 14  1  0
 14 15  2  0
 15 16  1  0
 16 17  2  0
 16 18  2  0
 16 19  1  0
 19 20  1  0
 20 21  2  0
 21 22  1  0
 22 23  2  0
 23 24  1  0
 24 25  2  0
 15 26  1  0
 26 27  2  0
 27 28  1  0
 28 29  2  0
 29  9  1  0
 29 14  1  0
 25 20  1  0
  1 30  1  0
  1 31  1  0
  1 32  1  0
  2 33  1  0
  2 34  1  0
  4 35  1  0
  4 36  1  0
  5 37  1  0
  5 38  1  0
  5 39  1  0
  6 40  1  0
  6 41  1  0
  7 42  1  0
  7 43  1  0
  8 44  1  0
 10 45  1  0
 21 46  1  0
 22 47  1  0
 23 48  1  0
 24 49  1  0
 25 50  1  0
 26 51  1  0
 27 52  1  0
 28 53  1  0
M  CHG  1  19  -1
M  END
>  <UniqueID>  (29) 
28

>  <SMILES>  (29) 
CCN(CC)CCNc1cc(=O)oc2c(S(=O)(=O)[N-]c3ccccc3)cccc12

>  <Energy>  (29) 
67.0438643130981

>  <Genealogy>  (29) 
CCN(CC)CCNc1cc(=O)oc2c(S(=O)(=O)[N-]c3ccccc3)cccc12 (protonated)
CCN(CC)CCNc1cc(=O)oc2c(S(=O)(=O)[N-]c3ccccc3)cccc12 (3D coordinates assigned)
CCN(CC)CCNc1cc(=O)oc2c(S(=O)(=O)[N-]c3ccccc3)cccc12 (optimized conformer: 67.0438643130981 kcal/mol)

>  <smiles>  (29) 
CCN(CC)CCNc1cc(=O)oc2c(S(=O)(=O)Nc3ccccc3)cccc12

>  <score_type>  (29) 
oracle

>  <origin>  (29) 
adg

>  <m_score__min__energy>  (29) 
-9.8499999999999996

>  <m_primary>  (29) 
energy

$$$$
29:0
     RDKit          3D

 47 49  0  0  0  0  0  0  0  0999 V2000
   56.2240   28.9720   44.8490 C   0  0  0  0  0  0  0  0  0  0  0  0
   56.7540   30.2770   44.3440 C   0  0  0  0  0  0  0  0  0  0  0  0
   56.9860   30.4670   42.9770 C   0  0  0  0  0  0  0  0  0  0  0  0
   57.5000   31.6880   42.5360 C   0  0  0  0  0  0  0  0  0  0  0  0
   57.7780   32.7010   43.4550 C   0  0  0  0  0  0  0  0  0  0  0  0
   57.5330   32.4810   44.8180 C   0  0  0  0  0  0  0  0  0  0  0  0
   57.8170   33.5470   45.8530 C   0  0  0  0  0  0  0  0  0  0  0  0
   59.0610   33.3180   46.6370 N   0  0  2  0  0  0  0  0  0  0  0  0
   58.7900   32.3480   47.6880 C   0  0  0  0  0  0  0  0  0  0  0  0
   58.0890   32.6780   48.6850 O   0  0  0  0  0  0  0  0  0  0  0  0
   59.1420   30.9200   47.5410 C   0  0  0  0  0  0  0  0  0  0  0  0
   59.4970   30.4090   46.3760 O   0  0  0  0  0  0  0  0  0  0  0  0
   59.7650   29.1400   46.5530 C   0  0  0  0  0  0  0  0  0  0  0  0
   60.1840   28.2190   45.5950 C   0  0  0  0  0  0  0  0  0  0  0  0
   60.4140   26.8950   46.0110 C   0  0  0  0  0  0  0  0  0  0  0  0
   60.2210   26.5270   47.3620 C   0  0  0  0  0  0  0  0  0  0  0  0
   59.7960   27.4780   48.3070 C   0  0  0  0  0  0  0  0  0  0  0  0
   59.5790   28.7850   47.8630 C   0  0  0  0  0  0  0  0  0  0  0  0
   59.1560   29.9200   48.5250 C   0  0  0  0  0  0  0  0  0  0  0  0
   58.7610   30.0140   49.9670 C   0  0  0  0  0  0  0  0  0  0  0  0
   59.6950   34.5700   47.1610 C   0  0  0  0  0  0  0  0  0  0  0  0
   61.0390   34.2760   47.8660 C   0  0  0  0  0  0  0  0  0  0  0  0
   59.9770   35.5890   46.0360 C   0  0  0  0  0  0  0  0  0  0  0  0
   57.0400   31.2760   45.2230 N   0  0  0  0  0  0  0  0  0  0  0  0
   56.2258   28.9765   45.9490 H   0  0  0  0  0  0  0  0  0  0  0  0
   55.1961   28.8280   44.4846 H   0  0  0  0  0  0  0  0  0  0  0  0
   56.8604   28.1521   44.4846 H   0  0  0  0  0  0  0  0  0  0  0  0
   56.7660   29.6638   42.2584 H   0  0  0  0  0  0  0  0  0  0  0  0
   57.6859   31.8516   41.4642 H   0  0  0  0  0  0  0  0  0  0  0  0
   58.1858   33.6637   43.1130 H   0  0  0  0  0  0  0  0  0  0  0  0
   57.9074   34.5141   45.3367 H   0  0  0  0  0  0  0  0  0  0  0  0
   56.9824   33.5235   46.5692 H   0  0  0  0  0  0  0  0  0  0  0  0
   59.7430   32.8960   45.9700 H   0  0  0  0  0  0  0  0  0  0  0  0
   60.3303   28.5178   44.5465 H   0  0  0  0  0  0  0  0  0  0  0  0
   60.7458   26.1420   45.2810 H   0  0  0  0  0  0  0  0  0  0  0  0
   60.4046   25.4891   47.6766 H   0  0  0  0  0  0  0  0  0  0  0  0
   59.6397   27.2021   49.3603 H   0  0  0  0  0  0  0  0  0  0  0  0
   59.6355   29.8059   50.6010 H   0  0  0  0  0  0  0  0  0  0  0  0
   58.3867   31.0263   50.1794 H   0  0  0  0  0  0  0  0  0  0  0  0
   57.9708   29.2788   50.1794 H   0  0  0  0  0  0  0  0  0  0  0  0
   58.9726   34.9904   47.8761 H   0  0  0  0  0  0  0  0  0  0  0  0
   60.8957   34.3073   48.9562 H   0  0  0  0  0  0  0  0  0  0  0  0
   61.3969   33.2783   47.5717 H   0  0  0  0  0  0  0  0  0  0  0  0
   61.7807   35.0331   47.5717 H   0  0  0  0  0  0  0  0  0  0  0  0
   60.2455   36.5594   46.4791 H   0  0  0  0  0  0  0  0  0  0  0  0
   60.8088   35.2273   45.4137 H   0  0  0  0  0  0  0  0  0  0  0  0
   59.0776   35.7064   45.4137 H   0  0  0  0  0  0  0  0  0  0  0  0
  1  2  1  0
  2  3  2  0
  3  4  1  0
  4  5  2  0
  5  6  1  0
  6  7  1  0
  7  8  1  0
  8  9  1  0
  9 10  2  0
  9 11  1  0
 11 12  1  0
 12 13  1  0
 13 14  2  0
 14 15  1  0
 15 16  2  0
 16 17  1  0
 17 18  2  0
 18 19  1  0
 19 20  1  0
  8 21  1  0
 21 22  1  0
 21 23  1  0
  6 24  2  0
 24  2  1  0
 19 11  2  0
 18 13  1  0
  1 25  1  0
  1 26  1  0
  1 27  1  0
  3 28  1  0
  4 29  1  0
  5 30  1  0
  7 31  1  0
  7 32  1  0
  8 33  1  6
 14 34  1  0
 15 35  1  0
 16 36  1  0
 17 37  1  0
 20 38  1  0
 20 39  1  0
 20 40  1  0
 21 41  1  0
 22 42  1  0
 22 43  1  0
 22 44  1  0
 23 45  1  0
 23 46  1  0
 23 47  1  0
M  CHG  1   8   1
M  END
>  <UniqueID>  (30) 
29

>  <SMILES>  (30) 
Cc1cccc(C[N@H+](C(=O)c2oc3ccccc3c2C)C(C)C)n1

>  <Energy>  (30) 
91.62935371329392

>  <Genealogy>  (30) 
Cc1cccc(C[NH+](C(=O)c2oc3ccccc3c2C)C(C)C)n1 (protonated)
Cc1cccc(C[N@H+](C(=O)c2oc3ccccc3c2C)C(C)C)n1 (chirality)
Cc1cccc(C[N@H+](C(=O)c2oc3ccccc3c2C)C(C)C)n1 (3D coordinates assigned)
Cc1cccc(C[N@H+](C(=O)c2oc3ccccc3c2C)C(C)C)n1 (optimized conformer: 91.62935371329392 kcal/mol)

>  <smiles>  (30) 
Cc1cccc(CN(C(=O)c2oc3ccccc3c2C)C(C)C)n1

>  <score_type>  (30) 
oracle

>  <origin>  (30) 
adg

>  <m_score__min__energy>  (30) 
-6.2300000000000004

>  <m_primary>  (30) 
energy

$$$$
30:0
     RDKit          3D

 50 52  0  0  0  0  0  0  0  0999 V2000
   59.8190   25.9840   46.3550 C   0  0  0  0  0  0  0  0  0  0  0  0
   59.2600   27.2680   45.7980 C   0  0  0  0  0  0  0  0  0  0  0  0
   59.6780   28.4890   46.3400 C   0  0  0  0  0  0  0  0  0  0  0  0
   59.1810   29.7170   45.8570 C   0  0  0  0  0  0  0  0  0  0  0  0
   59.5930   30.9400   46.4210 C   0  0  0  0  0  0  0  0  0  0  0  0
   60.6050   30.9680   47.4440 N   0  0  0  0  0  0  0  0  0  0  0  0
   62.0180   31.1740   47.1200 C   0  0  0  0  0  0  0  0  0  0  0  0
   62.8090   31.6610   48.3610 C   0  0  0  0  0  0  0  0  0  0  0  0
   63.8690   32.6590   48.0770 N   0  0  0  0  0  0  0  0  0  0  0  0
   64.5750   33.1020   49.2950 C   0  0  0  0  0  0  0  0  0  0  0  0
   63.3760   33.8100   47.3010 C   0  0  0  0  0  0  0  0  0  0  0  0
   58.9730   32.1330   46.0040 C   0  0  0  0  0  0  0  0  0  0  0  0
   59.2100   33.3470   46.6820 C   0  0  0  0  0  0  0  0  0  0  0  0
   58.5700   34.5200   46.2880 C   0  0  0  0  0  0  0  0  0  0  0  0
   57.6670   34.4980   45.2320 C   0  0  0  0  0  0  0  0  0  0  0  0
   57.4070   33.3080   44.5550 C   0  0  0  0  0  0  0  0  0  0  0  0
   58.0700   32.1040   44.9100 C   0  0  0  0  0  0  0  0  0  0  0  0
   57.8380   30.9220   44.2340 N   0  0  0  0  0  0  0  0  0  0  0  0
   57.1500   30.9410   42.9230 C   0  0  0  0  0  0  0  0  0  0  0  0
   58.2660   29.7230   44.7740 C   0  0  0  0  0  0  0  0  0  0  0  0
   57.8040   28.4790   44.2790 C   0  0  0  0  0  0  0  0  0  0  0  0
   58.2850   27.2620   44.7820 C   0  0  0  0  0  0  0  0  0  0  0  0
   57.7700   25.9680   44.2030 C   0  0  0  0  0  0  0  0  0  0  0  0
   59.8020   26.0230   47.4542 H   0  0  0  0  0  0  0  0  0  0  0  0
   59.2080   25.1374   46.0087 H   0  0  0  0  0  0  0  0  0  0  0  0
   60.8550   25.8544   46.0087 H   0  0  0  0  0  0  0  0  0  0  0  0
   60.4103   28.4906   47.1608 H   0  0  0  0  0  0  0  0  0  0  0  0
   60.3610   30.6600   48.4110 H   0  0  0  0  0  0  0  0  0  0  0  0
   62.4485   30.2244   46.7693 H   0  0  0  0  0  0  0  0  0  0  0  0
   62.0887   31.9428   46.3364 H   0  0  0  0  0  0  0  0  0  0  0  0
   62.0948   32.1128   49.0651 H   0  0  0  0  0  0  0  0  0  0  0  0
   63.3210   30.7756   48.7660 H   0  0  0  0  0  0  0  0  0  0  0  0
   64.5810   32.1750   47.4780 H   0  0  0  0  0  0  0  0  0  0  0  0
   64.0254   32.7571   50.1833 H   0  0  0  0  0  0  0  0  0  0  0  0
   65.5903   32.6787   49.3048 H   0  0  0  0  0  0  0  0  0  0  0  0
   64.6355   34.2003   49.3048 H   0  0  0  0  0  0  0  0  0  0  0  0
   63.0382   34.5987   47.9894 H   0  0  0  0  0  0  0  0  0  0  0  0
   64.1864   34.1990   46.6671 H   0  0  0  0  0  0  0  0  0  0  0  0
   62.5352   33.4918   46.6671 H   0  0  0  0  0  0  0  0  0  0  0  0
   59.9083   33.3678   47.5317 H   0  0  0  0  0  0  0  0  0  0  0  0
   58.7795   35.4637   46.8129 H   0  0  0  0  0  0  0  0  0  0  0  0
   57.1554   35.4235   44.9293 H   0  0  0  0  0  0  0  0  0  0  0  0
   56.6765   33.3015   43.7326 H   0  0  0  0  0  0  0  0  0  0  0  0
   56.0617   30.9711   43.0804 H   0  0  0  0  0  0  0  0  0  0  0  0
   57.4634   31.8308   42.3573 H   0  0  0  0  0  0  0  0  0  0  0  0
   57.4138   30.0352   42.3573 H   0  0  0  0  0  0  0  0  0  0  0  0
   57.0485   28.4674   43.4795 H   0  0  0  0  0  0  0  0  0  0  0  0
   57.4976   25.2835   45.0199 H   0  0  0  0  0  0  0  0  0  0  0  0
   56.8839   26.1705   43.5834 H   0  0  0  0  0  0  0  0  0  0  0  0
   58.5529   25.5063   43.5834 H   0  0  0  0  0  0  0  0  0  0  0  0
  1  2  1  0
  2  3  2  0
  3  4  1  0
  4  5  2  0
  5  6  1  0
  6  7  1  0
  7  8  1  0
  8  9  1  0
  9 10  1  0
  9 11  1  0
  5 12  1  0
 12 13  2  0
 13 14  1  0
 14 15  2  0
 15 16  1  0
 16 17  2  0
 17 18  1  0
 18 19  1  0
 18 20  2  0
 20 21  1  0
 21 22  2  0
 22 23  1  0
 22  2  1  0
 20  4  1  0
 17 12  1  0
  1 24  1  0
  1 25  1  0
  1 26  1  0
  3 27  1  0
  6 28  1  0
  7 29  1  0
  7 30  1  0
  8 31  1  0
  8 32  1  0
  9 33  1  0
 10 34  1  0
 10 35  1  0
 10 36  1  0
 11 37  1  0
 11 38  1  0
 11 39  1  0
 13 40  1  0
 14 41  1  0
 15 42  1  0
 16 43  1  0
 19 44  1  0
 19 45  1  0
 19 46  1  0
 21 47  1  0
 23 48  1  0
 23 49  1  0
 23 50  1  0
M  CHG  2   9   1  18   1
M  END
>  <UniqueID>  (31) 
30

>  <SMILES>  (31) 
Cc1cc2c(NCC[NH+](C)C)c3ccccc3[n+](C)c2cc1C

>  <Energy>  (31) 
80.87781051825812

>  <Genealogy>  (31) 
Cc1cc2c(NCC[NH+](C)C)c3ccccc3[n+](C)c2cc1C (protonated)
Cc1cc2c(NCC[NH+](C)C)c3ccccc3[n+](C)c2cc1C (3D coordinates assigned)
Cc1cc2c(NCC[NH+](C)C)c3ccccc3[n+](C)c2cc1C (optimized conformer: 80.87781051825812 kcal/mol)

>  <smiles>  (31) 
Cc1cc2c(NCCN(C)C)c3ccccc3[n+](C)c2cc1C

>  <score_type>  (31) 
oracle

>  <origin>  (31) 
adg

>  <m_score__min__energy>  (31) 
-5.0499999999999998

>  <m_primary>  (31) 
energy

$$$$
31:0
     RDKit          3D

 36 38  0  0  0  0  0  0  0  0999 V2000
   64.3220   33.4480   49.9750 C   0  0  0  0  0  0  0  0  0  0  0  0
   64.2320   32.8600   48.7110 C   0  0  0  0  0  0  0  0  0  0  0  0
   63.0350   32.9250   47.9900 C   0  0  0  0  0  0  0  0  0  0  0  0
   61.9130   33.5820   48.5290 C   0  0  0  0  0  0  0  0  0  0  0  0
   60.6490   33.6450   47.7590 C   0  0  0  0  0  0  0  0  0  0  0  0
   59.5660   34.3510   48.1590 N   0  0  0  0  0  0  0  0  0  0  0  0
   58.5290   34.2530   47.2840 C   0  0  0  0  0  0  0  0  0  0  0  0
   58.7840   33.4680   46.1640 C   0  0  0  0  0  0  0  0  0  0  0  0
   57.8090   33.1570   45.0560 C   0  0  0  0  0  0  0  0  0  0  0  0
   57.2030   31.8050   45.1380 N   0  0  0  0  0  0  0  0  0  0  0  0
   58.0100   30.8730   45.9650 C   0  0  0  0  0  0  0  0  0  0  0  0
   57.6010   29.3960   45.7560 C   0  0  0  0  0  0  0  0  0  0  0  0
   56.2280   29.2770   45.2540 N   0  0  0  0  0  0  0  0  0  0  0  0
   56.0680   29.9380   43.9460 C   0  0  0  0  0  0  0  0  0  0  0  0
   56.9120   31.2260   43.8100 C   0  0  0  0  0  0  0  0  0  0  0  0
   60.3490   32.8650   46.2930 S   0  0  0  0  0  0  0  0  0  0  0  0
   62.0160   34.1700   49.8030 C   0  0  0  0  0  0  0  0  0  0  0  0
   63.2150   34.1020   50.5200 C   0  0  0  0  0  0  0  0  0  0  0  0
   65.2640   33.3959   50.5405 H   0  0  0  0  0  0  0  0  0  0  0  0
   65.1041   32.3449   48.2818 H   0  0  0  0  0  0  0  0  0  0  0  0
   62.9702   32.4596   46.9954 H   0  0  0  0  0  0  0  0  0  0  0  0
   57.5643   34.7551   47.4491 H   0  0  0  0  0  0  0  0  0  0  0  0
   56.9990   33.9004   45.0911 H   0  0  0  0  0  0  0  0  0  0  0  0
   58.3791   33.1903   44.1159 H   0  0  0  0  0  0  0  0  0  0  0  0
   56.2860   31.9410   45.6270 H   0  0  0  0  0  0  0  0  0  0  0  0
   59.0700   30.9879   45.6946 H   0  0  0  0  0  0  0  0  0  0  0  0
   57.8347   31.1238   47.0216 H   0  0  0  0  0  0  0  0  0  0  0  0
   58.2869   28.9360   45.0294 H   0  0  0  0  0  0  0  0  0  0  0  0
   57.6549   28.8853   46.7288 H   0  0  0  0  0  0  0  0  0  0  0  0
   55.5760   29.7160   45.9450 H   0  0  0  0  0  0  0  0  0  0  0  0
   56.3742   29.2340   43.1582 H   0  0  0  0  0  0  0  0  0  0  0  0
   55.0109   30.2272   43.8518 H   0  0  0  0  0  0  0  0  0  0  0  0
   57.8596   30.9847   43.3062 H   0  0  0  0  0  0  0  0  0  0  0  0
   56.3422   31.9606   43.2221 H   0  0  0  0  0  0  0  0  0  0  0  0
   61.1478   34.6866   50.2381 H   0  0  0  0  0  0  0  0  0  0  0  0
   63.2861   34.5647   51.5154 H   0  0  0  0  0  0  0  0  0  0  0  0
  1  2  2  0
  2  3  1  0
  3  4  2  0
  4  5  1  0
  5  6  2  0
  6  7  1  0
  7  8  2  0
  8  9  1  0
  9 10  1  0
 10 11  1  0
 11 12  1  0
 12 13  1  0
 13 14  1  0
 14 15  1  0
  8 16  1  0
  4 17  1  0
 17 18  2  0
 18  1  1  0
 16  5  1  0
 15 10  1  0
  1 19  1  0
  2 20  1  0
  3 21  1  0
  7 22  1  0
  9 23  1  0
  9 24  1  0
 10 25  1  0
 11 26  1  0
 11 27  1  0
 12 28  1  0
 12 29  1  0
 13 30  1  0
 14 31  1  0
 14 32  1  0
 15 33  1  0
 15 34  1  0
 17 35  1  0
 18 36  1  0
M  CHG  1  10   1
M  END
>  <UniqueID>  (32) 
31

>  <SMILES>  (32) 
c1ccc(-c2ncc(C[NH+]3CCNCC3)s2)cc1

>  <Energy>  (32) 
78.2665775751006

>  <Genealogy>  (32) 
c1ccc(-c2ncc(C[NH+]3CCNCC3)s2)cc1 (protonated)
c1ccc(-c2ncc(C[NH+]3CCNCC3)s2)cc1 (3D coordinates assigned)
c1ccc(-c2ncc(C[NH+]3CCNCC3)s2)cc1 (nonaromatic ring conformer: 78.2665775751006 kcal/mol)

>  <smiles>  (32) 
c1ccc(-c2ncc(CN3CCNCC3)s2)cc1

>  <score_type>  (32) 
oracle

>  <origin>  (32) 
adg

>  <m_score__min__energy>  (32) 
-5.5700000000000003

>  <m_primary>  (32) 
energy

$$$$
32:0
     RDKit          3D

 55 56  0  0  0  0  0  0  0  0999 V2000
   59.2590   33.5510   51.3760 C   0  0  0  0  0  0  0  0  0  0  0  0
   59.5170   33.0930   49.9350 C   0  0  0  0  0  0  0  0  0  0  0  0
   60.9660   33.0570   49.5970 N   0  0  0  0  0  0  0  0  0  0  0  0
   61.5900   34.3970   49.7770 C   0  0  0  0  0  0  0  0  0  0  0  0
   62.9670   34.3740   50.4580 C   0  0  0  0  0  0  0  0  0  0  0  0
   61.6610   31.9730   50.3450 C   0  0  0  0  0  0  0  0  0  0  0  0
   62.7570   31.2630   49.5250 C   0  0  0  0  0  0  0  0  0  0  0  0
   62.3410   31.1140   48.1240 N   0  0  0  0  0  0  0  0  0  0  0  0
   63.3550   31.6090   47.1800 C   0  0  0  0  0  0  0  0  0  0  0  0
   63.5050   33.1400   47.2310 C   0  0  0  0  0  0  0  0  0  0  0  0
   62.2580   33.8460   46.6820 C   0  0  0  0  0  0  0  0  0  0  0  0
   61.0770   33.0800   46.9250 O   0  0  0  0  0  0  0  0  0  0  0  0
   59.8430   33.2340   46.2660 C   0  0  0  0  0  0  0  0  0  0  0  0
   59.4240   34.4740   45.7400 C   0  0  0  0  0  0  0  0  0  0  0  0
   58.2080   34.5820   45.0600 C   0  0  0  0  0  0  0  0  0  0  0  0
   57.4000   33.4600   44.8880 C   0  0  0  0  0  0  0  0  0  0  0  0
   57.8010   32.2250   45.4000 C   0  0  0  0  0  0  0  0  0  0  0  0
   59.0130   32.1020   46.1000 C   0  0  0  0  0  0  0  0  0  0  0  0
   59.4030   30.7850   46.6500 C   0  0  0  0  0  0  0  0  0  0  0  0
   60.0090   29.8200   45.8270 C   0  0  0  0  0  0  0  0  0  0  0  0
   60.3850   28.5800   46.3530 C   0  0  0  0  0  0  0  0  0  0  0  0
   60.1640   28.2950   47.7020 C   0  0  0  0  0  0  0  0  0  0  0  0
   59.5710   29.2520   48.5310 C   0  0  0  0  0  0  0  0  0  0  0  0
   59.1950   30.4950   48.0090 C   0  0  0  0  0  0  0  0  0  0  0  0
   59.6755   32.8116   52.0759 H   0  0  0  0  0  0  0  0  0  0  0  0
   59.7408   34.5257   51.5428 H   0  0  0  0  0  0  0  0  0  0  0  0
   58.1757   33.6441   51.5428 H   0  0  0  0  0  0  0  0  0  0  0  0
   59.0999   32.0833   49.8062 H   0  0  0  0  0  0  0  0  0  0  0  0
   59.0360   33.8192   49.2633 H   0  0  0  0  0  0  0  0  0  0  0  0
   61.0500   32.8400   48.5750 H   0  0  0  0  0  0  0  0  0  0  0  0
   61.7053   34.8580   48.7850 H   0  0  0  0  0  0  0  0  0  0  0  0
   60.9226   34.9654   50.4414 H   0  0  0  0  0  0  0  0  0  0  0  0
   62.8360   34.3762   51.5502 H   0  0  0  0  0  0  0  0  0  0  0  0
   63.5105   33.4667   50.1557 H   0  0  0  0  0  0  0  0  0  0  0  0
   63.5404   35.2627   50.1557 H   0  0  0  0  0  0  0  0  0  0  0  0
   62.1255   32.4110   51.2408 H   0  0  0  0  0  0  0  0  0  0  0  0
   60.9031   31.2159   50.5949 H   0  0  0  0  0  0  0  0  0  0  0  0
   63.6814   31.8578   49.5661 H   0  0  0  0  0  0  0  0  0  0  0  0
   62.9276   30.2637   49.9521 H   0  0  0  0  0  0  0  0  0  0  0  0
   61.4420   31.6300   47.9750 H   0  0  0  0  0  0  0  0  0  0  0  0
   64.3234   31.1505   47.4290 H   0  0  0  0  0  0  0  0  0  0  0  0
   63.0299   31.3371   46.1649 H   0  0  0  0  0  0  0  0  0  0  0  0
   63.6603   33.4493   48.2751 H   0  0  0  0  0  0  0  0  0  0  0  0
   64.3650   33.4234   46.6065 H   0  0  0  0  0  0  0  0  0  0  0  0
   62.1564   34.8257   47.1718 H   0  0  0  0  0  0  0  0  0  0  0  0
   62.3770   33.9640   45.5948 H   0  0  0  0  0  0  0  0  0  0  0  0
   60.0595   35.3630   45.8661 H   0  0  0  0  0  0  0  0  0  0  0  0
   57.8879   35.5552   44.6595 H   0  0  0  0  0  0  0  0  0  0  0  0
   56.4455   33.5476   44.3484 H   0  0  0  0  0  0  0  0  0  0  0  0
   57.1630   31.3409   45.2543 H   0  0  0  0  0  0  0  0  0  0  0  0
   60.1883   30.0412   44.7645 H   0  0  0  0  0  0  0  0  0  0  0  0
   60.8557   27.8278   45.7029 H   0  0  0  0  0  0  0  0  0  0  0  0
   60.4565   27.3173   48.1125 H   0  0  0  0  0  0  0  0  0  0  0  0
   59.3998   29.0279   49.5942 H   0  0  0  0  0  0  0  0  0  0  0  0
   58.7347   31.2481   48.6655 H   0  0  0  0  0  0  0  0  0  0  0  0
  1  2  1  0
  2  3  1  0
  3  4  1  0
  4  5  1  0
  3  6  1  0
  6  7  1  0
  7  8  1  0
  8  9  1  0
  9 10  1  0
 10 11  1  0
 11 12  1  0
 12 13  1  0
 13 14  2  0
 14 15  1  0
 15 16  2  0
 16 17  1  0
 17 18  2  0
 18 19  1  0
 19 20  2  0
 20 21  1  0
 21 22  2  0
 22 23  1  0
 23 24  2  0
 18 13  1  0
 24 19  1  0
  1 25  1  0
  1 26  1  0
  1 27  1  0
  2 28  1  0
  2 29  1  0
  3 30  1  0
  4 31  1  0
  4 32  1  0
  5 33  1  0
  5 34  1  0
  5 35  1  0
  6 36  1  0
  6 37  1  0
  7 38  1  0
  7 39  1  0
  8 40  1  0
  9 41  1  0
  9 42  1  0
 10 43  1  0
 10 44  1  0
 11 45  1  0
 11 46  1  0
 14 47  1  0
 15 48  1  0
 16 49  1  0
 17 50  1  0
 20 51  1  0
 21 52  1  0
 22 53  1  0
 23 54  1  0
 24 55  1  0
M  CHG  1   3   1
M  END
>  <UniqueID>  (33) 
32

>  <SMILES>  (33) 
CC[NH+](CC)CCNCCCOc1ccccc1-c1ccccc1

>  <Energy>  (33) 
60.560578816234454

>  <Genealogy>  (33) 
CC[NH+](CC)CCNCCCOc1ccccc1-c1ccccc1 (protonated)
CC[NH+](CC)CCNCCCOc1ccccc1-c1ccccc1 (3D coordinates assigned)
CC[NH+](CC)CCNCCCOc1ccccc1-c1ccccc1 (optimized conformer: 60.560578816234454 kcal/mol)

>  <smiles>  (33) 
CCN(CC)CCNCCCOc1ccccc1-c1ccccc1

>  <score_type>  (33) 
oracle

>  <origin>  (33) 
adg

>  <m_score__min__energy>  (33) 
-5.3300000000000001

>  <m_primary>  (33) 
energy

$$$$
33:0
     RDKit          3D

 43 44  0  0  0  0  0  0  0  0999 V2000
   58.6610   27.5480   46.5080 C   0  0  0  0  0  0  0  0  0  0  0  0
   58.4070   27.3350   45.0130 C   0  0  0  0  0  0  0  0  0  0  0  0
   57.2400   28.0910   44.5250 N   0  0  0  0  0  0  0  0  0  0  0  0
   57.4530   28.6310   43.1690 C   0  0  0  0  0  0  0  0  0  0  0  0
   56.5940   29.8820   42.9090 C   0  0  0  0  0  0  0  0  0  0  0  0
   56.2750   30.7080   44.1650 C   0  0  0  0  0  0  0  0  0  0  0  0
   57.2500   30.4960   45.1900 O   0  0  0  0  0  0  0  0  0  0  0  0
   58.2050   31.4230   45.6470 C   0  0  0  0  0  0  0  0  0  0  0  0
   58.0710   32.8110   45.4760 C   0  0  0  0  0  0  0  0  0  0  0  0
   59.0630   33.6730   45.9400 C   0  0  0  0  0  0  0  0  0  0  0  0
   60.2090   33.1750   46.5740 C   0  0  0  0  0  0  0  0  0  0  0  0
   60.3460   31.7790   46.7830 C   0  0  0  0  0  0  0  0  0  0  0  0
   59.3300   30.9260   46.3110 C   0  0  0  0  0  0  0  0  0  0  0  0
   61.4710   31.1210   47.5690 C   0  0  0  0  0  0  0  0  0  0  0  0
   62.9160   31.4700   47.1790 C   0  0  0  0  0  0  0  0  0  0  0  0
   63.2980   32.8990   47.5800 C   0  0  0  0  0  0  0  0  0  0  0  0
   62.6160   33.9500   46.6930 C   0  0  0  0  0  0  0  0  0  0  0  0
   61.1990   34.1130   47.0130 N   0  0  0  0  0  0  0  0  0  0  0  0
   57.9460   26.9484   47.0905 H   0  0  0  0  0  0  0  0  0  0  0  0
   59.6868   27.2361   46.7537 H   0  0  0  0  0  0  0  0  0  0  0  0
   58.5326   28.6125   46.7537 H   0  0  0  0  0  0  0  0  0  0  0  0
   59.2968   27.6605   44.4542 H   0  0  0  0  0  0  0  0  0  0  0  0
   58.2007   26.2656   44.8583 H   0  0  0  0  0  0  0  0  0  0  0  0
   57.0240   28.8740   45.1860 H   0  0  0  0  0  0  0  0  0  0  0  0
   56.4230   27.4390   44.5260 H   0  0  0  0  0  0  0  0  0  0  0  0
   58.5140   28.8979   43.0549 H   0  0  0  0  0  0  0  0  0  0  0  0
   57.1589   27.8581   42.4436 H   0  0  0  0  0  0  0  0  0  0  0  0
   57.1334   30.5281   42.2007 H   0  0  0  0  0  0  0  0  0  0  0  0
   55.6306   29.5241   42.5168 H   0  0  0  0  0  0  0  0  0  0  0  0
   56.2624   31.7750   43.8981 H   0  0  0  0  0  0  0  0  0  0  0  0
   55.2943   30.3903   44.5487 H   0  0  0  0  0  0  0  0  0  0  0  0
   57.1808   33.2185   44.9746 H   0  0  0  0  0  0  0  0  0  0  0  0
   58.9447   34.7585   45.8067 H   0  0  0  0  0  0  0  0  0  0  0  0
   59.4240   29.8414   46.4688 H   0  0  0  0  0  0  0  0  0  0  0  0
   61.3398   31.3991   48.6252 H   0  0  0  0  0  0  0  0  0  0  0  0
   61.3748   30.0482   47.3456 H   0  0  0  0  0  0  0  0  0  0  0  0
   63.5974   30.7676   47.6813 H   0  0  0  0  0  0  0  0  0  0  0  0
   62.9965   31.3948   46.0845 H   0  0  0  0  0  0  0  0  0  0  0  0
   62.9964   33.0668   48.6245 H   0  0  0  0  0  0  0  0  0  0  0  0
   64.3858   33.0060   47.4563 H   0  0  0  0  0  0  0  0  0  0  0  0
   63.1237   34.9154   46.8349 H   0  0  0  0  0  0  0  0  0  0  0  0
   62.6875   33.6070   45.6503 H   0  0  0  0  0  0  0  0  0  0  0  0
   60.8790   35.0710   47.2830 H   0  0  0  0  0  0  0  0  0  0  0  0
  1  2  1  0
  2  3  1  0
  3  4  1  0
  4  5  1  0
  5  6  1  0
  6  7  1  0
  7  8  1  0
  8  9  2  0
  9 10  1  0
 10 11  2  0
 11 12  1  0
 12 13  2  0
 12 14  1  0
 14 15  1  0
 15 16  1  0
 16 17  1  0
 17 18  1  0
 13  8  1  0
 18 11  1  0
  1 19  1  0
  1 20  1  0
  1 21  1  0
  2 22  1  0
  2 23  1  0
  3 24  1  0
  3 25  1  0
  4 26  1  0
  4 27  1  0
  5 28  1  0
  5 29  1  0
  6 30  1  0
  6 31  1  0
  9 32  1  0
 10 33  1  0
 13 34  1  0
 14 35  1  0
 14 36  1  0
 15 37  1  0
 15 38  1  0
 16 39  1  0
 16 40  1  0
 17 41  1  0
 17 42  1  0
 18 43  1  0
M  CHG  1   3   1
M  END
>  <UniqueID>  (34) 
33

>  <SMILES>  (34) 
CC[NH2+]CCCOc1ccc2c(c1)CCCCN2

>  <Energy>  (34) 
50.01444180319141

>  <Genealogy>  (34) 
CC[NH2+]CCCOc1ccc2c(c1)CCCCN2 (protonated)
CC[NH2+]CCCOc1ccc2c(c1)CCCCN2 (3D coordinates assigned)
CC[NH2+]CCCOc1ccc2c(c1)CCCCN2 (nonaromatic ring conformer: 50.01444180319141 kcal/mol)

>  <smiles>  (34) 
CCNCCCOc1ccc2c(c1)CCCCN2

>  <score_type>  (34) 
oracle

>  <origin>  (34) 
adg

>  <m_score__min__energy>  (34) 
-3.1899999999999999

>  <m_primary>  (34) 
energy

$$$$
34:0
     RDKit          3D

 45 48  0  0  0  0  0  0  0  0999 V2000
   64.6180   35.0790   52.2790 C   0  0  0  0  0  0  0  0  0  0  0  0
   65.8260   34.4730   51.6260 C   0  0  0  0  0  0  0  0  0  0  0  0
   67.0480   34.9920   51.9300 N   0  0  0  0  0  0  0  0  0  0  0  0
   68.1960   34.5170   51.3810 C   0  0  0  0  0  0  0  0  0  0  0  0
   68.1500   33.4670   50.4680 C   0  0  0  0  0  0  0  0  0  0  0  0
   66.9170   32.9100   50.1300 C   0  0  0  0  0  0  0  0  0  0  0  0
   65.7340   33.4000   50.7060 C   0  0  0  0  0  0  0  0  0  0  0  0
   64.4190   32.7570   50.3130 C   0  0  0  0  0  0  0  0  0  0  0  0
   63.7610   33.5110   49.2240 N   0  0  0  0  0  0  0  0  0  0  0  0
   63.6570   32.6950   47.9880 C   0  0  0  0  0  0  0  0  0  0  0  0
   62.6100   33.2480   47.0170 C   0  0  0  0  0  0  0  0  0  0  0  0
   61.3030   33.3050   47.6770 N   0  0  0  0  0  0  0  0  0  0  0  0
   60.1030   33.0790   46.9200 C   0  0  0  0  0  0  0  0  0  0  0  0
   59.3990   34.1940   46.3890 C   0  0  0  0  0  0  0  0  0  0  0  0
   58.2040   34.0190   45.6690 C   0  0  0  0  0  0  0  0  0  0  0  0
   57.7450   32.7190   45.5040 C   0  0  0  0  0  0  0  0  0  0  0  0
   56.6430   32.2900   44.8720 N   0  0  0  0  0  0  0  0  0  0  0  0
   56.6830   30.9860   45.0020 O   0  0  0  0  0  0  0  0  0  0  0  0
   57.7200   30.5400   45.6670 N   0  0  0  0  0  0  0  0  0  0  0  0
   58.4090   31.6450   45.9950 C   0  0  0  0  0  0  0  0  0  0  0  0
   59.6090   31.7610   46.7040 C   0  0  0  0  0  0  0  0  0  0  0  0
   60.3180   30.5430   47.2270 C   0  0  0  0  0  0  0  0  0  0  0  0
   61.2390   33.3780   49.1390 C   0  0  0  0  0  0  0  0  0  0  0  0
   62.4750   34.1110   49.6760 C   0  0  0  0  0  0  0  0  0  0  0  0
   64.7262   35.0247   53.3723 H   0  0  0  0  0  0  0  0  0  0  0  0
   64.5240   36.1310   51.9716 H   0  0  0  0  0  0  0  0  0  0  0  0
   63.7185   34.5254   51.9716 H   0  0  0  0  0  0  0  0  0  0  0  0
   69.1629   34.9623   51.6580 H   0  0  0  0  0  0  0  0  0  0  0  0
   69.0765   33.0808   50.0180 H   0  0  0  0  0  0  0  0  0  0  0  0
   66.8710   32.0817   49.4077 H   0  0  0  0  0  0  0  0  0  0  0  0
   64.6097   31.7283   49.9732 H   0  0  0  0  0  0  0  0  0  0  0  0
   63.7543   32.7582   51.1894 H   0  0  0  0  0  0  0  0  0  0  0  0
   64.6358   32.6857   47.4861 H   0  0  0  0  0  0  0  0  0  0  0  0
   63.3465   31.6804   48.2780 H   0  0  0  0  0  0  0  0  0  0  0  0
   62.9037   34.2596   46.7003 H   0  0  0  0  0  0  0  0  0  0  0  0
   62.5451   32.5892   46.1385 H   0  0  0  0  0  0  0  0  0  0  0  0
   59.7949   35.2086   46.5436 H   0  0  0  0  0  0  0  0  0  0  0  0
   57.6552   34.8770   45.2534 H   0  0  0  0  0  0  0  0  0  0  0  0
   60.3094   30.5577   48.3269 H   0  0  0  0  0  0  0  0  0  0  0  0
   59.8055   29.6382   46.8684 H   0  0  0  0  0  0  0  0  0  0  0  0
   61.3579   30.5418   46.8684 H   0  0  0  0  0  0  0  0  0  0  0  0
   60.3319   33.9236   49.4383 H   0  0  0  0  0  0  0  0  0  0  0  0
   61.2117   32.3593   49.5532 H   0  0  0  0  0  0  0  0  0  0  0  0
   62.4377   35.1554   49.3326 H   0  0  0  0  0  0  0  0  0  0  0  0
   62.4479   34.0329   50.7729 H   0  0  0  0  0  0  0  0  0  0  0  0
  1  2  1  0
  2  3  2  0
  3  4  1  0
  4  5  2  0
  5  6  1  0
  6  7  2  0
  7  8  1  0
  8  9  1  0
  9 10  1  0
 10 11  1  0
 11 12  1  0
 12 13  1  0
 13 14  1  0
 14 15  2  0
 15 16  1  0
 16 17  2  0
 17 18  1  0
 18 19  1  0
 19 20  2  0
 20 21  1  0
 21 22  1  0
 12 23  1  0
 23 24  1  0
  7  2  1  0
 24  9  1  0
 21 13  2  0
 20 16  1  0
  1 25  1  0
  1 26  1  0
  1 27  1  0
  4 28  1  0
  5 29  1  0
  6 30  1  0
  8 31  1  0
  8 32  1  0
 10 33  1  0
 10 34  1  0
 11 35  1  0
 11 36  1  0
 14 37  1  0
 15 38  1  0
 22 39  1  0
 22 40  1  0
 22 41  1  0
 23 42  1  0
 23 43  1  0
 24 44  1  0
 24 45  1  0
M  END
>  <UniqueID>  (35) 
34

>  <SMILES>  (35) 
Cc1ncccc1CN1CCN(c2ccc3nonc3c2C)CC1

>  <Energy>  (35) 
105.05473804260438

>  <Genealogy>  (35) 
Cc1ncccc1CN1CCN(c2ccc3nonc3c2C)CC1 (3D coordinates assigned)
Cc1ncccc1CN1CCN(c2ccc3nonc3c2C)CC1 (nonaromatic ring conformer: 105.05473804260438 kcal/mol)

>  <smiles>  (35) 
Cc1ncccc1CN1CCN(c2ccc3nonc3c2C)CC1

>  <score_type>  (35) 
oracle

>  <origin>  (35) 
adg

>  <m_score__min__energy>  (35) 
-8.4000000000000004

>  <m_primary>  (35) 
energy

$$$$
