0:0
     RDKit          3D

 47 48  0  0  0  0  0  0  0  0999 V2000
   53.5360   24.2440   45.2480 C   0  0  0  0  0  0  0  0  0  0  0  0
   55.0520   24.1000   45.1820 C   0  0  0  0  0  0  0  0  0  0  0  0
   55.7230   25.2230   45.9130 C   0  0  0  0  0  0  0  0  0  0  0  0
   55.1500   26.3430   45.9920 O   0  0  0  0  0  0  0  0  0  0  0  0
   56.9880   25.0100   46.5530 N   0  0  0  0  0  0  0  0  0  0  0  0
   57.6610   26.0830   47.2850 C   0  0  0  0  0  0  0  0  0  0  0  0
   58.3290   27.0860   46.3330 C   0  0  0  0  0  0  0  0  0  0  0  0
   57.4510   28.2170   45.9900 N   0  0  0  0  0  0  0  0  0  0  0  0
   57.3880   28.5420   44.5530 C   0  0  0  0  0  0  0  0  0  0  0  0
   56.1690   29.4060   44.1550 C   0  0  1  0  0  0  0  0  0  0  0  0
   55.1880   29.3430   45.1580 O   0  0  0  0  0  0  0  0  0  0  0  0
   56.6020   30.8650   43.9520 C   0  0  0  0  0  0  0  0  0  0  0  0
   56.6680   31.5560   45.2010 O   0  0  0  0  0  0  0  0  0  0  0  0
   57.7780   32.2550   45.7060 C   0  0  0  0  0  0  0  0  0  0  0  0
   57.8280   33.6600   45.7860 C   0  0  0  0  0  0  0  0  0  0  0  0
   58.9580   34.3010   46.3000 C   0  0  0  0  0  0  0  0  0  0  0  0
   60.0540   33.5520   46.7460 C   0  0  0  0  0  0  0  0  0  0  0  0
   61.1950   34.1860   47.2630 C   0  0  0  0  0  0  0  0  0  0  0  0
   62.2820   33.4260   47.7060 C   0  0  0  0  0  0  0  0  0  0  0  0
   62.2370   32.0310   47.6350 C   0  0  0  0  0  0  0  0  0  0  0  0
   61.1080   31.3860   47.1230 C   0  0  0  0  0  0  0  0  0  0  0  0
   60.0110   32.1390   46.6750 C   0  0  0  0  0  0  0  0  0  0  0  0
   58.8710   31.5050   46.1580 C   0  0  0  0  0  0  0  0  0  0  0  0
   53.2160   24.2744   46.3000 H   0  0  0  0  0  0  0  0  0  0  0  0
   53.2339   25.1749   44.7458 H   0  0  0  0  0  0  0  0  0  0  0  0
   53.0640   23.3866   44.7458 H   0  0  0  0  0  0  0  0  0  0  0  0
   55.3443   23.1443   45.6416 H   0  0  0  0  0  0  0  0  0  0  0  0
   55.3643   24.1277   44.1276 H   0  0  0  0  0  0  0  0  0  0  0  0
   57.4210   24.0600   46.5000 H   0  0  0  0  0  0  0  0  0  0  0  0
   56.9200   26.6143   47.9003 H   0  0  0  0  0  0  0  0  0  0  0  0
   58.4434   25.6321   47.9131 H   0  0  0  0  0  0  0  0  0  0  0  0
   59.2360   27.4787   46.8159 H   0  0  0  0  0  0  0  0  0  0  0  0
   58.5626   26.5526   45.3998 H   0  0  0  0  0  0  0  0  0  0  0  0
   56.4860   28.0090   46.3390 H   0  0  0  0  0  0  0  0  0  0  0  0
   58.3028   29.0894   44.2820 H   0  0  0  0  0  0  0  0  0  0  0  0
   57.2897   27.5873   44.0155 H   0  0  0  0  0  0  0  0  0  0  0  0
   55.7522   29.0175   43.2141 H   0  0  0  0  0  0  0  0  0  0  0  0
   55.5910   29.7090   45.9870 H   0  0  0  0  0  0  0  0  0  0  0  0
   57.5942   30.8835   43.4774 H   0  0  0  0  0  0  0  0  0  0  0  0
   55.8605   31.3658   43.3122 H   0  0  0  0  0  0  0  0  0  0  0  0
   56.9710   34.2573   45.4412 H   0  0  0  0  0  0  0  0  0  0  0  0
   58.9869   35.3993   46.3546 H   0  0  0  0  0  0  0  0  0  0  0  0
   61.2340   35.2838   47.3198 H   0  0  0  0  0  0  0  0  0  0  0  0
   63.1737   33.9269   48.1109 H   0  0  0  0  0  0  0  0  0  0  0  0
   63.0949   31.4375   47.9840 H   0  0  0  0  0  0  0  0  0  0  0  0
   61.0788   30.2876   47.0710 H   0  0  0  0  0  0  0  0  0  0  0  0
   58.8354   30.4068   46.1072 H   0  0  0  0  0  0  0  0  0  0  0  0
  1  2  1  0
  2  3  1  0
  3  4  2  0
  3  5  1  0
  5  6  1  0
  6  7  1  0
  7  8  1  0
  8  9  1  0
  9 10  1  0
 10 11  1  0
 10 12  1  0
 12 13  1  0
 13 14  1  0
 14 15  2  0
 15 16  1  0
 16 17  2  0
 17 18  1  0
 18 19  2  0
 19 20  1  0
 20 21  2  0
 21 22  1  0
 22 23  2  0
 23 14  1  0
 22 17  1  0
  1 24  1  0
  1 25  1  0
  1 26  1  0
  2 27  1  0
  2 28  1  0
  5 29  1  0
  6 30  1  0
  6 31  1  0
  7 32  1  0
  7 33  1  0
  8 34  1  0
  9 35  1  0
  9 36  1  0
 10 37  1  6
 11 38  1  0
 12 39  1  0
 12 40  1  0
 15 41  1  0
 16 42  1  0
 18 43  1  0
 19 44  1  0
 20 45  1  0
 21 46  1  0
 23 47  1  0
M  END
>  <UniqueID>  (1) 
1

>  <SMILES>  (1) 
CCC(=O)NCCNC[C@@H](O)COc1ccc2ccccc2c1

>  <Energy>  (1) 
43.046508355817565

>  <Genealogy>  (1) 
CCC(=O)NCCNC[C@@H](O)COc1ccc2ccccc2c1 (chirality)
CCC(=O)NCCNC[C@@H](O)COc1ccc2ccccc2c1 (3D coordinates assigned)
CCC(=O)NCCNC[C@@H](O)COc1ccc2ccccc2c1 (optimized conformer: 43.046508355817565 kcal/mol)

>  <smiles>  (1) 
CCC(=O)NCCNCC(O)COc1ccc2ccccc2c1

>  <score_type>  (1) 
oracle

>  <origin>  (1) 
adg

>  <m_score__min__energy>  (1) 
-8.6500000000000004

>  <m_primary>  (1) 
energy

$$$$
1:0
     RDKit          3D

 42 43  0  0  0  0  0  0  0  0999 V2000
   56.3330   29.7190   42.8500 C   0  0  0  0  0  0  0  0  0  0  0  0
   56.8740   29.6880   44.2820 C   0  0  0  0  0  0  0  0  0  0  0  0
   56.6830   30.9710   44.9790 N   0  0  0  0  0  0  0  0  0  0  0  0
   57.3820   32.0870   44.3240 C   0  0  0  0  0  0  0  0  0  0  0  0
   57.2350   33.3780   45.1360 C   0  0  0  0  0  0  0  0  0  0  0  0
   58.4410   33.6370   45.9200 N   0  0  0  0  0  0  0  0  0  0  0  0
   59.1960   34.7650   45.9300 C   0  0  0  0  0  0  0  0  0  0  0  0
   60.3120   34.6600   46.7030 N   0  0  0  0  0  0  0  0  0  0  0  0
   60.2250   33.4020   47.1770 C   0  0  0  0  0  0  0  0  0  0  0  0
   61.0980   32.7110   48.0070 C   0  0  0  0  0  0  0  0  0  0  0  0
   62.2900   33.3270   48.5150 N   0  0  0  0  0  0  0  0  0  0  0  0
   62.1950   34.2120   49.6810 C   0  0  0  0  0  0  0  0  0  0  0  0
   63.4010   34.0280   50.5940 C   0  0  0  0  0  0  0  0  0  0  0  0
   63.5400   33.1950   47.7580 C   0  0  0  0  0  0  0  0  0  0  0  0
   63.3960   33.8110   46.3710 C   0  0  0  0  0  0  0  0  0  0  0  0
   60.7880   31.4140   48.3190 N   0  0  0  0  0  0  0  0  0  0  0  0
   59.6550   30.8170   47.8240 C   0  0  0  0  0  0  0  0  0  0  0  0
   58.8050   31.5070   47.0050 N   0  0  0  0  0  0  0  0  0  0  0  0
   59.1160   32.7920   46.7070 C   0  0  0  0  0  0  0  0  0  0  0  0
   55.2351   29.7819   42.8741 H   0  0  0  0  0  0  0  0  0  0  0  0
   56.7390   30.5954   42.3235 H   0  0  0  0  0  0  0  0  0  0  0  0
   56.6362   28.8020   42.3235 H   0  0  0  0  0  0  0  0  0  0  0  0
   56.3491   28.8998   44.8416 H   0  0  0  0  0  0  0  0  0  0  0  0
   57.9549   29.4911   44.2294 H   0  0  0  0  0  0  0  0  0  0  0  0
   57.0190   30.8880   45.9680 H   0  0  0  0  0  0  0  0  0  0  0  0
   58.4498   31.8389   44.2327 H   0  0  0  0  0  0  0  0  0  0  0  0
   56.9372   32.2449   43.3304 H   0  0  0  0  0  0  0  0  0  0  0  0
   57.0641   34.2193   44.4483 H   0  0  0  0  0  0  0  0  0  0  0  0
   56.3838   33.2674   45.8239 H   0  0  0  0  0  0  0  0  0  0  0  0
   58.9324   35.6739   45.3692 H   0  0  0  0  0  0  0  0  0  0  0  0
   62.1563   35.2569   49.3395 H   0  0  0  0  0  0  0  0  0  0  0  0
   61.2833   33.9612   50.2431 H   0  0  0  0  0  0  0  0  0  0  0  0
   63.0769   34.0774   51.6440 H   0  0  0  0  0  0  0  0  0  0  0  0
   63.8629   33.0490   50.3985 H   0  0  0  0  0  0  0  0  0  0  0  0
   64.1338   34.8247   50.3985 H   0  0  0  0  0  0  0  0  0  0  0  0
   64.3468   33.7100   48.3001 H   0  0  0  0  0  0  0  0  0  0  0  0
   63.7765   32.1263   47.6482 H   0  0  0  0  0  0  0  0  0  0  0  0
   63.1466   34.8780   46.4678 H   0  0  0  0  0  0  0  0  0  0  0  0
   64.3433   33.7042   45.8222 H   0  0  0  0  0  0  0  0  0  0  0  0
   62.5942   33.2953   45.8222 H   0  0  0  0  0  0  0  0  0  0  0  0
   61.4230   30.8650   48.9400 H   0  0  0  0  0  0  0  0  0  0  0  0
   59.4290   29.7736   48.0889 H   0  0  0  0  0  0  0  0  0  0  0  0
  1  2  1  0
  2  3  1  0
  3  4  1  0
  4  5  1  0
  5  6  1  0
  6  7  1  0
  7  8  2  0
  8  9  1  0
  9 10  2  0
 10 11  1  0
 11 12  1  0
 12 13  1  0
 11 14  1  0
 14 15  1  0
 10 16  1  0
 16 17  2  0
 17 18  1  0
 18 19  2  0
 19  6  1  0
 19  9  1  0
  1 20  1  0
  1 21  1  0
  1 22  1  0
  2 23  1  0
  2 24  1  0
  3 25  1  0
  4 26  1  0
  4 27  1  0
  5 28  1  0
  5 29  1  0
  7 30  1  0
 12 31  1  0
 12 32  1  0
 13 33  1  0
 13 34  1  0
 13 35  1  0
 14 36  1  0
 14 37  1  0
 15 38  1  0
 15 39  1  0
 15 40  1  0
 16 41  1  0
 17 42  1  0
M  CHG  1  16   1
M  END
>  <UniqueID>  (2) 
2

>  <SMILES>  (2) 
CCNCCn1cnc2c(N(CC)CC)[nH+]cnc21

>  <Energy>  (2) 
75.537836181914

>  <Genealogy>  (2) 
CCNCCn1cnc2c(N(CC)CC)[nH+]cnc21 (protonated)
CCNCCn1cnc2c(N(CC)CC)[nH+]cnc21 (3D coordinates assigned)
CCNCCn1cnc2c(N(CC)CC)[nH+]cnc21 (optimized conformer: 75.537836181914 kcal/mol)

>  <smiles>  (2) 
CCNCCn1cnc2c(N(CC)CC)ncnc21

>  <score_type>  (2) 
oracle

>  <origin>  (2) 
adg

>  <m_score__min__energy>  (2) 
-4.1799999999999997

>  <m_primary>  (2) 
energy

$$$$
2:0
     RDKit          3D

 58 60  0  0  0  0  0  0  0  0999 V2000
   62.9690   33.3350   47.1390 C   0  0  0  0  0  0  0  0  0  0  0  0
   61.7520   33.5010   48.0640 C   0  0  0  0  0  0  0  0  0  0  0  0
   60.8050   32.3570   48.0660 N   0  0  0  0  0  0  0  0  0  0  0  0
   60.8550   31.5490   49.3170 C   0  0  0  0  0  0  0  0  0  0  0  0
   61.4790   30.1600   49.0970 C   0  0  0  0  0  0  0  0  0  0  0  0
   60.7550   29.3750   48.0640 N   0  0  0  0  0  0  0  0  0  0  0  0
   59.7560   28.4670   48.6710 C   0  0  0  0  0  0  0  0  0  0  0  0
   60.2550   27.0130   48.7100 C   0  0  0  0  0  0  0  0  0  0  0  0
   61.0900   26.6860   47.5420 N   0  0  0  0  0  0  0  0  0  0  0  0
   60.3570   25.9880   46.4720 C   0  0  0  0  0  0  0  0  0  0  0  0
   59.1240   26.7410   46.0320 C   0  0  0  0  0  0  0  0  0  0  0  0
   57.8620   26.3970   46.5400 C   0  0  0  0  0  0  0  0  0  0  0  0
   56.7260   27.1080   46.1420 C   0  0  0  0  0  0  0  0  0  0  0  0
   56.8290   28.1680   45.2340 C   0  0  0  0  0  0  0  0  0  0  0  0
   55.6530   28.8440   44.8670 O   0  0  0  0  0  0  0  0  0  0  0  0
   55.5230   29.7210   43.7480 C   0  0  0  0  0  0  0  0  0  0  0  0
   56.5210   30.8330   43.8270 C   0  0  0  0  0  0  0  0  0  0  0  0
   57.2920   31.3070   42.7810 C   0  0  0  0  0  0  0  0  0  0  0  0
   58.0210   32.3390   43.3340 C   0  0  0  0  0  0  0  0  0  0  0  0
   57.6870   32.4450   44.6330 N   0  0  0  0  0  0  0  0  0  0  0  0
   58.1800   33.4560   45.5590 C   0  0  0  0  0  0  0  0  0  0  0  0
   56.7650   31.5490   44.9430 N   0  0  0  0  0  0  0  0  0  0  0  0
   58.0960   28.5150   44.7280 C   0  0  0  0  0  0  0  0  0  0  0  0
   59.2330   27.8050   45.1250 C   0  0  0  0  0  0  0  0  0  0  0  0
   60.1550   30.2160   46.9960 C   0  0  0  0  0  0  0  0  0  0  0  0
   60.9020   31.5440   46.8280 C   0  0  0  0  0  0  0  0  0  0  0  0
   63.8774   33.2111   47.7469 H   0  0  0  0  0  0  0  0  0  0  0  0
   62.8287   32.4477   46.5042 H   0  0  0  0  0  0  0  0  0  0  0  0
   63.0715   34.2275   46.5042 H   0  0  0  0  0  0  0  0  0  0  0  0
   62.1204   33.6409   49.0910 H   0  0  0  0  0  0  0  0  0  0  0  0
   61.1897   34.3651   47.6804 H   0  0  0  0  0  0  0  0  0  0  0  0
   59.8520   32.7960   48.0410 H   0  0  0  0  0  0  0  0  0  0  0  0
   61.4547   32.0909   50.0632 H   0  0  0  0  0  0  0  0  0  0  0  0
   59.8206   31.4000   49.6601 H   0  0  0  0  0  0  0  0  0  0  0  0
   62.5236   30.2879   48.7768 H   0  0  0  0  0  0  0  0  0  0  0  0
   61.4152   29.6077   50.0462 H   0  0  0  0  0  0  0  0  0  0  0  0
   59.5500   28.8004   49.6988 H   0  0  0  0  0  0  0  0  0  0  0  0
   58.8454   28.4995   48.0547 H   0  0  0  0  0  0  0  0  0  0  0  0
   60.8491   26.8656   49.6240 H   0  0  0  0  0  0  0  0  0  0  0  0
   59.3764   26.3513   48.6961 H   0  0  0  0  0  0  0  0  0  0  0  0
   61.4850   27.5760   47.1580 H   0  0  0  0  0  0  0  0  0  0  0  0
   61.0252   25.8680   45.6064 H   0  0  0  0  0  0  0  0  0  0  0  0
   60.0317   25.0149   46.8684 H   0  0  0  0  0  0  0  0  0  0  0  0
   57.7663   25.5653   47.2536 H   0  0  0  0  0  0  0  0  0  0  0  0
   55.7412   26.8315   46.5466 H   0  0  0  0  0  0  0  0  0  0  0  0
   55.6900   29.1514   42.8219 H   0  0  0  0  0  0  0  0  0  0  0  0
   54.5115   30.1533   43.7539 H   0  0  0  0  0  0  0  0  0  0  0  0
   57.3179   30.9433   41.7432 H   0  0  0  0  0  0  0  0  0  0  0  0
   58.7510   32.9681   42.8035 H   0  0  0  0  0  0  0  0  0  0  0  0
   58.0152   33.1180   46.5927 H   0  0  0  0  0  0  0  0  0  0  0  0
   59.2558   33.6130   45.3917 H   0  0  0  0  0  0  0  0  0  0  0  0
   57.6413   34.4003   45.3917 H   0  0  0  0  0  0  0  0  0  0  0  0
   58.1919   29.3487   44.0169 H   0  0  0  0  0  0  0  0  0  0  0  0
   60.2188   28.0826   44.7236 H   0  0  0  0  0  0  0  0  0  0  0  0
   60.1924   29.6640   46.0453 H   0  0  0  0  0  0  0  0  0  0  0  0
   59.1172   30.4420   47.2822 H   0  0  0  0  0  0  0  0  0  0  0  0
   61.9609   31.3386   46.6122 H   0  0  0  0  0  0  0  0  0  0  0  0
   60.4470   32.1049   45.9983 H   0  0  0  0  0  0  0  0  0  0  0  0
  1  2  1  0
  2  3  1  0
  3  4  1  0
  4  5  1  0
  5  6  1  0
  6  7  1  0
  7  8  1  0
  8  9  1  0
  9 10  1  0
 10 11  1  0
 11 12  2  0
 12 13  1  0
 13 14  2  0
 14 15  1  0
 15 16  1  0
 16 17  1  0
 17 18  1  0
 18 19  2  0
 19 20  1  0
 20 21  1  0
 20 22  1  0
 14 23  1  0
 23 24  2  0
  6 25  1  0
 25 26  1  0
 26  3  1  0
 24 11  1  0
 22 17  2  0
  1 27  1  0
  1 28  1  0
  1 29  1  0
  2 30  1  0
  2 31  1  0
  3 32  1  0
  4 33  1  0
  4 34  1  0
  5 35  1  0
  5 36  1  0
  7 37  1  0
  7 38  1  0
  8 39  1  0
  8 40  1  0
  9 41  1  0
 10 42  1  0
 10 43  1  0
 12 44  1  0
 13 45  1  0
 16 46  1  0
 16 47  1  0
 18 48  1  0
 19 49  1  0
 21 50  1  0
 21 51  1  0
 21 52  1  0
 23 53  1  0
 24 54  1  0
 25 55  1  0
 25 56  1  0
 26 57  1  0
 26 58  1  0
M  CHG  1   3   1
M  END
>  <UniqueID>  (3) 
3

>  <SMILES>  (3) 
CC[NH+]1CCN(CCNCc2ccc(OCc3ccn(C)n3)cc2)CC1

>  <Energy>  (3) 
100.54901144527655

>  <Genealogy>  (3) 
CC[NH+]1CCN(CCNCc2ccc(OCc3ccn(C)n3)cc2)CC1 (protonated)
CC[NH+]1CCN(CCNCc2ccc(OCc3ccn(C)n3)cc2)CC1 (3D coordinates assigned)
CC[NH+]1CCN(CCNCc2ccc(OCc3ccn(C)n3)cc2)CC1 (nonaromatic ring conformer: 100.54901144527655 kcal/mol)

>  <smiles>  (3) 
CCN1CCN(CCNCc2ccc(OCc3ccn(C)n3)cc2)CC1

>  <score_type>  (3) 
oracle

>  <origin>  (3) 
adg

>  <m_score__min__energy>  (3) 
-6.2699999999999996

>  <m_primary>  (3) 
energy

$$$$
3:0
     RDKit          3D

 57 59  0  0  0  0  0  0  0  0999 V2000
   63.1320   33.8520   46.4400 C   0  0  0  0  0  0  0  0  0  0  0  0
   63.7140   32.6970   47.2500 C   0  0  0  0  0  0  0  0  0  0  0  0
   63.1970   32.7340   48.6370 N   0  0  0  0  0  0  0  0  0  0  0  0
   64.0500   31.9360   49.5480 C   0  0  0  0  0  0  0  0  0  0  0  0
   65.3520   32.6770   49.8410 C   0  0  0  0  0  0  0  0  0  0  0  0
   63.0290   34.1260   49.1220 C   0  0  0  0  0  0  0  0  0  0  0  0
   62.0810   34.1530   50.3210 C   0  0  0  0  0  0  0  0  0  0  0  0
   60.7450   34.2120   49.8730 O   0  0  0  0  0  0  0  0  0  0  0  0
   59.9520   33.3180   50.6240 C   0  0  0  0  0  0  0  0  0  0  0  0
   59.8100   32.0100   49.8470 C   0  0  0  0  0  0  0  0  0  0  0  0
   60.6800   32.0030   48.6600 N   0  0  0  0  0  0  0  0  0  0  0  0
   59.9300   31.6360   47.4700 C   0  0  0  0  0  0  0  0  0  0  0  0
   59.4140   32.6330   46.6000 C   0  0  0  0  0  0  0  0  0  0  0  0
   59.7510   34.0010   46.7500 C   0  0  0  0  0  0  0  0  0  0  0  0
   59.2620   34.9630   45.8700 C   0  0  0  0  0  0  0  0  0  0  0  0
   58.4430   34.5900   44.8150 C   0  0  0  0  0  0  0  0  0  0  0  0
   58.0950   33.2530   44.6390 C   0  0  0  0  0  0  0  0  0  0  0  0
   58.5470   32.2520   45.5370 C   0  0  0  0  0  0  0  0  0  0  0  0
   58.1740   30.9330   45.3840 N   0  0  0  0  0  0  0  0  0  0  0  0
   57.0320   30.5830   44.5090 C   0  0  0  0  0  0  0  0  0  0  0  0
   58.8590   29.9400   46.0540 C   0  0  0  0  0  0  0  0  0  0  0  0
   58.7280   28.5770   45.6840 C   0  0  0  0  0  0  0  0  0  0  0  0
   59.3910   27.5710   46.3830 C   0  0  0  0  0  0  0  0  0  0  0  0
   59.2060   25.8940   45.9000 Cl  0  0  0  0  0  0  0  0  0  0  0  0
   60.2140   27.8960   47.4540 C   0  0  0  0  0  0  0  0  0  0  0  0
   60.3930   29.2270   47.8190 C   0  0  0  0  0  0  0  0  0  0  0  0
   59.7320   30.2720   47.1280 C   0  0  0  0  0  0  0  0  0  0  0  0
   62.7445   34.6211   47.1243 H   0  0  0  0  0  0  0  0  0  0  0  0
   63.9181   34.2879   45.8059 H   0  0  0  0  0  0  0  0  0  0  0  0
   62.3139   33.4796   45.8059 H   0  0  0  0  0  0  0  0  0  0  0  0
   63.4283   31.7439   46.7810 H   0  0  0  0  0  0  0  0  0  0  0  0
   64.8098   32.7906   47.2726 H   0  0  0  0  0  0  0  0  0  0  0  0
   63.5109   31.7632   50.4911 H   0  0  0  0  0  0  0  0  0  0  0  0
   64.2860   30.9754   49.0668 H   0  0  0  0  0  0  0  0  0  0  0  0
   65.4917   32.7565   50.9292 H   0  0  0  0  0  0  0  0  0  0  0  0
   66.1955   32.1236   49.4025 H   0  0  0  0  0  0  0  0  0  0  0  0
   65.3070   33.6848   49.4025 H   0  0  0  0  0  0  0  0  0  0  0  0
   64.0080   34.5272   49.4230 H   0  0  0  0  0  0  0  0  0  0  0  0
   62.6055   34.7405   48.3139 H   0  0  0  0  0  0  0  0  0  0  0  0
   62.2250   33.2423   50.9209 H   0  0  0  0  0  0  0  0  0  0  0  0
   62.2975   35.0396   50.9350 H   0  0  0  0  0  0  0  0  0  0  0  0
   60.4341   33.1214   51.5930 H   0  0  0  0  0  0  0  0  0  0  0  0
   58.9588   33.7574   50.7988 H   0  0  0  0  0  0  0  0  0  0  0  0
   60.0884   31.1710   50.5016 H   0  0  0  0  0  0  0  0  0  0  0  0
   58.7657   31.9113   49.5159 H   0  0  0  0  0  0  0  0  0  0  0  0
   61.1350   32.9360   48.5350 H   0  0  0  0  0  0  0  0  0  0  0  0
   61.4880   31.3560   48.8030 H   0  0  0  0  0  0  0  0  0  0  0  0
   60.4100   34.3083   47.5754 H   0  0  0  0  0  0  0  0  0  0  0  0
   59.5260   36.0214   46.0121 H   0  0  0  0  0  0  0  0  0  0  0  0
   58.0675   35.3516   44.1158 H   0  0  0  0  0  0  0  0  0  0  0  0
   57.4583   32.9680   43.7885 H   0  0  0  0  0  0  0  0  0  0  0  0
   56.1632   30.3167   45.1289 H   0  0  0  0  0  0  0  0  0  0  0  0
   56.7790   31.4448   43.8740 H   0  0  0  0  0  0  0  0  0  0  0  0
   57.3054   29.7274   43.8740 H   0  0  0  0  0  0  0  0  0  0  0  0
   58.0905   28.3092   44.8285 H   0  0  0  0  0  0  0  0  0  0  0  0
   60.7253   27.0996   48.0147 H   0  0  0  0  0  0  0  0  0  0  0  0
   61.0596   29.4719   48.6590 H   0  0  0  0  0  0  0  0  0  0  0  0
  1  2  1  0
  2  3  1  0
  3  4  1  0
  4  5  1  0
  3  6  1  0
  6  7  1  0
  7  8  1  0
  8  9  1  0
  9 10  1  0
 10 11  1  0
 11 12  1  0
 12 13  2  0
 13 14  1  0
 14 15  2  0
 15 16  1  0
 16 17  2  0
 17 18  1  0
 18 19  2  0
 19 20  1  0
 19 21  1  0
 21 22  2  0
 22 23  1  0
 23 24  1  0
 23 25  2  0
 25 26  1  0
 26 27  2  0
 27 12  1  0
 18 13  1  0
 27 21  1  0
  1 28  1  0
  1 29  1  0
  1 30  1  0
  2 31  1  0
  2 32  1  0
  4 33  1  0
  4 34  1  0
  5 35  1  0
  5 36  1  0
  5 37  1  0
  6 38  1  0
  6 39  1  0
  7 40  1  0
  7 41  1  0
  9 42  1  0
  9 43  1  0
 10 44  1  0
 10 45  1  0
 11 46  1  0
 11 47  1  0
 14 48  1  0
 15 49  1  0
 16 50  1  0
 17 51  1  0
 20 52  1  0
 20 53  1  0
 20 54  1  0
 22 55  1  0
 25 56  1  0
 26 57  1  0
M  CHG  2  11   1  19   1
M  END
>  <UniqueID>  (4) 
4

>  <SMILES>  (4) 
CCN(CC)CCOCC[NH2+]c1c2ccccc2[n+](C)c2cc(Cl)ccc12

>  <Energy>  (4) 
81.56670723197738

>  <Genealogy>  (4) 
CCN(CC)CCOCC[NH2+]c1c2ccccc2[n+](C)c2cc(Cl)ccc12 (protonated)
CCN(CC)CCOCC[NH2+]c1c2ccccc2[n+](C)c2cc(Cl)ccc12 (3D coordinates assigned)
CCN(CC)CCOCC[NH2+]c1c2ccccc2[n+](C)c2cc(Cl)ccc12 (optimized conformer: 81.56670723197738 kcal/mol)

>  <smiles>  (4) 
CCN(CC)CCOCCNc1c2ccccc2[n+](C)c2cc(Cl)ccc12

>  <score_type>  (4) 
oracle

>  <origin>  (4) 
adg

>  <m_score__min__energy>  (4) 
-4.8099999999999996

>  <m_primary>  (4) 
energy

$$$$
4:0
     RDKit          3D

 71 73  0  0  0  0  0  0  0  0999 V2000
   64.5440   32.7270   49.9430 C   0  0  0  0  0  0  0  0  0  0  0  0
   63.3380   31.8000   49.8190 C   0  0  0  0  0  0  0  0  0  0  0  0
   62.3940   32.3200   48.8020 N   0  0  0  0  0  0  0  0  0  0  0  0
   62.8290   31.9470   47.4350 C   0  0  0  0  0  0  0  0  0  0  0  0
   63.5350   33.1230   46.7610 C   0  0  0  0  0  0  0  0  0  0  0  0
   62.2350   33.7860   48.9280 C   0  0  0  0  0  0  0  0  0  0  0  0
   60.8540   34.2160   48.4180 C   0  0  0  0  0  0  0  0  0  0  0  0
   60.1040   33.0830   47.9800 O   0  0  0  0  0  0  0  0  0  0  0  0
   59.1500   33.0630   46.9460 C   0  0  0  0  0  0  0  0  0  0  0  0
   58.5790   34.2570   46.4720 C   0  0  0  0  0  0  0  0  0  0  0  0
   57.7250   34.2450   45.3790 C   0  0  0  0  0  0  0  0  0  0  0  0
   57.4100   33.0490   44.7460 C   0  0  0  0  0  0  0  0  0  0  0  0
   57.9070   31.8140   45.2230 C   0  0  0  0  0  0  0  0  0  0  0  0
   58.7810   31.8240   46.3470 C   0  0  0  0  0  0  0  0  0  0  0  0
   59.2860   30.5920   46.8190 C   0  0  0  0  0  0  0  0  0  0  0  0
   59.8870   30.4880   48.1190 N   0  0  0  0  0  0  0  0  0  0  0  0
   59.3300   29.6190   49.1600 C   0  0  0  0  0  0  0  0  0  0  0  0
   59.6260   30.1660   50.5740 C   0  0  0  0  0  0  0  0  0  0  0  0
   59.8970   31.6320   50.5860 N   0  0  0  0  0  0  0  0  0  0  0  0
   58.6390   32.4160   50.4510 C   0  0  0  0  0  0  0  0  0  0  0  0
   57.4550   31.8600   51.2560 C   0  0  0  0  0  0  0  0  0  0  0  0
   60.7080   32.0090   51.7720 C   0  0  0  0  0  0  0  0  0  0  0  0
   60.5050   33.4680   52.1970 C   0  0  0  0  0  0  0  0  0  0  0  0
   59.1200   29.4310   46.0450 C   0  0  0  0  0  0  0  0  0  0  0  0
   59.7630   28.2270   46.4000 C   0  0  0  0  0  0  0  0  0  0  0  0
   59.6120   27.0840   45.6200 C   0  0  0  0  0  0  0  0  0  0  0  0
   58.8260   27.1240   44.4740 C   0  0  0  0  0  0  0  0  0  0  0  0
   58.1670   28.2990   44.1150 C   0  0  0  0  0  0  0  0  0  0  0  0
   58.2730   29.4690   44.9110 C   0  0  0  0  0  0  0  0  0  0  0  0
   57.5690   30.6180   44.6130 N   0  0  0  0  0  0  0  0  0  0  0  0
   56.4460   30.5660   43.6490 C   0  0  0  0  0  0  0  0  0  0  0  0
   64.7669   32.8984   51.0065 H   0  0  0  0  0  0  0  0  0  0  0  0
   65.4145   32.2633   49.4560 H   0  0  0  0  0  0  0  0  0  0  0  0
   64.3198   33.6875   49.4560 H   0  0  0  0  0  0  0  0  0  0  0  0
   63.6793   30.7982   49.5191 H   0  0  0  0  0  0  0  0  0  0  0  0
   62.8250   31.7473   50.7906 H   0  0  0  0  0  0  0  0  0  0  0  0
   63.5216   31.0946   47.4950 H   0  0  0  0  0  0  0  0  0  0  0  0
   61.9443   31.6741   46.8411 H   0  0  0  0  0  0  0  0  0  0  0  0
   63.9398   33.7973   47.5301 H   0  0  0  0  0  0  0  0  0  0  0  0
   64.3567   32.7468   46.1339 H   0  0  0  0  0  0  0  0  0  0  0  0
   62.8166   33.6714   46.1339 H   0  0  0  0  0  0  0  0  0  0  0  0
   62.3372   34.0728   49.9850 H   0  0  0  0  0  0  0  0  0  0  0  0
   63.0101   34.2836   48.3266 H   0  0  0  0  0  0  0  0  0  0  0  0
   60.3088   34.7179   49.2309 H   0  0  0  0  0  0  0  0  0  0  0  0
   60.9879   34.9021   47.5686 H   0  0  0  0  0  0  0  0  0  0  0  0
   58.8114   35.2088   46.9721 H   0  0  0  0  0  0  0  0  0  0  0  0
   57.2946   35.1881   45.0112 H   0  0  0  0  0  0  0  0  0  0  0  0
   56.7620   33.0630   43.8573 H   0  0  0  0  0  0  0  0  0  0  0  0
   60.7740   31.0080   48.3110 H   0  0  0  0  0  0  0  0  0  0  0  0
   58.2405   29.5517   49.0239 H   0  0  0  0  0  0  0  0  0  0  0  0
   59.7987   28.6280   49.0688 H   0  0  0  0  0  0  0  0  0  0  0  0
   58.7564   29.9649   51.2169 H   0  0  0  0  0  0  0  0  0  0  0  0
   60.5321   29.6607   50.9395 H   0  0  0  0  0  0  0  0  0  0  0  0
   60.4680   31.8720   49.7430 H   0  0  0  0  0  0  0  0  0  0  0  0
   58.8353   33.4429   50.7928 H   0  0  0  0  0  0  0  0  0  0  0  0
   58.3495   32.3646   49.3910 H   0  0  0  0  0  0  0  0  0  0  0  0
   57.6644   31.9583   52.3314 H   0  0  0  0  0  0  0  0  0  0  0  0
   56.5446   32.4247   51.0066 H   0  0  0  0  0  0  0  0  0  0  0  0
   57.3081   30.7988   51.0066 H   0  0  0  0  0  0  0  0  0  0  0  0
   60.4256   31.3568   52.6115 H   0  0  0  0  0  0  0  0  0  0  0  0
   61.7667   31.8902   51.4980 H   0  0  0  0  0  0  0  0  0  0  0  0
   60.4961   33.5322   53.2951 H   0  0  0  0  0  0  0  0  0  0  0  0
   61.3262   34.0831   51.8004 H   0  0  0  0  0  0  0  0  0  0  0  0
   59.5471   33.8355   51.8004 H   0  0  0  0  0  0  0  0  0  0  0  0
   60.3904   28.1908   47.3028 H   0  0  0  0  0  0  0  0  0  0  0  0
   60.1144   26.1495   45.9103 H   0  0  0  0  0  0  0  0  0  0  0  0
   58.7236   26.2252   43.8481 H   0  0  0  0  0  0  0  0  0  0  0  0
   57.5556   28.3194   43.2008 H   0  0  0  0  0  0  0  0  0  0  0  0
   55.4936   30.5219   44.1976 H   0  0  0  0  0  0  0  0  0  0  0  0
   56.4636   31.4659   43.0167 H   0  0  0  0  0  0  0  0  0  0  0  0
   56.5467   29.6716   43.0167 H   0  0  0  0  0  0  0  0  0  0  0  0
  1  2  1  0
  2  3  1  0
  3  4  1  0
  4  5  1  0
  3  6  1  0
  6  7  1  0
  7  8  1  0
  8  9  1  0
  9 10  2  0
 10 11  1  0
 11 12  2  0
 12 13  1  0
 13 14  2  0
 14 15  1  0
 15 16  1  0
 16 17  1  0
 17 18  1  0
 18 19  1  0
 19 20  1  0
 20 21  1  0
 19 22  1  0
 22 23  1  0
 15 24  2  0
 24 25  1  0
 25 26  2  0
 26 27  1  0
 27 28  2  0
 28 29  1  0
 29 30  2  0
 30 31  1  0
 14  9  1  0
 29 24  1  0
 30 13  1  0
  1 32  1  0
  1 33  1  0
  1 34  1  0
  2 35  1  0
  2 36  1  0
  4 37  1  0
  4 38  1  0
  5 39  1  0
  5 40  1  0
  5 41  1  0
  6 42  1  0
  6 43  1  0
  7 44  1  0
  7 45  1  0
 10 46  1  0
 11 47  1  0
 12 48  1  0
 16 49  1  0
 17 50  1  0
 17 51  1  0
 18 52  1  0
 18 53  1  0
 19 54  1  0
 20 55  1  0
 20 56  1  0
 21 57  1  0
 21 58  1  0
 21 59  1  0
 22 60  1  0
 22 61  1  0
 23 62  1  0
 23 63  1  0
 23 64  1  0
 25 65  1  0
 26 66  1  0
 27 67  1  0
 28 68  1  0
 31 69  1  0
 31 70  1  0
 31 71  1  0
M  CHG  2  19   1  30   1
M  END
>  <UniqueID>  (5) 
5

>  <SMILES>  (5) 
CCN(CC)CCOc1cccc2c1c(NCC[NH+](CC)CC)c1ccccc1[n+]2C

>  <Energy>  (5) 
99.29588987190048

>  <Genealogy>  (5) 
CCN(CC)CCOc1cccc2c1c(NCC[NH+](CC)CC)c1ccccc1[n+]2C (protonated)
CCN(CC)CCOc1cccc2c1c(NCC[NH+](CC)CC)c1ccccc1[n+]2C (3D coordinates assigned)
CCN(CC)CCOc1cccc2c1c(NCC[NH+](CC)CC)c1ccccc1[n+]2C (optimized conformer: 99.29588987190048 kcal/mol)

>  <smiles>  (5) 
CCN(CC)CCNc1c2ccccc2[n+](C)c2cccc(OCCN(CC)CC)c12

>  <score_type>  (5) 
oracle

>  <origin>  (5) 
adg

>  <m_score__min__energy>  (5) 
-3.3700000000000001

>  <m_primary>  (5) 
energy

$$$$
5:0
     RDKit          3D

 54 55  0  0  0  0  0  0  0  0999 V2000
   56.6440   30.7960   42.9560 C   0  0  0  0  0  0  0  0  0  0  0  0
   55.5620   30.0690   43.7470 C   0  0  0  0  0  0  0  0  0  0  0  0
   56.1750   29.1830   44.7420 N   0  0  0  0  0  0  0  0  0  0  0  0
   57.6330   29.3470   44.7320 C   0  0  0  0  0  0  0  0  0  0  0  0
   58.3090   28.1890   43.9860 C   0  0  0  0  0  0  0  0  0  0  0  0
   59.7160   27.8540   44.5220 C   0  0  0  0  0  0  0  0  0  0  0  0
   60.3430   28.9990   45.3390 C   0  0  0  0  0  0  0  0  0  0  0  0
   60.1920   28.7880   46.8040 N   0  0  0  0  0  0  0  0  0  0  0  0
   59.6050   27.4500   47.0800 C   0  0  0  0  0  0  0  0  0  0  0  0
   58.0920   27.5660   47.2900 C   0  0  0  0  0  0  0  0  0  0  0  0
   57.3430   26.3860   46.6580 C   0  0  0  0  0  0  0  0  0  0  0  0
   56.1390   26.8610   45.9830 N   0  0  0  0  0  0  0  0  0  0  0  0
   59.3670   29.8710   47.3920 C   0  0  0  0  0  0  0  0  0  0  0  0
   59.9780   31.2460   47.1710 C   0  0  0  0  0  0  0  0  0  0  0  0
   61.2830   31.4750   47.6460 C   0  0  0  0  0  0  0  0  0  0  0  0
   61.9160   32.7000   47.4480 C   0  0  0  0  0  0  0  0  0  0  0  0
   61.2570   33.7300   46.7820 C   0  0  0  0  0  0  0  0  0  0  0  0
   59.9490   33.5480   46.3180 C   0  0  0  0  0  0  0  0  0  0  0  0
   59.2830   34.6050   45.6770 C   0  0  0  0  0  0  0  0  0  0  0  0
   57.9680   34.4480   45.2470 C   0  0  0  0  0  0  0  0  0  0  0  0
   57.3090   33.2360   45.4410 C   0  0  0  0  0  0  0  0  0  0  0  0
   57.9640   32.1640   46.0510 C   0  0  0  0  0  0  0  0  0  0  0  0
   59.2910   32.3000   46.5090 C   0  0  0  0  0  0  0  0  0  0  0  0
   57.3508   31.2709   43.6524 H   0  0  0  0  0  0  0  0  0  0  0  0
   57.1818   30.0753   42.3225 H   0  0  0  0  0  0  0  0  0  0  0  0
   56.1800   31.5663   42.3225 H   0  0  0  0  0  0  0  0  0  0  0  0
   54.9274   30.8073   44.2591 H   0  0  0  0  0  0  0  0  0  0  0  0
   54.9531   29.4677   43.0558 H   0  0  0  0  0  0  0  0  0  0  0  0
   55.9580   28.1990   44.4550 H   0  0  0  0  0  0  0  0  0  0  0  0
   57.8855   30.2937   44.2321 H   0  0  0  0  0  0  0  0  0  0  0  0
   57.9931   29.3534   45.7714 H   0  0  0  0  0  0  0  0  0  0  0  0
   57.6764   27.2945   44.0839 H   0  0  0  0  0  0  0  0  0  0  0  0
   58.4265   28.5021   42.9381 H   0  0  0  0  0  0  0  0  0  0  0  0
   59.6423   26.9650   45.1656 H   0  0  0  0  0  0  0  0  0  0  0  0
   60.3648   27.6810   43.6507 H   0  0  0  0  0  0  0  0  0  0  0  0
   61.4145   29.0615   45.0981 H   0  0  0  0  0  0  0  0  0  0  0  0
   59.8200   29.9300   45.0748 H   0  0  0  0  0  0  0  0  0  0  0  0
   59.8029   26.7840   46.2272 H   0  0  0  0  0  0  0  0  0  0  0  0
   60.0624   27.0400   47.9925 H   0  0  0  0  0  0  0  0  0  0  0  0
   57.8817   27.5855   48.3695 H   0  0  0  0  0  0  0  0  0  0  0  0
   57.7471   28.4918   46.8062 H   0  0  0  0  0  0  0  0  0  0  0  0
   57.9977   25.8886   45.9273 H   0  0  0  0  0  0  0  0  0  0  0  0
   57.0570   25.6759   47.4479 H   0  0  0  0  0  0  0  0  0  0  0  0
   56.3670   27.0060   44.9730 H   0  0  0  0  0  0  0  0  0  0  0  0
   55.9050   27.8020   46.3750 H   0  0  0  0  0  0  0  0  0  0  0  0
   58.3700   29.8481   46.9278 H   0  0  0  0  0  0  0  0  0  0  0  0
   59.3088   29.6988   48.4769 H   0  0  0  0  0  0  0  0  0  0  0  0
   61.8118   30.6734   48.1825 H   0  0  0  0  0  0  0  0  0  0  0  0
   62.9400   32.8541   47.8191 H   0  0  0  0  0  0  0  0  0  0  0  0
   61.7667   34.6912   46.6197 H   0  0  0  0  0  0  0  0  0  0  0  0
   59.8022   35.5609   45.5139 H   0  0  0  0  0  0  0  0  0  0  0  0
   57.4485   35.2825   44.7532 H   0  0  0  0  0  0  0  0  0  0  0  0
   56.2657   33.1226   45.1115 H   0  0  0  0  0  0  0  0  0  0  0  0
   57.4402   31.2048   46.1754 H   0  0  0  0  0  0  0  0  0  0  0  0
  1  2  1  0
  2  3  1  0
  3  4  1  0
  4  5  1  0
  5  6  1  0
  6  7  1  0
  7  8  1  0
  8  9  1  0
  9 10  1  0
 10 11  1  0
 11 12  1  0
  8 13  1  0
 13 14  1  0
 14 15  2  0
 15 16  1  0
 16 17  2  0
 17 18  1  0
 18 19  2  0
 19 20  1  0
 20 21  2  0
 21 22  1  0
 22 23  2  0
 23 14  1  0
 23 18  1  0
  1 24  1  0
  1 25  1  0
  1 26  1  0
  2 27  1  0
  2 28  1  0
  3 29  1  0
  4 30  1  0
  4 31  1  0
  5 32  1  0
  5 33  1  0
  6 34  1  0
  6 35  1  0
  7 36  1  0
  7 37  1  0
  9 38  1  0
  9 39  1  0
 10 40  1  0
 10 41  1  0
 11 42  1  0
 11 43  1  0
 12 44  1  0
 12 45  1  0
 13 46  1  0
 13 47  1  0
 15 48  1  0
 16 49  1  0
 17 50  1  0
 19 51  1  0
 20 52  1  0
 21 53  1  0
 22 54  1  0
M  END
>  <UniqueID>  (6) 
6

>  <SMILES>  (6) 
CCNCCCCN(CCCN)Cc1cccc2ccccc12

>  <Energy>  (6) 
47.86418143463224

>  <Genealogy>  (6) 
CCNCCCCN(CCCN)Cc1cccc2ccccc12 (3D coordinates assigned)
CCNCCCCN(CCCN)Cc1cccc2ccccc12 (optimized conformer: 47.86418143463224 kcal/mol)

>  <smiles>  (6) 
CCNCCCCN(CCCN)Cc1cccc2ccccc12

>  <score_type>  (6) 
oracle

>  <origin>  (6) 
adg

>  <m_score__min__energy>  (6) 
-7.5

>  <m_primary>  (6) 
energy

$$$$
6:0
     RDKit          3D

 53 55  0  0  0  0  0  0  0  0999 V2000
   63.3900   33.8280   46.6640 C   0  0  0  0  0  0  0  0  0  0  0  0
   62.9810   33.7480   48.1410 C   0  0  0  0  0  0  0  0  0  0  0  0
   63.2380   32.4300   48.7660 N   0  0  0  0  0  0  0  0  0  0  0  0
   64.5890   32.3430   49.3470 C   0  0  0  0  0  0  0  0  0  0  0  0
   62.1860   32.0410   49.7310 C   0  0  0  0  0  0  0  0  0  0  0  0
   60.8680   31.7130   49.0120 C   0  0  0  0  0  0  0  0  0  0  0  0
   61.1050   31.2190   47.6410 N   0  0  0  0  0  0  0  0  0  0  0  0
   59.8860   31.2930   46.8440 C   0  0  0  0  0  0  0  0  0  0  0  0
   59.4970   32.5280   46.2630 C   0  0  0  0  0  0  0  0  0  0  0  0
   59.9590   33.7590   46.7860 C   0  0  0  0  0  0  0  0  0  0  0  0
   59.6430   34.9650   46.1670 C   0  0  0  0  0  0  0  0  0  0  0  0
   58.8750   34.9720   45.0120 C   0  0  0  0  0  0  0  0  0  0  0  0
   58.3860   33.7780   44.4880 C   0  0  0  0  0  0  0  0  0  0  0  0
   58.6460   32.5330   45.1240 C   0  0  0  0  0  0  0  0  0  0  0  0
   58.1370   31.3480   44.6280 N   0  0  0  0  0  0  0  0  0  0  0  0
   57.1120   31.3760   43.5580 C   0  0  0  0  0  0  0  0  0  0  0  0
   58.5220   30.1420   45.1800 C   0  0  0  0  0  0  0  0  0  0  0  0
   58.2350   28.9110   44.5410 C   0  0  0  0  0  0  0  0  0  0  0  0
   58.4810   27.6910   45.1770 C   0  0  0  0  0  0  0  0  0  0  0  0
   58.1290   26.4000   44.4960 C   0  0  0  0  0  0  0  0  0  0  0  0
   58.9140   27.6890   46.5000 C   0  0  0  0  0  0  0  0  0  0  0  0
   59.2450   28.8860   47.1460 C   0  0  0  0  0  0  0  0  0  0  0  0
   59.3910   28.8250   48.6490 C   0  0  0  0  0  0  0  0  0  0  0  0
   59.2310   30.1090   46.4100 C   0  0  0  0  0  0  0  0  0  0  0  0
   64.4673   34.0387   46.5927 H   0  0  0  0  0  0  0  0  0  0  0  0
   63.1703   32.8699   46.1703 H   0  0  0  0  0  0  0  0  0  0  0  0
   62.8255   34.6328   46.1703 H   0  0  0  0  0  0  0  0  0  0  0  0
   63.5447   34.5109   48.6980 H   0  0  0  0  0  0  0  0  0  0  0  0
   61.8941   33.9125   48.1799 H   0  0  0  0  0  0  0  0  0  0  0  0
   64.5171   32.3476   50.4446 H   0  0  0  0  0  0  0  0  0  0  0  0
   65.0716   31.4119   49.0151 H   0  0  0  0  0  0  0  0  0  0  0  0
   65.1871   33.2045   49.0151 H   0  0  0  0  0  0  0  0  0  0  0  0
   62.5209   31.1542   50.2891 H   0  0  0  0  0  0  0  0  0  0  0  0
   62.0100   32.8849   50.4143 H   0  0  0  0  0  0  0  0  0  0  0  0
   60.3330   30.9396   49.5826 H   0  0  0  0  0  0  0  0  0  0  0  0
   60.2727   32.6357   48.9471 H   0  0  0  0  0  0  0  0  0  0  0  0
   61.8580   31.8250   47.2630 H   0  0  0  0  0  0  0  0  0  0  0  0
   61.4790   30.2440   47.6430 H   0  0  0  0  0  0  0  0  0  0  0  0
   60.5774   33.7629   47.6957 H   0  0  0  0  0  0  0  0  0  0  0  0
   60.0025   35.9129   46.5940 H   0  0  0  0  0  0  0  0  0  0  0  0
   58.6514   35.9239   44.5082 H   0  0  0  0  0  0  0  0  0  0  0  0
   57.7877   33.7983   43.5652 H   0  0  0  0  0  0  0  0  0  0  0  0
   56.1099   31.4034   44.0108 H   0  0  0  0  0  0  0  0  0  0  0  0
   57.2572   32.2705   42.9345 H   0  0  0  0  0  0  0  0  0  0  0  0
   57.2081   30.4749   42.9345 H   0  0  0  0  0  0  0  0  0  0  0  0
   57.8109   28.9152   43.5260 H   0  0  0  0  0  0  0  0  0  0  0  0
   57.9193   25.6309   45.2540 H   0  0  0  0  0  0  0  0  0  0  0  0
   57.2384   26.5479   43.8676 H   0  0  0  0  0  0  0  0  0  0  0  0
   58.9714   26.0754   43.8676 H   0  0  0  0  0  0  0  0  0  0  0  0
   58.9970   26.7364   47.0438 H   0  0  0  0  0  0  0  0  0  0  0  0
   58.4748   29.2078   49.1222 H   0  0  0  0  0  0  0  0  0  0  0  0
   59.5560   27.7827   48.9594 H   0  0  0  0  0  0  0  0  0  0  0  0
   60.2485   29.4401   48.9594 H   0  0  0  0  0  0  0  0  0  0  0  0
  1  2  1  0
  2  3  1  0
  3  4  1  0
  3  5  1  0
  5  6  1  0
  6  7  1  0
  7  8  1  0
  8  9  2  0
  9 10  1  0
 10 11  2  0
 11 12  1  0
 12 13  2  0
 13 14  1  0
 14 15  2  0
 15 16  1  0
 15 17  1  0
 17 18  2  0
 18 19  1  0
 19 20  1  0
 19 21  2  0
 21 22  1  0
 22 23  1  0
 22 24  2  0
 24  8  1  0
 14  9  1  0
 24 17  1  0
  1 25  1  0
  1 26  1  0
  1 27  1  0
  2 28  1  0
  2 29  1  0
  4 30  1  0
  4 31  1  0
  4 32  1  0
  5 33  1  0
  5 34  1  0
  6 35  1  0
  6 36  1  0
  7 37  1  0
  7 38  1  0
 10 39  1  0
 11 40  1  0
 12 41  1  0
 13 42  1  0
 16 43  1  0
 16 44  1  0
 16 45  1  0
 18 46  1  0
 20 47  1  0
 20 48  1  0
 20 49  1  0
 21 50  1  0
 23 51  1  0
 23 52  1  0
 23 53  1  0
M  CHG  2   7   1  15   1
M  END
>  <UniqueID>  (7) 
7

>  <SMILES>  (7) 
CCN(C)CC[NH2+]c1c2ccccc2[n+](C)c2cc(C)cc(C)c12

>  <Energy>  (7) 
97.10958346595496

>  <Genealogy>  (7) 
CCN(C)CC[NH2+]c1c2ccccc2[n+](C)c2cc(C)cc(C)c12 (protonated)
CCN(C)CC[NH2+]c1c2ccccc2[n+](C)c2cc(C)cc(C)c12 (3D coordinates assigned)
CCN(C)CC[NH2+]c1c2ccccc2[n+](C)c2cc(C)cc(C)c12 (optimized conformer: 97.10958346595496 kcal/mol)

>  <smiles>  (7) 
CCN(C)CCNc1c2ccccc2[n+](C)c2cc(C)cc(C)c12

>  <score_type>  (7) 
oracle

>  <origin>  (7) 
adg

>  <m_score__min__energy>  (7) 
-4.4199999999999999

>  <m_primary>  (7) 
energy

$$$$
7:0
     RDKit          3D

 48 50  0  0  0  0  0  0  0  0999 V2000
   63.3750   33.8370   46.4220 C   0  0  0  0  0  0  0  0  0  0  0  0
   62.8470   32.8530   47.4750 C   0  0  0  0  0  0  0  0  0  0  0  0
   61.4690   33.1410   47.9440 N   0  0  0  0  0  0  0  0  0  0  0  0
   61.3680   33.4170   49.3970 C   0  0  0  0  0  0  0  0  0  0  0  0
   59.9500   33.8170   49.8030 C   0  0  0  0  0  0  0  0  0  0  0  0
   60.8220   34.2060   47.1470 C   0  0  0  0  0  0  0  0  0  0  0  0
   59.7840   33.6120   46.2370 C   0  0  0  0  0  0  0  0  0  0  0  0
   59.5540   32.2710   46.2670 N   0  0  0  0  0  0  0  0  0  0  0  0
   58.6450   31.6640   45.4530 C   0  0  0  0  0  0  0  0  0  0  0  0
   58.4500   30.1950   45.5500 C   0  0  0  0  0  0  0  0  0  0  0  0
   57.1660   29.6510   45.3780 C   0  0  0  0  0  0  0  0  0  0  0  0
   56.9550   28.2740   45.4710 C   0  0  0  0  0  0  0  0  0  0  0  0
   58.0220   27.4000   45.7490 C   0  0  0  0  0  0  0  0  0  0  0  0
   57.8350   26.0010   45.8500 C   0  0  0  0  0  0  0  0  0  0  0  0
   56.1060   25.1860   45.6050 Br  0  0  0  0  0  0  0  0  0  0  0  0
   58.9260   25.1610   46.1360 C   0  0  0  0  0  0  0  0  0  0  0  0
   58.7050   23.7780   46.2290 O   0  0  0  0  0  0  0  0  0  0  0  0
   58.8740   22.8580   45.1540 C   0  0  0  0  0  0  0  0  0  0  0  0
   60.2020   25.7200   46.3230 C   0  0  0  0  0  0  0  0  0  0  0  0
   60.3940   27.0980   46.2250 C   0  0  0  0  0  0  0  0  0  0  0  0
   59.3160   27.9450   45.9380 C   0  0  0  0  0  0  0  0  0  0  0  0
   59.5200   29.3310   45.8410 C   0  0  0  0  0  0  0  0  0  0  0  0
   57.9030   32.4510   44.5530 C   0  0  0  0  0  0  0  0  0  0  0  0
   58.1230   33.8280   44.4990 C   0  0  0  0  0  0  0  0  0  0  0  0
   59.0690   34.4170   45.3380 C   0  0  0  0  0  0  0  0  0  0  0  0
   59.2850   35.7560   45.2780 F   0  0  0  0  0  0  0  0  0  0  0  0
   63.8375   34.6990   46.9250 H   0  0  0  0  0  0  0  0  0  0  0  0
   64.1243   33.3339   45.7932 H   0  0  0  0  0  0  0  0  0  0  0  0
   62.5415   34.1833   45.7932 H   0  0  0  0  0  0  0  0  0  0  0  0
   62.8584   31.8431   47.0390 H   0  0  0  0  0  0  0  0  0  0  0  0
   63.5042   32.9478   48.3520 H   0  0  0  0  0  0  0  0  0  0  0  0
   61.6549   32.5116   49.9519 H   0  0  0  0  0  0  0  0  0  0  0  0
   62.0398   34.2556   49.6326 H   0  0  0  0  0  0  0  0  0  0  0  0
   59.8750   33.8382   50.9002 H   0  0  0  0  0  0  0  0  0  0  0  0
   59.7210   34.8148   49.4005 H   0  0  0  0  0  0  0  0  0  0  0  0
   59.2334   33.0860   49.4005 H   0  0  0  0  0  0  0  0  0  0  0  0
   60.3417   34.9269   47.8250 H   0  0  0  0  0  0  0  0  0  0  0  0
   61.5849   34.7145   46.5392 H   0  0  0  0  0  0  0  0  0  0  0  0
   56.3169   30.3179   45.1676 H   0  0  0  0  0  0  0  0  0  0  0  0
   55.9432   27.8678   45.3253 H   0  0  0  0  0  0  0  0  0  0  0  0
   59.0588   21.8518   45.5582 H   0  0  0  0  0  0  0  0  0  0  0  0
   57.9634   22.8438   44.5370 H   0  0  0  0  0  0  0  0  0  0  0  0
   59.7302   23.1683   44.5370 H   0  0  0  0  0  0  0  0  0  0  0  0
   61.0565   25.0651   46.5486 H   0  0  0  0  0  0  0  0  0  0  0  0
   61.3980   27.5221   46.3740 H   0  0  0  0  0  0  0  0  0  0  0  0
   60.5276   29.7449   45.9943 H   0  0  0  0  0  0  0  0  0  0  0  0
   57.1544   31.9839   43.8962 H   0  0  0  0  0  0  0  0  0  0  0  0
   57.5502   34.4491   43.7946 H   0  0  0  0  0  0  0  0  0  0  0  0
  1  2  1  0
  2  3  1  0
  3  4  1  0
  4  5  1  0
  3  6  1  0
  6  7  1  0
  7  8  2  0
  8  9  1  0
  9 10  1  0
 10 11  2  0
 11 12  1  0
 12 13  2  0
 13 14  1  0
 14 15  1  0
 14 16  2  0
 16 17  1  0
 17 18  1  0
 16 19  1  0
 19 20  2  0
 20 21  1  0
 21 22  2  0
  9 23  2  0
 23 24  1  0
 24 25  2  0
 25 26  1  0
 25  7  1  0
 22 10  1  0
 21 13  1  0
  1 27  1  0
  1 28  1  0
  1 29  1  0
  2 30  1  0
  2 31  1  0
  4 32  1  0
  4 33  1  0
  5 34  1  0
  5 35  1  0
  5 36  1  0
  6 37  1  0
  6 38  1  0
 11 39  1  0
 12 40  1  0
 18 41  1  0
 18 42  1  0
 18 43  1  0
 19 44  1  0
 20 45  1  0
 22 46  1  0
 23 47  1  0
 24 48  1  0
M  END
>  <UniqueID>  (8) 
8

>  <SMILES>  (8) 
CCN(CC)Cc1nc(-c2ccc3c(Br)c(OC)ccc3c2)ccc1F

>  <Energy>  (8) 
60.36263126539486

>  <Genealogy>  (8) 
CCN(CC)Cc1nc(-c2ccc3c(Br)c(OC)ccc3c2)ccc1F (3D coordinates assigned)
CCN(CC)Cc1nc(-c2ccc3c(Br)c(OC)ccc3c2)ccc1F (optimized conformer: 60.36263126539486 kcal/mol)

>  <smiles>  (8) 
CCN(CC)Cc1nc(-c2ccc3c(Br)c(OC)ccc3c2)ccc1F

>  <score_type>  (8) 
oracle

>  <origin>  (8) 
adg

>  <m_score__min__energy>  (8) 
-7.6299999999999999

>  <m_primary>  (8) 
energy

$$$$
8:0
     RDKit          3D

 48 51  0  0  0  0  0  0  0  0999 V2000
   59.0990   30.1000   48.7510 C   0  0  0  0  0  0  0  0  0  0  0  0
   58.7280   30.1380   47.3410 N   0  0  0  0  0  0  0  0  0  0  0  0
   58.2180   31.2050   46.7340 N   0  0  0  0  0  0  0  0  0  0  0  0
   57.9870   30.8760   45.4390 C   0  0  0  0  0  0  0  0  0  0  0  0
   57.3930   31.8060   44.4250 C   0  0  0  0  0  0  0  0  0  0  0  0
   57.7830   33.1990   44.7160 N   0  0  0  0  0  0  0  0  0  0  0  0
   57.0120   33.7720   45.8530 C   0  0  0  0  0  0  0  0  0  0  0  0
   57.8350   33.8320   47.1450 C   0  0  0  0  0  0  0  0  0  0  0  0
   59.0400   34.6720   46.9620 N   0  0  0  0  0  0  0  0  0  0  0  0
   60.0120   34.5620   48.0740 C   0  0  0  0  0  0  0  0  0  0  0  0
   61.1100   33.5470   47.8270 C   0  0  0  0  0  0  0  0  0  0  0  0
   62.4510   33.8660   48.0950 C   0  0  0  0  0  0  0  0  0  0  0  0
   63.4470   32.9200   47.8480 C   0  0  0  0  0  0  0  0  0  0  0  0
   63.1020   31.6640   47.3500 C   0  0  0  0  0  0  0  0  0  0  0  0
   61.7590   31.3680   47.1140 C   0  0  0  0  0  0  0  0  0  0  0  0
   60.7980   32.3010   47.3610 N   0  0  0  0  0  0  0  0  0  0  0  0
   59.6420   34.5950   45.6100 C   0  0  0  0  0  0  0  0  0  0  0  0
   59.2520   33.3020   44.8830 C   0  0  0  0  0  0  0  0  0  0  0  0
   58.3600   29.5620   45.2390 C   0  0  0  0  0  0  0  0  0  0  0  0
   58.3250   28.7310   44.1210 C   0  0  0  0  0  0  0  0  0  0  0  0
   58.7870   27.4110   44.2780 C   0  0  0  0  0  0  0  0  0  0  0  0
   59.2650   26.9620   45.5320 C   0  0  0  0  0  0  0  0  0  0  0  0
   59.2830   27.8280   46.6420 C   0  0  0  0  0  0  0  0  0  0  0  0
   58.8200   29.1310   46.4510 C   0  0  0  0  0  0  0  0  0  0  0  0
   58.1949   30.1926   49.3707 H   0  0  0  0  0  0  0  0  0  0  0  0
   59.5995   29.1459   48.9729 H   0  0  0  0  0  0  0  0  0  0  0  0
   59.7825   30.9328   48.9729 H   0  0  0  0  0  0  0  0  0  0  0  0
   57.7548   31.5297   43.4236 H   0  0  0  0  0  0  0  0  0  0  0  0
   56.2967   31.7259   44.4655 H   0  0  0  0  0  0  0  0  0  0  0  0
   56.6961   34.7917   45.5875 H   0  0  0  0  0  0  0  0  0  0  0  0
   56.1472   33.1173   46.0360 H   0  0  0  0  0  0  0  0  0  0  0  0
   57.2159   34.2595   47.9475 H   0  0  0  0  0  0  0  0  0  0  0  0
   58.1526   32.8123   47.4084 H   0  0  0  0  0  0  0  0  0  0  0  0
   60.4777   35.5468   48.2265 H   0  0  0  0  0  0  0  0  0  0  0  0
   59.4520   34.2204   48.9570 H   0  0  0  0  0  0  0  0  0  0  0  0
   62.7148   34.8553   48.4971 H   0  0  0  0  0  0  0  0  0  0  0  0
   64.5011   33.1645   48.0456 H   0  0  0  0  0  0  0  0  0  0  0  0
   63.8805   30.9143   47.1453 H   0  0  0  0  0  0  0  0  0  0  0  0
   61.4755   30.3780   46.7272 H   0  0  0  0  0  0  0  0  0  0  0  0
   59.8010   32.0430   47.1830 H   0  0  0  0  0  0  0  0  0  0  0  0
   59.2959   35.4545   45.0172 H   0  0  0  0  0  0  0  0  0  0  0  0
   60.7361   34.6058   45.7229 H   0  0  0  0  0  0  0  0  0  0  0  0
   59.7268   33.2918   43.8908 H   0  0  0  0  0  0  0  0  0  0  0  0
   59.5930   32.4482   45.4870 H   0  0  0  0  0  0  0  0  0  0  0  0
   57.9504   29.0931   43.1522 H   0  0  0  0  0  0  0  0  0  0  0  0
   58.7765   26.7232   43.4196 H   0  0  0  0  0  0  0  0  0  0  0  0
   59.6253   25.9283   45.6404 H   0  0  0  0  0  0  0  0  0  0  0  0
   59.6483   27.4904   47.6231 H   0  0  0  0  0  0  0  0  0  0  0  0
  1  2  1  0
  2  3  1  0
  3  4  2  0
  4  5  1  0
  5  6  1  0
  6  7  1  0
  7  8  1  0
  8  9  1  0
  9 10  1  0
 10 11  1  0
 11 12  2  0
 12 13  1  0
 13 14  2  0
 14 15  1  0
 15 16  2  0
  9 17  1  0
 17 18  1  0
  4 19  1  0
 19 20  2  0
 20 21  1  0
 21 22  2  0
 22 23  1  0
 23 24  2  0
 24  2  1  0
 18  6  1  0
 24 19  1  0
 16 11  1  0
  1 25  1  0
  1 26  1  0
  1 27  1  0
  5 28  1  0
  5 29  1  0
  7 30  1  0
  7 31  1  0
  8 32  1  0
  8 33  1  0
 10 34  1  0
 10 35  1  0
 12 36  1  0
 13 37  1  0
 14 38  1  0
 15 39  1  0
 16 40  1  0
 17 41  1  0
 17 42  1  0
 18 43  1  0
 18 44  1  0
 20 45  1  0
 21 46  1  0
 22 47  1  0
 23 48  1  0
M  CHG  1  16   1
M  END
>  <UniqueID>  (9) 
9

>  <SMILES>  (9) 
Cn1nc(CN2CCN(Cc3cccc[nH+]3)CC2)c2ccccc21

>  <Energy>  (9) 
103.2392847402262

>  <Genealogy>  (9) 
Cn1nc(CN2CCN(Cc3cccc[nH+]3)CC2)c2ccccc21 (protonated)
Cn1nc(CN2CCN(Cc3cccc[nH+]3)CC2)c2ccccc21 (3D coordinates assigned)
Cn1nc(CN2CCN(Cc3cccc[nH+]3)CC2)c2ccccc21 (nonaromatic ring conformer: 103.2392847402262 kcal/mol)

>  <smiles>  (9) 
Cn1nc(CN2CCN(Cc3ccccn3)CC2)c2ccccc21

>  <score_type>  (9) 
oracle

>  <origin>  (9) 
adg

>  <m_score__min__energy>  (9) 
-6.7400000000000002

>  <m_primary>  (9) 
energy

$$$$
9:0
     RDKit          3D

 41 42  0  0  0  0  0  0  0  0999 V2000
   63.9240   33.1580   47.9020 C   0  0  0  0  0  0  0  0  0  0  0  0
   63.2410   33.8280   46.7070 C   0  0  0  0  0  0  0  0  0  0  0  0
   61.7730   33.8260   46.8320 N   0  0  0  0  0  0  0  0  0  0  0  0
   61.3120   34.2080   48.1770 C   0  0  0  0  0  0  0  0  0  0  0  0
   59.7780   34.2130   48.2330 C   0  0  0  0  0  0  0  0  0  0  0  0
   59.1930   33.2120   47.3100 N   0  0  0  0  0  0  0  0  0  0  0  0
   58.9050   31.9190   47.7180 C   0  0  0  0  0  0  0  0  0  0  0  0
   59.1800   31.4140   49.1380 C   0  0  0  0  0  0  0  0  0  0  0  0
   58.1410   31.9680   50.1200 C   0  0  0  0  0  0  0  0  0  0  0  0
   59.2150   29.8810   49.1800 C   0  0  0  0  0  0  0  0  0  0  0  0
   58.3480   31.0400   46.8310 N   0  0  0  0  0  0  0  0  0  0  0  0
   58.0960   31.3800   45.5420 C   0  0  0  0  0  0  0  0  0  0  0  0
   57.5330   30.4470   44.6550 C   0  0  0  0  0  0  0  0  0  0  0  0
   57.2850   30.7990   43.3270 C   0  0  0  0  0  0  0  0  0  0  0  0
   57.5960   32.0820   42.8740 C   0  0  0  0  0  0  0  0  0  0  0  0
   58.1540   33.0180   43.7470 C   0  0  0  0  0  0  0  0  0  0  0  0
   58.4060   32.6720   45.0900 C   0  0  0  0  0  0  0  0  0  0  0  0
   58.9620   33.5800   46.0030 C   0  0  0  0  0  0  0  0  0  0  0  0
   59.2550   34.7450   45.6060 O   0  0  0  0  0  0  0  0  0  0  0  0
   63.5097   33.5645   48.8364 H   0  0  0  0  0  0  0  0  0  0  0  0
   63.7476   32.0729   47.8641 H   0  0  0  0  0  0  0  0  0  0  0  0
   65.0055   33.3552   47.8641 H   0  0  0  0  0  0  0  0  0  0  0  0
   63.5892   34.8691   46.6379 H   0  0  0  0  0  0  0  0  0  0  0  0
   63.5038   33.2572   45.8042 H   0  0  0  0  0  0  0  0  0  0  0  0
   61.3600   34.4760   46.1210 H   0  0  0  0  0  0  0  0  0  0  0  0
   61.6996   33.4870   48.9118 H   0  0  0  0  0  0  0  0  0  0  0  0
   61.6818   35.2178   48.4086 H   0  0  0  0  0  0  0  0  0  0  0  0
   59.4579   33.9813   49.2596 H   0  0  0  0  0  0  0  0  0  0  0  0
   59.4267   35.2092   47.9261 H   0  0  0  0  0  0  0  0  0  0  0  0
   60.1706   31.7802   49.4455 H   0  0  0  0  0  0  0  0  0  0  0  0
   58.4786   31.7880   51.1513 H   0  0  0  0  0  0  0  0  0  0  0  0
   58.0220   33.0493   49.9566 H   0  0  0  0  0  0  0  0  0  0  0  0
   57.1769   31.4642   49.9566 H   0  0  0  0  0  0  0  0  0  0  0  0
   59.2227   29.5430   50.2267 H   0  0  0  0  0  0  0  0  0  0  0  0
   58.3258   29.4799   48.6717 H   0  0  0  0  0  0  0  0  0  0  0  0
   60.1216   29.5209   48.6717 H   0  0  0  0  0  0  0  0  0  0  0  0
   58.1080   30.0710   47.1430 H   0  0  0  0  0  0  0  0  0  0  0  0
   57.2866   29.4349   45.0085 H   0  0  0  0  0  0  0  0  0  0  0  0
   56.8441   30.0645   42.6370 H   0  0  0  0  0  0  0  0  0  0  0  0
   57.4011   32.3564   41.8268 H   0  0  0  0  0  0  0  0  0  0  0  0
   58.3976   34.0280   43.3858 H   0  0  0  0  0  0  0  0  0  0  0  0
  1  2  1  0
  2  3  1  0
  3  4  1  0
  4  5  1  0
  5  6  1  0
  6  7  1  0
  7  8  1  0
  8  9  1  0
  8 10  1  0
  7 11  2  0
 11 12  1  0
 12 13  2  0
 13 14  1  0
 14 15  2  0
 15 16  1  0
 16 17  2  0
 17 18  1  0
 18 19  2  0
 18  6  1  0
 17 12  1  0
  1 20  1  0
  1 21  1  0
  1 22  1  0
  2 23  1  0
  2 24  1  0
  3 25  1  0
  4 26  1  0
  4 27  1  0
  5 28  1  0
  5 29  1  0
  8 30  1  0
  9 31  1  0
  9 32  1  0
  9 33  1  0
 10 34  1  0
 10 35  1  0
 10 36  1  0
 11 37  1  0
 13 38  1  0
 14 39  1  0
 15 40  1  0
 16 41  1  0
M  CHG  1  11   1
M  END
>  <UniqueID>  (10) 
10

>  <SMILES>  (10) 
CCNCCn1c(C(C)C)[nH+]c2ccccc2c1=O

>  <Energy>  (10) 
45.40977695945916

>  <Genealogy>  (10) 
CCNCCn1c(C(C)C)[nH+]c2ccccc2c1=O (protonated)
CCNCCn1c(C(C)C)[nH+]c2ccccc2c1=O (3D coordinates assigned)
CCNCCn1c(C(C)C)[nH+]c2ccccc2c1=O (optimized conformer: 45.40977695945916 kcal/mol)

>  <smiles>  (10) 
CCNCCn1c(C(C)C)nc2ccccc2c1=O

>  <score_type>  (10) 
oracle

>  <origin>  (10) 
adg

>  <m_score__min__energy>  (10) 
-4.9400000000000004

>  <m_primary>  (10) 
energy

$$$$
10:0
     RDKit          3D

 70 75  0  0  0  0  0  0  0  0999 V2000
   58.4970   33.5420   47.5060 C   0  0  0  0  0  0  0  0  0  0  0  0
   58.1590   32.6300   46.3710 C   0  0  0  0  0  0  0  0  0  0  0  0
   57.7710   31.3490   46.5320 N   0  0  0  0  0  0  0  0  0  0  0  0
   57.6040   30.8950   45.2710 C   0  0  0  0  0  0  0  0  0  0  0  0
   57.1140   29.2050   44.9100 S   0  0  0  0  0  0  0  0  0  0  0  0
   58.7190   28.7310   44.1770 C   0  0  0  0  0  0  0  0  0  0  0  0
   59.7710   28.5020   45.2640 C   0  0  0  0  0  0  0  0  0  0  0  0
   60.3500   29.8340   45.7620 C   0  0  0  0  0  0  0  0  0  0  0  0
   60.7580   29.7260   47.1840 N   0  0  0  0  0  0  0  0  0  0  0  0
   60.3000   28.4180   47.7790 C   0  0  0  0  0  0  0  0  0  0  0  0
   59.6360   28.5890   49.1610 C   0  0  1  0  0  0  0  0  0  0  0  0
   60.5230   29.5150   49.9790 C   0  0  0  0  0  0  0  0  0  0  0  0
   59.7460   30.6600   49.3230 C   0  0  2  0  0  0  0  0  0  0  0  0
   58.5920   29.6980   49.0430 C   0  0  0  0  0  0  0  0  0  0  0  0
   60.4260   30.9810   47.9580 C   0  0  1  0  0  0  0  0  0  0  0  0
   61.6600   31.8620   48.1630 C   0  0  0  0  0  0  0  0  0  0  0  0
   62.5990   32.0200   47.1240 C   0  0  0  0  0  0  0  0  0  0  0  0
   63.6540   32.9250   47.2450 C   0  0  0  0  0  0  0  0  0  0  0  0
   63.7800   33.7050   48.3910 C   0  0  0  0  0  0  0  0  0  0  0  0
   62.8640   33.5700   49.4330 C   0  0  0  0  0  0  0  0  0  0  0  0
   61.8110   32.6380   49.3480 C   0  0  0  0  0  0  0  0  0  0  0  0
   60.8990   32.4600   50.4620 N   0  0  0  0  0  0  0  0  0  0  0  0
   61.3880   32.5700   51.8490 C   0  0  0  0  0  0  0  0  0  0  0  0
   61.5010   31.1980   52.5290 C   0  0  0  0  0  0  0  0  0  0  0  0
   60.2240   30.7450   53.2510 C   0  0  0  0  0  0  0  0  0  0  0  0
   59.0080   30.5700   52.3260 C   0  0  0  0  0  0  0  0  0  0  0  0
   58.6490   31.7750   51.4230 C   0  0  0  0  0  0  0  0  0  0  0  0
   59.5470   31.9400   50.1650 C   0  0  2  0  0  0  0  0  0  0  0  0
   57.8540   31.8360   44.3330 N   0  0  0  0  0  0  0  0  0  0  0  0
   57.8300   31.6710   42.8800 C   0  0  0  0  0  0  0  0  0  0  0  0
   58.2410   32.9270   45.0230 C   0  0  0  0  0  0  0  0  0  0  0  0
   58.6270   34.2420   44.4140 C   0  0  0  0  0  0  0  0  0  0  0  0
   58.3062   33.0273   48.4593 H   0  0  0  0  0  0  0  0  0  0  0  0
   59.5589   33.8228   47.4470 H   0  0  0  0  0  0  0  0  0  0  0  0
   57.8746   34.4471   47.4470 H   0  0  0  0  0  0  0  0  0  0  0  0
   58.5909   27.8038   43.5991 H   0  0  0  0  0  0  0  0  0  0  0  0
   59.0612   29.5474   43.5240 H   0  0  0  0  0  0  0  0  0  0  0  0
   59.3052   27.9743   46.1093 H   0  0  0  0  0  0  0  0  0  0  0  0
   60.5892   27.9029   44.8378 H   0  0  0  0  0  0  0  0  0  0  0  0
   61.2274   30.0971   45.1530 H   0  0  0  0  0  0  0  0  0  0  0  0
   59.5778   30.6123   45.6724 H   0  0  0  0  0  0  0  0  0  0  0  0
   59.5731   27.9562   47.0947 H   0  0  0  0  0  0  0  0  0  0  0  0
   61.1905   27.7868   47.9156 H   0  0  0  0  0  0  0  0  0  0  0  0
   59.3650   27.5845   49.5182 H   0  0  0  0  0  0  0  0  0  0  0  0
   61.5931   29.4755   49.7275 H   0  0  0  0  0  0  0  0  0  0  0  0
   60.6305   29.4210   51.0697 H   0  0  0  0  0  0  0  0  0  0  0  0
   58.1320   29.8001   48.0490 H   0  0  0  0  0  0  0  0  0  0  0  0
   57.6614   29.7014   49.6296 H   0  0  0  0  0  0  0  0  0  0  0  0
   59.7041   31.5446   47.3488 H   0  0  0  0  0  0  0  0  0  0  0  0
   62.4989   31.4223   46.2060 H   0  0  0  0  0  0  0  0  0  0  0  0
   64.3886   33.0224   46.4321 H   0  0  0  0  0  0  0  0  0  0  0  0
   64.6038   34.4291   48.4745 H   0  0  0  0  0  0  0  0  0  0  0  0
   62.9644   34.1976   50.3308 H   0  0  0  0  0  0  0  0  0  0  0  0
   62.3804   33.0444   51.8392 H   0  0  0  0  0  0  0  0  0  0  0  0
   60.6647   33.1728   52.4177 H   0  0  0  0  0  0  0  0  0  0  0  0
   61.7454   30.4509   51.7595 H   0  0  0  0  0  0  0  0  0  0  0  0
   62.2823   31.2902   53.2978 H   0  0  0  0  0  0  0  0  0  0  0  0
   60.4273   29.7810   53.7403 H   0  0  0  0  0  0  0  0  0  0  0  0
   59.9660   31.5390   53.9672 H   0  0  0  0  0  0  0  0  0  0  0  0
   59.2073   29.7090   51.6710 H   0  0  0  0  0  0  0  0  0  0  0  0
   58.1465   30.4425   52.9980 H   0  0  0  0  0  0  0  0  0  0  0  0
   57.6089   31.6522   51.0867 H   0  0  0  0  0  0  0  0  0  0  0  0
   58.8053   32.6761   52.0342 H   0  0  0  0  0  0  0  0  0  0  0  0
   58.9647   32.6694   49.5830 H   0  0  0  0  0  0  0  0  0  0  0  0
   57.6757   30.6100   42.6340 H   0  0  0  0  0  0  0  0  0  0  0  0
   57.0093   32.2687   42.4566 H   0  0  0  0  0  0  0  0  0  0  0  0
   58.7869   32.0102   42.4566 H   0  0  0  0  0  0  0  0  0  0  0  0
   58.8400   34.9676   45.2128 H   0  0  0  0  0  0  0  0  0  0  0  0
   59.5239   34.1085   43.7912 H   0  0  0  0  0  0  0  0  0  0  0  0
   57.8003   34.6144   43.7912 H   0  0  0  0  0  0  0  0  0  0  0  0
  1  2  1  0
  2  3  1  0
  3  4  2  0
  4  5  1  0
  5  6  1  0
  6  7  1  0
  7  8  1  0
  8  9  1  0
  9 10  1  0
 10 11  1  0
 11 12  1  0
 12 13  1  0
 13 14  1  6
 13 15  1  0
 15 16  1  0
 16 17  2  0
 17 18  1  0
 18 19  2  0
 19 20  1  0
 20 21  2  0
 21 22  1  0
 22 23  1  0
 23 24  1  0
 24 25  1  0
 25 26  1  0
 26 27  1  0
 27 28  1  0
  4 29  1  0
 29 30  1  0
 29 31  1  0
 31 32  1  0
 31  2  2  0
 15  9  1  0
 21 16  1  0
 28 22  1  0
 14 11  1  0
 28 13  1  0
  1 33  1  0
  1 34  1  0
  1 35  1  0
  6 36  1  0
  6 37  1  0
  7 38  1  0
  7 39  1  0
  8 40  1  0
  8 41  1  0
 10 42  1  0
 10 43  1  0
 11 44  1  1
 12 45  1  0
 12 46  1  0
 14 47  1  0
 14 48  1  0
 15 49  1  6
 17 50  1  0
 18 51  1  0
 19 52  1  0
 20 53  1  0
 23 54  1  0
 23 55  1  0
 24 56  1  0
 24 57  1  0
 25 58  1  0
 25 59  1  0
 26 60  1  0
 26 61  1  0
 27 62  1  0
 27 63  1  0
 28 64  1  6
 30 65  1  0
 30 66  1  0
 30 67  1  0
 32 68  1  0
 32 69  1  0
 32 70  1  0
M  END
>  <UniqueID>  (11) 
11

>  <SMILES>  (11) 
Cc1nc(SCCCN2CC3CC4(C3)[C@H]2c2ccccc2N2CCCCC[C@@H]24)n(C)c1C

>  <Energy>  (11) 
206.72019982293645

>  <Genealogy>  (11) 
Cc1nc(SCCCN2CC3CC4(C3)[C@H]2c2ccccc2N2CCCCC[C@@H]24)n(C)c1C (chirality)
Cc1nc(SCCCN2CC3CC4(C3)[C@H]2c2ccccc2N2CCCCC[C@@H]24)n(C)c1C (3D coordinates assigned)
Cc1nc(SCCCN2CC3CC4(C3)[C@H]2c2ccccc2N2CCCCC[C@@H]24)n(C)c1C (nonaromatic ring conformer: 206.72019982293645 kcal/mol)

>  <smiles>  (11) 
Cc1nc(SCCCN2CC3CC4(C3)C2c2ccccc2N2CCCCCC24)n(C)c1C

>  <score_type>  (11) 
oracle

>  <origin>  (11) 
adg

>  <m_score__min__energy>  (11) 
-7.5800000000000001

>  <m_primary>  (11) 
energy

$$$$
11:0
     RDKit          3D

 56 58  0  0  0  0  0  0  0  0999 V2000
   55.9420   29.7480   43.7300 C   0  0  0  0  0  0  0  0  0  0  0  0
   56.9780   29.1590   44.7030 C   0  0  0  0  0  0  0  0  0  0  0  0
   58.0530   30.1070   45.1110 N   0  0  0  0  0  0  0  0  0  0  0  0
   59.2120   29.4410   45.7620 C   0  0  0  0  0  0  0  0  0  0  0  0
   60.2690   28.9650   44.7590 C   0  0  0  0  0  0  0  0  0  0  0  0
   58.4910   30.9430   43.9610 C   0  0  0  0  0  0  0  0  0  0  0  0
   57.7230   32.2780   43.8680 C   0  0  0  0  0  0  0  0  0  0  0  0
   56.7210   32.3420   44.8650 O   0  0  0  0  0  0  0  0  0  0  0  0
   56.8430   33.5320   45.6190 C   0  0  0  0  0  0  0  0  0  0  0  0
   58.2590   33.6290   46.1780 C   0  0  0  0  0  0  0  0  0  0  0  0
   58.6660   32.3880   46.7530 O   0  0  0  0  0  0  0  0  0  0  0  0
   59.8420   32.1730   47.4890 C   0  0  0  0  0  0  0  0  0  0  0  0
   59.9020   31.2900   48.5860 C   0  0  0  0  0  0  0  0  0  0  0  0
   61.0940   31.1280   49.2970 C   0  0  0  0  0  0  0  0  0  0  0  0
   62.2360   31.8450   48.9320 C   0  0  0  0  0  0  0  0  0  0  0  0
   63.3570   31.7000   49.6320 O   0  0  0  0  0  0  0  0  0  0  0  0
   64.4810   32.3590   49.3540 C   0  0  0  0  0  0  0  0  0  0  0  0
   65.6700   32.1390   50.2140 C   0  0  0  0  0  0  0  0  0  0  0  0
   65.6890   31.0490   51.1060 C   0  0  0  0  0  0  0  0  0  0  0  0
   66.7830   30.8430   51.9500 C   0  0  0  0  0  0  0  0  0  0  0  0
   67.8650   31.7260   51.9210 C   0  0  0  0  0  0  0  0  0  0  0  0
   67.8560   32.8180   51.0470 C   0  0  0  0  0  0  0  0  0  0  0  0
   66.7660   33.0260   50.1980 C   0  0  0  0  0  0  0  0  0  0  0  0
   64.5160   33.2390   48.2580 C   0  0  0  0  0  0  0  0  0  0  0  0
   63.3620   33.4260   47.4950 C   0  0  0  0  0  0  0  0  0  0  0  0
   63.3860   34.2200   46.5140 O   0  0  0  0  0  0  0  0  0  0  0  0
   62.1910   32.7270   47.8320 C   0  0  0  0  0  0  0  0  0  0  0  0
   60.9900   32.8830   47.1180 C   0  0  0  0  0  0  0  0  0  0  0  0
   55.1249   30.2125   44.3014 H   0  0  0  0  0  0  0  0  0  0  0  0
   56.4241   30.5071   43.0964 H   0  0  0  0  0  0  0  0  0  0  0  0
   55.5363   28.9455   43.0964 H   0  0  0  0  0  0  0  0  0  0  0  0
   56.4491   28.8289   45.6093 H   0  0  0  0  0  0  0  0  0  0  0  0
   57.4742   28.3348   44.1697 H   0  0  0  0  0  0  0  0  0  0  0  0
   57.6170   30.7430   45.8210 H   0  0  0  0  0  0  0  0  0  0  0  0
   59.6822   30.1540   46.4552 H   0  0  0  0  0  0  0  0  0  0  0  0
   58.8300   28.5518   46.2849 H   0  0  0  0  0  0  0  0  0  0  0  0
   61.1406   28.5725   45.3034 H   0  0  0  0  0  0  0  0  0  0  0  0
   59.8437   28.1715   44.1269 H   0  0  0  0  0  0  0  0  0  0  0  0
   60.5813   29.8094   44.1269 H   0  0  0  0  0  0  0  0  0  0  0  0
   59.5634   31.1611   44.0728 H   0  0  0  0  0  0  0  0  0  0  0  0
   58.2846   30.3764   43.0410 H   0  0  0  0  0  0  0  0  0  0  0  0
   58.4271   33.1115   44.0079 H   0  0  0  0  0  0  0  0  0  0  0  0
   57.2466   32.3470   42.8789 H   0  0  0  0  0  0  0  0  0  0  0  0
   56.6425   34.3992   44.9727 H   0  0  0  0  0  0  0  0  0  0  0  0
   56.1189   33.5206   46.4470 H   0  0  0  0  0  0  0  0  0  0  0  0
   58.9502   33.8925   45.3639 H   0  0  0  0  0  0  0  0  0  0  0  0
   58.2753   34.4012   46.9612 H   0  0  0  0  0  0  0  0  0  0  0  0
   59.0060   30.7256   48.8839 H   0  0  0  0  0  0  0  0  0  0  0  0
   61.1333   30.4325   50.1483 H   0  0  0  0  0  0  0  0  0  0  0  0
   64.8362   30.3549   51.1382 H   0  0  0  0  0  0  0  0  0  0  0  0
   66.7924   29.9847   52.6380 H   0  0  0  0  0  0  0  0  0  0  0  0
   68.7254   31.5623   52.5865 H   0  0  0  0  0  0  0  0  0  0  0  0
   68.7079   33.5137   51.0280 H   0  0  0  0  0  0  0  0  0  0  0  0
   66.7628   33.8868   49.5131 H   0  0  0  0  0  0  0  0  0  0  0  0
   65.4428   33.7744   48.0044 H   0  0  0  0  0  0  0  0  0  0  0  0
   60.9520   33.5696   46.2595 H   0  0  0  0  0  0  0  0  0  0  0  0
  1  2  1  0
  2  3  1  0
  3  4  1  0
  4  5  1  0
  3  6  1  0
  6  7  1  0
  7  8  1  0
  8  9  1  0
  9 10  1  0
 10 11  1  0
 11 12  1  0
 12 13  2  0
 13 14  1  0
 14 15  2  0
 15 16  1  0
 16 17  1  0
 17 18  1  0
 18 19  2  0
 19 20  1  0
 20 21  2  0
 21 22  1  0
 22 23  2  0
 17 24  2  0
 24 25  1  0
 25 26  2  0
 25 27  1  0
 27 28  2  0
 28 12  1  0
 27 15  1  0
 23 18  1  0
  1 29  1  0
  1 30  1  0
  1 31  1  0
  2 32  1  0
  2 33  1  0
  3 34  1  0
  4 35  1  0
  4 36  1  0
  5 37  1  0
  5 38  1  0
  5 39  1  0
  6 40  1  0
  6 41  1  0
  7 42  1  0
  7 43  1  0
  9 44  1  0
  9 45  1  0
 10 46  1  0
 10 47  1  0
 13 48  1  0
 14 49  1  0
 19 50  1  0
 20 51  1  0
 21 52  1  0
 22 53  1  0
 23 54  1  0
 24 55  1  0
 28 56  1  0
M  CHG  1   3   1
M  END
>  <UniqueID>  (12) 
12

>  <SMILES>  (12) 
CC[NH+](CC)CCOCCOc1ccc2oc(-c3ccccc3)cc(=O)c2c1

>  <Energy>  (12) 
68.58290555241565

>  <Genealogy>  (12) 
CC[NH+](CC)CCOCCOc1ccc2oc(-c3ccccc3)cc(=O)c2c1 (protonated)
CC[NH+](CC)CCOCCOc1ccc2oc(-c3ccccc3)cc(=O)c2c1 (3D coordinates assigned)
CC[NH+](CC)CCOCCOc1ccc2oc(-c3ccccc3)cc(=O)c2c1 (optimized conformer: 68.58290555241565 kcal/mol)

>  <smiles>  (12) 
CCN(CC)CCOCCOc1ccc2oc(-c3ccccc3)cc(=O)c2c1

>  <score_type>  (12) 
oracle

>  <origin>  (12) 
adg

>  <m_score__min__energy>  (12) 
-5.2699999999999996

>  <m_primary>  (12) 
energy

$$$$
12:0
     RDKit          3D

 72 76  0  0  0  0  0  0  0  0999 V2000
   65.5120   33.0940   49.8750 C   0  0  0  0  0  0  0  0  0  0  0  0
   64.5000   31.9490   50.0030 C   0  0  0  0  0  0  0  0  0  0  0  0
   63.2210   32.2480   49.3150 N   0  0  0  0  0  0  0  0  0  0  0  0
   62.6150   33.5130   49.8140 C   0  0  0  0  0  0  0  0  0  0  0  0
   61.7780   34.2570   48.7490 C   0  0  0  0  0  0  0  0  0  0  0  0
   61.1260   33.3330   47.8020 N   0  0  0  0  0  0  0  0  0  0  0  0
   59.9890   32.6120   48.4210 C   0  0  0  0  0  0  0  0  0  0  0  0
   59.5290   31.4420   47.5440 C   0  0  0  0  0  0  0  0  0  0  0  0
   58.8020   31.6550   46.3360 C   0  0  0  0  0  0  0  0  0  0  0  0
   58.3600   32.9490   45.9460 C   0  0  0  0  0  0  0  0  0  0  0  0
   57.6720   33.1540   44.7550 C   0  0  0  0  0  0  0  0  0  0  0  0
   57.3980   32.0880   43.9180 C   0  0  0  0  0  0  0  0  0  0  0  0
   57.7930   30.8050   44.2760 C   0  0  0  0  0  0  0  0  0  0  0  0
   58.4820   30.5510   45.4920 C   0  0  0  0  0  0  0  0  0  0  0  0
   58.8260   29.2210   45.8760 C   0  0  0  0  0  0  0  0  0  0  0  0
   58.4750   28.0600   44.9400 C   0  0  0  0  0  0  0  0  0  0  0  0
   57.1070   27.5690   45.1760 N   0  0  0  0  0  0  0  0  0  0  0  0
   56.9700   26.7780   46.4110 C   0  0  0  0  0  0  0  0  0  0  0  0
   57.1240   25.2690   46.1470 C   0  0  0  0  0  0  0  0  0  0  0  0
   56.4650   24.8580   44.8880 N   0  0  0  0  0  0  0  0  0  0  0  0
   55.2040   24.1160   45.1320 C   0  0  0  0  0  0  0  0  0  0  0  0
   55.3850   22.6000   44.9400 C   0  0  0  0  0  0  0  0  0  0  0  0
   55.8310   22.2400   43.6380 O   0  0  0  0  0  0  0  0  0  0  0  0
   56.6220   23.2390   43.0080 C   0  0  0  0  0  0  0  0  0  0  0  0
   57.3940   24.1260   43.9970 C   0  0  0  0  0  0  0  0  0  0  0  0
   59.4660   29.0010   47.1310 C   0  0  0  0  0  0  0  0  0  0  0  0
   59.7240   27.6910   47.6190 C   0  0  0  0  0  0  0  0  0  0  0  0
   60.3730   27.4830   48.8320 C   0  0  0  0  0  0  0  0  0  0  0  0
   60.7730   28.5600   49.6010 C   0  0  0  0  0  0  0  0  0  0  0  0
   60.5070   29.8560   49.1740 C   0  0  0  0  0  0  0  0  0  0  0  0
   59.8380   30.1100   47.9470 C   0  0  0  0  0  0  0  0  0  0  0  0
   62.1000   32.4550   47.1060 C   0  0  0  0  0  0  0  0  0  0  0  0
   63.4380   32.2970   47.8560 C   0  0  0  0  0  0  0  0  0  0  0  0
   65.8113   33.4326   50.8779 H   0  0  0  0  0  0  0  0  0  0  0  0
   66.3983   32.7406   49.3277 H   0  0  0  0  0  0  0  0  0  0  0  0
   65.0523   33.9301   49.3277 H   0  0  0  0  0  0  0  0  0  0  0  0
   64.9356   31.0409   49.5606 H   0  0  0  0  0  0  0  0  0  0  0  0
   64.2822   31.8107   51.0723 H   0  0  0  0  0  0  0  0  0  0  0  0
   62.5670   31.4530   49.5090 H   0  0  0  0  0  0  0  0  0  0  0  0
   61.9615   33.2738   50.6659 H   0  0  0  0  0  0  0  0  0  0  0  0
   63.4433   34.1788   50.0980 H   0  0  0  0  0  0  0  0  0  0  0  0
   61.0018   34.8471   49.2582 H   0  0  0  0  0  0  0  0  0  0  0  0
   62.4605   34.9005   48.1745 H   0  0  0  0  0  0  0  0  0  0  0  0
   60.3018   32.2238   49.4015 H   0  0  0  0  0  0  0  0  0  0  0  0
   59.1500   33.3149   48.5309 H   0  0  0  0  0  0  0  0  0  0  0  0
   58.5671   33.8077   46.6015 H   0  0  0  0  0  0  0  0  0  0  0  0
   57.3448   34.1670   44.4780 H   0  0  0  0  0  0  0  0  0  0  0  0
   56.8675   32.2557   42.9691 H   0  0  0  0  0  0  0  0  0  0  0  0
   57.5668   29.9658   43.6017 H   0  0  0  0  0  0  0  0  0  0  0  0
   58.5562   28.4040   43.8983 H   0  0  0  0  0  0  0  0  0  0  0  0
   59.1757   27.2351   45.1367 H   0  0  0  0  0  0  0  0  0  0  0  0
   56.8610   26.9450   44.3730 H   0  0  0  0  0  0  0  0  0  0  0  0
   57.7452   27.0951   47.1241 H   0  0  0  0  0  0  0  0  0  0  0  0
   55.9625   26.9518   46.8168 H   0  0  0  0  0  0  0  0  0  0  0  0
   58.1951   25.0269   46.0830 H   0  0  0  0  0  0  0  0  0  0  0  0
   56.6433   24.7278   46.9752 H   0  0  0  0  0  0  0  0  0  0  0  0
   54.8727   24.3070   46.1634 H   0  0  0  0  0  0  0  0  0  0  0  0
   54.4563   24.4653   44.4047 H   0  0  0  0  0  0  0  0  0  0  0  0
   56.1242   22.2426   45.6720 H   0  0  0  0  0  0  0  0  0  0  0  0
   54.3975   22.1367   45.0822 H   0  0  0  0  0  0  0  0  0  0  0  0
   57.3474   22.7425   42.3466 H   0  0  0  0  0  0  0  0  0  0  0  0
   55.9333   23.8952   42.4556 H   0  0  0  0  0  0  0  0  0  0  0  0
   58.0550   23.4934   44.6077 H   0  0  0  0  0  0  0  0  0  0  0  0
   57.9829   24.8587   43.4256 H   0  0  0  0  0  0  0  0  0  0  0  0
   59.4035   26.8227   47.0246 H   0  0  0  0  0  0  0  0  0  0  0  0
   60.5685   26.4581   49.1803 H   0  0  0  0  0  0  0  0  0  0  0  0
   61.3017   28.3915   50.5508 H   0  0  0  0  0  0  0  0  0  0  0  0
   60.8217   30.7037   49.8004 H   0  0  0  0  0  0  0  0  0  0  0  0
   61.6479   31.4591   46.9888 H   0  0  0  0  0  0  0  0  0  0  0  0
   62.3270   32.9291   46.1397 H   0  0  0  0  0  0  0  0  0  0  0  0
   63.9243   31.3648   47.5327 H   0  0  0  0  0  0  0  0  0  0  0  0
   64.0754   33.1631   47.6242 H   0  0  0  0  0  0  0  0  0  0  0  0
  1  2  1  0
  2  3  1  0
  3  4  1  0
  4  5  1  0
  5  6  1  0
  6  7  1  0
  7  8  1  0
  8  9  1  0
  9 10  2  0
 10 11  1  0
 11 12  2  0
 12 13  1  0
 13 14  2  0
 14 15  1  0
 15 16  1  0
 16 17  1  0
 17 18  1  0
 18 19  1  0
 19 20  1  0
 20 21  1  0
 21 22  1  0
 22 23  1  0
 23 24  1  0
 24 25  1  0
 15 26  2  0
 26 27  1  0
 27 28  2  0
 28 29  1  0
 29 30  2  0
 30 31  1  0
  6 32  1  0
 32 33  1  0
 33  3  1  0
 31  8  2  0
 14  9  1  0
 25 20  1  0
 31 26  1  0
  1 34  1  0
  1 35  1  0
  1 36  1  0
  2 37  1  0
  2 38  1  0
  3 39  1  0
  4 40  1  0
  4 41  1  0
  5 42  1  0
  5 43  1  0
  7 44  1  0
  7 45  1  0
 10 46  1  0
 11 47  1  0
 12 48  1  0
 13 49  1  0
 16 50  1  0
 16 51  1  0
 17 52  1  0
 18 53  1  0
 18 54  1  0
 19 55  1  0
 19 56  1  0
 21 57  1  0
 21 58  1  0
 22 59  1  0
 22 60  1  0
 24 61  1  0
 24 62  1  0
 25 63  1  0
 25 64  1  0
 27 65  1  0
 28 66  1  0
 29 67  1  0
 30 68  1  0
 32 69  1  0
 32 70  1  0
 33 71  1  0
 33 72  1  0
M  CHG  1   3   1
M  END
>  <UniqueID>  (13) 
13

>  <SMILES>  (13) 
CC[NH+]1CCN(Cc2c3ccccc3c(CNCCN3CCOCC3)c3ccccc23)CC1

>  <Energy>  (13) 
122.60609074125432

>  <Genealogy>  (13) 
CC[NH+]1CCN(Cc2c3ccccc3c(CNCCN3CCOCC3)c3ccccc23)CC1 (protonated)
CC[NH+]1CCN(Cc2c3ccccc3c(CNCCN3CCOCC3)c3ccccc23)CC1 (3D coordinates assigned)
CC[NH+]1CCN(Cc2c3ccccc3c(CNCCN3CCOCC3)c3ccccc23)CC1 (nonaromatic ring conformer: 122.60609074125432 kcal/mol)

>  <smiles>  (13) 
CCN1CCN(Cc2c3ccccc3c(CNCCN3CCOCC3)c3ccccc23)CC1

>  <score_type>  (13) 
oracle

>  <origin>  (13) 
adg

>  <m_score__min__energy>  (13) 
-8.5

>  <m_primary>  (13) 
energy

$$$$
13:0
     RDKit          3D

 52 54  0  0  0  0  0  0  0  0999 V2000
   55.2680   29.7310   43.4020 C   0  0  0  0  0  0  0  0  0  0  0  0
   56.7620   29.8650   43.0740 C   0  0  0  0  0  0  0  0  0  0  0  0
   57.4440   29.7590   44.3400 N   0  0  0  0  0  0  0  0  0  0  0  0
   57.8430   30.9940   44.9530 C   0  0  0  0  0  0  0  0  0  0  0  0
   57.0400   32.0730   44.9810 N   0  0  0  0  0  0  0  0  0  0  0  0
   57.4300   33.2390   45.5660 C   0  0  0  0  0  0  0  0  0  0  0  0
   56.6470   34.2780   45.5890 N   0  0  0  0  0  0  0  0  0  0  0  0
   58.6510   33.3100   46.1260 N   0  0  0  0  0  0  0  0  0  0  0  0
   59.4840   32.2480   46.1170 C   0  0  0  0  0  0  0  0  0  0  0  0
   60.7900   32.3110   46.7130 N   0  0  0  0  0  0  0  0  0  0  0  0
   61.4750   31.1440   47.2150 C   0  0  0  0  0  0  0  0  0  0  0  0
   62.4020   31.5980   48.3180 C   0  0  0  0  0  0  0  0  0  0  0  0
   63.4580   32.5670   47.8430 C   0  0  0  0  0  0  0  0  0  0  0  0
   62.9340   33.5000   46.7750 C   0  0  0  0  0  0  0  0  0  0  0  0
   61.4290   33.6080   46.8030 C   0  0  0  0  0  0  0  0  0  0  0  0
   59.0660   31.1010   45.5270 N   0  0  0  0  0  0  0  0  0  0  0  0
   57.7390   28.5490   45.0080 C   0  0  0  0  0  0  0  0  0  0  0  0
   56.7950   27.7350   45.5930 C   0  0  0  0  0  0  0  0  0  0  0  0
   57.1060   26.5540   46.2420 C   0  0  0  0  0  0  0  0  0  0  0  0
   56.1360   25.7540   46.8200 O   0  0  0  0  0  0  0  0  0  0  0  0
   55.9620   24.4190   46.3250 C   0  0  0  0  0  0  0  0  0  0  0  0
   58.4130   26.1240   46.3390 C   0  0  0  0  0  0  0  0  0  0  0  0
   59.3760   26.9250   45.7600 C   0  0  0  0  0  0  0  0  0  0  0  0
   59.0630   28.1030   45.1120 C   0  0  0  0  0  0  0  0  0  0  0  0
   60.0430   28.9000   44.5340 O   0  0  0  0  0  0  0  0  0  0  0  0
   61.3930   28.5910   44.8060 C   0  0  0  0  0  0  0  0  0  0  0  0
   55.1319   29.7188   44.4935 H   0  0  0  0  0  0  0  0  0  0  0  0
   54.7207   30.5837   42.9738 H   0  0  0  0  0  0  0  0  0  0  0  0
   54.8811   28.7946   42.9738 H   0  0  0  0  0  0  0  0  0  0  0  0
   57.0809   29.0591   42.3966 H   0  0  0  0  0  0  0  0  0  0  0  0
   56.9856   30.8156   42.5677 H   0  0  0  0  0  0  0  0  0  0  0  0
   55.9250   34.2560   46.3530 H   0  0  0  0  0  0  0  0  0  0  0  0
   60.7455   30.4224   47.6113 H   0  0  0  0  0  0  0  0  0  0  0  0
   62.0427   30.6533   46.4107 H   0  0  0  0  0  0  0  0  0  0  0  0
   61.8027   32.0885   49.0992 H   0  0  0  0  0  0  0  0  0  0  0  0
   62.9222   30.7060   48.6971 H   0  0  0  0  0  0  0  0  0  0  0  0
   63.8013   33.1656   48.6996 H   0  0  0  0  0  0  0  0  0  0  0  0
   64.2827   31.9832   47.4082 H   0  0  0  0  0  0  0  0  0  0  0  0
   63.3642   34.4996   46.9353 H   0  0  0  0  0  0  0  0  0  0  0  0
   63.2258   33.0917   45.7961 H   0  0  0  0  0  0  0  0  0  0  0  0
   61.1249   34.0891   47.7443 H   0  0  0  0  0  0  0  0  0  0  0  0
   61.1148   34.2027   45.9326 H   0  0  0  0  0  0  0  0  0  0  0  0
   59.6570   30.2430   45.4840 H   0  0  0  0  0  0  0  0  0  0  0  0
   55.7393   28.0397   45.5415 H   0  0  0  0  0  0  0  0  0  0  0  0
   55.8713   23.7229   47.1719 H   0  0  0  0  0  0  0  0  0  0  0  0
   55.0500   24.3713   45.7118 H   0  0  0  0  0  0  0  0  0  0  0  0
   56.8313   24.1391   45.7118 H   0  0  0  0  0  0  0  0  0  0  0  0
   58.6751   25.1876   46.8532 H   0  0  0  0  0  0  0  0  0  0  0  0
   60.4296   26.6140   45.8168 H   0  0  0  0  0  0  0  0  0  0  0  0
   61.5489   28.5553   45.8943 H   0  0  0  0  0  0  0  0  0  0  0  0
   61.6407   27.6129   44.3678 H   0  0  0  0  0  0  0  0  0  0  0  0
   62.0415   29.3639   44.3678 H   0  0  0  0  0  0  0  0  0  0  0  0
  1  2  1  0
  2  3  1  0
  3  4  1  0
  4  5  2  0
  5  6  1  0
  6  7  2  3
  6  8  1  0
  8  9  2  0
  9 10  1  0
 10 11  1  0
 11 12  1  0
 12 13  1  0
 13 14  1  0
 14 15  1  0
  9 16  1  0
  3 17  1  0
 17 18  2  0
 18 19  1  0
 19 20  1  0
 20 21  1  0
 19 22  2  0
 22 23  1  0
 23 24  2  0
 24 25  1  0
 25 26  1  0
 16  4  1  0
 24 17  1  0
 15 10  1  0
  1 27  1  0
  1 28  1  0
  1 29  1  0
  2 30  1  0
  2 31  1  0
  7 32  1  0
 11 33  1  0
 11 34  1  0
 12 35  1  0
 12 36  1  0
 13 37  1  0
 13 38  1  0
 14 39  1  0
 14 40  1  0
 15 41  1  0
 15 42  1  0
 16 43  1  0
 18 44  1  0
 21 45  1  0
 21 46  1  0
 21 47  1  0
 22 48  1  0
 23 49  1  0
 26 50  1  0
 26 51  1  0
 26 52  1  0
M  END
>  <smiles>  (14) 
CCN(c1nc(=N)nc(N2CCCCC2)[nH]1)c1cc(OC)ccc1OC

>  <score_type>  (14) 
oracle

>  <origin>  (14) 
adg

>  <m_score__min__energy>  (14) 
-7.3399999999999999

>  <m_primary>  (14) 
energy

$$$$
14:0
     RDKit          3D

 36 38  0  0  0  0  0  0  0  0999 V2000
   62.6070   33.5340   47.7890 C   0  0  0  0  0  0  0  0  0  0  0  0
   61.5320   34.2720   48.5800 C   0  0  0  0  0  0  0  0  0  0  0  0
   60.4190   34.5920   47.7440 O   0  0  0  0  0  0  0  0  0  0  0  0
   59.6570   33.6700   47.0060 C   0  0  0  0  0  0  0  0  0  0  0  0
   59.1030   32.5820   47.6880 C   0  0  0  0  0  0  0  0  0  0  0  0
   58.3360   31.6280   47.0140 C   0  0  0  0  0  0  0  0  0  0  0  0
   58.1140   31.7490   45.6290 C   0  0  0  0  0  0  0  0  0  0  0  0
   57.3440   30.8180   44.9000 C   0  0  0  0  0  0  0  0  0  0  0  0
   56.8070   29.6390   45.5270 N   0  0  0  0  0  0  0  0  0  0  0  0
   57.5480   28.4170   45.6940 C   0  0  0  0  0  0  0  0  0  0  0  0
   58.9500   28.4660   45.7420 C   0  0  0  0  0  0  0  0  0  0  0  0
   59.6930   27.2950   45.9140 C   0  0  0  0  0  0  0  0  0  0  0  0
   59.0440   26.0660   46.0530 C   0  0  0  0  0  0  0  0  0  0  0  0
   57.6480   26.0090   46.0310 C   0  0  0  0  0  0  0  0  0  0  0  0
   56.8970   27.1770   45.8590 C   0  0  0  0  0  0  0  0  0  0  0  0
   55.5430   27.0990   45.8930 F   0  0  0  0  0  0  0  0  0  0  0  0
   57.1570   31.0280   43.5270 C   0  0  0  0  0  0  0  0  0  0  0  0
   57.7250   32.1510   42.9210 C   0  0  0  0  0  0  0  0  0  0  0  0
   57.5610   32.3500   41.6900 O   0  0  0  0  0  0  0  0  0  0  0  0
   58.4440   33.0090   43.6360 O   0  0  0  0  0  0  0  0  0  0  0  0
   58.6580   32.8570   44.9390 C   0  0  0  0  0  0  0  0  0  0  0  0
   59.4260   33.8050   45.6240 C   0  0  0  0  0  0  0  0  0  0  0  0
   63.3089   33.0521   48.4855 H   0  0  0  0  0  0  0  0  0  0  0  0
   62.1354   32.7683   47.1555 H   0  0  0  0  0  0  0  0  0  0  0  0
   63.1521   34.2492   47.1555 H   0  0  0  0  0  0  0  0  0  0  0  0
   61.1900   33.6328   49.4073 H   0  0  0  0  0  0  0  0  0  0  0  0
   61.9603   35.2067   48.9711 H   0  0  0  0  0  0  0  0  0  0  0  0
   59.2733   32.4758   48.7695 H   0  0  0  0  0  0  0  0  0  0  0  0
   57.9047   30.7805   47.5669 H   0  0  0  0  0  0  0  0  0  0  0  0
   55.8770   29.7150   45.9960 H   0  0  0  0  0  0  0  0  0  0  0  0
   59.4669   29.4320   45.6436 H   0  0  0  0  0  0  0  0  0  0  0  0
   60.7917   27.3412   45.9400 H   0  0  0  0  0  0  0  0  0  0  0  0
   59.6310   25.1444   46.1796 H   0  0  0  0  0  0  0  0  0  0  0  0
   57.1374   25.0419   46.1494 H   0  0  0  0  0  0  0  0  0  0  0  0
   56.5681   30.3146   42.9318 H   0  0  0  0  0  0  0  0  0  0  0  0
   59.8517   34.6607   45.0794 H   0  0  0  0  0  0  0  0  0  0  0  0
  1  2  1  0
  2  3  1  0
  3  4  1  0
  4  5  2  0
  5  6  1  0
  6  7  2  0
  7  8  1  0
  8  9  1  0
  9 10  1  0
 10 11  2  0
 11 12  1  0
 12 13  2  0
 13 14  1  0
 14 15  2  0
 15 16  1  0
  8 17  2  0
 17 18  1  0
 18 19  2  0
 18 20  1  0
 20 21  1  0
 21 22  2  0
 22  4  1  0
 21  7  1  0
 15 10  1  0
  1 23  1  0
  1 24  1  0
  1 25  1  0
  2 26  1  0
  2 27  1  0
  5 28  1  0
  6 29  1  0
  9 30  1  0
 11 31  1  0
 12 32  1  0
 13 33  1  0
 14 34  1  0
 17 35  1  0
 22 36  1  0
M  END
>  <UniqueID>  (15) 
14

>  <SMILES>  (15) 
CCOc1ccc2c(Nc3ccccc3F)cc(=O)oc2c1

>  <Energy>  (15) 
48.91249146700685

>  <Genealogy>  (15) 
CCOc1ccc2c(Nc3ccccc3F)cc(=O)oc2c1 (3D coordinates assigned)
CCOc1ccc2c(Nc3ccccc3F)cc(=O)oc2c1 (optimized conformer: 48.91249146700685 kcal/mol)

>  <smiles>  (15) 
CCOc1ccc2c(Nc3ccccc3F)cc(=O)oc2c1

>  <score_type>  (15) 
oracle

>  <origin>  (15) 
adg

>  <m_score__min__energy>  (15) 
-6.9500000000000002

>  <m_primary>  (15) 
energy

$$$$
15:0
     RDKit          3D

 20 21  0  0  0  0  0  0  0  0999 V2000
   56.1170   29.7740   43.1640 C   0  0  0  0  0  0  0  0  0  0  0  0
   57.5470   29.9960   43.4160 N   0  0  0  0  0  0  0  0  0  0  0  0
   57.8080   31.3830   43.7010 C   0  0  0  0  0  0  0  0  0  0  0  0
   57.6460   32.2980   42.8510 O   0  0  0  0  0  0  0  0  0  0  0  0
   58.3100   31.5900   45.0590 C   0  0  0  0  0  0  0  0  0  0  0  0
   58.6730   32.7570   45.7390 C   0  0  0  0  0  0  0  0  0  0  0  0
   58.5330   34.4700   44.8810 Br  0  0  0  0  0  0  0  0  0  0  0  0
   59.1390   32.6340   47.0690 C   0  0  0  0  0  0  0  0  0  0  0  0
   59.6490   34.2080   48.0510 Br  0  0  0  0  0  0  0  0  0  0  0  0
   59.2300   31.3520   47.6780 C   0  0  0  0  0  0  0  0  0  0  0  0
   59.8640   31.1860   49.4870 Br  0  0  0  0  0  0  0  0  0  0  0  0
   58.8550   30.1940   46.9570 C   0  0  0  0  0  0  0  0  0  0  0  0
   58.9620   28.4450   47.7440 Br  0  0  0  0  0  0  0  0  0  0  0  0
   58.3980   30.3570   45.6450 C   0  0  0  0  0  0  0  0  0  0  0  0
   57.9500   29.3800   44.6530 C   0  0  0  0  0  0  0  0  0  0  0  0
   57.9430   28.1320   44.8310 O   0  0  0  0  0  0  0  0  0  0  0  0
   55.5842   29.6913   44.1228 H   0  0  0  0  0  0  0  0  0  0  0  0
   55.7102   30.6197   42.5902 H   0  0  0  0  0  0  0  0  0  0  0  0
   55.9857   28.8447   42.5902 H   0  0  0  0  0  0  0  0  0  0  0  0
   58.1420   29.6600   42.6230 H   0  0  0  0  0  0  0  0  0  0  0  0
  1  2  1  0
  2  3  1  0
  3  4  2  0
  3  5  1  0
  5  6  2  0
  6  7  1  0
  6  8  1  0
  8  9  1  0
  8 10  2  0
 10 11  1  0
 10 12  1  0
 12 13  1  0
 12 14  2  0
 14 15  1  0
 15 16  2  0
 15  2  1  0
 14  5  1  0
  1 17  1  0
  1 18  1  0
  1 19  1  0
  2 20  1  0
M  CHG  1   2   1
M  END
>  <UniqueID>  (16) 
15

>  <SMILES>  (16) 
C[NH+]1C(=O)c2c(Br)c(Br)c(Br)c(Br)c2C1=O

>  <Energy>  (16) 
50.66655984964918

>  <Genealogy>  (16) 
C[NH+]1C(=O)c2c(Br)c(Br)c(Br)c(Br)c2C1=O (protonated)
C[NH+]1C(=O)c2c(Br)c(Br)c(Br)c(Br)c2C1=O (3D coordinates assigned)
C[NH+]1C(=O)c2c(Br)c(Br)c(Br)c(Br)c2C1=O (nonaromatic ring conformer: 50.66655984964918 kcal/mol)

>  <smiles>  (16) 
CN1C(=O)c2c(Br)c(Br)c(Br)c(Br)c2C1=O

>  <score_type>  (16) 
oracle

>  <origin>  (16) 
adg

>  <m_score__min__energy>  (16) 
-6.0599999999999996

>  <m_primary>  (16) 
energy

$$$$
16:0
     RDKit          3D

 56 59  0  0  0  0  0  0  0  0999 V2000
   60.3360   33.8390   49.9360 C   0  0  0  0  0  0  0  0  0  0  0  0
   61.8470   33.9000   49.7330 C   0  0  0  0  0  0  0  0  0  0  0  0
   62.2590   33.2260   48.4760 N   0  0  0  0  0  0  0  0  0  0  0  0
   63.4360   33.9140   47.8850 C   0  0  0  0  0  0  0  0  0  0  0  0
   63.3630   33.8410   46.3670 C   0  0  0  0  0  0  0  0  0  0  0  0
   62.5430   31.7920   48.7230 C   0  0  0  0  0  0  0  0  0  0  0  0
   61.8540   30.8700   47.6980 C   0  0  0  0  0  0  0  0  0  0  0  0
   60.3860   30.9270   47.7530 N   0  0  0  0  0  0  0  0  0  0  0  0
   59.5280   30.8930   46.5910 C   0  0  0  0  0  0  0  0  0  0  0  0
   59.1320   32.1010   45.9820 C   0  0  0  0  0  0  0  0  0  0  0  0
   59.6130   33.3430   46.4530 C   0  0  0  0  0  0  0  0  0  0  0  0
   59.1700   34.5390   45.8960 C   0  0  0  0  0  0  0  0  0  0  0  0
   58.2260   34.5240   44.8770 C   0  0  0  0  0  0  0  0  0  0  0  0
   57.7410   33.3120   44.3890 C   0  0  0  0  0  0  0  0  0  0  0  0
   58.2080   32.0730   44.9030 C   0  0  0  0  0  0  0  0  0  0  0  0
   57.7600   30.8650   44.4010 N   0  0  0  0  0  0  0  0  0  0  0  0
   57.0050   30.8320   43.1260 C   0  0  0  0  0  0  0  0  0  0  0  0
   58.0620   29.6860   45.0550 C   0  0  0  0  0  0  0  0  0  0  0  0
   57.4280   28.4620   44.7170 C   0  0  0  0  0  0  0  0  0  0  0  0
   57.8340   27.2430   45.2840 C   0  0  0  0  0  0  0  0  0  0  0  0
   57.1660   25.9680   44.9190 C   0  0  0  0  0  0  0  0  0  0  0  0
   57.4060   25.1900   43.7850 C   0  0  0  0  0  0  0  0  0  0  0  0
   56.6050   24.0440   43.7120 C   0  0  0  0  0  0  0  0  0  0  0  0
   55.7320   23.9000   44.7810 C   0  0  0  0  0  0  0  0  0  0  0  0
   55.9580   25.2040   45.8150 S   0  0  0  0  0  0  0  0  0  0  0  0
   58.8900   27.2450   46.2010 C   0  0  0  0  0  0  0  0  0  0  0  0
   59.4780   28.4410   46.5990 C   0  0  0  0  0  0  0  0  0  0  0  0
   59.0250   29.6750   46.0970 C   0  0  0  0  0  0  0  0  0  0  0  0
   60.1108   33.8299   51.0127 H   0  0  0  0  0  0  0  0  0  0  0  0
   59.8677   34.7190   49.4708 H   0  0  0  0  0  0  0  0  0  0  0  0
   59.9402   32.9241   49.4708 H   0  0  0  0  0  0  0  0  0  0  0  0
   62.1590   34.9540   49.6913 H   0  0  0  0  0  0  0  0  0  0  0  0
   62.3277   33.3801   50.5748 H   0  0  0  0  0  0  0  0  0  0  0  0
   63.4404   34.9677   48.2007 H   0  0  0  0  0  0  0  0  0  0  0  0
   64.3572   33.4216   48.2298 H   0  0  0  0  0  0  0  0  0  0  0  0
   62.6138   33.0918   46.0716 H   0  0  0  0  0  0  0  0  0  0  0  0
   63.0761   34.8243   45.9660 H   0  0  0  0  0  0  0  0  0  0  0  0
   64.3463   33.5541   45.9660 H   0  0  0  0  0  0  0  0  0  0  0  0
   63.6299   31.6326   48.6665 H   0  0  0  0  0  0  0  0  0  0  0  0
   62.1490   31.5394   49.7184 H   0  0  0  0  0  0  0  0  0  0  0  0
   62.1766   31.1678   46.6894 H   0  0  0  0  0  0  0  0  0  0  0  0
   62.1475   29.8383   47.9417 H   0  0  0  0  0  0  0  0  0  0  0  0
   59.9410   30.8290   48.6920 H   0  0  0  0  0  0  0  0  0  0  0  0
   60.3478   33.3651   47.2713 H   0  0  0  0  0  0  0  0  0  0  0  0
   59.5676   35.4968   46.2629 H   0  0  0  0  0  0  0  0  0  0  0  0
   57.8603   35.4713   44.4541 H   0  0  0  0  0  0  0  0  0  0  0  0
   56.9832   33.3150   43.5917 H   0  0  0  0  0  0  0  0  0  0  0  0
   55.9269   30.7849   43.3394 H   0  0  0  0  0  0  0  0  0  0  0  0
   57.2247   31.7406   42.5462 H   0  0  0  0  0  0  0  0  0  0  0  0
   57.3031   29.9460   42.5462 H   0  0  0  0  0  0  0  0  0  0  0  0
   56.5991   28.4683   43.9939 H   0  0  0  0  0  0  0  0  0  0  0  0
   58.1532   25.4523   43.0216 H   0  0  0  0  0  0  0  0  0  0  0  0
   56.6625   23.3235   42.8828 H   0  0  0  0  0  0  0  0  0  0  0  0
   55.0174   23.0764   44.9257 H   0  0  0  0  0  0  0  0  0  0  0  0
   59.2585   26.2930   46.6108 H   0  0  0  0  0  0  0  0  0  0  0  0
   60.3105   28.4219   47.3177 H   0  0  0  0  0  0  0  0  0  0  0  0
  1  2  1  0
  2  3  1  0
  3  4  1  0
  4  5  1  0
  3  6  1  0
  6  7  1  0
  7  8  1  0
  8  9  1  0
  9 10  2  0
 10 11  1  0
 11 12  2  0
 12 13  1  0
 13 14  2  0
 14 15  1  0
 15 16  2  0
 16 17  1  0
 16 18  1  0
 18 19  2  0
 19 20  1  0
 20 21  1  0
 21 22  2  0
 22 23  1  0
 23 24  2  0
 24 25  1  0
 20 26  2  0
 26 27  1  0
 27 28  2  0
 28  9  1  0
 15 10  1  0
 28 18  1  0
 25 21  1  0
  1 29  1  0
  1 30  1  0
  1 31  1  0
  2 32  1  0
  2 33  1  0
  4 34  1  0
  4 35  1  0
  5 36  1  0
  5 37  1  0
  5 38  1  0
  6 39  1  0
  6 40  1  0
  7 41  1  0
  7 42  1  0
  8 43  1  0
 11 44  1  0
 12 45  1  0
 13 46  1  0
 14 47  1  0
 17 48  1  0
 17 49  1  0
 17 50  1  0
 19 51  1  0
 22 52  1  0
 23 53  1  0
 24 54  1  0
 26 55  1  0
 27 56  1  0
M  CHG  1  16   1
M  END
>  <UniqueID>  (17) 
16

>  <SMILES>  (17) 
CCN(CC)CCNc1c2ccccc2[n+](C)c2cc(-c3cccs3)ccc12

>  <Energy>  (17) 
112.07461227926511

>  <Genealogy>  (17) 
CCN(CC)CCNc1c2ccccc2[n+](C)c2cc(-c3cccs3)ccc12 (3D coordinates assigned)
CCN(CC)CCNc1c2ccccc2[n+](C)c2cc(-c3cccs3)ccc12 (optimized conformer: 112.07461227926511 kcal/mol)

>  <smiles>  (17) 
CCN(CC)CCNc1c2ccccc2[n+](C)c2cc(-c3cccs3)ccc12

>  <score_type>  (17) 
oracle

>  <origin>  (17) 
adg

>  <m_score__min__energy>  (17) 
-6.6500000000000004

>  <m_primary>  (17) 
energy

$$$$
17:0
     RDKit          3D

 68 70  0  0  0  0  0  0  0  0999 V2000
   55.6300   30.0620   44.0400 C   0  0  0  0  0  0  0  0  0  0  0  0
   56.8820   29.4720   43.3700 C   0  0  0  0  0  0  0  0  0  0  0  0
   57.5960   28.4720   44.2010 N   0  0  0  0  0  0  0  0  0  0  0  0
   58.1460   27.3280   43.4330 C   0  0  0  0  0  0  0  0  0  0  0  0
   57.8160   25.9900   44.0930 C   0  0  0  0  0  0  0  0  0  0  0  0
   58.6260   29.0910   45.0660 C   0  0  0  0  0  0  0  0  0  0  0  0
   57.9780   29.6450   46.3410 C   0  0  0  0  0  0  0  0  0  0  0  0
   58.2050   28.7720   47.4290 O   0  0  0  0  0  0  0  0  0  0  0  0
   59.3360   27.9470   47.2130 C   0  0  0  0  0  0  0  0  0  0  0  0
   60.3470   28.1940   48.3310 C   0  0  0  0  0  0  0  0  0  0  0  0
   60.4620   29.5860   48.6130 O   0  0  0  0  0  0  0  0  0  0  0  0
   61.1230   30.4900   47.7730 C   0  0  0  0  0  0  0  0  0  0  0  0
   60.7300   30.6770   46.5890 O   0  0  0  0  0  0  0  0  0  0  0  0
   62.3410   31.2000   48.2800 C   0  0  0  0  0  0  0  0  0  0  0  0
   63.2750   31.6060   47.1320 C   0  0  0  0  0  0  0  0  0  0  0  0
   64.1250   32.7290   47.5540 N   0  0  0  0  0  0  0  0  0  0  0  0
   63.3820   33.9960   47.6740 C   0  0  0  0  0  0  0  0  0  0  0  0
   62.7660   34.1850   49.0740 C   0  0  0  0  0  0  0  0  0  0  0  0
   61.3800   34.6310   48.9700 N   0  0  0  0  0  0  0  0  0  0  0  0
   60.2500   34.0180   48.6970 C   0  0  0  0  0  0  0  0  0  0  0  0
   59.5920   34.0260   47.4190 C   0  0  0  0  0  0  0  0  0  0  0  0
   59.8330   34.9690   46.3910 C   0  0  0  0  0  0  0  0  0  0  0  0
   59.2000   34.8690   45.1510 C   0  0  0  0  0  0  0  0  0  0  0  0
   58.2760   33.8560   44.9130 C   0  0  0  0  0  0  0  0  0  0  0  0
   57.9450   32.9710   45.9340 C   0  0  0  0  0  0  0  0  0  0  0  0
   58.5670   33.0670   47.1850 C   0  0  0  0  0  0  0  0  0  0  0  0
   58.1450   32.2530   48.1800 N   0  0  0  0  0  0  0  0  0  0  0  0
   58.6560   32.3090   49.4300 C   0  0  0  0  0  0  0  0  0  0  0  0
   58.1450   31.4610   50.4190 C   0  0  0  0  0  0  0  0  0  0  0  0
   58.6650   31.4960   51.7130 C   0  0  0  0  0  0  0  0  0  0  0  0
   59.7020   32.3740   52.0250 C   0  0  0  0  0  0  0  0  0  0  0  0
   60.2280   33.2170   51.0420 C   0  0  0  0  0  0  0  0  0  0  0  0
   59.7100   33.2010   49.7250 C   0  0  0  0  0  0  0  0  0  0  0  0
   55.7402   30.0101   45.1332 H   0  0  0  0  0  0  0  0  0  0  0  0
   55.5099   31.1115   43.7330 H   0  0  0  0  0  0  0  0  0  0  0  0
   54.7442   29.4866   43.7330 H   0  0  0  0  0  0  0  0  0  0  0  0
   56.5760   28.9868   42.4314 H   0  0  0  0  0  0  0  0  0  0  0  0
   57.5794   30.3069   43.2071 H   0  0  0  0  0  0  0  0  0  0  0  0
   57.7176   27.3405   42.4199 H   0  0  0  0  0  0  0  0  0  0  0  0
   59.2406   27.4325   43.4009 H   0  0  0  0  0  0  0  0  0  0  0  0
   57.8441   26.1039   45.1867 H   0  0  0  0  0  0  0  0  0  0  0  0
   56.8112   25.6665   43.7837 H   0  0  0  0  0  0  0  0  0  0  0  0
   58.5552   25.2364   43.7837 H   0  0  0  0  0  0  0  0  0  0  0  0
   59.3759   28.3337   45.3382 H   0  0  0  0  0  0  0  0  0  0  0  0
   59.1083   29.9148   44.5194 H   0  0  0  0  0  0  0  0  0  0  0  0
   58.4121   30.6295   46.5697 H   0  0  0  0  0  0  0  0  0  0  0  0
   56.8940   29.7380   46.1786 H   0  0  0  0  0  0  0  0  0  0  0  0
   59.0294   26.8906   47.2187 H   0  0  0  0  0  0  0  0  0  0  0  0
   59.7904   28.1836   46.2396 H   0  0  0  0  0  0  0  0  0  0  0  0
   60.0158   27.6686   49.2389 H   0  0  0  0  0  0  0  0  0  0  0  0
   61.3288   27.8184   48.0069 H   0  0  0  0  0  0  0  0  0  0  0  0
   62.0276   32.1042   48.8224 H   0  0  0  0  0  0  0  0  0  0  0  0
   62.8883   30.5146   48.9438 H   0  0  0  0  0  0  0  0  0  0  0  0
   63.9099   30.7505   46.8580 H   0  0  0  0  0  0  0  0  0  0  0  0
   62.6719   31.9132   46.2649 H   0  0  0  0  0  0  0  0  0  0  0  0
   64.9140   32.8420   46.8740 H   0  0  0  0  0  0  0  0  0  0  0  0
   64.0713   34.8300   47.4757 H   0  0  0  0  0  0  0  0  0  0  0  0
   62.5583   33.9723   46.9454 H   0  0  0  0  0  0  0  0  0  0  0  0
   62.7980   33.2279   49.6152 H   0  0  0  0  0  0  0  0  0  0  0  0
   63.3442   34.9481   49.6156 H   0  0  0  0  0  0  0  0  0  0  0  0
   60.5334   35.7974   46.5731 H   0  0  0  0  0  0  0  0  0  0  0  0
   59.4327   35.5947   44.3578 H   0  0  0  0  0  0  0  0  0  0  0  0
   57.8094   33.7555   43.9219 H   0  0  0  0  0  0  0  0  0  0  0  0
   57.1899   32.1908   45.7576 H   0  0  0  0  0  0  0  0  0  0  0  0
   57.3298   30.7639   50.1750 H   0  0  0  0  0  0  0  0  0  0  0  0
   58.2565   30.8304   52.4877 H   0  0  0  0  0  0  0  0  0  0  0  0
   60.1072   32.4034   53.0472 H   0  0  0  0  0  0  0  0  0  0  0  0
   61.0528   33.8997   51.2945 H   0  0  0  0  0  0  0  0  0  0  0  0
  1  2  1  0
  2  3  1  0
  3  4  1  0
  4  5  1  0
  3  6  1  0
  6  7  1  0
  7  8  1  0
  8  9  1  0
  9 10  1  0
 10 11  1  0
 11 12  1  0
 12 13  2  0
 12 14  1  0
 14 15  1  0
 15 16  1  0
 16 17  1  0
 17 18  1  0
 18 19  1  0
 19 20  2  3
 20 21  1  0
 21 22  2  0
 22 23  1  0
 23 24  2  0
 24 25  1  0
 25 26  2  0
 26 27  1  0
 27 28  1  0
 28 29  2  0
 29 30  1  0
 30 31  2  0
 31 32  1  0
 32 33  2  0
 33 20  1  0
 26 21  1  0
 33 28  1  0
  1 34  1  0
  1 35  1  0
  1 36  1  0
  2 37  1  0
  2 38  1  0
  4 39  1  0
  4 40  1  0
  5 41  1  0
  5 42  1  0
  5 43  1  0
  6 44  1  0
  6 45  1  0
  7 46  1  0
  7 47  1  0
  9 48  1  0
  9 49  1  0
 10 50  1  0
 10 51  1  0
 14 52  1  0
 14 53  1  0
 15 54  1  0
 15 55  1  0
 16 56  1  0
 17 57  1  0
 17 58  1  0
 18 59  1  0
 18 60  1  0
 22 61  1  0
 23 62  1  0
 24 63  1  0
 25 64  1  0
 29 65  1  0
 30 66  1  0
 31 67  1  0
 32 68  1  0
M  CHG  1  27  -1
M  END
>  <UniqueID>  (18) 
17

>  <SMILES>  (18) 
CCN(CC)CCOCCOC(=O)CCNCCN=c1c2ccccc2[n-]c2ccccc12

>  <Energy>  (18) 
93.94551896693045

>  <Genealogy>  (18) 
CCN(CC)CCOCCOC(=O)CCNCCN=c1c2ccccc2[n-]c2ccccc12 (protonated)
CCN(CC)CCOCCOC(=O)CCNCCN=c1c2ccccc2[n-]c2ccccc12 (3D coordinates assigned)
CCN(CC)CCOCCOC(=O)CCNCCN=c1c2ccccc2[n-]c2ccccc12 (optimized conformer: 93.94551896693045 kcal/mol)

>  <smiles>  (18) 
CCN(CC)CCOCCOC(=O)CCNCCN=c1c2ccccc2[nH]c2ccccc12

>  <score_type>  (18) 
oracle

>  <origin>  (18) 
adg

>  <m_score__min__energy>  (18) 
-8.0600000000000005

>  <m_primary>  (18) 
energy

$$$$
18:0
     RDKit          3D

 48 49  0  0  0  0  0  0  0  0999 V2000
   59.7860   26.9870   46.9790 C   0  0  0  0  0  0  0  0  0  0  0  0
   59.6670   25.7970   46.0290 C   0  0  0  0  0  0  0  0  0  0  0  0
   58.5200   24.8200   46.3850 C   0  0  0  0  0  0  0  0  0  0  0  0
   57.2430   25.0460   45.6660 N   0  0  0  0  0  0  0  0  0  0  0  0
   57.3910   25.1830   44.1970 C   0  0  0  0  0  0  0  0  0  0  0  0
   56.6770   24.0320   43.4980 C   0  0  0  0  0  0  0  0  0  0  0  0
   56.3900   26.0830   46.2830 C   0  0  0  0  0  0  0  0  0  0  0  0
   56.6060   27.3780   45.6280 C   0  0  0  0  0  0  0  0  0  0  0  0
   56.7800   28.4470   45.1020 C   0  0  0  0  0  0  0  0  0  0  0  0
   57.0020   29.7270   44.4900 C   0  0  0  0  0  0  0  0  0  0  0  0
   56.8280   29.8980   43.1140 C   0  0  0  0  0  0  0  0  0  0  0  0
   57.0580   31.1530   42.5490 C   0  0  0  0  0  0  0  0  0  0  0  0
   57.4560   32.2200   43.3580 C   0  0  0  0  0  0  0  0  0  0  0  0
   57.6200   32.0170   44.7400 C   0  0  0  0  0  0  0  0  0  0  0  0
   58.0390   33.0860   45.6110 N   0  0  0  0  0  0  0  0  0  0  0  0
   58.4420   34.3750   45.0320 C   0  0  0  0  0  0  0  0  0  0  0  0
   59.6380   34.9550   45.7900 C   0  0  0  0  0  0  0  0  0  0  0  0
   59.3530   35.0060   47.2940 C   0  0  0  0  0  0  0  0  0  0  0  0
   58.9980   33.6130   47.8240 C   0  0  0  0  0  0  0  0  0  0  0  0
   57.8080   33.0190   47.0620 C   0  0  0  0  0  0  0  0  0  0  0  0
   57.3920   30.7770   45.2590 N   0  0  0  0  0  0  0  0  0  0  0  0
   59.7504   26.6308   48.0191 H   0  0  0  0  0  0  0  0  0  0  0  0
   60.7403   27.5042   46.8010 H   0  0  0  0  0  0  0  0  0  0  0  0
   58.9530   27.6830   46.8010 H   0  0  0  0  0  0  0  0  0  0  0  0
   59.4915   26.1813   45.0134 H   0  0  0  0  0  0  0  0  0  0  0  0
   60.6057   25.2293   46.1104 H   0  0  0  0  0  0  0  0  0  0  0  0
   58.8612   23.7994   46.1572 H   0  0  0  0  0  0  0  0  0  0  0  0
   58.3007   24.9868   47.4499 H   0  0  0  0  0  0  0  0  0  0  0  0
   56.9503   26.1373   43.8727 H   0  0  0  0  0  0  0  0  0  0  0  0
   58.4592   25.1610   43.9354 H   0  0  0  0  0  0  0  0  0  0  0  0
   56.2545   23.3510   44.2515 H   0  0  0  0  0  0  0  0  0  0  0  0
   55.8674   24.4306   42.8690 H   0  0  0  0  0  0  0  0  0  0  0  0
   57.3938   23.4837   42.8690 H   0  0  0  0  0  0  0  0  0  0  0  0
   55.3339   25.7944   46.1764 H   0  0  0  0  0  0  0  0  0  0  0  0
   56.6511   26.1733   47.3477 H   0  0  0  0  0  0  0  0  0  0  0  0
   56.5134   29.0532   42.4837 H   0  0  0  0  0  0  0  0  0  0  0  0
   56.9260   31.3020   41.4672 H   0  0  0  0  0  0  0  0  0  0  0  0
   57.6397   33.2111   42.9176 H   0  0  0  0  0  0  0  0  0  0  0  0
   58.7193   34.2270   43.9779 H   0  0  0  0  0  0  0  0  0  0  0  0
   57.5989   35.0774   45.1085 H   0  0  0  0  0  0  0  0  0  0  0  0
   60.5201   34.3227   45.6109 H   0  0  0  0  0  0  0  0  0  0  0  0
   59.8223   35.9780   45.4302 H   0  0  0  0  0  0  0  0  0  0  0  0
   60.2464   35.3754   47.8188 H   0  0  0  0  0  0  0  0  0  0  0  0
   58.5016   35.6798   47.4706 H   0  0  0  0  0  0  0  0  0  0  0  0
   59.8680   32.9506   47.7042 H   0  0  0  0  0  0  0  0  0  0  0  0
   58.7234   33.7027   48.8854 H   0  0  0  0  0  0  0  0  0  0  0  0
   57.6761   31.9682   47.3592 H   0  0  0  0  0  0  0  0  0  0  0  0
   56.9052   33.5985   47.3052 H   0  0  0  0  0  0  0  0  0  0  0  0
  1  2  1  0
  2  3  1  0
  3  4  1  0
  4  5  1  0
  5  6  1  0
  4  7  1  0
  7  8  1  0
  8  9  3  0
  9 10  1  0
 10 11  2  0
 11 12  1  0
 12 13  2  0
 13 14  1  0
 14 15  1  0
 15 16  1  0
 16 17  1  0
 17 18  1  0
 18 19  1  0
 19 20  1  0
 14 21  2  0
 21 10  1  0
 20 15  1  0
  1 22  1  0
  1 23  1  0
  1 24  1  0
  2 25  1  0
  2 26  1  0
  3 27  1  0
  3 28  1  0
  5 29  1  0
  5 30  1  0
  6 31  1  0
  6 32  1  0
  6 33  1  0
  7 34  1  0
  7 35  1  0
 11 36  1  0
 12 37  1  0
 13 38  1  0
 16 39  1  0
 16 40  1  0
 17 41  1  0
 17 42  1  0
 18 43  1  0
 18 44  1  0
 19 45  1  0
 19 46  1  0
 20 47  1  0
 20 48  1  0
M  END
>  <UniqueID>  (19) 
18

>  <SMILES>  (19) 
CCCN(CC)CC#Cc1cccc(N2CCCCC2)n1

>  <Energy>  (19) 
42.565149426464835

>  <Genealogy>  (19) 
CCCN(CC)CC#Cc1cccc(N2CCCCC2)n1 (3D coordinates assigned)
CCCN(CC)CC#Cc1cccc(N2CCCCC2)n1 (nonaromatic ring conformer: 42.565149426464835 kcal/mol)

>  <smiles>  (19) 
CCCN(CC)CC#Cc1cccc(N2CCCCC2)n1

>  <score_type>  (19) 
oracle

>  <origin>  (19) 
adg

>  <m_score__min__energy>  (19) 
-6.75

>  <m_primary>  (19) 
energy

$$$$
19:0
     RDKit          3D

 48 51  0  0  0  0  0  0  0  0999 V2000
   57.4020   31.9450   41.8060 C   0  0  0  0  0  0  0  0  0  0  0  0
   57.1660   30.9550   42.8630 N   0  0  0  0  0  0  0  0  0  0  0  0
   56.2740   29.8220   42.5900 C   0  0  0  0  0  0  0  0  0  0  0  0
   57.8080   31.0950   44.1560 C   0  0  0  0  0  0  0  0  0  0  0  0
   58.0970   32.3620   44.6730 C   0  0  0  0  0  0  0  0  0  0  0  0
   58.6880   32.5020   45.9220 C   0  0  0  0  0  0  0  0  0  0  0  0
   59.0270   31.3770   46.7070 C   0  0  0  0  0  0  0  0  0  0  0  0
   59.5780   31.5230   48.0100 C   0  0  0  0  0  0  0  0  0  0  0  0
   59.9330   32.8490   48.5020 N   0  0  0  0  0  0  0  0  0  0  0  0
   61.3560   33.1480   48.4630 C   0  0  0  0  0  0  0  0  0  0  0  0
   62.0490   32.9390   47.2550 C   0  0  0  0  0  0  0  0  0  0  0  0
   63.4240   33.1720   47.1630 C   0  0  0  0  0  0  0  0  0  0  0  0
   64.1340   33.6020   48.2830 C   0  0  0  0  0  0  0  0  0  0  0  0
   63.4750   33.7930   49.4970 C   0  0  0  0  0  0  0  0  0  0  0  0
   62.0980   33.5630   49.6010 C   0  0  0  0  0  0  0  0  0  0  0  0
   61.5130   33.7690   50.8060 F   0  0  0  0  0  0  0  0  0  0  0  0
   59.7970   30.4040   48.7920 N   0  0  0  0  0  0  0  0  0  0  0  0
   60.1000   30.5540   50.2340 C   0  0  0  0  0  0  0  0  0  0  0  0
   59.7490   29.1400   48.2350 C   0  0  0  0  0  0  0  0  0  0  0  0
   60.2380   28.0090   48.9410 C   0  0  0  0  0  0  0  0  0  0  0  0
   60.1730   26.7310   48.3960 C   0  0  0  0  0  0  0  0  0  0  0  0
   59.6430   26.5430   47.1300 C   0  0  0  0  0  0  0  0  0  0  0  0
   59.1860   27.6310   46.3940 C   0  0  0  0  0  0  0  0  0  0  0  0
   59.2270   28.9490   46.9230 C   0  0  0  0  0  0  0  0  0  0  0  0
   58.7940   30.0810   46.1810 C   0  0  0  0  0  0  0  0  0  0  0  0
   58.1580   29.9660   44.9160 C   0  0  0  0  0  0  0  0  0  0  0  0
   57.6342   32.9191   42.2612 H   0  0  0  0  0  0  0  0  0  0  0  0
   58.2480   31.6208   41.1822 H   0  0  0  0  0  0  0  0  0  0  0  0
   56.5007   32.0373   41.1822 H   0  0  0  0  0  0  0  0  0  0  0  0
   55.9318   29.3874   43.5408 H   0  0  0  0  0  0  0  0  0  0  0  0
   55.4051   30.1703   42.0123 H   0  0  0  0  0  0  0  0  0  0  0  0
   56.8165   29.0591   42.0123 H   0  0  0  0  0  0  0  0  0  0  0  0
   57.8533   33.2581   44.0835 H   0  0  0  0  0  0  0  0  0  0  0  0
   58.8967   33.5105   46.3085 H   0  0  0  0  0  0  0  0  0  0  0  0
   59.4130   33.6110   48.0150 H   0  0  0  0  0  0  0  0  0  0  0  0
   59.5810   32.9240   49.4850 H   0  0  0  0  0  0  0  0  0  0  0  0
   61.4993   32.5867   46.3697 H   0  0  0  0  0  0  0  0  0  0  0  0
   63.9457   33.0162   46.2072 H   0  0  0  0  0  0  0  0  0  0  0  0
   65.2151   33.7908   48.2090 H   0  0  0  0  0  0  0  0  0  0  0  0
   64.0411   34.1267   50.3791 H   0  0  0  0  0  0  0  0  0  0  0  0
   59.2701   30.1432   50.8277 H   0  0  0  0  0  0  0  0  0  0  0  0
   61.0259   30.0102   50.4726 H   0  0  0  0  0  0  0  0  0  0  0  0
   60.2290   31.6200   50.4726 H   0  0  0  0  0  0  0  0  0  0  0  0
   60.6775   28.1466   49.9400 H   0  0  0  0  0  0  0  0  0  0  0  0
   60.5427   25.8690   48.9707 H   0  0  0  0  0  0  0  0  0  0  0  0
   59.5834   25.5300   46.7055 H   0  0  0  0  0  0  0  0  0  0  0  0
   58.7850   27.4679   45.3827 H   0  0  0  0  0  0  0  0  0  0  0  0
   57.9331   28.9647   44.5201 H   0  0  0  0  0  0  0  0  0  0  0  0
  1  2  1  0
  2  3  1  0
  2  4  1  0
  4  5  2  0
  5  6  1  0
  6  7  2  0
  7  8  1  0
  8  9  1  0
  9 10  1  0
 10 11  2  0
 11 12  1  0
 12 13  2  0
 13 14  1  0
 14 15  2  0
 15 16  1  0
  8 17  2  0
 17 18  1  0
 17 19  1  0
 19 20  2  0
 20 21  1  0
 21 22  2  0
 22 23  1  0
 23 24  2  0
 24 25  1  0
 25 26  2  0
 26  4  1  0
 25  7  1  0
 15 10  1  0
 24 19  1  0
  1 27  1  0
  1 28  1  0
  1 29  1  0
  3 30  1  0
  3 31  1  0
  3 32  1  0
  5 33  1  0
  6 34  1  0
  9 35  1  0
  9 36  1  0
 11 37  1  0
 12 38  1  0
 13 39  1  0
 14 40  1  0
 18 41  1  0
 18 42  1  0
 18 43  1  0
 20 44  1  0
 21 45  1  0
 22 46  1  0
 23 47  1  0
 26 48  1  0
M  CHG  2   9   1  17   1
M  END
>  <UniqueID>  (20) 
19

>  <SMILES>  (20) 
CN(C)c1ccc2c([NH2+]c3ccccc3F)[n+](C)c3ccccc3c2c1

>  <Energy>  (20) 
88.35760679717635

>  <Genealogy>  (20) 
CN(C)c1ccc2c([NH2+]c3ccccc3F)[n+](C)c3ccccc3c2c1 (protonated)
CN(C)c1ccc2c([NH2+]c3ccccc3F)[n+](C)c3ccccc3c2c1 (3D coordinates assigned)
CN(C)c1ccc2c([NH2+]c3ccccc3F)[n+](C)c3ccccc3c2c1 (optimized conformer: 88.35760679717635 kcal/mol)

>  <smiles>  (20) 
CN(C)c1ccc2c(Nc3ccccc3F)[n+](C)c3ccccc3c2c1

>  <score_type>  (20) 
oracle

>  <origin>  (20) 
adg

>  <m_score__min__energy>  (20) 
-4.7300000000000004

>  <m_primary>  (20) 
energy

$$$$
20:0
     RDKit          3D

 58 60  0  0  0  0  0  0  0  0999 V2000
   59.9130   34.2080   49.3540 C   0  0  0  0  0  0  0  0  0  0  0  0
   61.4040   34.2080   48.9890 C   0  0  0  0  0  0  0  0  0  0  0  0
   61.9120   32.8970   48.5150 N   0  0  0  0  0  0  0  0  0  0  0  0
   63.3730   32.8660   48.2700 C   0  0  0  0  0  0  0  0  0  0  0  0
   63.7110   33.2070   46.8200 C   0  0  0  0  0  0  0  0  0  0  0  0
   61.4720   31.7770   49.3790 C   0  0  0  0  0  0  0  0  0  0  0  0
   60.7700   30.6910   48.5500 C   0  0  0  0  0  0  0  0  0  0  0  0
   61.1300   30.7850   47.1250 N   0  0  0  0  0  0  0  0  0  0  0  0
   59.9390   30.7060   46.2940 C   0  0  0  0  0  0  0  0  0  0  0  0
   59.2680   31.8890   45.8820 C   0  0  0  0  0  0  0  0  0  0  0  0
   59.7960   33.1770   46.1500 C   0  0  0  0  0  0  0  0  0  0  0  0
   59.0850   34.3280   45.8280 C   0  0  0  0  0  0  0  0  0  0  0  0
   57.8340   34.2300   45.2370 C   0  0  0  0  0  0  0  0  0  0  0  0
   57.3110   32.9810   44.9160 C   0  0  0  0  0  0  0  0  0  0  0  0
   58.0360   31.7880   45.1780 C   0  0  0  0  0  0  0  0  0  0  0  0
   57.5620   30.5570   44.7720 N   0  0  0  0  0  0  0  0  0  0  0  0
   56.4590   30.4820   43.7840 C   0  0  0  0  0  0  0  0  0  0  0  0
   58.1540   29.3970   45.2310 C   0  0  0  0  0  0  0  0  0  0  0  0
   57.5410   28.1310   45.0360 C   0  0  0  0  0  0  0  0  0  0  0  0
   58.1800   26.9320   45.3940 C   0  0  0  0  0  0  0  0  0  0  0  0
   57.5420   25.6500   45.1650 N   0  0  0  0  0  0  0  0  0  0  0  0
   57.0390   24.8570   46.2920 C   0  0  0  0  0  0  0  0  0  0  0  0
   57.3930   25.1220   43.8030 C   0  0  0  0  0  0  0  0  0  0  0  0
   59.4530   27.0040   45.9670 C   0  0  0  0  0  0  0  0  0  0  0  0
   60.0470   28.2340   46.2350 C   0  0  0  0  0  0  0  0  0  0  0  0
   59.3900   29.4480   45.9280 C   0  0  0  0  0  0  0  0  0  0  0  0
   59.5569   33.1709   49.4412 H   0  0  0  0  0  0  0  0  0  0  0  0
   59.7704   34.7265   50.3136 H   0  0  0  0  0  0  0  0  0  0  0  0
   59.3433   34.7265   48.5688 H   0  0  0  0  0  0  0  0  0  0  0  0
   61.5645   34.9492   48.1922 H   0  0  0  0  0  0  0  0  0  0  0  0
   61.9558   34.4477   49.9099 H   0  0  0  0  0  0  0  0  0  0  0  0
   63.8607   33.5975   48.9311 H   0  0  0  0  0  0  0  0  0  0  0  0
   63.7331   31.8471   48.4751 H   0  0  0  0  0  0  0  0  0  0  0  0
   64.4852   33.9881   46.7979 H   0  0  0  0  0  0  0  0  0  0  0  0
   64.0835   32.3070   46.3089 H   0  0  0  0  0  0  0  0  0  0  0  0
   62.8077   33.5715   46.3089 H   0  0  0  0  0  0  0  0  0  0  0  0
   62.3498   31.3394   49.8769 H   0  0  0  0  0  0  0  0  0  0  0  0
   60.7623   32.1649   50.1246 H   0  0  0  0  0  0  0  0  0  0  0  0
   61.0678   29.7025   48.9298 H   0  0  0  0  0  0  0  0  0  0  0  0
   59.6832   30.8338   48.6423 H   0  0  0  0  0  0  0  0  0  0  0  0
   61.6650   31.6630   46.9440 H   0  0  0  0  0  0  0  0  0  0  0  0
   61.8120   30.0420   46.8610 H   0  0  0  0  0  0  0  0  0  0  0  0
   60.7859   33.2677   46.6211 H   0  0  0  0  0  0  0  0  0  0  0  0
   59.5153   35.3174   46.0423 H   0  0  0  0  0  0  0  0  0  0  0  0
   57.2549   35.1402   45.0219 H   0  0  0  0  0  0  0  0  0  0  0  0
   56.3166   32.9164   44.4502 H   0  0  0  0  0  0  0  0  0  0  0  0
   55.4968   30.4166   44.3130 H   0  0  0  0  0  0  0  0  0  0  0  0
   56.4700   31.3830   43.1530 H   0  0  0  0  0  0  0  0  0  0  0  0
   56.5919   29.5908   43.1530 H   0  0  0  0  0  0  0  0  0  0  0  0
   56.5358   28.0877   44.5914 H   0  0  0  0  0  0  0  0  0  0  0  0
   57.3400   25.3316   47.2376 H   0  0  0  0  0  0  0  0  0  0  0  0
   55.9415   24.8035   46.2417 H   0  0  0  0  0  0  0  0  0  0  0  0
   57.4583   23.8413   46.2417 H   0  0  0  0  0  0  0  0  0  0  0  0
   57.0945   24.0643   43.8504 H   0  0  0  0  0  0  0  0  0  0  0  0
   56.6220   25.6970   43.2691 H   0  0  0  0  0  0  0  0  0  0  0  0
   58.3508   25.2091   43.2691 H   0  0  0  0  0  0  0  0  0  0  0  0
   59.9924   26.0765   46.2093 H   0  0  0  0  0  0  0  0  0  0  0  0
   61.0462   28.2622   46.6942 H   0  0  0  0  0  0  0  0  0  0  0  0
  1  2  1  0
  2  3  1  0
  3  4  1  0
  4  5  1  0
  3  6  1  0
  6  7  1  0
  7  8  1  0
  8  9  1  0
  9 10  2  0
 10 11  1  0
 11 12  2  0
 12 13  1  0
 13 14  2  0
 14 15  1  0
 15 16  2  0
 16 17  1  0
 16 18  1  0
 18 19  2  0
 19 20  1  0
 20 21  1  0
 21 22  1  0
 21 23  1  0
 20 24  2  0
 24 25  1  0
 25 26  2  0
 26  9  1  0
 15 10  1  0
 26 18  1  0
  1 27  1  0
  1 28  1  0
  1 29  1  0
  2 30  1  0
  2 31  1  0
  4 32  1  0
  4 33  1  0
  5 34  1  0
  5 35  1  0
  5 36  1  0
  6 37  1  0
  6 38  1  0
  7 39  1  0
  7 40  1  0
  8 41  1  0
  8 42  1  0
 11 43  1  0
 12 44  1  0
 13 45  1  0
 14 46  1  0
 17 47  1  0
 17 48  1  0
 17 49  1  0
 19 50  1  0
 22 51  1  0
 22 52  1  0
 22 53  1  0
 23 54  1  0
 23 55  1  0
 23 56  1  0
 24 57  1  0
 25 58  1  0
M  CHG  2   8   1  16   1
M  END
>  <UniqueID>  (21) 
20

>  <SMILES>  (21) 
CCN(CC)CC[NH2+]c1c2ccccc2[n+](C)c2cc(N(C)C)ccc12

>  <Energy>  (21) 
88.60175428016808

>  <Genealogy>  (21) 
CCN(CC)CC[NH2+]c1c2ccccc2[n+](C)c2cc(N(C)C)ccc12 (protonated)
CCN(CC)CC[NH2+]c1c2ccccc2[n+](C)c2cc(N(C)C)ccc12 (3D coordinates assigned)
CCN(CC)CC[NH2+]c1c2ccccc2[n+](C)c2cc(N(C)C)ccc12 (optimized conformer: 88.60175428016808 kcal/mol)

>  <smiles>  (21) 
CCN(CC)CCNc1c2ccccc2[n+](C)c2cc(N(C)C)ccc12

>  <score_type>  (21) 
oracle

>  <origin>  (21) 
adg

>  <m_score__min__energy>  (21) 
-4.0800000000000001

>  <m_primary>  (21) 
energy

$$$$
21:0
     RDKit          3D

 46 49  0  0  0  0  0  0  0  0999 V2000
   59.6360   30.0290   45.9240 C   0  0  0  0  0  0  0  0  0  0  0  0
   58.1340   30.0440   46.1930 C   0  0  0  0  0  0  0  0  0  0  0  0
   57.4590   31.0620   45.3740 N   0  0  0  0  0  0  0  0  0  0  0  0
   58.1590   31.3360   44.1060 C   0  0  0  0  0  0  0  0  0  0  0  0
   57.9470   32.7940   43.6720 C   0  0  0  0  0  0  0  0  0  0  0  0
   58.0760   33.7890   44.8360 C   0  0  0  0  0  0  0  0  0  0  0  0
   59.4740   34.1030   45.1260 N   0  0  0  0  0  0  0  0  0  0  0  0
   60.0980   33.6140   46.3130 C   0  0  0  0  0  0  0  0  0  0  0  0
   59.6770   33.1500   47.4850 C   0  0  0  0  0  0  0  0  0  0  0  0
   58.5840   32.8530   48.2690 C   0  0  0  0  0  0  0  0  0  0  0  0
   57.2990   33.0780   47.7720 O   0  0  0  0  0  0  0  0  0  0  0  0
   58.8900   32.3220   49.5730 C   0  0  0  0  0  0  0  0  0  0  0  0
   57.8610   31.9790   50.4730 C   0  0  0  0  0  0  0  0  0  0  0  0
   58.1570   31.4650   51.7340 C   0  0  0  0  0  0  0  0  0  0  0  0
   59.4770   31.2790   52.1300 C   0  0  0  0  0  0  0  0  0  0  0  0
   60.5280   31.6040   51.2750 C   0  0  0  0  0  0  0  0  0  0  0  0
   60.2800   32.1280   49.9880 C   0  0  0  0  0  0  0  0  0  0  0  0
   61.3610   32.4650   49.0980 C   0  0  0  0  0  0  0  0  0  0  0  0
   60.9580   32.9570   47.8990 C   0  0  0  0  0  0  0  0  0  0  0  0
   61.4560   33.3990   46.7810 C   0  0  0  0  0  0  0  0  0  0  0  0
   62.8330   33.5440   46.3560 C   0  0  0  0  0  0  0  0  0  0  0  0
   63.8650   33.1890   47.1390 C   0  0  0  0  0  0  0  0  0  0  0  0
   63.8460   32.6220   48.5300 C   0  0  0  0  0  0  0  0  0  0  0  0
   62.8200   32.3270   49.3690 C   0  0  0  0  0  0  0  0  0  0  0  0
   60.1797   30.0236   46.8802 H   0  0  0  0  0  0  0  0  0  0  0  0
   59.8965   29.1282   45.3489 H   0  0  0  0  0  0  0  0  0  0  0  0
   59.9145   30.9244   45.3489 H   0  0  0  0  0  0  0  0  0  0  0  0
   57.7163   29.0551   45.9530 H   0  0  0  0  0  0  0  0  0  0  0  0
   57.9717   30.2855   47.2538 H   0  0  0  0  0  0  0  0  0  0  0  0
   57.4320   31.9460   45.9320 H   0  0  0  0  0  0  0  0  0  0  0  0
   59.2352   31.1524   44.2408 H   0  0  0  0  0  0  0  0  0  0  0  0
   57.7529   30.6731   43.3278 H   0  0  0  0  0  0  0  0  0  0  0  0
   58.6988   33.0462   42.9097 H   0  0  0  0  0  0  0  0  0  0  0  0
   56.9227   32.8760   43.2795 H   0  0  0  0  0  0  0  0  0  0  0  0
   57.5495   34.7178   44.5711 H   0  0  0  0  0  0  0  0  0  0  0  0
   57.6350   33.3279   45.7320 H   0  0  0  0  0  0  0  0  0  0  0  0
   60.0480   34.6720   44.4660 H   0  0  0  0  0  0  0  0  0  0  0  0
   56.4600   33.0350   48.3300 H   0  0  0  0  0  0  0  0  0  0  0  0
   56.8110   32.1188   50.1763 H   0  0  0  0  0  0  0  0  0  0  0  0
   57.3394   31.2041   52.4221 H   0  0  0  0  0  0  0  0  0  0  0  0
   59.6936   30.8712   53.1284 H   0  0  0  0  0  0  0  0  0  0  0  0
   61.5652   31.4501   51.6075 H   0  0  0  0  0  0  0  0  0  0  0  0
   63.0406   33.9587   45.3586 H   0  0  0  0  0  0  0  0  0  0  0  0
   64.8634   33.3336   46.7005 H   0  0  0  0  0  0  0  0  0  0  0  0
   64.8426   32.4072   48.9432 H   0  0  0  0  0  0  0  0  0  0  0  0
   63.0972   31.9424   50.3616 H   0  0  0  0  0  0  0  0  0  0  0  0
  1  2  1  0
  2  3  1  0
  3  4  1  0
  4  5  1  0
  5  6  1  0
  6  7  1  0
  7  8  1  0
  8  9  2  0
  9 10  1  0
 10 11  1  0
 10 12  2  0
 12 13  1  0
 13 14  2  0
 14 15  1  0
 15 16  2  0
 16 17  1  0
 17 18  2  0
 18 19  1  0
 19 20  2  0
 20 21  1  0
 21 22  2  0
 22 23  1  0
 23 24  2  0
 20  8  1  0
 19  9  1  0
 17 12  1  0
 24 18  1  0
  1 25  1  0
  1 26  1  0
  1 27  1  0
  2 28  1  0
  2 29  1  0
  3 30  1  0
  4 31  1  0
  4 32  1  0
  5 33  1  0
  5 34  1  0
  6 35  1  0
  6 36  1  0
  7 37  1  0
 11 38  1  0
 13 39  1  0
 14 40  1  0
 15 41  1  0
 16 42  1  0
 21 43  1  0
 22 44  1  0
 23 45  1  0
 24 46  1  0
M  END
>  <UniqueID>  (22) 
21

>  <SMILES>  (22) 
CCNCCCNC1=c2c(O)c3ccccc3c3c2=C1C=CC=C3

>  <Energy>  (22) 
73.54661479431867

>  <Genealogy>  (22) 
CCNCCCNC1=c2c(O)c3ccccc3c3c2=C1C=CC=C3 (3D coordinates assigned)
CCNCCCNC1=c2c(O)c3ccccc3c3c2=C1C=CC=C3 (nonaromatic ring conformer: 73.54661479431867 kcal/mol)

>  <smiles>  (22) 
CCNCCCNC1=c2c(O)c3ccccc3c3c2=C1C=CC=C3

>  <score_type>  (22) 
oracle

>  <origin>  (22) 
adg

>  <m_score__min__energy>  (22) 
-6.3399999999999999

>  <m_primary>  (22) 
energy

$$$$
22:0
     RDKit          3D

 63 65  0  0  0  0  0  0  0  0999 V2000
   59.2880   34.6010   47.4580 C   0  0  0  0  0  0  0  0  0  0  0  0
   59.5770   33.5610   46.3720 C   0  0  0  0  0  0  0  0  0  0  0  0
   58.3860   32.8170   45.9040 N   0  0  0  0  0  0  0  0  0  0  0  0
   57.0860   33.4780   46.1620 C   0  0  0  0  0  0  0  0  0  0  0  0
   56.7300   34.5930   45.1660 C   0  0  0  0  0  0  0  0  0  0  0  0
   58.5270   32.1580   44.5870 C   0  0  0  0  0  0  0  0  0  0  0  0
   57.1750   31.6510   44.0580 C   0  0  0  0  0  0  0  0  0  0  0  0
   56.8380   30.2400   44.5630 C   0  0  0  0  0  0  0  0  0  0  0  0
   57.3870   30.0370   45.9100 N   0  0  0  0  0  0  0  0  0  0  0  0
   58.6430   29.2770   45.8460 C   0  0  0  0  0  0  0  0  0  0  0  0
   58.8310   28.4130   47.1000 C   0  0  0  0  0  0  0  0  0  0  0  0
   58.9300   29.2430   48.3980 C   0  0  0  0  0  0  0  0  0  0  0  0
   59.1960   30.6510   48.0980 N   0  0  0  0  0  0  0  0  0  0  0  0
   59.9360   31.4900   49.0020 C   0  0  0  0  0  0  0  0  0  0  0  0
   59.3270   31.9970   50.1650 C   0  0  0  0  0  0  0  0  0  0  0  0
   58.0020   31.6440   50.5020 C   0  0  0  0  0  0  0  0  0  0  0  0
   57.3730   32.2120   51.6080 C   0  0  0  0  0  0  0  0  0  0  0  0
   58.0470   33.1410   52.3920 C   0  0  0  0  0  0  0  0  0  0  0  0
   59.3690   33.4770   52.1000 C   0  0  0  0  0  0  0  0  0  0  0  0
   60.0530   32.8810   51.0100 C   0  0  0  0  0  0  0  0  0  0  0  0
   61.3810   33.1590   50.7460 N   0  0  0  0  0  0  0  0  0  0  0  0
   62.2130   33.8360   51.7670 C   0  0  0  0  0  0  0  0  0  0  0  0
   61.9430   32.7740   49.5440 C   0  0  0  0  0  0  0  0  0  0  0  0
   63.2010   33.2700   49.1170 C   0  0  0  0  0  0  0  0  0  0  0  0
   63.7790   32.8390   47.9220 C   0  0  0  0  0  0  0  0  0  0  0  0
   63.1210   31.9100   47.1230 C   0  0  0  0  0  0  0  0  0  0  0  0
   61.8650   31.4360   47.4950 C   0  0  0  0  0  0  0  0  0  0  0  0
   61.2470   31.8850   48.6810 C   0  0  0  0  0  0  0  0  0  0  0  0
   59.4157   34.1413   48.4492 H   0  0  0  0  0  0  0  0  0  0  0  0
   59.9857   35.4449   47.3525 H   0  0  0  0  0  0  0  0  0  0  0  0
   58.2550   34.9639   47.3525 H   0  0  0  0  0  0  0  0  0  0  0  0
   60.0198   34.0793   45.5087 H   0  0  0  0  0  0  0  0  0  0  0  0
   60.2538   32.8190   46.8207 H   0  0  0  0  0  0  0  0  0  0  0  0
   56.2968   32.7130   46.1181 H   0  0  0  0  0  0  0  0  0  0  0  0
   57.1678   33.9549   47.1499 H   0  0  0  0  0  0  0  0  0  0  0  0
   56.4406   35.4993   45.7182 H   0  0  0  0  0  0  0  0  0  0  0  0
   57.6029   34.8121   44.5335 H   0  0  0  0  0  0  0  0  0  0  0  0
   55.8917   34.2657   44.5335 H   0  0  0  0  0  0  0  0  0  0  0  0
   58.9425   32.8807   43.8693 H   0  0  0  0  0  0  0  0  0  0  0  0
   59.1954   31.2925   44.7060 H   0  0  0  0  0  0  0  0  0  0  0  0
   56.3853   32.3419   44.3883 H   0  0  0  0  0  0  0  0  0  0  0  0
   57.2405   31.6068   42.9608 H   0  0  0  0  0  0  0  0  0  0  0  0
   55.7454   30.1168   44.5939 H   0  0  0  0  0  0  0  0  0  0  0  0
   57.2810   29.4999   43.8804 H   0  0  0  0  0  0  0  0  0  0  0  0
   57.5980   30.9850   46.3030 H   0  0  0  0  0  0  0  0  0  0  0  0
   58.6236   28.6250   44.9602 H   0  0  0  0  0  0  0  0  0  0  0  0
   59.4792   29.9890   45.7840 H   0  0  0  0  0  0  0  0  0  0  0  0
   57.9734   27.7295   47.1860 H   0  0  0  0  0  0  0  0  0  0  0  0
   59.7806   27.8698   46.9848 H   0  0  0  0  0  0  0  0  0  0  0  0
   57.9810   29.1650   48.9487 H   0  0  0  0  0  0  0  0  0  0  0  0
   59.7592   28.8499   49.0045 H   0  0  0  0  0  0  0  0  0  0  0  0
   58.7840   31.0770   47.2380 H   0  0  0  0  0  0  0  0  0  0  0  0
   57.4603   30.9124   49.8845 H   0  0  0  0  0  0  0  0  0  0  0  0
   56.3417   31.9248   51.8610 H   0  0  0  0  0  0  0  0  0  0  0  0
   57.5367   33.6124   53.2448 H   0  0  0  0  0  0  0  0  0  0  0  0
   59.8897   34.2168   52.7258 H   0  0  0  0  0  0  0  0  0  0  0  0
   61.8644   33.5523   52.7710 H   0  0  0  0  0  0  0  0  0  0  0  0
   63.2632   33.5326   51.6442 H   0  0  0  0  0  0  0  0  0  0  0  0
   62.1294   34.9259   51.6442 H   0  0  0  0  0  0  0  0  0  0  0  0
   63.7305   34.0072   49.7384 H   0  0  0  0  0  0  0  0  0  0  0  0
   64.7571   33.2349   47.6114 H   0  0  0  0  0  0  0  0  0  0  0  0
   63.5926   31.5494   46.1969 H   0  0  0  0  0  0  0  0  0  0  0  0
   61.3493   30.7034   46.8568 H   0  0  0  0  0  0  0  0  0  0  0  0
  1  2  1  0
  2  3  1  0
  3  4  1  0
  4  5  1  0
  3  6  1  0
  6  7  1  0
  7  8  1  0
  8  9  1  0
  9 10  1  0
 10 11  1  0
 11 12  1  0
 12 13  1  0
 13 14  1  0
 14 15  2  0
 15 16  1  0
 16 17  2  0
 17 18  1  0
 18 19  2  0
 19 20  1  0
 20 21  2  0
 21 22  1  0
 21 23  1  0
 23 24  2  0
 24 25  1  0
 25 26  2  0
 26 27  1  0
 27 28  2  0
 28 14  1  0
 20 15  1  0
 28 23  1  0
  1 29  1  0
  1 30  1  0
  1 31  1  0
  2 32  1  0
  2 33  1  0
  4 34  1  0
  4 35  1  0
  5 36  1  0
  5 37  1  0
  5 38  1  0
  6 39  1  0
  6 40  1  0
  7 41  1  0
  7 42  1  0
  8 43  1  0
  8 44  1  0
  9 45  1  0
 10 46  1  0
 10 47  1  0
 11 48  1  0
 11 49  1  0
 12 50  1  0
 12 51  1  0
 13 52  1  0
 16 53  1  0
 17 54  1  0
 18 55  1  0
 19 56  1  0
 22 57  1  0
 22 58  1  0
 22 59  1  0
 24 60  1  0
 25 61  1  0
 26 62  1  0
 27 63  1  0
M  CHG  1  21   1
M  END
>  <UniqueID>  (23) 
22

>  <SMILES>  (23) 
CCN(CC)CCCNCCCNc1c2ccccc2[n+](C)c2ccccc12

>  <Energy>  (23) 
85.94265295050519

>  <Genealogy>  (23) 
CCN(CC)CCCNCCCNc1c2ccccc2[n+](C)c2ccccc12 (3D coordinates assigned)
CCN(CC)CCCNCCCNc1c2ccccc2[n+](C)c2ccccc12 (optimized conformer: 85.94265295050519 kcal/mol)

>  <smiles>  (23) 
CCN(CC)CCCNCCCNc1c2ccccc2[n+](C)c2ccccc12

>  <score_type>  (23) 
oracle

>  <origin>  (23) 
adg

>  <m_score__min__energy>  (23) 
-5.7400000000000002

>  <m_primary>  (23) 
energy

$$$$
23:0
     RDKit          3D

 42 44  0  0  0  0  0  0  0  0999 V2000
   56.6050   30.3860   42.9600 C   0  0  0  0  0  0  0  0  0  0  0  0
   55.4850   30.0290   43.9410 C   0  0  0  0  0  0  0  0  0  0  0  0
   55.8800   28.9620   44.8750 N   0  0  0  0  0  0  0  0  0  0  0  0
   57.1880   28.3710   44.5530 C   0  0  0  0  0  0  0  0  0  0  0  0
   58.2810   28.9040   45.4870 C   0  0  0  0  0  0  0  0  0  0  0  0
   57.7850   29.9990   46.3230 N   0  0  0  0  0  0  0  0  0  0  0  0
   58.6620   30.9880   46.8880 C   0  0  0  0  0  0  0  0  0  0  0  0
   58.7190   32.2810   46.3360 C   0  0  0  0  0  0  0  0  0  0  0  0
   57.8680   32.6470   45.2700 C   0  0  0  0  0  0  0  0  0  0  0  0
   57.9320   33.9210   44.7150 C   0  0  0  0  0  0  0  0  0  0  0  0
   58.8370   34.8520   45.2100 C   0  0  0  0  0  0  0  0  0  0  0  0
   59.6890   34.5150   46.2590 C   0  0  0  0  0  0  0  0  0  0  0  0
   59.6570   33.2220   46.8420 C   0  0  0  0  0  0  0  0  0  0  0  0
   60.5080   32.8690   47.8740 N   0  0  0  0  0  0  0  0  0  0  0  0
   61.5190   33.8320   48.3630 C   0  0  0  0  0  0  0  0  0  0  0  0
   60.4050   31.6300   48.4660 C   0  0  0  0  0  0  0  0  0  0  0  0
   61.1950   31.3040   49.5320 N   0  0  0  0  0  0  0  0  0  0  0  0
   61.1180   30.1070   50.1660 C   0  0  0  0  0  0  0  0  0  0  0  0
   60.1950   29.1560   49.7440 C   0  0  0  0  0  0  0  0  0  0  0  0
   59.3680   29.4410   48.6610 C   0  0  0  0  0  0  0  0  0  0  0  0
   59.4740   30.6760   47.9910 C   0  0  0  0  0  0  0  0  0  0  0  0
   57.5063   30.6733   43.5213 H   0  0  0  0  0  0  0  0  0  0  0  0
   56.8294   29.5149   42.3269 H   0  0  0  0  0  0  0  0  0  0  0  0
   56.2839   31.2263   42.3269 H   0  0  0  0  0  0  0  0  0  0  0  0
   55.2223   30.9267   44.5200 H   0  0  0  0  0  0  0  0  0  0  0  0
   54.6283   29.6639   43.3555 H   0  0  0  0  0  0  0  0  0  0  0  0
   55.1530   28.2080   44.8790 H   0  0  0  0  0  0  0  0  0  0  0  0
   57.1247   27.2782   44.6614 H   0  0  0  0  0  0  0  0  0  0  0  0
   57.4489   28.6432   43.5197 H   0  0  0  0  0  0  0  0  0  0  0  0
   58.6261   28.0862   46.1367 H   0  0  0  0  0  0  0  0  0  0  0  0
   59.1062   29.2878   44.8691 H   0  0  0  0  0  0  0  0  0  0  0  0
   56.7540   30.1090   46.4510 H   0  0  0  0  0  0  0  0  0  0  0  0
   57.1468   31.9168   44.8743 H   0  0  0  0  0  0  0  0  0  0  0  0
   57.2652   34.1918   43.8831 H   0  0  0  0  0  0  0  0  0  0  0  0
   58.8807   35.8598   44.7714 H   0  0  0  0  0  0  0  0  0  0  0  0
   60.3983   35.2636   46.6417 H   0  0  0  0  0  0  0  0  0  0  0  0
   61.5214   33.8342   49.4630 H   0  0  0  0  0  0  0  0  0  0  0  0
   62.5131   33.5386   47.9948 H   0  0  0  0  0  0  0  0  0  0  0  0
   61.2742   34.8392   47.9948 H   0  0  0  0  0  0  0  0  0  0  0  0
   61.7850   29.8888   51.0131 H   0  0  0  0  0  0  0  0  0  0  0  0
   60.1192   28.1880   50.2610 H   0  0  0  0  0  0  0  0  0  0  0  0
   58.6283   28.6986   48.3268 H   0  0  0  0  0  0  0  0  0  0  0  0
  1  2  1  0
  2  3  1  0
  3  4  1  0
  4  5  1  0
  5  6  1  0
  6  7  1  0
  7  8  2  0
  8  9  1  0
  9 10  2  0
 10 11  1  0
 11 12  2  0
 12 13  1  0
 13 14  2  0
 14 15  1  0
 14 16  1  0
 16 17  2  0
 17 18  1  0
 18 19  2  0
 19 20  1  0
 20 21  2  0
 21  7  1  0
 13  8  1  0
 21 16  1  0
  1 22  1  0
  1 23  1  0
  1 24  1  0
  2 25  1  0
  2 26  1  0
  3 27  1  0
  4 28  1  0
  4 29  1  0
  5 30  1  0
  5 31  1  0
  6 32  1  0
  9 33  1  0
 10 34  1  0
 11 35  1  0
 12 36  1  0
 15 37  1  0
 15 38  1  0
 15 39  1  0
 18 40  1  0
 19 41  1  0
 20 42  1  0
M  CHG  1  14   1
M  END
>  <UniqueID>  (24) 
23

>  <SMILES>  (24) 
CCNCCNc1c2ccccc2[n+](C)c2ncccc12

>  <Energy>  (24) 
61.37191642818626

>  <Genealogy>  (24) 
CCNCCNc1c2ccccc2[n+](C)c2ncccc12 (3D coordinates assigned)
CCNCCNc1c2ccccc2[n+](C)c2ncccc12 (optimized conformer: 61.37191642818626 kcal/mol)

>  <smiles>  (24) 
CCNCCNc1c2ccccc2[n+](C)c2ncccc12

>  <score_type>  (24) 
oracle

>  <origin>  (24) 
adg

>  <m_score__min__energy>  (24) 
-5.7699999999999996

>  <m_primary>  (24) 
energy

$$$$
24:0
     RDKit          3D

 44 44  0  0  0  0  0  0  0  0999 V2000
   59.2190   27.2920   46.5450 C   0  0  0  0  0  0  0  0  0  0  0  0
   57.7410   27.0740   46.1950 C   0  0  0  0  0  0  0  0  0  0  0  0
   57.4140   27.5470   44.8300 N   0  0  0  0  0  0  0  0  0  0  0  0
   58.5620   27.3580   43.9010 C   0  0  0  0  0  0  0  0  0  0  0  0
   58.1260   26.7610   42.5600 C   0  0  0  0  0  0  0  0  0  0  0  0
   56.9710   29.2440   44.8930 S   0  0  0  0  0  0  0  0  0  0  0  0
   55.4730   29.3720   44.8820 O   0  0  0  0  0  0  0  0  0  0  0  0
   57.4960   29.8640   46.1580 O   0  0  0  0  0  0  0  0  0  0  0  0
   57.6250   30.1810   43.5090 C   0  0  0  0  0  0  0  0  0  0  0  0
   57.5250   31.6960   43.7250 C   0  0  0  0  0  0  0  0  0  0  0  0
   57.1730   32.0070   45.1180 N   0  0  0  0  0  0  0  0  0  0  0  0
   56.9920   33.4500   45.3190 C   0  0  0  0  0  0  0  0  0  0  0  0
   57.3530   33.8240   46.7580 C   0  0  0  0  0  0  0  0  0  0  0  0
   58.8340   33.6920   46.9850 C   0  0  0  0  0  0  0  0  0  0  0  0
   59.3300   33.3720   48.2600 C   0  0  0  0  0  0  0  0  0  0  0  0
   60.7080   33.2810   48.4780 C   0  0  0  0  0  0  0  0  0  0  0  0
   61.6010   33.5200   47.4290 C   0  0  0  0  0  0  0  0  0  0  0  0
   63.4830   33.3990   47.7300 Br  0  0  0  0  0  0  0  0  0  0  0  0
   61.1150   33.8540   46.1610 C   0  0  0  0  0  0  0  0  0  0  0  0
   59.7370   33.9440   45.9390 C   0  0  0  0  0  0  0  0  0  0  0  0
   59.3382   27.3096   47.6384 H   0  0  0  0  0  0  0  0  0  0  0  0
   59.8203   26.4728   46.1238 H   0  0  0  0  0  0  0  0  0  0  0  0
   59.5581   28.2499   46.1238 H   0  0  0  0  0  0  0  0  0  0  0  0
   57.5161   25.9993   46.2609 H   0  0  0  0  0  0  0  0  0  0  0  0
   57.1360   27.6539   46.9075 H   0  0  0  0  0  0  0  0  0  0  0  0
   56.5800   27.0220   44.4790 H   0  0  0  0  0  0  0  0  0  0  0  0
   59.0343   28.3344   43.7177 H   0  0  0  0  0  0  0  0  0  0  0  0
   59.2661   26.6558   44.3713 H   0  0  0  0  0  0  0  0  0  0  0  0
   57.4859   25.8846   42.7396 H   0  0  0  0  0  0  0  0  0  0  0  0
   57.5641   27.5145   41.9886 H   0  0  0  0  0  0  0  0  0  0  0  0
   59.0147   26.4551   41.9886 H   0  0  0  0  0  0  0  0  0  0  0  0
   58.6830   29.9136   43.3706 H   0  0  0  0  0  0  0  0  0  0  0  0
   57.0247   29.9298   42.6222 H   0  0  0  0  0  0  0  0  0  0  0  0
   58.4945   32.1581   43.4871 H   0  0  0  0  0  0  0  0  0  0  0  0
   56.7375   32.0927   43.0674 H   0  0  0  0  0  0  0  0  0  0  0  0
   56.2610   31.5390   45.3310 H   0  0  0  0  0  0  0  0  0  0  0  0
   57.6443   33.9998   44.6246 H   0  0  0  0  0  0  0  0  0  0  0  0
   55.9411   33.7134   45.1289 H   0  0  0  0  0  0  0  0  0  0  0  0
   57.0497   34.8642   46.9479 H   0  0  0  0  0  0  0  0  0  0  0  0
   56.8276   33.1426   47.4434 H   0  0  0  0  0  0  0  0  0  0  0  0
   58.6312   33.1923   49.0902 H   0  0  0  0  0  0  0  0  0  0  0  0
   61.0902   33.0210   49.4762 H   0  0  0  0  0  0  0  0  0  0  0  0
   61.8176   34.0463   45.3368 H   0  0  0  0  0  0  0  0  0  0  0  0
   59.3590   34.2131   44.9416 H   0  0  0  0  0  0  0  0  0  0  0  0
  1  2  1  0
  2  3  1  0
  3  4  1  0
  4  5  1  0
  3  6  1  0
  6  7  2  0
  6  8  2  0
  6  9  1  0
  9 10  1  0
 10 11  1  0
 11 12  1  0
 12 13  1  0
 13 14  1  0
 14 15  2  0
 15 16  1  0
 16 17  2  0
 17 18  1  0
 17 19  1  0
 19 20  2  0
 20 14  1  0
  1 21  1  0
  1 22  1  0
  1 23  1  0
  2 24  1  0
  2 25  1  0
  3 26  1  0
  4 27  1  0
  4 28  1  0
  5 29  1  0
  5 30  1  0
  5 31  1  0
  9 32  1  0
  9 33  1  0
 10 34  1  0
 10 35  1  0
 11 36  1  0
 12 37  1  0
 12 38  1  0
 13 39  1  0
 13 40  1  0
 15 41  1  0
 16 42  1  0
 19 43  1  0
 20 44  1  0
M  CHG  1   3   1
M  END
>  <UniqueID>  (25) 
24

>  <SMILES>  (25) 
CC[NH+](CC)S(=O)(=O)CCNCCc1ccc(Br)cc1

>  <Energy>  (25) 
30.07192197573165

>  <Genealogy>  (25) 
CC[NH+](CC)S(=O)(=O)CCNCCc1ccc(Br)cc1 (protonated)
CC[NH+](CC)S(=O)(=O)CCNCCc1ccc(Br)cc1 (3D coordinates assigned)
CC[NH+](CC)S(=O)(=O)CCNCCc1ccc(Br)cc1 (optimized conformer: 30.07192197573165 kcal/mol)

>  <smiles>  (25) 
CCN(CC)S(=O)(=O)CCNCCc1ccc(Br)cc1

>  <score_type>  (25) 
oracle

>  <origin>  (25) 
adg

>  <m_score__min__energy>  (25) 
-6.46

>  <m_primary>  (25) 
energy

$$$$
25:0
     RDKit          3D

 50 51  0  0  0  0  0  0  0  0999 V2000
   60.3580   27.2460   46.3760 C   0  0  0  0  0  0  0  0  0  0  0  0
   60.3060   28.3340   45.3070 C   0  0  0  0  0  0  0  0  0  0  0  0
   59.3900   29.4300   45.7100 N   0  0  0  0  0  0  0  0  0  0  0  0
   60.1120   30.4400   46.5190 C   0  0  0  0  0  0  0  0  0  0  0  0
   59.3140   30.7700   47.7770 C   0  0  0  0  0  0  0  0  0  0  0  0
   58.7670   30.0440   44.5120 C   0  0  0  0  0  0  0  0  0  0  0  0
   57.2280   29.9640   44.5320 C   0  0  0  0  0  0  0  0  0  0  0  0
   56.6450   31.2140   44.8660 O   0  0  0  0  0  0  0  0  0  0  0  0
   57.4390   32.3090   44.4500 C   0  0  0  0  0  0  0  0  0  0  0  0
   57.1770   33.5370   45.3270 C   0  0  0  0  0  0  0  0  0  0  0  0
   58.3550   34.3350   45.4480 O   0  0  0  0  0  0  0  0  0  0  0  0
   59.3670   34.1650   46.4070 C   0  0  0  0  0  0  0  0  0  0  0  0
   59.0150   34.2680   47.7560 C   0  0  0  0  0  0  0  0  0  0  0  0
   59.9720   34.0990   48.7740 C   0  0  0  0  0  0  0  0  0  0  0  0
   59.6240   34.1880   50.1330 O   0  0  0  0  0  0  0  0  0  0  0  0
   59.2560   33.0800   50.9490 C   0  0  0  0  0  0  0  0  0  0  0  0
   61.3110   33.8330   48.4230 C   0  0  0  0  0  0  0  0  0  0  0  0
   62.3010   33.6600   49.4080 C   0  0  0  0  0  0  0  0  0  0  0  0
   63.6240   33.3980   49.0440 C   0  0  0  0  0  0  0  0  0  0  0  0
   63.9770   33.3060   47.6960 C   0  0  0  0  0  0  0  0  0  0  0  0
   63.0090   33.4750   46.7050 C   0  0  0  0  0  0  0  0  0  0  0  0
   61.6750   33.7380   47.0550 C   0  0  0  0  0  0  0  0  0  0  0  0
   60.7030   33.9060   46.0590 C   0  0  0  0  0  0  0  0  0  0  0  0
   60.3358   27.7102   47.3730 H   0  0  0  0  0  0  0  0  0  0  0  0
   59.4907   26.5789   46.2627 H   0  0  0  0  0  0  0  0  0  0  0  0
   61.2850   26.6647   46.2627 H   0  0  0  0  0  0  0  0  0  0  0  0
   61.3162   28.7443   45.1614 H   0  0  0  0  0  0  0  0  0  0  0  0
   59.9328   27.8903   44.3722 H   0  0  0  0  0  0  0  0  0  0  0  0
   61.0959   30.0407   46.8063 H   0  0  0  0  0  0  0  0  0  0  0  0
   60.2399   31.3554   45.9226 H   0  0  0  0  0  0  0  0  0  0  0  0
   59.9124   30.5226   48.6662 H   0  0  0  0  0  0  0  0  0  0  0  0
   59.0704   31.8427   47.7858 H   0  0  0  0  0  0  0  0  0  0  0  0
   58.3839   30.1827   47.7858 H   0  0  0  0  0  0  0  0  0  0  0  0
   59.0634   31.1023   44.4651 H   0  0  0  0  0  0  0  0  0  0  0  0
   59.1164   29.4831   43.6327 H   0  0  0  0  0  0  0  0  0  0  0  0
   56.8733   29.6591   43.5364 H   0  0  0  0  0  0  0  0  0  0  0  0
   56.9311   29.2304   45.2960 H   0  0  0  0  0  0  0  0  0  0  0  0
   58.5012   32.0329   44.5246 H   0  0  0  0  0  0  0  0  0  0  0  0
   57.1793   32.5572   43.4103 H   0  0  0  0  0  0  0  0  0  0  0  0
   56.3777   34.1407   44.8725 H   0  0  0  0  0  0  0  0  0  0  0  0
   56.8774   33.1968   46.3292 H   0  0  0  0  0  0  0  0  0  0  0  0
   57.9712   34.4851   48.0267 H   0  0  0  0  0  0  0  0  0  0  0  0
   59.3485   33.3586   52.0091 H   0  0  0  0  0  0  0  0  0  0  0  0
   58.2153   32.7960   50.7340 H   0  0  0  0  0  0  0  0  0  0  0  0
   59.9200   32.2298   50.7340 H   0  0  0  0  0  0  0  0  0  0  0  0
   62.0312   33.7316   50.4720 H   0  0  0  0  0  0  0  0  0  0  0  0
   64.3902   33.2637   49.8217 H   0  0  0  0  0  0  0  0  0  0  0  0
   65.0203   33.0999   47.4147 H   0  0  0  0  0  0  0  0  0  0  0  0
   63.2925   33.4018   45.6447 H   0  0  0  0  0  0  0  0  0  0  0  0
   60.9881   33.8346   44.9990 H   0  0  0  0  0  0  0  0  0  0  0  0
  1  2  1  0
  2  3  1  0
  3  4  1  0
  4  5  1  0
  3  6  1  0
  6  7  1  0
  7  8  1  0
  8  9  1  0
  9 10  1  0
 10 11  1  0
 11 12  1  0
 12 13  2  0
 13 14  1  0
 14 15  1  0
 15 16  1  0
 14 17  2  0
 17 18  1  0
 18 19  2  0
 19 20  1  0
 20 21  2  0
 21 22  1  0
 22 23  2  0
 23 12  1  0
 22 17  1  0
  1 24  1  0
  1 25  1  0
  1 26  1  0
  2 27  1  0
  2 28  1  0
  4 29  1  0
  4 30  1  0
  5 31  1  0
  5 32  1  0
  5 33  1  0
  6 34  1  0
  6 35  1  0
  7 36  1  0
  7 37  1  0
  9 38  1  0
  9 39  1  0
 10 40  1  0
 10 41  1  0
 13 42  1  0
 16 43  1  0
 16 44  1  0
 16 45  1  0
 18 46  1  0
 19 47  1  0
 20 48  1  0
 21 49  1  0
 23 50  1  0
M  END
>  <UniqueID>  (26) 
25

>  <SMILES>  (26) 
CCN(CC)CCOCCOc1cc(OC)c2ccccc2c1

>  <Energy>  (26) 
51.744919743557965

>  <Genealogy>  (26) 
CCN(CC)CCOCCOc1cc(OC)c2ccccc2c1 (3D coordinates assigned)
CCN(CC)CCOCCOc1cc(OC)c2ccccc2c1 (optimized conformer: 51.744919743557965 kcal/mol)

>  <smiles>  (26) 
CCN(CC)CCOCCOc1cc(OC)c2ccccc2c1

>  <score_type>  (26) 
oracle

>  <origin>  (26) 
adg

>  <m_score__min__energy>  (26) 
-6.0700000000000003

>  <m_primary>  (26) 
energy

$$$$
26:0
     RDKit          3D

 49 50  0  0  0  0  0  0  0  0999 V2000
   66.0090   31.7790   50.5110 C   0  0  0  0  0  0  0  0  0  0  0  0
   64.5090   31.4200   50.5000 C   0  0  0  0  0  0  0  0  0  0  0  0
   63.5670   32.5460   50.1840 N   0  0  0  0  0  0  0  0  0  0  0  0
   64.1650   33.8440   50.5990 C   0  0  0  0  0  0  0  0  0  0  0  0
   63.3830   32.5780   48.6910 C   0  0  0  0  0  0  0  0  0  0  0  0
   62.0090   33.1120   48.2580 C   0  0  0  0  0  0  0  0  0  0  0  0
   60.9550   32.2590   48.8210 N   0  0  0  0  0  0  0  0  0  0  0  0
   59.7230   32.0070   48.1110 C   0  0  0  0  0  0  0  0  0  0  0  0
   58.9490   31.0940   48.5080 O   0  0  0  0  0  0  0  0  0  0  0  0
   59.3060   32.8380   46.9580 C   0  0  0  0  0  0  0  0  0  0  0  0
   59.7420   34.1740   46.9140 C   0  0  0  0  0  0  0  0  0  0  0  0
   59.3190   35.0290   45.8980 C   0  0  0  0  0  0  0  0  0  0  0  0
   58.4410   34.5690   44.9190 C   0  0  0  0  0  0  0  0  0  0  0  0
   57.9940   33.2470   44.9440 C   0  0  0  0  0  0  0  0  0  0  0  0
   58.4310   32.3540   45.9430 C   0  0  0  0  0  0  0  0  0  0  0  0
   58.0020   30.9690   45.8850 N   0  0  0  0  0  0  0  0  0  0  0  0
   58.0170   30.4420   44.5090 C   0  0  0  0  0  0  0  0  0  0  0  0
   56.6560   29.9580   44.0690 C   0  0  0  0  0  0  0  0  0  0  0  0
   56.3480   29.7160   42.6200 C   0  0  0  0  0  0  0  0  0  0  0  0
   55.7820   29.7770   44.9040 O   0  0  0  0  0  0  0  0  0  0  0  0
   61.2120   31.5820   50.0970 C   0  0  0  0  0  0  0  0  0  0  0  0
   62.2610   32.3610   50.9080 C   0  0  0  0  0  0  0  0  0  0  0  0
   66.3584   31.8626   51.5507 H   0  0  0  0  0  0  0  0  0  0  0  0
   66.5782   30.9917   49.9951 H   0  0  0  0  0  0  0  0  0  0  0  0
   66.1601   32.7387   49.9951 H   0  0  0  0  0  0  0  0  0  0  0  0
   64.3566   30.6320   49.7477 H   0  0  0  0  0  0  0  0  0  0  0  0
   64.2694   31.1114   51.5283 H   0  0  0  0  0  0  0  0  0  0  0  0
   64.1913   33.9011   51.6972 H   0  0  0  0  0  0  0  0  0  0  0  0
   65.1886   33.9193   50.2033 H   0  0  0  0  0  0  0  0  0  0  0  0
   63.5571   34.6710   50.2033 H   0  0  0  0  0  0  0  0  0  0  0  0
   64.1608   33.2238   48.2574 H   0  0  0  0  0  0  0  0  0  0  0  0
   63.4567   31.5409   48.3319 H   0  0  0  0  0  0  0  0  0  0  0  0
   61.8831   34.1414   48.6248 H   0  0  0  0  0  0  0  0  0  0  0  0
   61.9409   33.1040   47.1601 H   0  0  0  0  0  0  0  0  0  0  0  0
   60.4250   34.5487   47.6906 H   0  0  0  0  0  0  0  0  0  0  0  0
   59.6787   36.0681   45.8690 H   0  0  0  0  0  0  0  0  0  0  0  0
   58.0994   35.2490   44.1247 H   0  0  0  0  0  0  0  0  0  0  0  0
   57.2911   32.8973   44.1735 H   0  0  0  0  0  0  0  0  0  0  0  0
   58.5790   30.3410   46.4850 H   0  0  0  0  0  0  0  0  0  0  0  0
   57.0210   30.9130   46.2470 H   0  0  0  0  0  0  0  0  0  0  0  0
   58.3466   31.2401   43.8275 H   0  0  0  0  0  0  0  0  0  0  0  0
   58.7052   29.5842   44.4833 H   0  0  0  0  0  0  0  0  0  0  0  0
   55.4855   29.0383   42.5367 H   0  0  0  0  0  0  0  0  0  0  0  0
   56.1115   30.6724   42.1307 H   0  0  0  0  0  0  0  0  0  0  0  0
   57.2213   29.2599   42.1307 H   0  0  0  0  0  0  0  0  0  0  0  0
   60.2766   31.5243   50.6729 H   0  0  0  0  0  0  0  0  0  0  0  0
   61.5919   30.5693   49.8966 H   0  0  0  0  0  0  0  0  0  0  0  0
   61.8507   33.3539   51.1442 H   0  0  0  0  0  0  0  0  0  0  0  0
   62.4739   31.7704   51.8112 H   0  0  0  0  0  0  0  0  0  0  0  0
  1  2  1  0
  2  3  1  0
  3  4  1  0
  3  5  1  0
  5  6  1  0
  6  7  1  0
  7  8  1  0
  8  9  2  0
  8 10  1  0
 10 11  2  0
 11 12  1  0
 12 13  2  0
 13 14  1  0
 14 15  2  0
 15 16  1  0
 16 17  1  0
 17 18  1  0
 18 19  1  0
 18 20  2  0
  7 21  1  0
 21 22  1  0
 22  3  1  0
 15 10  1  0
  1 23  1  0
  1 24  1  0
  1 25  1  0
  2 26  1  0
  2 27  1  0
  4 28  1  0
  4 29  1  0
  4 30  1  0
  5 31  1  0
  5 32  1  0
  6 33  1  0
  6 34  1  0
 11 35  1  0
 12 36  1  0
 13 37  1  0
 14 38  1  0
 16 39  1  0
 16 40  1  0
 17 41  1  0
 17 42  1  0
 19 43  1  0
 19 44  1  0
 19 45  1  0
 21 46  1  0
 21 47  1  0
 22 48  1  0
 22 49  1  0
M  CHG  2   3   1  16   1
M  END
>  <UniqueID>  (27) 
26

>  <SMILES>  (27) 
CC[N+]1(C)CCN(C(=O)c2ccccc2[NH2+]CC(C)=O)CC1

>  <Energy>  (27) 
68.33947530022485

>  <Genealogy>  (27) 
CC[N+]1(C)CCN(C(=O)c2ccccc2[NH2+]CC(C)=O)CC1 (protonated)
CC[N+]1(C)CCN(C(=O)c2ccccc2[NH2+]CC(C)=O)CC1 (3D coordinates assigned)
CC[N+]1(C)CCN(C(=O)c2ccccc2[NH2+]CC(C)=O)CC1 (nonaromatic ring conformer: 68.33947530022485 kcal/mol)

>  <smiles>  (27) 
CC[N+]1(C)CCN(C(=O)c2ccccc2NCC(C)=O)CC1

>  <score_type>  (27) 
oracle

>  <origin>  (27) 
adg

>  <m_score__min__energy>  (27) 
-4.5800000000000001

>  <m_primary>  (27) 
energy

$$$$
