0:0
     RDKit          3D

 50 52  0  0  0  0  0  0  0  0999 V2000
   59.5560   34.5830   47.5580 C   0  0  0  0  0  0  0  0  0  0  0  0
   59.9840   34.3670   46.2330 O   0  0  0  0  0  0  0  0  0  0  0  0
   58.9850   34.7700   45.3130 C   0  0  0  0  0  0  0  0  0  0  0  0
   58.9040   33.7650   44.1620 C   0  0  0  0  0  0  0  0  0  0  0  0
   57.6310   33.0130   44.2180 N   0  0  0  0  0  0  0  0  0  0  0  0
   57.6160   31.8190   43.3300 C   0  0  0  0  0  0  0  0  0  0  0  0
   57.6990   30.4720   44.0810 C   0  0  0  0  0  0  0  0  0  0  0  0
   58.6230   30.5820   45.3030 C   0  0  0  0  0  0  0  0  0  0  0  0
   58.7500   29.2500   46.0060 C   0  0  0  0  0  0  0  0  0  0  0  0
   59.3820   29.1470   47.2510 C   0  0  0  0  0  0  0  0  0  0  0  0
   59.4610   27.9370   47.8650 N   0  0  0  0  0  0  0  0  0  0  0  0
   58.9260   26.8220   47.2990 C   0  0  0  0  0  0  0  0  0  0  0  0
   58.2670   26.9170   46.0620 C   0  0  0  0  0  0  0  0  0  0  0  0
   57.6600   25.7360   45.3950 C   0  0  0  0  0  0  0  0  0  0  0  0
   57.6750   25.6420   43.9920 C   0  0  0  0  0  0  0  0  0  0  0  0
   57.1030   24.5420   43.3470 C   0  0  0  0  0  0  0  0  0  0  0  0
   56.4990   23.5190   44.0840 C   0  0  0  0  0  0  0  0  0  0  0  0
   55.9410   22.4370   43.3890 O   0  0  0  0  0  0  0  0  0  0  0  0
   56.6760   21.2990   42.9490 C   0  0  0  0  0  0  0  0  0  0  0  0
   56.4700   23.6120   45.4870 C   0  0  0  0  0  0  0  0  0  0  0  0
   57.0430   24.7100   46.1350 C   0  0  0  0  0  0  0  0  0  0  0  0
   58.2040   28.1340   45.4530 N   0  0  0  0  0  0  0  0  0  0  0  0
   58.1330   31.6750   46.2800 C   0  0  0  0  0  0  0  0  0  0  0  0
   57.2140   32.7120   45.6040 C   0  0  0  0  0  0  0  0  0  0  0  0
   60.3153   34.1998   48.2556 H   0  0  0  0  0  0  0  0  0  0  0  0
   59.4140   35.6607   47.7264 H   0  0  0  0  0  0  0  0  0  0  0  0
   58.6047   34.0571   47.7264 H   0  0  0  0  0  0  0  0  0  0  0  0
   58.0132   34.8163   45.8263 H   0  0  0  0  0  0  0  0  0  0  0  0
   59.2400   35.7619   44.9116 H   0  0  0  0  0  0  0  0  0  0  0  0
   58.9635   34.3049   43.2054 H   0  0  0  0  0  0  0  0  0  0  0  0
   59.7400   33.0555   44.2503 H   0  0  0  0  0  0  0  0  0  0  0  0
   56.6824   31.8330   42.7484 H   0  0  0  0  0  0  0  0  0  0  0  0
   58.5130   31.8842   42.6966 H   0  0  0  0  0  0  0  0  0  0  0  0
   56.6917   30.1837   44.4159 H   0  0  0  0  0  0  0  0  0  0  0  0
   58.1085   29.7133   43.3978 H   0  0  0  0  0  0  0  0  0  0  0  0
   59.6200   30.8756   44.9427 H   0  0  0  0  0  0  0  0  0  0  0  0
   59.8118   30.0395   47.7292 H   0  0  0  0  0  0  0  0  0  0  0  0
   59.9460   27.8610   48.7870 H   0  0  0  0  0  0  0  0  0  0  0  0
   59.0089   25.8502   47.8076 H   0  0  0  0  0  0  0  0  0  0  0  0
   58.1410   26.4412   43.3970 H   0  0  0  0  0  0  0  0  0  0  0  0
   57.1283   24.4805   42.2490 H   0  0  0  0  0  0  0  0  0  0  0  0
   57.0390   20.7369   43.8221 H   0  0  0  0  0  0  0  0  0  0  0  0
   56.0238   20.6533   42.3426 H   0  0  0  0  0  0  0  0  0  0  0  0
   57.5328   21.6279   42.3426 H   0  0  0  0  0  0  0  0  0  0  0  0
   55.9935   22.8159   46.0779 H   0  0  0  0  0  0  0  0  0  0  0  0
   57.0114   24.7727   47.2328 H   0  0  0  0  0  0  0  0  0  0  0  0
   57.5769   31.1923   47.0972 H   0  0  0  0  0  0  0  0  0  0  0  0
   59.0199   32.2100   46.6504 H   0  0  0  0  0  0  0  0  0  0  0  0
   56.1876   32.3168   45.5866 H   0  0  0  0  0  0  0  0  0  0  0  0
   57.2759   33.6447   46.1838 H   0  0  0  0  0  0  0  0  0  0  0  0
  1  2  1  0
  2  3  1  0
  3  4  1  0
  4  5  1  0
  5  6  1  0
  6  7  1  0
  7  8  1  0
  8  9  1  0
  9 10  2  0
 10 11  1  0
 11 12  2  0
 12 13  1  0
 13 14  1  0
 14 15  2  0
 15 16  1  0
 16 17  2  0
 17 18  1  0
 18 19  1  0
 17 20  1  0
 20 21  2  0
 13 22  2  0
  8 23  1  0
 23 24  1  0
 24  5  1  0
 22  9  1  0
 21 14  1  0
  1 25  1  0
  1 26  1  0
  1 27  1  0
  3 28  1  0
  3 29  1  0
  4 30  1  0
  4 31  1  0
  6 32  1  0
  6 33  1  0
  7 34  1  0
  7 35  1  0
  8 36  1  0
 10 37  1  0
 11 38  1  0
 12 39  1  0
 15 40  1  0
 16 41  1  0
 19 42  1  0
 19 43  1  0
 19 44  1  0
 20 45  1  0
 21 46  1  0
 23 47  1  0
 23 48  1  0
 24 49  1  0
 24 50  1  0
M  CHG  1  11   1
M  END
>  <UniqueID>  (1) 
1

>  <SMILES>  (1) 
COCCN1CCC(c2c[nH+]cc(-c3ccc(OC)cc3)n2)CC1

>  <Energy>  (1) 
64.64264853567298

>  <Genealogy>  (1) 
COCCN1CCC(c2c[nH+]cc(-c3ccc(OC)cc3)n2)CC1 (protonated)
COCCN1CCC(c2c[nH+]cc(-c3ccc(OC)cc3)n2)CC1 (3D coordinates assigned)
COCCN1CCC(c2c[nH+]cc(-c3ccc(OC)cc3)n2)CC1 (nonaromatic ring conformer: 64.64264853567298 kcal/mol)

>  <smiles>  (1) 
COCCN1CCC(c2cncc(-c3ccc(OC)cc3)n2)CC1

>  <score_type>  (1) 
oracle

>  <origin>  (1) 
adg

>  <m_score__min__energy>  (1) 
-6.0599999999999996

>  <m_primary>  (1) 
energy

$$$$
1:0
     RDKit          3D

 55 58  0  0  0  0  0  0  0  0999 V2000
   63.4070   33.8240   46.5910 C   0  0  0  0  0  0  0  0  0  0  0  0
   63.2340   33.0180   47.8810 C   0  0  0  0  0  0  0  0  0  0  0  0
   61.8070   32.9710   48.2820 N   0  0  0  0  0  0  0  0  0  0  0  0
   61.4530   34.1840   49.0640 C   0  0  0  0  0  0  0  0  0  0  0  0
   59.9630   34.2100   49.3890 C   0  0  0  0  0  0  0  0  0  0  0  0
   61.5100   31.7620   49.0910 C   0  0  0  0  0  0  0  0  0  0  0  0
   60.9980   30.5530   48.2740 C   0  0  0  0  0  0  0  0  0  0  0  0
   61.1230   30.7150   46.8120 N   0  0  0  0  0  0  0  0  0  0  0  0
   59.8360   30.6470   46.1250 C   0  0  0  0  0  0  0  0  0  0  0  0
   59.1500   31.8410   45.7650 C   0  0  0  0  0  0  0  0  0  0  0  0
   59.5210   33.0980   46.3010 C   0  0  0  0  0  0  0  0  0  0  0  0
   58.8570   34.2640   45.9320 C   0  0  0  0  0  0  0  0  0  0  0  0
   57.8050   34.2080   45.0310 C   0  0  0  0  0  0  0  0  0  0  0  0
   57.4000   32.9860   44.5020 C   0  0  0  0  0  0  0  0  0  0  0  0
   58.0510   31.7780   44.8620 C   0  0  0  0  0  0  0  0  0  0  0  0
   57.6290   30.5630   44.3630 N   0  0  0  0  0  0  0  0  0  0  0  0
   56.5510   30.5090   43.3490 C   0  0  0  0  0  0  0  0  0  0  0  0
   58.1570   29.3920   44.8530 C   0  0  0  0  0  0  0  0  0  0  0  0
   57.6170   28.1980   44.4740 N   0  0  0  0  0  0  0  0  0  0  0  0
   58.0510   27.0030   44.9410 C   0  0  0  0  0  0  0  0  0  0  0  0
   57.4620   25.8170   44.4950 C   0  0  0  0  0  0  0  0  0  0  0  0
   57.9090   24.5860   44.9840 C   0  0  0  0  0  0  0  0  0  0  0  0
   58.9430   24.5390   45.9230 C   0  0  0  0  0  0  0  0  0  0  0  0
   59.5330   25.7230   46.3730 C   0  0  0  0  0  0  0  0  0  0  0  0
   59.0890   26.9620   45.8820 C   0  0  0  0  0  0  0  0  0  0  0  0
   59.6710   28.1620   46.2990 C   0  0  0  0  0  0  0  0  0  0  0  0
   59.2460   29.4040   45.7630 C   0  0  0  0  0  0  0  0  0  0  0  0
   63.6318   34.8715   46.8405 H   0  0  0  0  0  0  0  0  0  0  0  0
   64.2349   33.4013   46.0028 H   0  0  0  0  0  0  0  0  0  0  0  0
   62.4786   33.7783   46.0028 H   0  0  0  0  0  0  0  0  0  0  0  0
   63.5972   31.9926   47.7176 H   0  0  0  0  0  0  0  0  0  0  0  0
   63.8107   33.5039   48.6818 H   0  0  0  0  0  0  0  0  0  0  0  0
   62.0260   34.1864   50.0030 H   0  0  0  0  0  0  0  0  0  0  0  0
   61.6956   35.0720   48.4619 H   0  0  0  0  0  0  0  0  0  0  0  0
   59.8258   34.2124   50.4804 H   0  0  0  0  0  0  0  0  0  0  0  0
   59.5100   35.1162   48.9605 H   0  0  0  0  0  0  0  0  0  0  0  0
   59.4787   33.3202   48.9605 H   0  0  0  0  0  0  0  0  0  0  0  0
   62.4322   31.4605   49.6094 H   0  0  0  0  0  0  0  0  0  0  0  0
   60.6993   32.0389   49.7810 H   0  0  0  0  0  0  0  0  0  0  0  0
   61.5743   29.6652   48.5734 H   0  0  0  0  0  0  0  0  0  0  0  0
   59.9239   30.4565   48.4910 H   0  0  0  0  0  0  0  0  0  0  0  0
   61.6480   31.5950   46.6500 H   0  0  0  0  0  0  0  0  0  0  0  0
   61.7560   29.9760   46.4330 H   0  0  0  0  0  0  0  0  0  0  0  0
   60.3495   33.1539   47.0225 H   0  0  0  0  0  0  0  0  0  0  0  0
   59.1671   35.2307   46.3555 H   0  0  0  0  0  0  0  0  0  0  0  0
   57.2886   35.1324   44.7331 H   0  0  0  0  0  0  0  0  0  0  0  0
   56.5602   32.9563   43.7922 H   0  0  0  0  0  0  0  0  0  0  0  0
   55.5749   30.4601   43.8538 H   0  0  0  0  0  0  0  0  0  0  0  0
   56.5938   31.4104   42.7200 H   0  0  0  0  0  0  0  0  0  0  0  0
   56.6836   29.6164   42.7200 H   0  0  0  0  0  0  0  0  0  0  0  0
   56.6458   25.8520   43.7584 H   0  0  0  0  0  0  0  0  0  0  0  0
   57.4463   23.6532   44.6293 H   0  0  0  0  0  0  0  0  0  0  0  0
   59.2925   23.5696   46.3079 H   0  0  0  0  0  0  0  0  0  0  0  0
   60.3462   25.6848   47.1127 H   0  0  0  0  0  0  0  0  0  0  0  0
   60.4706   28.1428   47.0542 H   0  0  0  0  0  0  0  0  0  0  0  0
  1  2  1  0
  2  3  1  0
  3  4  1  0
  4  5  1  0
  3  6  1  0
  6  7  1  0
  7  8  1  0
  8  9  1  0
  9 10  2  0
 10 11  1  0
 11 12  2  0
 12 13  1  0
 13 14  2  0
 14 15  1  0
 15 16  2  0
 16 17  1  0
 16 18  1  0
 18 19  2  0
 19 20  1  0
 20 21  2  0
 21 22  1  0
 22 23  2  0
 23 24  1  0
 24 25  2  0
 25 26  1  0
 26 27  2  0
 27  9  1  0
 15 10  1  0
 27 18  1  0
 25 20  1  0
  1 28  1  0
  1 29  1  0
  1 30  1  0
  2 31  1  0
  2 32  1  0
  4 33  1  0
  4 34  1  0
  5 35  1  0
  5 36  1  0
  5 37  1  0
  6 38  1  0
  6 39  1  0
  7 40  1  0
  7 41  1  0
  8 42  1  0
  8 43  1  0
 11 44  1  0
 12 45  1  0
 13 46  1  0
 14 47  1  0
 17 48  1  0
 17 49  1  0
 17 50  1  0
 21 51  1  0
 22 52  1  0
 23 53  1  0
 24 54  1  0
 26 55  1  0
M  CHG  2   8   1  16   1
M  END
>  <UniqueID>  (2) 
2

>  <SMILES>  (2) 
CCN(CC)CC[NH2+]c1c2ccccc2[n+](C)c2nc3ccccc3cc12

>  <Energy>  (2) 
85.34208649983364

>  <Genealogy>  (2) 
CCN(CC)CC[NH2+]c1c2ccccc2[n+](C)c2nc3ccccc3cc12 (protonated)
CCN(CC)CC[NH2+]c1c2ccccc2[n+](C)c2nc3ccccc3cc12 (3D coordinates assigned)
CCN(CC)CC[NH2+]c1c2ccccc2[n+](C)c2nc3ccccc3cc12 (optimized conformer: 85.34208649983364 kcal/mol)

>  <smiles>  (2) 
CCN(CC)CCNc1c2ccccc2[n+](C)c2nc3ccccc3cc12

>  <score_type>  (2) 
oracle

>  <origin>  (2) 
adg

>  <m_score__min__energy>  (2) 
-5.0099999999999998

>  <m_primary>  (2) 
energy

$$$$
2:0
     RDKit          3D

 45 47  0  0  1  0  0  0  0  0999 V2000
   55.8750   22.8450   48.2480 C   0  0  0  0  0  0  0  0  0  0  0  0
   55.8280   23.2930   46.8150 C   0  0  0  0  0  0  0  0  0  0  0  0
   56.4530   24.5770   46.6420 N   0  0  0  0  0  0  0  0  0  0  0  0
   57.2880   25.2260   47.4890 C   0  0  0  0  0  0  0  0  0  0  0  0
   57.6550   26.4230   46.9390 C   0  0  0  0  0  0  0  0  0  0  0  0
   58.4750   27.4580   47.3670 C   0  0  0  0  0  0  0  0  0  0  0  0
   58.6030   28.5380   46.5070 C   0  0  0  0  0  0  0  0  0  0  0  0
   59.4670   29.6260   46.9600 C   0  0  0  0  0  0  0  0  0  0  0  0
   60.7450   29.8070   46.4310 C   0  0  0  0  0  0  0  0  0  0  0  0
   61.5410   30.8500   46.8840 C   0  0  0  0  0  0  0  0  0  0  0  0
   61.1220   31.7280   47.8440 C   0  0  0  0  0  0  0  0  0  0  0  0
   59.8500   31.5460   48.3690 C   0  0  0  0  0  0  0  0  0  0  0  0
   59.0250   30.5160   47.9440 C   0  0  0  0  0  0  0  0  0  0  0  0
   57.9460   28.5710   45.2920 C   0  0  0  0  0  0  0  0  0  0  0  0
   58.0840   29.5750   44.5240 N   0  0  0  0  0  0  0  0  0  0  0  0
   57.5600   30.8720   44.8030 C   0  0  0  0  0  0  0  0  0  0  0  0
   56.2850   30.9440   44.8420 O   0  0  0  0  0  0  0  0  0  0  0  0
   58.3480   32.0130   45.0240 N   0  0  0  0  0  0  0  0  0  0  0  0
   57.7170   33.2850   45.2990 C   0  0  0  0  0  0  0  0  0  0  0  0
   58.5190   34.4670   44.8700 C   0  0  0  0  0  0  0  0  0  0  0  0
   57.3920   33.4520   46.7650 C   0  0  0  0  0  0  0  0  0  0  0  0
   57.1610   27.5540   44.9070 N   0  0  0  0  0  0  0  0  0  0  0  0
   57.0090   26.4860   45.7110 C   0  0  0  0  0  0  0  0  0  0  0  0
   56.2920   25.3490   45.5710 N   0  0  0  0  0  0  0  0  0  0  0  0
   55.7832   23.7196   48.9088 H   0  0  0  0  0  0  0  0  0  0  0  0
   55.0448   22.1500   48.4423 H   0  0  0  0  0  0  0  0  0  0  0  0
   56.8313   22.3374   48.4423 H   0  0  0  0  0  0  0  0  0  0  0  0
   56.3527   22.5535   46.1922 H   0  0  0  0  0  0  0  0  0  0  0  0
   54.7731   23.3801   46.5157 H   0  0  0  0  0  0  0  0  0  0  0  0
   57.6194   24.8485   48.4676 H   0  0  0  0  0  0  0  0  0  0  0  0
   58.9950   27.4232   48.3357 H   0  0  0  0  0  0  0  0  0  0  0  0
   61.1216   29.1238   45.6555 H   0  0  0  0  0  0  0  0  0  0  0  0
   62.5460   30.9745   46.4546 H   0  0  0  0  0  0  0  0  0  0  0  0
   61.7689   32.5485   48.1879 H   0  0  0  0  0  0  0  0  0  0  0  0
   59.4867   32.2378   49.1433 H   0  0  0  0  0  0  0  0  0  0  0  0
   58.0223   30.3988   48.3810 H   0  0  0  0  0  0  0  0  0  0  0  0
   59.4010   31.9240   44.9850 H   0  0  0  0  0  0  0  0  0  0  0  0
   56.7946   33.2564   44.7004 H   0  0  0  0  0  0  0  0  0  0  0  0
   58.8837   35.0044   45.7578 H   0  0  0  0  0  0  0  0  0  0  0  0
   59.3756   34.1299   44.2679 H   0  0  0  0  0  0  0  0  0  0  0  0
   57.8892   35.1384   44.2679 H   0  0  0  0  0  0  0  0  0  0  0  0
   58.2082   33.0326   47.3716 H   0  0  0  0  0  0  0  0  0  0  0  0
   57.2761   34.5213   46.9954 H   0  0  0  0  0  0  0  0  0  0  0  0
   56.4551   32.9236   46.9954 H   0  0  0  0  0  0  0  0  0  0  0  0
   56.6670   27.5770   43.9960 H   0  0  0  0  0  0  0  0  0  0  0  0
  1  2  1  0
  2  3  1  0
  3  4  1  0
  4  5  2  0
  5  6  1  0
  6  7  2  0
  7  8  1  0
  8  9  2  0
  9 10  1  0
 10 11  2  0
 11 12  1  0
 12 13  2  0
  7 14  1  0
 14 15  2  0
 15 16  1  0
 16 17  2  0
 16 18  1  0
 18 19  1  0
 19 20  1  0
 19 21  1  0
 14 22  1  0
 22 23  1  0
 23 24  2  0
 24  3  1  0
 23  5  1  0
 13  8  1  0
  1 25  1  0
  1 26  1  0
  1 27  1  0
  2 28  1  0
  2 29  1  0
  4 30  1  0
  6 31  1  0
  9 32  1  0
 10 33  1  0
 11 34  1  0
 12 35  1  0
 13 36  1  0
 18 37  1  0
 19 38  1  0
 20 39  1  0
 20 40  1  0
 20 41  1  0
 21 42  1  0
 21 43  1  0
 21 44  1  0
 22 45  1  0
M  END
>  <smiles>  (3) 
CCn1cc2cc(-c3ccccc3)c(=NC(=O)NC(C)C)[nH]c2n1

>  <score_type>  (3) 
oracle

>  <origin>  (3) 
adg

>  <m_score__min__energy>  (3) 
-7.1100000000000003

>  <m_primary>  (3) 
energy

$$$$
3:0
     RDKit          3D

 44 47  0  0  0  0  0  0  0  0999 V2000
   59.4830   22.2570   44.8580 C   0  0  0  0  0  0  0  0  0  0  0  0
   58.3150   23.2030   45.1100 C   0  0  0  0  0  0  0  0  0  0  0  0
   58.5440   23.9910   46.2780 O   0  0  0  0  0  0  0  0  0  0  0  0
   58.7560   25.3790   46.3010 C   0  0  0  0  0  0  0  0  0  0  0  0
   57.6370   26.2170   46.3010 C   0  0  0  0  0  0  0  0  0  0  0  0
   57.7850   27.6060   46.3260 C   0  0  0  0  0  0  0  0  0  0  0  0
   59.0670   28.1870   46.3600 C   0  0  0  0  0  0  0  0  0  0  0  0
   59.2490   29.6620   46.3770 C   0  0  0  0  0  0  0  0  0  0  0  0
   60.3870   30.2570   46.9460 C   0  0  0  0  0  0  0  0  0  0  0  0
   60.5360   31.6520   46.9360 C   0  0  0  0  0  0  0  0  0  0  0  0
   61.7750   32.2280   47.5080 C   0  0  0  0  0  0  0  0  0  0  0  0
   62.5500   33.1330   46.7630 C   0  0  0  0  0  0  0  0  0  0  0  0
   63.7300   33.6570   47.3000 C   0  0  0  0  0  0  0  0  0  0  0  0
   64.1490   33.2740   48.5770 C   0  0  0  0  0  0  0  0  0  0  0  0
   63.3910   32.3640   49.3180 C   0  0  0  0  0  0  0  0  0  0  0  0
   62.2100   31.8380   48.7860 C   0  0  0  0  0  0  0  0  0  0  0  0
   59.5200   32.4520   46.3620 C   0  0  0  0  0  0  0  0  0  0  0  0
   59.5680   33.8620   46.3630 C   0  0  0  0  0  0  0  0  0  0  0  0
   58.5400   34.6040   45.7740 C   0  0  0  0  0  0  0  0  0  0  0  0
   57.4510   33.9570   45.1870 C   0  0  0  0  0  0  0  0  0  0  0  0
   57.3780   32.5630   45.1950 C   0  0  0  0  0  0  0  0  0  0  0  0
   58.3990   31.8080   45.7830 C   0  0  0  0  0  0  0  0  0  0  0  0
   58.3030   30.4540   45.8060 N   0  0  0  0  0  0  0  0  0  0  0  0
   60.1910   27.3440   46.3510 C   0  0  0  0  0  0  0  0  0  0  0  0
   60.0410   25.9550   46.3280 C   0  0  0  0  0  0  0  0  0  0  0  0
   59.8973   21.9215   45.8202 H   0  0  0  0  0  0  0  0  0  0  0  0
   59.1321   21.3854   44.2860 H   0  0  0  0  0  0  0  0  0  0  0  0
   60.2627   22.7813   44.2860 H   0  0  0  0  0  0  0  0  0  0  0  0
   58.1970   23.8694   44.2428 H   0  0  0  0  0  0  0  0  0  0  0  0
   57.4036   22.6057   45.2607 H   0  0  0  0  0  0  0  0  0  0  0  0
   56.6287   25.7778   46.2811 H   0  0  0  0  0  0  0  0  0  0  0  0
   56.8935   28.2503   46.3191 H   0  0  0  0  0  0  0  0  0  0  0  0
   61.1648   29.6265   47.4014 H   0  0  0  0  0  0  0  0  0  0  0  0
   62.2274   33.4302   45.7542 H   0  0  0  0  0  0  0  0  0  0  0  0
   64.3292   34.3716   46.7166 H   0  0  0  0  0  0  0  0  0  0  0  0
   65.0761   33.6892   48.9989 H   0  0  0  0  0  0  0  0  0  0  0  0
   63.7239   32.0609   50.3216 H   0  0  0  0  0  0  0  0  0  0  0  0
   61.6194   31.1165   49.3697 H   0  0  0  0  0  0  0  0  0  0  0  0
   60.4187   34.3802   46.8297 H   0  0  0  0  0  0  0  0  0  0  0  0
   58.5894   35.7029   45.7730 H   0  0  0  0  0  0  0  0  0  0  0  0
   56.6496   34.5464   44.7176 H   0  0  0  0  0  0  0  0  0  0  0  0
   56.5153   32.0565   44.7377 H   0  0  0  0  0  0  0  0  0  0  0  0
   61.1999   27.7822   46.3622 H   0  0  0  0  0  0  0  0  0  0  0  0
   60.9308   25.3083   46.3310 H   0  0  0  0  0  0  0  0  0  0  0  0
  1  2  1  0
  2  3  1  0
  3  4  1  0
  4  5  2  0
  5  6  1  0
  6  7  2  0
  7  8  1  0
  8  9  2  0
  9 10  1  0
 10 11  1  0
 11 12  2  0
 12 13  1  0
 13 14  2  0
 14 15  1  0
 15 16  2  0
 10 17  2  0
 17 18  1  0
 18 19  2  0
 19 20  1  0
 20 21  2  0
 21 22  1  0
 22 23  2  0
  7 24  1  0
 24 25  2  0
 25  4  1  0
 23  8  1  0
 16 11  1  0
 22 17  1  0
  1 26  1  0
  1 27  1  0
  1 28  1  0
  2 29  1  0
  2 30  1  0
  5 31  1  0
  6 32  1  0
  9 33  1  0
 12 34  1  0
 13 35  1  0
 14 36  1  0
 15 37  1  0
 16 38  1  0
 18 39  1  0
 19 40  1  0
 20 41  1  0
 21 42  1  0
 24 43  1  0
 25 44  1  0
M  END
>  <UniqueID>  (4) 
3

>  <SMILES>  (4) 
CCOc1ccc(-c2cc(-c3ccccc3)c3ccccc3n2)cc1

>  <Energy>  (4) 
62.26029076250093

>  <Genealogy>  (4) 
CCOc1ccc(-c2cc(-c3ccccc3)c3ccccc3n2)cc1 (3D coordinates assigned)
CCOc1ccc(-c2cc(-c3ccccc3)c3ccccc3n2)cc1 (optimized conformer: 62.26029076250093 kcal/mol)

>  <smiles>  (4) 
CCOc1ccc(-c2cc(-c3ccccc3)c3ccccc3n2)cc1

>  <score_type>  (4) 
oracle

>  <origin>  (4) 
adg

>  <m_score__min__energy>  (4) 
-8.1199999999999992

>  <m_primary>  (4) 
energy

$$$$
4:0
     RDKit          3D

 51 54  0  0  0  0  0  0  0  0999 V2000
   56.5900   23.5660   43.0580 C   0  0  0  0  0  0  0  0  0  0  0  0
   56.1540   22.2130   42.7010 N   0  0  0  0  0  0  0  0  0  0  0  0
   56.6850   21.2120   43.6390 C   0  0  0  0  0  0  0  0  0  0  0  0
   57.6580   21.8690   44.6260 C   0  0  0  0  0  0  0  0  0  0  0  0
   57.0130   22.1840   45.9810 C   0  0  0  0  0  0  0  0  0  0  0  0
   57.6700   23.2750   46.6300 O   0  0  0  0  0  0  0  0  0  0  0  0
   57.4700   24.6450   46.3800 C   0  0  0  0  0  0  0  0  0  0  0  0
   56.2730   25.1650   45.8620 C   0  0  0  0  0  0  0  0  0  0  0  0
   56.1410   26.5320   45.6340 C   0  0  0  0  0  0  0  0  0  0  0  0
   57.1940   27.4160   45.9200 C   0  0  0  0  0  0  0  0  0  0  0  0
   58.4160   26.9100   46.4530 C   0  0  0  0  0  0  0  0  0  0  0  0
   58.5210   25.5190   46.6740 C   0  0  0  0  0  0  0  0  0  0  0  0
   59.6200   27.8240   46.7930 C   0  0  0  0  0  0  0  0  0  0  0  0
   60.8420   27.4010   45.9510 C   0  0  0  0  0  0  0  0  0  0  0  0
   59.9480   27.7050   48.2960 C   0  0  0  0  0  0  0  0  0  0  0  0
   59.3290   29.2840   46.4930 C   0  0  0  0  0  0  0  0  0  0  0  0
   60.1910   30.3130   46.6880 N   0  0  0  0  0  0  0  0  0  0  0  0
   59.5330   31.4190   46.2920 C   0  0  0  0  0  0  0  0  0  0  0  0
   60.0090   32.7290   46.3020 C   0  0  0  0  0  0  0  0  0  0  0  0
   59.1510   33.7480   45.8410 C   0  0  0  0  0  0  0  0  0  0  0  0
   59.6000   35.1140   45.8340 C   0  0  0  0  0  0  0  0  0  0  0  0
   59.9620   36.2140   45.8290 N   0  0  0  0  0  0  0  0  0  0  0  0
   57.8490   33.4310   45.3850 C   0  0  0  0  0  0  0  0  0  0  0  0
   57.3960   32.0990   45.3860 C   0  0  0  0  0  0  0  0  0  0  0  0
   58.2690   31.1140   45.8480 C   0  0  0  0  0  0  0  0  0  0  0  0
   58.1370   29.7450   45.9760 C   0  0  0  0  0  0  0  0  0  0  0  0
   57.0220   28.8620   45.6660 C   0  0  0  0  0  0  0  0  0  0  0  0
   55.9480   29.3230   45.1940 O   0  0  0  0  0  0  0  0  0  0  0  0
   56.6216   23.6640   44.1532 H   0  0  0  0  0  0  0  0  0  0  0  0
   57.5927   23.7492   42.6444 H   0  0  0  0  0  0  0  0  0  0  0  0
   55.8830   24.3002   42.6444 H   0  0  0  0  0  0  0  0  0  0  0  0
   56.5440   22.0060   41.7530 H   0  0  0  0  0  0  0  0  0  0  0  0
   55.8518   20.7604   44.1974 H   0  0  0  0  0  0  0  0  0  0  0  0
   57.2213   20.4383   43.0700 H   0  0  0  0  0  0  0  0  0  0  0  0
   58.5047   21.1864   44.7908 H   0  0  0  0  0  0  0  0  0  0  0  0
   57.9808   22.8235   44.1847 H   0  0  0  0  0  0  0  0  0  0  0  0
   55.9564   22.4457   45.8223 H   0  0  0  0  0  0  0  0  0  0  0  0
   57.1027   21.2948   46.6223 H   0  0  0  0  0  0  0  0  0  0  0  0
   55.4354   24.4889   45.6352 H   0  0  0  0  0  0  0  0  0  0  0  0
   55.1989   26.9251   45.2242 H   0  0  0  0  0  0  0  0  0  0  0  0
   59.4551   25.1122   47.0887 H   0  0  0  0  0  0  0  0  0  0  0  0
   61.6671   27.1154   46.6200 H   0  0  0  0  0  0  0  0  0  0  0  0
   60.5712   26.5443   45.3164 H   0  0  0  0  0  0  0  0  0  0  0  0
   61.1588   28.2418   45.3164 H   0  0  0  0  0  0  0  0  0  0  0  0
   59.0763   28.0213   48.8877 H   0  0  0  0  0  0  0  0  0  0  0  0
   60.1945   26.6602   48.5359 H   0  0  0  0  0  0  0  0  0  0  0  0
   60.8071   28.3488   48.5359 H   0  0  0  0  0  0  0  0  0  0  0  0
   61.1630   30.2660   47.0650 H   0  0  0  0  0  0  0  0  0  0  0  0
   61.0234   32.9606   46.6588 H   0  0  0  0  0  0  0  0  0  0  0  0
   57.1861   34.2325   45.0270 H   0  0  0  0  0  0  0  0  0  0  0  0
   56.3859   31.8426   45.0338 H   0  0  0  0  0  0  0  0  0  0  0  0
  1  2  1  0
  2  3  1  0
  3  4  1  0
  4  5  1  0
  5  6  1  0
  6  7  1  0
  7  8  2  0
  8  9  1  0
  9 10  2  0
 10 11  1  0
 11 12  2  0
 11 13  1  0
 13 14  1  0
 13 15  1  0
 13 16  1  0
 16 17  1  0
 17 18  1  0
 18 19  2  0
 19 20  1  0
 20 21  1  0
 21 22  3  0
 20 23  2  0
 23 24  1  0
 24 25  2  0
 25 26  1  0
 26 27  1  0
 27 28  2  0
 12  7  1  0
 26 16  2  0
 27 10  1  0
 25 18  1  0
  1 29  1  0
  1 30  1  0
  1 31  1  0
  2 32  1  0
  3 33  1  0
  3 34  1  0
  4 35  1  0
  4 36  1  0
  5 37  1  0
  5 38  1  0
  8 39  1  0
  9 40  1  0
 12 41  1  0
 14 42  1  0
 14 43  1  0
 14 44  1  0
 15 45  1  0
 15 46  1  0
 15 47  1  0
 17 48  1  0
 19 49  1  0
 23 50  1  0
 24 51  1  0
M  END
>  <UniqueID>  (5) 
4

>  <SMILES>  (5) 
CNCCCOc1ccc2c(c1)C(C)(C)c1[nH]c3cc(C#N)ccc3c1C2=O

>  <Energy>  (5) 
90.0626097948051

>  <Genealogy>  (5) 
CNCCCOc1ccc2c(c1)C(C)(C)c1[nH]c3cc(C#N)ccc3c1C2=O (3D coordinates assigned)
CNCCCOc1ccc2c(c1)C(C)(C)c1[nH]c3cc(C#N)ccc3c1C2=O (nonaromatic ring conformer: 90.0626097948051 kcal/mol)

>  <smiles>  (5) 
CNCCCOc1ccc2c(c1)C(C)(C)c1[nH]c3cc(C#N)ccc3c1C2=O

>  <score_type>  (5) 
oracle

>  <origin>  (5) 
adg

>  <m_score__min__energy>  (5) 
-9.0500000000000007

>  <m_primary>  (5) 
energy

$$$$
5:0
     RDKit          3D

 46 48  0  0  0  0  0  0  0  0999 V2000
   62.9540   33.5760   46.7490 C   0  0  0  0  0  0  0  0  0  0  0  0
   62.4090   32.3740   47.5340 C   0  0  0  0  0  0  0  0  0  0  0  0
   60.9610   32.1380   47.3420 N   0  0  0  0  0  0  0  0  0  0  0  0
   60.6440   30.7190   47.1050 C   0  0  0  0  0  0  0  0  0  0  0  0
   60.1200   32.7370   48.4040 C   0  0  0  0  0  0  0  0  0  0  0  0
   58.7290   33.0620   47.8520 C   0  0  0  0  0  0  0  0  0  0  0  0
   58.7840   33.3570   46.4190 N   0  0  0  0  0  0  0  0  0  0  0  0
   59.4860   34.3610   45.8400 C   0  0  0  0  0  0  0  0  0  0  0  0
   59.3440   34.3200   44.4570 C   0  0  0  0  0  0  0  0  0  0  0  0
   58.5260   33.2390   44.2070 C   0  0  0  0  0  0  0  0  0  0  0  0
   58.0630   32.7200   43.0030 C   0  0  0  0  0  0  0  0  0  0  0  0
   57.2360   31.5850   43.0500 C   0  0  0  0  0  0  0  0  0  0  0  0
   56.8830   30.9930   44.2920 C   0  0  0  0  0  0  0  0  0  0  0  0
   56.0090   29.7970   44.3200 C   0  0  0  0  0  0  0  0  0  0  0  0
   55.0720   29.6970   43.4840 O   0  0  0  0  0  0  0  0  0  0  0  0
   56.2270   28.7140   45.2360 N   0  0  0  0  0  0  0  0  0  0  0  0
   57.4940   28.1340   45.5760 C   0  0  0  0  0  0  0  0  0  0  0  0
   58.6780   28.4970   44.9050 C   0  0  0  0  0  0  0  0  0  0  0  0
   59.8970   27.9140   45.2650 C   0  0  0  0  0  0  0  0  0  0  0  0
   59.9470   26.9800   46.3050 C   0  0  0  0  0  0  0  0  0  0  0  0
   61.1300   26.4170   46.6540 F   0  0  0  0  0  0  0  0  0  0  0  0
   58.7800   26.6360   46.9920 C   0  0  0  0  0  0  0  0  0  0  0  0
   57.5590   27.2170   46.6330 C   0  0  0  0  0  0  0  0  0  0  0  0
   57.3930   31.5400   45.4930 C   0  0  0  0  0  0  0  0  0  0  0  0
   58.2040   32.6740   45.4120 C   0  0  0  0  0  0  0  0  0  0  0  0
   63.3031   34.3459   47.4529 H   0  0  0  0  0  0  0  0  0  0  0  0
   63.7927   33.2507   46.1159 H   0  0  0  0  0  0  0  0  0  0  0  0
   62.1567   33.9925   46.1159 H   0  0  0  0  0  0  0  0  0  0  0  0
   62.9523   31.4740   47.2103 H   0  0  0  0  0  0  0  0  0  0  0  0
   62.5571   32.5964   48.6011 H   0  0  0  0  0  0  0  0  0  0  0  0
   60.5287   30.2030   48.0696 H   0  0  0  0  0  0  0  0  0  0  0  0
   59.7067   30.6430   46.5342 H   0  0  0  0  0  0  0  0  0  0  0  0
   61.4598   30.2514   46.5342 H   0  0  0  0  0  0  0  0  0  0  0  0
   60.0238   32.0251   49.2370 H   0  0  0  0  0  0  0  0  0  0  0  0
   60.5931   33.6649   48.7579 H   0  0  0  0  0  0  0  0  0  0  0  0
   58.0673   32.1986   48.0155 H   0  0  0  0  0  0  0  0  0  0  0  0
   58.3448   33.9496   48.3760 H   0  0  0  0  0  0  0  0  0  0  0  0
   60.0844   35.1044   46.3871 H   0  0  0  0  0  0  0  0  0  0  0  0
   59.7895   35.0043   43.7199 H   0  0  0  0  0  0  0  0  0  0  0  0
   58.3357   33.1836   42.0434 H   0  0  0  0  0  0  0  0  0  0  0  0
   56.8573   31.1496   42.1135 H   0  0  0  0  0  0  0  0  0  0  0  0
   58.6437   29.2411   44.0956 H   0  0  0  0  0  0  0  0  0  0  0  0
   60.8175   28.1902   44.7298 H   0  0  0  0  0  0  0  0  0  0  0  0
   58.8213   25.9080   47.8156 H   0  0  0  0  0  0  0  0  0  0  0  0
   56.6445   26.9522   47.1840 H   0  0  0  0  0  0  0  0  0  0  0  0
   57.1568   31.0837   46.4656 H   0  0  0  0  0  0  0  0  0  0  0  0
  1  2  1  0
  2  3  1  0
  3  4  1  0
  3  5  1  0
  5  6  1  0
  6  7  1  0
  7  8  1  0
  8  9  2  0
  9 10  1  0
 10 11  2  0
 11 12  1  0
 12 13  2  0
 13 14  1  0
 14 15  2  0
 14 16  1  0
 16 17  1  0
 17 18  2  0
 18 19  1  0
 19 20  2  0
 20 21  1  0
 20 22  1  0
 22 23  2  0
 13 24  1  0
 24 25  2  0
 25  7  1  0
 25 10  1  0
 23 17  1  0
  1 26  1  0
  1 27  1  0
  1 28  1  0
  2 29  1  0
  2 30  1  0
  4 31  1  0
  4 32  1  0
  4 33  1  0
  5 34  1  0
  5 35  1  0
  6 36  1  0
  6 37  1  0
  8 38  1  0
  9 39  1  0
 11 40  1  0
 12 41  1  0
 18 42  1  0
 19 43  1  0
 22 44  1  0
 23 45  1  0
 24 46  1  0
M  CHG  1  16  -1
M  END
>  <UniqueID>  (6) 
5

>  <SMILES>  (6) 
CCN(C)CCn1ccc2ccc(C(=O)[N-]c3ccc(F)cc3)cc21

>  <Energy>  (6) 
87.11913095794014

>  <Genealogy>  (6) 
CCN(C)CCn1ccc2ccc(C(=O)[N-]c3ccc(F)cc3)cc21 (protonated)
CCN(C)CCn1ccc2ccc(C(=O)[N-]c3ccc(F)cc3)cc21 (3D coordinates assigned)
CCN(C)CCn1ccc2ccc(C(=O)[N-]c3ccc(F)cc3)cc21 (optimized conformer: 87.11913095794014 kcal/mol)

>  <smiles>  (6) 
CCN(C)CCn1ccc2ccc(C(=O)Nc3ccc(F)cc3)cc21

>  <score_type>  (6) 
oracle

>  <origin>  (6) 
adg

>  <m_score__min__energy>  (6) 
-9.2599999999999998

>  <m_primary>  (6) 
energy

$$$$
6:0
     RDKit          3D

 43 44  0  0  0  0  0  0  0  0999 V2000
   57.0420   24.6970   44.4330 C   0  0  0  0  0  0  0  0  0  0  0  0
   55.7930   24.9450   45.2720 C   0  0  0  0  0  0  0  0  0  0  0  0
   56.0050   26.0430   46.2200 N   0  0  0  0  0  0  0  0  0  0  0  0
   57.2940   26.6210   46.5200 C   0  0  0  0  0  0  0  0  0  0  0  0
   58.0890   26.0720   47.5460 C   0  0  0  0  0  0  0  0  0  0  0  0
   59.3180   26.6400   47.8820 C   0  0  0  0  0  0  0  0  0  0  0  0
   59.7730   27.7700   47.2100 C   0  0  0  0  0  0  0  0  0  0  0  0
   59.0080   28.3270   46.1870 C   0  0  0  0  0  0  0  0  0  0  0  0
   57.7730   27.7630   45.8160 C   0  0  0  0  0  0  0  0  0  0  0  0
   57.0700   28.3460   44.5970 C   0  0  0  0  0  0  0  0  0  0  0  0
   55.8660   29.1070   44.9700 N   0  0  0  0  0  0  0  0  0  0  0  0
   55.5460   30.1400   43.9710 C   0  0  0  0  0  0  0  0  0  0  0  0
   56.6430   31.2120   43.8970 C   0  0  0  0  0  0  0  0  0  0  0  0
   57.1550   31.5480   45.2300 N   0  0  0  0  0  0  0  0  0  0  0  0
   57.9420   32.7190   45.5200 C   0  0  0  0  0  0  0  0  0  0  0  0
   58.4650   33.5290   44.4950 C   0  0  0  0  0  0  0  0  0  0  0  0
   59.2540   34.6400   44.8080 C   0  0  0  0  0  0  0  0  0  0  0  0
   59.5170   34.9600   46.1420 C   0  0  0  0  0  0  0  0  0  0  0  0
   58.9860   34.1730   47.1660 C   0  0  0  0  0  0  0  0  0  0  0  0
   58.1980   33.0600   46.8570 C   0  0  0  0  0  0  0  0  0  0  0  0
   57.9020   24.5262   45.0973 H   0  0  0  0  0  0  0  0  0  0  0  0
   56.8876   23.8120   43.7983 H   0  0  0  0  0  0  0  0  0  0  0  0
   57.2374   25.5739   43.7983 H   0  0  0  0  0  0  0  0  0  0  0  0
   54.9571   25.2023   44.6049 H   0  0  0  0  0  0  0  0  0  0  0  0
   55.5660   24.0309   45.8403 H   0  0  0  0  0  0  0  0  0  0  0  0
   55.1640   26.3610   46.7500 H   0  0  0  0  0  0  0  0  0  0  0  0
   57.7355   25.1833   48.0894 H   0  0  0  0  0  0  0  0  0  0  0  0
   59.9289   26.1933   48.6803 H   0  0  0  0  0  0  0  0  0  0  0  0
   60.7363   28.2237   47.4861 H   0  0  0  0  0  0  0  0  0  0  0  0
   59.3749   29.2210   45.6615 H   0  0  0  0  0  0  0  0  0  0  0  0
   57.7661   29.0165   44.0717 H   0  0  0  0  0  0  0  0  0  0  0  0
   56.7597   27.5118   43.9507 H   0  0  0  0  0  0  0  0  0  0  0  0
   56.0200   29.5380   45.9110 H   0  0  0  0  0  0  0  0  0  0  0  0
   55.4448   29.6638   42.9846 H   0  0  0  0  0  0  0  0  0  0  0  0
   54.6065   30.6283   44.2690 H   0  0  0  0  0  0  0  0  0  0  0  0
   57.4717   30.8338   43.2803 H   0  0  0  0  0  0  0  0  0  0  0  0
   56.2093   32.1206   43.4540 H   0  0  0  0  0  0  0  0  0  0  0  0
   57.0470   30.8260   45.9760 H   0  0  0  0  0  0  0  0  0  0  0  0
   58.2522   33.2871   43.4432 H   0  0  0  0  0  0  0  0  0  0  0  0
   59.6685   35.2634   44.0020 H   0  0  0  0  0  0  0  0  0  0  0  0
   60.1422   35.8316   46.3858 H   0  0  0  0  0  0  0  0  0  0  0  0
   59.1878   34.4288   48.2166 H   0  0  0  0  0  0  0  0  0  0  0  0
   57.7759   32.4476   47.6674 H   0  0  0  0  0  0  0  0  0  0  0  0
  1  2  1  0
  2  3  1  0
  3  4  1  0
  4  5  2  0
  5  6  1  0
  6  7  2  0
  7  8  1  0
  8  9  2  0
  9 10  1  0
 10 11  1  0
 11 12  1  0
 12 13  1  0
 13 14  1  0
 14 15  1  0
 15 16  2  0
 16 17  1  0
 17 18  2  0
 18 19  1  0
 19 20  2  0
  9  4  1  0
 20 15  1  0
  1 21  1  0
  1 22  1  0
  1 23  1  0
  2 24  1  0
  2 25  1  0
  3 26  1  0
  5 27  1  0
  6 28  1  0
  7 29  1  0
  8 30  1  0
 10 31  1  0
 10 32  1  0
 11 33  1  0
 12 34  1  0
 12 35  1  0
 13 36  1  0
 13 37  1  0
 14 38  1  0
 16 39  1  0
 17 40  1  0
 18 41  1  0
 19 42  1  0
 20 43  1  0
M  END
>  <UniqueID>  (7) 
6

>  <SMILES>  (7) 
CCNc1ccccc1CNCCNc1ccccc1

>  <Energy>  (7) 
38.255075098509366

>  <Genealogy>  (7) 
CCNc1ccccc1CNCCNc1ccccc1 (3D coordinates assigned)
CCNc1ccccc1CNCCNc1ccccc1 (optimized conformer: 38.255075098509366 kcal/mol)

>  <smiles>  (7) 
CCNc1ccccc1CNCCNc1ccccc1

>  <score_type>  (7) 
oracle

>  <origin>  (7) 
adg

>  <m_score__min__energy>  (7) 
-6.9100000000000001

>  <m_primary>  (7) 
energy

$$$$
7:0
     RDKit          3D

 45 47  0  0  0  0  0  0  0  0999 V2000
   62.4060   30.1770   51.3010 C   0  0  0  0  0  0  0  0  0  0  0  0
   63.1470   31.1780   50.4590 C   0  0  0  0  0  0  0  0  0  0  0  0
   64.4420   31.5690   50.8360 C   0  0  0  0  0  0  0  0  0  0  0  0
   65.1460   32.5110   50.0800 C   0  0  0  0  0  0  0  0  0  0  0  0
   66.9150   33.0180   50.5950 Br  0  0  0  0  0  0  0  0  0  0  0  0
   64.5610   33.0720   48.9430 C   0  0  0  0  0  0  0  0  0  0  0  0
   63.2640   32.7110   48.5650 C   0  0  0  0  0  0  0  0  0  0  0  0
   62.5370   33.4570   46.9560 Br  0  0  0  0  0  0  0  0  0  0  0  0
   62.5390   31.7820   49.3360 C   0  0  0  0  0  0  0  0  0  0  0  0
   61.2300   31.4380   48.9800 O   0  0  0  0  0  0  0  0  0  0  0  0
   60.8850   30.1320   48.5220 C   0  0  0  0  0  0  0  0  0  0  0  0
   60.2990   30.2060   47.1470 C   0  0  0  0  0  0  0  0  0  0  0  0
   61.0270   29.9530   46.1490 O   0  0  0  0  0  0  0  0  0  0  0  0
   58.9400   30.6350   46.9720 N   0  0  0  0  0  0  0  0  0  0  0  0
   58.3250   30.7620   45.6820 C   0  0  0  0  0  0  0  0  0  0  0  0
   57.9300   29.5950   45.0110 C   0  0  0  0  0  0  0  0  0  0  0  0
   57.2750   29.6720   43.7790 C   0  0  0  0  0  0  0  0  0  0  0  0
   57.0200   30.9140   43.2010 C   0  0  0  0  0  0  0  0  0  0  0  0
   57.4320   32.0830   43.8440 C   0  0  0  0  0  0  0  0  0  0  0  0
   58.1000   32.0230   45.0790 C   0  0  0  0  0  0  0  0  0  0  0  0
   58.5780   33.2380   45.6850 N   0  0  0  0  0  0  0  0  0  0  0  0
   59.4570   34.1730   45.0030 C   0  0  0  0  0  0  0  0  0  0  0  0
   59.6390   35.3300   45.9720 C   0  0  0  0  0  0  0  0  0  0  0  0
   59.2710   34.7800   47.3490 C   0  0  0  0  0  0  0  0  0  0  0  0
   58.3920   33.5620   47.0890 C   0  0  0  0  0  0  0  0  0  0  0  0
   62.5709   30.3997   52.3655 H   0  0  0  0  0  0  0  0  0  0  0  0
   61.3306   30.2338   51.0768 H   0  0  0  0  0  0  0  0  0  0  0  0
   62.7743   29.1650   51.0768 H   0  0  0  0  0  0  0  0  0  0  0  0
   64.9056   31.1311   51.7323 H   0  0  0  0  0  0  0  0  0  0  0  0
   65.1232   33.8016   48.3416 H   0  0  0  0  0  0  0  0  0  0  0  0
   61.7881   29.5044   48.4991 H   0  0  0  0  0  0  0  0  0  0  0  0
   60.1424   29.6956   49.2062 H   0  0  0  0  0  0  0  0  0  0  0  0
   58.4560   31.0680   47.7900 H   0  0  0  0  0  0  0  0  0  0  0  0
   58.1375   28.6116   45.4582 H   0  0  0  0  0  0  0  0  0  0  0  0
   56.9605   28.7516   43.2652 H   0  0  0  0  0  0  0  0  0  0  0  0
   56.4935   30.9736   42.2370 H   0  0  0  0  0  0  0  0  0  0  0  0
   57.2319   33.0599   43.3796 H   0  0  0  0  0  0  0  0  0  0  0  0
   60.4251   33.7002   44.7809 H   0  0  0  0  0  0  0  0  0  0  0  0
   59.0374   34.5045   44.0417 H   0  0  0  0  0  0  0  0  0  0  0  0
   60.6832   35.6760   45.9640 H   0  0  0  0  0  0  0  0  0  0  0  0
   59.0110   36.1906   45.6982 H   0  0  0  0  0  0  0  0  0  0  0  0
   60.1774   34.4876   47.8993 H   0  0  0  0  0  0  0  0  0  0  0  0
   58.7498   35.5323   47.9591 H   0  0  0  0  0  0  0  0  0  0  0  0
   58.7064   32.7194   47.7224 H   0  0  0  0  0  0  0  0  0  0  0  0
   57.3365   33.7645   47.3235 H   0  0  0  0  0  0  0  0  0  0  0  0
  1  2  1  0
  2  3  2  0
  3  4  1  0
  4  5  1  0
  4  6  2  0
  6  7  1  0
  7  8  1  0
  7  9  2  0
  9 10  1  0
 10 11  1  0
 11 12  1  0
 12 13  2  0
 12 14  1  0
 14 15  1  0
 15 16  2  0
 16 17  1  0
 17 18  2  0
 18 19  1  0
 19 20  2  0
 20 21  1  0
 21 22  1  0
 22 23  1  0
 23 24  1  0
 24 25  1  0
  9  2  1  0
 20 15  1  0
 25 21  1  0
  1 26  1  0
  1 27  1  0
  1 28  1  0
  3 29  1  0
  6 30  1  0
 11 31  1  0
 11 32  1  0
 14 33  1  0
 16 34  1  0
 17 35  1  0
 18 36  1  0
 19 37  1  0
 22 38  1  0
 22 39  1  0
 23 40  1  0
 23 41  1  0
 24 42  1  0
 24 43  1  0
 25 44  1  0
 25 45  1  0
M  END
>  <UniqueID>  (8) 
7

>  <SMILES>  (8) 
Cc1cc(Br)cc(Br)c1OCC(=O)Nc1ccccc1N1CCCC1

>  <Energy>  (8) 
58.86399282294268

>  <Genealogy>  (8) 
Cc1cc(Br)cc(Br)c1OCC(=O)Nc1ccccc1N1CCCC1 (3D coordinates assigned)
Cc1cc(Br)cc(Br)c1OCC(=O)Nc1ccccc1N1CCCC1 (nonaromatic ring conformer: 58.86399282294268 kcal/mol)

>  <smiles>  (8) 
Cc1cc(Br)cc(Br)c1OCC(=O)Nc1ccccc1N1CCCC1

>  <score_type>  (8) 
oracle

>  <origin>  (8) 
adg

>  <m_score__min__energy>  (8) 
-7.7300000000000004

>  <m_primary>  (8) 
energy

$$$$
8:0
     RDKit          3D

 55 57  0  0  0  0  0  0  0  0999 V2000
   56.1510   23.2160   44.5780 C   0  0  0  0  0  0  0  0  0  0  0  0
   57.4280   23.9470   44.4770 N   0  0  0  0  0  0  0  0  0  0  0  0
   57.3640   24.8780   43.3380 C   0  0  0  0  0  0  0  0  0  0  0  0
   57.7190   24.6950   45.7200 C   0  0  0  0  0  0  0  0  0  0  0  0
   56.6310   25.7510   46.0020 C   0  0  0  0  0  0  0  0  0  0  0  0
   57.1980   27.0960   46.1950 N   0  0  0  0  0  0  0  0  0  0  0  0
   58.6140   27.0470   46.5810 C   0  0  0  0  0  0  0  0  0  0  0  0
   59.1660   28.4470   46.6650 C   0  0  0  0  0  0  0  0  0  0  0  0
   58.7670   29.4720   45.8070 C   0  0  0  0  0  0  0  0  0  0  0  0
   57.8070   29.3180   44.7510 N   0  0  0  0  0  0  0  0  0  0  0  0
   56.4700   29.8290   44.7180 C   0  0  0  0  0  0  0  0  0  0  0  0
   55.5120   29.0300   44.8830 O   0  0  0  0  0  0  0  0  0  0  0  0
   56.2210   31.2300   44.5400 N   0  0  0  0  0  0  0  0  0  0  0  0
   57.1280   32.3140   44.7890 C   0  0  0  0  0  0  0  0  0  0  0  0
   58.0820   32.7300   43.8390 C   0  0  0  0  0  0  0  0  0  0  0  0
   58.9520   33.7860   44.1330 C   0  0  0  0  0  0  0  0  0  0  0  0
   58.8920   34.4200   45.3780 C   0  0  0  0  0  0  0  0  0  0  0  0
   57.9640   33.9960   46.3330 C   0  0  0  0  0  0  0  0  0  0  0  0
   57.0910   32.9420   46.0420 C   0  0  0  0  0  0  0  0  0  0  0  0
   59.5450   30.8960   46.2500 S   0  0  0  0  0  0  0  0  0  0  0  0
   60.3990   30.2460   47.5440 C   0  0  0  0  0  0  0  0  0  0  0  0
   60.0970   28.8810   47.6400 C   0  0  0  0  0  0  0  0  0  0  0  0
   60.6910   27.9980   48.7070 C   0  0  0  0  0  0  0  0  0  0  0  0
   60.1860   28.3730   50.1110 C   0  0  0  0  0  0  0  0  0  0  0  0
   60.2400   29.8800   50.4400 C   0  0  0  0  0  0  0  0  0  0  0  0
   61.4870   30.5800   49.8720 C   0  0  0  0  0  0  0  0  0  0  0  0
   61.3300   31.0590   48.4100 C   0  0  0  0  0  0  0  0  0  0  0  0
   55.8952   23.0696   45.6378 H   0  0  0  0  0  0  0  0  0  0  0  0
   55.3565   23.7961   44.0858 H   0  0  0  0  0  0  0  0  0  0  0  0
   56.2489   22.2372   44.0858 H   0  0  0  0  0  0  0  0  0  0  0  0
   57.2930   25.9102   43.7116 H   0  0  0  0  0  0  0  0  0  0  0  0
   58.2716   24.7713   42.7257 H   0  0  0  0  0  0  0  0  0  0  0  0
   56.4795   24.6481   42.7257 H   0  0  0  0  0  0  0  0  0  0  0  0
   57.7608   23.9889   46.5624 H   0  0  0  0  0  0  0  0  0  0  0  0
   58.6828   25.2111   45.5989 H   0  0  0  0  0  0  0  0  0  0  0  0
   55.9351   25.7788   45.1505 H   0  0  0  0  0  0  0  0  0  0  0  0
   56.1158   25.4653   46.9309 H   0  0  0  0  0  0  0  0  0  0  0  0
   57.1020   27.6550   45.3140 H   0  0  0  0  0  0  0  0  0  0  0  0
   58.7091   26.5570   47.5612 H   0  0  0  0  0  0  0  0  0  0  0  0
   59.1777   26.4776   45.8273 H   0  0  0  0  0  0  0  0  0  0  0  0
   58.1430   32.2237   42.8644 H   0  0  0  0  0  0  0  0  0  0  0  0
   59.6848   34.1182   43.3829 H   0  0  0  0  0  0  0  0  0  0  0  0
   59.5748   35.2519   45.6055 H   0  0  0  0  0  0  0  0  0  0  0  0
   57.9198   34.4912   47.3142 H   0  0  0  0  0  0  0  0  0  0  0  0
   56.3707   32.6038   46.8015 H   0  0  0  0  0  0  0  0  0  0  0  0
   60.4161   26.9537   48.4977 H   0  0  0  0  0  0  0  0  0  0  0  0
   61.7826   28.1324   48.6910 H   0  0  0  0  0  0  0  0  0  0  0  0
   59.1408   28.0415   50.1980 H   0  0  0  0  0  0  0  0  0  0  0  0
   60.8609   27.8772   50.8242 H   0  0  0  0  0  0  0  0  0  0  0  0
   59.3458   30.3622   50.0182 H   0  0  0  0  0  0  0  0  0  0  0  0
   60.2825   29.9742   51.5351 H   0  0  0  0  0  0  0  0  0  0  0  0
   61.7085   31.4551   50.5005 H   0  0  0  0  0  0  0  0  0  0  0  0
   62.2984   29.8373   49.8775 H   0  0  0  0  0  0  0  0  0  0  0  0
   60.9523   32.0919   48.4329 H   0  0  0  0  0  0  0  0  0  0  0  0
   62.3259   30.9540   47.9549 H   0  0  0  0  0  0  0  0  0  0  0  0
  1  2  1  0
  2  3  1  0
  2  4  1  0
  4  5  1  0
  5  6  1  0
  6  7  1  0
  7  8  1  0
  8  9  2  0
  9 10  1  0
 10 11  1  0
 11 12  2  0
 11 13  1  0
 13 14  1  0
 14 15  2  0
 15 16  1  0
 16 17  2  0
 17 18  1  0
 18 19  2  0
  9 20  1  0
 20 21  1  0
 21 22  2  0
 22 23  1  0
 23 24  1  0
 24 25  1  0
 25 26  1  0
 26 27  1  0
 22  8  1  0
 19 14  1  0
 27 21  1  0
  1 28  1  0
  1 29  1  0
  1 30  1  0
  3 31  1  0
  3 32  1  0
  3 33  1  0
  4 34  1  0
  4 35  1  0
  5 36  1  0
  5 37  1  0
  6 38  1  0
  7 39  1  0
  7 40  1  0
 15 41  1  0
 16 42  1  0
 17 43  1  0
 18 44  1  0
 19 45  1  0
 23 46  1  0
 23 47  1  0
 24 48  1  0
 24 49  1  0
 25 50  1  0
 25 51  1  0
 26 52  1  0
 26 53  1  0
 27 54  1  0
 27 55  1  0
M  CHG  2  10  -1  13  -1
M  END
>  <UniqueID>  (9) 
8

>  <SMILES>  (9) 
CN(C)CCNCc1c([N-]C(=O)[N-]c2ccccc2)sc2c1CCCCC2

>  <Energy>  (9) 
91.03392072791301

>  <Genealogy>  (9) 
CN(C)CCNCc1c([N-]C(=O)[N-]c2ccccc2)sc2c1CCCCC2 (protonated)
CN(C)CCNCc1c([N-]C(=O)[N-]c2ccccc2)sc2c1CCCCC2 (3D coordinates assigned)
CN(C)CCNCc1c([N-]C(=O)[N-]c2ccccc2)sc2c1CCCCC2 (nonaromatic ring conformer: 91.03392072791301 kcal/mol)

>  <smiles>  (9) 
CN(C)CCNCc1c(NC(=O)Nc2ccccc2)sc2c1CCCCC2

>  <score_type>  (9) 
oracle

>  <origin>  (9) 
adg

>  <m_score__min__energy>  (9) 
-10.029999999999999

>  <m_primary>  (9) 
energy

$$$$
9:0
     RDKit          3D

 50 52  0  0  0  0  0  0  0  0999 V2000
   56.6610   23.4870   43.7180 C   0  0  0  0  0  0  0  0  0  0  0  0
   55.1440   23.6070   43.8320 C   0  0  0  0  0  0  0  0  0  0  0  0
   54.6970   23.6110   45.2990 C   0  0  0  0  0  0  0  0  0  0  0  0
   53.7560   24.7850   45.5840 C   0  0  0  0  0  0  0  0  0  0  0  0
   54.5160   25.9610   45.9950 N   0  0  0  0  0  0  0  0  0  0  0  0
   55.9220   25.9450   46.2540 C   0  0  0  0  0  0  0  0  0  0  0  0
   56.3730   25.3400   47.2650 O   0  0  0  0  0  0  0  0  0  0  0  0
   56.7860   26.5550   45.3380 O   0  0  0  0  0  0  0  0  0  0  0  0
   57.6930   27.5820   45.6380 C   0  0  0  0  0  0  0  0  0  0  0  0
   58.1840   28.4600   44.6600 C   0  0  0  0  0  0  0  0  0  0  0  0
   59.0970   29.4580   45.0040 C   0  0  0  0  0  0  0  0  0  0  0  0
   59.5350   29.6020   46.3320 C   0  0  0  0  0  0  0  0  0  0  0  0
   59.0580   28.7100   47.3150 C   0  0  0  0  0  0  0  0  0  0  0  0
   58.1530   27.6980   46.9540 C   0  0  0  0  0  0  0  0  0  0  0  0
   59.6000   28.7400   48.7240 C   0  0  0  0  0  0  0  0  0  0  0  0
   60.1520   30.0540   49.1000 N   0  0  0  0  0  0  0  0  0  0  0  0
   59.1020   31.0180   49.4680 C   0  0  0  0  0  0  0  0  0  0  0  0
   61.1030   30.5640   48.0950 C   0  0  0  0  0  0  0  0  0  0  0  0
   60.4910   30.7260   46.6800 C   0  0  2  0  0  0  0  0  0  0  0  0
   59.9020   32.1190   46.4750 C   0  0  0  0  0  0  0  0  0  0  0  0
   58.5550   32.3350   46.1100 C   0  0  0  0  0  0  0  0  0  0  0  0
   58.0630   33.6330   45.9490 C   0  0  0  0  0  0  0  0  0  0  0  0
   58.9010   34.7310   46.1480 C   0  0  0  0  0  0  0  0  0  0  0  0
   60.2350   34.5350   46.5070 C   0  0  0  0  0  0  0  0  0  0  0  0
   60.7330   33.2390   46.6700 C   0  0  0  0  0  0  0  0  0  0  0  0
   57.1027   23.4521   44.7248 H   0  0  0  0  0  0  0  0  0  0  0  0
   56.9161   22.5659   43.1735 H   0  0  0  0  0  0  0  0  0  0  0  0
   57.0577   24.3566   43.1735 H   0  0  0  0  0  0  0  0  0  0  0  0
   54.8214   24.5447   43.3560 H   0  0  0  0  0  0  0  0  0  0  0  0
   54.6873   22.7408   43.3309 H   0  0  0  0  0  0  0  0  0  0  0  0
   54.1729   22.6689   45.5177 H   0  0  0  0  0  0  0  0  0  0  0  0
   55.5879   23.7140   45.9360 H   0  0  0  0  0  0  0  0  0  0  0  0
   53.1868   25.0220   44.6731 H   0  0  0  0  0  0  0  0  0  0  0  0
   53.0706   24.5024   46.3967 H   0  0  0  0  0  0  0  0  0  0  0  0
   57.8478   28.3613   43.6173 H   0  0  0  0  0  0  0  0  0  0  0  0
   59.4776   30.1387   44.2282 H   0  0  0  0  0  0  0  0  0  0  0  0
   57.8014   26.9873   47.7164 H   0  0  0  0  0  0  0  0  0  0  0  0
   58.7846   28.4903   49.4188 H   0  0  0  0  0  0  0  0  0  0  0  0
   60.4215   28.0103   48.7765 H   0  0  0  0  0  0  0  0  0  0  0  0
   59.0315   31.0828   50.5638 H   0  0  0  0  0  0  0  0  0  0  0  0
   59.3524   32.0074   49.0576 H   0  0  0  0  0  0  0  0  0  0  0  0
   58.1376   30.6842   49.0576 H   0  0  0  0  0  0  0  0  0  0  0  0
   61.4676   31.5464   48.4297 H   0  0  0  0  0  0  0  0  0  0  0  0
   61.9101   29.8213   48.0118 H   0  0  0  0  0  0  0  0  0  0  0  0
   61.3129   30.6377   45.9543 H   0  0  0  0  0  0  0  0  0  0  0  0
   57.8879   31.4749   45.9512 H   0  0  0  0  0  0  0  0  0  0  0  0
   57.0120   33.7897   45.6646 H   0  0  0  0  0  0  0  0  0  0  0  0
   58.5098   35.7513   46.0218 H   0  0  0  0  0  0  0  0  0  0  0  0
   60.8954   35.4010   46.6619 H   0  0  0  0  0  0  0  0  0  0  0  0
   61.7856   33.0925   46.9537 H   0  0  0  0  0  0  0  0  0  0  0  0
  1  2  1  0
  2  3  1  0
  3  4  1  0
  4  5  1  0
  5  6  1  0
  6  7  2  0
  6  8  1  0
  8  9  1  0
  9 10  2  0
 10 11  1  0
 11 12  2  0
 12 13  1  0
 13 14  2  0
 13 15  1  0
 15 16  1  0
 16 17  1  0
 16 18  1  0
 18 19  1  0
 19 20  1  0
 20 21  2  0
 21 22  1  0
 22 23  2  0
 23 24  1  0
 24 25  2  0
 14  9  1  0
 25 20  1  0
 19 12  1  0
  1 26  1  0
  1 27  1  0
  1 28  1  0
  2 29  1  0
  2 30  1  0
  3 31  1  0
  3 32  1  0
  4 33  1  0
  4 34  1  0
 10 35  1  0
 11 36  1  0
 14 37  1  0
 15 38  1  0
 15 39  1  0
 17 40  1  0
 17 41  1  0
 17 42  1  0
 18 43  1  0
 18 44  1  0
 19 45  1  6
 21 46  1  0
 22 47  1  0
 23 48  1  0
 24 49  1  0
 25 50  1  0
M  CHG  1   5  -1
M  END
>  <UniqueID>  (10) 
9

>  <SMILES>  (10) 
CCCC[N-]C(=O)Oc1ccc2c(c1)CN(C)C[C@@H]2c1ccccc1

>  <Energy>  (10) 
57.050598559646836

>  <Genealogy>  (10) 
CCCC[N-]C(=O)Oc1ccc2c(c1)CN(C)CC2c1ccccc1 (protonated)
CCCC[N-]C(=O)Oc1ccc2c(c1)CN(C)C[C@@H]2c1ccccc1 (chirality)
CCCC[N-]C(=O)Oc1ccc2c(c1)CN(C)C[C@@H]2c1ccccc1 (3D coordinates assigned)
CCCC[N-]C(=O)Oc1ccc2c(c1)CN(C)C[C@@H]2c1ccccc1 (nonaromatic ring conformer: 57.050598559646836 kcal/mol)

>  <smiles>  (10) 
CCCCNC(=O)Oc1ccc2c(c1)CN(C)CC2c1ccccc1

>  <score_type>  (10) 
oracle

>  <origin>  (10) 
adg

>  <m_score__min__energy>  (10) 
-10.300000000000001

>  <m_primary>  (10) 
energy

$$$$
10:0
     RDKit          3D

 49 50  0  0  0  0  0  0  0  0999 V2000
   59.2700   27.9200   44.4680 C   0  0  0  0  0  0  0  0  0  0  0  0
   57.7710   27.8580   44.7500 C   0  0  0  0  0  0  0  0  0  0  0  0
   57.3770   28.6380   46.0140 C   0  0  0  0  0  0  0  0  0  0  0  0
   58.1010   29.9260   46.1060 N   0  0  0  0  0  0  0  0  0  0  0  0
   57.7140   30.9760   45.3120 C   0  0  0  0  0  0  0  0  0  0  0  0
   56.7640   30.8220   44.4930 O   0  0  0  0  0  0  0  0  0  0  0  0
   58.3500   32.1890   45.3900 N   0  0  0  0  0  0  0  0  0  0  0  0
   57.9360   33.2970   44.5020 C   0  0  0  0  0  0  0  0  0  0  0  0
   57.0160   34.2600   45.2450 C   0  0  0  0  0  0  0  0  0  0  0  0
   59.4040   32.3630   46.2500 C   0  0  0  0  0  0  0  0  0  0  0  0
   60.0120   33.4690   46.2720 O   0  0  0  0  0  0  0  0  0  0  0  0
   59.8120   31.3130   47.0950 C   0  0  0  0  0  0  0  0  0  0  0  0
   60.8730   31.4140   48.0340 C   0  0  0  0  0  0  0  0  0  0  0  0
   61.5990   32.6410   48.2310 N   0  0  0  0  0  0  0  0  0  0  0  0
   61.0400   33.6620   49.1230 C   0  0  0  0  0  0  0  0  0  0  0  0
   59.7230   33.1860   49.7280 C   0  0  0  0  0  0  0  0  0  0  0  0
   63.0060   32.7150   47.8180 C   0  0  0  0  0  0  0  0  0  0  0  0
   63.1990   33.7810   46.7450 C   0  0  0  0  0  0  0  0  0  0  0  0
   61.2060   30.3330   48.7910 N   0  0  0  0  0  0  0  0  0  0  0  0
   60.5400   29.1560   48.6710 C   0  0  0  0  0  0  0  0  0  0  0  0
   60.9090   27.9870   49.5280 C   0  0  0  0  0  0  0  0  0  0  0  0
   59.5210   29.0460   47.7870 N   0  0  0  0  0  0  0  0  0  0  0  0
   59.1360   30.0820   46.9930 C   0  0  0  0  0  0  0  0  0  0  0  0
   59.8215   27.9428   45.4195 H   0  0  0  0  0  0  0  0  0  0  0  0
   59.5715   27.0336   43.8906 H   0  0  0  0  0  0  0  0  0  0  0  0
   59.4972   28.8283   43.8906 H   0  0  0  0  0  0  0  0  0  0  0  0
   57.2325   28.2839   43.8905 H   0  0  0  0  0  0  0  0  0  0  0  0
   57.5048   26.8030   44.9118 H   0  0  0  0  0  0  0  0  0  0  0  0
   56.2955   28.8372   45.9882 H   0  0  0  0  0  0  0  0  0  0  0  0
   57.6430   28.0298   46.8911 H   0  0  0  0  0  0  0  0  0  0  0  0
   58.8293   33.8404   44.1603 H   0  0  0  0  0  0  0  0  0  0  0  0
   57.3941   32.8797   43.6405 H   0  0  0  0  0  0  0  0  0  0  0  0
   57.1438   34.1262   46.3293 H   0  0  0  0  0  0  0  0  0  0  0  0
   57.2697   35.2946   44.9708 H   0  0  0  0  0  0  0  0  0  0  0  0
   55.9709   34.0538   44.9708 H   0  0  0  0  0  0  0  0  0  0  0  0
   61.7565   33.8660   49.9324 H   0  0  0  0  0  0  0  0  0  0  0  0
   60.8521   34.5761   48.5407 H   0  0  0  0  0  0  0  0  0  0  0  0
   59.7933   33.2114   50.8255 H   0  0  0  0  0  0  0  0  0  0  0  0
   58.9077   33.8464   49.3974 H   0  0  0  0  0  0  0  0  0  0  0  0
   59.5183   32.1570   49.3974 H   0  0  0  0  0  0  0  0  0  0  0  0
   63.6257   32.9659   48.6915 H   0  0  0  0  0  0  0  0  0  0  0  0
   63.3043   31.7402   47.4048 H   0  0  0  0  0  0  0  0  0  0  0  0
   63.3754   34.7555   47.2238 H   0  0  0  0  0  0  0  0  0  0  0  0
   64.0642   33.5183   46.1186 H   0  0  0  0  0  0  0  0  0  0  0  0
   62.2966   33.8383   46.1186 H   0  0  0  0  0  0  0  0  0  0  0  0
   61.9780   30.4140   49.4910 H   0  0  0  0  0  0  0  0  0  0  0  0
   60.8206   28.2671   50.5881 H   0  0  0  0  0  0  0  0  0  0  0  0
   60.2324   27.1467   49.3131 H   0  0  0  0  0  0  0  0  0  0  0  0
   61.9454   27.6874   49.3131 H   0  0  0  0  0  0  0  0  0  0  0  0
  1  2  1  0
  2  3  1  0
  3  4  1  0
  4  5  1  0
  5  6  2  0
  5  7  1  0
  7  8  1  0
  8  9  1  0
  7 10  1  0
 10 11  2  0
 10 12  1  0
 12 13  2  0
 13 14  1  0
 14 15  1  0
 15 16  1  0
 14 17  1  0
 17 18  1  0
 13 19  1  0
 19 20  2  0
 20 21  1  0
 20 22  1  0
 22 23  2  0
 23  4  1  0
 23 12  1  0
  1 24  1  0
  1 25  1  0
  1 26  1  0
  2 27  1  0
  2 28  1  0
  3 29  1  0
  3 30  1  0
  8 31  1  0
  8 32  1  0
  9 33  1  0
  9 34  1  0
  9 35  1  0
 15 36  1  0
 15 37  1  0
 16 38  1  0
 16 39  1  0
 16 40  1  0
 17 41  1  0
 17 42  1  0
 18 43  1  0
 18 44  1  0
 18 45  1  0
 19 46  1  0
 21 47  1  0
 21 48  1  0
 21 49  1  0
M  CHG  1  19   1
M  END
>  <UniqueID>  (11) 
10

>  <SMILES>  (11) 
CCCn1c(=O)n(CC)c(=O)c2c(N(CC)CC)[nH+]c(C)nc21

>  <Energy>  (11) 
51.28853440748344

>  <Genealogy>  (11) 
CCCn1c(=O)n(CC)c(=O)c2c(N(CC)CC)[nH+]c(C)nc21 (protonated)
CCCn1c(=O)n(CC)c(=O)c2c(N(CC)CC)[nH+]c(C)nc21 (3D coordinates assigned)
CCCn1c(=O)n(CC)c(=O)c2c(N(CC)CC)[nH+]c(C)nc21 (optimized conformer: 51.28853440748344 kcal/mol)

>  <smiles>  (11) 
CCCn1c(=O)n(CC)c(=O)c2c(N(CC)CC)nc(C)nc21

>  <score_type>  (11) 
oracle

>  <origin>  (11) 
adg

>  <m_score__min__energy>  (11) 
-4.6799999999999997

>  <m_primary>  (11) 
energy

$$$$
11:0
     RDKit          3D

 74 77  0  0  0  0  0  0  0  0999 V2000
   63.2860   33.8340   46.5550 C   0  0  0  0  0  0  0  0  0  0  0  0
   63.1170   32.4310   47.1410 C   0  0  0  0  0  0  0  0  0  0  0  0
   62.5070   32.4820   48.4890 N   0  0  0  0  0  0  0  0  0  0  0  0
   62.3940   33.8830   48.9530 C   0  0  0  0  0  0  0  0  0  0  0  0
   60.9580   34.2100   49.3610 C   0  0  0  0  0  0  0  0  0  0  0  0
   63.2470   31.6360   49.4610 C   0  0  0  0  0  0  0  0  0  0  0  0
   62.3300   31.2890   50.6370 C   0  0  0  0  0  0  0  0  0  0  0  0
   61.3610   30.3380   50.2380 O   0  0  0  0  0  0  0  0  0  0  0  0
   60.0930   30.6840   50.7570 C   0  0  0  0  0  0  0  0  0  0  0  0
   59.2100   31.2080   49.6290 C   0  0  0  0  0  0  0  0  0  0  0  0
   59.9240   31.1580   48.3540 N   0  0  0  0  0  0  0  0  0  0  0  0
   59.2170   30.9680   47.1130 C   0  0  0  0  0  0  0  0  0  0  0  0
   59.0110   32.0540   46.2430 C   0  0  0  0  0  0  0  0  0  0  0  0
   59.4840   33.3450   46.5590 C   0  0  0  0  0  0  0  0  0  0  0  0
   59.2780   34.4130   45.6880 C   0  0  0  0  0  0  0  0  0  0  0  0
   58.5960   34.2150   44.4930 C   0  0  0  0  0  0  0  0  0  0  0  0
   58.1080   32.9510   44.1650 C   0  0  0  0  0  0  0  0  0  0  0  0
   58.3000   31.8470   45.0330 C   0  0  0  0  0  0  0  0  0  0  0  0
   57.8050   30.5970   44.7230 N   0  0  0  0  0  0  0  0  0  0  0  0
   56.6540   30.5080   43.7970 C   0  0  0  0  0  0  0  0  0  0  0  0
   58.2220   29.4900   45.4410 C   0  0  0  0  0  0  0  0  0  0  0  0
   58.7930   29.6830   46.7280 C   0  0  0  0  0  0  0  0  0  0  0  0
   58.8980   28.5940   47.6120 C   0  0  0  0  0  0  0  0  0  0  0  0
   58.5520   27.3120   47.2070 C   0  0  0  0  0  0  0  0  0  0  0  0
   58.1910   27.0660   45.8810 C   0  0  0  0  0  0  0  0  0  0  0  0
   57.9870   25.7460   45.4510 C   0  0  0  0  0  0  0  0  0  0  0  0
   57.7550   25.4600   44.1040 C   0  0  0  0  0  0  0  0  0  0  0  0
   57.5500   24.1200   43.7360 O   0  0  0  0  0  0  0  0  0  0  0  0
   57.7980   22.9830   44.5650 C   0  0  0  0  0  0  0  0  0  0  0  0
   57.9830   21.7110   43.7280 C   0  0  0  0  0  0  0  0  0  0  0  0
   56.6810   21.2930   43.0380 C   0  0  0  0  0  0  0  0  0  0  0  0
   55.9300   22.4740   42.6270 N   0  0  0  0  0  0  0  0  0  0  0  0
   57.7680   26.5120   43.1730 C   0  0  0  0  0  0  0  0  0  0  0  0
   57.9510   27.8290   43.5960 C   0  0  0  0  0  0  0  0  0  0  0  0
   58.0800   28.1450   44.9660 C   0  0  0  0  0  0  0  0  0  0  0  0
   63.3740   34.5647   47.3725 H   0  0  0  0  0  0  0  0  0  0  0  0
   64.1945   33.8657   45.9356 H   0  0  0  0  0  0  0  0  0  0  0  0
   62.4111   34.0805   45.9356 H   0  0  0  0  0  0  0  0  0  0  0  0
   62.4691   31.8406   46.4764 H   0  0  0  0  0  0  0  0  0  0  0  0
   64.1111   31.9680   47.2266 H   0  0  0  0  0  0  0  0  0  0  0  0
   63.0564   34.0298   49.8188 H   0  0  0  0  0  0  0  0  0  0  0  0
   62.6848   34.5502   48.1282 H   0  0  0  0  0  0  0  0  0  0  0  0
   60.8834   34.2270   50.4583 H   0  0  0  0  0  0  0  0  0  0  0  0
   60.6779   35.1949   48.9592 H   0  0  0  0  0  0  0  0  0  0  0  0
   60.2791   33.4435   48.9592 H   0  0  0  0  0  0  0  0  0  0  0  0
   63.5749   30.7100   48.9660 H   0  0  0  0  0  0  0  0  0  0  0  0
   64.1256   32.1850   49.8306 H   0  0  0  0  0  0  0  0  0  0  0  0
   62.9329   30.8712   51.4567 H   0  0  0  0  0  0  0  0  0  0  0  0
   61.8183   32.2024   50.9744 H   0  0  0  0  0  0  0  0  0  0  0  0
   59.6255   29.7955   51.2066 H   0  0  0  0  0  0  0  0  0  0  0  0
   60.2101   31.4634   51.5244 H   0  0  0  0  0  0  0  0  0  0  0  0
   58.3039   30.5881   49.5609 H   0  0  0  0  0  0  0  0  0  0  0  0
   58.9399   32.2523   49.8446 H   0  0  0  0  0  0  0  0  0  0  0  0
   60.9520   30.9790   48.3750 H   0  0  0  0  0  0  0  0  0  0  0  0
   60.0218   33.5105   47.5042 H   0  0  0  0  0  0  0  0  0  0  0  0
   59.6553   35.4135   45.9462 H   0  0  0  0  0  0  0  0  0  0  0  0
   58.4409   35.0584   43.8040 H   0  0  0  0  0  0  0  0  0  0  0  0
   57.5659   32.8083   43.2186 H   0  0  0  0  0  0  0  0  0  0  0  0
   55.7219   30.4359   44.3766 H   0  0  0  0  0  0  0  0  0  0  0  0
   56.6231   31.4064   43.1631 H   0  0  0  0  0  0  0  0  0  0  0  0
   56.7616   29.6155   43.1631 H   0  0  0  0  0  0  0  0  0  0  0  0
   59.2590   28.7603   48.6377 H   0  0  0  0  0  0  0  0  0  0  0  0
   58.5623   26.4865   47.9340 H   0  0  0  0  0  0  0  0  0  0  0  0
   58.0101   24.9263   46.1841 H   0  0  0  0  0  0  0  0  0  0  0  0
   58.7106   23.1607   45.1529 H   0  0  0  0  0  0  0  0  0  0  0  0
   56.9303   22.8400   45.2258 H   0  0  0  0  0  0  0  0  0  0  0  0
   58.7492   21.8972   42.9610 H   0  0  0  0  0  0  0  0  0  0  0  0
   58.2901   20.8981   44.4025 H   0  0  0  0  0  0  0  0  0  0  0  0
   56.9176   20.6857   42.1519 H   0  0  0  0  0  0  0  0  0  0  0  0
   56.0726   20.7065   43.7421 H   0  0  0  0  0  0  0  0  0  0  0  0
   56.5620   23.0820   42.0570 H   0  0  0  0  0  0  0  0  0  0  0  0
   55.6960   23.0190   43.4890 H   0  0  0  0  0  0  0  0  0  0  0  0
   57.6329   26.2959   42.1029 H   0  0  0  0  0  0  0  0  0  0  0  0
   57.9955   28.6352   42.8490 H   0  0  0  0  0  0  0  0  0  0  0  0
  1  2  1  0
  2  3  1  0
  3  4  1  0
  4  5  1  0
  3  6  1  0
  6  7  1  0
  7  8  1  0
  8  9  1  0
  9 10  1  0
 10 11  1  0
 11 12  1  0
 12 13  2  0
 13 14  1  0
 14 15  2  0
 15 16  1  0
 16 17  2  0
 17 18  1  0
 18 19  2  0
 19 20  1  0
 19 21  1  0
 21 22  2  0
 22 23  1  0
 23 24  2  0
 24 25  1  0
 25 26  2  0
 26 27  1  0
 27 28  1  0
 28 29  1  0
 29 30  1  0
 30 31  1  0
 31 32  1  0
 27 33  2  0
 33 34  1  0
 34 35  2  0
 22 12  1  0
 35 25  1  0
 18 13  1  0
 35 21  1  0
  1 36  1  0
  1 37  1  0
  1 38  1  0
  2 39  1  0
  2 40  1  0
  4 41  1  0
  4 42  1  0
  5 43  1  0
  5 44  1  0
  5 45  1  0
  6 46  1  0
  6 47  1  0
  7 48  1  0
  7 49  1  0
  9 50  1  0
  9 51  1  0
 10 52  1  0
 10 53  1  0
 11 54  1  0
 14 55  1  0
 15 56  1  0
 16 57  1  0
 17 58  1  0
 20 59  1  0
 20 60  1  0
 20 61  1  0
 23 62  1  0
 24 63  1  0
 26 64  1  0
 29 65  1  0
 29 66  1  0
 30 67  1  0
 30 68  1  0
 31 69  1  0
 31 70  1  0
 32 71  1  0
 32 72  1  0
 33 73  1  0
 34 74  1  0
M  CHG  1  19   1
M  END
>  <UniqueID>  (12) 
11

>  <SMILES>  (12) 
CCN(CC)CCOCCNc1c2ccccc2[n+](C)c2c1ccc1cc(OCCCN)ccc12

>  <Energy>  (12) 
110.09169169054735

>  <Genealogy>  (12) 
CCN(CC)CCOCCNc1c2ccccc2[n+](C)c2c1ccc1cc(OCCCN)ccc12 (3D coordinates assigned)
CCN(CC)CCOCCNc1c2ccccc2[n+](C)c2c1ccc1cc(OCCCN)ccc12 (optimized conformer: 110.09169169054735 kcal/mol)

>  <smiles>  (12) 
CCN(CC)CCOCCNc1c2ccccc2[n+](C)c2c1ccc1cc(OCCCN)ccc12

>  <score_type>  (12) 
oracle

>  <origin>  (12) 
adg

>  <m_score__min__energy>  (12) 
-7.2400000000000002

>  <m_primary>  (12) 
energy

$$$$
12:0
     RDKit          3D

 47 49  0  0  0  0  0  0  0  0999 V2000
   65.2490   32.3090   50.1290 C   0  0  0  0  0  0  0  0  0  0  0  0
   64.9580   33.0820   48.9700 O   0  0  0  0  0  0  0  0  0  0  0  0
   63.6630   33.3430   48.4970 C   0  0  0  0  0  0  0  0  0  0  0  0
   63.3180   33.2250   47.1380 C   0  0  0  0  0  0  0  0  0  0  0  0
   62.0130   33.4900   46.7160 C   0  0  0  0  0  0  0  0  0  0  0  0
   61.0260   33.8780   47.6400 C   0  0  0  0  0  0  0  0  0  0  0  0
   59.6640   34.1050   47.2170 N   0  0  0  0  0  0  0  0  0  0  0  0
   59.3080   35.1830   46.2920 C   0  0  0  0  0  0  0  0  0  0  0  0
   58.7210   34.5800   45.0110 C   0  0  0  0  0  0  0  0  0  0  0  0
   57.8630   33.3960   45.2620 N   0  0  0  0  0  0  0  0  0  0  0  0
   58.2120   32.1730   44.5020 C   0  0  0  0  0  0  0  0  0  0  0  0
   58.4750   30.9570   45.3720 C   0  0  0  0  0  0  0  0  0  0  0  0
   59.7260   30.8050   45.9980 C   0  0  0  0  0  0  0  0  0  0  0  0
   59.9820   29.7050   46.8170 C   0  0  0  0  0  0  0  0  0  0  0  0
   59.0030   28.7340   47.0120 C   0  0  0  0  0  0  0  0  0  0  0  0
   57.7700   28.8470   46.3680 C   0  0  0  0  0  0  0  0  0  0  0  0
   57.4960   29.9480   45.5320 C   0  0  0  0  0  0  0  0  0  0  0  0
   56.2700   30.0720   44.8580 O   0  0  0  0  0  0  0  0  0  0  0  0
   56.0720   29.7890   43.4780 C   0  0  0  0  0  0  0  0  0  0  0  0
   57.4200   33.1930   46.6600 C   0  0  0  0  0  0  0  0  0  0  0  0
   58.5890   33.2120   47.6640 C   0  0  0  0  0  0  0  0  0  0  0  0
   61.3780   33.9950   48.9960 C   0  0  0  0  0  0  0  0  0  0  0  0
   62.6840   33.7320   49.4160 C   0  0  0  0  0  0  0  0  0  0  0  0
   65.0264   32.9003   51.0295 H   0  0  0  0  0  0  0  0  0  0  0  0
   64.6322   31.3982   50.1267 H   0  0  0  0  0  0  0  0  0  0  0  0
   66.3133   32.0311   50.1267 H   0  0  0  0  0  0  0  0  0  0  0  0
   64.0797   32.9226   46.4043 H   0  0  0  0  0  0  0  0  0  0  0  0
   61.7548   33.3943   45.6510 H   0  0  0  0  0  0  0  0  0  0  0  0
   58.5626   35.8402   46.7635 H   0  0  0  0  0  0  0  0  0  0  0  0
   60.2064   35.7677   46.0452 H   0  0  0  0  0  0  0  0  0  0  0  0
   58.1168   35.3491   44.5076 H   0  0  0  0  0  0  0  0  0  0  0  0
   59.5655   34.2459   44.3903 H   0  0  0  0  0  0  0  0  0  0  0  0
   57.3788   31.9385   43.8232 H   0  0  0  0  0  0  0  0  0  0  0  0
   59.1483   32.3885   43.9664 H   0  0  0  0  0  0  0  0  0  0  0  0
   60.5096   31.5607   45.8401 H   0  0  0  0  0  0  0  0  0  0  0  0
   60.9601   29.6044   47.3102 H   0  0  0  0  0  0  0  0  0  0  0  0
   59.2015   27.8779   47.6736 H   0  0  0  0  0  0  0  0  0  0  0  0
   57.0053   28.0699   46.5142 H   0  0  0  0  0  0  0  0  0  0  0  0
   55.4442   28.8917   43.3741 H   0  0  0  0  0  0  0  0  0  0  0  0
   55.5734   30.6431   42.9964 H   0  0  0  0  0  0  0  0  0  0  0  0
   57.0452   29.6133   42.9964 H   0  0  0  0  0  0  0  0  0  0  0  0
   56.7152   33.9947   46.9256 H   0  0  0  0  0  0  0  0  0  0  0  0
   56.9488   32.2007   46.7180 H   0  0  0  0  0  0  0  0  0  0  0  0
   58.2175   33.5594   48.6394 H   0  0  0  0  0  0  0  0  0  0  0  0
   58.9954   32.1928   47.7416 H   0  0  0  0  0  0  0  0  0  0  0  0
   60.6185   34.2962   49.7325 H   0  0  0  0  0  0  0  0  0  0  0  0
   62.9446   33.8319   50.4800 H   0  0  0  0  0  0  0  0  0  0  0  0
  1  2  1  0
  2  3  1  0
  3  4  2  0
  4  5  1  0
  5  6  2  0
  6  7  1  0
  7  8  1  0
  8  9  1  0
  9 10  1  0
 10 11  1  0
 11 12  1  0
 12 13  2  0
 13 14  1  0
 14 15  2  0
 15 16  1  0
 16 17  2  0
 17 18  1  0
 18 19  1  0
 10 20  1  0
 20 21  1  0
  6 22  1  0
 22 23  2  0
 23  3  1  0
 21  7  1  0
 17 12  1  0
  1 24  1  0
  1 25  1  0
  1 26  1  0
  4 27  1  0
  5 28  1  0
  8 29  1  0
  8 30  1  0
  9 31  1  0
  9 32  1  0
 11 33  1  0
 11 34  1  0
 13 35  1  0
 14 36  1  0
 15 37  1  0
 16 38  1  0
 19 39  1  0
 19 40  1  0
 19 41  1  0
 20 42  1  0
 20 43  1  0
 21 44  1  0
 21 45  1  0
 22 46  1  0
 23 47  1  0
M  END
>  <UniqueID>  (13) 
12

>  <SMILES>  (13) 
COc1ccc(N2CCN(Cc3ccccc3OC)CC2)cc1

>  <Energy>  (13) 
61.21984294825002

>  <Genealogy>  (13) 
COc1ccc(N2CCN(Cc3ccccc3OC)CC2)cc1 (3D coordinates assigned)
COc1ccc(N2CCN(Cc3ccccc3OC)CC2)cc1 (nonaromatic ring conformer: 61.21984294825002 kcal/mol)

>  <smiles>  (13) 
COc1ccc(N2CCN(Cc3ccccc3OC)CC2)cc1

>  <score_type>  (13) 
oracle

>  <origin>  (13) 
adg

>  <m_score__min__energy>  (13) 
-7.5899999999999999

>  <m_primary>  (13) 
energy

$$$$
13:0
     RDKit          3D

 52 55  0  0  0  0  0  0  0  0999 V2000
   56.6010   29.3990   44.0690 C   0  0  0  0  0  0  0  0  0  0  0  0
   56.9020   29.2070   45.4470 O   0  0  0  0  0  0  0  0  0  0  0  0
   58.0690   29.6680   46.0740 C   0  0  0  0  0  0  0  0  0  0  0  0
   58.8440   30.6270   45.4140 C   0  0  0  0  0  0  0  0  0  0  0  0
   60.0150   31.1190   45.9960 C   0  0  0  0  0  0  0  0  0  0  0  0
   60.4340   30.6550   47.2560 C   0  0  0  0  0  0  0  0  0  0  0  0
   61.6700   31.1880   47.8810 C   0  0  0  0  0  0  0  0  0  0  0  0
   62.3710   32.1480   47.2560 C   0  0  0  0  0  0  0  0  0  0  0  0
   63.6190   32.7560   47.8370 C   0  0  0  0  0  0  0  0  0  0  0  0
   63.6940   32.6330   49.3100 N   0  0  1  0  0  0  0  0  0  0  0  0
   62.9990   33.7080   50.0740 C   0  0  0  0  0  0  0  0  0  0  0  0
   62.0060   34.5820   49.2770 C   0  0  0  0  0  0  0  0  0  0  0  0
   60.6640   33.9770   49.3110 N   0  0  0  0  0  0  0  0  0  0  0  0
   60.2090   33.3320   50.5200 C   0  0  0  0  0  0  0  0  0  0  0  0
   60.9600   33.2530   51.5300 O   0  0  0  0  0  0  0  0  0  0  0  0
   58.8060   32.8110   50.6180 C   0  0  0  0  0  0  0  0  0  0  0  0
   58.2870   32.4830   49.3310 O   0  0  0  0  0  0  0  0  0  0  0  0
   58.6070   33.2220   48.1900 C   0  0  0  0  0  0  0  0  0  0  0  0
   57.7670   33.1600   47.0730 C   0  0  0  0  0  0  0  0  0  0  0  0
   58.0560   33.9170   45.9360 C   0  0  0  0  0  0  0  0  0  0  0  0
   59.1860   34.7370   45.9130 C   0  0  0  0  0  0  0  0  0  0  0  0
   60.0420   34.7870   47.0180 C   0  0  0  0  0  0  0  0  0  0  0  0
   59.7710   34.0130   48.1670 C   0  0  0  0  0  0  0  0  0  0  0  0
   63.3900   31.2580   49.7620 C   0  0  0  0  0  0  0  0  0  0  0  0
   62.0270   30.7410   49.2820 C   0  0  0  0  0  0  0  0  0  0  0  0
   59.6550   29.6930   47.9200 C   0  0  0  0  0  0  0  0  0  0  0  0
   58.4830   29.2030   47.3360 C   0  0  0  0  0  0  0  0  0  0  0  0
   55.6771   29.9884   43.9742 H   0  0  0  0  0  0  0  0  0  0  0  0
   57.4297   29.9357   43.5840 H   0  0  0  0  0  0  0  0  0  0  0  0
   56.4637   28.4213   43.5840 H   0  0  0  0  0  0  0  0  0  0  0  0
   58.5287   30.9974   44.4274 H   0  0  0  0  0  0  0  0  0  0  0  0
   60.6133   31.8743   45.4653 H   0  0  0  0  0  0  0  0  0  0  0  0
   62.0178   32.5052   46.2774 H   0  0  0  0  0  0  0  0  0  0  0  0
   64.4917   32.2498   47.3987 H   0  0  0  0  0  0  0  0  0  0  0  0
   63.6023   33.8296   47.5982 H   0  0  0  0  0  0  0  0  0  0  0  0
   64.7090   32.7660   49.5420 H   0  0  0  0  0  0  0  0  0  0  0  0
   62.4419   33.2302   50.8933 H   0  0  0  0  0  0  0  0  0  0  0  0
   63.7934   34.3936   50.4039 H   0  0  0  0  0  0  0  0  0  0  0  0
   61.9644   35.5862   49.7240 H   0  0  0  0  0  0  0  0  0  0  0  0
   62.3442   34.6525   48.2327 H   0  0  0  0  0  0  0  0  0  0  0  0
   58.8013   31.9089   51.2474 H   0  0  0  0  0  0  0  0  0  0  0  0
   58.1732   33.5950   51.0595 H   0  0  0  0  0  0  0  0  0  0  0  0
   56.8771   32.5136   47.0905 H   0  0  0  0  0  0  0  0  0  0  0  0
   57.3940   33.8675   45.0589 H   0  0  0  0  0  0  0  0  0  0  0  0
   59.4037   35.3456   45.0229 H   0  0  0  0  0  0  0  0  0  0  0  0
   60.9317   35.4333   46.9915 H   0  0  0  0  0  0  0  0  0  0  0  0
   64.1716   30.5853   49.3792 H   0  0  0  0  0  0  0  0  0  0  0  0
   63.3581   31.2793   50.8613 H   0  0  0  0  0  0  0  0  0  0  0  0
   62.0451   29.6413   49.3024 H   0  0  0  0  0  0  0  0  0  0  0  0
   61.2666   31.1589   49.9581 H   0  0  0  0  0  0  0  0  0  0  0  0
   59.9694   29.3224   48.9068 H   0  0  0  0  0  0  0  0  0  0  0  0
   57.8813   28.4499   47.8659 H   0  0  0  0  0  0  0  0  0  0  0  0
  1  2  1  0
  2  3  1  0
  3  4  2  0
  4  5  1  0
  5  6  2  0
  6  7  1  0
  7  8  2  0
  8  9  1  0
  9 10  1  0
 10 11  1  0
 11 12  1  0
 12 13  1  0
 13 14  1  0
 14 15  2  0
 14 16  1  0
 16 17  1  0
 17 18  1  0
 18 19  2  0
 19 20  1  0
 20 21  2  0
 21 22  1  0
 22 23  2  0
 10 24  1  0
 24 25  1  0
  6 26  1  0
 26 27  2  0
 27  3  1  0
 25  7  1  0
 23 13  1  0
 23 18  1  0
  1 28  1  0
  1 29  1  0
  1 30  1  0
  4 31  1  0
  5 32  1  0
  8 33  1  0
  9 34  1  0
  9 35  1  0
 10 36  1  1
 11 37  1  0
 11 38  1  0
 12 39  1  0
 12 40  1  0
 16 41  1  0
 16 42  1  0
 19 43  1  0
 20 44  1  0
 21 45  1  0
 22 46  1  0
 24 47  1  0
 24 48  1  0
 25 49  1  0
 25 50  1  0
 26 51  1  0
 27 52  1  0
M  CHG  1  10   1
M  END
>  <UniqueID>  (14) 
13

>  <SMILES>  (14) 
COc1ccc(C2=CC[N@@H+](CCN3C(=O)COc4ccccc43)CC2)cc1

>  <Energy>  (14) 
74.62284035548302

>  <Genealogy>  (14) 
COc1ccc(C2=CC[NH+](CCN3C(=O)COc4ccccc43)CC2)cc1 (protonated)
COc1ccc(C2=CC[N@@H+](CCN3C(=O)COc4ccccc43)CC2)cc1 (chirality)
COc1ccc(C2=CC[N@@H+](CCN3C(=O)COc4ccccc43)CC2)cc1 (3D coordinates assigned)
COc1ccc(C2=CC[N@@H+](CCN3C(=O)COc4ccccc43)CC2)cc1 (nonaromatic ring conformer: 74.62284035548302 kcal/mol)

>  <smiles>  (14) 
COc1ccc(C2=CCN(CCN3C(=O)COc4ccccc43)CC2)cc1

>  <score_type>  (14) 
oracle

>  <origin>  (14) 
adg

>  <m_score__min__energy>  (14) 
-6.5

>  <m_primary>  (14) 
energy

$$$$
14:0
     RDKit          3D

 43 44  0  0  0  0  0  0  0  0999 V2000
   57.3710   24.1810   43.6850 C   0  0  0  0  0  0  0  0  0  0  0  0
   57.4470   25.4650   44.4740 C   0  0  0  0  0  0  0  0  0  0  0  0
   57.1640   25.4250   45.8470 C   0  0  0  0  0  0  0  0  0  0  0  0
   57.2270   26.5790   46.6180 C   0  0  0  0  0  0  0  0  0  0  0  0
   57.5670   27.7940   46.0320 C   0  0  0  0  0  0  0  0  0  0  0  0
   57.8550   27.8830   44.6570 C   0  0  0  0  0  0  0  0  0  0  0  0
   58.1960   29.1780   44.1010 N   0  0  0  0  0  0  0  0  0  0  0  0
   58.9190   30.0320   45.0670 C   0  0  0  0  0  0  0  0  0  0  0  0
   58.1900   31.3240   45.3720 C   0  0  0  0  0  0  0  0  0  0  0  0
   57.0460   31.5190   44.8810 O   0  0  0  0  0  0  0  0  0  0  0  0
   58.8050   32.3650   46.1620 N   0  0  0  0  0  0  0  0  0  0  0  0
   57.9660   33.1950   47.0330 C   0  0  0  0  0  0  0  0  0  0  0  0
   58.5260   34.6220   47.1220 C   0  0  0  0  0  0  0  0  0  0  0  0
   59.9670   34.6480   47.4400 N   0  0  0  0  0  0  0  0  0  0  0  0
   60.2460   34.2900   48.8410 C   0  0  0  0  0  0  0  0  0  0  0  0
   60.7540   33.8490   46.4810 C   0  0  0  0  0  0  0  0  0  0  0  0
   60.2590   32.4000   46.3670 C   0  0  0  0  0  0  0  0  0  0  0  0
   57.8220   26.6940   43.8640 C   0  0  0  0  0  0  0  0  0  0  0  0
   58.1380   26.7080   42.3820 C   0  0  0  0  0  0  0  0  0  0  0  0
   57.3205   23.3277   44.3773 H   0  0  0  0  0  0  0  0  0  0  0  0
   56.4720   24.1927   43.0513 H   0  0  0  0  0  0  0  0  0  0  0  0
   58.2651   24.0866   43.0513 H   0  0  0  0  0  0  0  0  0  0  0  0
   56.8893   24.4699   46.3184 H   0  0  0  0  0  0  0  0  0  0  0  0
   57.0074   26.5318   47.6948 H   0  0  0  0  0  0  0  0  0  0  0  0
   57.6115   28.7005   46.6536 H   0  0  0  0  0  0  0  0  0  0  0  0
   57.3250   29.6580   43.7810 H   0  0  0  0  0  0  0  0  0  0  0  0
   58.7720   29.0720   43.2320 H   0  0  0  0  0  0  0  0  0  0  0  0
   59.0465   29.4711   46.0046 H   0  0  0  0  0  0  0  0  0  0  0  0
   59.8857   30.2973   44.6142 H   0  0  0  0  0  0  0  0  0  0  0  0
   56.9456   33.2319   46.6239 H   0  0  0  0  0  0  0  0  0  0  0  0
   57.9560   32.7543   48.0408 H   0  0  0  0  0  0  0  0  0  0  0  0
   58.3696   35.1227   46.1551 H   0  0  0  0  0  0  0  0  0  0  0  0
   57.9960   35.1374   47.9365 H   0  0  0  0  0  0  0  0  0  0  0  0
   59.7090   34.9791   49.5094 H   0  0  0  0  0  0  0  0  0  0  0  0
   59.9103   33.2597   49.0300 H   0  0  0  0  0  0  0  0  0  0  0  0
   61.3271   34.3639   49.0300 H   0  0  0  0  0  0  0  0  0  0  0  0
   60.6866   34.3224   45.4904 H   0  0  0  0  0  0  0  0  0  0  0  0
   61.7904   33.8172   46.8482 H   0  0  0  0  0  0  0  0  0  0  0  0
   60.7561   31.9142   45.5144 H   0  0  0  0  0  0  0  0  0  0  0  0
   60.4984   31.8690   47.3001 H   0  0  0  0  0  0  0  0  0  0  0  0
   59.2277   26.7563   42.2399 H   0  0  0  0  0  0  0  0  0  0  0  0
   57.7476   25.7917   41.9152 H   0  0  0  0  0  0  0  0  0  0  0  0
   57.6681   27.5862   41.9152 H   0  0  0  0  0  0  0  0  0  0  0  0
  1  2  1  0
  2  3  2  0
  3  4  1  0
  4  5  2  0
  5  6  1  0
  6  7  1  0
  7  8  1  0
  8  9  1  0
  9 10  2  0
  9 11  1  0
 11 12  1  0
 12 13  1  0
 13 14  1  0
 14 15  1  0
 14 16  1  0
 16 17  1  0
  6 18  2  0
 18 19  1  0
 18  2  1  0
 17 11  1  0
  1 20  1  0
  1 21  1  0
  1 22  1  0
  3 23  1  0
  4 24  1  0
  5 25  1  0
  7 26  1  0
  7 27  1  0
  8 28  1  0
  8 29  1  0
 12 30  1  0
 12 31  1  0
 13 32  1  0
 13 33  1  0
 15 34  1  0
 15 35  1  0
 15 36  1  0
 16 37  1  0
 16 38  1  0
 17 39  1  0
 17 40  1  0
 19 41  1  0
 19 42  1  0
 19 43  1  0
M  CHG  1   7   1
M  END
>  <UniqueID>  (15) 
14

>  <SMILES>  (15) 
Cc1cccc([NH2+]CC(=O)N2CCN(C)CC2)c1C

>  <Energy>  (15) 
53.203411719245835

>  <Genealogy>  (15) 
Cc1cccc([NH2+]CC(=O)N2CCN(C)CC2)c1C (protonated)
Cc1cccc([NH2+]CC(=O)N2CCN(C)CC2)c1C (3D coordinates assigned)
Cc1cccc([NH2+]CC(=O)N2CCN(C)CC2)c1C (nonaromatic ring conformer: 53.203411719245835 kcal/mol)

>  <smiles>  (15) 
Cc1cccc(NCC(=O)N2CCN(C)CC2)c1C

>  <score_type>  (15) 
oracle

>  <origin>  (15) 
adg

>  <m_score__min__energy>  (15) 
-5.8600000000000003

>  <m_primary>  (15) 
energy

$$$$
15:0
     RDKit          3D

 32 34  0  0  0  0  0  0  0  0999 V2000
   57.0370   28.0390   45.4620 C   0  0  0  0  0  0  0  0  0  0  0  0
   56.3090   29.2140   45.1260 O   0  0  0  0  0  0  0  0  0  0  0  0
   56.8260   30.2710   44.3620 C   0  0  0  0  0  0  0  0  0  0  0  0
   56.5170   30.4470   42.9930 C   0  0  0  0  0  0  0  0  0  0  0  0
   57.0640   31.5270   42.2730 C   0  0  0  0  0  0  0  0  0  0  0  0
   57.9210   32.4380   42.9070 C   0  0  0  0  0  0  0  0  0  0  0  0
   58.2130   32.2430   44.2570 C   0  0  0  0  0  0  0  0  0  0  0  0
   57.6840   31.1960   44.9690 C   0  0  0  0  0  0  0  0  0  0  0  0
   58.1420   31.1990   46.3940 C   0  0  0  0  0  0  0  0  0  0  0  0
   59.0760   32.4520   46.5130 C   0  0  1  0  0  0  0  0  0  0  0  0
   58.5020   33.4610   47.4910 C   0  0  0  0  0  0  0  0  0  0  0  0
   59.2760   34.2610   48.2300 C   0  0  0  0  0  0  0  0  0  0  0  0
   60.7440   34.1670   48.1830 C   0  0  0  0  0  0  0  0  0  0  0  0
   61.4390   34.9280   48.9050 O   0  0  0  0  0  0  0  0  0  0  0  0
   61.4210   33.2140   47.2410 C   0  0  0  0  0  0  0  0  0  0  0  0
   60.5110   32.0190   46.9210 C   0  0  0  0  0  0  0  0  0  0  0  0
   59.0490   33.0340   45.1240 C   0  0  0  0  0  0  0  0  0  0  0  0
   59.6430   34.0860   44.7670 O   0  0  0  0  0  0  0  0  0  0  0  0
   57.0956   27.9444   46.5564 H   0  0  0  0  0  0  0  0  0  0  0  0
   56.5257   27.1590   45.0447 H   0  0  0  0  0  0  0  0  0  0  0  0
   58.0526   28.1050   45.0447 H   0  0  0  0  0  0  0  0  0  0  0  0
   55.8459   29.7367   42.4879 H   0  0  0  0  0  0  0  0  0  0  0  0
   56.8178   31.6564   41.2087 H   0  0  0  0  0  0  0  0  0  0  0  0
   58.3522   33.2852   42.3536 H   0  0  0  0  0  0  0  0  0  0  0  0
   57.2840   31.2893   47.0764 H   0  0  0  0  0  0  0  0  0  0  0  0
   58.6609   30.2677   46.6648 H   0  0  0  0  0  0  0  0  0  0  0  0
   57.4095   33.5363   47.5951 H   0  0  0  0  0  0  0  0  0  0  0  0
   58.8056   35.0064   48.8881 H   0  0  0  0  0  0  0  0  0  0  0  0
   61.6633   33.7422   46.3070 H   0  0  0  0  0  0  0  0  0  0  0  0
   62.3376   32.8389   47.7197 H   0  0  0  0  0  0  0  0  0  0  0  0
   60.9561   31.4496   46.0918 H   0  0  0  0  0  0  0  0  0  0  0  0
   60.4281   31.4102   47.8334 H   0  0  0  0  0  0  0  0  0  0  0  0
  1  2  1  0
  2  3  1  0
  3  4  2  0
  4  5  1  0
  5  6  2  0
  6  7  1  0
  7  8  2  0
  8  9  1  0
 10  9  1  6
 10 11  1  0
 11 12  2  0
 12 13  1  0
 13 14  2  0
 13 15  1  0
 15 16  1  0
 10 17  1  0
 17 18  2  0
  8  3  1  0
 16 10  1  0
 17  7  1  0
  1 19  1  0
  1 20  1  0
  1 21  1  0
  4 22  1  0
  5 23  1  0
  6 24  1  0
  9 25  1  0
  9 26  1  0
 11 27  1  0
 12 28  1  0
 15 29  1  0
 15 30  1  0
 16 31  1  0
 16 32  1  0
M  END
>  <UniqueID>  (16) 
15

>  <SMILES>  (16) 
COc1cccc2c1C[C@]1(C=CC(=O)CC1)C2=O

>  <Energy>  (16) 
46.77313742786125

>  <Genealogy>  (16) 
COc1cccc2c1C[C@]1(C=CC(=O)CC1)C2=O (chirality)
COc1cccc2c1C[C@]1(C=CC(=O)CC1)C2=O (3D coordinates assigned)
COc1cccc2c1C[C@]1(C=CC(=O)CC1)C2=O (nonaromatic ring conformer: 46.77313742786125 kcal/mol)

>  <smiles>  (16) 
COc1cccc2c1CC1(C=CC(=O)CC1)C2=O

>  <score_type>  (16) 
oracle

>  <origin>  (16) 
adg

>  <m_score__min__energy>  (16) 
-7.1100000000000003

>  <m_primary>  (16) 
energy

$$$$
16:0
     RDKit          3D

 66 68  0  0  0  0  0  0  0  0999 V2000
   56.7620   21.3450   42.9990 C   0  0  0  0  0  0  0  0  0  0  0  0
   55.8880   22.4140   43.3510 O   0  0  0  0  0  0  0  0  0  0  0  0
   56.2880   23.5860   44.0110 C   0  0  0  0  0  0  0  0  0  0  0  0
   57.0750   24.5670   43.3780 C   0  0  0  0  0  0  0  0  0  0  0  0
   57.4620   25.7250   44.0640 C   0  0  0  0  0  0  0  0  0  0  0  0
   57.0320   25.9270   45.3900 C   0  0  0  0  0  0  0  0  0  0  0  0
   56.2640   24.9420   46.0260 C   0  0  0  0  0  0  0  0  0  0  0  0
   55.8850   23.7720   45.3400 C   0  0  0  0  0  0  0  0  0  0  0  0
   55.1090   22.7720   45.9470 O   0  0  0  0  0  0  0  0  0  0  0  0
   55.6180   21.5300   46.4220 C   0  0  0  0  0  0  0  0  0  0  0  0
   57.4770   27.1410   46.1690 C   0  0  0  0  0  0  0  0  0  0  0  0
   57.8270   28.2800   45.2960 N   0  0  0  0  0  0  0  0  0  0  0  0
   56.6190   28.9380   44.7400 C   0  0  0  0  0  0  0  0  0  0  0  0
   56.9380   30.3120   44.1440 C   0  0  0  0  0  0  0  0  0  0  0  0
   56.7010   31.3360   45.1070 O   0  0  0  0  0  0  0  0  0  0  0  0
   57.5750   32.4040   45.3730 C   0  0  0  0  0  0  0  0  0  0  0  0
   57.5350   33.5890   44.6160 C   0  0  0  0  0  0  0  0  0  0  0  0
   58.4320   34.6190   44.8710 C   0  0  0  0  0  0  0  0  0  0  0  0
   59.3820   34.4890   45.8780 C   0  0  0  0  0  0  0  0  0  0  0  0
   59.4410   33.3300   46.6740 C   0  0  0  0  0  0  0  0  0  0  0  0
   60.4750   33.2370   47.6830 N   0  0  0  0  0  0  0  0  0  0  0  0
   61.7720   32.9220   47.0640 C   0  0  0  0  0  0  0  0  0  0  0  0
   62.3580   31.5960   47.6180 C   0  0  0  0  0  0  0  0  0  0  0  0
   61.8130   31.1770   48.9290 N   0  0  0  0  0  0  0  0  0  0  0  0
   62.8050   31.2360   50.0130 C   0  0  0  0  0  0  0  0  0  0  0  0
   61.1420   29.8670   48.8820 C   0  0  0  0  0  0  0  0  0  0  0  0
   58.5140   32.2730   46.4230 C   0  0  0  0  0  0  0  0  0  0  0  0
   58.5390   30.9670   47.1860 C   0  0  0  0  0  0  0  0  0  0  0  0
   58.8130   27.8570   44.2780 C   0  0  0  0  0  0  0  0  0  0  0  0
   58.2660   26.7740   43.3360 C   0  0  0  0  0  0  0  0  0  0  0  0
   57.1490   20.8716   43.9134 H   0  0  0  0  0  0  0  0  0  0  0  0
   56.2105   20.6006   42.4059 H   0  0  0  0  0  0  0  0  0  0  0  0
   57.6011   21.7376   42.4059 H   0  0  0  0  0  0  0  0  0  0  0  0
   57.3892   24.4224   42.3338 H   0  0  0  0  0  0  0  0  0  0  0  0
   55.9541   25.0843   47.0718 H   0  0  0  0  0  0  0  0  0  0  0  0
   55.6179   21.5303   47.5220 H   0  0  0  0  0  0  0  0  0  0  0  0
   54.9836   20.7095   46.0555 H   0  0  0  0  0  0  0  0  0  0  0  0
   56.6457   21.3907   46.0555 H   0  0  0  0  0  0  0  0  0  0  0  0
   56.6603   27.4485   46.8387 H   0  0  0  0  0  0  0  0  0  0  0  0
   58.3805   26.8628   46.7315 H   0  0  0  0  0  0  0  0  0  0  0  0
   56.1970   28.2979   43.9512 H   0  0  0  0  0  0  0  0  0  0  0  0
   55.9016   29.0819   45.5614 H   0  0  0  0  0  0  0  0  0  0  0  0
   57.9944   30.3386   43.8385 H   0  0  0  0  0  0  0  0  0  0  0  0
   56.2892   30.4834   43.2724 H   0  0  0  0  0  0  0  0  0  0  0  0
   56.7881   33.7010   43.8163 H   0  0  0  0  0  0  0  0  0  0  0  0
   58.3904   35.5416   44.2734 H   0  0  0  0  0  0  0  0  0  0  0  0
   60.0985   35.3047   46.0552 H   0  0  0  0  0  0  0  0  0  0  0  0
   60.5520   34.1480   48.1910 H   0  0  0  0  0  0  0  0  0  0  0  0
   60.2250   32.5300   48.4090 H   0  0  0  0  0  0  0  0  0  0  0  0
   61.6355   32.8261   45.9767 H   0  0  0  0  0  0  0  0  0  0  0  0
   62.4741   33.7353   47.2996 H   0  0  0  0  0  0  0  0  0  0  0  0
   62.1488   30.7986   46.8897 H   0  0  0  0  0  0  0  0  0  0  0  0
   63.4329   31.7723   47.7713 H   0  0  0  0  0  0  0  0  0  0  0  0
   62.2892   31.2053   50.9841 H   0  0  0  0  0  0  0  0  0  0  0  0
   63.4872   30.3768   49.9329 H   0  0  0  0  0  0  0  0  0  0  0  0
   63.3806   32.1700   49.9329 H   0  0  0  0  0  0  0  0  0  0  0  0
   60.9598   29.5114   49.9069 H   0  0  0  0  0  0  0  0  0  0  0  0
   60.1831   29.9650   48.3520 H   0  0  0  0  0  0  0  0  0  0  0  0
   61.7818   29.1461   48.3520 H   0  0  0  0  0  0  0  0  0  0  0  0
   58.5350   31.1734   48.2664 H   0  0  0  0  0  0  0  0  0  0  0  0
   57.6521   30.3718   46.9232 H   0  0  0  0  0  0  0  0  0  0  0  0
   59.4480   30.4061   46.9232 H   0  0  0  0  0  0  0  0  0  0  0  0
   59.0976   28.7340   43.6781 H   0  0  0  0  0  0  0  0  0  0  0  0
   59.6762   27.4297   44.8093 H   0  0  0  0  0  0  0  0  0  0  0  0
   57.6215   27.2533   42.5844 H   0  0  0  0  0  0  0  0  0  0  0  0
   59.1265   26.2712   42.8706 H   0  0  0  0  0  0  0  0  0  0  0  0
  1  2  1  0
  2  3  1  0
  3  4  2  0
  4  5  1  0
  5  6  2  0
  6  7  1  0
  7  8  2  0
  8  9  1  0
  9 10  1  0
  6 11  1  0
 11 12  1  0
 12 13  1  0
 13 14  1  0
 14 15  1  0
 15 16  1  0
 16 17  2  0
 17 18  1  0
 18 19  2  0
 19 20  1  0
 20 21  1  0
 21 22  1  0
 22 23  1  0
 23 24  1  0
 24 25  1  0
 24 26  1  0
 20 27  2  0
 27 28  1  0
 12 29  1  0
 29 30  1  0
  8  3  1  0
 27 16  1  0
 30  5  1  0
  1 31  1  0
  1 32  1  0
  1 33  1  0
  4 34  1  0
  7 35  1  0
 10 36  1  0
 10 37  1  0
 10 38  1  0
 11 39  1  0
 11 40  1  0
 13 41  1  0
 13 42  1  0
 14 43  1  0
 14 44  1  0
 17 45  1  0
 18 46  1  0
 19 47  1  0
 21 48  1  0
 21 49  1  0
 22 50  1  0
 22 51  1  0
 23 52  1  0
 23 53  1  0
 25 54  1  0
 25 55  1  0
 25 56  1  0
 26 57  1  0
 26 58  1  0
 26 59  1  0
 28 60  1  0
 28 61  1  0
 28 62  1  0
 29 63  1  0
 29 64  1  0
 30 65  1  0
 30 66  1  0
M  CHG  1  21   1
M  END
>  <UniqueID>  (17) 
16

>  <SMILES>  (17) 
COc1cc2c(cc1OC)CN(CCOc1cccc([NH2+]CCN(C)C)c1C)CC2

>  <Energy>  (17) 
78.73101994225277

>  <Genealogy>  (17) 
COc1cc2c(cc1OC)CN(CCOc1cccc([NH2+]CCN(C)C)c1C)CC2 (protonated)
COc1cc2c(cc1OC)CN(CCOc1cccc([NH2+]CCN(C)C)c1C)CC2 (3D coordinates assigned)
COc1cc2c(cc1OC)CN(CCOc1cccc([NH2+]CCN(C)C)c1C)CC2 (nonaromatic ring conformer: 78.73101994225277 kcal/mol)

>  <smiles>  (17) 
COc1cc2c(cc1OC)CN(CCOc1cccc(NCCN(C)C)c1C)CC2

>  <score_type>  (17) 
oracle

>  <origin>  (17) 
adg

>  <m_score__min__energy>  (17) 
-6.5800000000000001

>  <m_primary>  (17) 
energy

$$$$
17:0
     RDKit          3D

 55 58  0  0  0  0  0  0  0  0999 V2000
   64.8290   33.1030   49.3860 C   0  0  0  0  0  0  0  0  0  0  0  0
   63.6830   33.7050   48.6770 N   0  0  0  0  0  0  0  0  0  0  0  0
   62.4860   33.7760   49.5460 C   0  0  0  0  0  0  0  0  0  0  0  0
   61.6930   32.4590   49.5650 C   0  0  0  0  0  0  0  0  0  0  0  0
   61.4380   31.9750   48.2050 N   0  0  0  0  0  0  0  0  0  0  0  0
   60.6200   30.8070   48.0000 C   0  0  0  0  0  0  0  0  0  0  0  0
   59.6120   30.4440   48.8270 N   0  0  0  0  0  0  0  0  0  0  0  0
   58.9810   29.3210   48.3970 C   0  0  0  0  0  0  0  0  0  0  0  0
   59.4920   28.7800   47.2220 C   0  0  0  0  0  0  0  0  0  0  0  0
   58.9400   27.6010   46.4830 C   0  0  0  0  0  0  0  0  0  0  0  0
   57.4650   27.8070   46.1150 C   0  0  0  0  0  0  0  0  0  0  0  0
   57.3500   28.4760   44.7890 N   0  0  0  0  0  0  0  0  0  0  0  0
   58.6980   28.7590   44.2520 C   0  0  0  0  0  0  0  0  0  0  0  0
   56.4730   29.6860   44.8410 C   0  0  2  0  0  0  0  0  0  0  0  0
   55.5140   29.7140   43.6300 C   0  0  0  0  0  0  0  0  0  0  0  0
   56.3050   29.9030   42.3320 C   0  0  0  0  0  0  0  0  0  0  0  0
   57.0190   31.2610   42.3140 C   0  0  0  0  0  0  0  0  0  0  0  0
   57.6120   31.6520   43.6480 C   0  0  0  0  0  0  0  0  0  0  0  0
   58.4100   32.8030   43.7240 C   0  0  0  0  0  0  0  0  0  0  0  0
   58.8560   33.2690   44.9600 C   0  0  0  0  0  0  0  0  0  0  0  0
   58.4840   32.5910   46.1200 C   0  0  0  0  0  0  0  0  0  0  0  0
   57.7130   31.4770   46.0380 N   0  0  0  0  0  0  0  0  0  0  0  0
   57.2700   30.9820   44.8470 C   0  0  0  0  0  0  0  0  0  0  0  0
   60.7620   29.7480   46.6930 S   0  0  0  0  0  0  0  0  0  0  0  0
   61.9890   32.7210   47.0690 C   0  0  0  0  0  0  0  0  0  0  0  0
   63.4610   33.0570   47.3510 C   0  0  0  0  0  0  0  0  0  0  0  0
   64.6727   33.1851   50.4717 H   0  0  0  0  0  0  0  0  0  0  0  0
   64.9165   32.0425   49.1073 H   0  0  0  0  0  0  0  0  0  0  0  0
   65.7519   33.6327   49.1073 H   0  0  0  0  0  0  0  0  0  0  0  0
   62.8081   34.0086   50.5717 H   0  0  0  0  0  0  0  0  0  0  0  0
   61.8258   34.5577   49.1422 H   0  0  0  0  0  0  0  0  0  0  0  0
   62.2703   31.7003   50.1137 H   0  0  0  0  0  0  0  0  0  0  0  0
   60.7263   32.6412   50.0573 H   0  0  0  0  0  0  0  0  0  0  0  0
   58.1323   28.8743   48.9357 H   0  0  0  0  0  0  0  0  0  0  0  0
   59.5210   27.4535   45.5607 H   0  0  0  0  0  0  0  0  0  0  0  0
   59.0122   26.7196   47.1372 H   0  0  0  0  0  0  0  0  0  0  0  0
   56.9619   26.8297   46.0729 H   0  0  0  0  0  0  0  0  0  0  0  0
   56.9919   28.4427   46.8780 H   0  0  0  0  0  0  0  0  0  0  0  0
   59.4010   28.9066   45.0851 H   0  0  0  0  0  0  0  0  0  0  0  0
   59.0325   27.9115   43.6357 H   0  0  0  0  0  0  0  0  0  0  0  0
   58.6635   29.6695   43.6357 H   0  0  0  0  0  0  0  0  0  0  0  0
   55.9075   29.6159   45.7819 H   0  0  0  0  0  0  0  0  0  0  0  0
   54.9605   28.7646   43.5830 H   0  0  0  0  0  0  0  0  0  0  0  0
   54.8123   30.5529   43.7476 H   0  0  0  0  0  0  0  0  0  0  0  0
   57.0541   29.1019   42.2477 H   0  0  0  0  0  0  0  0  0  0  0  0
   55.6029   29.8658   41.4860 H   0  0  0  0  0  0  0  0  0  0  0  0
   57.8303   31.2172   41.5725 H   0  0  0  0  0  0  0  0  0  0  0  0
   56.2625   32.0192   42.0632 H   0  0  0  0  0  0  0  0  0  0  0  0
   58.6851   33.3403   42.8044 H   0  0  0  0  0  0  0  0  0  0  0  0
   59.4949   34.1625   45.0193 H   0  0  0  0  0  0  0  0  0  0  0  0
   58.8155   32.9591   47.1022 H   0  0  0  0  0  0  0  0  0  0  0  0
   61.9196   32.1083   46.1581 H   0  0  0  0  0  0  0  0  0  0  0  0
   61.4187   33.6507   46.9261 H   0  0  0  0  0  0  0  0  0  0  0  0
   64.0430   32.1242   47.3181 H   0  0  0  0  0  0  0  0  0  0  0  0
   63.7802   33.7769   46.5829 H   0  0  0  0  0  0  0  0  0  0  0  0
  1  2  1  0
  2  3  1  0
  3  4  1  0
  4  5  1  0
  5  6  1  0
  6  7  2  0
  7  8  1  0
  8  9  2  0
  9 10  1  0
 10 11  1  0
 11 12  1  0
 12 13  1  0
 12 14  1  0
 14 15  1  0
 15 16  1  0
 16 17  1  0
 17 18  1  0
 18 19  2  0
 19 20  1  0
 20 21  2  0
 21 22  1  0
 22 23  2  0
  9 24  1  0
  5 25  1  0
 25 26  1  0
 26  2  1  0
 24  6  1  0
 23 14  1  0
 23 18  1  0
  1 27  1  0
  1 28  1  0
  1 29  1  0
  3 30  1  0
  3 31  1  0
  4 32  1  0
  4 33  1  0
  8 34  1  0
 10 35  1  0
 10 36  1  0
 11 37  1  0
 11 38  1  0
 13 39  1  0
 13 40  1  0
 13 41  1  0
 14 42  1  1
 15 43  1  0
 15 44  1  0
 16 45  1  0
 16 46  1  0
 17 47  1  0
 17 48  1  0
 19 49  1  0
 20 50  1  0
 21 51  1  0
 25 52  1  0
 25 53  1  0
 26 54  1  0
 26 55  1  0
M  END
>  <UniqueID>  (18) 
17

>  <SMILES>  (18) 
CN1CCN(c2ncc(CCN(C)[C@@H]3CCCc4cccnc43)s2)CC1

>  <Energy>  (18) 
98.7922587324751

>  <Genealogy>  (18) 
CN1CCN(c2ncc(CCN(C)[C@@H]3CCCc4cccnc43)s2)CC1 (chirality)
CN1CCN(c2ncc(CCN(C)[C@@H]3CCCc4cccnc43)s2)CC1 (3D coordinates assigned)
CN1CCN(c2ncc(CCN(C)[C@@H]3CCCc4cccnc43)s2)CC1 (nonaromatic ring conformer: 98.7922587324751 kcal/mol)

>  <smiles>  (18) 
CN1CCN(c2ncc(CCN(C)C3CCCc4cccnc43)s2)CC1

>  <score_type>  (18) 
oracle

>  <origin>  (18) 
adg

>  <m_score__min__energy>  (18) 
-8.2699999999999996

>  <m_primary>  (18) 
energy

$$$$
18:0
     RDKit          3D

 62 65  0  0  0  0  0  0  0  0999 V2000
   65.0750   32.7930   49.7160 C   0  0  0  0  0  0  0  0  0  0  0  0
   63.9550   33.4710   48.9330 C   0  0  0  0  0  0  0  0  0  0  0  0
   63.6030   32.6750   47.6620 C   0  0  0  0  0  0  0  0  0  0  0  0
   62.1490   32.4010   47.5530 N   0  0  2  0  0  0  0  0  0  0  0  0
   61.8720   31.0170   47.1220 C   0  0  0  0  0  0  0  0  0  0  0  0
   61.4260   33.4090   46.7290 C   0  0  0  0  0  0  0  0  0  0  0  0
   60.7370   34.5780   47.4850 C   0  0  0  0  0  0  0  0  0  0  0  0
   59.2880   34.3410   47.9640 C   0  0  0  0  0  0  0  0  0  0  0  0
   58.9100   32.9180   48.0760 N   0  0  0  0  0  0  0  0  0  0  0  0
   59.1650   32.0730   49.1200 C   0  0  0  0  0  0  0  0  0  0  0  0
   59.5720   32.4970   50.4750 C   0  0  0  0  0  0  0  0  0  0  0  0
   58.6430   33.1360   51.3110 C   0  0  0  0  0  0  0  0  0  0  0  0
   59.0060   33.5260   52.6000 C   0  0  0  0  0  0  0  0  0  0  0  0
   60.2970   33.2760   53.0680 C   0  0  0  0  0  0  0  0  0  0  0  0
   61.2280   32.6340   52.2490 C   0  0  0  0  0  0  0  0  0  0  0  0
   60.8740   32.2340   50.9450 C   0  0  0  0  0  0  0  0  0  0  0  0
   61.7890   31.5950   50.0910 O   0  0  0  0  0  0  0  0  0  0  0  0
   62.6140   30.4980   50.4660 C   0  0  0  0  0  0  0  0  0  0  0  0
   58.9670   30.7670   48.8200 N   0  0  0  0  0  0  0  0  0  0  0  0
   58.5250   30.8070   47.5550 C   0  0  0  0  0  0  0  0  0  0  0  0
   58.1990   29.7130   46.7680 C   0  0  0  0  0  0  0  0  0  0  0  0
   57.7570   29.9490   45.4550 C   0  0  0  0  0  0  0  0  0  0  0  0
   57.4770   28.8630   44.6110 C   0  0  0  0  0  0  0  0  0  0  0  0
   57.0400   29.0800   43.3050 C   0  0  0  0  0  0  0  0  0  0  0  0
   56.8820   30.3800   42.8250 C   0  0  0  0  0  0  0  0  0  0  0  0
   57.1510   31.4750   43.6490 C   0  0  0  0  0  0  0  0  0  0  0  0
   57.5790   31.2880   44.9820 C   0  0  0  0  0  0  0  0  0  0  0  0
   57.8330   32.3910   45.8550 C   0  0  0  0  0  0  0  0  0  0  0  0
   57.3330   33.7750   45.5140 C   0  0  0  0  0  0  0  0  0  0  0  0
   58.4260   32.0980   47.1090 C   0  0  0  0  0  0  0  0  0  0  0  0
   64.8888   32.9057   50.7943 H   0  0  0  0  0  0  0  0  0  0  0  0
   65.1068   31.7239   49.4592 H   0  0  0  0  0  0  0  0  0  0  0  0
   66.0370   33.2605   49.4592 H   0  0  0  0  0  0  0  0  0  0  0  0
   63.0620   33.5407   49.5716 H   0  0  0  0  0  0  0  0  0  0  0  0
   64.2965   34.4727   48.6332 H   0  0  0  0  0  0  0  0  0  0  0  0
   63.9205   33.2545   46.7826 H   0  0  0  0  0  0  0  0  0  0  0  0
   64.1243   31.7078   47.7159 H   0  0  0  0  0  0  0  0  0  0  0  0
   61.7420   32.4900   48.5160 H   0  0  0  0  0  0  0  0  0  0  0  0
   61.7437   30.3762   48.0068 H   0  0  0  0  0  0  0  0  0  0  0  0
   60.9522   30.9979   46.5190 H   0  0  0  0  0  0  0  0  0  0  0  0
   62.7136   30.6454   46.5190 H   0  0  0  0  0  0  0  0  0  0  0  0
   62.1529   33.8489   46.0304 H   0  0  0  0  0  0  0  0  0  0  0  0
   60.6038   32.8526   46.2553 H   0  0  0  0  0  0  0  0  0  0  0  0
   61.3471   34.8063   48.3714 H   0  0  0  0  0  0  0  0  0  0  0  0
   60.6669   35.3936   46.7503 H   0  0  0  0  0  0  0  0  0  0  0  0
   59.1717   34.8072   48.9535 H   0  0  0  0  0  0  0  0  0  0  0  0
   58.6284   34.7831   47.2028 H   0  0  0  0  0  0  0  0  0  0  0  0
   57.6231   33.3303   50.9476 H   0  0  0  0  0  0  0  0  0  0  0  0
   58.2745   34.0309   53.2481 H   0  0  0  0  0  0  0  0  0  0  0  0
   60.5817   33.5855   54.0845 H   0  0  0  0  0  0  0  0  0  0  0  0
   62.2437   32.4393   52.6239 H   0  0  0  0  0  0  0  0  0  0  0  0
   62.6623   30.4338   51.5631 H   0  0  0  0  0  0  0  0  0  0  0  0
   62.1909   29.5663   50.0624 H   0  0  0  0  0  0  0  0  0  0  0  0
   63.6265   30.6459   50.0624 H   0  0  0  0  0  0  0  0  0  0  0  0
   58.2840   28.6889   47.1604 H   0  0  0  0  0  0  0  0  0  0  0  0
   57.6030   27.8352   44.9820 H   0  0  0  0  0  0  0  0  0  0  0  0
   56.8192   28.2234   42.6512 H   0  0  0  0  0  0  0  0  0  0  0  0
   56.5435   30.5438   41.7913 H   0  0  0  0  0  0  0  0  0  0  0  0
   57.0282   32.4948   43.2554 H   0  0  0  0  0  0  0  0  0  0  0  0
   57.1321   34.3311   46.4415 H   0  0  0  0  0  0  0  0  0  0  0  0
   58.0961   34.3060   44.9261 H   0  0  0  0  0  0  0  0  0  0  0  0
   56.4067   33.6957   44.9261 H   0  0  0  0  0  0  0  0  0  0  0  0
  1  2  1  0
  2  3  1  0
  3  4  1  0
  4  5  1  0
  4  6  1  0
  6  7  1  0
  7  8  1  0
  8  9  1  0
  9 10  1  0
 10 11  1  0
 11 12  2  0
 12 13  1  0
 13 14  2  0
 14 15  1  0
 15 16  2  0
 16 17  1  0
 17 18  1  0
 10 19  2  0
 19 20  1  0
 20 21  2  0
 21 22  1  0
 22 23  2  0
 23 24  1  0
 24 25  2  0
 25 26  1  0
 26 27  2  0
 27 28  1  0
 28 29  1  0
 28 30  2  0
 30  9  1  0
 16 11  1  0
 30 20  1  0
 27 22  1  0
  1 31  1  0
  1 32  1  0
  1 33  1  0
  2 34  1  0
  2 35  1  0
  3 36  1  0
  3 37  1  0
  4 38  1  1
  5 39  1  0
  5 40  1  0
  5 41  1  0
  6 42  1  0
  6 43  1  0
  7 44  1  0
  7 45  1  0
  8 46  1  0
  8 47  1  0
 12 48  1  0
 13 49  1  0
 14 50  1  0
 15 51  1  0
 18 52  1  0
 18 53  1  0
 18 54  1  0
 21 55  1  0
 23 56  1  0
 24 57  1  0
 25 58  1  0
 26 59  1  0
 29 60  1  0
 29 61  1  0
 29 62  1  0
M  CHG  1   4   1
M  END
>  <UniqueID>  (19) 
18

>  <SMILES>  (19) 
CCC[N@H+](C)CCCn1c(-c2ccccc2OC)nc2cc3ccccc3c(C)c21

>  <Energy>  (19) 
122.53461755736262

>  <Genealogy>  (19) 
CCC[NH+](C)CCCn1c(-c2ccccc2OC)nc2cc3ccccc3c(C)c21 (protonated)
CCC[N@H+](C)CCCn1c(-c2ccccc2OC)nc2cc3ccccc3c(C)c21 (chirality)
CCC[N@H+](C)CCCn1c(-c2ccccc2OC)nc2cc3ccccc3c(C)c21 (3D coordinates assigned)
CCC[N@H+](C)CCCn1c(-c2ccccc2OC)nc2cc3ccccc3c(C)c21 (optimized conformer: 122.53461755736262 kcal/mol)

>  <smiles>  (19) 
CCCN(C)CCCn1c(-c2ccccc2OC)nc2cc3ccccc3c(C)c21

>  <score_type>  (19) 
oracle

>  <origin>  (19) 
adg

>  <m_score__min__energy>  (19) 
-5.9199999999999999

>  <m_primary>  (19) 
energy

$$$$
19:0
     RDKit          3D

 58 60  0  0  0  0  0  0  0  0999 V2000
   59.6050   34.9620   47.2180 C   0  0  0  0  0  0  0  0  0  0  0  0
   59.4400   34.1500   45.9260 C   0  0  0  0  0  0  0  0  0  0  0  0
   58.2230   33.3010   45.8790 N   0  0  0  0  0  0  0  0  0  0  0  0
   57.3950   33.4570   47.0880 C   0  0  0  0  0  0  0  0  0  0  0  0
   57.4020   33.4630   44.6590 C   0  0  0  0  0  0  0  0  0  0  0  0
   58.1810   33.0790   43.3930 C   0  0  0  0  0  0  0  0  0  0  0  0
   57.7930   31.7840   42.9340 O   0  0  0  0  0  0  0  0  0  0  0  0
   57.6110   30.6500   43.7430 C   0  0  0  0  0  0  0  0  0  0  0  0
   56.3390   30.1410   44.0680 C   0  0  0  0  0  0  0  0  0  0  0  0
   56.2210   29.0080   44.8770 C   0  0  0  0  0  0  0  0  0  0  0  0
   57.3620   28.3760   45.3740 C   0  0  0  0  0  0  0  0  0  0  0  0
   58.6370   28.8750   45.0670 C   0  0  0  0  0  0  0  0  0  0  0  0
   59.8800   28.2010   45.6060 C   0  0  0  0  0  0  0  0  0  0  0  0
   60.2910   28.7550   46.9210 N   0  0  0  0  0  0  0  0  0  0  0  0
   59.2450   28.4510   47.9290 C   0  0  0  0  0  0  0  0  0  0  0  0
   59.4370   29.2650   49.2140 C   0  0  0  0  0  0  0  0  0  0  0  0
   59.4260   30.7020   48.9130 N   0  0  0  0  0  0  0  0  0  0  0  0
   59.1220   31.6610   49.9510 C   0  0  0  0  0  0  0  0  0  0  0  0
   58.0960   31.4050   50.8810 C   0  0  0  0  0  0  0  0  0  0  0  0
   57.8010   32.3340   51.8850 C   0  0  0  0  0  0  0  0  0  0  0  0
   58.5210   33.5270   51.9700 C   0  0  0  0  0  0  0  0  0  0  0  0
   59.5380   33.7940   51.0520 C   0  0  0  0  0  0  0  0  0  0  0  0
   59.8390   32.8690   50.0470 C   0  0  0  0  0  0  0  0  0  0  0  0
   59.6310   31.1340   47.5250 C   0  0  0  0  0  0  0  0  0  0  0  0
   60.6380   30.2070   46.8290 C   0  0  0  0  0  0  0  0  0  0  0  0
   58.7510   30.0120   44.2480 C   0  0  0  0  0  0  0  0  0  0  0  0
   59.4706   34.3005   48.0865 H   0  0  0  0  0  0  0  0  0  0  0  0
   60.6115   35.4049   47.2467 H   0  0  0  0  0  0  0  0  0  0  0  0
   58.8512   35.7626   47.2467 H   0  0  0  0  0  0  0  0  0  0  0  0
   59.3998   34.8538   45.0816 H   0  0  0  0  0  0  0  0  0  0  0  0
   60.2993   33.4649   45.8773 H   0  0  0  0  0  0  0  0  0  0  0  0
   58.0251   33.3383   47.9818 H   0  0  0  0  0  0  0  0  0  0  0  0
   56.9372   34.4572   47.0923 H   0  0  0  0  0  0  0  0  0  0  0  0
   56.6046   32.6920   47.0923 H   0  0  0  0  0  0  0  0  0  0  0  0
   56.5136   32.8193   44.7395 H   0  0  0  0  0  0  0  0  0  0  0  0
   57.1164   34.5221   44.5769 H   0  0  0  0  0  0  0  0  0  0  0  0
   57.9753   33.8180   42.6046 H   0  0  0  0  0  0  0  0  0  0  0  0
   59.2549   33.0625   43.6305 H   0  0  0  0  0  0  0  0  0  0  0  0
   55.4354   30.6369   43.6838 H   0  0  0  0  0  0  0  0  0  0  0  0
   55.2246   28.6123   45.1233 H   0  0  0  0  0  0  0  0  0  0  0  0
   57.2613   27.4833   46.0088 H   0  0  0  0  0  0  0  0  0  0  0  0
   59.6785   27.1258   45.7216 H   0  0  0  0  0  0  0  0  0  0  0  0
   60.6982   28.3797   44.8928 H   0  0  0  0  0  0  0  0  0  0  0  0
   61.1510   28.2430   47.2310 H   0  0  0  0  0  0  0  0  0  0  0  0
   58.2595   28.6879   47.5016 H   0  0  0  0  0  0  0  0  0  0  0  0
   59.3189   27.3841   48.1865 H   0  0  0  0  0  0  0  0  0  0  0  0
   58.6210   29.0347   49.9148 H   0  0  0  0  0  0  0  0  0  0  0  0
   60.4055   29.0009   49.6637 H   0  0  0  0  0  0  0  0  0  0  0  0
   57.5226   30.4684   50.8178 H   0  0  0  0  0  0  0  0  0  0  0  0
   56.9999   32.1238   52.6089 H   0  0  0  0  0  0  0  0  0  0  0  0
   58.2870   34.2560   52.7598 H   0  0  0  0  0  0  0  0  0  0  0  0
   60.1044   34.7346   51.1191 H   0  0  0  0  0  0  0  0  0  0  0  0
   60.6413   33.0867   49.3267 H   0  0  0  0  0  0  0  0  0  0  0  0
   58.6720   31.0991   46.9873 H   0  0  0  0  0  0  0  0  0  0  0  0
   60.0240   32.1614   47.5212 H   0  0  0  0  0  0  0  0  0  0  0  0
   60.6864   30.4846   45.7657 H   0  0  0  0  0  0  0  0  0  0  0  0
   61.6008   30.3379   47.3446 H   0  0  0  0  0  0  0  0  0  0  0  0
   59.7480   30.4055   44.0007 H   0  0  0  0  0  0  0  0  0  0  0  0
  1  2  1  0
  2  3  1  0
  3  4  1  0
  3  5  1  0
  5  6  1  0
  6  7  1  0
  7  8  1  0
  8  9  2  0
  9 10  1  0
 10 11  2  0
 11 12  1  0
 12 13  1  0
 13 14  1  0
 14 15  1  0
 15 16  1  0
 16 17  1  0
 17 18  1  0
 18 19  2  0
 19 20  1  0
 20 21  2  0
 21 22  1  0
 22 23  2  0
 17 24  1  0
 24 25  1  0
 12 26  2  0
 26  8  1  0
 25 14  1  0
 23 18  1  0
  1 27  1  0
  1 28  1  0
  1 29  1  0
  2 30  1  0
  2 31  1  0
  4 32  1  0
  4 33  1  0
  4 34  1  0
  5 35  1  0
  5 36  1  0
  6 37  1  0
  6 38  1  0
  9 39  1  0
 10 40  1  0
 11 41  1  0
 13 42  1  0
 13 43  1  0
 14 44  1  0
 15 45  1  0
 15 46  1  0
 16 47  1  0
 16 48  1  0
 19 49  1  0
 20 50  1  0
 21 51  1  0
 22 52  1  0
 23 53  1  0
 24 54  1  0
 24 55  1  0
 25 56  1  0
 25 57  1  0
 26 58  1  0
M  CHG  1  14   1
M  END
>  <UniqueID>  (20) 
19

>  <SMILES>  (20) 
CCN(C)CCOc1cccc(C[NH+]2CCN(c3ccccc3)CC2)c1

>  <Energy>  (20) 
72.14863782536165

>  <Genealogy>  (20) 
CCN(C)CCOc1cccc(C[NH+]2CCN(c3ccccc3)CC2)c1 (protonated)
CCN(C)CCOc1cccc(C[NH+]2CCN(c3ccccc3)CC2)c1 (3D coordinates assigned)
CCN(C)CCOc1cccc(C[NH+]2CCN(c3ccccc3)CC2)c1 (nonaromatic ring conformer: 72.14863782536165 kcal/mol)

>  <smiles>  (20) 
CCN(C)CCOc1cccc(CN2CCN(c3ccccc3)CC2)c1

>  <score_type>  (20) 
oracle

>  <origin>  (20) 
adg

>  <m_score__min__energy>  (20) 
-6

>  <m_primary>  (20) 
energy

$$$$
20:0
     RDKit          3D

 52 53  0  0  0  0  0  0  0  0999 V2000
   58.3980   27.9370   44.1210 C   0  0  0  0  0  0  0  0  0  0  0  0
   59.4190   28.9850   44.5550 C   0  0  0  0  0  0  0  0  0  0  0  0
   58.7640   30.0790   45.3090 N   0  0  0  0  0  0  0  0  0  0  0  0
   57.4250   30.4510   44.8000 C   0  0  0  0  0  0  0  0  0  0  0  0
   57.4660   31.2550   43.5010 C   0  0  0  0  0  0  0  0  0  0  0  0
   58.8910   30.0610   46.7870 C   0  0  0  0  0  0  0  0  0  0  0  0
   60.3020   29.7560   47.3260 C   0  0  0  0  0  0  0  0  0  0  0  0
   60.8580   30.9250   47.8980 O   0  0  0  0  0  0  0  0  0  0  0  0
   62.2550   30.9420   47.6990 C   0  0  0  0  0  0  0  0  0  0  0  0
   62.9230   31.6100   48.9020 C   0  0  0  0  0  0  0  0  0  0  0  0
   63.4310   32.9500   48.5370 N   0  0  0  0  0  0  0  0  0  0  0  0
   63.4920   33.1530   47.0710 C   0  0  0  0  0  0  0  0  0  0  0  0
   62.2620   33.8800   46.4640 C   0  0  0  0  0  0  0  0  0  0  0  0
   61.0720   33.8160   47.3310 N   0  0  0  0  0  0  0  0  0  0  0  0
   59.7590   33.8820   46.7200 C   0  0  0  0  0  0  0  0  0  0  0  0
   58.6180   33.3580   47.3630 C   0  0  0  0  0  0  0  0  0  0  0  0
   57.3680   33.4560   46.7410 C   0  0  0  0  0  0  0  0  0  0  0  0
   57.2580   34.0630   45.4880 C   0  0  0  0  0  0  0  0  0  0  0  0
   58.4060   34.5660   44.8710 C   0  0  0  0  0  0  0  0  0  0  0  0
   59.6140   34.4640   45.4920 N   0  0  0  0  0  0  0  0  0  0  0  0
   61.2150   34.0360   48.7800 C   0  0  0  0  0  0  0  0  0  0  0  0
   62.6890   34.0330   49.2040 C   0  0  0  0  0  0  0  0  0  0  0  0
   57.9469   27.4740   45.0110 H   0  0  0  0  0  0  0  0  0  0  0  0
   57.6123   28.4176   43.5196 H   0  0  0  0  0  0  0  0  0  0  0  0
   58.8989   27.1641   43.5196 H   0  0  0  0  0  0  0  0  0  0  0  0
   60.1749   28.5079   45.1960 H   0  0  0  0  0  0  0  0  0  0  0  0
   59.8907   29.4100   43.6567 H   0  0  0  0  0  0  0  0  0  0  0  0
   56.8527   29.5289   44.6204 H   0  0  0  0  0  0  0  0  0  0  0  0
   56.9570   31.0921   45.5616 H   0  0  0  0  0  0  0  0  0  0  0  0
   57.5207   32.3283   43.7357 H   0  0  0  0  0  0  0  0  0  0  0  0
   58.3504   30.9620   42.9162 H   0  0  0  0  0  0  0  0  0  0  0  0
   56.5564   31.0535   42.9162 H   0  0  0  0  0  0  0  0  0  0  0  0
   58.5894   31.0488   47.1655 H   0  0  0  0  0  0  0  0  0  0  0  0
   58.2492   29.2387   47.1361 H   0  0  0  0  0  0  0  0  0  0  0  0
   60.2385   28.9690   48.0919 H   0  0  0  0  0  0  0  0  0  0  0  0
   60.9420   29.4159   46.4985 H   0  0  0  0  0  0  0  0  0  0  0  0
   62.6253   29.9112   47.5972 H   0  0  0  0  0  0  0  0  0  0  0  0
   62.4925   31.5038   46.7836 H   0  0  0  0  0  0  0  0  0  0  0  0
   62.1878   31.7108   49.7140 H   0  0  0  0  0  0  0  0  0  0  0  0
   63.7684   30.9871   49.2296 H   0  0  0  0  0  0  0  0  0  0  0  0
   64.3882   33.7493   46.8449 H   0  0  0  0  0  0  0  0  0  0  0  0
   63.5135   32.1501   46.6196 H   0  0  0  0  0  0  0  0  0  0  0  0
   62.5228   34.9365   46.3035 H   0  0  0  0  0  0  0  0  0  0  0  0
   62.0109   33.3723   45.5210 H   0  0  0  0  0  0  0  0  0  0  0  0
   58.7101   32.8754   48.3472 H   0  0  0  0  0  0  0  0  0  0  0  0
   56.4727   33.0552   47.2388 H   0  0  0  0  0  0  0  0  0  0  0  0
   56.2791   34.1440   44.9928 H   0  0  0  0  0  0  0  0  0  0  0  0
   58.3343   35.0447   43.8832 H   0  0  0  0  0  0  0  0  0  0  0  0
   60.7698   35.0077   49.0401 H   0  0  0  0  0  0  0  0  0  0  0  0
   60.7018   33.2179   49.3066 H   0  0  0  0  0  0  0  0  0  0  0  0
   63.1423   34.9982   48.9340 H   0  0  0  0  0  0  0  0  0  0  0  0
   62.7392   33.8725   50.2911 H   0  0  0  0  0  0  0  0  0  0  0  0
  1  2  1  0
  2  3  1  0
  3  4  1  0
  4  5  1  0
  3  6  1  0
  6  7  1  0
  7  8  1  0
  8  9  1  0
  9 10  1  0
 10 11  1  0
 11 12  1  0
 12 13  1  0
 13 14  1  0
 14 15  1  0
 15 16  2  0
 16 17  1  0
 17 18  2  0
 18 19  1  0
 19 20  2  0
 14 21  1  0
 21 22  1  0
 22 11  1  0
 20 15  1  0
  1 23  1  0
  1 24  1  0
  1 25  1  0
  2 26  1  0
  2 27  1  0
  4 28  1  0
  4 29  1  0
  5 30  1  0
  5 31  1  0
  5 32  1  0
  6 33  1  0
  6 34  1  0
  7 35  1  0
  7 36  1  0
  9 37  1  0
  9 38  1  0
 10 39  1  0
 10 40  1  0
 12 41  1  0
 12 42  1  0
 13 43  1  0
 13 44  1  0
 16 45  1  0
 17 46  1  0
 18 47  1  0
 19 48  1  0
 21 49  1  0
 21 50  1  0
 22 51  1  0
 22 52  1  0
M  END
>  <UniqueID>  (21) 
20

>  <SMILES>  (21) 
CCN(CC)CCOCCN1CCN(c2ccccn2)CC1

>  <Energy>  (21) 
66.41894178017398

>  <Genealogy>  (21) 
CCN(CC)CCOCCN1CCN(c2ccccn2)CC1 (3D coordinates assigned)
CCN(CC)CCOCCN1CCN(c2ccccn2)CC1 (nonaromatic ring conformer: 66.41894178017398 kcal/mol)

>  <smiles>  (21) 
CCN(CC)CCOCCN1CCN(c2ccccn2)CC1

>  <score_type>  (21) 
oracle

>  <origin>  (21) 
adg

>  <m_score__min__energy>  (21) 
-6.6299999999999999

>  <m_primary>  (21) 
energy

$$$$
21:0
     RDKit          3D

 71 73  0  0  0  0  0  0  0  0999 V2000
   62.6640   30.2020   50.9000 C   0  0  0  0  0  0  0  0  0  0  0  0
   63.5590   30.0830   52.1400 C   0  0  0  0  0  0  0  0  0  0  0  0
   64.6130   31.1280   52.1950 N   0  0  1  0  0  0  0  0  0  0  0  0
   65.0670   31.3210   53.5840 C   0  0  0  0  0  0  0  0  0  0  0  0
   65.7540   30.8970   51.2700 C   0  0  0  0  0  0  0  0  0  0  0  0
   66.4090   32.1800   50.7100 C   0  0  0  0  0  0  0  0  0  0  0  0
   65.4370   33.2740   50.6820 N   0  0  0  0  0  0  0  0  0  0  0  0
   64.2830   33.3090   49.8170 C   0  0  0  0  0  0  0  0  0  0  0  0
   64.4080   33.1070   48.4290 C   0  0  0  0  0  0  0  0  0  0  0  0
   63.2850   33.1270   47.6020 C   0  0  0  0  0  0  0  0  0  0  0  0
   62.0080   33.3490   48.1370 C   0  0  0  0  0  0  0  0  0  0  0  0
   60.8110   33.3420   47.2560 C   0  0  0  0  0  0  0  0  0  0  0  0
   60.6400   34.3360   46.2750 C   0  0  0  0  0  0  0  0  0  0  0  0
   59.5250   34.3200   45.4330 C   0  0  0  0  0  0  0  0  0  0  0  0
   58.5570   33.3110   45.5560 C   0  0  0  0  0  0  0  0  0  0  0  0
   57.3940   33.2580   44.6020 C   0  0  0  0  0  0  0  0  0  0  0  0
   57.8000   32.5650   43.3000 C   0  0  0  0  0  0  0  0  0  0  0  0
   58.0850   31.1480   43.5520 N   0  0  0  0  0  0  0  0  0  0  0  0
   57.0180   30.5480   44.3640 C   0  0  0  0  0  0  0  0  0  0  0  0
   57.0540   29.0120   44.2790 C   0  0  1  0  0  0  0  0  0  0  0  0
   57.3850   28.5960   42.9790 O   0  0  0  0  0  0  0  0  0  0  0  0
   58.0330   28.4400   45.2810 C   0  0  0  0  0  0  0  0  0  0  0  0
   57.6170   27.4270   46.1650 C   0  0  0  0  0  0  0  0  0  0  0  0
   58.5000   26.9160   47.1220 C   0  0  0  0  0  0  0  0  0  0  0  0
   59.7990   27.4220   47.2170 C   0  0  0  0  0  0  0  0  0  0  0  0
   60.6500   26.9290   48.1500 F   0  0  0  0  0  0  0  0  0  0  0  0
   60.2190   28.4360   46.3520 C   0  0  0  0  0  0  0  0  0  0  0  0
   59.3410   28.9490   45.3920 C   0  0  0  0  0  0  0  0  0  0  0  0
   58.7260   32.3140   46.5290 C   0  0  0  0  0  0  0  0  0  0  0  0
   59.8360   32.3340   47.3760 C   0  0  0  0  0  0  0  0  0  0  0  0
   61.8790   33.5660   49.5190 C   0  0  0  0  0  0  0  0  0  0  0  0
   63.0070   33.5540   50.3640 C   0  0  0  0  0  0  0  0  0  0  0  0
   62.8950   33.7670   51.7480 O   0  0  0  0  0  0  0  0  0  0  0  0
   61.7540   33.4270   52.5300 C   0  0  0  0  0  0  0  0  0  0  0  0
   61.6190   30.3409   51.2140 H   0  0  0  0  0  0  0  0  0  0  0  0
   62.9840   31.0655   50.2984 H   0  0  0  0  0  0  0  0  0  0  0  0
   62.7472   29.2849   50.2984 H   0  0  0  0  0  0  0  0  0  0  0  0
   62.9291   30.1724   53.0373 H   0  0  0  0  0  0  0  0  0  0  0  0
   64.0642   29.1072   52.0898 H   0  0  0  0  0  0  0  0  0  0  0  0
   64.1720   32.0330   51.9060 H   0  0  0  0  0  0  0  0  0  0  0  0
   64.2805   30.9867   54.2766 H   0  0  0  0  0  0  0  0  0  0  0  0
   65.9810   30.7336   53.7560 H   0  0  0  0  0  0  0  0  0  0  0  0
   65.2783   32.3867   53.7560 H   0  0  0  0  0  0  0  0  0  0  0  0
   66.5242   30.3293   51.8128 H   0  0  0  0  0  0  0  0  0  0  0  0
   65.3439   30.3571   50.4038 H   0  0  0  0  0  0  0  0  0  0  0  0
   67.2571   32.4640   51.3503 H   0  0  0  0  0  0  0  0  0  0  0  0
   66.7598   31.9857   49.6857 H   0  0  0  0  0  0  0  0  0  0  0  0
   65.5710   34.0430   51.3760 H   0  0  0  0  0  0  0  0  0  0  0  0
   65.4022   32.9315   47.9922 H   0  0  0  0  0  0  0  0  0  0  0  0
   63.4022   32.9671   46.5200 H   0  0  0  0  0  0  0  0  0  0  0  0
   61.3909   35.1329   46.1699 H   0  0  0  0  0  0  0  0  0  0  0  0
   59.4051   35.1026   44.6694 H   0  0  0  0  0  0  0  0  0  0  0  0
   56.5691   32.6989   45.0677 H   0  0  0  0  0  0  0  0  0  0  0  0
   57.0744   34.2854   44.3734 H   0  0  0  0  0  0  0  0  0  0  0  0
   56.9791   32.6474   42.5724 H   0  0  0  0  0  0  0  0  0  0  0  0
   58.7034   33.0490   42.9005 H   0  0  0  0  0  0  0  0  0  0  0  0
   58.1000   30.6560   42.6280 H   0  0  0  0  0  0  0  0  0  0  0  0
   57.1500   30.8529   45.4126 H   0  0  0  0  0  0  0  0  0  0  0  0
   56.0483   30.8965   43.9790 H   0  0  0  0  0  0  0  0  0  0  0  0
   56.0502   28.6335   44.5222 H   0  0  0  0  0  0  0  0  0  0  0  0
   58.1160   29.1880   42.6620 H   0  0  0  0  0  0  0  0  0  0  0  0
   56.5912   27.0347   46.1030 H   0  0  0  0  0  0  0  0  0  0  0  0
   58.1714   26.1150   47.8005 H   0  0  0  0  0  0  0  0  0  0  0  0
   61.2427   28.8316   46.4264 H   0  0  0  0  0  0  0  0  0  0  0  0
   59.6739   29.7541   44.7204 H   0  0  0  0  0  0  0  0  0  0  0  0
   57.9795   31.5118   46.6251 H   0  0  0  0  0  0  0  0  0  0  0  0
   59.9495   31.5548   48.1441 H   0  0  0  0  0  0  0  0  0  0  0  0
   60.8826   33.7480   49.9481 H   0  0  0  0  0  0  0  0  0  0  0  0
   62.0059   33.5021   53.5981 H   0  0  0  0  0  0  0  0  0  0  0  0
   60.9310   34.1189   52.2979 H   0  0  0  0  0  0  0  0  0  0  0  0
   61.4440   32.3974   52.2979 H   0  0  0  0  0  0  0  0  0  0  0  0
  1  2  1  0
  2  3  1  0
  3  4  1  0
  3  5  1  0
  5  6  1  0
  6  7  1  0
  7  8  1  0
  8  9  2  0
  9 10  1  0
 10 11  2  0
 11 12  1  0
 12 13  2  0
 13 14  1  0
 14 15  2  0
 15 16  1  0
 16 17  1  0
 17 18  1  0
 18 19  1  0
 19 20  1  0
 20 21  1  0
 20 22  1  0
 22 23  2  0
 23 24  1  0
 24 25  2  0
 25 26  1  0
 25 27  1  0
 27 28  2  0
 15 29  1  0
 29 30  2  0
 11 31  1  0
 31 32  2  0
 32 33  1  0
 33 34  1  0
 32  8  1  0
 30 12  1  0
 28 22  1  0
  1 35  1  0
  1 36  1  0
  1 37  1  0
  2 38  1  0
  2 39  1  0
  3 40  1  6
  4 41  1  0
  4 42  1  0
  4 43  1  0
  5 44  1  0
  5 45  1  0
  6 46  1  0
  6 47  1  0
  7 48  1  0
  9 49  1  0
 10 50  1  0
 13 51  1  0
 14 52  1  0
 16 53  1  0
 16 54  1  0
 17 55  1  0
 17 56  1  0
 18 57  1  0
 19 58  1  0
 19 59  1  0
 20 60  1  1
 21 61  1  0
 23 62  1  0
 24 63  1  0
 27 64  1  0
 28 65  1  0
 29 66  1  0
 30 67  1  0
 31 68  1  0
 34 69  1  0
 34 70  1  0
 34 71  1  0
M  CHG  1   3   1
M  END
>  <UniqueID>  (22) 
21

>  <SMILES>  (22) 
CC[N@@H+](C)CCNc1ccc(-c2ccc(CCNC[C@@H](O)c3ccc(F)cc3)cc2)cc1OC

>  <Energy>  (22) 
74.20553541056147

>  <Genealogy>  (22) 
CC[NH+](C)CCNc1ccc(-c2ccc(CCNCC(O)c3ccc(F)cc3)cc2)cc1OC (protonated)
CC[N@@H+](C)CCNc1ccc(-c2ccc(CCNC[C@@H](O)c3ccc(F)cc3)cc2)cc1OC (chirality)
CC[N@@H+](C)CCNc1ccc(-c2ccc(CCNC[C@@H](O)c3ccc(F)cc3)cc2)cc1OC (3D coordinates assigned)
CC[N@@H+](C)CCNc1ccc(-c2ccc(CCNC[C@@H](O)c3ccc(F)cc3)cc2)cc1OC (optimized conformer: 74.20553541056147 kcal/mol)

>  <smiles>  (22) 
CCN(C)CCNc1ccc(-c2ccc(CCNCC(O)c3ccc(F)cc3)cc2)cc1OC

>  <score_type>  (22) 
oracle

>  <origin>  (22) 
adg

>  <m_score__min__energy>  (22) 
-6.7999999999999998

>  <m_primary>  (22) 
energy

$$$$
22:0
     RDKit          3D

 54 57  0  0  0  0  0  0  0  0999 V2000
   62.3130   34.4840   49.3780 C   0  0  0  0  0  0  0  0  0  0  0  0
   61.2790   33.5620   48.8860 N   0  0  0  0  0  0  0  0  0  0  0  0
   59.9660   34.2450   48.8290 C   0  0  0  0  0  0  0  0  0  0  0  0
   59.0080   33.5320   47.8640 C   0  0  0  0  0  0  0  0  0  0  0  0
   59.5310   33.5040   46.4730 N   0  0  0  0  0  0  0  0  0  0  0  0
   58.8820   34.5160   45.6120 C   0  0  0  0  0  0  0  0  0  0  0  0
   57.6330   33.9400   44.9330 C   0  0  0  0  0  0  0  0  0  0  0  0
   57.9760   32.8340   44.0990 O   0  0  0  0  0  0  0  0  0  0  0  0
   58.1110   31.5170   44.5530 C   0  0  0  0  0  0  0  0  0  0  0  0
   57.5630   30.3770   43.9910 C   0  0  0  0  0  0  0  0  0  0  0  0
   57.9800   29.3510   44.8230 C   0  0  0  0  0  0  0  0  0  0  0  0
   57.6870   27.9180   44.6030 C   0  0  0  0  0  0  0  0  0  0  0  0
   57.0930   27.1420   45.6120 C   0  0  0  0  0  0  0  0  0  0  0  0
   56.8260   25.7870   45.3960 C   0  0  0  0  0  0  0  0  0  0  0  0
   57.1630   25.1910   44.1770 C   0  0  0  0  0  0  0  0  0  0  0  0
   56.8290   23.4900   43.9080 Cl  0  0  0  0  0  0  0  0  0  0  0  0
   57.7710   25.9530   43.1730 C   0  0  0  0  0  0  0  0  0  0  0  0
   58.0360   27.3100   43.3860 C   0  0  0  0  0  0  0  0  0  0  0  0
   58.7360   29.8740   45.8200 N   0  0  0  0  0  0  0  0  0  0  0  0
   59.3040   29.1920   46.9510 C   0  0  0  0  0  0  0  0  0  0  0  0
   60.0880   28.0450   46.7560 C   0  0  0  0  0  0  0  0  0  0  0  0
   60.6410   27.3730   47.8510 C   0  0  0  0  0  0  0  0  0  0  0  0
   60.4250   27.8490   49.1470 C   0  0  0  0  0  0  0  0  0  0  0  0
   60.9570   27.1910   50.2070 F   0  0  0  0  0  0  0  0  0  0  0  0
   59.6610   29.0030   49.3490 C   0  0  0  0  0  0  0  0  0  0  0  0
   59.4590   29.4740   50.6050 F   0  0  0  0  0  0  0  0  0  0  0  0
   59.1080   29.6770   48.2550 C   0  0  0  0  0  0  0  0  0  0  0  0
   58.8210   31.1850   45.6440 N   0  0  0  0  0  0  0  0  0  0  0  0
   61.0060   33.6070   46.3950 C   0  0  0  0  0  0  0  0  0  0  0  0
   61.6810   32.9360   47.6010 C   0  0  0  0  0  0  0  0  0  0  0  0
   62.3118   34.4830   50.4780 H   0  0  0  0  0  0  0  0  0  0  0  0
   63.2982   34.1591   49.0121 H   0  0  0  0  0  0  0  0  0  0  0  0
   62.1027   35.4998   49.0121 H   0  0  0  0  0  0  0  0  0  0  0  0
   59.5216   34.2519   49.8352 H   0  0  0  0  0  0  0  0  0  0  0  0
   60.1239   35.2714   48.4664 H   0  0  0  0  0  0  0  0  0  0  0  0
   58.8626   32.4976   48.2088 H   0  0  0  0  0  0  0  0  0  0  0  0
   58.0592   34.0885   47.8571 H   0  0  0  0  0  0  0  0  0  0  0  0
   58.5907   35.3793   46.2283 H   0  0  0  0  0  0  0  0  0  0  0  0
   59.5951   34.8224   44.8325 H   0  0  0  0  0  0  0  0  0  0  0  0
   56.9250   33.6040   45.7049 H   0  0  0  0  0  0  0  0  0  0  0  0
   57.1762   34.7235   44.3106 H   0  0  0  0  0  0  0  0  0  0  0  0
   56.9383   30.3026   43.0887 H   0  0  0  0  0  0  0  0  0  0  0  0
   56.8366   27.6030   46.5772 H   0  0  0  0  0  0  0  0  0  0  0  0
   56.3498   25.1885   46.1866 H   0  0  0  0  0  0  0  0  0  0  0  0
   58.0409   25.4844   42.2151 H   0  0  0  0  0  0  0  0  0  0  0  0
   58.5200   27.9037   42.5965 H   0  0  0  0  0  0  0  0  0  0  0  0
   60.2687   27.6723   45.7369 H   0  0  0  0  0  0  0  0  0  0  0  0
   61.2467   26.4687   47.6918 H   0  0  0  0  0  0  0  0  0  0  0  0
   58.5171   30.5907   48.4164 H   0  0  0  0  0  0  0  0  0  0  0  0
   59.3220   31.8470   46.2770 H   0  0  0  0  0  0  0  0  0  0  0  0
   61.3505   33.1155   45.4732 H   0  0  0  0  0  0  0  0  0  0  0  0
   61.2784   34.6727   46.3954 H   0  0  0  0  0  0  0  0  0  0  0  0
   61.3976   31.8733   47.6202 H   0  0  0  0  0  0  0  0  0  0  0  0
   62.7688   33.0571   47.4910 H   0  0  0  0  0  0  0  0  0  0  0  0
  1  2  1  0
  2  3  1  0
  3  4  1  0
  4  5  1  0
  5  6  1  0
  6  7  1  0
  7  8  1  0
  8  9  1  0
  9 10  1  0
 10 11  2  0
 11 12  1  0
 12 13  2  0
 13 14  1  0
 14 15  2  0
 15 16  1  0
 15 17  1  0
 17 18  2  0
 11 19  1  0
 19 20  1  0
 20 21  2  0
 21 22  1  0
 22 23  2  0
 23 24  1  0
 23 25  1  0
 25 26  1  0
 25 27  2  0
 19 28  1  0
  5 29  1  0
 29 30  1  0
 30  2  1  0
 28  9  2  0
 18 12  1  0
 27 20  1  0
  1 31  1  0
  1 32  1  0
  1 33  1  0
  3 34  1  0
  3 35  1  0
  4 36  1  0
  4 37  1  0
  6 38  1  0
  6 39  1  0
  7 40  1  0
  7 41  1  0
 10 42  1  0
 13 43  1  0
 14 44  1  0
 17 45  1  0
 18 46  1  0
 21 47  1  0
 22 48  1  0
 27 49  1  0
 28 50  1  0
 29 51  1  0
 29 52  1  0
 30 53  1  0
 30 54  1  0
M  CHG  1  28   1
M  END
>  <UniqueID>  (23) 
22

>  <SMILES>  (23) 
CN1CCN(CCOc2cc(-c3ccc(Cl)cc3)n(-c3ccc(F)c(F)c3)[nH+]2)CC1

>  <Energy>  (23) 
106.4921960461681

>  <Genealogy>  (23) 
CN1CCN(CCOc2cc(-c3ccc(Cl)cc3)n(-c3ccc(F)c(F)c3)[nH+]2)CC1 (protonated)
CN1CCN(CCOc2cc(-c3ccc(Cl)cc3)n(-c3ccc(F)c(F)c3)[nH+]2)CC1 (3D coordinates assigned)
CN1CCN(CCOc2cc(-c3ccc(Cl)cc3)n(-c3ccc(F)c(F)c3)[nH+]2)CC1 (nonaromatic ring conformer: 106.4921960461681 kcal/mol)

>  <smiles>  (23) 
CN1CCN(CCOc2cc(-c3ccc(Cl)cc3)n(-c3ccc(F)c(F)c3)n2)CC1

>  <score_type>  (23) 
oracle

>  <origin>  (23) 
adg

>  <m_score__min__energy>  (23) 
-6.7300000000000004

>  <m_primary>  (23) 
energy

$$$$
23:0
     RDKit          3D

 59 62  0  0  0  0  0  0  0  0999 V2000
   65.1990   32.4630   50.0600 C   0  0  0  0  0  0  0  0  0  0  0  0
   63.7840   32.7850   50.5310 C   0  0  0  0  0  0  0  0  0  0  0  0
   62.8610   32.8550   49.3750 N   0  0  0  0  0  0  0  0  0  0  0  0
   62.1140   34.1370   49.3340 C   0  0  0  0  0  0  0  0  0  0  0  0
   60.6150   33.9990   49.6310 C   0  0  0  0  0  0  0  0  0  0  0  0
   63.5520   32.5140   48.1090 C   0  0  0  0  0  0  0  0  0  0  0  0
   62.6740   31.6500   47.1930 C   0  0  0  0  0  0  0  0  0  0  0  0
   61.2970   31.6100   47.6820 N   0  0  0  0  0  0  0  0  0  0  0  0
   60.2160   31.4010   46.7680 C   0  0  0  0  0  0  0  0  0  0  0  0
   59.7940   30.1080   46.4820 C   0  0  0  0  0  0  0  0  0  0  0  0
   58.7840   29.8730   45.5700 C   0  0  0  0  0  0  0  0  0  0  0  0
   58.0220   30.9020   45.0700 N   0  0  0  0  0  0  0  0  0  0  0  0
   56.6900   30.6450   44.5010 C   0  0  0  0  0  0  0  0  0  0  0  0
   58.4720   32.2020   45.2420 C   0  0  0  0  0  0  0  0  0  0  0  0
   57.8620   33.2920   44.5780 C   0  0  0  0  0  0  0  0  0  0  0  0
   58.2980   34.6000   44.7960 C   0  0  0  0  0  0  0  0  0  0  0  0
   59.3470   34.8540   45.6760 C   0  0  0  0  0  0  0  0  0  0  0  0
   59.9820   33.8030   46.3330 C   0  0  0  0  0  0  0  0  0  0  0  0
   59.5740   32.4720   46.1140 C   0  0  0  0  0  0  0  0  0  0  0  0
   58.6410   28.4120   45.4290 C   0  0  0  0  0  0  0  0  0  0  0  0
   59.4900   27.8300   46.3590 C   0  0  0  0  0  0  0  0  0  0  0  0
   59.6170   26.4470   46.4630 C   0  0  0  0  0  0  0  0  0  0  0  0
   58.8990   25.6340   45.5790 C   0  0  0  0  0  0  0  0  0  0  0  0
   58.1190   26.2080   44.5470 C   0  0  0  0  0  0  0  0  0  0  0  0
   57.4440   25.4160   43.6050 O   0  0  0  0  0  0  0  0  0  0  0  0
   57.0120   24.0800   43.8340 C   0  0  0  0  0  0  0  0  0  0  0  0
   58.0300   27.6160   44.4400 C   0  0  0  0  0  0  0  0  0  0  0  0
   57.4060   28.1950   43.3370 O   0  0  0  0  0  0  0  0  0  0  0  0
   60.3020   28.8430   47.0990 C   0  0  0  0  0  0  0  0  0  0  0  0
   65.8512   32.3146   50.9332 H   0  0  0  0  0  0  0  0  0  0  0  0
   65.1837   31.5454   49.4536 H   0  0  0  0  0  0  0  0  0  0  0  0
   65.5823   33.2969   49.4536 H   0  0  0  0  0  0  0  0  0  0  0  0
   63.4432   31.9985   51.2204 H   0  0  0  0  0  0  0  0  0  0  0  0
   63.7902   33.7584   51.0434 H   0  0  0  0  0  0  0  0  0  0  0  0
   62.5527   34.8163   50.0797 H   0  0  0  0  0  0  0  0  0  0  0  0
   62.1996   34.5210   48.3067 H   0  0  0  0  0  0  0  0  0  0  0  0
   60.4567   33.9844   50.7195 H   0  0  0  0  0  0  0  0  0  0  0  0
   60.0745   34.8512   49.1932 H   0  0  0  0  0  0  0  0  0  0  0  0
   60.2392   33.0625   49.1932 H   0  0  0  0  0  0  0  0  0  0  0  0
   63.8081   33.4448   47.5817 H   0  0  0  0  0  0  0  0  0  0  0  0
   64.4555   31.9380   48.3579 H   0  0  0  0  0  0  0  0  0  0  0  0
   62.6843   32.0744   46.1782 H   0  0  0  0  0  0  0  0  0  0  0  0
   63.0750   30.6257   47.1833 H   0  0  0  0  0  0  0  0  0  0  0  0
   61.0990   31.5230   48.7050 H   0  0  0  0  0  0  0  0  0  0  0  0
   55.9641   30.5049   45.3155 H   0  0  0  0  0  0  0  0  0  0  0  0
   56.3848   31.5008   43.8810 H   0  0  0  0  0  0  0  0  0  0  0  0
   56.7251   29.7371   43.8810 H   0  0  0  0  0  0  0  0  0  0  0  0
   57.0324   33.1062   43.8800 H   0  0  0  0  0  0  0  0  0  0  0  0
   57.8106   35.4342   44.2701 H   0  0  0  0  0  0  0  0  0  0  0  0
   59.6753   35.8889   45.8529 H   0  0  0  0  0  0  0  0  0  0  0  0
   60.8082   34.0134   47.0281 H   0  0  0  0  0  0  0  0  0  0  0  0
   60.2707   26.0013   47.2272 H   0  0  0  0  0  0  0  0  0  0  0  0
   58.9411   24.5401   45.6870 H   0  0  0  0  0  0  0  0  0  0  0  0
   56.9520   23.8945   44.9166 H   0  0  0  0  0  0  0  0  0  0  0  0
   56.0204   23.9326   43.3812 H   0  0  0  0  0  0  0  0  0  0  0  0
   57.7296   23.3799   43.3812 H   0  0  0  0  0  0  0  0  0  0  0  0
   56.8670   27.6550   42.6710 H   0  0  0  0  0  0  0  0  0  0  0  0
   60.1030   28.8108   48.1804 H   0  0  0  0  0  0  0  0  0  0  0  0
   61.3901   28.7016   47.0217 H   0  0  0  0  0  0  0  0  0  0  0  0
  1  2  1  0
  2  3  1  0
  3  4  1  0
  4  5  1  0
  3  6  1  0
  6  7  1  0
  7  8  1  0
  8  9  1  0
  9 10  2  0
 10 11  1  0
 11 12  2  0
 12 13  1  0
 12 14  1  0
 14 15  2  0
 15 16  1  0
 16 17  2  0
 17 18  1  0
 18 19  2  0
 11 20  1  0
 20 21  2  0
 21 22  1  0
 22 23  2  0
 23 24  1  0
 24 25  1  0
 25 26  1  0
 24 27  2  0
 27 28  1  0
 21 29  1  0
 19  9  1  0
 27 20  1  0
 29 10  1  0
 19 14  1  0
  1 30  1  0
  1 31  1  0
  1 32  1  0
  2 33  1  0
  2 34  1  0
  4 35  1  0
  4 36  1  0
  5 37  1  0
  5 38  1  0
  5 39  1  0
  6 40  1  0
  6 41  1  0
  7 42  1  0
  7 43  1  0
  8 44  1  0
 13 45  1  0
 13 46  1  0
 13 47  1  0
 15 48  1  0
 16 49  1  0
 17 50  1  0
 18 51  1  0
 22 52  1  0
 23 53  1  0
 26 54  1  0
 26 55  1  0
 26 56  1  0
 28 57  1  0
 29 58  1  0
 29 59  1  0
M  CHG  1  12   1
M  END
>  <UniqueID>  (24) 
23

>  <SMILES>  (24) 
CCN(CC)CCNc1c2c([n+](C)c3ccccc13)-c1c(ccc(OC)c1O)C2

>  <Energy>  (24) 
108.78208021559375

>  <Genealogy>  (24) 
CCN(CC)CCNc1c2c([n+](C)c3ccccc13)-c1c(ccc(OC)c1O)C2 (3D coordinates assigned)
CCN(CC)CCNc1c2c([n+](C)c3ccccc13)-c1c(ccc(OC)c1O)C2 (nonaromatic ring conformer: 108.78208021559375 kcal/mol)

>  <smiles>  (24) 
CCN(CC)CCNc1c2c([n+](C)c3ccccc13)-c1c(ccc(OC)c1O)C2

>  <score_type>  (24) 
oracle

>  <origin>  (24) 
adg

>  <m_score__min__energy>  (24) 
-5.9100000000000001

>  <m_primary>  (24) 
energy

$$$$
24:0
     RDKit          3D

 42 43  0  0  0  0  0  0  0  0999 V2000
   58.7210   31.8380   50.0420 C   0  0  0  0  0  0  0  0  0  0  0  0
   60.1910   31.4620   49.8160 C   0  0  0  0  0  0  0  0  0  0  0  0
   60.7880   32.1090   48.6160 N   0  0  0  0  0  0  0  0  0  0  0  0
   61.8010   31.2590   47.9230 C   0  0  0  0  0  0  0  0  0  0  0  0
   63.1050   31.9740   47.5250 C   0  0  0  0  0  0  0  0  0  0  0  0
   61.2340   33.5190   48.8050 C   0  0  0  0  0  0  0  0  0  0  0  0
   60.4470   34.5860   48.0280 C   0  0  0  0  0  0  0  0  0  0  0  0
   59.1260   34.1370   47.7460 O   0  0  0  0  0  0  0  0  0  0  0  0
   58.7250   33.5480   46.5380 C   0  0  0  0  0  0  0  0  0  0  0  0
   59.2080   34.0920   45.3450 C   0  0  0  0  0  0  0  0  0  0  0  0
   58.8470   33.5450   44.1110 C   0  0  0  0  0  0  0  0  0  0  0  0
   57.9840   32.4340   44.0520 C   0  0  0  0  0  0  0  0  0  0  0  0
   57.5840   31.8400   42.8330 C   0  0  0  0  0  0  0  0  0  0  0  0
   58.0560   32.3570   41.4990 C   0  0  0  0  0  0  0  0  0  0  0  0
   56.7220   30.7360   42.8750 C   0  0  0  0  0  0  0  0  0  0  0  0
   56.2810   30.2540   44.1100 C   0  0  0  0  0  0  0  0  0  0  0  0
   55.5050   29.2640   44.1570 O   0  0  0  0  0  0  0  0  0  0  0  0
   56.6740   30.8350   45.2380 O   0  0  0  0  0  0  0  0  0  0  0  0
   57.4910   31.8840   45.2600 C   0  0  0  0  0  0  0  0  0  0  0  0
   57.8610   32.4380   46.4890 C   0  0  0  0  0  0  0  0  0  0  0  0
   58.5177   31.8900   51.1218 H   0  0  0  0  0  0  0  0  0  0  0  0
   58.5182   32.8169   49.5831 H   0  0  0  0  0  0  0  0  0  0  0  0
   58.0731   31.0767   49.5831 H   0  0  0  0  0  0  0  0  0  0  0  0
   60.7691   31.7671   50.7007 H   0  0  0  0  0  0  0  0  0  0  0  0
   60.2269   30.3750   49.6510 H   0  0  0  0  0  0  0  0  0  0  0  0
   59.9990   32.1840   47.9290 H   0  0  0  0  0  0  0  0  0  0  0  0
   62.0617   30.4273   48.5940 H   0  0  0  0  0  0  0  0  0  0  0  0
   61.3326   30.9383   46.9808 H   0  0  0  0  0  0  0  0  0  0  0  0
   63.6507   32.2732   48.4320 H   0  0  0  0  0  0  0  0  0  0  0  0
   63.7298   31.2923   46.9293 H   0  0  0  0  0  0  0  0  0  0  0  0
   62.8662   32.8674   46.9293 H   0  0  0  0  0  0  0  0  0  0  0  0
   61.1545   33.7561   49.8762 H   0  0  0  0  0  0  0  0  0  0  0  0
   62.2593   33.5606   48.4088 H   0  0  0  0  0  0  0  0  0  0  0  0
   60.3943   35.5048   48.6306 H   0  0  0  0  0  0  0  0  0  0  0  0
   60.9632   34.7802   47.0762 H   0  0  0  0  0  0  0  0  0  0  0  0
   59.8808   34.9617   45.3777 H   0  0  0  0  0  0  0  0  0  0  0  0
   59.2387   33.9842   43.1816 H   0  0  0  0  0  0  0  0  0  0  0  0
   58.7900   33.1610   41.6562 H   0  0  0  0  0  0  0  0  0  0  0  0
   58.5246   31.5382   40.9334 H   0  0  0  0  0  0  0  0  0  0  0  0
   57.1980   32.7493   40.9334 H   0  0  0  0  0  0  0  0  0  0  0  0
   56.3950   30.2525   41.9426 H   0  0  0  0  0  0  0  0  0  0  0  0
   57.4747   32.0040   47.4230 H   0  0  0  0  0  0  0  0  0  0  0  0
  1  2  1  0
  2  3  1  0
  3  4  1  0
  4  5  1  0
  3  6  1  0
  6  7  1  0
  7  8  1  0
  8  9  1  0
  9 10  2  0
 10 11  1  0
 11 12  2  0
 12 13  1  0
 13 14  1  0
 13 15  2  0
 15 16  1  0
 16 17  2  0
 16 18  1  0
 18 19  1  0
 19 20  2  0
 20  9  1  0
 19 12  1  0
  1 21  1  0
  1 22  1  0
  1 23  1  0
  2 24  1  0
  2 25  1  0
  3 26  1  0
  4 27  1  0
  4 28  1  0
  5 29  1  0
  5 30  1  0
  5 31  1  0
  6 32  1  0
  6 33  1  0
  7 34  1  0
  7 35  1  0
 10 36  1  0
 11 37  1  0
 14 38  1  0
 14 39  1  0
 14 40  1  0
 15 41  1  0
 20 42  1  0
M  CHG  1   3   1
M  END
>  <UniqueID>  (25) 
24

>  <SMILES>  (25) 
CC[NH+](CC)CCOc1ccc2c(C)cc(=O)oc2c1

>  <Energy>  (25) 
54.34647158071283

>  <Genealogy>  (25) 
CC[NH+](CC)CCOc1ccc2c(C)cc(=O)oc2c1 (protonated)
CC[NH+](CC)CCOc1ccc2c(C)cc(=O)oc2c1 (3D coordinates assigned)
CC[NH+](CC)CCOc1ccc2c(C)cc(=O)oc2c1 (optimized conformer: 54.34647158071283 kcal/mol)

>  <smiles>  (25) 
CCN(CC)CCOc1ccc2c(C)cc(=O)oc2c1

>  <score_type>  (25) 
oracle

>  <origin>  (25) 
adg

>  <m_score__min__energy>  (25) 
-5.71

>  <m_primary>  (25) 
energy

$$$$
25:0
     RDKit          3D

 62 65  0  0  0  0  0  0  0  0999 V2000
   63.3650   33.6980   46.5130 C   0  0  0  0  0  0  0  0  0  0  0  0
   63.4610   32.5010   47.4710 C   0  0  0  0  0  0  0  0  0  0  0  0
   63.5910   32.8700   48.9080 N   0  0  0  0  0  0  0  0  0  0  0  0
   64.9950   32.8370   49.3990 C   0  0  0  0  0  0  0  0  0  0  0  0
   65.2100   31.8310   50.5340 C   0  0  0  0  0  0  0  0  0  0  0  0
   62.9640   34.1950   49.1760 C   0  0  0  0  0  0  0  0  0  0  0  0
   61.9740   34.1640   50.3510 C   0  0  0  0  0  0  0  0  0  0  0  0
   61.8470   32.8430   50.8350 O   0  0  0  0  0  0  0  0  0  0  0  0
   60.5330   32.6070   51.3060 C   0  0  0  0  0  0  0  0  0  0  0  0
   59.6650   32.0460   50.1780 C   0  0  0  0  0  0  0  0  0  0  0  0
   60.4570   31.8480   48.9650 N   0  0  0  0  0  0  0  0  0  0  0  0
   59.8390   31.6700   47.6790 C   0  0  0  0  0  0  0  0  0  0  0  0
   59.4060   30.4090   47.2670 C   0  0  0  0  0  0  0  0  0  0  0  0
   58.7330   30.2460   46.0710 C   0  0  0  0  0  0  0  0  0  0  0  0
   58.5780   31.2760   45.1770 N   0  0  0  0  0  0  0  0  0  0  0  0
   58.1550   30.9950   43.7960 C   0  0  0  0  0  0  0  0  0  0  0  0
   58.8990   32.5600   45.5860 C   0  0  0  0  0  0  0  0  0  0  0  0
   58.5740   33.6920   44.8000 C   0  0  0  0  0  0  0  0  0  0  0  0
   58.9430   34.9750   45.2030 C   0  0  0  0  0  0  0  0  0  0  0  0
   59.6380   35.1670   46.3920 C   0  0  0  0  0  0  0  0  0  0  0  0
   59.9440   34.0790   47.2080 C   0  0  0  0  0  0  0  0  0  0  0  0
   59.5600   32.7730   46.8390 C   0  0  0  0  0  0  0  0  0  0  0  0
   58.2610   28.8570   46.0050 C   0  0  0  0  0  0  0  0  0  0  0  0
   57.3570   28.2200   45.1400 C   0  0  0  0  0  0  0  0  0  0  0  0
   57.0190   26.8800   45.3860 C   0  0  0  0  0  0  0  0  0  0  0  0
   57.5410   26.2060   46.5040 C   0  0  0  0  0  0  0  0  0  0  0  0
   58.3870   26.8760   47.3980 C   0  0  0  0  0  0  0  0  0  0  0  0
   58.7240   28.2050   47.1370 C   0  0  0  0  0  0  0  0  0  0  0  0
   59.5090   29.1150   48.0230 C   0  0  0  0  0  0  0  0  0  0  0  0
   63.2904   34.6284   47.0951 H   0  0  0  0  0  0  0  0  0  0  0  0
   64.2632   33.7332   45.8790 H   0  0  0  0  0  0  0  0  0  0  0  0
   62.4727   33.5896   45.8790 H   0  0  0  0  0  0  0  0  0  0  0  0
   62.5521   31.8927   47.3532 H   0  0  0  0  0  0  0  0  0  0  0  0
   64.3792   31.9580   47.2027 H   0  0  0  0  0  0  0  0  0  0  0  0
   63.0570   32.1430   49.4380 H   0  0  0  0  0  0  0  0  0  0  0  0
   65.6530   32.5650   48.5605 H   0  0  0  0  0  0  0  0  0  0  0  0
   65.2274   33.8358   49.7969 H   0  0  0  0  0  0  0  0  0  0  0  0
   65.1009   32.3417   51.5022 H   0  0  0  0  0  0  0  0  0  0  0  0
   64.4634   31.0268   50.4574 H   0  0  0  0  0  0  0  0  0  0  0  0
   66.2201   31.4022   50.4574 H   0  0  0  0  0  0  0  0  0  0  0  0
   63.7594   34.9190   49.4068 H   0  0  0  0  0  0  0  0  0  0  0  0
   62.3983   34.4794   48.2765 H   0  0  0  0  0  0  0  0  0  0  0  0
   62.3438   34.8144   51.1574 H   0  0  0  0  0  0  0  0  0  0  0  0
   60.9918   34.5211   50.0079 H   0  0  0  0  0  0  0  0  0  0  0  0
   60.5673   31.8831   52.1335 H   0  0  0  0  0  0  0  0  0  0  0  0
   60.0998   33.5552   51.6571 H   0  0  0  0  0  0  0  0  0  0  0  0
   59.2416   31.0812   50.4941 H   0  0  0  0  0  0  0  0  0  0  0  0
   58.8602   32.7638   49.9612 H   0  0  0  0  0  0  0  0  0  0  0  0
   61.4860   31.6840   49.0470 H   0  0  0  0  0  0  0  0  0  0  0  0
   57.2388   30.3864   43.8098 H   0  0  0  0  0  0  0  0  0  0  0  0
   57.9580   31.9424   43.2729 H   0  0  0  0  0  0  0  0  0  0  0  0
   58.9520   30.4462   43.2729 H   0  0  0  0  0  0  0  0  0  0  0  0
   58.0225   33.5574   43.8578 H   0  0  0  0  0  0  0  0  0  0  0  0
   58.6826   35.8407   44.5763 H   0  0  0  0  0  0  0  0  0  0  0  0
   59.9471   36.1799   46.6894 H   0  0  0  0  0  0  0  0  0  0  0  0
   60.4903   34.2406   48.1490 H   0  0  0  0  0  0  0  0  0  0  0  0
   56.9221   28.7604   44.2863 H   0  0  0  0  0  0  0  0  0  0  0  0
   56.3405   26.3532   44.6988 H   0  0  0  0  0  0  0  0  0  0  0  0
   57.2848   25.1504   46.6774 H   0  0  0  0  0  0  0  0  0  0  0  0
   58.7784   26.3637   48.2893 H   0  0  0  0  0  0  0  0  0  0  0  0
   59.0574   29.1941   49.0229 H   0  0  0  0  0  0  0  0  0  0  0  0
   60.5398   28.7828   48.2155 H   0  0  0  0  0  0  0  0  0  0  0  0
  1  2  1  0
  2  3  1  0
  3  4  1  0
  4  5  1  0
  3  6  1  0
  6  7  1  0
  7  8  1  0
  8  9  1  0
  9 10  1  0
 10 11  1  0
 11 12  1  0
 12 13  2  0
 13 14  1  0
 14 15  2  0
 15 16  1  0
 15 17  1  0
 17 18  2  0
 18 19  1  0
 19 20  2  0
 20 21  1  0
 21 22  2  0
 14 23  1  0
 23 24  2  0
 24 25  1  0
 25 26  2  0
 26 27  1  0
 27 28  2  0
 28 29  1  0
 22 12  1  0
 28 23  1  0
 29 13  1  0
 22 17  1  0
  1 30  1  0
  1 31  1  0
  1 32  1  0
  2 33  1  0
  2 34  1  0
  3 35  1  0
  4 36  1  0
  4 37  1  0
  5 38  1  0
  5 39  1  0
  5 40  1  0
  6 41  1  0
  6 42  1  0
  7 43  1  0
  7 44  1  0
  9 45  1  0
  9 46  1  0
 10 47  1  0
 10 48  1  0
 11 49  1  0
 16 50  1  0
 16 51  1  0
 16 52  1  0
 18 53  1  0
 19 54  1  0
 20 55  1  0
 21 56  1  0
 24 57  1  0
 25 58  1  0
 26 59  1  0
 27 60  1  0
 29 61  1  0
 29 62  1  0
M  CHG  2   3   1  15   1
M  END
>  <UniqueID>  (26) 
25

>  <SMILES>  (26) 
CC[NH+](CC)CCOCCNc1c2c([n+](C)c3ccccc13)-c1ccccc1C2

>  <Energy>  (26) 
110.00915388789554

>  <Genealogy>  (26) 
CC[NH+](CC)CCOCCNc1c2c([n+](C)c3ccccc13)-c1ccccc1C2 (protonated)
CC[NH+](CC)CCOCCNc1c2c([n+](C)c3ccccc13)-c1ccccc1C2 (3D coordinates assigned)
CC[NH+](CC)CCOCCNc1c2c([n+](C)c3ccccc13)-c1ccccc1C2 (nonaromatic ring conformer: 110.00915388789554 kcal/mol)

>  <smiles>  (26) 
CCN(CC)CCOCCNc1c2c([n+](C)c3ccccc13)-c1ccccc1C2

>  <score_type>  (26) 
oracle

>  <origin>  (26) 
adg

>  <m_score__min__energy>  (26) 
-5.0499999999999998

>  <m_primary>  (26) 
energy

$$$$
26:0
     RDKit          3D

 36 38  0  0  0  0  0  0  0  0999 V2000
   61.4240   30.8300   47.5860 C   0  0  0  0  0  0  0  0  0  0  0  0
   60.7570   29.5840   47.4110 O   0  0  0  0  0  0  0  0  0  0  0  0
   59.8380   29.3190   46.3840 C   0  0  0  0  0  0  0  0  0  0  0  0
   59.4660   27.9710   46.1520 C   0  0  0  0  0  0  0  0  0  0  0  0
   58.5470   27.6400   45.1410 C   0  0  0  0  0  0  0  0  0  0  0  0
   58.0230   28.6790   44.3790 C   0  0  0  0  0  0  0  0  0  0  0  0
   57.1210   28.6090   43.3850 N   0  0  0  0  0  0  0  0  0  0  0  0
   56.9370   29.8970   43.0070 C   0  0  0  0  0  0  0  0  0  0  0  0
   57.6990   30.7600   43.7250 N   0  0  0  0  0  0  0  0  0  0  0  0
   57.6860   32.2220   43.6360 C   0  0  0  0  0  0  0  0  0  0  0  0
   57.0220   32.8440   44.8710 C   0  0  0  0  0  0  0  0  0  0  0  0
   58.0370   33.4820   45.7820 C   0  0  0  0  0  0  0  0  0  0  0  0
   58.9500   34.4250   45.2780 C   0  0  0  0  0  0  0  0  0  0  0  0
   59.9210   34.9820   46.1150 C   0  0  0  0  0  0  0  0  0  0  0  0
   59.9920   34.5990   47.4570 C   0  0  0  0  0  0  0  0  0  0  0  0
   59.0930   33.6570   47.9640 C   0  0  0  0  0  0  0  0  0  0  0  0
   58.1210   33.0960   47.1300 C   0  0  0  0  0  0  0  0  0  0  0  0
   58.3740   29.9810   44.5910 C   0  0  0  0  0  0  0  0  0  0  0  0
   59.2790   30.3490   45.5870 C   0  0  0  0  0  0  0  0  0  0  0  0
   61.5356   31.0385   48.6603 H   0  0  0  0  0  0  0  0  0  0  0  0
   62.4176   30.7831   47.1164 H   0  0  0  0  0  0  0  0  0  0  0  0
   60.8340   31.6309   47.1164 H   0  0  0  0  0  0  0  0  0  0  0  0
   59.9022   27.1734   46.7713 H   0  0  0  0  0  0  0  0  0  0  0  0
   58.2526   26.5959   44.9589 H   0  0  0  0  0  0  0  0  0  0  0  0
   56.6510   27.7600   43.0030 H   0  0  0  0  0  0  0  0  0  0  0  0
   56.2477   30.2080   42.2082 H   0  0  0  0  0  0  0  0  0  0  0  0
   58.7212   32.5868   43.5625 H   0  0  0  0  0  0  0  0  0  0  0  0
   57.1097   32.5129   42.7454 H   0  0  0  0  0  0  0  0  0  0  0  0
   56.3046   33.6106   44.5429 H   0  0  0  0  0  0  0  0  0  0  0  0
   56.5132   32.0439   45.4285 H   0  0  0  0  0  0  0  0  0  0  0  0
   58.8999   34.7255   44.2210 H   0  0  0  0  0  0  0  0  0  0  0  0
   60.6301   35.7227   45.7168 H   0  0  0  0  0  0  0  0  0  0  0  0
   60.7560   35.0393   48.1146 H   0  0  0  0  0  0  0  0  0  0  0  0
   59.1501   33.3564   49.0206 H   0  0  0  0  0  0  0  0  0  0  0  0
   57.4195   32.3496   47.5310 H   0  0  0  0  0  0  0  0  0  0  0  0
   59.5495   31.4030   45.7482 H   0  0  0  0  0  0  0  0  0  0  0  0
  1  2  1  0
  2  3  1  0
  3  4  2  0
  4  5  1  0
  5  6  2  0
  6  7  1  0
  7  8  1  0
  8  9  2  0
  9 10  1  0
 10 11  1  0
 11 12  1  0
 12 13  2  0
 13 14  1  0
 14 15  2  0
 15 16  1  0
 16 17  2  0
  9 18  1  0
 18 19  2  0
 19  3  1  0
 18  6  1  0
 17 12  1  0
  1 20  1  0
  1 21  1  0
  1 22  1  0
  4 23  1  0
  5 24  1  0
  7 25  1  0
  8 26  1  0
 10 27  1  0
 10 28  1  0
 11 29  1  0
 11 30  1  0
 13 31  1  0
 14 32  1  0
 15 33  1  0
 16 34  1  0
 17 35  1  0
 19 36  1  0
M  CHG  1   9   1
M  END
>  <UniqueID>  (27) 
26

>  <SMILES>  (27) 
COc1ccc2[nH]c[n+](CCc3ccccc3)c2c1

>  <Energy>  (27) 
71.46274572872484

>  <Genealogy>  (27) 
COc1ccc2[nH]c[n+](CCc3ccccc3)c2c1 (3D coordinates assigned)
COc1ccc2[nH]c[n+](CCc3ccccc3)c2c1 (optimized conformer: 71.46274572872484 kcal/mol)

>  <smiles>  (27) 
COc1ccc2[nH]c[n+](CCc3ccccc3)c2c1

>  <score_type>  (27) 
oracle

>  <origin>  (27) 
adg

>  <m_score__min__energy>  (27) 
-5.4400000000000004

>  <m_primary>  (27) 
energy

$$$$
27:0
     RDKit          3D

 35 37  0  0  0  0  0  0  0  0999 V2000
   57.3940   26.5390   45.3500 C   0  0  0  0  0  0  0  0  0  0  0  0
   56.4850   27.6300   45.4590 O   0  0  0  0  0  0  0  0  0  0  0  0
   56.8240   28.9700   45.2180 C   0  0  0  0  0  0  0  0  0  0  0  0
   56.2410   29.7190   44.1760 C   0  0  0  0  0  0  0  0  0  0  0  0
   56.6100   31.0520   43.9730 C   0  0  0  0  0  0  0  0  0  0  0  0
   57.5630   31.6540   44.8050 C   0  0  0  0  0  0  0  0  0  0  0  0
   57.9460   32.9860   44.6160 C   0  0  0  0  0  0  0  0  0  0  0  0
   58.8980   33.5660   45.4600 C   0  0  0  0  0  0  0  0  0  0  0  0
   59.3120   34.9280   45.2250 C   0  0  0  0  0  0  0  0  0  0  0  0
   59.6450   36.0200   45.0370 N   0  0  0  0  0  0  0  0  0  0  0  0
   59.4620   32.7970   46.4960 C   0  0  0  0  0  0  0  0  0  0  0  0
   60.4380   33.3660   47.3810 N   0  0  0  0  0  0  0  0  0  0  0  0
   61.8490   33.4440   47.0520 C   0  0  0  0  0  0  0  0  0  0  0  0
   62.5550   33.7660   48.3640 C   0  0  0  0  0  0  0  0  0  0  0  0
   61.4640   34.2320   49.3270 C   0  0  0  0  0  0  0  0  0  0  0  0
   60.1540   33.6980   48.7630 C   0  0  0  0  0  0  0  0  0  0  0  0
   59.0810   31.4980   46.6610 N   0  0  0  0  0  0  0  0  0  0  0  0
   58.1530   30.9120   45.8500 C   0  0  0  0  0  0  0  0  0  0  0  0
   57.7760   29.5740   46.0470 C   0  0  0  0  0  0  0  0  0  0  0  0
   57.6788   26.1971   46.3560 H   0  0  0  0  0  0  0  0  0  0  0  0
   56.9126   25.7137   44.8049 H   0  0  0  0  0  0  0  0  0  0  0  0
   58.2926   26.8635   44.8049 H   0  0  0  0  0  0  0  0  0  0  0  0
   55.4920   29.2524   43.5193 H   0  0  0  0  0  0  0  0  0  0  0  0
   56.1507   31.6300   43.1575 H   0  0  0  0  0  0  0  0  0  0  0  0
   57.4983   33.5771   43.8035 H   0  0  0  0  0  0  0  0  0  0  0  0
   62.2038   32.4835   46.6500 H   0  0  0  0  0  0  0  0  0  0  0  0
   62.0477   34.2056   46.2836 H   0  0  0  0  0  0  0  0  0  0  0  0
   63.0555   32.8694   48.7586 H   0  0  0  0  0  0  0  0  0  0  0  0
   63.3272   34.5373   48.2269 H   0  0  0  0  0  0  0  0  0  0  0  0
   61.6419   33.8243   50.3331 H   0  0  0  0  0  0  0  0  0  0  0  0
   61.4474   35.3280   49.4188 H   0  0  0  0  0  0  0  0  0  0  0  0
   59.8332   32.8028   49.3159 H   0  0  0  0  0  0  0  0  0  0  0  0
   59.3411   34.4341   48.8486 H   0  0  0  0  0  0  0  0  0  0  0  0
   59.5050   30.9450   47.4410 H   0  0  0  0  0  0  0  0  0  0  0  0
   58.2339   28.9941   46.8619 H   0  0  0  0  0  0  0  0  0  0  0  0
  1  2  1  0
  2  3  1  0
  3  4  2  0
  4  5  1  0
  5  6  2  0
  6  7  1  0
  7  8  2  0
  8  9  1  0
  9 10  3  0
  8 11  1  0
 11 12  1  0
 12 13  1  0
 13 14  1  0
 14 15  1  0
 15 16  1  0
 11 17  2  0
 17 18  1  0
 18 19  2  0
 19  3  1  0
 18  6  1  0
 16 12  1  0
  1 20  1  0
  1 21  1  0
  1 22  1  0
  4 23  1  0
  5 24  1  0
  7 25  1  0
 13 26  1  0
 13 27  1  0
 14 28  1  0
 14 29  1  0
 15 30  1  0
 15 31  1  0
 16 32  1  0
 16 33  1  0
 17 34  1  0
 19 35  1  0
M  CHG  1  17   1
M  END
>  <UniqueID>  (28) 
27

>  <SMILES>  (28) 
COc1ccc2cc(C#N)c(N3CCCC3)[nH+]c2c1

>  <Energy>  (28) 
43.739148900299696

>  <Genealogy>  (28) 
COc1ccc2cc(C#N)c(N3CCCC3)[nH+]c2c1 (protonated)
COc1ccc2cc(C#N)c(N3CCCC3)[nH+]c2c1 (3D coordinates assigned)
COc1ccc2cc(C#N)c(N3CCCC3)[nH+]c2c1 (nonaromatic ring conformer: 43.739148900299696 kcal/mol)

>  <smiles>  (28) 
COc1ccc2cc(C#N)c(N3CCCC3)nc2c1

>  <score_type>  (28) 
oracle

>  <origin>  (28) 
adg

>  <m_score__min__energy>  (28) 
-4.9199999999999999

>  <m_primary>  (28) 
energy

$$$$
28:0
     RDKit          3D

 61 64  0  0  0  0  0  0  0  0999 V2000
   57.7700   30.7400   51.1740 C   0  0  0  0  0  0  0  0  0  0  0  0
   59.2650   30.4610   50.9890 C   0  0  0  0  0  0  0  0  0  0  0  0
   59.6770   29.1780   51.6320 N   0  0  2  0  0  0  0  0  0  0  0  0
   60.4460   29.4470   52.8620 C   0  0  0  0  0  0  0  0  0  0  0  0
   60.4900   28.3300   50.7250 C   0  0  0  0  0  0  0  0  0  0  0  0
   61.0240   29.1100   49.5120 C   0  0  0  0  0  0  0  0  0  0  0  0
   60.7420   28.3930   48.2700 N   0  0  0  0  0  0  0  0  0  0  0  0
   59.7710   28.9030   47.3450 C   0  0  0  0  0  0  0  0  0  0  0  0
   58.6790   28.1070   46.9630 C   0  0  0  0  0  0  0  0  0  0  0  0
   58.4950   26.8220   47.5080 C   0  0  0  0  0  0  0  0  0  0  0  0
   57.4110   26.0190   47.1180 C   0  0  0  0  0  0  0  0  0  0  0  0
   57.2020   24.7370   47.6500 O   0  0  0  0  0  0  0  0  0  0  0  0
   57.3840   23.5220   46.9310 C   0  0  0  0  0  0  0  0  0  0  0  0
   56.5000   26.5000   46.1720 C   0  0  0  0  0  0  0  0  0  0  0  0
   55.4240   25.6740   45.8090 O   0  0  0  0  0  0  0  0  0  0  0  0
   55.4950   24.6210   44.8530 C   0  0  0  0  0  0  0  0  0  0  0  0
   56.6810   27.7800   45.6180 C   0  0  0  0  0  0  0  0  0  0  0  0
   57.7700   28.5990   45.9970 C   0  0  0  0  0  0  0  0  0  0  0  0
   57.9630   29.8450   45.4350 N   0  0  0  0  0  0  0  0  0  0  0  0
   57.3920   30.1090   44.0960 C   0  0  0  0  0  0  0  0  0  0  0  0
   58.8640   30.7290   46.0040 C   0  0  0  0  0  0  0  0  0  0  0  0
   59.8780   30.2170   46.8560 C   0  0  0  0  0  0  0  0  0  0  0  0
   60.9860   31.0170   47.1870 C   0  0  0  0  0  0  0  0  0  0  0  0
   61.0630   32.3370   46.7610 C   0  0  0  0  0  0  0  0  0  0  0  0
   59.9890   32.9220   46.0880 C   0  0  0  0  0  0  0  0  0  0  0  0
   60.0210   34.2950   45.7920 C   0  0  0  0  0  0  0  0  0  0  0  0
   58.9030   34.9220   45.2460 C   0  0  0  0  0  0  0  0  0  0  0  0
   57.7370   34.1940   45.0240 C   0  0  0  0  0  0  0  0  0  0  0  0
   57.6980   32.8240   45.2970 C   0  0  0  0  0  0  0  0  0  0  0  0
   58.8490   32.1410   45.7540 C   0  0  0  0  0  0  0  0  0  0  0  0
   57.5353   30.7838   52.2478 H   0  0  0  0  0  0  0  0  0  0  0  0
   57.5154   31.7012   50.7035 H   0  0  0  0  0  0  0  0  0  0  0  0
   57.1859   29.9354   50.7035 H   0  0  0  0  0  0  0  0  0  0  0  0
   59.4858   30.4061   49.9128 H   0  0  0  0  0  0  0  0  0  0  0  0
   59.8254   31.2772   51.4683 H   0  0  0  0  0  0  0  0  0  0  0  0
   58.8370   28.6270   51.9280 H   0  0  0  0  0  0  0  0  0  0  0  0
   59.8210   29.2284   53.7404 H   0  0  0  0  0  0  0  0  0  0  0  0
   61.3417   28.8088   52.8813 H   0  0  0  0  0  0  0  0  0  0  0  0
   60.7486   30.5044   52.8813 H   0  0  0  0  0  0  0  0  0  0  0  0
   61.3440   27.9274   51.2894 H   0  0  0  0  0  0  0  0  0  0  0  0
   59.8408   27.5266   50.3467 H   0  0  0  0  0  0  0  0  0  0  0  0
   60.5403   30.0973   49.4765 H   0  0  0  0  0  0  0  0  0  0  0  0
   62.1134   29.2214   49.6157 H   0  0  0  0  0  0  0  0  0  0  0  0
   61.1190   27.4310   48.1110 H   0  0  0  0  0  0  0  0  0  0  0  0
   59.2114   26.4411   48.2508 H   0  0  0  0  0  0  0  0  0  0  0  0
   57.5085   22.6910   47.6409 H   0  0  0  0  0  0  0  0  0  0  0  0
   56.5038   23.3350   46.2983 H   0  0  0  0  0  0  0  0  0  0  0  0
   58.2803   23.6011   46.2983 H   0  0  0  0  0  0  0  0  0  0  0  0
   55.5601   23.6552   45.3755 H   0  0  0  0  0  0  0  0  0  0  0  0
   54.5938   24.6368   44.2225 H   0  0  0  0  0  0  0  0  0  0  0  0
   56.3860   24.7576   44.2225 H   0  0  0  0  0  0  0  0  0  0  0  0
   55.9606   28.1518   44.8745 H   0  0  0  0  0  0  0  0  0  0  0  0
   56.3985   30.5683   44.2051 H   0  0  0  0  0  0  0  0  0  0  0  0
   58.0534   30.7927   43.5436 H   0  0  0  0  0  0  0  0  0  0  0  0
   57.2996   29.1622   43.5436 H   0  0  0  0  0  0  0  0  0  0  0  0
   61.8017   30.5924   47.7906 H   0  0  0  0  0  0  0  0  0  0  0  0
   61.9734   32.9232   46.9547 H   0  0  0  0  0  0  0  0  0  0  0  0
   60.9325   34.8774   45.9921 H   0  0  0  0  0  0  0  0  0  0  0  0
   58.9414   35.9912   44.9905 H   0  0  0  0  0  0  0  0  0  0  0  0
   56.8423   34.6997   44.6319 H   0  0  0  0  0  0  0  0  0  0  0  0
   56.7590   32.2691   45.1544 H   0  0  0  0  0  0  0  0  0  0  0  0
  1  2  1  0
  2  3  1  0
  3  4  1  0
  3  5  1  0
  5  6  1  0
  6  7  1  0
  7  8  1  0
  8  9  2  0
  9 10  1  0
 10 11  2  0
 11 12  1  0
 12 13  1  0
 11 14  1  0
 14 15  1  0
 15 16  1  0
 14 17  2  0
 17 18  1  0
 18 19  2  0
 19 20  1  0
 19 21  1  0
 21 22  2  0
 22 23  1  0
 23 24  2  0
 24 25  1  0
 25 26  2  0
 26 27  1  0
 27 28  2  0
 28 29  1  0
 29 30  2  0
 22  8  1  0
 30 25  1  0
 18  9  1  0
 30 21  1  0
  1 31  1  0
  1 32  1  0
  1 33  1  0
  2 34  1  0
  2 35  1  0
  3 36  1  1
  4 37  1  0
  4 38  1  0
  4 39  1  0
  5 40  1  0
  5 41  1  0
  6 42  1  0
  6 43  1  0
  7 44  1  0
 10 45  1  0
 13 46  1  0
 13 47  1  0
 13 48  1  0
 16 49  1  0
 16 50  1  0
 16 51  1  0
 17 52  1  0
 20 53  1  0
 20 54  1  0
 20 55  1  0
 23 56  1  0
 24 57  1  0
 26 58  1  0
 27 59  1  0
 28 60  1  0
 29 61  1  0
M  CHG  2   3   1  19   1
M  END
>  <UniqueID>  (29) 
28

>  <SMILES>  (29) 
CC[N@H+](C)CCNc1c2cc(OC)c(OC)cc2[n+](C)c2c1ccc1ccccc12

>  <Energy>  (29) 
105.9966018638677

>  <Genealogy>  (29) 
CC[NH+](C)CCNc1c2cc(OC)c(OC)cc2[n+](C)c2c1ccc1ccccc12 (protonated)
CC[N@H+](C)CCNc1c2cc(OC)c(OC)cc2[n+](C)c2c1ccc1ccccc12 (chirality)
CC[N@H+](C)CCNc1c2cc(OC)c(OC)cc2[n+](C)c2c1ccc1ccccc12 (3D coordinates assigned)
CC[N@H+](C)CCNc1c2cc(OC)c(OC)cc2[n+](C)c2c1ccc1ccccc12 (optimized conformer: 105.9966018638677 kcal/mol)

>  <smiles>  (29) 
CCN(C)CCNc1c2cc(OC)c(OC)cc2[n+](C)c2c1ccc1ccccc12

>  <score_type>  (29) 
oracle

>  <origin>  (29) 
adg

>  <m_score__min__energy>  (29) 
-4.3700000000000001

>  <m_primary>  (29) 
energy

$$$$
29:0
     RDKit          3D

 58 61  0  0  0  0  0  0  0  0999 V2000
   56.7450   30.2150   43.5700 C   0  0  0  0  0  0  0  0  0  0  0  0
   56.7510   30.8250   44.8580 O   0  0  0  0  0  0  0  0  0  0  0  0
   57.6260   31.8500   45.2500 C   0  0  0  0  0  0  0  0  0  0  0  0
   57.3630   33.2060   44.9680 C   0  0  0  0  0  0  0  0  0  0  0  0
   58.2600   34.1970   45.3710 C   0  0  0  0  0  0  0  0  0  0  0  0
   59.4250   33.8500   46.0550 C   0  0  0  0  0  0  0  0  0  0  0  0
   59.6960   32.5090   46.3430 C   0  0  0  0  0  0  0  0  0  0  0  0
   58.7960   31.4990   45.9460 C   0  0  0  0  0  0  0  0  0  0  0  0
   59.0240   30.1370   46.2140 O   0  0  0  0  0  0  0  0  0  0  0  0
   58.1610   29.2810   46.9610 C   0  0  0  0  0  0  0  0  0  0  0  0
   58.8120   27.9070   47.1660 C   0  0  0  0  0  0  0  0  0  0  0  0
   58.2990   26.9380   46.1750 N   0  0  0  0  0  0  0  0  0  0  0  0
   58.5100   27.4190   44.7940 C   0  0  0  0  0  0  0  0  0  0  0  0
   57.8910   26.4380   43.7750 C   0  0  0  0  0  0  0  0  0  0  0  0
   57.4420   25.1910   44.4280 N   0  0  0  0  0  0  0  0  0  0  0  0
   56.9850   24.2220   43.4130 C   0  0  0  0  0  0  0  0  0  0  0  0
   56.8750   22.8450   44.0040 C   0  0  0  0  0  0  0  0  0  0  0  0
   57.5470   21.7160   43.5690 C   0  0  0  0  0  0  0  0  0  0  0  0
   57.2910   20.7080   44.4210 N   0  0  0  0  0  0  0  0  0  0  0  0
   56.5050   21.1490   45.3890 N   0  0  0  0  0  0  0  0  0  0  0  0
   56.0460   20.3220   46.5020 C   0  0  0  0  0  0  0  0  0  0  0  0
   56.2040   22.4480   45.1560 C   0  0  0  0  0  0  0  0  0  0  0  0
   55.4110   23.3320   46.0810 C   0  0  0  0  0  0  0  0  0  0  0  0
   54.4570   24.3010   45.3940 C   0  0  0  0  0  0  0  0  0  0  0  0
   53.9100   23.0720   46.0910 C   0  0  0  0  0  0  0  0  0  0  0  0
   58.5370   24.6320   45.2450 C   0  0  0  0  0  0  0  0  0  0  0  0
   58.9560   25.6250   46.3490 C   0  0  0  0  0  0  0  0  0  0  0  0
   56.7342   29.1208   43.6825 H   0  0  0  0  0  0  0  0  0  0  0  0
   55.8500   30.5355   43.0167 H   0  0  0  0  0  0  0  0  0  0  0  0
   57.6462   30.5178   43.0167 H   0  0  0  0  0  0  0  0  0  0  0  0
   56.4463   33.4847   44.4276 H   0  0  0  0  0  0  0  0  0  0  0  0
   58.0476   35.2532   45.1487 H   0  0  0  0  0  0  0  0  0  0  0  0
   60.1316   34.6326   46.3683 H   0  0  0  0  0  0  0  0  0  0  0  0
   60.6164   32.2405   46.8823 H   0  0  0  0  0  0  0  0  0  0  0  0
   57.9603   29.7363   47.9420 H   0  0  0  0  0  0  0  0  0  0  0  0
   57.2215   29.1497   46.4041 H   0  0  0  0  0  0  0  0  0  0  0  0
   59.9017   28.0017   47.0492 H   0  0  0  0  0  0  0  0  0  0  0  0
   58.5689   27.5453   48.1760 H   0  0  0  0  0  0  0  0  0  0  0  0
   58.0372   28.4055   44.6788 H   0  0  0  0  0  0  0  0  0  0  0  0
   59.5913   27.4902   44.6052 H   0  0  0  0  0  0  0  0  0  0  0  0
   57.0275   26.9203   43.2936 H   0  0  0  0  0  0  0  0  0  0  0  0
   58.6604   26.1809   43.0321 H   0  0  0  0  0  0  0  0  0  0  0  0
   55.9996   24.5325   43.0354 H   0  0  0  0  0  0  0  0  0  0  0  0
   57.7178   24.1971   42.5930 H   0  0  0  0  0  0  0  0  0  0  0  0
   58.1846   21.6538   42.6748 H   0  0  0  0  0  0  0  0  0  0  0  0
   57.6710   19.7360   44.3530 H   0  0  0  0  0  0  0  0  0  0  0  0
   56.3143   20.8054   47.4530 H   0  0  0  0  0  0  0  0  0  0  0  0
   54.9537   20.2048   46.4456 H   0  0  0  0  0  0  0  0  0  0  0  0
   56.5243   19.3330   46.4456 H   0  0  0  0  0  0  0  0  0  0  0  0
   56.1956   23.4202   46.8469 H   0  0  0  0  0  0  0  0  0  0  0  0
   54.2839   25.2989   45.8233 H   0  0  0  0  0  0  0  0  0  0  0  0
   54.3731   24.7214   44.3810 H   0  0  0  0  0  0  0  0  0  0  0  0
   53.3401   23.1784   47.0258 H   0  0  0  0  0  0  0  0  0  0  0  0
   53.2652   22.2323   45.7926 H   0  0  0  0  0  0  0  0  0  0  0  0
   58.1974   23.6956   45.7117 H   0  0  0  0  0  0  0  0  0  0  0  0
   59.4026   24.4420   44.5934 H   0  0  0  0  0  0  0  0  0  0  0  0
   58.6734   25.2109   47.3281 H   0  0  0  0  0  0  0  0  0  0  0  0
   60.0442   25.7726   46.2854 H   0  0  0  0  0  0  0  0  0  0  0  0
  1  2  1  0
  2  3  1  0
  3  4  2  0
  4  5  1  0
  5  6  2  0
  6  7  1  0
  7  8  2  0
  8  9  1  0
  9 10  1  0
 10 11  1  0
 11 12  1  0
 12 13  1  0
 13 14  1  0
 14 15  1  0
 15 16  1  0
 16 17  1  0
 17 18  1  0
 18 19  2  0
 19 20  1  0
 20 21  1  0
 20 22  1  0
 22 23  1  0
 23 24  1  0
 24 25  1  0
 15 26  1  0
 26 27  1  0
  8  3  1  0
 27 12  1  0
 22 17  2  0
 25 23  1  0
  1 28  1  0
  1 29  1  0
  1 30  1  0
  4 31  1  0
  5 32  1  0
  6 33  1  0
  7 34  1  0
 10 35  1  0
 10 36  1  0
 11 37  1  0
 11 38  1  0
 13 39  1  0
 13 40  1  0
 14 41  1  0
 14 42  1  0
 16 43  1  0
 16 44  1  0
 18 45  1  0
 19 46  1  0
 21 47  1  0
 21 48  1  0
 21 49  1  0
 23 50  1  0
 24 51  1  0
 24 52  1  0
 25 53  1  0
 25 54  1  0
 26 55  1  0
 26 56  1  0
 27 57  1  0
 27 58  1  0
M  CHG  1  19   1
M  END
>  <UniqueID>  (30) 
29

>  <SMILES>  (30) 
COc1ccccc1OCCN1CCN(Cc2c[nH+]n(C)c2C2CC2)CC1

>  <Energy>  (30) 
359.7042966888967

>  <Genealogy>  (30) 
COc1ccccc1OCCN1CCN(Cc2c[nH+]n(C)c2C2CC2)CC1 (protonated)
COc1ccccc1OCCN1CCN(Cc2c[nH+]n(C)c2C2CC2)CC1 (3D coordinates assigned)
COc1ccccc1OCCN1CCN(Cc2c[nH+]n(C)c2C2CC2)CC1 (nonaromatic ring conformer: 359.7042966888967 kcal/mol)

>  <smiles>  (30) 
COc1ccccc1OCCN1CCN(Cc2cnn(C)c2C2CC2)CC1

>  <score_type>  (30) 
oracle

>  <origin>  (30) 
adg

>  <m_score__min__energy>  (30) 
-7.8799999999999999

>  <m_primary>  (30) 
energy

$$$$
30:0
     RDKit          3D

 61 63  0  0  0  0  0  0  0  0999 V2000
   57.4590   31.2670   51.2930 C   0  0  0  0  0  0  0  0  0  0  0  0
   58.5370   30.6310   50.4170 C   0  0  0  0  0  0  0  0  0  0  0  0
   59.7980   31.4170   50.4200 N   0  0  0  0  0  0  0  0  0  0  0  0
   59.5540   32.7650   50.9950 C   0  0  0  0  0  0  0  0  0  0  0  0
   59.6500   33.8560   49.9270 C   0  0  0  0  0  0  0  0  0  0  0  0
   60.8820   30.7080   51.1540 C   0  0  0  0  0  0  0  0  0  0  0  0
   62.2700   31.1380   50.6460 C   0  0  0  0  0  0  0  0  0  0  0  0
   62.1960   32.1950   49.7070 O   0  0  0  0  0  0  0  0  0  0  0  0
   63.0500   31.9530   48.6080 C   0  0  0  0  0  0  0  0  0  0  0  0
   62.2380   31.3840   47.4470 C   0  0  0  0  0  0  0  0  0  0  0  0
   60.8180   31.3130   47.7900 N   0  0  0  0  0  0  0  0  0  0  0  0
   59.7960   31.3390   46.7780 C   0  0  0  0  0  0  0  0  0  0  0  0
   59.4460   32.5460   46.1460 C   0  0  0  0  0  0  0  0  0  0  0  0
   59.9990   33.7740   46.5710 C   0  0  0  0  0  0  0  0  0  0  0  0
   59.6250   34.9710   45.9660 C   0  0  0  0  0  0  0  0  0  0  0  0
   58.6820   34.9700   44.9460 C   0  0  0  0  0  0  0  0  0  0  0  0
   58.1120   33.7710   44.5170 C   0  0  0  0  0  0  0  0  0  0  0  0
   58.4970   32.5310   45.0880 C   0  0  0  0  0  0  0  0  0  0  0  0
   57.9570   31.3340   44.6580 N   0  0  0  0  0  0  0  0  0  0  0  0
   57.2090   31.2770   43.3820 C   0  0  0  0  0  0  0  0  0  0  0  0
   58.1360   30.1870   45.4080 C   0  0  0  0  0  0  0  0  0  0  0  0
   57.3730   29.0150   45.1720 C   0  0  0  0  0  0  0  0  0  0  0  0
   57.5970   27.8340   45.8930 C   0  0  0  0  0  0  0  0  0  0  0  0
   56.8060   26.6670   45.6030 N   0  0  0  0  0  0  0  0  0  0  0  0
   56.6600   25.5430   46.5220 C   0  0  0  0  0  0  0  0  0  0  0  0
   58.5900   27.8200   46.8810 C   0  0  0  0  0  0  0  0  0  0  0  0
   59.3290   28.9660   47.1530 C   0  0  0  0  0  0  0  0  0  0  0  0
   59.0930   30.1650   46.4540 C   0  0  0  0  0  0  0  0  0  0  0  0
   57.7124   31.1175   52.3529 H   0  0  0  0  0  0  0  0  0  0  0  0
   57.4006   32.3443   51.0784 H   0  0  0  0  0  0  0  0  0  0  0  0
   56.4878   30.7972   51.0784 H   0  0  0  0  0  0  0  0  0  0  0  0
   58.7490   29.6197   50.7942 H   0  0  0  0  0  0  0  0  0  0  0  0
   58.1594   30.6019   49.3842 H   0  0  0  0  0  0  0  0  0  0  0  0
   58.5480   32.7873   51.4393 H   0  0  0  0  0  0  0  0  0  0  0  0
   60.3231   32.9595   51.7570 H   0  0  0  0  0  0  0  0  0  0  0  0
   59.7365   34.8388   50.4135 H   0  0  0  0  0  0  0  0  0  0  0  0
   60.5360   33.6781   49.2998 H   0  0  0  0  0  0  0  0  0  0  0  0
   58.7466   33.8356   49.2998 H   0  0  0  0  0  0  0  0  0  0  0  0
   60.8032   30.9431   52.2257 H   0  0  0  0  0  0  0  0  0  0  0  0
   60.7683   29.6270   50.9853 H   0  0  0  0  0  0  0  0  0  0  0  0
   62.8735   31.4690   51.5040 H   0  0  0  0  0  0  0  0  0  0  0  0
   62.7265   30.2729   50.1428 H   0  0  0  0  0  0  0  0  0  0  0  0
   63.5231   32.8960   48.2969 H   0  0  0  0  0  0  0  0  0  0  0  0
   63.8271   31.2313   48.8999 H   0  0  0  0  0  0  0  0  0  0  0  0
   62.3642   32.0321   46.5672 H   0  0  0  0  0  0  0  0  0  0  0  0
   62.5988   30.3678   47.2299 H   0  0  0  0  0  0  0  0  0  0  0  0
   60.5400   31.2300   48.7930 H   0  0  0  0  0  0  0  0  0  0  0  0
   60.7338   33.7850   47.3895 H   0  0  0  0  0  0  0  0  0  0  0  0
   60.0766   35.9182   46.2960 H   0  0  0  0  0  0  0  0  0  0  0  0
   58.3836   35.9181   44.4748 H   0  0  0  0  0  0  0  0  0  0  0  0
   57.3513   33.7876   43.7226 H   0  0  0  0  0  0  0  0  0  0  0  0
   56.1323   31.1950   43.5915 H   0  0  0  0  0  0  0  0  0  0  0  0
   57.4012   32.1924   42.8031 H   0  0  0  0  0  0  0  0  0  0  0  0
   57.5377   30.4013   42.8031 H   0  0  0  0  0  0  0  0  0  0  0  0
   56.5858   29.0333   44.4039 H   0  0  0  0  0  0  0  0  0  0  0  0
   56.3110   26.6060   44.6850 H   0  0  0  0  0  0  0  0  0  0  0  0
   56.7074   25.9083   47.5585 H   0  0  0  0  0  0  0  0  0  0  0  0
   55.6906   25.0524   46.3501 H   0  0  0  0  0  0  0  0  0  0  0  0
   57.4719   24.8210   46.3501 H   0  0  0  0  0  0  0  0  0  0  0  0
   58.7864   26.8964   47.4453 H   0  0  0  0  0  0  0  0  0  0  0  0
   60.1104   28.9353   47.9266 H   0  0  0  0  0  0  0  0  0  0  0  0
  1  2  1  0
  2  3  1  0
  3  4  1  0
  4  5  1  0
  3  6  1  0
  6  7  1  0
  7  8  1  0
  8  9  1  0
  9 10  1  0
 10 11  1  0
 11 12  1  0
 12 13  2  0
 13 14  1  0
 14 15  2  0
 15 16  1  0
 16 17  2  0
 17 18  1  0
 18 19  2  0
 19 20  1  0
 19 21  1  0
 21 22  2  0
 22 23  1  0
 23 24  1  0
 24 25  1  0
 23 26  2  0
 26 27  1  0
 27 28  2  0
 28 12  1  0
 18 13  1  0
 28 21  1  0
  1 29  1  0
  1 30  1  0
  1 31  1  0
  2 32  1  0
  2 33  1  0
  4 34  1  0
  4 35  1  0
  5 36  1  0
  5 37  1  0
  5 38  1  0
  6 39  1  0
  6 40  1  0
  7 41  1  0
  7 42  1  0
  9 43  1  0
  9 44  1  0
 10 45  1  0
 10 46  1  0
 11 47  1  0
 14 48  1  0
 15 49  1  0
 16 50  1  0
 17 51  1  0
 20 52  1  0
 20 53  1  0
 20 54  1  0
 22 55  1  0
 24 56  1  0
 25 57  1  0
 25 58  1  0
 25 59  1  0
 26 60  1  0
 27 61  1  0
M  CHG  1  19   1
M  END
>  <UniqueID>  (31) 
30

>  <SMILES>  (31) 
CCN(CC)CCOCCNc1c2ccccc2[n+](C)c2cc(NC)ccc12

>  <Energy>  (31) 
84.65345170934327

>  <Genealogy>  (31) 
CCN(CC)CCOCCNc1c2ccccc2[n+](C)c2cc(NC)ccc12 (3D coordinates assigned)
CCN(CC)CCOCCNc1c2ccccc2[n+](C)c2cc(NC)ccc12 (optimized conformer: 84.65345170934327 kcal/mol)

>  <smiles>  (31) 
CCN(CC)CCOCCNc1c2ccccc2[n+](C)c2cc(NC)ccc12

>  <score_type>  (31) 
oracle

>  <origin>  (31) 
adg

>  <m_score__min__energy>  (31) 
-5.5

>  <m_primary>  (31) 
energy

$$$$
31:0
     RDKit          3D

 45 46  0  0  0  0  0  0  0  0999 V2000
   59.2850   33.1250   50.5840 C   0  0  0  0  0  0  0  0  0  0  0  0
   58.4240   31.8690   50.5140 C   0  0  0  0  0  0  0  0  0  0  0  0
   58.5190   31.2800   49.2320 O   0  0  0  0  0  0  0  0  0  0  0  0
   58.9160   29.9280   49.3330 C   0  0  0  0  0  0  0  0  0  0  0  0
   60.0780   29.6510   48.3670 C   0  0  0  0  0  0  0  0  0  0  0  0
   60.1240   30.6170   47.2420 N   0  0  2  0  0  0  0  0  0  0  0  0
   59.9850   29.9550   45.9210 C   0  0  0  0  0  0  0  0  0  0  0  0
   58.6280   30.1360   45.2730 C   0  0  0  0  0  0  0  0  0  0  0  0
   58.4870   30.9340   44.1280 C   0  0  0  0  0  0  0  0  0  0  0  0
   57.2350   31.0920   43.5330 C   0  0  0  0  0  0  0  0  0  0  0  0
   56.1270   30.4600   44.0960 C   0  0  0  0  0  0  0  0  0  0  0  0
   56.2710   29.7050   45.2170 N   0  0  0  0  0  0  0  0  0  0  0  0
   57.4810   29.5340   45.8140 C   0  0  0  0  0  0  0  0  0  0  0  0
   61.3090   31.4580   47.2920 C   0  0  0  0  0  0  0  0  0  0  0  0
   62.4050   30.9980   46.9950 O   0  0  0  0  0  0  0  0  0  0  0  0
   61.2040   32.8780   47.8060 C   0  0  0  0  0  0  0  0  0  0  0  0
   60.9440   33.9200   46.7080 C   0  0  0  0  0  0  0  0  0  0  0  0
   59.5140   33.9210   46.2530 C   0  0  0  0  0  0  0  0  0  0  0  0
   59.0490   34.3510   45.0160 C   0  0  0  0  0  0  0  0  0  0  0  0
   57.6620   34.2230   44.8750 C   0  0  0  0  0  0  0  0  0  0  0  0
   57.0340   33.6890   45.9950 C   0  0  0  0  0  0  0  0  0  0  0  0
   58.2060   33.3770   47.1600 S   0  0  0  0  0  0  0  0  0  0  0  0
   59.4652   33.3878   51.6368 H   0  0  0  0  0  0  0  0  0  0  0  0
   60.2464   32.9389   50.0828 H   0  0  0  0  0  0  0  0  0  0  0  0
   58.7648   33.9546   50.0828 H   0  0  0  0  0  0  0  0  0  0  0  0
   58.7698   31.1493   51.2706 H   0  0  0  0  0  0  0  0  0  0  0  0
   57.3759   32.1424   50.7055 H   0  0  0  0  0  0  0  0  0  0  0  0
   59.2403   29.7190   50.3631 H   0  0  0  0  0  0  0  0  0  0  0  0
   58.0659   29.2804   49.0723 H   0  0  0  0  0  0  0  0  0  0  0  0
   61.0237   29.7144   48.9253 H   0  0  0  0  0  0  0  0  0  0  0  0
   59.9265   28.6484   47.9407 H   0  0  0  0  0  0  0  0  0  0  0  0
   59.2830   31.2360   47.3300 H   0  0  0  0  0  0  0  0  0  0  0  0
   60.7475   30.3703   45.2456 H   0  0  0  0  0  0  0  0  0  0  0  0
   60.1098   28.8760   46.0946 H   0  0  0  0  0  0  0  0  0  0  0  0
   59.3660   31.4366   43.6981 H   0  0  0  0  0  0  0  0  0  0  0  0
   57.1232   31.7088   42.6291 H   0  0  0  0  0  0  0  0  0  0  0  0
   55.1357   30.5725   43.6327 H   0  0  0  0  0  0  0  0  0  0  0  0
   57.5612   28.9216   46.7243 H   0  0  0  0  0  0  0  0  0  0  0  0
   60.3770   32.9240   48.5299 H   0  0  0  0  0  0  0  0  0  0  0  0
   62.1755   33.1264   48.2581 H   0  0  0  0  0  0  0  0  0  0  0  0
   61.1913   34.9173   47.1007 H   0  0  0  0  0  0  0  0  0  0  0  0
   61.5729   33.6624   45.8430 H   0  0  0  0  0  0  0  0  0  0  0  0
   59.7039   34.7511   44.2280 H   0  0  0  0  0  0  0  0  0  0  0  0
   57.1200   34.5171   43.9641 H   0  0  0  0  0  0  0  0  0  0  0  0
   55.9551   33.5026   46.1008 H   0  0  0  0  0  0  0  0  0  0  0  0
  1  2  1  0
  2  3  1  0
  3  4  1  0
  4  5  1  0
  5  6  1  0
  6  7  1  0
  7  8  1  0
  8  9  2  0
  9 10  1  0
 10 11  2  0
 11 12  1  0
 12 13  2  0
  6 14  1  0
 14 15  2  0
 14 16  1  0
 16 17  1  0
 17 18  1  0
 18 19  2  0
 19 20  1  0
 20 21  2  0
 21 22  1  0
 13  8  1  0
 22 18  1  0
  1 23  1  0
  1 24  1  0
  1 25  1  0
  2 26  1  0
  2 27  1  0
  4 28  1  0
  4 29  1  0
  5 30  1  0
  5 31  1  0
  6 32  1  1
  7 33  1  0
  7 34  1  0
  9 35  1  0
 10 36  1  0
 11 37  1  0
 13 38  1  0
 16 39  1  0
 16 40  1  0
 17 41  1  0
 17 42  1  0
 19 43  1  0
 20 44  1  0
 21 45  1  0
M  CHG  1   6   1
M  END
>  <UniqueID>  (32) 
31

>  <SMILES>  (32) 
CCOCC[N@H+](Cc1cccnc1)C(=O)CCc1cccs1

>  <Energy>  (32) 
69.29324226883541

>  <Genealogy>  (32) 
CCOCC[NH+](Cc1cccnc1)C(=O)CCc1cccs1 (protonated)
CCOCC[N@H+](Cc1cccnc1)C(=O)CCc1cccs1 (chirality)
CCOCC[N@H+](Cc1cccnc1)C(=O)CCc1cccs1 (3D coordinates assigned)
CCOCC[N@H+](Cc1cccnc1)C(=O)CCc1cccs1 (optimized conformer: 69.29324226883541 kcal/mol)

>  <smiles>  (32) 
CCOCCN(Cc1cccnc1)C(=O)CCc1cccs1

>  <score_type>  (32) 
oracle

>  <origin>  (32) 
adg

>  <m_score__min__energy>  (32) 
-4.9299999999999997

>  <m_primary>  (32) 
energy

$$$$
32:0
     RDKit          3D

 63 65  0  0  0  0  0  0  0  0999 V2000
   63.3780   33.5020   46.7950 C   0  0  0  0  0  0  0  0  0  0  0  0
   62.9530   32.7900   48.0840 C   0  0  0  0  0  0  0  0  0  0  0  0
   62.3640   33.7480   49.1350 C   0  0  0  0  0  0  0  0  0  0  0  0
   60.8690   33.5170   49.4530 C   0  0  0  0  0  0  0  0  0  0  0  0
   60.1640   32.7530   48.3840 N   0  0  0  0  0  0  0  0  0  0  0  0
   59.7470   33.4250   47.2380 C   0  0  0  0  0  0  0  0  0  0  0  0
   60.0170   34.8090   47.0260 C   0  0  0  0  0  0  0  0  0  0  0  0
   59.6290   35.4570   45.8560 C   0  0  0  0  0  0  0  0  0  0  0  0
   58.9680   34.7600   44.8580 C   0  0  0  0  0  0  0  0  0  0  0  0
   58.6580   33.4180   45.0390 C   0  0  0  0  0  0  0  0  0  0  0  0
   59.0140   32.7400   46.2280 C   0  0  0  0  0  0  0  0  0  0  0  0
   58.6420   31.4020   46.4270 C   0  0  0  0  0  0  0  0  0  0  0  0
   57.6120   30.8030   45.6080 N   0  0  0  0  0  0  0  0  0  0  0  0
   57.7790   30.5430   44.1670 C   0  0  0  0  0  0  0  0  0  0  0  0
   56.9590   29.3210   43.6610 C   0  0  0  0  0  0  0  0  0  0  0  0
   57.4020   27.9810   44.1460 N   0  0  0  0  0  0  0  0  0  0  0  0
   58.7910   27.6630   43.7290 C   0  0  0  0  0  0  0  0  0  0  0  0
   59.8370   28.2300   44.7010 C   0  0  0  0  0  0  0  0  0  0  0  0
   57.2470   27.7630   45.6080 C   0  0  0  0  0  0  0  0  0  0  0  0
   57.1280   26.2840   46.0030 C   0  0  0  0  0  0  0  0  0  0  0  0
   59.2170   30.6890   47.4910 C   0  0  0  0  0  0  0  0  0  0  0  0
   59.1090   29.2870   47.5400 C   0  0  0  0  0  0  0  0  0  0  0  0
   59.5920   28.5710   48.6270 C   0  0  0  0  0  0  0  0  0  0  0  0
   60.1960   29.2270   49.6910 C   0  0  0  0  0  0  0  0  0  0  0  0
   60.6220   28.4530   50.7830 O   0  0  0  0  0  0  0  0  0  0  0  0
   61.5720   28.8710   51.7580 C   0  0  0  0  0  0  0  0  0  0  0  0
   60.3700   30.6220   49.6310 C   0  0  0  0  0  0  0  0  0  0  0  0
   59.9360   31.3840   48.5040 C   0  0  0  0  0  0  0  0  0  0  0  0
   63.9267   34.4213   47.0477 H   0  0  0  0  0  0  0  0  0  0  0  0
   64.0274   32.8375   46.2061 H   0  0  0  0  0  0  0  0  0  0  0  0
   62.4849   33.7582   46.2061 H   0  0  0  0  0  0  0  0  0  0  0  0
   62.1932   32.0351   47.8332 H   0  0  0  0  0  0  0  0  0  0  0  0
   63.8545   32.3362   48.5214 H   0  0  0  0  0  0  0  0  0  0  0  0
   62.9353   33.6272   50.0672 H   0  0  0  0  0  0  0  0  0  0  0  0
   62.4387   34.7598   48.7099 H   0  0  0  0  0  0  0  0  0  0  0  0
   60.7926   32.9552   50.3956 H   0  0  0  0  0  0  0  0  0  0  0  0
   60.3890   34.5040   49.5272 H   0  0  0  0  0  0  0  0  0  0  0  0
   60.5445   35.3785   47.8054 H   0  0  0  0  0  0  0  0  0  0  0  0
   59.8483   36.5268   45.7238 H   0  0  0  0  0  0  0  0  0  0  0  0
   58.6889   35.2685   43.9234 H   0  0  0  0  0  0  0  0  0  0  0  0
   58.1268   32.8736   44.2443 H   0  0  0  0  0  0  0  0  0  0  0  0
   56.7400   30.4580   46.0590 H   0  0  0  0  0  0  0  0  0  0  0  0
   57.4541   31.4352   43.6116 H   0  0  0  0  0  0  0  0  0  0  0  0
   58.8416   30.3133   43.9992 H   0  0  0  0  0  0  0  0  0  0  0  0
   55.9152   29.4637   43.9773 H   0  0  0  0  0  0  0  0  0  0  0  0
   57.1045   29.3012   42.5708 H   0  0  0  0  0  0  0  0  0  0  0  0
   56.7730   27.2810   43.6850 H   0  0  0  0  0  0  0  0  0  0  0  0
   58.9054   26.5699   43.6848 H   0  0  0  0  0  0  0  0  0  0  0  0
   58.9608   28.1253   42.7454 H   0  0  0  0  0  0  0  0  0  0  0  0
   59.5098   28.0526   45.7361 H   0  0  0  0  0  0  0  0  0  0  0  0
   60.8031   27.7321   44.5314 H   0  0  0  0  0  0  0  0  0  0  0  0
   59.9470   29.3113   44.5314 H   0  0  0  0  0  0  0  0  0  0  0  0
   58.1240   28.1889   46.1174 H   0  0  0  0  0  0  0  0  0  0  0  0
   56.3084   28.2520   45.9079 H   0  0  0  0  0  0  0  0  0  0  0  0
   57.1210   26.1968   47.0995 H   0  0  0  0  0  0  0  0  0  0  0  0
   56.1936   25.8699   45.5962 H   0  0  0  0  0  0  0  0  0  0  0  0
   57.9841   25.7258   45.5962 H   0  0  0  0  0  0  0  0  0  0  0  0
   58.6350   28.7504   46.7049 H   0  0  0  0  0  0  0  0  0  0  0  0
   59.4953   27.4754   48.6453 H   0  0  0  0  0  0  0  0  0  0  0  0
   61.1667   28.6927   52.7649 H   0  0  0  0  0  0  0  0  0  0  0  0
   62.5033   28.2995   51.6311 H   0  0  0  0  0  0  0  0  0  0  0  0
   61.7799   29.9437   51.6311 H   0  0  0  0  0  0  0  0  0  0  0  0
   60.8526   31.1387   50.4737 H   0  0  0  0  0  0  0  0  0  0  0  0
  1  2  1  0
  2  3  1  0
  3  4  1  0
  4  5  1  0
  5  6  2  0
  6  7  1  0
  7  8  2  0
  8  9  1  0
  9 10  2  0
 10 11  1  0
 11 12  2  0
 12 13  1  0
 13 14  1  0
 14 15  1  0
 15 16  1  0
 16 17  1  0
 17 18  1  0
 16 19  1  0
 19 20  1  0
 12 21  1  0
 21 22  2  0
 22 23  1  0
 23 24  2  0
 24 25  1  0
 25 26  1  0
 24 27  1  0
 27 28  2  0
 28  5  1  0
 11  6  1  0
 28 21  1  0
  1 29  1  0
  1 30  1  0
  1 31  1  0
  2 32  1  0
  2 33  1  0
  3 34  1  0
  3 35  1  0
  4 36  1  0
  4 37  1  0
  7 38  1  0
  8 39  1  0
  9 40  1  0
 10 41  1  0
 13 42  1  0
 14 43  1  0
 14 44  1  0
 15 45  1  0
 15 46  1  0
 16 47  1  0
 17 48  1  0
 17 49  1  0
 18 50  1  0
 18 51  1  0
 18 52  1  0
 19 53  1  0
 19 54  1  0
 20 55  1  0
 20 56  1  0
 20 57  1  0
 22 58  1  0
 23 59  1  0
 26 60  1  0
 26 61  1  0
 26 62  1  0
 27 63  1  0
M  CHG  2   5   1  16   1
M  END
>  <UniqueID>  (33) 
32

>  <SMILES>  (33) 
CCCC[n+]1c2ccccc2c(NCC[NH+](CC)CC)c2ccc(OC)cc21

>  <Energy>  (33) 
96.06645895403071

>  <Genealogy>  (33) 
CCCC[n+]1c2ccccc2c(NCC[NH+](CC)CC)c2ccc(OC)cc21 (protonated)
CCCC[n+]1c2ccccc2c(NCC[NH+](CC)CC)c2ccc(OC)cc21 (3D coordinates assigned)
CCCC[n+]1c2ccccc2c(NCC[NH+](CC)CC)c2ccc(OC)cc21 (optimized conformer: 96.06645895403071 kcal/mol)

>  <smiles>  (33) 
CCCC[n+]1c2ccccc2c(NCCN(CC)CC)c2ccc(OC)cc21

>  <score_type>  (33) 
oracle

>  <origin>  (33) 
adg

>  <m_score__min__energy>  (33) 
-5.0999999999999996

>  <m_primary>  (33) 
energy

$$$$
33:0
     RDKit          3D

 61 63  0  0  0  0  0  0  0  0999 V2000
   63.3960   33.8120   46.7400 C   0  0  0  0  0  0  0  0  0  0  0  0
   62.7420   33.0280   47.7980 N   0  0  0  0  0  0  0  0  0  0  0  0
   62.7340   31.5890   47.4920 C   0  0  0  0  0  0  0  0  0  0  0  0
   63.1950   33.3540   49.1710 C   0  0  0  0  0  0  0  0  0  0  0  0
   62.5800   32.5140   50.3190 C   0  0  0  0  0  0  0  0  0  0  0  0
   61.6240   33.2700   51.2550 C   0  0  0  0  0  0  0  0  0  0  0  0
   60.2820   33.2720   50.7650 O   0  0  0  0  0  0  0  0  0  0  0  0
   59.9040   33.3590   49.4170 C   0  0  0  0  0  0  0  0  0  0  0  0
   59.9290   34.5610   48.6990 C   0  0  0  0  0  0  0  0  0  0  0  0
   59.5630   34.5870   47.3540 C   0  0  0  0  0  0  0  0  0  0  0  0
   59.1900   33.4020   46.6700 C   0  0  0  0  0  0  0  0  0  0  0  0
   59.1370   32.1940   47.4110 C   0  0  0  0  0  0  0  0  0  0  0  0
   59.4800   32.1960   48.7790 C   0  0  0  0  0  0  0  0  0  0  0  0
   58.7200   31.0100   46.7770 C   0  0  0  0  0  0  0  0  0  0  0  0
   58.7660   29.7530   47.4720 N   0  0  0  0  0  0  0  0  0  0  0  0
   60.0320   29.1130   47.8300 C   0  0  0  0  0  0  0  0  0  0  0  0
   59.9760   27.6000   47.5340 C   0  0  0  0  0  0  0  0  0  0  0  0
   58.7470   27.1590   46.8380 N   0  0  0  0  0  0  0  0  0  0  0  0
   58.1390   25.9640   47.4460 C   0  0  0  0  0  0  0  0  0  0  0  0
   58.9370   26.9830   45.3900 C   0  0  0  0  0  0  0  0  0  0  0  0
   58.2130   31.0720   45.4670 C   0  0  0  0  0  0  0  0  0  0  0  0
   57.6680   29.9270   44.8490 C   0  0  0  0  0  0  0  0  0  0  0  0
   57.1310   30.0000   43.5670 C   0  0  0  0  0  0  0  0  0  0  0  0
   57.1170   31.2110   42.8850 C   0  0  0  0  0  0  0  0  0  0  0  0
   57.6660   32.3530   43.4700 C   0  0  0  0  0  0  0  0  0  0  0  0
   58.2600   32.3020   44.7580 C   0  0  0  0  0  0  0  0  0  0  0  0
   58.8630   33.4090   45.3260 N   0  0  0  0  0  0  0  0  0  0  0  0
   59.1790   34.5910   44.4930 C   0  0  0  0  0  0  0  0  0  0  0  0
   64.0371   34.5806   47.1963 H   0  0  0  0  0  0  0  0  0  0  0  0
   64.0098   33.1457   46.1161 H   0  0  0  0  0  0  0  0  0  0  0  0
   62.6304   34.2963   46.1161 H   0  0  0  0  0  0  0  0  0  0  0  0
   62.7308   31.0147   48.4301 H   0  0  0  0  0  0  0  0  0  0  0  0
   61.8345   31.3432   46.9085 H   0  0  0  0  0  0  0  0  0  0  0  0
   63.6307   31.3332   46.9085 H   0  0  0  0  0  0  0  0  0  0  0  0
   64.2860   33.2176   49.2043 H   0  0  0  0  0  0  0  0  0  0  0  0
   62.8582   34.3854   49.3518 H   0  0  0  0  0  0  0  0  0  0  0  0
   62.0227   31.6801   49.8674 H   0  0  0  0  0  0  0  0  0  0  0  0
   63.4259   32.1952   50.9457 H   0  0  0  0  0  0  0  0  0  0  0  0
   61.6400   32.7875   52.2434 H   0  0  0  0  0  0  0  0  0  0  0  0
   61.9642   34.3143   51.3151 H   0  0  0  0  0  0  0  0  0  0  0  0
   60.2393   35.4903   49.1992 H   0  0  0  0  0  0  0  0  0  0  0  0
   59.5635   35.5448   46.8131 H   0  0  0  0  0  0  0  0  0  0  0  0
   59.4113   31.2604   49.3534 H   0  0  0  0  0  0  0  0  0  0  0  0
   57.8690   29.2500   47.6650 H   0  0  0  0  0  0  0  0  0  0  0  0
   60.8451   29.5665   47.2442 H   0  0  0  0  0  0  0  0  0  0  0  0
   60.2122   29.2584   48.9054 H   0  0  0  0  0  0  0  0  0  0  0  0
   60.8400   27.3402   46.9046 H   0  0  0  0  0  0  0  0  0  0  0  0
   59.9862   27.0887   48.5079 H   0  0  0  0  0  0  0  0  0  0  0  0
   58.1818   26.0481   48.5419 H   0  0  0  0  0  0  0  0  0  0  0  0
   57.0900   25.8828   47.1252 H   0  0  0  0  0  0  0  0  0  0  0  0
   58.6909   25.0682   47.1252 H   0  0  0  0  0  0  0  0  0  0  0  0
   59.7333   26.2454   45.2117 H   0  0  0  0  0  0  0  0  0  0  0  0
   57.9995   26.6271   44.9378 H   0  0  0  0  0  0  0  0  0  0  0  0
   59.2202   27.9449   44.9378 H   0  0  0  0  0  0  0  0  0  0  0  0
   57.6674   28.9668   45.3857 H   0  0  0  0  0  0  0  0  0  0  0  0
   56.7170   29.0979   43.0928 H   0  0  0  0  0  0  0  0  0  0  0  0
   56.6717   31.2695   41.8808 H   0  0  0  0  0  0  0  0  0  0  0  0
   57.6379   33.3077   42.9242 H   0  0  0  0  0  0  0  0  0  0  0  0
   59.4080   35.4477   45.1439 H   0  0  0  0  0  0  0  0  0  0  0  0
   60.0496   34.3699   43.8580 H   0  0  0  0  0  0  0  0  0  0  0  0
   58.3142   34.8339   43.8580 H   0  0  0  0  0  0  0  0  0  0  0  0
  1  2  1  0
  2  3  1  0
  2  4  1  0
  4  5  1  0
  5  6  1  0
  6  7  1  0
  7  8  1  0
  8  9  2  0
  9 10  1  0
 10 11  2  0
 11 12  1  0
 12 13  2  0
 12 14  1  0
 14 15  1  0
 15 16  1  0
 16 17  1  0
 17 18  1  0
 18 19  1  0
 18 20  1  0
 14 21  2  0
 21 22  1  0
 22 23  2  0
 23 24  1  0
 24 25  2  0
 25 26  1  0
 26 27  2  0
 27 28  1  0
 13  8  1  0
 26 21  1  0
 27 11  1  0
  1 29  1  0
  1 30  1  0
  1 31  1  0
  3 32  1  0
  3 33  1  0
  3 34  1  0
  4 35  1  0
  4 36  1  0
  5 37  1  0
  5 38  1  0
  6 39  1  0
  6 40  1  0
  9 41  1  0
 10 42  1  0
 13 43  1  0
 15 44  1  0
 16 45  1  0
 16 46  1  0
 17 47  1  0
 17 48  1  0
 19 49  1  0
 19 50  1  0
 19 51  1  0
 20 52  1  0
 20 53  1  0
 20 54  1  0
 22 55  1  0
 23 56  1  0
 24 57  1  0
 25 58  1  0
 28 59  1  0
 28 60  1  0
 28 61  1  0
M  CHG  1  27   1
M  END
>  <UniqueID>  (34) 
33

>  <SMILES>  (34) 
CN(C)CCCOc1ccc2c(c1)c(NCCN(C)C)c1ccccc1[n+]2C

>  <Energy>  (34) 
92.60974114170304

>  <Genealogy>  (34) 
CN(C)CCCOc1ccc2c(c1)c(NCCN(C)C)c1ccccc1[n+]2C (3D coordinates assigned)
CN(C)CCCOc1ccc2c(c1)c(NCCN(C)C)c1ccccc1[n+]2C (optimized conformer: 92.60974114170304 kcal/mol)

>  <smiles>  (34) 
CN(C)CCCOc1ccc2c(c1)c(NCCN(C)C)c1ccccc1[n+]2C

>  <score_type>  (34) 
oracle

>  <origin>  (34) 
adg

>  <m_score__min__energy>  (34) 
-5.5700000000000003

>  <m_primary>  (34) 
energy

$$$$
34:0
     RDKit          3D

 59 61  0  0  0  0  0  0  0  0999 V2000
   57.1290   34.0730   45.2800 C   0  0  0  0  0  0  0  0  0  0  0  0
   58.0780   32.9200   45.5390 C   0  0  0  0  0  0  0  0  0  0  0  0
   59.0370   32.9780   46.5790 C   0  0  0  0  0  0  0  0  0  0  0  0
   59.2600   31.8120   47.3830 C   0  0  0  0  0  0  0  0  0  0  0  0
   58.8470   30.5290   46.8330 C   0  0  0  0  0  0  0  0  0  0  0  0
   58.9730   29.2800   47.5730 N   0  0  0  0  0  0  0  0  0  0  0  0
   60.2140   28.4830   47.3600 C   0  0  0  0  0  0  0  0  0  0  0  0
   60.0430   27.0240   46.8720 C   0  0  0  0  0  0  0  0  0  0  0  0
   58.6330   26.7130   46.5470 N   0  0  0  0  0  0  0  0  0  0  0  0
   58.5130   26.1880   45.1750 C   0  0  0  0  0  0  0  0  0  0  0  0
   58.0960   25.7210   47.4940 C   0  0  0  0  0  0  0  0  0  0  0  0
   58.2160   30.4910   45.5450 C   0  0  0  0  0  0  0  0  0  0  0  0
   57.8740   29.2750   44.8930 C   0  0  0  0  0  0  0  0  0  0  0  0
   57.2320   29.2750   43.6970 N   0  0  0  0  0  0  0  0  0  0  0  0
   56.8730   30.4220   43.0800 C   0  0  0  0  0  0  0  0  0  0  0  0
   57.1560   31.6450   43.6730 C   0  0  0  0  0  0  0  0  0  0  0  0
   57.8230   31.6920   44.9160 C   0  0  0  0  0  0  0  0  0  0  0  0
   59.6430   32.0580   48.8950 C   0  0  0  0  0  0  0  0  0  0  0  0
   58.3330   32.0360   49.7180 C   0  0  0  0  0  0  0  0  0  0  0  0
   60.6420   31.0300   49.4930 C   0  0  0  0  0  0  0  0  0  0  0  0
   60.3360   33.4420   49.1590 C   0  0  0  0  0  0  0  0  0  0  0  0
   59.8590   34.5810   48.2770 C   0  0  0  0  0  0  0  0  0  0  0  0
   59.9530   34.2000   46.7950 C   0  0  0  0  0  0  0  0  0  0  0  0
   59.6430   35.4730   45.9670 C   0  0  0  0  0  0  0  0  0  0  0  0
   61.3990   33.7960   46.3960 C   0  0  0  0  0  0  0  0  0  0  0  0
   56.7868   34.4888   46.2392 H   0  0  0  0  0  0  0  0  0  0  0  0
   57.6492   34.8543   44.7064 H   0  0  0  0  0  0  0  0  0  0  0  0
   56.2623   33.7128   44.7064 H   0  0  0  0  0  0  0  0  0  0  0  0
   58.1470   28.6720   47.3860 H   0  0  0  0  0  0  0  0  0  0  0  0
   58.8240   29.4380   48.5830 H   0  0  0  0  0  0  0  0  0  0  0  0
   60.8232   29.0126   46.6127 H   0  0  0  0  0  0  0  0  0  0  0  0
   60.6701   28.3967   48.3573 H   0  0  0  0  0  0  0  0  0  0  0  0
   60.6567   26.8760   45.9712 H   0  0  0  0  0  0  0  0  0  0  0  0
   60.3620   26.3533   47.6834 H   0  0  0  0  0  0  0  0  0  0  0  0
   58.2680   25.1163   45.2126 H   0  0  0  0  0  0  0  0  0  0  0  0
   57.7151   26.7281   44.6442 H   0  0  0  0  0  0  0  0  0  0  0  0
   59.4663   26.3278   44.6442 H   0  0  0  0  0  0  0  0  0  0  0  0
   58.2798   26.0605   48.5240 H   0  0  0  0  0  0  0  0  0  0  0  0
   57.0137   25.6084   47.3326 H   0  0  0  0  0  0  0  0  0  0  0  0
   58.5934   24.7533   47.3326 H   0  0  0  0  0  0  0  0  0  0  0  0
   58.1343   28.3167   45.3662 H   0  0  0  0  0  0  0  0  0  0  0  0
   56.3572   30.3870   42.1091 H   0  0  0  0  0  0  0  0  0  0  0  0
   56.8599   32.5791   43.1732 H   0  0  0  0  0  0  0  0  0  0  0  0
   58.5741   32.0400   50.7912 H   0  0  0  0  0  0  0  0  0  0  0  0
   57.7317   32.9242   49.4739 H   0  0  0  0  0  0  0  0  0  0  0  0
   57.7618   31.1281   49.4739 H   0  0  0  0  0  0  0  0  0  0  0  0
   60.5996   31.0737   50.5913 H   0  0  0  0  0  0  0  0  0  0  0  0
   60.3729   30.0182   49.1556 H   0  0  0  0  0  0  0  0  0  0  0  0
   61.6611   31.2701   49.1556 H   0  0  0  0  0  0  0  0  0  0  0  0
   60.1500   33.7216   50.2065 H   0  0  0  0  0  0  0  0  0  0  0  0
   61.4014   33.2999   48.9252 H   0  0  0  0  0  0  0  0  0  0  0  0
   58.8126   34.8138   48.5236 H   0  0  0  0  0  0  0  0  0  0  0  0
   60.4995   35.4571   48.4565 H   0  0  0  0  0  0  0  0  0  0  0  0
   59.4386   36.3125   46.6478 H   0  0  0  0  0  0  0  0  0  0  0  0
   60.5079   35.7175   45.3328 H   0  0  0  0  0  0  0  0  0  0  0  0
   58.7626   35.2925   45.3328 H   0  0  0  0  0  0  0  0  0  0  0  0
   61.9968   33.6290   47.3041 H   0  0  0  0  0  0  0  0  0  0  0  0
   61.3703   32.8715   45.8007 H   0  0  0  0  0  0  0  0  0  0  0  0
   61.8537   34.6015   45.8007 H   0  0  0  0  0  0  0  0  0  0  0  0
  1  2  1  0
  2  3  2  0
  3  4  1  0
  4  5  2  0
  5  6  1  0
  6  7  1  0
  7  8  1  0
  8  9  1  0
  9 10  1  0
  9 11  1  0
  5 12  1  0
 12 13  2  0
 13 14  1  0
 14 15  2  0
 15 16  1  0
 16 17  2  0
  4 18  1  0
 18 19  1  0
 18 20  1  0
 18 21  1  0
 21 22  1  0
 22 23  1  0
 23 24  1  0
 23 25  1  0
 17  2  1  0
 23  3  1  0
 17 12  1  0
  1 26  1  0
  1 27  1  0
  1 28  1  0
  6 29  1  0
  6 30  1  0
  7 31  1  0
  7 32  1  0
  8 33  1  0
  8 34  1  0
 10 35  1  0
 10 36  1  0
 10 37  1  0
 11 38  1  0
 11 39  1  0
 11 40  1  0
 13 41  1  0
 15 42  1  0
 16 43  1  0
 19 44  1  0
 19 45  1  0
 19 46  1  0
 20 47  1  0
 20 48  1  0
 20 49  1  0
 21 50  1  0
 21 51  1  0
 22 52  1  0
 22 53  1  0
 24 54  1  0
 24 55  1  0
 24 56  1  0
 25 57  1  0
 25 58  1  0
 25 59  1  0
M  CHG  1   6   1
M  END
>  <UniqueID>  (35) 
34

>  <SMILES>  (35) 
Cc1c2c(c([NH2+]CCN(C)C)c3cnccc13)C(C)(C)CCC2(C)C

>  <Energy>  (35) 
124.15209330707161

>  <Genealogy>  (35) 
Cc1c2c(c([NH2+]CCN(C)C)c3cnccc13)C(C)(C)CCC2(C)C (protonated)
Cc1c2c(c([NH2+]CCN(C)C)c3cnccc13)C(C)(C)CCC2(C)C (3D coordinates assigned)
Cc1c2c(c([NH2+]CCN(C)C)c3cnccc13)C(C)(C)CCC2(C)C (nonaromatic ring conformer: 124.15209330707161 kcal/mol)

>  <smiles>  (35) 
Cc1c2c(c(NCCN(C)C)c3cnccc13)C(C)(C)CCC2(C)C

>  <score_type>  (35) 
oracle

>  <origin>  (35) 
adg

>  <m_score__min__energy>  (35) 
-7.1299999999999999

>  <m_primary>  (35) 
energy

$$$$
35:0
     RDKit          3D

 39 41  0  0  1  0  0  0  0  0999 V2000
   56.6370   29.3270   42.9630 C   0  0  0  0  0  0  0  0  0  0  0  0
   55.6310   29.6970   44.0500 C   0  0  0  0  0  0  0  0  0  0  0  0
   56.1280   30.8520   44.7600 N   0  0  0  0  0  0  0  0  0  0  0  0
   57.0160   31.6030   43.8980 C   0  0  0  0  0  0  0  0  0  0  0  0
   57.9850   32.4070   44.7770 C   0  0  0  0  0  0  0  0  0  0  0  0
   57.8550   31.7970   46.0990 N   0  0  0  0  0  0  0  0  0  0  0  0
   58.8130   31.1370   46.6480 C   0  0  0  0  0  0  0  0  0  0  0  0
   59.9570   31.8010   47.1020 C   0  0  0  0  0  0  0  0  0  0  0  0
   60.9880   31.1020   47.6930 C   0  0  0  0  0  0  0  0  0  0  0  0
   62.1870   31.7740   48.1740 C   0  0  0  0  0  0  0  0  0  0  0  0
   62.7390   31.4710   49.3990 C   0  0  0  0  0  0  0  0  0  0  0  0
   63.8930   32.1160   49.8620 C   0  0  0  0  0  0  0  0  0  0  0  0
   64.5270   33.0820   49.1120 C   0  0  0  0  0  0  0  0  0  0  0  0
   63.9780   33.3880   47.8850 C   0  0  0  0  0  0  0  0  0  0  0  0
   62.8230   32.7390   47.4260 C   0  0  0  0  0  0  0  0  0  0  0  0
   60.8250   29.7720   47.8000 N   0  0  0  0  0  0  0  0  0  0  0  0
   59.7010   29.1420   47.3500 C   0  0  0  0  0  0  0  0  0  0  0  0
   59.3320   27.8350   47.3550 N   0  0  0  0  0  0  0  0  0  0  0  0
   58.1170   27.7700   46.7830 C   0  0  0  0  0  0  0  0  0  0  0  0
   57.7160   28.9990   46.4200 N   0  0  0  0  0  0  0  0  0  0  0  0
   58.6890   29.8090   46.7730 N   0  0  0  0  0  0  0  0  0  0  0  0
   57.5717   28.9832   43.4301 H   0  0  0  0  0  0  0  0  0  0  0  0
   56.2221   28.5226   42.3378 H   0  0  0  0  0  0  0  0  0  0  0  0
   56.8421   30.2085   42.3378 H   0  0  0  0  0  0  0  0  0  0  0  0
   54.6593   29.9330   43.5916 H   0  0  0  0  0  0  0  0  0  0  0  0
   55.5003   28.8546   44.7452 H   0  0  0  0  0  0  0  0  0  0  0  0
   56.6390   30.5630   45.6210 H   0  0  0  0  0  0  0  0  0  0  0  0
   57.5831   30.9118   43.2571 H   0  0  0  0  0  0  0  0  0  0  0  0
   56.4341   32.2836   43.2592 H   0  0  0  0  0  0  0  0  0  0  0  0
   59.0163   32.3171   44.4049 H   0  0  0  0  0  0  0  0  0  0  0  0
   57.7561   33.4829   44.7836 H   0  0  0  0  0  0  0  0  0  0  0  0
   60.0351   32.8921   46.9864 H   0  0  0  0  0  0  0  0  0  0  0  0
   62.2626   30.7048   50.0283 H   0  0  0  0  0  0  0  0  0  0  0  0
   64.3021   31.8451   50.8465 H   0  0  0  0  0  0  0  0  0  0  0  0
   65.4331   33.5879   49.4768 H   0  0  0  0  0  0  0  0  0  0  0  0
   64.4541   34.1542   47.2555 H   0  0  0  0  0  0  0  0  0  0  0  0
   62.4138   33.0083   46.4411 H   0  0  0  0  0  0  0  0  0  0  0  0
   61.5350   29.1470   48.2260 H   0  0  0  0  0  0  0  0  0  0  0  0
   57.5374   26.8470   46.6344 H   0  0  0  0  0  0  0  0  0  0  0  0
  1  2  1  0
  2  3  1  0
  3  4  1  0
  4  5  1  0
  5  6  1  0
  6  7  2  0
  7  8  1  0
  8  9  2  0
  9 10  1  0
 10 11  2  0
 11 12  1  0
 12 13  2  0
 13 14  1  0
 14 15  2  0
  9 16  1  0
 16 17  1  0
 17 18  2  0
 18 19  1  0
 19 20  2  0
 20 21  1  0
 21  7  1  0
 15 10  1  0
 21 17  1  0
  1 22  1  0
  1 23  1  0
  1 24  1  0
  2 25  1  0
  2 26  1  0
  3 27  1  0
  4 28  1  0
  4 29  1  0
  5 30  1  0
  5 31  1  0
  8 32  1  0
 11 33  1  0
 12 34  1  0
 13 35  1  0
 14 36  1  0
 15 37  1  0
 16 38  1  0
 19 39  1  0
M  END
>  <smiles>  (36) 
CCNCCN=c1cc(-c2ccccc2)[nH]c2ncnn12

>  <score_type>  (36) 
oracle

>  <origin>  (36) 
adg

>  <m_score__min__energy>  (36) 
-6.7599999999999998

>  <m_primary>  (36) 
energy

$$$$
36:0
     RDKit          3D

 49 53  0  0  0  0  0  0  0  0999 V2000
   60.7320   27.4580   49.2970 C   0  0  0  0  0  0  0  0  0  0  0  0
   60.8260   27.2920   47.8860 O   0  0  0  0  0  0  0  0  0  0  0  0
   59.8410   27.7010   46.9750 C   0  0  0  0  0  0  0  0  0  0  0  0
   60.1260   28.0150   45.6350 C   0  0  0  0  0  0  0  0  0  0  0  0
   59.1000   28.4160   44.7780 C   0  0  0  0  0  0  0  0  0  0  0  0
   57.7890   28.4950   45.2640 C   0  0  0  0  0  0  0  0  0  0  0  0
   56.6740   28.9620   44.3770 C   0  0  0  0  0  0  0  0  0  0  0  0
   57.0100   30.2570   43.7930 N   0  0  0  0  0  0  0  0  0  0  0  0
   56.9490   30.5180   42.4880 N   0  0  0  0  0  0  0  0  0  0  0  0
   57.3960   31.7840   42.2900 C   0  0  0  0  0  0  0  0  0  0  0  0
   57.5560   32.4260   40.9530 C   0  0  0  0  0  0  0  0  0  0  0  0
   57.7750   32.3010   43.5080 C   0  0  0  0  0  0  0  0  0  0  0  0
   58.3290   33.4950   43.8290 N   0  0  0  0  0  0  0  0  0  0  0  0
   58.6390   33.7390   45.1390 C   0  0  0  0  0  0  0  0  0  0  0  0
   59.3530   35.3150   45.5960 S   0  0  0  0  0  0  0  0  0  0  0  0
   60.4830   34.5530   46.7520 C   0  0  0  0  0  0  0  0  0  0  0  0
   61.6350   33.9460   46.3720 N   0  0  0  0  0  0  0  0  0  0  0  0
   62.3010   33.4710   47.4530 C   0  0  0  0  0  0  0  0  0  0  0  0
   63.5190   32.7990   47.4130 C   0  0  0  0  0  0  0  0  0  0  0  0
   64.0830   32.3710   48.6260 C   0  0  0  0  0  0  0  0  0  0  0  0
   63.4160   32.6270   49.8430 C   0  0  0  0  0  0  0  0  0  0  0  0
   63.9900   32.1950   51.0410 O   0  0  0  0  0  0  0  0  0  0  0  0
   65.3850   31.9630   51.1870 C   0  0  0  0  0  0  0  0  0  0  0  0
   62.2190   33.2920   49.8420 N   0  0  0  0  0  0  0  0  0  0  0  0
   61.6840   33.7000   48.6660 C   0  0  0  0  0  0  0  0  0  0  0  0
   60.2450   34.5250   48.4320 S   0  0  0  0  0  0  0  0  0  0  0  0
   58.3950   32.7570   46.1310 C   0  0  0  0  0  0  0  0  0  0  0  0
   57.8270   31.5210   45.7710 C   0  0  0  0  0  0  0  0  0  0  0  0
   57.5230   31.3310   44.4250 C   0  0  0  0  0  0  0  0  0  0  0  0
   57.5350   28.1960   46.5660 N   0  0  0  0  0  0  0  0  0  0  0  0
   58.5180   27.8020   47.4190 C   0  0  0  0  0  0  0  0  0  0  0  0
   61.2142   26.6064   49.7993 H   0  0  0  0  0  0  0  0  0  0  0  0
   61.2361   28.3905   49.5909 H   0  0  0  0  0  0  0  0  0  0  0  0
   59.6730   27.5053   49.5909 H   0  0  0  0  0  0  0  0  0  0  0  0
   61.1583   27.9447   45.2615 H   0  0  0  0  0  0  0  0  0  0  0  0
   59.3192   28.6678   43.7299 H   0  0  0  0  0  0  0  0  0  0  0  0
   56.5174   28.2289   43.5720 H   0  0  0  0  0  0  0  0  0  0  0  0
   55.7555   29.0623   44.9739 H   0  0  0  0  0  0  0  0  0  0  0  0
   57.8201   33.4857   41.0844 H   0  0  0  0  0  0  0  0  0  0  0  0
   58.3544   31.9156   40.3944 H   0  0  0  0  0  0  0  0  0  0  0  0
   56.6115   32.3500   40.3944 H   0  0  0  0  0  0  0  0  0  0  0  0
   64.0269   32.6080   46.4561 H   0  0  0  0  0  0  0  0  0  0  0  0
   65.0444   31.8364   48.6274 H   0  0  0  0  0  0  0  0  0  0  0  0
   65.6397   31.9206   52.2563 H   0  0  0  0  0  0  0  0  0  0  0  0
   65.6500   31.0085   50.7089 H   0  0  0  0  0  0  0  0  0  0  0  0
   65.9447   32.7804   50.7089 H   0  0  0  0  0  0  0  0  0  0  0  0
   58.6494   32.9608   47.1816 H   0  0  0  0  0  0  0  0  0  0  0  0
   57.6316   30.7391   46.5197 H   0  0  0  0  0  0  0  0  0  0  0  0
   58.2717   27.5614   48.4637 H   0  0  0  0  0  0  0  0  0  0  0  0
  1  2  1  0
  2  3  1  0
  3  4  2  0
  4  5  1  0
  5  6  2  0
  6  7  1  0
  7  8  1  0
  8  9  1  0
  9 10  2  0
 10 11  1  0
 10 12  1  0
 12 13  2  0
 13 14  1  0
 14 15  1  0
 15 16  1  0
 16 17  2  0
 17 18  1  0
 18 19  2  0
 19 20  1  0
 20 21  2  0
 21 22  1  0
 22 23  1  0
 21 24  1  0
 24 25  2  0
 25 26  1  0
 14 27  2  0
 27 28  1  0
 28 29  2  0
  6 30  1  0
 30 31  2  0
 31  3  1  0
 29  8  1  0
 29 12  1  0
 26 16  1  0
 25 18  1  0
  1 32  1  0
  1 33  1  0
  1 34  1  0
  4 35  1  0
  5 36  1  0
  7 37  1  0
  7 38  1  0
 11 39  1  0
 11 40  1  0
 11 41  1  0
 19 42  1  0
 20 43  1  0
 23 44  1  0
 23 45  1  0
 23 46  1  0
 27 47  1  0
 28 48  1  0
 31 49  1  0
M  END
>  <UniqueID>  (37) 
35

>  <SMILES>  (37) 
COc1ccc(Cn2nc(C)c3nc(Sc4nc5ccc(OC)nc5s4)ccc32)nc1

>  <Energy>  (37) 
123.8888775696131

>  <Genealogy>  (37) 
COc1ccc(Cn2nc(C)c3nc(Sc4nc5ccc(OC)nc5s4)ccc32)nc1 (3D coordinates assigned)
COc1ccc(Cn2nc(C)c3nc(Sc4nc5ccc(OC)nc5s4)ccc32)nc1 (optimized conformer: 123.8888775696131 kcal/mol)

>  <smiles>  (37) 
COc1ccc(Cn2nc(C)c3nc(Sc4nc5ccc(OC)nc5s4)ccc32)nc1

>  <score_type>  (37) 
oracle

>  <origin>  (37) 
adg

>  <m_score__min__energy>  (37) 
-9.2599999999999998

>  <m_primary>  (37) 
energy

$$$$
37:0
     RDKit          3D

 59 60  0  0  0  0  0  0  0  0999 V2000
   58.7280   32.6800   48.4950 C   0  0  0  0  0  0  0  0  0  0  0  0
   59.8900   33.6630   48.3130 C   0  0  0  0  0  0  0  0  0  0  0  0
   60.2960   33.8230   46.8900 N   0  0  0  0  0  0  0  0  0  0  0  0
   61.7740   33.8330   46.7040 C   0  0  0  0  0  0  0  0  0  0  0  0
   62.5080   32.6970   47.4360 C   0  0  0  0  0  0  0  0  0  0  0  0
   59.6630   35.0350   46.2860 C   0  0  0  0  0  0  0  0  0  0  0  0
   59.0130   34.7600   44.9120 C   0  0  0  0  0  0  0  0  0  0  0  0
   58.0010   33.6130   44.9280 C   0  0  0  0  0  0  0  0  0  0  0  0
   58.6270   32.4220   45.3970 O   0  0  0  0  0  0  0  0  0  0  0  0
   58.1370   31.1440   45.1150 C   0  0  0  0  0  0  0  0  0  0  0  0
   56.9070   30.9710   44.8790 O   0  0  0  0  0  0  0  0  0  0  0  0
   59.1080   29.9880   45.0770 C   0  0  1  0  0  0  0  0  0  0  0  0
   60.1800   30.1550   46.1610 C   0  0  0  0  0  0  0  0  0  0  0  0
   58.4300   28.6330   45.1930 C   0  0  0  0  0  0  0  0  0  0  0  0
   57.7670   28.2790   46.3780 C   0  0  0  0  0  0  0  0  0  0  0  0
   57.1030   27.0570   46.4870 C   0  0  0  0  0  0  0  0  0  0  0  0
   57.0820   26.1530   45.4080 C   0  0  0  0  0  0  0  0  0  0  0  0
   56.3870   24.9240   45.5020 C   0  0  0  0  0  0  0  0  0  0  0  0
   55.6930   24.6560   46.6990 O   0  0  0  0  0  0  0  0  0  0  0  0
   55.8750   23.5370   47.5590 C   0  0  0  0  0  0  0  0  0  0  0  0
   56.4100   24.0260   44.4010 C   0  0  0  0  0  0  0  0  0  0  0  0
   55.7520   22.7880   44.4910 O   0  0  0  0  0  0  0  0  0  0  0  0
   56.3980   21.5180   44.4950 C   0  0  0  0  0  0  0  0  0  0  0  0
   57.1020   24.3890   43.2290 C   0  0  0  0  0  0  0  0  0  0  0  0
   57.7640   25.6100   43.1360 C   0  0  0  0  0  0  0  0  0  0  0  0
   57.7620   26.4980   44.2150 C   0  0  0  0  0  0  0  0  0  0  0  0
   58.4240   27.7310   44.1130 C   0  0  0  0  0  0  0  0  0  0  0  0
   58.5441   32.5244   49.5683 H   0  0  0  0  0  0  0  0  0  0  0  0
   57.8230   33.0908   48.0237 H   0  0  0  0  0  0  0  0  0  0  0  0
   58.9831   31.7194   48.0237 H   0  0  0  0  0  0  0  0  0  0  0  0
   59.5835   34.6448   48.7030 H   0  0  0  0  0  0  0  0  0  0  0  0
   60.7543   33.2571   48.8592 H   0  0  0  0  0  0  0  0  0  0  0  0
   59.9540   32.9760   46.3750 H   0  0  0  0  0  0  0  0  0  0  0  0
   61.9872   33.7450   45.6284 H   0  0  0  0  0  0  0  0  0  0  0  0
   62.1409   34.7763   47.1348 H   0  0  0  0  0  0  0  0  0  0  0  0
   62.4151   32.8408   48.5226 H   0  0  0  0  0  0  0  0  0  0  0  0
   62.0626   31.7314   47.1545 H   0  0  0  0  0  0  0  0  0  0  0  0
   63.5713   32.7063   47.1545 H   0  0  0  0  0  0  0  0  0  0  0  0
   58.8867   35.4032   46.9728 H   0  0  0  0  0  0  0  0  0  0  0  0
   60.4601   35.7765   46.1285 H   0  0  0  0  0  0  0  0  0  0  0  0
   58.4967   35.6739   44.5831 H   0  0  0  0  0  0  0  0  0  0  0  0
   59.8219   34.4649   44.2274 H   0  0  0  0  0  0  0  0  0  0  0  0
   57.1654   33.8729   45.5945 H   0  0  0  0  0  0  0  0  0  0  0  0
   57.6245   33.4473   43.9078 H   0  0  0  0  0  0  0  0  0  0  0  0
   59.5861   30.0092   44.0866 H   0  0  0  0  0  0  0  0  0  0  0  0
   59.7120   30.0821   47.1538 H   0  0  0  0  0  0  0  0  0  0  0  0
   60.9367   29.3639   46.0533 H   0  0  0  0  0  0  0  0  0  0  0  0
   60.6602   31.1388   46.0533 H   0  0  0  0  0  0  0  0  0  0  0  0
   57.7709   28.9734   47.2311 H   0  0  0  0  0  0  0  0  0  0  0  0
   56.5908   26.7972   47.4252 H   0  0  0  0  0  0  0  0  0  0  0  0
   55.8213   23.8673   48.6069 H   0  0  0  0  0  0  0  0  0  0  0  0
   55.0857   22.7952   47.3675 H   0  0  0  0  0  0  0  0  0  0  0  0
   56.8587   23.0835   47.3675 H   0  0  0  0  0  0  0  0  0  0  0  0
   56.5629   21.1938   45.5331 H   0  0  0  0  0  0  0  0  0  0  0  0
   55.7644   20.7827   43.9775 H   0  0  0  0  0  0  0  0  0  0  0  0
   57.3654   21.5971   43.9775 H   0  0  0  0  0  0  0  0  0  0  0  0
   57.1195   23.6970   42.3741 H   0  0  0  0  0  0  0  0  0  0  0  0
   58.2914   25.8772   42.2084 H   0  0  0  0  0  0  0  0  0  0  0  0
   58.9432   27.9950   43.1799 H   0  0  0  0  0  0  0  0  0  0  0  0
  1  2  1  0
  2  3  1  0
  3  4  1  0
  4  5  1  0
  3  6  1  0
  6  7  1  0
  7  8  1  0
  8  9  1  0
  9 10  1  0
 10 11  2  0
 10 12  1  0
 12 13  1  0
 12 14  1  0
 14 15  2  0
 15 16  1  0
 16 17  2  0
 17 18  1  0
 18 19  1  0
 19 20  1  0
 18 21  2  0
 21 22  1  0
 22 23  1  0
 21 24  1  0
 24 25  2  0
 25 26  1  0
 26 27  2  0
 27 14  1  0
 26 17  1  0
  1 28  1  0
  1 29  1  0
  1 30  1  0
  2 31  1  0
  2 32  1  0
  3 33  1  0
  4 34  1  0
  4 35  1  0
  5 36  1  0
  5 37  1  0
  5 38  1  0
  6 39  1  0
  6 40  1  0
  7 41  1  0
  7 42  1  0
  8 43  1  0
  8 44  1  0
 12 45  1  6
 13 46  1  0
 13 47  1  0
 13 48  1  0
 15 49  1  0
 16 50  1  0
 20 51  1  0
 20 52  1  0
 20 53  1  0
 23 54  1  0
 23 55  1  0
 23 56  1  0
 24 57  1  0
 25 58  1  0
 27 59  1  0
M  CHG  1   3   1
M  END
>  <UniqueID>  (38) 
36

>  <SMILES>  (38) 
CC[NH+](CC)CCCOC(=O)[C@@H](C)c1ccc2c(OC)c(OC)ccc2c1

>  <Energy>  (38) 
63.74899200269324

>  <Genealogy>  (38) 
CC[NH+](CC)CCCOC(=O)C(C)c1ccc2c(OC)c(OC)ccc2c1 (protonated)
CC[NH+](CC)CCCOC(=O)[C@@H](C)c1ccc2c(OC)c(OC)ccc2c1 (chirality)
CC[NH+](CC)CCCOC(=O)[C@@H](C)c1ccc2c(OC)c(OC)ccc2c1 (3D coordinates assigned)
CC[NH+](CC)CCCOC(=O)[C@@H](C)c1ccc2c(OC)c(OC)ccc2c1 (optimized conformer: 63.74899200269324 kcal/mol)

>  <smiles>  (38) 
CCN(CC)CCCOC(=O)C(C)c1ccc2c(OC)c(OC)ccc2c1

>  <score_type>  (38) 
oracle

>  <origin>  (38) 
adg

>  <m_score__min__energy>  (38) 
-5.7599999999999998

>  <m_primary>  (38) 
energy

$$$$
38:0
     RDKit          3D

 75 79  0  0  0  0  0  0  0  0999 V2000
   62.6052   25.7999   53.4032 H   0  0  0  0  0  0  0  0  0  0  0  0
   62.1690   26.4000   52.5910 C   0  0  0  0  0  0  0  0  0  0  0  0
   61.2880   25.8060   51.6830 C   0  0  0  0  0  0  0  0  0  0  0  0
   60.9450   24.4590   51.8780 O   0  0  0  0  0  0  0  0  0  0  0  0
   61.7060   23.5380   52.6530 C   0  0  0  0  0  0  0  0  0  0  0  0
   61.5424   23.7360   53.7226 H   0  0  0  0  0  0  0  0  0  0  0  0
   61.3893   22.5112   52.4175 H   0  0  0  0  0  0  0  0  0  0  0  0
   62.7741   23.6554   52.4175 H   0  0  0  0  0  0  0  0  0  0  0  0
   60.7740   26.5720   50.6170 C   0  0  0  0  0  0  0  0  0  0  0  0
   60.0334   26.1272   49.9361 H   0  0  0  0  0  0  0  0  0  0  0  0
   61.1990   27.9060   50.4120 C   0  0  0  0  0  0  0  0  0  0  0  0
   61.9890   28.5070   51.4120 C   0  0  0  0  0  0  0  0  0  0  0  0
   62.2410   29.8330   51.3750 N   0  0  0  0  0  0  0  0  0  0  0  0
   61.7250   30.6710   50.4440 C   0  0  0  0  0  0  0  0  0  0  0  0
   62.1230   31.9130   50.5250 N   0  0  0  0  0  0  0  0  0  0  0  0
   62.8480   32.7860   49.6080 C   0  0  0  0  0  0  0  0  0  0  0  0
   62.2311   32.9678   48.7156 H   0  0  0  0  0  0  0  0  0  0  0  0
   63.0652   33.7376   50.1153 H   0  0  0  0  0  0  0  0  0  0  0  0
   64.1710   32.1310   49.1850 C   0  0  0  0  0  0  0  0  0  0  0  0
   63.9510   31.1244   48.7999 H   0  0  0  0  0  0  0  0  0  0  0  0
   64.6217   32.7862   48.4250 H   0  0  0  0  0  0  0  0  0  0  0  0
   65.2020   31.9990   50.3300 C   0  0  0  0  0  0  0  0  0  0  0  0
   66.1207   31.5569   49.9170 H   0  0  0  0  0  0  0  0  0  0  0  0
   65.3577   33.0111   50.7318 H   0  0  0  0  0  0  0  0  0  0  0  0
   64.7500   31.1560   51.4650 N   0  0  0  0  0  0  0  0  0  0  0  0
   63.7470   30.8890   51.3330 H   0  0  0  0  0  0  0  0  0  0  0  0
   64.8280   31.9270   52.7190 C   0  0  0  0  0  0  0  0  0  0  0  0
   64.7586   31.2410   53.5761 H   0  0  0  0  0  0  0  0  0  0  0  0
   65.7854   32.4672   52.7583 H   0  0  0  0  0  0  0  0  0  0  0  0
   63.9982   32.6481   52.7583 H   0  0  0  0  0  0  0  0  0  0  0  0
   65.5570   29.9280   51.5910 C   0  0  0  0  0  0  0  0  0  0  0  0
   65.7090   29.6967   52.6556 H   0  0  0  0  0  0  0  0  0  0  0  0
   65.0314   29.0924   51.1057 H   0  0  0  0  0  0  0  0  0  0  0  0
   66.5325   30.0789   51.1057 H   0  0  0  0  0  0  0  0  0  0  0  0
   60.8740   30.1230   49.4260 C   0  0  0  0  0  0  0  0  0  0  0  0
   60.0770   30.8950   48.5630 C   0  0  0  0  0  0  0  0  0  0  0  0
   60.0354   31.9861   48.6964 H   0  0  0  0  0  0  0  0  0  0  0  0
   59.3400   30.3020   47.5430 C   0  0  0  0  0  0  0  0  0  0  0  0
   58.5260   31.0920   46.7120 C   0  0  0  0  0  0  0  0  0  0  0  0
   58.4549   32.1748   46.8924 H   0  0  0  0  0  0  0  0  0  0  0  0
   57.8070   30.5200   45.6610 C   0  0  0  0  0  0  0  0  0  0  0  0
   57.0130   31.3650   44.8680 O   0  0  0  0  0  0  0  0  0  0  0  0
   56.6780   32.7170   45.1740 C   0  0  0  0  0  0  0  0  0  0  0  0
   55.6781   32.9428   44.7749 H   0  0  0  0  0  0  0  0  0  0  0  0
   56.6856   32.8502   46.2659 H   0  0  0  0  0  0  0  0  0  0  0  0
   57.7070   33.6770   44.5430 C   0  0  0  0  0  0  0  0  0  0  0  0
   58.3475   33.0967   43.8626 H   0  0  0  0  0  0  0  0  0  0  0  0
   57.1323   34.4593   44.0256 H   0  0  0  0  0  0  0  0  0  0  0  0
   58.5750   34.3660   45.5210 N   0  0  0  0  0  0  0  0  0  0  0  0
   60.0250   34.2230   45.2620 C   0  0  0  0  0  0  0  0  0  0  0  0
   60.1663   33.6484   44.3347 H   0  0  0  0  0  0  0  0  0  0  0  0
   60.4578   35.2303   45.1721 H   0  0  0  0  0  0  0  0  0  0  0  0
   60.7400   33.4960   46.4120 C   0  0  0  0  0  0  0  0  0  0  0  0
   60.3352   32.4760   46.4878 H   0  0  0  0  0  0  0  0  0  0  0  0
   61.8158   33.4938   46.1826 H   0  0  0  0  0  0  0  0  0  0  0  0
   60.5730   34.1440   47.6650 O   0  0  0  0  0  0  0  0  0  0  0  0
   59.2730   34.6910   47.8640 C   0  0  0  0  0  0  0  0  0  0  0  0
   58.9685   34.4825   48.9003 H   0  0  0  0  0  0  0  0  0  0  0  0
   59.3513   35.7659   47.6437 H   0  0  0  0  0  0  0  0  0  0  0  0
   58.1900   34.1330   46.9250 C   0  0  0  0  0  0  0  0  0  0  0  0
   58.0785   33.0525   47.0982 H   0  0  0  0  0  0  0  0  0  0  0  0
   57.2365   34.6424   47.1285 H   0  0  0  0  0  0  0  0  0  0  0  0
   57.9110   29.1380   45.4350 C   0  0  0  0  0  0  0  0  0  0  0  0
   57.3512   28.6755   44.6087 H   0  0  0  0  0  0  0  0  0  0  0  0
   58.7220   28.3460   46.2540 C   0  0  0  0  0  0  0  0  0  0  0  0
   58.7916   27.2646   46.0648 H   0  0  0  0  0  0  0  0  0  0  0  0
   59.4540   28.9150   47.3220 C   0  0  0  0  0  0  0  0  0  0  0  0
   60.2610   28.1560   48.1420 N   0  0  0  0  0  0  0  0  0  0  0  0
   60.7500   26.8530   47.6420 C   0  0  0  0  0  0  0  0  0  0  0  0
   60.9944   26.2016   48.4940 H   0  0  0  0  0  0  0  0  0  0  0  0
   59.9688   26.3785   47.0300 H   0  0  0  0  0  0  0  0  0  0  0  0
   61.6505   27.0096   47.0300 H   0  0  0  0  0  0  0  0  0  0  0  0
   60.7710   28.7050   49.3090 C   0  0  0  0  0  0  0  0  0  0  0  0
   62.4970   27.7480   52.4720 C   0  0  0  0  0  0  0  0  0  0  0  0
   63.1584   28.2183   53.2146 H   0  0  0  0  0  0  0  0  0  0  0  0
  1  2  1  0
  2  3  2  0
  3  4  1  0
  4  5  1  0
  5  6  1  0
  5  7  1  0
  5  8  1  0
  3  9  1  0
  9 10  1  0
  9 11  2  0
 11 12  1  0
 12 13  1  0
 13 14  1  0
 14 15  2  0
 15 16  1  0
 16 17  1  0
 16 18  1  0
 16 19  1  0
 19 20  1  0
 19 21  1  0
 19 22  1  0
 22 23  1  0
 22 24  1  0
 22 25  1  0
 25 26  1  0
 25 27  1  0
 27 28  1  0
 27 29  1  0
 27 30  1  0
 25 31  1  0
 31 32  1  0
 31 33  1  0
 31 34  1  0
 14 35  1  0
 35 36  2  0
 36 37  1  0
 36 38  1  0
 38 39  2  0
 39 40  1  0
 39 41  1  0
 41 42  1  0
 42 43  1  0
 43 44  1  0
 43 45  1  0
 43 46  1  0
 46 47  1  0
 46 48  1  0
 46 49  1  0
 49 50  1  0
 50 51  1  0
 50 52  1  0
 50 53  1  0
 53 54  1  0
 53 55  1  0
 53 56  1  0
 56 57  1  0
 57 58  1  0
 57 59  1  0
 57 60  1  0
 60 61  1  0
 60 62  1  0
 41 63  2  0
 63 64  1  0
 63 65  1  0
 65 66  1  0
 65 67  2  0
 67 68  1  0
 68 69  1  0
 69 70  1  0
 69 71  1  0
 69 72  1  0
 68 73  2  0
 12 74  2  0
 74 75  1  0
 74  2  1  0
 73 11  1  0
 73 35  1  0
 67 38  1  0
 60 49  1  0
M  CHG  3  13  -1  25   1  68   1
M  END
>  <UniqueID>  (39) 
37

>  <SMILES>  (39) 
COc1ccc2[n-]/c(=N/CCC[NH+](C)C)c3cc4cc(OCCN5CCOCC5)ccc4[n+](C)c3c2c1

>  <Energy>  (39) 
142.72180774187981

>  <Genealogy>  (39) 
COc1ccc2[n-]c(=NCCC[NH+](C)C)c3cc4cc(OCCN5CCOCC5)ccc4[n+](C)c3c2c1 (protonated)
COc1ccc2[n-]/c(=N/CCC[NH+](C)C)c3cc4cc(OCCN5CCOCC5)ccc4[n+](C)c3c2c1 (cis-trans isomerization)
COc1ccc2[n-]/c(=N/CCC[NH+](C)C)c3cc4cc(OCCN5CCOCC5)ccc4[n+](C)c3c2c1 (3D coordinates assigned)
COc1ccc2[n-]/c(=N/CCC[NH+](C)C)c3cc4cc(OCCN5CCOCC5)ccc4[n+](C)c3c2c1 (nonaromatic ring conformer: 142.72180774187981 kcal/mol)

>  <smiles>  (39) 
COc1ccc2[nH]c(=NCCCN(C)C)c3cc4cc(OCCN5CCOCC5)ccc4[n+](C)c3c2c1

>  <score_type>  (39) 
oracle

>  <origin>  (39) 
adg

>  <m_score__min__energy>  (39) 
-6.1900000000000004

>  <m_primary>  (39) 
energy

$$$$
39:0
     RDKit          3D

 47 49  0  0  0  0  0  0  0  0999 V2000
   58.5290   31.7840   49.0370 C   0  0  0  0  0  0  0  0  0  0  0  0
   58.4300   32.6680   47.8790 N   0  0  0  0  0  0  0  0  0  0  0  0
   57.6820   32.4090   46.8180 N   0  0  0  0  0  0  0  0  0  0  0  0
   57.8970   33.3680   45.8980 C   0  0  0  0  0  0  0  0  0  0  0  0
   57.2720   33.3940   44.5380 C   0  0  0  0  0  0  0  0  0  0  0  0
   58.1470   32.7450   43.5510 N   0  0  0  0  0  0  0  0  0  0  0  0
   57.6210   31.4530   43.0780 C   0  0  0  0  0  0  0  0  0  0  0  0
   57.7870   30.3560   44.1030 C   0  0  0  0  0  0  0  0  0  0  0  0
   59.0000   30.2080   44.7980 C   0  0  0  0  0  0  0  0  0  0  0  0
   59.1440   29.2000   45.7550 C   0  0  0  0  0  0  0  0  0  0  0  0
   58.0820   28.3340   46.0270 C   0  0  0  0  0  0  0  0  0  0  0  0
   56.8730   28.4740   45.3410 C   0  0  0  0  0  0  0  0  0  0  0  0
   55.8420   27.6330   45.6050 F   0  0  0  0  0  0  0  0  0  0  0  0
   56.7240   29.4810   44.3810 C   0  0  0  0  0  0  0  0  0  0  0  0
   58.8300   34.2670   46.3820 C   0  0  0  0  0  0  0  0  0  0  0  0
   59.1450   33.7930   47.6450 C   0  0  0  0  0  0  0  0  0  0  0  0
   60.1530   34.4100   48.5900 C   0  0  0  0  0  0  0  0  0  0  0  0
   61.4730   33.7430   48.5680 N   0  0  0  0  0  0  0  0  0  0  0  0
   62.1450   33.8180   47.2580 C   0  0  0  0  0  0  0  0  0  0  0  0
   63.1450   32.6590   47.1020 C   0  0  0  0  0  0  0  0  0  0  0  0
   63.7760   32.0060   48.6980 S   0  0  0  0  0  0  0  0  0  0  0  0
   63.7770   33.6160   49.5530 C   0  0  0  0  0  0  0  0  0  0  0  0
   62.3520   34.1830   49.6750 C   0  0  0  0  0  0  0  0  0  0  0  0
   58.4623   32.3794   49.9595 H   0  0  0  0  0  0  0  0  0  0  0  0
   57.7071   31.0534   49.0119 H   0  0  0  0  0  0  0  0  0  0  0  0
   59.4922   31.2533   49.0119 H   0  0  0  0  0  0  0  0  0  0  0  0
   57.0540   31.5800   46.7150 H   0  0  0  0  0  0  0  0  0  0  0  0
   56.3099   32.8619   44.5726 H   0  0  0  0  0  0  0  0  0  0  0  0
   57.1185   34.4416   44.2395 H   0  0  0  0  0  0  0  0  0  0  0  0
   58.2620   33.3900   42.7330 H   0  0  0  0  0  0  0  0  0  0  0  0
   56.5503   31.5680   42.8533 H   0  0  0  0  0  0  0  0  0  0  0  0
   58.1911   31.1654   42.1823 H   0  0  0  0  0  0  0  0  0  0  0  0
   59.8387   30.8880   44.5877 H   0  0  0  0  0  0  0  0  0  0  0  0
   60.0956   29.0881   46.2953 H   0  0  0  0  0  0  0  0  0  0  0  0
   58.1977   27.5418   46.7814 H   0  0  0  0  0  0  0  0  0  0  0  0
   55.7710   29.5878   43.8421 H   0  0  0  0  0  0  0  0  0  0  0  0
   59.2317   35.1581   45.8774 H   0  0  0  0  0  0  0  0  0  0  0  0
   60.2919   35.4646   48.3097 H   0  0  0  0  0  0  0  0  0  0  0  0
   59.7517   34.2961   49.6078 H   0  0  0  0  0  0  0  0  0  0  0  0
   61.3909   33.7562   46.4596 H   0  0  0  0  0  0  0  0  0  0  0  0
   62.6896   34.7713   47.1900 H   0  0  0  0  0  0  0  0  0  0  0  0
   62.6451   31.8393   46.5651 H   0  0  0  0  0  0  0  0  0  0  0  0
   64.0117   33.0549   46.5523 H   0  0  0  0  0  0  0  0  0  0  0  0
   64.1991   33.4868   50.5606 H   0  0  0  0  0  0  0  0  0  0  0  0
   64.3831   34.3215   48.9657 H   0  0  0  0  0  0  0  0  0  0  0  0
   61.9174   33.8445   50.6271 H   0  0  0  0  0  0  0  0  0  0  0  0
   62.4226   35.2799   49.6316 H   0  0  0  0  0  0  0  0  0  0  0  0
  1  2  1  0
  2  3  1  0
  3  4  2  0
  4  5  1  0
  5  6  1  0
  6  7  1  0
  7  8  1  0
  8  9  2  0
  9 10  1  0
 10 11  2  0
 11 12  1  0
 12 13  1  0
 12 14  2  0
  4 15  1  0
 15 16  2  0
 16 17  1  0
 17 18  1  0
 18 19  1  0
 19 20  1  0
 20 21  1  0
 21 22  1  0
 22 23  1  0
 16  2  1  0
 23 18  1  0
 14  8  1  0
  1 24  1  0
  1 25  1  0
  1 26  1  0
  3 27  1  0
  5 28  1  0
  5 29  1  0
  6 30  1  0
  7 31  1  0
  7 32  1  0
  9 33  1  0
 10 34  1  0
 11 35  1  0
 14 36  1  0
 15 37  1  0
 17 38  1  0
 17 39  1  0
 19 40  1  0
 19 41  1  0
 20 42  1  0
 20 43  1  0
 22 44  1  0
 22 45  1  0
 23 46  1  0
 23 47  1  0
M  CHG  1   3   1
M  END
>  <UniqueID>  (40) 
38

>  <SMILES>  (40) 
Cn1[nH+]c(CNCc2cccc(F)c2)cc1CN1CCSCC1

>  <Energy>  (40) 
82.97454431681297

>  <Genealogy>  (40) 
Cn1[nH+]c(CNCc2cccc(F)c2)cc1CN1CCSCC1 (protonated)
Cn1[nH+]c(CNCc2cccc(F)c2)cc1CN1CCSCC1 (3D coordinates assigned)
Cn1[nH+]c(CNCc2cccc(F)c2)cc1CN1CCSCC1 (nonaromatic ring conformer: 82.97454431681297 kcal/mol)

>  <smiles>  (40) 
Cn1nc(CNCc2cccc(F)c2)cc1CN1CCSCC1

>  <score_type>  (40) 
oracle

>  <origin>  (40) 
adg

>  <m_score__min__energy>  (40) 
-6.1500000000000004

>  <m_primary>  (40) 
energy

$$$$
40:0
     RDKit          3D

 47 49  0  0  0  0  0  0  0  0999 V2000
   64.8750   33.0730   49.6280 C   0  0  0  0  0  0  0  0  0  0  0  0
   63.5330   33.2450   48.9100 C   0  0  0  0  0  0  0  0  0  0  0  0
   63.5770   32.7480   47.5100 N   0  0  2  0  0  0  0  0  0  0  0  0
   63.3140   33.8240   46.5360 C   0  0  0  0  0  0  0  0  0  0  0  0
   62.6750   31.5860   47.2990 C   0  0  0  0  0  0  0  0  0  0  0  0
   61.9260   31.1070   48.5670 C   0  0  0  0  0  0  0  0  0  0  0  0
   60.4850   31.3410   48.4480 N   0  0  0  0  0  0  0  0  0  0  0  0
   59.8460   31.4950   47.1680 C   0  0  0  0  0  0  0  0  0  0  0  0
   59.6320   32.7780   46.6290 C   0  0  0  0  0  0  0  0  0  0  0  0
   60.1130   33.9340   47.2830 C   0  0  0  0  0  0  0  0  0  0  0  0
   59.9300   35.1970   46.7270 C   0  0  0  0  0  0  0  0  0  0  0  0
   59.2760   35.3330   45.5090 C   0  0  0  0  0  0  0  0  0  0  0  0
   58.7760   34.2090   44.8510 C   0  0  0  0  0  0  0  0  0  0  0  0
   58.9110   32.9120   45.4120 C   0  0  0  0  0  0  0  0  0  0  0  0
   58.3710   31.7980   44.7990 N   0  0  0  0  0  0  0  0  0  0  0  0
   57.3790   31.9590   43.7130 C   0  0  0  0  0  0  0  0  0  0  0  0
   58.7490   30.5330   45.2090 C   0  0  0  0  0  0  0  0  0  0  0  0
   58.4590   29.3810   44.4350 C   0  0  0  0  0  0  0  0  0  0  0  0
   58.8260   28.1090   44.8700 C   0  0  0  0  0  0  0  0  0  0  0  0
   59.5130   27.9500   46.0680 C   0  0  0  0  0  0  0  0  0  0  0  0
   60.0340   26.2030   46.6460 Br  0  0  0  0  0  0  0  0  0  0  0  0
   59.8490   29.0660   46.8310 C   0  0  0  0  0  0  0  0  0  0  0  0
   59.4740   30.3640   46.4180 C   0  0  0  0  0  0  0  0  0  0  0  0
   64.7140   33.0936   50.7160 H   0  0  0  0  0  0  0  0  0  0  0  0
   65.3232   32.1101   49.3418 H   0  0  0  0  0  0  0  0  0  0  0  0
   65.5515   33.8918   49.3418 H   0  0  0  0  0  0  0  0  0  0  0  0
   62.7625   32.6852   49.4605 H   0  0  0  0  0  0  0  0  0  0  0  0
   63.3020   34.3200   48.8794 H   0  0  0  0  0  0  0  0  0  0  0  0
   64.5450   32.3940   47.3160 H   0  0  0  0  0  0  0  0  0  0  0  0
   63.0860   34.7567   47.0727 H   0  0  0  0  0  0  0  0  0  0  0  0
   64.2024   33.9721   45.9045 H   0  0  0  0  0  0  0  0  0  0  0  0
   62.4575   33.5456   45.9045 H   0  0  0  0  0  0  0  0  0  0  0  0
   61.9255   31.8671   46.5445 H   0  0  0  0  0  0  0  0  0  0  0  0
   63.3159   30.7496   46.9833 H   0  0  0  0  0  0  0  0  0  0  0  0
   62.1050   30.0305   48.7049 H   0  0  0  0  0  0  0  0  0  0  0  0
   62.3021   31.6751   49.4306 H   0  0  0  0  0  0  0  0  0  0  0  0
   59.8940   31.2060   49.3000 H   0  0  0  0  0  0  0  0  0  0  0  0
   60.6389   33.8349   48.2440 H   0  0  0  0  0  0  0  0  0  0  0  0
   60.3036   36.0882   47.2526 H   0  0  0  0  0  0  0  0  0  0  0  0
   59.1519   36.3303   45.0618 H   0  0  0  0  0  0  0  0  0  0  0  0
   58.2692   34.3297   43.8822 H   0  0  0  0  0  0  0  0  0  0  0  0
   56.3818   32.1208   44.1483 H   0  0  0  0  0  0  0  0  0  0  0  0
   57.6527   32.8245   43.0917 H   0  0  0  0  0  0  0  0  0  0  0  0
   57.3650   31.0514   43.0917 H   0  0  0  0  0  0  0  0  0  0  0  0
   57.9351   29.4933   43.4743 H   0  0  0  0  0  0  0  0  0  0  0  0
   58.5712   27.2276   44.2632 H   0  0  0  0  0  0  0  0  0  0  0  0
   60.4130   28.9351   47.7663 H   0  0  0  0  0  0  0  0  0  0  0  0
  1  2  1  0
  2  3  1  0
  3  4  1  0
  3  5  1  0
  5  6  1  0
  6  7  1  0
  7  8  1  0
  8  9  2  0
  9 10  1  0
 10 11  2  0
 11 12  1  0
 12 13  2  0
 13 14  1  0
 14 15  2  0
 15 16  1  0
 15 17  1  0
 17 18  2  0
 18 19  1  0
 19 20  2  0
 20 21  1  0
 20 22  1  0
 22 23  2  0
 23  8  1  0
 14  9  1  0
 23 17  1  0
  1 24  1  0
  1 25  1  0
  1 26  1  0
  2 27  1  0
  2 28  1  0
  3 29  1  6
  4 30  1  0
  4 31  1  0
  4 32  1  0
  5 33  1  0
  5 34  1  0
  6 35  1  0
  6 36  1  0
  7 37  1  0
 10 38  1  0
 11 39  1  0
 12 40  1  0
 13 41  1  0
 16 42  1  0
 16 43  1  0
 16 44  1  0
 18 45  1  0
 19 46  1  0
 22 47  1  0
M  CHG  2   3   1  15   1
M  END
>  <UniqueID>  (41) 
39

>  <SMILES>  (41) 
CC[N@H+](C)CCNc1c2ccccc2[n+](C)c2ccc(Br)cc12

>  <Energy>  (41) 
77.2351362498304

>  <Genealogy>  (41) 
CC[NH+](C)CCNc1c2ccccc2[n+](C)c2ccc(Br)cc12 (protonated)
CC[N@H+](C)CCNc1c2ccccc2[n+](C)c2ccc(Br)cc12 (chirality)
CC[N@H+](C)CCNc1c2ccccc2[n+](C)c2ccc(Br)cc12 (3D coordinates assigned)
CC[N@H+](C)CCNc1c2ccccc2[n+](C)c2ccc(Br)cc12 (optimized conformer: 77.2351362498304 kcal/mol)

>  <smiles>  (41) 
CCN(C)CCNc1c2ccccc2[n+](C)c2ccc(Br)cc12

>  <score_type>  (41) 
oracle

>  <origin>  (41) 
adg

>  <m_score__min__energy>  (41) 
-4.8399999999999999

>  <m_primary>  (41) 
energy

$$$$
41:0
     RDKit          3D

 37 38  0  0  0  0  0  0  0  0999 V2000
   56.4110   29.7910   42.9050 C   0  0  0  0  0  0  0  0  0  0  0  0
   56.1130   29.6790   44.3970 C   0  0  0  0  0  0  0  0  0  0  0  0
   57.3130   29.1920   45.1250 N   0  0  0  0  0  0  0  0  0  0  0  0
   58.0030   30.3430   45.7630 C   0  0  0  0  0  0  0  0  0  0  0  0
   59.4940   30.0730   45.9380 C   0  0  0  0  0  0  0  0  0  0  0  0
   58.2410   28.4810   44.2110 C   0  0  0  0  0  0  0  0  0  0  0  0
   58.1790   26.9400   44.3640 C   0  0  0  0  0  0  0  0  0  0  0  0
   57.6490   26.4880   45.6630 N   0  0  0  0  0  0  0  0  0  0  0  0
   56.7650   25.3500   45.5490 C   0  0  0  0  0  0  0  0  0  0  0  0
   55.3650   25.4810   45.7070 C   0  0  0  0  0  0  0  0  0  0  0  0
   54.7930   26.7160   45.9940 O   0  0  0  0  0  0  0  0  0  0  0  0
   54.5330   24.3520   45.5890 C   0  0  0  0  0  0  0  0  0  0  0  0
   55.0630   23.1180   45.3600 N   0  0  0  0  0  0  0  0  0  0  0  0
   56.4070   22.9630   45.2460 C   0  0  0  0  0  0  0  0  0  0  0  0
   57.0580   21.7430   45.0450 C   0  0  0  0  0  0  0  0  0  0  0  0
   56.1600   20.0670   44.8620 Br  0  0  0  0  0  0  0  0  0  0  0  0
   58.4440   21.8720   45.0030 C   0  0  0  0  0  0  0  0  0  0  0  0
   58.8430   23.5010   45.2140 S   0  0  0  0  0  0  0  0  0  0  0  0
   57.2580   24.0500   45.3460 C   0  0  0  0  0  0  0  0  0  0  0  0
   57.4320   30.1747   42.7628 H   0  0  0  0  0  0  0  0  0  0  0  0
   56.3239   28.7988   42.4382 H   0  0  0  0  0  0  0  0  0  0  0  0
   55.6919   30.4802   42.4382 H   0  0  0  0  0  0  0  0  0  0  0  0
   55.8286   30.6679   44.7859 H   0  0  0  0  0  0  0  0  0  0  0  0
   55.2890   28.9656   44.5458 H   0  0  0  0  0  0  0  0  0  0  0  0
   57.8727   31.2334   45.1304 H   0  0  0  0  0  0  0  0  0  0  0  0
   57.5617   30.5020   46.7580 H   0  0  0  0  0  0  0  0  0  0  0  0
   59.7353   30.0293   47.0103 H   0  0  0  0  0  0  0  0  0  0  0  0
   59.7509   29.1137   45.4649 H   0  0  0  0  0  0  0  0  0  0  0  0
   60.0710   30.8813   45.4649 H   0  0  0  0  0  0  0  0  0  0  0  0
   57.9801   28.7412   43.1745 H   0  0  0  0  0  0  0  0  0  0  0  0
   59.2628   28.7965   44.4687 H   0  0  0  0  0  0  0  0  0  0  0  0
   57.5337   26.5390   43.5685 H   0  0  0  0  0  0  0  0  0  0  0  0
   59.2131   26.5713   44.2962 H   0  0  0  0  0  0  0  0  0  0  0  0
   58.4550   26.2150   46.2710 H   0  0  0  0  0  0  0  0  0  0  0  0
   57.1780   27.2920   46.1410 H   0  0  0  0  0  0  0  0  0  0  0  0
   53.4431   24.4672   45.6827 H   0  0  0  0  0  0  0  0  0  0  0  0
   59.1603   21.0501   44.8568 H   0  0  0  0  0  0  0  0  0  0  0  0
  1  2  1  0
  2  3  1  0
  3  4  1  0
  4  5  1  0
  3  6  1  0
  6  7  1  0
  7  8  1  0
  8  9  1  0
  9 10  2  0
 10 11  1  0
 10 12  1  0
 12 13  2  0
 13 14  1  0
 14 15  1  0
 15 16  1  0
 15 17  2  0
 17 18  1  0
 18 19  1  0
 19  9  1  0
 19 14  2  0
  1 20  1  0
  1 21  1  0
  1 22  1  0
  2 23  1  0
  2 24  1  0
  4 25  1  0
  4 26  1  0
  5 27  1  0
  5 28  1  0
  5 29  1  0
  6 30  1  0
  6 31  1  0
  7 32  1  0
  7 33  1  0
  8 34  1  0
  8 35  1  0
 12 36  1  0
 17 37  1  0
M  CHG  2   8   1  11  -1
M  END
>  <UniqueID>  (42) 
40

>  <SMILES>  (42) 
CCN(CC)CC[NH2+]c1c([O-])cnc2c(Br)csc12

>  <Energy>  (42) 
68.85830774906879

>  <Genealogy>  (42) 
CCN(CC)CC[NH2+]c1c([O-])cnc2c(Br)csc12 (protonated)
CCN(CC)CC[NH2+]c1c([O-])cnc2c(Br)csc12 (3D coordinates assigned)
CCN(CC)CC[NH2+]c1c([O-])cnc2c(Br)csc12 (optimized conformer: 68.85830774906879 kcal/mol)

>  <smiles>  (42) 
CCN(CC)CCNc1c(O)cnc2c(Br)csc12

>  <score_type>  (42) 
oracle

>  <origin>  (42) 
adg

>  <m_score__min__energy>  (42) 
-7.3399999999999999

>  <m_primary>  (42) 
energy

$$$$
42:0
     RDKit          3D

 50 52  0  0  0  0  0  0  0  0999 V2000
   58.0500   33.4790   47.1310 C   0  0  0  0  0  0  0  0  0  0  0  0
   57.1500   33.3580   45.8940 C   0  0  0  0  0  0  0  0  0  0  0  0
   57.8250   33.8560   44.6770 N   0  0  0  0  0  0  0  0  0  0  0  0
   59.0660   34.5750   45.0200 C   0  0  0  0  0  0  0  0  0  0  0  0
   58.1140   32.7360   43.7460 C   0  0  0  0  0  0  0  0  0  0  0  0
   57.2410   31.5230   44.0810 C   0  0  0  0  0  0  0  0  0  0  0  0
   58.0330   30.2920   44.0550 N   0  0  0  0  0  0  0  0  0  0  0  0
   58.0420   29.3220   45.1220 C   0  0  0  0  0  0  0  0  0  0  0  0
   57.1610   28.2240   45.0890 C   0  0  0  0  0  0  0  0  0  0  0  0
   57.2130   27.2330   46.0670 C   0  0  0  0  0  0  0  0  0  0  0  0
   58.1370   27.3170   47.1030 C   0  0  0  0  0  0  0  0  0  0  0  0
   59.0130   28.4040   47.1790 C   0  0  0  0  0  0  0  0  0  0  0  0
   59.8960   28.4910   48.2130 N   0  0  0  0  0  0  0  0  0  0  0  0
   60.7430   29.5440   48.3400 C   0  0  0  0  0  0  0  0  0  0  0  0
   60.7410   30.5810   47.3980 C   0  0  0  0  0  0  0  0  0  0  0  0
   61.5940   31.7280   47.5750 N   0  0  0  0  0  0  0  0  0  0  0  0
   61.3500   32.9350   46.7610 C   0  0  0  0  0  0  0  0  0  0  0  0
   62.5660   33.8910   46.7270 C   0  0  0  0  0  0  0  0  0  0  0  0
   63.7660   33.2590   47.1220 O   0  0  0  0  0  0  0  0  0  0  0  0
   63.6410   32.8250   48.4540 C   0  0  0  0  0  0  0  0  0  0  0  0
   62.7250   31.6100   48.5110 C   0  0  0  0  0  0  0  0  0  0  0  0
   59.8470   30.5160   46.3220 C   0  0  0  0  0  0  0  0  0  0  0  0
   58.9740   29.4200   46.1870 C   0  0  0  0  0  0  0  0  0  0  0  0
   57.4365   33.3965   48.0403 H   0  0  0  0  0  0  0  0  0  0  0  0
   58.7990   32.6735   47.1197 H   0  0  0  0  0  0  0  0  0  0  0  0
   58.5597   34.4537   47.1197 H   0  0  0  0  0  0  0  0  0  0  0  0
   56.8854   32.3004   45.7476 H   0  0  0  0  0  0  0  0  0  0  0  0
   56.2511   33.9692   46.0624 H   0  0  0  0  0  0  0  0  0  0  0  0
   59.1658   34.6328   46.1139 H   0  0  0  0  0  0  0  0  0  0  0  0
   59.9292   34.0371   44.6010 H   0  0  0  0  0  0  0  0  0  0  0  0
   59.0287   35.5914   44.6010 H   0  0  0  0  0  0  0  0  0  0  0  0
   57.9055   33.0588   42.7153 H   0  0  0  0  0  0  0  0  0  0  0  0
   59.1720   32.4524   43.8472 H   0  0  0  0  0  0  0  0  0  0  0  0
   56.8105   31.6542   45.0847 H   0  0  0  0  0  0  0  0  0  0  0  0
   56.4413   31.4448   43.3298 H   0  0  0  0  0  0  0  0  0  0  0  0
   58.4880   30.0380   43.1460 H   0  0  0  0  0  0  0  0  0  0  0  0
   56.4207   28.1475   44.2790 H   0  0  0  0  0  0  0  0  0  0  0  0
   56.5199   26.3801   46.0195 H   0  0  0  0  0  0  0  0  0  0  0  0
   58.1788   26.5252   47.8655 H   0  0  0  0  0  0  0  0  0  0  0  0
   59.9170   27.7480   48.9480 H   0  0  0  0  0  0  0  0  0  0  0  0
   61.4383   29.5836   49.1915 H   0  0  0  0  0  0  0  0  0  0  0  0
   61.1186   32.6239   45.7316 H   0  0  0  0  0  0  0  0  0  0  0  0
   60.5125   33.4805   47.2203 H   0  0  0  0  0  0  0  0  0  0  0  0
   62.6882   34.2690   45.7012 H   0  0  0  0  0  0  0  0  0  0  0  0
   62.3689   34.7057   47.4393 H   0  0  0  0  0  0  0  0  0  0  0  0
   64.6327   32.5546   48.8456 H   0  0  0  0  0  0  0  0  0  0  0  0
   63.2129   33.6344   49.0635 H   0  0  0  0  0  0  0  0  0  0  0  0
   63.3077   30.7134   48.2529 H   0  0  0  0  0  0  0  0  0  0  0  0
   62.3170   31.5393   49.5301 H   0  0  0  0  0  0  0  0  0  0  0  0
   59.8269   31.3260   45.5781 H   0  0  0  0  0  0  0  0  0  0  0  0
  1  2  1  0
  2  3  1  0
  3  4  1  0
  3  5  1  0
  5  6  1  0
  6  7  1  0
  7  8  1  0
  8  9  2  0
  9 10  1  0
 10 11  2  0
 11 12  1  0
 12 13  2  0
 13 14  1  0
 14 15  2  0
 15 16  1  0
 16 17  1  0
 17 18  1  0
 18 19  1  0
 19 20  1  0
 20 21  1  0
 15 22  1  0
 22 23  2  0
 23  8  1  0
 23 12  1  0
 21 16  1  0
  1 24  1  0
  1 25  1  0
  1 26  1  0
  2 27  1  0
  2 28  1  0
  4 29  1  0
  4 30  1  0
  4 31  1  0
  5 32  1  0
  5 33  1  0
  6 34  1  0
  6 35  1  0
  7 36  1  0
  9 37  1  0
 10 38  1  0
 11 39  1  0
 13 40  1  0
 14 41  1  0
 17 42  1  0
 17 43  1  0
 18 44  1  0
 18 45  1  0
 20 46  1  0
 20 47  1  0
 21 48  1  0
 21 49  1  0
 22 50  1  0
M  CHG  1  13   1
M  END
>  <UniqueID>  (43) 
41

>  <SMILES>  (43) 
CCN(C)CCNc1cccc2[nH+]cc(N3CCOCC3)cc12

>  <Energy>  (43) 
67.38397777665925

>  <Genealogy>  (43) 
CCN(C)CCNc1cccc2[nH+]cc(N3CCOCC3)cc12 (protonated)
CCN(C)CCNc1cccc2[nH+]cc(N3CCOCC3)cc12 (3D coordinates assigned)
CCN(C)CCNc1cccc2[nH+]cc(N3CCOCC3)cc12 (nonaromatic ring conformer: 67.38397777665925 kcal/mol)

>  <smiles>  (43) 
CCN(C)CCNc1cccc2ncc(N3CCOCC3)cc12

>  <score_type>  (43) 
oracle

>  <origin>  (43) 
adg

>  <m_score__min__energy>  (43) 
-5.1900000000000004

>  <m_primary>  (43) 
energy

$$$$
43:0
     RDKit          3D

 55 57  0  0  0  0  0  0  0  0999 V2000
   61.1640   30.0790   47.0900 C   0  0  0  0  0  0  0  0  0  0  0  0
   61.8100   31.3230   46.8230 O   0  0  0  0  0  0  0  0  0  0  0  0
   62.2950   32.2000   47.8100 C   0  0  0  0  0  0  0  0  0  0  0  0
   63.2510   31.7880   48.7610 C   0  0  0  0  0  0  0  0  0  0  0  0
   63.7220   32.6810   49.7270 C   0  0  0  0  0  0  0  0  0  0  0  0
   63.2550   33.9950   49.7550 C   0  0  0  0  0  0  0  0  0  0  0  0
   62.3120   34.4190   48.8170 C   0  0  0  0  0  0  0  0  0  0  0  0
   61.8210   33.5300   47.8420 C   0  0  0  0  0  0  0  0  0  0  0  0
   60.8180   34.0370   46.8240 C   0  0  0  0  0  0  0  0  0  0  0  0
   59.8710   32.9760   46.4010 N   0  0  0  0  0  0  0  0  0  0  0  0
   59.0480   33.4550   45.2600 C   0  0  0  0  0  0  0  0  0  0  0  0
   57.6860   32.7290   45.1400 C   0  0  0  0  0  0  0  0  0  0  0  0
   57.7190   31.3590   45.6940 N   0  0  0  0  0  0  0  0  0  0  0  0
   58.4670   30.4110   44.8340 C   0  0  0  0  0  0  0  0  0  0  0  0
   58.1960   28.9890   45.2640 C   0  0  0  0  0  0  0  0  0  0  0  0
   59.2900   28.1600   45.5580 C   0  0  0  0  0  0  0  0  0  0  0  0
   59.0930   26.8300   45.9180 C   0  0  0  0  0  0  0  0  0  0  0  0
   57.8010   26.3130   46.0050 C   0  0  0  0  0  0  0  0  0  0  0  0
   56.6820   27.1230   45.7230 C   0  0  0  0  0  0  0  0  0  0  0  0
   55.3780   26.6230   45.8480 O   0  0  0  0  0  0  0  0  0  0  0  0
   54.9980   25.2670   45.6260 C   0  0  0  0  0  0  0  0  0  0  0  0
   56.8810   28.4740   45.3370 C   0  0  0  0  0  0  0  0  0  0  0  0
   55.8090   29.3380   45.0410 O   0  0  0  0  0  0  0  0  0  0  0  0
   55.5210   29.8820   43.7520 C   0  0  0  0  0  0  0  0  0  0  0  0
   58.1450   31.3330   47.1170 C   0  0  0  0  0  0  0  0  0  0  0  0
   59.0110   32.5470   47.5220 C   0  0  0  0  0  0  0  0  0  0  0  0
   61.0874   29.9316   48.1774 H   0  0  0  0  0  0  0  0  0  0  0  0
   60.1562   30.0871   46.6492 H   0  0  0  0  0  0  0  0  0  0  0  0
   61.7504   29.2593   46.6492 H   0  0  0  0  0  0  0  0  0  0  0  0
   63.6291   30.7552   48.7423 H   0  0  0  0  0  0  0  0  0  0  0  0
   64.4634   32.3467   50.4677 H   0  0  0  0  0  0  0  0  0  0  0  0
   63.6293   34.6963   50.5153 H   0  0  0  0  0  0  0  0  0  0  0  0
   61.9493   35.4572   48.8399 H   0  0  0  0  0  0  0  0  0  0  0  0
   60.2475   34.8653   47.2695 H   0  0  0  0  0  0  0  0  0  0  0  0
   61.3744   34.3699   45.9354 H   0  0  0  0  0  0  0  0  0  0  0  0
   60.4330   32.1510   46.0810 H   0  0  0  0  0  0  0  0  0  0  0  0
   58.8598   34.5306   45.3926 H   0  0  0  0  0  0  0  0  0  0  0  0
   59.6122   33.2432   44.3398 H   0  0  0  0  0  0  0  0  0  0  0  0
   56.9279   33.3108   45.6849 H   0  0  0  0  0  0  0  0  0  0  0  0
   57.4454   32.6488   44.0696 H   0  0  0  0  0  0  0  0  0  0  0  0
   58.1496   30.5410   43.7888 H   0  0  0  0  0  0  0  0  0  0  0  0
   59.5438   30.6148   44.9284 H   0  0  0  0  0  0  0  0  0  0  0  0
   60.3113   28.5648   45.5034 H   0  0  0  0  0  0  0  0  0  0  0  0
   59.9580   26.1857   46.1342 H   0  0  0  0  0  0  0  0  0  0  0  0
   57.6533   25.2627   46.2966 H   0  0  0  0  0  0  0  0  0  0  0  0
   54.8567   24.7627   46.5933 H   0  0  0  0  0  0  0  0  0  0  0  0
   54.0572   25.2383   45.0567 H   0  0  0  0  0  0  0  0  0  0  0  0
   55.7869   24.7536   45.0567 H   0  0  0  0  0  0  0  0  0  0  0  0
   55.0092   30.8487   43.8680 H   0  0  0  0  0  0  0  0  0  0  0  0
   56.4598   30.0283   43.1977 H   0  0  0  0  0  0  0  0  0  0  0  0
   54.8722   29.1879   43.1977 H   0  0  0  0  0  0  0  0  0  0  0  0
   57.2454   31.3201   47.7498 H   0  0  0  0  0  0  0  0  0  0  0  0
   58.7634   30.4336   47.2539 H   0  0  0  0  0  0  0  0  0  0  0  0
   58.3523   33.3796   47.8101 H   0  0  0  0  0  0  0  0  0  0  0  0
   59.6526   32.2558   48.3667 H   0  0  0  0  0  0  0  0  0  0  0  0
  1  2  1  0
  2  3  1  0
  3  4  2  0
  4  5  1  0
  5  6  2  0
  6  7  1  0
  7  8  2  0
  8  9  1  0
  9 10  1  0
 10 11  1  0
 11 12  1  0
 12 13  1  0
 13 14  1  0
 14 15  1  0
 15 16  2  0
 16 17  1  0
 17 18  2  0
 18 19  1  0
 19 20  1  0
 20 21  1  0
 19 22  2  0
 22 23  1  0
 23 24  1  0
 13 25  1  0
 25 26  1  0
  8  3  1  0
 26 10  1  0
 22 15  1  0
  1 27  1  0
  1 28  1  0
  1 29  1  0
  4 30  1  0
  5 31  1  0
  6 32  1  0
  7 33  1  0
  9 34  1  0
  9 35  1  0
 10 36  1  0
 11 37  1  0
 11 38  1  0
 12 39  1  0
 12 40  1  0
 14 41  1  0
 14 42  1  0
 16 43  1  0
 17 44  1  0
 18 45  1  0
 21 46  1  0
 21 47  1  0
 21 48  1  0
 24 49  1  0
 24 50  1  0
 24 51  1  0
 25 52  1  0
 25 53  1  0
 26 54  1  0
 26 55  1  0
M  CHG  1  10   1
M  END
>  <UniqueID>  (44) 
42

>  <SMILES>  (44) 
COc1ccccc1C[NH+]1CCN(Cc2cccc(OC)c2OC)CC1

>  <Energy>  (44) 
73.70335394984147

>  <Genealogy>  (44) 
COc1ccccc1C[NH+]1CCN(Cc2cccc(OC)c2OC)CC1 (protonated)
COc1ccccc1C[NH+]1CCN(Cc2cccc(OC)c2OC)CC1 (3D coordinates assigned)
COc1ccccc1C[NH+]1CCN(Cc2cccc(OC)c2OC)CC1 (nonaromatic ring conformer: 73.70335394984147 kcal/mol)

>  <smiles>  (44) 
COc1ccccc1CN1CCN(Cc2cccc(OC)c2OC)CC1

>  <score_type>  (44) 
oracle

>  <origin>  (44) 
adg

>  <m_score__min__energy>  (44) 
-7.2300000000000004

>  <m_primary>  (44) 
energy

$$$$
44:0
     RDKit          3D

 47 50  0  0  0  0  0  0  0  0999 V2000
   57.0960   31.2490   43.8420 C   0  0  0  0  0  0  0  0  0  0  0  0
   58.1760   31.3210   44.8510 N   0  0  0  0  0  0  0  0  0  0  0  0
   58.6850   32.5480   45.2370 C   0  0  0  0  0  0  0  0  0  0  0  0
   58.4200   33.7280   44.4960 C   0  0  0  0  0  0  0  0  0  0  0  0
   58.8920   34.9680   44.9240 C   0  0  0  0  0  0  0  0  0  0  0  0
   59.6480   35.0660   46.0850 C   0  0  0  0  0  0  0  0  0  0  0  0
   59.9590   33.9200   46.8140 C   0  0  0  0  0  0  0  0  0  0  0  0
   59.5040   32.6510   46.3940 C   0  0  0  0  0  0  0  0  0  0  0  0
   59.8500   31.4870   47.1060 C   0  0  0  0  0  0  0  0  0  0  0  0
   60.6050   31.5770   48.3290 N   0  0  0  0  0  0  0  0  0  0  0  0
   61.9870   31.0970   48.4060 C   0  0  0  0  0  0  0  0  0  0  0  0
   62.8060   31.5450   47.1760 C   0  0  0  0  0  0  0  0  0  0  0  0
   63.7480   32.6510   47.4740 N   0  0  0  0  0  0  0  0  0  0  0  0
   63.7460   32.9320   48.9210 C   0  0  0  0  0  0  0  0  0  0  0  0
   63.4070   33.8790   46.7330 C   0  0  0  0  0  0  0  0  0  0  0  0
   59.5020   30.2310   46.5810 C   0  0  0  0  0  0  0  0  0  0  0  0
   60.0010   29.0380   47.1680 C   0  0  0  0  0  0  0  0  0  0  0  0
   59.6660   27.8250   46.5880 C   0  0  0  0  0  0  0  0  0  0  0  0
   58.8980   27.7490   45.4810 C   0  0  0  0  0  0  0  0  0  0  0  0
   58.3870   28.8790   44.8580 C   0  0  0  0  0  0  0  0  0  0  0  0
   58.6680   30.1610   45.4170 C   0  0  0  0  0  0  0  0  0  0  0  0
   58.7480   26.4260   45.1130 O   0  0  0  0  0  0  0  0  0  0  0  0
   59.4680   25.6200   46.0550 C   0  0  0  0  0  0  0  0  0  0  0  0
   60.0420   26.5540   46.9790 O   0  0  0  0  0  0  0  0  0  0  0  0
   56.1228   31.1841   44.3506 H   0  0  0  0  0  0  0  0  0  0  0  0
   57.1214   32.1508   43.2127 H   0  0  0  0  0  0  0  0  0  0  0  0
   57.2409   30.3585   43.2127 H   0  0  0  0  0  0  0  0  0  0  0  0
   57.8324   33.6637   43.5683 H   0  0  0  0  0  0  0  0  0  0  0  0
   58.6648   35.8721   44.3401 H   0  0  0  0  0  0  0  0  0  0  0  0
   60.0015   36.0491   46.4293 H   0  0  0  0  0  0  0  0  0  0  0  0
   60.5661   34.0049   47.7274 H   0  0  0  0  0  0  0  0  0  0  0  0
   60.1020   31.8140   49.2120 H   0  0  0  0  0  0  0  0  0  0  0  0
   62.4563   31.5006   49.3153 H   0  0  0  0  0  0  0  0  0  0  0  0
   61.9717   29.9974   48.4311 H   0  0  0  0  0  0  0  0  0  0  0  0
   63.3828   30.6840   46.8073 H   0  0  0  0  0  0  0  0  0  0  0  0
   62.0927   31.9158   46.4252 H   0  0  0  0  0  0  0  0  0  0  0  0
   64.7190   32.3590   47.2090 H   0  0  0  0  0  0  0  0  0  0  0  0
   63.7528   31.9839   49.4786 H   0  0  0  0  0  0  0  0  0  0  0  0
   64.6400   33.5173   49.1821 H   0  0  0  0  0  0  0  0  0  0  0  0
   62.8438   33.5045   49.1821 H   0  0  0  0  0  0  0  0  0  0  0  0
   63.1827   34.6867   47.4453 H   0  0  0  0  0  0  0  0  0  0  0  0
   64.2573   34.1736   46.1004 H   0  0  0  0  0  0  0  0  0  0  0  0
   62.5265   33.6930   46.1004 H   0  0  0  0  0  0  0  0  0  0  0  0
   60.6392   29.0760   48.0631 H   0  0  0  0  0  0  0  0  0  0  0  0
   57.7754   28.7876   43.9483 H   0  0  0  0  0  0  0  0  0  0  0  0
   58.7863   24.9308   46.5750 H   0  0  0  0  0  0  0  0  0  0  0  0
   60.2328   24.9977   45.5673 H   0  0  0  0  0  0  0  0  0  0  0  0
  1  2  1  0
  2  3  2  0
  3  4  1  0
  4  5  2  0
  5  6  1  0
  6  7  2  0
  7  8  1  0
  8  9  2  0
  9 10  1  0
 10 11  1  0
 11 12  1  0
 12 13  1  0
 13 14  1  0
 13 15  1  0
  9 16  1  0
 16 17  2  0
 17 18  1  0
 18 19  2  0
 19 20  1  0
 20 21  2  0
 19 22  1  0
 22 23  1  0
 23 24  1  0
 21  2  1  0
  8  3  1  0
 21 16  1  0
 24 18  1  0
  1 25  1  0
  1 26  1  0
  1 27  1  0
  4 28  1  0
  5 29  1  0
  6 30  1  0
  7 31  1  0
 10 32  1  0
 11 33  1  0
 11 34  1  0
 12 35  1  0
 12 36  1  0
 13 37  1  0
 14 38  1  0
 14 39  1  0
 14 40  1  0
 15 41  1  0
 15 42  1  0
 15 43  1  0
 17 44  1  0
 20 45  1  0
 23 46  1  0
 23 47  1  0
M  CHG  2   2   1  13   1
M  END
>  <UniqueID>  (45) 
43

>  <SMILES>  (45) 
C[n+]1c2ccccc2c(NCC[NH+](C)C)c2cc3c(cc21)OCO3

>  <Energy>  (45) 
105.14924618895478

>  <Genealogy>  (45) 
C[n+]1c2ccccc2c(NCC[NH+](C)C)c2cc3c(cc21)OCO3 (protonated)
C[n+]1c2ccccc2c(NCC[NH+](C)C)c2cc3c(cc21)OCO3 (3D coordinates assigned)
C[n+]1c2ccccc2c(NCC[NH+](C)C)c2cc3c(cc21)OCO3 (nonaromatic ring conformer: 105.14924618895478 kcal/mol)

>  <smiles>  (45) 
CN(C)CCNc1c2ccccc2[n+](C)c2cc3c(cc12)OCO3

>  <score_type>  (45) 
oracle

>  <origin>  (45) 
adg

>  <m_score__min__energy>  (45) 
-4.1900000000000004

>  <m_primary>  (45) 
energy

$$$$
