0:0
     RDKit          3D

 58 60  0  0  0  0  0  0  0  0999 V2000
   59.1510   28.2170   47.7440 C   0  0  0  0  0  0  0  0  0  0  0  0
   58.6060   27.7890   46.3800 C   0  0  0  0  0  0  0  0  0  0  0  0
   59.5530   28.1110   45.2900 N   0  0  0  0  0  0  0  0  0  0  0  0
   60.6330   28.9950   45.7720 C   0  0  0  0  0  0  0  0  0  0  0  0
   58.8410   28.7400   44.1540 C   0  0  0  0  0  0  0  0  0  0  0  0
   57.3320   28.5750   44.3100 C   0  0  0  0  0  0  0  0  0  0  0  0
   56.7640   29.7520   44.8810 O   0  0  0  0  0  0  0  0  0  0  0  0
   57.4800   30.9380   45.0870 C   0  0  0  0  0  0  0  0  0  0  0  0
   58.1370   31.1880   46.3000 C   0  0  0  0  0  0  0  0  0  0  0  0
   58.8160   32.3950   46.5080 C   0  0  0  0  0  0  0  0  0  0  0  0
   58.7850   33.3930   45.5120 C   0  0  0  0  0  0  0  0  0  0  0  0
   58.1680   33.1200   44.2810 C   0  0  0  0  0  0  0  0  0  0  0  0
   57.5310   31.8830   44.0540 C   0  0  0  0  0  0  0  0  0  0  0  0
   56.9270   31.5690   42.8300 O   0  0  0  0  0  0  0  0  0  0  0  0
   57.4080   32.0030   41.5620 C   0  0  0  0  0  0  0  0  0  0  0  0
   59.4270   34.7040   45.7660 C   0  0  0  0  0  0  0  0  0  0  0  0
   59.4250   35.6040   44.8840 O   0  0  0  0  0  0  0  0  0  0  0  0
   60.0350   34.9900   47.1110 C   0  0  0  0  0  0  0  0  0  0  0  0
   60.6250   33.7100   47.7610 C   0  0  0  0  0  0  0  0  0  0  0  0
   61.1030   34.0430   49.2130 C   0  0  0  0  0  0  0  0  0  0  0  0
   62.5840   34.4510   49.2450 C   0  0  0  0  0  0  0  0  0  0  0  0
   63.4820   33.3680   48.7690 N   0  0  0  0  0  0  0  0  0  0  0  0
   64.0240   32.5920   49.8980 C   0  0  0  0  0  0  0  0  0  0  0  0
   62.8560   32.4580   47.7760 C   0  0  0  0  0  0  0  0  0  0  0  0
   61.8270   33.1880   46.9060 C   0  0  0  0  0  0  0  0  0  0  0  0
   59.5010   32.6380   47.8370 C   0  0  0  0  0  0  0  0  0  0  0  0
   58.5544   27.7485   48.5406 H   0  0  0  0  0  0  0  0  0  0  0  0
   60.1999   27.8987   47.8360 H   0  0  0  0  0  0  0  0  0  0  0  0
   59.0905   29.3115   47.8360 H   0  0  0  0  0  0  0  0  0  0  0  0
   58.4297   26.7033   46.3907 H   0  0  0  0  0  0  0  0  0  0  0  0
   57.6702   28.3370   46.1959 H   0  0  0  0  0  0  0  0  0  0  0  0
   60.6392   29.0001   46.8720 H   0  0  0  0  0  0  0  0  0  0  0  0
   61.6011   28.6267   45.4016 H   0  0  0  0  0  0  0  0  0  0  0  0
   60.4633   30.0168   45.4016 H   0  0  0  0  0  0  0  0  0  0  0  0
   59.0863   29.8118   44.1221 H   0  0  0  0  0  0  0  0  0  0  0  0
   59.1574   28.2500   43.2214 H   0  0  0  0  0  0  0  0  0  0  0  0
   56.8820   28.3968   43.3222 H   0  0  0  0  0  0  0  0  0  0  0  0
   57.1311   27.7212   44.9739 H   0  0  0  0  0  0  0  0  0  0  0  0
   58.1190   30.4289   47.0959 H   0  0  0  0  0  0  0  0  0  0  0  0
   58.1817   33.8792   43.4851 H   0  0  0  0  0  0  0  0  0  0  0  0
   58.2175   32.7334   41.7073 H   0  0  0  0  0  0  0  0  0  0  0  0
   57.7907   31.1386   40.9996 H   0  0  0  0  0  0  0  0  0  0  0  0
   56.5874   32.4722   40.9996 H   0  0  0  0  0  0  0  0  0  0  0  0
   60.8395   35.7300   46.9879 H   0  0  0  0  0  0  0  0  0  0  0  0
   59.2421   35.3737   47.7699 H   0  0  0  0  0  0  0  0  0  0  0  0
   60.4964   34.8720   49.6065 H   0  0  0  0  0  0  0  0  0  0  0  0
   60.9832   33.1394   49.8288 H   0  0  0  0  0  0  0  0  0  0  0  0
   62.7213   35.3320   48.6008 H   0  0  0  0  0  0  0  0  0  0  0  0
   62.8483   34.6696   50.2902 H   0  0  0  0  0  0  0  0  0  0  0  0
   63.7038   33.0504   50.8453 H   0  0  0  0  0  0  0  0  0  0  0  0
   63.6501   31.5588   49.8458 H   0  0  0  0  0  0  0  0  0  0  0  0
   65.1228   32.5874   49.8458 H   0  0  0  0  0  0  0  0  0  0  0  0
   63.6418   32.0442   47.1269 H   0  0  0  0  0  0  0  0  0  0  0  0
   62.3355   31.6590   48.3243 H   0  0  0  0  0  0  0  0  0  0  0  0
   62.3152   34.0429   46.4153 H   0  0  0  0  0  0  0  0  0  0  0  0
   61.4392   32.4791   46.1596 H   0  0  0  0  0  0  0  0  0  0  0  0
   59.9437   31.6913   48.1802 H   0  0  0  0  0  0  0  0  0  0  0  0
   58.7375   33.0143   48.5338 H   0  0  0  0  0  0  0  0  0  0  0  0
  1  2  1  0
  2  3  1  0
  3  4  1  0
  3  5  1  0
  5  6  1  0
  6  7  1  0
  7  8  1  0
  8  9  2  0
  9 10  1  0
 10 11  2  0
 11 12  1  0
 12 13  2  0
 13 14  1  0
 14 15  1  0
 11 16  1  0
 16 17  2  0
 16 18  1  0
 18 19  1  0
 19 20  1  0
 20 21  1  0
 21 22  1  0
 22 23  1  0
 22 24  1  0
 24 25  1  0
 19 26  1  0
 13  8  1  0
 25 19  1  0
 26 10  1  0
  1 27  1  0
  1 28  1  0
  1 29  1  0
  2 30  1  0
  2 31  1  0
  4 32  1  0
  4 33  1  0
  4 34  1  0
  5 35  1  0
  5 36  1  0
  6 37  1  0
  6 38  1  0
  9 39  1  0
 12 40  1  0
 15 41  1  0
 15 42  1  0
 15 43  1  0
 18 44  1  0
 18 45  1  0
 20 46  1  0
 20 47  1  0
 21 48  1  0
 21 49  1  0
 23 50  1  0
 23 51  1  0
 23 52  1  0
 24 53  1  0
 24 54  1  0
 25 55  1  0
 25 56  1  0
 26 57  1  0
 26 58  1  0
M  END
>  <UniqueID>  (1) 
1

>  <SMILES>  (1) 
CCN(C)CCOc1cc2c(cc1OC)C(=O)CC1(CCN(C)CC1)C2

>  <Energy>  (1) 
72.9106216651813

>  <Genealogy>  (1) 
CCN(C)CCOc1cc2c(cc1OC)C(=O)CC1(CCN(C)CC1)C2 (3D coordinates assigned)
CCN(C)CCOc1cc2c(cc1OC)C(=O)CC1(CCN(C)CC1)C2 (nonaromatic ring conformer: 72.9106216651813 kcal/mol)

>  <smiles>  (1) 
CCN(C)CCOc1cc2c(cc1OC)C(=O)CC1(CCN(C)CC1)C2

>  <score_type>  (1) 
oracle

>  <origin>  (1) 
adg

>  <m_score__min__energy>  (1) 
-8.3300000000000001

>  <m_primary>  (1) 
energy

$$$$
1:0
     RDKit          3D

 22 21  0  0  0  0  0  0  0  0999 V2000
   55.1570   27.0940   45.3040 H   0  0  0  0  0  0  0  0  0  0  0  0
   54.9000   26.3310   45.9690 N   0  0  0  0  0  0  0  0  0  0  0  0
   55.1910   24.9690   45.6730 C   0  0  0  0  0  0  0  0  0  0  0  0
   54.4940   24.0650   46.2080 O   0  0  0  0  0  0  0  0  0  0  0  0
   56.2430   24.5950   44.6990 C   0  0  0  0  0  0  0  0  0  0  0  0
   56.0540   23.3640   43.9690 C   0  0  0  0  0  0  0  0  0  0  0  0
   55.9030   22.3770   43.3840 N   0  0  0  0  0  0  0  0  0  0  0  0
   57.3660   25.3060   44.4560 C   0  0  0  0  0  0  0  0  0  0  0  0
   58.2052   24.7836   43.9735 H   0  0  0  0  0  0  0  0  0  0  0  0
   57.5470   26.7100   44.7850 N   0  0  1  0  0  0  0  0  0  0  0  0
   56.6080   27.1440   44.9290 H   0  0  0  0  0  0  0  0  0  0  0  0
   58.3340   26.8690   46.0240 C   0  0  0  0  0  0  0  0  0  0  0  0
   57.6764   26.7361   46.8957 H   0  0  0  0  0  0  0  0  0  0  0  0
   59.1339   26.1143   46.0497 H   0  0  0  0  0  0  0  0  0  0  0  0
   58.7781   27.8750   46.0497 H   0  0  0  0  0  0  0  0  0  0  0  0
   58.1490   27.4560   43.6500 C   0  0  0  0  0  0  0  0  0  0  0  0
   59.1918   27.6912   43.9092 H   0  0  0  0  0  0  0  0  0  0  0  0
   57.5275   28.3514   43.5021 H   0  0  0  0  0  0  0  0  0  0  0  0
   58.1470   26.6990   42.3100 C   0  0  0  0  0  0  0  0  0  0  0  0
   58.1441   25.6157   42.5009 H   0  0  0  0  0  0  0  0  0  0  0  0
   57.2496   26.9725   41.7357 H   0  0  0  0  0  0  0  0  0  0  0  0
   59.0459   26.9678   41.7357 H   0  0  0  0  0  0  0  0  0  0  0  0
  1  2  1  0
  2  3  1  0
  3  4  2  0
  3  5  1  0
  5  6  1  0
  6  7  3  0
  5  8  2  0
  8  9  1  0
  8 10  1  0
 10 11  1  1
 10 12  1  0
 12 13  1  0
 12 14  1  0
 12 15  1  0
 10 16  1  0
 16 17  1  0
 16 18  1  0
 16 19  1  0
 19 20  1  0
 19 21  1  0
 19 22  1  0
M  CHG  2   2  -1  10   1
M  END
>  <UniqueID>  (2) 
2

>  <SMILES>  (2) 
CC[N@H+](C)/C=C(/C#N)C([NH-])=O

>  <Energy>  (2) 
24.68564000959849

>  <Genealogy>  (2) 
CC[NH+](C)C=C(C#N)C([NH-])=O (protonated)
CC[N@H+](C)C=C(C#N)C([NH-])=O (chirality)
CC[N@H+](C)/C=C(/C#N)C([NH-])=O (cis-trans isomerization)
CC[N@H+](C)/C=C(/C#N)C([NH-])=O (3D coordinates assigned)
CC[N@H+](C)/C=C(/C#N)C([NH-])=O (optimized conformer: 24.68564000959849 kcal/mol)

>  <smiles>  (2) 
CCN(C)C=C(C#N)C(N)=O

>  <score_type>  (2) 
oracle

>  <origin>  (2) 
adg

>  <m_score__min__energy>  (2) 
-5.8399999999999999

>  <m_primary>  (2) 
energy

$$$$
2:0
     RDKit          3D

 39 41  0  0  0  0  0  0  0  0999 V2000
   57.3750   27.1180   46.9000 F   0  0  0  0  0  0  0  0  0  0  0  0
   56.6580   26.8530   45.7470 C   0  0  0  0  0  0  0  0  0  0  0  0
   55.7030   25.8820   45.9940 F   0  0  0  0  0  0  0  0  0  0  0  0
   56.0400   28.0430   45.2630 O   0  0  0  0  0  0  0  0  0  0  0  0
   56.6860   29.2790   45.0910 C   0  0  0  0  0  0  0  0  0  0  0  0
   56.3260   30.0640   43.9910 C   0  0  0  0  0  0  0  0  0  0  0  0
   56.9350   31.3030   43.7700 C   0  0  0  0  0  0  0  0  0  0  0  0
   57.9200   31.7750   44.6510 C   0  0  0  0  0  0  0  0  0  0  0  0
   58.5920   33.1070   44.4100 C   0  0  0  0  0  0  0  0  0  0  0  0
   58.5070   33.9930   45.5840 N   0  0  0  0  0  0  0  0  0  0  0  0
   59.6910   34.8530   45.7410 C   0  0  0  0  0  0  0  0  0  0  0  0
   60.5660   34.3650   46.9030 C   0  0  2  0  0  0  0  0  0  0  0  0
   61.8940   33.7700   46.3670 C   0  0  0  0  0  0  0  0  0  0  0  0
   62.5510   33.0470   47.4470 N   0  0  0  0  0  0  0  0  0  0  0  0
   63.7910   32.5960   47.4830 N   0  0  0  0  0  0  0  0  0  0  0  0
   64.0200   31.9470   48.6180 N   0  0  0  0  0  0  0  0  0  0  0  0
   62.8650   31.9820   49.3270 C   0  0  0  0  0  0  0  0  0  0  0  0
   61.9410   32.6620   48.5650 C   0  0  0  0  0  0  0  0  0  0  0  0
   60.5320   33.0660   48.8630 C   0  0  0  0  0  0  0  0  0  0  0  0
   59.8490   33.3890   47.6570 O   0  0  0  0  0  0  0  0  0  0  0  0
   58.2840   30.9900   45.7560 C   0  0  0  0  0  0  0  0  0  0  0  0
   57.6740   29.7520   45.9770 C   0  0  0  0  0  0  0  0  0  0  0  0
   57.3506   26.4813   44.9775 H   0  0  0  0  0  0  0  0  0  0  0  0
   55.5563   29.7032   43.2929 H   0  0  0  0  0  0  0  0  0  0  0  0
   56.6407   31.9106   42.9015 H   0  0  0  0  0  0  0  0  0  0  0  0
   59.6521   32.9316   44.1744 H   0  0  0  0  0  0  0  0  0  0  0  0
   58.0732   33.6012   43.5754 H   0  0  0  0  0  0  0  0  0  0  0  0
   58.3930   33.4120   46.4470 H   0  0  0  0  0  0  0  0  0  0  0  0
   60.2793   34.8305   44.8118 H   0  0  0  0  0  0  0  0  0  0  0  0
   59.3569   35.8786   45.9566 H   0  0  0  0  0  0  0  0  0  0  0  0
   60.8118   35.2161   47.5551 H   0  0  0  0  0  0  0  0  0  0  0  0
   61.6823   33.0814   45.5357 H   0  0  0  0  0  0  0  0  0  0  0  0
   62.5473   34.5774   46.0047 H   0  0  0  0  0  0  0  0  0  0  0  0
   64.4990   32.7310   46.7270 H   0  0  0  0  0  0  0  0  0  0  0  0
   62.6973   31.5485   50.3240 H   0  0  0  0  0  0  0  0  0  0  0  0
   60.0135   32.2347   49.3630 H   0  0  0  0  0  0  0  0  0  0  0  0
   60.5423   33.9497   49.5180 H   0  0  0  0  0  0  0  0  0  0  0  0
   59.0546   31.3515   46.4528 H   0  0  0  0  0  0  0  0  0  0  0  0
   57.9665   29.1446   46.8462 H   0  0  0  0  0  0  0  0  0  0  0  0
  1  2  1  0
  2  3  1  0
  2  4  1  0
  4  5  1  0
  5  6  2  0
  6  7  1  0
  7  8  2  0
  8  9  1  0
  9 10  1  0
 10 11  1  0
 11 12  1  0
 12 13  1  0
 13 14  1  0
 14 15  1  0
 15 16  2  0
 16 17  1  0
 17 18  2  0
 18 19  1  0
 19 20  1  0
  8 21  1  0
 21 22  2  0
 22  5  1  0
 20 12  1  0
 18 14  1  0
  2 23  1  0
  6 24  1  0
  7 25  1  0
  9 26  1  0
  9 27  1  0
 10 28  1  0
 11 29  1  0
 11 30  1  0
 12 31  1  1
 13 32  1  0
 13 33  1  0
 15 34  1  0
 17 35  1  0
 19 36  1  0
 19 37  1  0
 21 38  1  0
 22 39  1  0
M  CHG  1  15   1
M  END
>  <UniqueID>  (3) 
3

>  <SMILES>  (3) 
FC(F)Oc1ccc(CNC[C@@H]2Cn3[nH+]ncc3CO2)cc1

>  <Energy>  (3) 
82.11274157489972

>  <Genealogy>  (3) 
FC(F)Oc1ccc(CNCC2Cn3[nH+]ncc3CO2)cc1 (protonated)
FC(F)Oc1ccc(CNC[C@@H]2Cn3[nH+]ncc3CO2)cc1 (chirality)
FC(F)Oc1ccc(CNC[C@@H]2Cn3[nH+]ncc3CO2)cc1 (3D coordinates assigned)
FC(F)Oc1ccc(CNC[C@@H]2Cn3[nH+]ncc3CO2)cc1 (nonaromatic ring conformer: 82.11274157489972 kcal/mol)

>  <smiles>  (3) 
FC(F)Oc1ccc(CNCC2Cn3nncc3CO2)cc1

>  <score_type>  (3) 
oracle

>  <origin>  (3) 
adg

>  <m_score__min__energy>  (3) 
-5.5499999999999998

>  <m_primary>  (3) 
energy

$$$$
3:0
     RDKit          3D

 67 69  0  0  0  0  0  0  0  0999 V2000
   61.1590   28.3880   51.0090 C   0  0  0  0  0  0  0  0  0  0  0  0
   62.3390   29.2370   51.4650 C   0  0  0  0  0  0  0  0  0  0  0  0
   62.3840   30.4680   50.7420 O   0  0  0  0  0  0  0  0  0  0  0  0
   63.5370   31.2310   50.4870 C   0  0  0  0  0  0  0  0  0  0  0  0
   64.7630   30.9780   51.1370 C   0  0  0  0  0  0  0  0  0  0  0  0
   65.8820   31.7700   50.8710 C   0  0  0  0  0  0  0  0  0  0  0  0
   65.7950   32.8220   49.9600 C   0  0  0  0  0  0  0  0  0  0  0  0
   64.5900   33.0810   49.3040 C   0  0  0  0  0  0  0  0  0  0  0  0
   63.4590   32.2880   49.5550 C   0  0  0  0  0  0  0  0  0  0  0  0
   62.2320   32.5740   48.8600 N   0  0  0  0  0  0  0  0  0  0  0  0
   61.9980   32.0600   47.5060 C   0  0  0  0  0  0  0  0  0  0  0  0
   61.2710   33.1180   46.6700 C   0  0  0  0  0  0  0  0  0  0  0  0
   60.0570   33.5950   47.3730 N   0  0  0  0  0  0  0  0  0  0  0  0
   59.2160   34.4900   46.5380 C   0  0  0  0  0  0  0  0  0  0  0  0
   57.7600   33.9990   46.2790 C   0  0  2  0  0  0  0  0  0  0  0  0
   57.3470   33.2220   47.3750 O   0  0  0  0  0  0  0  0  0  0  0  0
   57.6730   33.1600   44.9880 C   0  0  0  0  0  0  0  0  0  0  0  0
   57.1710   31.8480   45.2570 O   0  0  0  0  0  0  0  0  0  0  0  0
   57.9300   30.6680   45.3770 C   0  0  0  0  0  0  0  0  0  0  0  0
   58.8380   30.4670   46.4390 C   0  0  0  0  0  0  0  0  0  0  0  0
   59.6050   29.2980   46.5180 C   0  0  0  0  0  0  0  0  0  0  0  0
   60.5240   29.0780   47.6840 C   0  0  0  0  0  0  0  0  0  0  0  0
   59.4550   28.3100   45.5410 C   0  0  0  0  0  0  0  0  0  0  0  0
   58.5630   28.4910   44.4860 C   0  0  0  0  0  0  0  0  0  0  0  0
   57.7790   29.6580   44.3970 C   0  0  0  0  0  0  0  0  0  0  0  0
   56.7960   29.8280   43.2430 C   0  0  0  0  0  0  0  0  0  0  0  0
   55.3520   29.7270   43.7440 C   0  0  0  0  0  0  0  0  0  0  0  0
   57.0300   31.1480   42.4900 C   0  0  0  0  0  0  0  0  0  0  0  0
   60.3970   34.1960   48.6840 C   0  0  0  0  0  0  0  0  0  0  0  0
   61.1060   33.1740   49.5820 C   0  0  0  0  0  0  0  0  0  0  0  0
   60.6230   28.0024   51.8888 H   0  0  0  0  0  0  0  0  0  0  0  0
   60.4764   29.0034   50.4045 H   0  0  0  0  0  0  0  0  0  0  0  0
   61.5255   27.5453   50.4045 H   0  0  0  0  0  0  0  0  0  0  0  0
   62.2354   29.4523   52.5387 H   0  0  0  0  0  0  0  0  0  0  0  0
   63.2691   28.6811   51.2754 H   0  0  0  0  0  0  0  0  0  0  0  0
   64.8382   30.1511   51.8585 H   0  0  0  0  0  0  0  0  0  0  0  0
   66.8343   31.5634   51.3814 H   0  0  0  0  0  0  0  0  0  0  0  0
   66.6764   33.4484   49.7580 H   0  0  0  0  0  0  0  0  0  0  0  0
   64.5264   33.9118   48.5858 H   0  0  0  0  0  0  0  0  0  0  0  0
   62.9624   31.8205   47.0342 H   0  0  0  0  0  0  0  0  0  0  0  0
   61.3789   31.1525   47.5630 H   0  0  0  0  0  0  0  0  0  0  0  0
   61.9464   33.9689   46.4972 H   0  0  0  0  0  0  0  0  0  0  0  0
   60.9720   32.6685   45.7116 H   0  0  0  0  0  0  0  0  0  0  0  0
   59.4600   32.7540   47.5670 H   0  0  0  0  0  0  0  0  0  0  0  0
   59.1592   35.4668   47.0406 H   0  0  0  0  0  0  0  0  0  0  0  0
   59.7015   34.5244   45.5515 H   0  0  0  0  0  0  0  0  0  0  0  0
   57.1056   34.8748   46.1571 H   0  0  0  0  0  0  0  0  0  0  0  0
   57.0180   32.3560   47.0160 H   0  0  0  0  0  0  0  0  0  0  0  0
   57.0003   33.6630   44.2778 H   0  0  0  0  0  0  0  0  0  0  0  0
   58.6839   33.0663   44.5646 H   0  0  0  0  0  0  0  0  0  0  0  0
   58.9445   31.2392   47.2151 H   0  0  0  0  0  0  0  0  0  0  0  0
   59.9649   29.2118   48.6218 H   0  0  0  0  0  0  0  0  0  0  0  0
   60.9312   28.0570   47.6424 H   0  0  0  0  0  0  0  0  0  0  0  0
   61.3494   29.8039   47.6424 H   0  0  0  0  0  0  0  0  0  0  0  0
   60.0448   27.3837   45.6053 H   0  0  0  0  0  0  0  0  0  0  0  0
   58.4699   27.7135   43.7135 H   0  0  0  0  0  0  0  0  0  0  0  0
   56.9716   29.0095   42.5294 H   0  0  0  0  0  0  0  0  0  0  0  0
   55.3447   29.7265   44.8440 H   0  0  0  0  0  0  0  0  0  0  0  0
   54.7745   30.5869   43.3739 H   0  0  0  0  0  0  0  0  0  0  0  0
   54.8998   28.7950   43.3739 H   0  0  0  0  0  0  0  0  0  0  0  0
   57.1745   31.9629   43.2147 H   0  0  0  0  0  0  0  0  0  0  0  0
   57.9258   31.0560   41.8583 H   0  0  0  0  0  0  0  0  0  0  0  0
   56.1571   31.3695   41.8583 H   0  0  0  0  0  0  0  0  0  0  0  0
   61.0610   35.0584   48.5245 H   0  0  0  0  0  0  0  0  0  0  0  0
   59.4676   34.5158   49.1779 H   0  0  0  0  0  0  0  0  0  0  0  0
   61.4790   33.6787   50.4854 H   0  0  0  0  0  0  0  0  0  0  0  0
   60.3944   32.3844   49.8650 H   0  0  0  0  0  0  0  0  0  0  0  0
  1  2  1  0
  2  3  1  0
  3  4  1  0
  4  5  2  0
  5  6  1  0
  6  7  2  0
  7  8  1  0
  8  9  2  0
  9 10  1  0
 10 11  1  0
 11 12  1  0
 12 13  1  0
 13 14  1  0
 14 15  1  0
 15 16  1  0
 15 17  1  0
 17 18  1  0
 18 19  1  0
 19 20  2  0
 20 21  1  0
 21 22  1  0
 21 23  2  0
 23 24  1  0
 24 25  2  0
 25 26  1  0
 26 27  1  0
 26 28  1  0
 13 29  1  0
 29 30  1  0
  9  4  1  0
 30 10  1  0
 25 19  1  0
  1 31  1  0
  1 32  1  0
  1 33  1  0
  2 34  1  0
  2 35  1  0
  5 36  1  0
  6 37  1  0
  7 38  1  0
  8 39  1  0
 11 40  1  0
 11 41  1  0
 12 42  1  0
 12 43  1  0
 13 44  1  0
 14 45  1  0
 14 46  1  0
 15 47  1  6
 16 48  1  0
 17 49  1  0
 17 50  1  0
 20 51  1  0
 22 52  1  0
 22 53  1  0
 22 54  1  0
 23 55  1  0
 24 56  1  0
 26 57  1  0
 27 58  1  0
 27 59  1  0
 27 60  1  0
 28 61  1  0
 28 62  1  0
 28 63  1  0
 29 64  1  0
 29 65  1  0
 30 66  1  0
 30 67  1  0
M  CHG  1  13   1
M  END
>  <UniqueID>  (4) 
4

>  <SMILES>  (4) 
CCOc1ccccc1N1CC[NH+](C[C@H](O)COc2cc(C)ccc2C(C)C)CC1

>  <Energy>  (4) 
73.76686787535694

>  <Genealogy>  (4) 
CCOc1ccccc1N1CC[NH+](CC(O)COc2cc(C)ccc2C(C)C)CC1 (protonated)
CCOc1ccccc1N1CC[NH+](C[C@H](O)COc2cc(C)ccc2C(C)C)CC1 (chirality)
CCOc1ccccc1N1CC[NH+](C[C@H](O)COc2cc(C)ccc2C(C)C)CC1 (3D coordinates assigned)
CCOc1ccccc1N1CC[NH+](C[C@H](O)COc2cc(C)ccc2C(C)C)CC1 (nonaromatic ring conformer: 73.76686787535694 kcal/mol)

>  <smiles>  (4) 
CCOc1ccccc1N1CCN(CC(O)COc2cc(C)ccc2C(C)C)CC1

>  <score_type>  (4) 
oracle

>  <origin>  (4) 
adg

>  <m_score__min__energy>  (4) 
-6.4199999999999999

>  <m_primary>  (4) 
energy

$$$$
4:0
     RDKit          3D

 60 63  0  0  0  0  0  0  0  0999 V2000
   63.3930   31.8490   47.1330 C   0  0  0  0  0  0  0  0  0  0  0  0
   63.8180   33.0800   47.9460 C   0  0  0  0  0  0  0  0  0  0  0  0
   63.6660   32.9670   49.4240 N   0  0  0  0  0  0  0  0  0  0  0  0
   64.7930   32.3130   50.1470 C   0  0  0  0  0  0  0  0  0  0  0  0
   66.1260   33.0760   50.1380 C   0  0  0  0  0  0  0  0  0  0  0  0
   63.0620   34.1460   50.1050 C   0  0  0  0  0  0  0  0  0  0  0  0
   62.1550   33.8270   51.3110 C   0  0  0  0  0  0  0  0  0  0  0  0
   60.8160   33.4440   50.8630 N   0  0  0  0  0  0  0  0  0  0  0  0
   60.6130   32.4870   49.8080 C   0  0  0  0  0  0  0  0  0  0  0  0
   60.7830   31.1150   50.0620 C   0  0  0  0  0  0  0  0  0  0  0  0
   61.1670   30.6550   51.3390 C   0  0  0  0  0  0  0  0  0  0  0  0
   61.3400   29.2940   51.5830 C   0  0  0  0  0  0  0  0  0  0  0  0
   61.1350   28.3720   50.5630 C   0  0  0  0  0  0  0  0  0  0  0  0
   60.7600   28.8050   49.2910 C   0  0  0  0  0  0  0  0  0  0  0  0
   60.5820   30.1830   49.0120 C   0  0  0  0  0  0  0  0  0  0  0  0
   60.2260   30.6220   47.7530 N   0  0  0  0  0  0  0  0  0  0  0  0
   60.5280   29.7520   46.5950 C   0  0  0  0  0  0  0  0  0  0  0  0
   59.8190   31.9310   47.5650 C   0  0  0  0  0  0  0  0  0  0  0  0
   60.1710   32.9040   48.5380 C   0  0  0  0  0  0  0  0  0  0  0  0
   60.1080   34.2700   48.2080 C   0  0  0  0  0  0  0  0  0  0  0  0
   59.5900   34.6850   46.9880 C   0  0  0  0  0  0  0  0  0  0  0  0
   59.0330   33.7560   46.1090 C   0  0  0  0  0  0  0  0  0  0  0  0
   58.3820   34.2000   44.9470 C   0  0  0  0  0  0  0  0  0  0  0  0
   57.7130   33.2950   44.1260 C   0  0  0  0  0  0  0  0  0  0  0  0
   57.6550   31.9470   44.4770 C   0  0  0  0  0  0  0  0  0  0  0  0
   56.7140   30.7980   43.4690 S   0  0  0  0  0  0  0  0  0  0  0  0
   57.2130   29.3470   44.4470 C   0  0  0  0  0  0  0  0  0  0  0  0
   58.3090   31.4930   45.6270 C   0  0  0  0  0  0  0  0  0  0  0  0
   59.0850   32.3700   46.4160 C   0  0  0  0  0  0  0  0  0  0  0  0
   63.1123   31.0359   47.8186 H   0  0  0  0  0  0  0  0  0  0  0  0
   62.5321   32.1077   46.4990 H   0  0  0  0  0  0  0  0  0  0  0  0
   64.2301   31.5215   46.4990 H   0  0  0  0  0  0  0  0  0  0  0  0
   64.8785   33.2769   47.7302 H   0  0  0  0  0  0  0  0  0  0  0  0
   63.1399   33.8894   47.6377 H   0  0  0  0  0  0  0  0  0  0  0  0
   62.9030   32.2500   49.5120 H   0  0  0  0  0  0  0  0  0  0  0  0
   64.4884   32.1783   51.1954 H   0  0  0  0  0  0  0  0  0  0  0  0
   64.9845   31.3712   49.6119 H   0  0  0  0  0  0  0  0  0  0  0  0
   66.4495   33.2612   51.1729 H   0  0  0  0  0  0  0  0  0  0  0  0
   66.8878   32.4772   49.6173 H   0  0  0  0  0  0  0  0  0  0  0  0
   65.9954   34.0361   49.6173 H   0  0  0  0  0  0  0  0  0  0  0  0
   63.8814   34.7890   50.4586 H   0  0  0  0  0  0  0  0  0  0  0  0
   62.4117   34.6245   49.3578 H   0  0  0  0  0  0  0  0  0  0  0  0
   62.5950   32.9979   51.8845 H   0  0  0  0  0  0  0  0  0  0  0  0
   62.0742   34.7254   51.9406 H   0  0  0  0  0  0  0  0  0  0  0  0
   59.9910   33.9710   51.2310 H   0  0  0  0  0  0  0  0  0  0  0  0
   61.3317   31.3785   52.1510 H   0  0  0  0  0  0  0  0  0  0  0  0
   61.6391   28.9489   52.5837 H   0  0  0  0  0  0  0  0  0  0  0  0
   61.2689   27.2980   50.7594 H   0  0  0  0  0  0  0  0  0  0  0  0
   60.6000   28.0656   48.4924 H   0  0  0  0  0  0  0  0  0  0  0  0
   60.8690   28.7696   46.9535 H   0  0  0  0  0  0  0  0  0  0  0  0
   59.6213   29.6253   45.9853 H   0  0  0  0  0  0  0  0  0  0  0  0
   61.3182   30.2143   45.9853 H   0  0  0  0  0  0  0  0  0  0  0  0
   60.4738   35.0192   48.9255 H   0  0  0  0  0  0  0  0  0  0  0  0
   59.6191   35.7499   46.7139 H   0  0  0  0  0  0  0  0  0  0  0  0
   58.4003   35.2678   44.6836 H   0  0  0  0  0  0  0  0  0  0  0  0
   57.2306   33.6439   43.2010 H   0  0  0  0  0  0  0  0  0  0  0  0
   57.1323   29.5817   45.5186 H   0  0  0  0  0  0  0  0  0  0  0  0
   56.5549   28.4990   44.2068 H   0  0  0  0  0  0  0  0  0  0  0  0
   58.2535   29.0831   44.2068 H   0  0  0  0  0  0  0  0  0  0  0  0
   58.2175   30.4370   45.9212 H   0  0  0  0  0  0  0  0  0  0  0  0
  1  2  1  0
  2  3  1  0
  3  4  1  0
  4  5  1  0
  3  6  1  0
  6  7  1  0
  7  8  1  0
  8  9  1  0
  9 10  2  0
 10 11  1  0
 11 12  2  0
 12 13  1  0
 13 14  2  0
 14 15  1  0
 15 16  2  0
 16 17  1  0
 16 18  1  0
 18 19  2  0
 19 20  1  0
 20 21  2  0
 21 22  1  0
 22 23  2  0
 23 24  1  0
 24 25  2  0
 25 26  1  0
 26 27  1  0
 25 28  1  0
 28 29  2  0
 19  9  1  0
 29 22  1  0
 15 10  1  0
 29 18  1  0
  1 30  1  0
  1 31  1  0
  1 32  1  0
  2 33  1  0
  2 34  1  0
  3 35  1  0
  4 36  1  0
  4 37  1  0
  5 38  1  0
  5 39  1  0
  5 40  1  0
  6 41  1  0
  6 42  1  0
  7 43  1  0
  7 44  1  0
  8 45  1  0
 11 46  1  0
 12 47  1  0
 13 48  1  0
 14 49  1  0
 17 50  1  0
 17 51  1  0
 17 52  1  0
 20 53  1  0
 21 54  1  0
 23 55  1  0
 24 56  1  0
 27 57  1  0
 27 58  1  0
 27 59  1  0
 28 60  1  0
M  CHG  2   3   1  16   1
M  END
>  <UniqueID>  (5) 
5

>  <SMILES>  (5) 
CC[NH+](CC)CCNc1c2ccccc2[n+](C)c2c1ccc1ccc(SC)cc12

>  <Energy>  (5) 
111.88234306638108

>  <Genealogy>  (5) 
CC[NH+](CC)CCNc1c2ccccc2[n+](C)c2c1ccc1ccc(SC)cc12 (protonated)
CC[NH+](CC)CCNc1c2ccccc2[n+](C)c2c1ccc1ccc(SC)cc12 (3D coordinates assigned)
CC[NH+](CC)CCNc1c2ccccc2[n+](C)c2c1ccc1ccc(SC)cc12 (optimized conformer: 111.88234306638108 kcal/mol)

>  <smiles>  (5) 
CCN(CC)CCNc1c2ccccc2[n+](C)c2c1ccc1ccc(SC)cc12

>  <score_type>  (5) 
oracle

>  <origin>  (5) 
adg

>  <m_score__min__energy>  (5) 
-5.8399999999999999

>  <m_primary>  (5) 
energy

$$$$
5:0
     RDKit          3D

 41 42  0  0  0  0  0  0  0  0999 V2000
   64.4650   33.0770   49.1090 C   0  0  0  0  0  0  0  0  0  0  0  0
   63.6370   33.6310   47.9520 C   0  0  0  0  0  0  0  0  0  0  0  0
   63.5760   32.6690   46.8430 N   0  0  0  0  0  0  0  0  0  0  0  0
   62.6840   31.5490   47.1770 C   0  0  0  0  0  0  0  0  0  0  0  0
   61.4380   32.0240   47.9450 C   0  0  0  0  0  0  0  0  0  0  0  0
   60.2160   31.8620   47.1440 N   0  0  0  0  0  0  0  0  0  0  0  0
   59.4720   32.8370   46.5510 C   0  0  0  0  0  0  0  0  0  0  0  0
   59.7170   34.3160   46.6820 C   0  0  0  0  0  0  0  0  0  0  0  0
   59.4520   34.7420   47.9730 F   0  0  0  0  0  0  0  0  0  0  0  0
   58.8990   35.0130   45.8160 F   0  0  0  0  0  0  0  0  0  0  0  0
   61.0390   34.5940   46.3890 F   0  0  0  0  0  0  0  0  0  0  0  0
   58.3820   32.2800   45.8860 C   0  0  0  0  0  0  0  0  0  0  0  0
   58.4800   30.9190   46.0830 C   0  0  0  0  0  0  0  0  0  0  0  0
   57.6340   29.8760   45.6840 C   0  0  0  0  0  0  0  0  0  0  0  0
   56.5170   30.1030   44.8750 O   0  0  0  0  0  0  0  0  0  0  0  0
   56.5990   30.1000   43.4540 C   0  0  0  0  0  0  0  0  0  0  0  0
   57.9310   28.5720   46.1410 C   0  0  0  0  0  0  0  0  0  0  0  0
   57.0590   27.4170   45.7390 C   0  0  0  0  0  0  0  0  0  0  0  0
   59.0750   28.3510   46.9480 C   0  0  0  0  0  0  0  0  0  0  0  0
   59.9090   29.4170   47.3170 C   0  0  0  0  0  0  0  0  0  0  0  0
   59.5860   30.6990   46.8630 C   0  0  0  0  0  0  0  0  0  0  0  0
   64.0107   33.3810   50.0636 H   0  0  0  0  0  0  0  0  0  0  0  0
   64.4910   31.9790   49.0485 H   0  0  0  0  0  0  0  0  0  0  0  0
   65.4899   33.4719   49.0485 H   0  0  0  0  0  0  0  0  0  0  0  0
   62.6163   33.8375   48.3061 H   0  0  0  0  0  0  0  0  0  0  0  0
   64.1125   34.5546   47.5903 H   0  0  0  0  0  0  0  0  0  0  0  0
   63.2100   33.1550   45.9900 H   0  0  0  0  0  0  0  0  0  0  0  0
   64.5400   32.3030   46.6570 H   0  0  0  0  0  0  0  0  0  0  0  0
   62.3636   31.0585   46.2460 H   0  0  0  0  0  0  0  0  0  0  0  0
   63.2377   30.8494   47.8204 H   0  0  0  0  0  0  0  0  0  0  0  0
   61.3409   31.4339   48.8682 H   0  0  0  0  0  0  0  0  0  0  0  0
   61.5609   33.0929   48.1740 H   0  0  0  0  0  0  0  0  0  0  0  0
   57.6045   32.8150   45.3210 H   0  0  0  0  0  0  0  0  0  0  0  0
   57.6548   30.0614   43.1477 H   0  0  0  0  0  0  0  0  0  0  0  0
   56.0699   29.2206   43.0580 H   0  0  0  0  0  0  0  0  0  0  0  0
   56.1356   31.0157   43.0580 H   0  0  0  0  0  0  0  0  0  0  0  0
   56.6789   26.9135   46.6401 H   0  0  0  0  0  0  0  0  0  0  0  0
   56.2129   27.7870   45.1412 H   0  0  0  0  0  0  0  0  0  0  0  0
   57.6465   26.7046   45.1412 H   0  0  0  0  0  0  0  0  0  0  0  0
   59.3116   27.3322   47.2888 H   0  0  0  0  0  0  0  0  0  0  0  0
   60.7945   29.2483   47.9475 H   0  0  0  0  0  0  0  0  0  0  0  0
  1  2  1  0
  2  3  1  0
  3  4  1  0
  4  5  1  0
  5  6  1  0
  6  7  1  0
  7  8  1  0
  8  9  1  0
  8 10  1  0
  8 11  1  0
  7 12  2  0
 12 13  1  0
 13 14  2  0
 14 15  1  0
 15 16  1  0
 14 17  1  0
 17 18  1  0
 17 19  2  0
 19 20  1  0
 20 21  2  0
 21  6  1  0
 21 13  1  0
  1 22  1  0
  1 23  1  0
  1 24  1  0
  2 25  1  0
  2 26  1  0
  3 27  1  0
  3 28  1  0
  4 29  1  0
  4 30  1  0
  5 31  1  0
  5 32  1  0
 12 33  1  0
 16 34  1  0
 16 35  1  0
 16 36  1  0
 18 37  1  0
 18 38  1  0
 18 39  1  0
 19 40  1  0
 20 41  1  0
M  CHG  1   3   1
M  END
>  <UniqueID>  (6) 
6

>  <SMILES>  (6) 
CC[NH2+]CCn1c(C(F)(F)F)cc2c(OC)c(C)ccc21

>  <Energy>  (6) 
73.0987754287963

>  <Genealogy>  (6) 
CC[NH2+]CCn1c(C(F)(F)F)cc2c(OC)c(C)ccc21 (protonated)
CC[NH2+]CCn1c(C(F)(F)F)cc2c(OC)c(C)ccc21 (3D coordinates assigned)
CC[NH2+]CCn1c(C(F)(F)F)cc2c(OC)c(C)ccc21 (optimized conformer: 73.0987754287963 kcal/mol)

>  <smiles>  (6) 
CCNCCn1c(C(F)(F)F)cc2c(OC)c(C)ccc21

>  <score_type>  (6) 
oracle

>  <origin>  (6) 
adg

>  <m_score__min__energy>  (6) 
-4.7400000000000002

>  <m_primary>  (6) 
energy

$$$$
6:0
     RDKit          3D

 49 51  0  0  0  0  0  0  0  0999 V2000
   57.9440   27.1610   43.3770 C   0  0  0  0  0  0  0  0  0  0  0  0
   57.7800   28.6060   43.7470 C   0  0  0  0  0  0  0  0  0  0  0  0
   56.7040   29.3470   43.2370 C   0  0  0  0  0  0  0  0  0  0  0  0
   56.5270   30.6810   43.6130 C   0  0  0  0  0  0  0  0  0  0  0  0
   57.4160   31.2870   44.5140 C   0  0  0  0  0  0  0  0  0  0  0  0
   57.1840   32.7080   44.9560 C   0  0  0  0  0  0  0  0  0  0  0  0
   58.3550   33.2050   45.7050 N   0  0  0  0  0  0  0  0  0  0  0  0
   58.7650   34.5370   45.2250 C   0  0  0  0  0  0  0  0  0  0  0  0
   59.9820   35.0880   46.0000 C   0  0  0  0  0  0  0  0  0  0  0  0
   60.5140   34.2030   47.1620 C   0  0  0  0  0  0  0  0  0  0  0  0
   61.6640   33.2950   46.8270 N   0  0  0  0  0  0  0  0  0  0  0  0
   63.0230   33.9010   46.8290 C   0  0  0  0  0  0  0  0  0  0  0  0
   63.7510   33.7860   48.1710 C   0  0  0  0  0  0  0  0  0  0  0  0
   63.8350   32.3290   48.5960 C   0  0  0  0  0  0  0  0  0  0  0  0
   62.4360   31.7450   48.7300 C   0  0  0  0  0  0  0  0  0  0  0  0
   61.6000   31.9360   47.4490 C   0  0  0  0  0  0  0  0  0  0  0  0
   59.3720   33.4690   47.9400 C   0  0  0  0  0  0  0  0  0  0  0  0
   58.0710   33.2800   47.1460 C   0  0  0  0  0  0  0  0  0  0  0  0
   58.4810   30.5390   45.0400 C   0  0  0  0  0  0  0  0  0  0  0  0
   58.6590   29.2050   44.6610 C   0  0  0  0  0  0  0  0  0  0  0  0
   58.0129   26.5538   44.2917 H   0  0  0  0  0  0  0  0  0  0  0  0
   57.0772   26.8337   42.7841 H   0  0  0  0  0  0  0  0  0  0  0  0
   58.8621   27.0362   42.7841 H   0  0  0  0  0  0  0  0  0  0  0  0
   55.9967   28.8762   42.5383 H   0  0  0  0  0  0  0  0  0  0  0  0
   55.6868   31.2590   43.2008 H   0  0  0  0  0  0  0  0  0  0  0  0
   57.0221   33.3420   44.0718 H   0  0  0  0  0  0  0  0  0  0  0  0
   56.2991   32.7417   45.6085 H   0  0  0  0  0  0  0  0  0  0  0  0
   59.0273   34.4641   44.1592 H   0  0  0  0  0  0  0  0  0  0  0  0
   57.9231   35.2269   45.3841 H   0  0  0  0  0  0  0  0  0  0  0  0
   60.8028   35.2268   45.2810 H   0  0  0  0  0  0  0  0  0  0  0  0
   59.6329   36.0173   46.4739 H   0  0  0  0  0  0  0  0  0  0  0  0
   60.9605   34.9359   47.8502 H   0  0  0  0  0  0  0  0  0  0  0  0
   61.5000   33.0780   45.8130 H   0  0  0  0  0  0  0  0  0  0  0  0
   63.6286   33.3961   46.0620 H   0  0  0  0  0  0  0  0  0  0  0  0
   62.8945   34.9745   46.6262 H   0  0  0  0  0  0  0  0  0  0  0  0
   64.7672   34.1948   48.0699 H   0  0  0  0  0  0  0  0  0  0  0  0
   63.1942   34.3518   48.9325 H   0  0  0  0  0  0  0  0  0  0  0  0
   64.3962   31.7606   47.8397 H   0  0  0  0  0  0  0  0  0  0  0  0
   64.3479   32.2648   49.5670 H   0  0  0  0  0  0  0  0  0  0  0  0
   62.5201   30.6687   48.9409 H   0  0  0  0  0  0  0  0  0  0  0  0
   61.9260   32.2746   49.5481 H   0  0  0  0  0  0  0  0  0  0  0  0
   61.9520   31.2070   46.7043 H   0  0  0  0  0  0  0  0  0  0  0  0
   60.5520   31.7950   47.7521 H   0  0  0  0  0  0  0  0  0  0  0  0
   59.7415   32.4753   48.2333 H   0  0  0  0  0  0  0  0  0  0  0  0
   59.1209   34.1091   48.7986 H   0  0  0  0  0  0  0  0  0  0  0  0
   57.5822   32.3486   47.4679 H   0  0  0  0  0  0  0  0  0  0  0  0
   57.4103   34.1390   47.3348 H   0  0  0  0  0  0  0  0  0  0  0  0
   59.1779   31.0040   45.7528 H   0  0  0  0  0  0  0  0  0  0  0  0
   59.4921   28.6228   45.0816 H   0  0  0  0  0  0  0  0  0  0  0  0
  1  2  1  0
  2  3  2  0
  3  4  1  0
  4  5  2  0
  5  6  1  0
  6  7  1  0
  7  8  1  0
  8  9  1  0
  9 10  1  0
 10 11  1  0
 11 12  1  0
 12 13  1  0
 13 14  1  0
 14 15  1  0
 15 16  1  0
 10 17  1  0
 17 18  1  0
  5 19  1  0
 19 20  2  0
 20  2  1  0
 18  7  1  0
 16 11  1  0
  1 21  1  0
  1 22  1  0
  1 23  1  0
  3 24  1  0
  4 25  1  0
  6 26  1  0
  6 27  1  0
  8 28  1  0
  8 29  1  0
  9 30  1  0
  9 31  1  0
 10 32  1  0
 11 33  1  0
 12 34  1  0
 12 35  1  0
 13 36  1  0
 13 37  1  0
 14 38  1  0
 14 39  1  0
 15 40  1  0
 15 41  1  0
 16 42  1  0
 16 43  1  0
 17 44  1  0
 17 45  1  0
 18 46  1  0
 18 47  1  0
 19 48  1  0
 20 49  1  0
M  CHG  1  11   1
M  END
>  <UniqueID>  (7) 
7

>  <SMILES>  (7) 
Cc1ccc(CN2CCC([NH+]3CCCCC3)CC2)cc1

>  <Energy>  (7) 
71.30648349270372

>  <Genealogy>  (7) 
Cc1ccc(CN2CCC([NH+]3CCCCC3)CC2)cc1 (protonated)
Cc1ccc(CN2CCC([NH+]3CCCCC3)CC2)cc1 (3D coordinates assigned)
Cc1ccc(CN2CCC([NH+]3CCCCC3)CC2)cc1 (nonaromatic ring conformer: 71.30648349270372 kcal/mol)

>  <smiles>  (7) 
Cc1ccc(CN2CCC(N3CCCCC3)CC2)cc1

>  <score_type>  (7) 
oracle

>  <origin>  (7) 
adg

>  <m_score__min__energy>  (7) 
-6.6100000000000003

>  <m_primary>  (7) 
energy

$$$$
7:0
     RDKit          3D

 39 41  0  0  0  0  0  0  0  0999 V2000
   59.5220   35.5050   45.8130 C   0  0  0  0  0  0  0  0  0  0  0  0
   59.5320   34.2180   44.9920 C   0  0  0  0  0  0  0  0  0  0  0  0
   59.5870   33.0270   45.8770 N   0  0  0  0  0  0  0  0  0  0  0  0
   58.5230   32.1390   45.9040 C   0  0  0  0  0  0  0  0  0  0  0  0
   57.3150   32.2670   44.9870 C   0  0  0  0  0  0  0  0  0  0  0  0
   56.6270   30.9760   44.8090 N   0  0  0  0  0  0  0  0  0  0  0  0
   57.3060   30.0940   43.8480 C   0  0  0  0  0  0  0  0  0  0  0  0
   57.4210   28.7080   44.4090 C   0  0  0  0  0  0  0  0  0  0  0  0
   58.1440   27.6710   43.8550 C   0  0  0  0  0  0  0  0  0  0  0  0
   57.9410   26.5930   44.6910 C   0  0  0  0  0  0  0  0  0  0  0  0
   57.1220   27.0430   45.7060 C   0  0  0  0  0  0  0  0  0  0  0  0
   56.8320   28.3100   45.5120 O   0  0  0  0  0  0  0  0  0  0  0  0
   58.5550   31.0200   46.7450 C   0  0  0  0  0  0  0  0  0  0  0  0
   59.6540   30.7740   47.5490 C   0  0  0  0  0  0  0  0  0  0  0  0
   59.6620   29.7440   48.2780 O   0  0  0  0  0  0  0  0  0  0  0  0
   60.7330   31.6620   47.5420 C   0  0  0  0  0  0  0  0  0  0  0  0
   61.8570   31.4250   48.3590 C   0  0  0  0  0  0  0  0  0  0  0  0
   62.9240   32.3200   48.3730 C   0  0  0  0  0  0  0  0  0  0  0  0
   64.3150   32.0130   49.3970 Cl  0  0  0  0  0  0  0  0  0  0  0  0
   62.8810   33.4640   47.5840 C   0  0  0  0  0  0  0  0  0  0  0  0
   61.7800   33.7160   46.7650 C   0  0  0  0  0  0  0  0  0  0  0  0
   60.6830   32.8150   46.7080 C   0  0  0  0  0  0  0  0  0  0  0  0
   59.5239   35.2564   46.8845 H   0  0  0  0  0  0  0  0  0  0  0  0
   60.4155   36.1000   45.5730 H   0  0  0  0  0  0  0  0  0  0  0  0
   58.6193   36.0860   45.5730 H   0  0  0  0  0  0  0  0  0  0  0  0
   58.6174   34.1722   44.3825 H   0  0  0  0  0  0  0  0  0  0  0  0
   60.4231   34.2188   44.3470 H   0  0  0  0  0  0  0  0  0  0  0  0
   56.6101   32.9893   45.4246 H   0  0  0  0  0  0  0  0  0  0  0  0
   57.6667   32.6070   44.0018 H   0  0  0  0  0  0  0  0  0  0  0  0
   56.6320   30.4960   45.7390 H   0  0  0  0  0  0  0  0  0  0  0  0
   56.7270   30.0608   42.9133 H   0  0  0  0  0  0  0  0  0  0  0  0
   58.3146   30.4864   43.6512 H   0  0  0  0  0  0  0  0  0  0  0  0
   58.7536   27.6985   42.9397 H   0  0  0  0  0  0  0  0  0  0  0  0
   58.3498   25.5787   44.5724 H   0  0  0  0  0  0  0  0  0  0  0  0
   56.7658   26.4337   46.5497 H   0  0  0  0  0  0  0  0  0  0  0  0
   57.6986   30.3301   46.7668 H   0  0  0  0  0  0  0  0  0  0  0  0
   61.8917   30.5253   48.9910 H   0  0  0  0  0  0  0  0  0  0  0  0
   63.7202   34.1748   47.6056 H   0  0  0  0  0  0  0  0  0  0  0  0
   61.7609   34.6292   46.1520 H   0  0  0  0  0  0  0  0  0  0  0  0
  1  2  1  0
  2  3  1  0
  3  4  1  0
  4  5  1  0
  5  6  1  0
  6  7  1  0
  7  8  1  0
  8  9  2  0
  9 10  1  0
 10 11  2  0
 11 12  1  0
  4 13  2  0
 13 14  1  0
 14 15  2  0
 14 16  1  0
 16 17  2  0
 17 18  1  0
 18 19  1  0
 18 20  2  0
 20 21  1  0
 21 22  2  0
 22  3  1  0
 12  8  1  0
 22 16  1  0
  1 23  1  0
  1 24  1  0
  1 25  1  0
  2 26  1  0
  2 27  1  0
  5 28  1  0
  5 29  1  0
  6 30  1  0
  7 31  1  0
  7 32  1  0
  9 33  1  0
 10 34  1  0
 11 35  1  0
 13 36  1  0
 17 37  1  0
 20 38  1  0
 21 39  1  0
M  END
>  <UniqueID>  (8) 
8

>  <SMILES>  (8) 
CCn1c(CNCc2ccco2)cc(=O)c2cc(Cl)ccc21

>  <Energy>  (8) 
75.39160404454252

>  <Genealogy>  (8) 
CCn1c(CNCc2ccco2)cc(=O)c2cc(Cl)ccc21 (3D coordinates assigned)
CCn1c(CNCc2ccco2)cc(=O)c2cc(Cl)ccc21 (optimized conformer: 75.39160404454252 kcal/mol)

>  <smiles>  (8) 
CCn1c(CNCc2ccco2)cc(=O)c2cc(Cl)ccc21

>  <score_type>  (8) 
oracle

>  <origin>  (8) 
adg

>  <m_score__min__energy>  (8) 
-7.2400000000000002

>  <m_primary>  (8) 
energy

$$$$
8:0
     RDKit          3D

 70 73  0  0  0  0  0  0  0  0999 V2000
   57.8340   32.1180   51.1790 C   0  0  0  0  0  0  0  0  0  0  0  0
   58.5170   31.1870   50.1830 C   0  0  0  0  0  0  0  0  0  0  0  0
   58.6050   29.8150   50.7260 N   0  0  0  0  0  0  0  0  0  0  0  0
   57.8170   29.6540   51.9610 C   0  0  0  0  0  0  0  0  0  0  0  0
   60.0030   29.3560   50.8920 C   0  0  0  0  0  0  0  0  0  0  0  0
   60.6140   28.7320   49.6200 C   0  0  0  0  0  0  0  0  0  0  0  0
   60.6810   29.7320   48.5480 N   0  0  0  0  0  0  0  0  0  0  0  0
   61.4700   30.8450   48.4960 C   0  0  0  0  0  0  0  0  0  0  0  0
   62.4910   31.2190   49.5310 C   0  0  0  0  0  0  0  0  0  0  0  0
   62.8860   32.6200   49.3490 N   0  0  0  0  0  0  0  0  0  0  0  0
   61.9370   33.5640   49.9630 C   0  0  0  0  0  0  0  0  0  0  0  0
   61.2040   34.4680   48.9520 C   0  0  0  0  0  0  0  0  0  0  0  0
   59.6710   34.2700   48.9720 C   0  0  0  0  0  0  0  0  0  0  0  0
   59.0370   34.3050   47.6350 N   0  0  0  0  0  0  0  0  0  0  0  0
   58.1120   33.1840   47.3850 C   0  0  0  0  0  0  0  0  0  0  0  0
   57.2030   33.5050   46.1840 C   0  0  0  0  0  0  0  0  0  0  0  0
   57.8670   34.4650   45.1800 C   0  0  0  0  0  0  0  0  0  0  0  0
   59.3840   34.2690   45.1450 C   0  0  0  0  0  0  0  0  0  0  0  0
   60.0130   34.4960   46.5360 C   0  0  0  0  0  0  0  0  0  0  0  0
   61.2190   31.6100   47.4060 N   0  0  0  0  0  0  0  0  0  0  0  0
   60.2440   30.9480   46.7690 C   0  0  0  0  0  0  0  0  0  0  0  0
   59.6330   31.3170   45.6290 N   0  0  0  0  0  0  0  0  0  0  0  0
   58.6390   30.5270   45.1250 C   0  0  0  0  0  0  0  0  0  0  0  0
   58.0270   30.9360   43.9390 C   0  0  0  0  0  0  0  0  0  0  0  0
   57.0120   30.1730   43.3880 C   0  0  0  0  0  0  0  0  0  0  0  0
   56.6090   29.0070   44.0180 C   0  0  0  0  0  0  0  0  0  0  0  0
   57.2230   28.5910   45.2140 C   0  0  0  0  0  0  0  0  0  0  0  0
   56.7060   27.3080   45.8260 C   0  0  0  0  0  0  0  0  0  0  0  0
   58.2460   29.3520   45.7740 N   0  0  0  0  0  0  0  0  0  0  0  0
   58.8970   28.9960   46.9520 C   0  0  0  0  0  0  0  0  0  0  0  0
   58.6060   27.9500   47.5890 O   0  0  0  0  0  0  0  0  0  0  0  0
   59.9100   29.8260   47.4390 C   0  0  0  0  0  0  0  0  0  0  0  0
   58.0705   31.7957   52.2038 H   0  0  0  0  0  0  0  0  0  0  0  0
   58.1936   33.1462   51.0258 H   0  0  0  0  0  0  0  0  0  0  0  0
   56.7453   32.0837   51.0258 H   0  0  0  0  0  0  0  0  0  0  0  0
   57.9365   31.1691   49.2488 H   0  0  0  0  0  0  0  0  0  0  0  0
   59.5349   31.5580   49.9927 H   0  0  0  0  0  0  0  0  0  0  0  0
   58.4724   29.7879   52.8342 H   0  0  0  0  0  0  0  0  0  0  0  0
   57.0154   30.4069   51.9853 H   0  0  0  0  0  0  0  0  0  0  0  0
   57.3750   28.6470   51.9853 H   0  0  0  0  0  0  0  0  0  0  0  0
   60.6184   30.2199   51.1833 H   0  0  0  0  0  0  0  0  0  0  0  0
   59.9900   28.5673   51.6587 H   0  0  0  0  0  0  0  0  0  0  0  0
   61.6285   28.3704   49.8437 H   0  0  0  0  0  0  0  0  0  0  0  0
   59.9813   27.8944   49.2911 H   0  0  0  0  0  0  0  0  0  0  0  0
   62.0601   31.0876   50.5345 H   0  0  0  0  0  0  0  0  0  0  0  0
   63.3748   30.5732   49.4222 H   0  0  0  0  0  0  0  0  0  0  0  0
   63.8470   32.7680   49.7340 H   0  0  0  0  0  0  0  0  0  0  0  0
   61.1840   32.9849   50.5176 H   0  0  0  0  0  0  0  0  0  0  0  0
   62.5262   34.2280   50.6126 H   0  0  0  0  0  0  0  0  0  0  0  0
   61.4258   35.5178   49.1941 H   0  0  0  0  0  0  0  0  0  0  0  0
   61.5596   34.1967   47.9470 H   0  0  0  0  0  0  0  0  0  0  0  0
   59.4553   33.2937   49.4306 H   0  0  0  0  0  0  0  0  0  0  0  0
   59.2512   35.1113   49.5429 H   0  0  0  0  0  0  0  0  0  0  0  0
   58.6923   32.2748   47.1692 H   0  0  0  0  0  0  0  0  0  0  0  0
   57.4877   33.0269   48.2769 H   0  0  0  0  0  0  0  0  0  0  0  0
   56.9593   32.5660   45.6655 H   0  0  0  0  0  0  0  0  0  0  0  0
   56.3003   33.9999   46.5717 H   0  0  0  0  0  0  0  0  0  0  0  0
   57.4576   34.2742   44.1770 H   0  0  0  0  0  0  0  0  0  0  0  0
   57.6571   35.4977   45.4955 H   0  0  0  0  0  0  0  0  0  0  0  0
   59.6049   33.2431   44.8154 H   0  0  0  0  0  0  0  0  0  0  0  0
   59.8121   35.0037   44.4472 H   0  0  0  0  0  0  0  0  0  0  0  0
   60.8402   33.7835   46.6703 H   0  0  0  0  0  0  0  0  0  0  0  0
   60.3668   35.5367   46.5785 H   0  0  0  0  0  0  0  0  0  0  0  0
   61.6680   32.5120   47.1300 H   0  0  0  0  0  0  0  0  0  0  0  0
   58.3507   31.8630   43.4431 H   0  0  0  0  0  0  0  0  0  0  0  0
   56.5272   30.4914   42.4533 H   0  0  0  0  0  0  0  0  0  0  0  0
   55.8022   28.4011   43.5797 H   0  0  0  0  0  0  0  0  0  0  0  0
   56.7375   27.3862   46.9228 H   0  0  0  0  0  0  0  0  0  0  0  0
   55.6692   27.1381   45.5002 H   0  0  0  0  0  0  0  0  0  0  0  0
   57.3353   26.4667   45.5002 H   0  0  0  0  0  0  0  0  0  0  0  0
  1  2  1  0
  2  3  1  0
  3  4  1  0
  3  5  1  0
  5  6  1  0
  6  7  1  0
  7  8  1  0
  8  9  1  0
  9 10  1  0
 10 11  1  0
 11 12  1  0
 12 13  1  0
 13 14  1  0
 14 15  1  0
 15 16  1  0
 16 17  1  0
 17 18  1  0
 18 19  1  0
  8 20  2  0
 20 21  1  0
 21 22  1  0
 22 23  2  0
 23 24  1  0
 24 25  2  0
 25 26  1  0
 26 27  2  0
 27 28  1  0
 27 29  1  0
 29 30  1  0
 30 31  2  0
 30 32  1  0
 32  7  1  0
 19 14  1  0
 32 21  2  0
 29 23  1  0
  1 33  1  0
  1 34  1  0
  1 35  1  0
  2 36  1  0
  2 37  1  0
  4 38  1  0
  4 39  1  0
  4 40  1  0
  5 41  1  0
  5 42  1  0
  6 43  1  0
  6 44  1  0
  9 45  1  0
  9 46  1  0
 10 47  1  0
 11 48  1  0
 11 49  1  0
 12 50  1  0
 12 51  1  0
 13 52  1  0
 13 53  1  0
 15 54  1  0
 15 55  1  0
 16 56  1  0
 16 57  1  0
 17 58  1  0
 17 59  1  0
 18 60  1  0
 18 61  1  0
 19 62  1  0
 19 63  1  0
 20 64  1  0
 24 65  1  0
 25 66  1  0
 26 67  1  0
 28 68  1  0
 28 69  1  0
 28 70  1  0
M  CHG  1  20   1
M  END
>  <UniqueID>  (9) 
9

>  <SMILES>  (9) 
CCN(C)CCn1c(CNCCCN2CCCCC2)[nH+]c2nc3cccc(C)n3c(=O)c21

>  <Energy>  (9) 
128.78591487929788

>  <Genealogy>  (9) 
CCN(C)CCn1c(CNCCCN2CCCCC2)[nH+]c2nc3cccc(C)n3c(=O)c21 (protonated)
CCN(C)CCn1c(CNCCCN2CCCCC2)[nH+]c2nc3cccc(C)n3c(=O)c21 (3D coordinates assigned)
CCN(C)CCn1c(CNCCCN2CCCCC2)[nH+]c2nc3cccc(C)n3c(=O)c21 (nonaromatic ring conformer: 128.78591487929788 kcal/mol)

>  <smiles>  (9) 
CCN(C)CCn1c(CNCCCN2CCCCC2)nc2nc3cccc(C)n3c(=O)c21

>  <score_type>  (9) 
oracle

>  <origin>  (9) 
adg

>  <m_score__min__energy>  (9) 
-6.2199999999999998

>  <m_primary>  (9) 
energy

$$$$
9:0
     RDKit          3D

 55 57  0  0  0  0  0  0  0  0999 V2000
   64.5140   32.9030   49.3800 C   0  0  0  0  0  0  0  0  0  0  0  0
   63.4010   31.8520   49.2340 C   0  0  0  0  0  0  0  0  0  0  0  0
   62.4310   32.1390   48.1500 N   0  0  0  0  0  0  0  0  0  0  0  0
   61.8890   30.9160   47.5200 C   0  0  0  0  0  0  0  0  0  0  0  0
   61.0760   30.1050   48.5280 C   0  0  0  0  0  0  0  0  0  0  0  0
   62.9350   33.1290   47.1700 C   0  0  0  0  0  0  0  0  0  0  0  0
   61.7730   33.7590   46.3980 C   0  0  0  0  0  0  0  0  0  0  0  0
   60.6900   34.6500   47.5000 S   0  0  0  0  0  0  0  0  0  0  0  0
   59.6170   35.6470   46.6790 O   0  0  0  0  0  0  0  0  0  0  0  0
   59.8670   33.6000   48.6490 C   0  0  0  0  0  0  0  0  0  0  0  0
   60.2030   33.6910   50.0030 C   0  0  0  0  0  0  0  0  0  0  0  0
   59.5310   32.9200   50.9520 C   0  0  0  0  0  0  0  0  0  0  0  0
   58.4990   32.0520   50.5620 C   0  0  0  0  0  0  0  0  0  0  0  0
   57.7860   31.2340   51.5740 C   0  0  0  0  0  0  0  0  0  0  0  0
   56.4970   31.6070   51.9960 C   0  0  0  0  0  0  0  0  0  0  0  0
   55.8180   30.8490   52.9540 C   0  0  0  0  0  0  0  0  0  0  0  0
   56.4150   29.7090   53.4980 C   0  0  0  0  0  0  0  0  0  0  0  0
   55.7530   28.9740   54.4250 F   0  0  0  0  0  0  0  0  0  0  0  0
   57.6920   29.3250   53.0820 C   0  0  0  0  0  0  0  0  0  0  0  0
   58.3780   30.0790   52.1250 C   0  0  0  0  0  0  0  0  0  0  0  0
   59.6020   29.6600   51.7120 F   0  0  0  0  0  0  0  0  0  0  0  0
   58.1640   31.9560   49.2010 C   0  0  0  0  0  0  0  0  0  0  0  0
   58.8440   32.7190   48.2370 C   0  0  0  0  0  0  0  0  0  0  0  0
   58.4560   32.5870   46.8150 C   0  0  0  0  0  0  0  0  0  0  0  0
   57.7480   33.6140   46.1680 C   0  0  0  0  0  0  0  0  0  0  0  0
   57.3840   33.4800   44.8240 C   0  0  0  0  0  0  0  0  0  0  0  0
   57.7280   32.3250   44.1170 C   0  0  0  0  0  0  0  0  0  0  0  0
   58.4430   31.3040   44.7510 C   0  0  0  0  0  0  0  0  0  0  0  0
   58.8120   31.4340   46.0940 C   0  0  0  0  0  0  0  0  0  0  0  0
   64.7078   33.0860   50.4472 H   0  0  0  0  0  0  0  0  0  0  0  0
   65.4318   32.5344   48.8986 H   0  0  0  0  0  0  0  0  0  0  0  0
   64.1985   33.8404   48.8986 H   0  0  0  0  0  0  0  0  0  0  0  0
   63.8706   30.8789   49.0277 H   0  0  0  0  0  0  0  0  0  0  0  0
   62.8332   31.8607   50.1761 H   0  0  0  0  0  0  0  0  0  0  0  0
   61.2406   31.2003   46.6782 H   0  0  0  0  0  0  0  0  0  0  0  0
   62.7277   30.2997   47.1640 H   0  0  0  0  0  0  0  0  0  0  0  0
   61.3653   30.3936   49.5493 H   0  0  0  0  0  0  0  0  0  0  0  0
   60.0044   30.3047   48.3802 H   0  0  0  0  0  0  0  0  0  0  0  0
   61.2730   29.0329   48.3802 H   0  0  0  0  0  0  0  0  0  0  0  0
   63.4854   33.9182   47.7032 H   0  0  0  0  0  0  0  0  0  0  0  0
   63.5995   32.6179   46.4578 H   0  0  0  0  0  0  0  0  0  0  0  0
   62.1744   34.4546   45.6463 H   0  0  0  0  0  0  0  0  0  0  0  0
   61.1983   32.9580   45.9100 H   0  0  0  0  0  0  0  0  0  0  0  0
   59.5270   36.4490   47.2510 H   0  0  0  0  0  0  0  0  0  0  0  0
   61.0028   34.3753   50.3224 H   0  0  0  0  0  0  0  0  0  0  0  0
   59.8118   32.9928   52.0131 H   0  0  0  0  0  0  0  0  0  0  0  0
   56.0201   32.5015   51.5690 H   0  0  0  0  0  0  0  0  0  0  0  0
   54.8117   31.1505   53.2803 H   0  0  0  0  0  0  0  0  0  0  0  0
   58.1598   28.4257   53.5091 H   0  0  0  0  0  0  0  0  0  0  0  0
   57.3594   31.2751   48.8863 H   0  0  0  0  0  0  0  0  0  0  0  0
   57.4791   34.5265   46.7203 H   0  0  0  0  0  0  0  0  0  0  0  0
   56.8262   34.2850   44.3231 H   0  0  0  0  0  0  0  0  0  0  0  0
   57.4364   32.2188   43.0617 H   0  0  0  0  0  0  0  0  0  0  0  0
   58.7159   30.3966   44.1923 H   0  0  0  0  0  0  0  0  0  0  0  0
   59.3818   30.6325   46.5868 H   0  0  0  0  0  0  0  0  0  0  0  0
  1  2  1  0
  2  3  1  0
  3  4  1  0
  4  5  1  0
  3  6  1  0
  6  7  1  0
  7  8  1  0
  8  9  1  6
  8 10  1  0
 10 11  2  0
 11 12  1  0
 12 13  2  0
 13 14  1  0
 14 15  2  0
 15 16  1  0
 16 17  2  0
 17 18  1  0
 17 19  1  0
 19 20  2  0
 20 21  1  0
 13 22  1  0
 22 23  2  0
 23 24  1  0
 24 25  2  0
 25 26  1  0
 26 27  2  0
 27 28  1  0
 28 29  2  0
 23 10  1  0
 29 24  1  0
 20 14  1  0
  1 30  1  0
  1 31  1  0
  1 32  1  0
  2 33  1  0
  2 34  1  0
  4 35  1  0
  4 36  1  0
  5 37  1  0
  5 38  1  0
  5 39  1  0
  6 40  1  0
  6 41  1  0
  7 42  1  0
  7 43  1  0
  9 44  1  0
 11 45  1  0
 12 46  1  0
 15 47  1  0
 16 48  1  0
 19 49  1  0
 22 50  1  0
 25 51  1  0
 26 52  1  0
 27 53  1  0
 28 54  1  0
 29 55  1  0
M  CHG  1   8   1
M  END
>  <UniqueID>  (10) 
10

>  <SMILES>  (10) 
CCN(CC)CC[S@@+](O)c1ccc(-c2ccc(F)cc2F)cc1-c1ccccc1

>  <Energy>  (10) 
64.43999800858454

>  <Genealogy>  (10) 
CCN(CC)CC[S+](O)c1ccc(-c2ccc(F)cc2F)cc1-c1ccccc1 (protonated)
CCN(CC)CC[S@@+](O)c1ccc(-c2ccc(F)cc2F)cc1-c1ccccc1 (chirality)
CCN(CC)CC[S@@+](O)c1ccc(-c2ccc(F)cc2F)cc1-c1ccccc1 (3D coordinates assigned)
CCN(CC)CC[S@@+](O)c1ccc(-c2ccc(F)cc2F)cc1-c1ccccc1 (optimized conformer: 64.43999800858454 kcal/mol)

>  <smiles>  (10) 
CCN(CC)CC[S+]([O-])c1ccc(-c2ccc(F)cc2F)cc1-c1ccccc1

>  <score_type>  (10) 
oracle

>  <origin>  (10) 
adg

>  <m_score__min__energy>  (10) 
-6.1100000000000003

>  <m_primary>  (10) 
energy

$$$$
10:0
     RDKit          3D

 40 41  0  0  0  0  0  0  0  0999 V2000
   60.5450   26.9870   46.3820 C   0  0  0  0  0  0  0  0  0  0  0  0
   59.7960   27.7980   45.3330 C   0  0  0  0  0  0  0  0  0  0  0  0
   58.4430   28.1190   45.8010 N   0  0  0  0  0  0  0  0  0  0  0  0
   57.8010   27.2940   46.8300 C   0  0  0  0  0  0  0  0  0  0  0  0
   56.9220   26.2240   46.1940 C   0  0  0  0  0  0  0  0  0  0  0  0
   55.6190   26.7080   46.0290 O   0  0  0  0  0  0  0  0  0  0  0  0
   57.7080   29.1950   45.1890 C   0  0  0  0  0  0  0  0  0  0  0  0
   56.5820   28.9160   44.4800 N   0  0  0  0  0  0  0  0  0  0  0  0
   55.8670   29.9040   43.8850 C   0  0  0  0  0  0  0  0  0  0  0  0
   56.2660   31.1970   43.9930 N   0  0  0  0  0  0  0  0  0  0  0  0
   57.3780   31.5370   44.6900 C   0  0  0  0  0  0  0  0  0  0  0  0
   57.7570   32.9860   44.7890 C   0  0  0  0  0  0  0  0  0  0  0  0
   58.1290   30.5300   45.3240 C   0  0  0  0  0  0  0  0  0  0  0  0
   59.2760   30.8590   46.1390 C   0  0  0  0  0  0  0  0  0  0  0  0
   60.2410   31.1370   46.8060 C   0  0  0  0  0  0  0  0  0  0  0  0
   61.3940   31.4770   47.5960 C   0  0  0  0  0  0  0  0  0  0  0  0
   62.2970   32.4460   47.1480 C   0  0  0  0  0  0  0  0  0  0  0  0
   63.4110   32.7690   47.9260 C   0  0  0  0  0  0  0  0  0  0  0  0
   63.6040   32.1150   49.1460 C   0  0  0  0  0  0  0  0  0  0  0  0
   65.1150   32.5370   50.2310 Br  0  0  0  0  0  0  0  0  0  0  0  0
   62.7140   31.1770   49.5630 N   0  0  0  0  0  0  0  0  0  0  0  0
   61.6220   30.8460   48.8230 C   0  0  0  0  0  0  0  0  0  0  0  0
   60.2407   27.3165   47.3864 H   0  0  0  0  0  0  0  0  0  0  0  0
   60.3079   25.9200   46.2587 H   0  0  0  0  0  0  0  0  0  0  0  0
   61.6275   27.1387   46.2587 H   0  0  0  0  0  0  0  0  0  0  0  0
   60.3432   28.7324   45.1392 H   0  0  0  0  0  0  0  0  0  0  0  0
   59.7216   27.2037   44.4103 H   0  0  0  0  0  0  0  0  0  0  0  0
   58.5774   26.8080   47.4390 H   0  0  0  0  0  0  0  0  0  0  0  0
   57.1710   27.9406   47.4584 H   0  0  0  0  0  0  0  0  0  0  0  0
   57.3354   25.9498   45.2122 H   0  0  0  0  0  0  0  0  0  0  0  0
   56.8980   25.3411   46.8496 H   0  0  0  0  0  0  0  0  0  0  0  0
   55.0910   26.3420   46.7820 H   0  0  0  0  0  0  0  0  0  0  0  0
   56.2650   27.9250   44.3770 H   0  0  0  0  0  0  0  0  0  0  0  0
   54.9607   29.6562   43.3130 H   0  0  0  0  0  0  0  0  0  0  0  0
   57.8323   33.2738   45.8480 H   0  0  0  0  0  0  0  0  0  0  0  0
   58.7272   33.1458   44.2958 H   0  0  0  0  0  0  0  0  0  0  0  0
   56.9893   33.6003   44.2958 H   0  0  0  0  0  0  0  0  0  0  0  0
   62.1305   32.9524   46.1858 H   0  0  0  0  0  0  0  0  0  0  0  0
   64.1281   33.5292   47.5826 H   0  0  0  0  0  0  0  0  0  0  0  0
   60.9192   30.0831   49.1891 H   0  0  0  0  0  0  0  0  0  0  0  0
  1  2  1  0
  2  3  1  0
  3  4  1  0
  4  5  1  0
  5  6  1  0
  3  7  1  0
  7  8  2  0
  8  9  1  0
  9 10  2  0
 10 11  1  0
 11 12  1  0
 11 13  2  0
 13 14  1  0
 14 15  3  0
 15 16  1  0
 16 17  2  0
 17 18  1  0
 18 19  2  0
 19 20  1  0
 19 21  1  0
 21 22  2  0
 13  7  1  0
 22 16  1  0
  1 23  1  0
  1 24  1  0
  1 25  1  0
  2 26  1  0
  2 27  1  0
  4 28  1  0
  4 29  1  0
  5 30  1  0
  5 31  1  0
  6 32  1  0
  8 33  1  0
  9 34  1  0
 12 35  1  0
 12 36  1  0
 12 37  1  0
 17 38  1  0
 18 39  1  0
 22 40  1  0
M  CHG  1   8   1
M  END
>  <UniqueID>  (11) 
11

>  <SMILES>  (11) 
CCN(CCO)c1[nH+]cnc(C)c1C#Cc1ccc(Br)nc1

>  <Energy>  (11) 
34.66508831075036

>  <Genealogy>  (11) 
CCN(CCO)c1[nH+]cnc(C)c1C#Cc1ccc(Br)nc1 (protonated)
CCN(CCO)c1[nH+]cnc(C)c1C#Cc1ccc(Br)nc1 (3D coordinates assigned)
CCN(CCO)c1[nH+]cnc(C)c1C#Cc1ccc(Br)nc1 (optimized conformer: 34.66508831075036 kcal/mol)

>  <smiles>  (11) 
CCN(CCO)c1ncnc(C)c1C#Cc1ccc(Br)nc1

>  <score_type>  (11) 
oracle

>  <origin>  (11) 
adg

>  <m_score__min__energy>  (11) 
-5.71

>  <m_primary>  (11) 
energy

$$$$
11:0
     RDKit          3D

 46 48  0  0  0  0  0  0  0  0999 V2000
   63.3760   34.1400   46.3760 C   0  0  0  0  0  0  0  0  0  0  0  0
   63.7670   32.7130   46.7530 C   0  0  0  0  0  0  0  0  0  0  0  0
   64.0420   32.6260   48.1920 N   0  0  0  0  0  0  0  0  0  0  0  0
   63.3980   33.7110   48.9490 C   0  0  0  0  0  0  0  0  0  0  0  0
   62.0850   33.2120   49.5520 C   0  0  0  0  0  0  0  0  0  0  0  0
   61.2780   32.5470   48.5280 N   0  0  0  0  0  0  0  0  0  0  0  0
   61.2110   31.2090   48.3320 C   0  0  0  0  0  0  0  0  0  0  0  0
   60.2450   30.9040   47.3780 C   0  0  0  0  0  0  0  0  0  0  0  0
   59.8590   29.5460   46.9400 C   0  0  0  0  0  0  0  0  0  0  0  0
   59.8620   29.2010   45.5770 C   0  0  0  0  0  0  0  0  0  0  0  0
   59.4790   27.9200   45.1730 C   0  0  0  0  0  0  0  0  0  0  0  0
   59.0920   26.9630   46.1220 C   0  0  0  0  0  0  0  0  0  0  0  0
   58.6440   25.6000   45.6830 C   0  0  0  0  0  0  0  0  0  0  0  0
   59.0550   27.3160   47.4790 C   0  0  0  0  0  0  0  0  0  0  0  0
   59.4360   28.5990   47.8850 C   0  0  0  0  0  0  0  0  0  0  0  0
   59.7140   32.1220   46.9810 C   0  0  0  0  0  0  0  0  0  0  0  0
   58.7370   32.4390   46.0340 C   0  0  0  0  0  0  0  0  0  0  0  0
   58.4010   33.7970   45.8500 C   0  0  0  0  0  0  0  0  0  0  0  0
   57.3230   34.1770   44.8790 C   0  0  0  0  0  0  0  0  0  0  0  0
   59.0360   34.7920   46.6310 C   0  0  0  0  0  0  0  0  0  0  0  0
   60.0310   34.4480   47.5600 C   0  0  0  0  0  0  0  0  0  0  0  0
   60.3570   33.0960   47.7070 C   0  0  0  0  0  0  0  0  0  0  0  0
   63.2144   34.7296   47.2904 H   0  0  0  0  0  0  0  0  0  0  0  0
   64.1822   34.5965   45.7830 H   0  0  0  0  0  0  0  0  0  0  0  0
   62.4497   34.1219   45.7830 H   0  0  0  0  0  0  0  0  0  0  0  0
   62.9421   32.0311   46.4989 H   0  0  0  0  0  0  0  0  0  0  0  0
   64.6730   32.4303   46.1968 H   0  0  0  0  0  0  0  0  0  0  0  0
   65.0760   32.6960   48.3370 H   0  0  0  0  0  0  0  0  0  0  0  0
   64.0685   34.0413   49.7561 H   0  0  0  0  0  0  0  0  0  0  0  0
   63.1905   34.5530   48.2723 H   0  0  0  0  0  0  0  0  0  0  0  0
   62.3044   32.4995   50.3608 H   0  0  0  0  0  0  0  0  0  0  0  0
   61.5237   34.0706   49.9492 H   0  0  0  0  0  0  0  0  0  0  0  0
   61.8331   30.4669   48.8539 H   0  0  0  0  0  0  0  0  0  0  0  0
   60.1675   29.9436   44.8251 H   0  0  0  0  0  0  0  0  0  0  0  0
   59.4810   27.6604   44.1041 H   0  0  0  0  0  0  0  0  0  0  0  0
   58.4398   24.9786   46.5674 H   0  0  0  0  0  0  0  0  0  0  0  0
   57.7287   25.6915   45.0799 H   0  0  0  0  0  0  0  0  0  0  0  0
   59.4351   25.1306   45.0799 H   0  0  0  0  0  0  0  0  0  0  0  0
   58.7248   26.5804   48.2273 H   0  0  0  0  0  0  0  0  0  0  0  0
   59.4039   28.8672   48.9513 H   0  0  0  0  0  0  0  0  0  0  0  0
   58.2427   31.6507   45.4473 H   0  0  0  0  0  0  0  0  0  0  0  0
   56.4262   34.4931   45.4320 H   0  0  0  0  0  0  0  0  0  0  0  0
   57.6747   35.0053   44.2464 H   0  0  0  0  0  0  0  0  0  0  0  0
   57.0775   33.3112   44.2464 H   0  0  0  0  0  0  0  0  0  0  0  0
   58.7469   35.8463   46.5088 H   0  0  0  0  0  0  0  0  0  0  0  0
   60.5398   35.2203   48.1555 H   0  0  0  0  0  0  0  0  0  0  0  0
  1  2  1  0
  2  3  1  0
  3  4  1  0
  4  5  1  0
  5  6  1  0
  6  7  1  0
  7  8  2  0
  8  9  1  0
  9 10  2  0
 10 11  1  0
 11 12  2  0
 12 13  1  0
 12 14  1  0
 14 15  2  0
  8 16  1  0
 16 17  2  0
 17 18  1  0
 18 19  1  0
 18 20  2  0
 20 21  1  0
 21 22  2  0
 22  6  1  0
 15  9  1  0
 22 16  1  0
  1 23  1  0
  1 24  1  0
  1 25  1  0
  2 26  1  0
  2 27  1  0
  3 28  1  0
  4 29  1  0
  4 30  1  0
  5 31  1  0
  5 32  1  0
  7 33  1  0
 10 34  1  0
 11 35  1  0
 13 36  1  0
 13 37  1  0
 13 38  1  0
 14 39  1  0
 15 40  1  0
 17 41  1  0
 19 42  1  0
 19 43  1  0
 19 44  1  0
 20 45  1  0
 21 46  1  0
M  END
>  <UniqueID>  (12) 
12

>  <SMILES>  (12) 
CCNCCn1cc(-c2ccc(C)cc2)c2cc(C)ccc21

>  <Energy>  (12) 
77.55797490507089

>  <Genealogy>  (12) 
CCNCCn1cc(-c2ccc(C)cc2)c2cc(C)ccc21 (3D coordinates assigned)
CCNCCn1cc(-c2ccc(C)cc2)c2cc(C)ccc21 (optimized conformer: 77.55797490507089 kcal/mol)

>  <smiles>  (12) 
CCNCCn1cc(-c2ccc(C)cc2)c2cc(C)ccc21

>  <score_type>  (12) 
oracle

>  <origin>  (12) 
adg

>  <m_score__min__energy>  (12) 
-7.6699999999999999

>  <m_primary>  (12) 
energy

$$$$
12:0
     RDKit          3D

 58 62  0  0  0  0  0  0  0  0999 V2000
   64.0740   31.1160   50.8820 C   0  0  0  0  0  0  0  0  0  0  0  0
   65.1090   31.8330   50.0050 C   0  0  0  0  0  0  0  0  0  0  0  0
   64.4760   32.6970   48.9750 N   0  0  0  0  0  0  0  0  0  0  0  0
   63.7660   33.8610   49.5840 C   0  0  0  0  0  0  0  0  0  0  0  0
   62.2450   33.6430   49.6880 C   0  0  0  0  0  0  0  0  0  0  0  0
   61.6330   33.3510   48.3690 N   0  0  0  0  0  0  0  0  0  0  0  0
   60.8000   34.4440   47.8160 C   0  0  0  0  0  0  0  0  0  0  0  0
   59.8050   33.9880   46.7690 C   0  0  0  0  0  0  0  0  0  0  0  0
   59.2820   34.8960   45.8340 C   0  0  0  0  0  0  0  0  0  0  0  0
   58.3720   34.4670   44.8660 C   0  0  0  0  0  0  0  0  0  0  0  0
   57.9600   33.1340   44.8290 C   0  0  0  0  0  0  0  0  0  0  0  0
   58.4470   32.2120   45.7720 C   0  0  0  0  0  0  0  0  0  0  0  0
   57.9950   30.7990   45.7490 C   0  0  0  0  0  0  0  0  0  0  0  0
   57.0330   30.3720   44.8170 C   0  0  0  0  0  0  0  0  0  0  0  0
   56.6100   29.0400   44.7910 C   0  0  0  0  0  0  0  0  0  0  0  0
   57.1390   28.1060   45.6980 C   0  0  0  0  0  0  0  0  0  0  0  0
   56.6940   26.6960   45.6670 C   0  0  0  0  0  0  0  0  0  0  0  0
   55.4240   26.3130   45.9740 N   0  0  0  0  0  0  0  0  0  0  0  0
   55.4680   24.9840   45.8120 C   0  0  0  0  0  0  0  0  0  0  0  0
   54.4370   24.0660   46.0030 C   0  0  0  0  0  0  0  0  0  0  0  0
   54.7230   22.7060   45.7760 C   0  0  0  0  0  0  0  0  0  0  0  0
   56.0190   22.3060   45.3770 C   0  0  0  0  0  0  0  0  0  0  0  0
   57.0370   23.2640   45.1990 C   0  0  0  0  0  0  0  0  0  0  0  0
   56.7140   24.5990   45.4270 C   0  0  0  0  0  0  0  0  0  0  0  0
   57.5170   25.6670   45.3250 N   0  0  0  0  0  0  0  0  0  0  0  0
   58.0980   28.5320   46.6320 C   0  0  0  0  0  0  0  0  0  0  0  0
   58.5230   29.8630   46.6570 C   0  0  0  0  0  0  0  0  0  0  0  0
   59.3660   32.6530   46.7440 C   0  0  0  0  0  0  0  0  0  0  0  0
   62.5560   32.7440   47.3860 C   0  0  0  0  0  0  0  0  0  0  0  0
   63.5990   31.8770   48.0970 C   0  0  0  0  0  0  0  0  0  0  0  0
   64.3139   31.2822   51.9426 H   0  0  0  0  0  0  0  0  0  0  0  0
   63.0716   31.5142   50.6661 H   0  0  0  0  0  0  0  0  0  0  0  0
   64.0945   30.0376   50.6661 H   0  0  0  0  0  0  0  0  0  0  0  0
   65.7451   32.4584   50.6486 H   0  0  0  0  0  0  0  0  0  0  0  0
   65.6973   31.0640   49.4829 H   0  0  0  0  0  0  0  0  0  0  0  0
   65.2360   33.0800   48.3600 H   0  0  0  0  0  0  0  0  0  0  0  0
   64.1672   34.0282   50.5945 H   0  0  0  0  0  0  0  0  0  0  0  0
   63.9326   34.7300   48.9305 H   0  0  0  0  0  0  0  0  0  0  0  0
   62.0532   32.7963   50.3635 H   0  0  0  0  0  0  0  0  0  0  0  0
   61.7950   34.5699   50.0731 H   0  0  0  0  0  0  0  0  0  0  0  0
   60.2436   34.9080   48.6437 H   0  0  0  0  0  0  0  0  0  0  0  0
   61.4849   35.1478   47.3204 H   0  0  0  0  0  0  0  0  0  0  0  0
   59.5911   35.9512   45.8645 H   0  0  0  0  0  0  0  0  0  0  0  0
   57.9780   35.1826   44.1293 H   0  0  0  0  0  0  0  0  0  0  0  0
   57.2497   32.8027   44.0571 H   0  0  0  0  0  0  0  0  0  0  0  0
   56.6094   31.0925   44.1019 H   0  0  0  0  0  0  0  0  0  0  0  0
   55.8574   28.7205   44.0551 H   0  0  0  0  0  0  0  0  0  0  0  0
   53.4354   24.3922   46.3198 H   0  0  0  0  0  0  0  0  0  0  0  0
   53.9342   21.9511   45.9098 H   0  0  0  0  0  0  0  0  0  0  0  0
   56.2339   21.2411   45.2045 H   0  0  0  0  0  0  0  0  0  0  0  0
   58.0506   22.9677   44.8910 H   0  0  0  0  0  0  0  0  0  0  0  0
   58.5179   27.8118   47.3497 H   0  0  0  0  0  0  0  0  0  0  0  0
   59.2764   30.1814   47.3925 H   0  0  0  0  0  0  0  0  0  0  0  0
   59.7453   31.9430   47.4937 H   0  0  0  0  0  0  0  0  0  0  0  0
   61.9810   32.1190   46.6869 H   0  0  0  0  0  0  0  0  0  0  0  0
   63.0724   33.5465   46.8389 H   0  0  0  0  0  0  0  0  0  0  0  0
   63.0815   31.1243   48.7099 H   0  0  0  0  0  0  0  0  0  0  0  0
   64.2265   31.3932   47.3340 H   0  0  0  0  0  0  0  0  0  0  0  0
  1  2  1  0
  2  3  1  0
  3  4  1  0
  4  5  1  0
  5  6  1  0
  6  7  1  0
  7  8  1  0
  8  9  2  0
  9 10  1  0
 10 11  2  0
 11 12  1  0
 12 13  1  0
 13 14  2  0
 14 15  1  0
 15 16  2  0
 16 17  1  0
 17 18  2  0
 18 19  1  0
 19 20  2  0
 20 21  1  0
 21 22  2  0
 22 23  1  0
 23 24  2  0
 24 25  1  0
 16 26  1  0
 26 27  2  0
 12 28  2  0
  6 29  1  0
 29 30  1  0
 30  3  1  0
 28  8  1  0
 27 13  1  0
 25 17  1  0
 24 19  1  0
  1 31  1  0
  1 32  1  0
  1 33  1  0
  2 34  1  0
  2 35  1  0
  3 36  1  0
  4 37  1  0
  4 38  1  0
  5 39  1  0
  5 40  1  0
  7 41  1  0
  7 42  1  0
  9 43  1  0
 10 44  1  0
 11 45  1  0
 14 46  1  0
 15 47  1  0
 20 48  1  0
 21 49  1  0
 22 50  1  0
 23 51  1  0
 26 52  1  0
 27 53  1  0
 28 54  1  0
 29 55  1  0
 29 56  1  0
 30 57  1  0
 30 58  1  0
M  CHG  2   3   1  25  -1
M  END
>  <UniqueID>  (13) 
13

>  <SMILES>  (13) 
CC[NH+]1CCN(Cc2cccc(-c3ccc(-c4nc5ccccc5[n-]4)cc3)c2)CC1

>  <Energy>  (13) 
118.96766376874842

>  <Genealogy>  (13) 
CC[NH+]1CCN(Cc2cccc(-c3ccc(-c4nc5ccccc5[n-]4)cc3)c2)CC1 (protonated)
CC[NH+]1CCN(Cc2cccc(-c3ccc(-c4nc5ccccc5[n-]4)cc3)c2)CC1 (3D coordinates assigned)
CC[NH+]1CCN(Cc2cccc(-c3ccc(-c4nc5ccccc5[n-]4)cc3)c2)CC1 (nonaromatic ring conformer: 118.96766376874842 kcal/mol)

>  <smiles>  (13) 
CCN1CCN(Cc2cccc(-c3ccc(-c4nc5ccccc5[nH]4)cc3)c2)CC1

>  <score_type>  (13) 
oracle

>  <origin>  (13) 
adg

>  <m_score__min__energy>  (13) 
-10.18

>  <m_primary>  (13) 
energy

$$$$
13:0
     RDKit          3D

 33 34  0  0  0  0  0  0  0  0999 V2000
   57.4212   29.1257   42.8421 H   0  0  0  0  0  0  0  0  0  0  0  0
   57.3220   29.7520   43.7410 C   0  0  0  0  0  0  0  0  0  0  0  0
   56.0700   29.6300   44.5120 C   0  0  0  0  0  0  0  0  0  0  0  0
   55.2020   30.5440   44.4960 O   0  0  0  0  0  0  0  0  0  0  0  0
   55.8260   28.4240   45.2420 N   0  0  0  0  0  0  0  0  0  0  0  0
   56.8850   27.5700   45.7640 C   0  0  0  0  0  0  0  0  0  0  0  0
   57.7854   27.6869   45.1430 H   0  0  0  0  0  0  0  0  0  0  0  0
   57.1037   27.8629   46.8015 H   0  0  0  0  0  0  0  0  0  0  0  0
   56.4520   26.1380   45.7420 C   0  0  0  0  0  0  0  0  0  0  0  0
   55.2680   25.7240   46.1300 O   0  0  0  0  0  0  0  0  0  0  0  0
   55.2200   24.4180   46.0020 C   0  0  0  0  0  0  0  0  0  0  0  0
   54.3515   23.7891   46.2474 H   0  0  0  0  0  0  0  0  0  0  0  0
   56.4240   23.9540   45.5130 C   0  0  0  0  0  0  0  0  0  0  0  0
   56.6920   22.9086   45.3002 H   0  0  0  0  0  0  0  0  0  0  0  0
   57.2230   25.0640   45.3450 C   0  0  0  0  0  0  0  0  0  0  0  0
   58.2578   25.0890   44.9727 H   0  0  0  0  0  0  0  0  0  0  0  0
   58.3510   30.5610   44.0410 C   0  0  0  0  0  0  0  0  0  0  0  0
   59.3444   30.2789   43.6621 H   0  0  0  0  0  0  0  0  0  0  0  0
   58.2540   31.8020   44.8410 C   0  0  0  0  0  0  0  0  0  0  0  0
   58.1500   33.0510   44.2030 C   0  0  0  0  0  0  0  0  0  0  0  0
   58.1775   33.1082   43.1048 H   0  0  0  0  0  0  0  0  0  0  0  0
   58.0120   34.2190   44.9560 C   0  0  0  0  0  0  0  0  0  0  0  0
   57.9475   35.1941   44.4510 H   0  0  0  0  0  0  0  0  0  0  0  0
   57.9560   34.1500   46.3470 C   0  0  0  0  0  0  0  0  0  0  0  0
   57.8517   35.0718   46.9380 H   0  0  0  0  0  0  0  0  0  0  0  0
   58.0320   32.9130   46.9930 C   0  0  0  0  0  0  0  0  0  0  0  0
   57.9823   32.8655   48.0908 H   0  0  0  0  0  0  0  0  0  0  0  0
   58.1720   31.7260   46.2460 C   0  0  0  0  0  0  0  0  0  0  0  0
   58.2430   30.4660   46.8620 O   0  0  0  0  0  0  0  0  0  0  0  0
   59.4550   29.8090   47.2190 C   0  0  0  0  0  0  0  0  0  0  0  0
   59.5385   29.7637   48.3149 H   0  0  0  0  0  0  0  0  0  0  0  0
   59.4533   28.7883   46.8089 H   0  0  0  0  0  0  0  0  0  0  0  0
   60.3094   30.3675   46.8089 H   0  0  0  0  0  0  0  0  0  0  0  0
  1  2  1  0
  2  3  1  0
  3  4  2  0
  3  5  1  0
  5  6  1  0
  6  7  1  0
  6  8  1  0
  6  9  1  0
  9 10  1  0
 10 11  1  0
 11 12  1  0
 11 13  2  0
 13 14  1  0
 13 15  1  0
 15 16  1  0
  2 17  2  0
 17 18  1  0
 17 19  1  0
 19 20  2  0
 20 21  1  0
 20 22  1  0
 22 23  1  0
 22 24  2  0
 24 25  1  0
 24 26  1  0
 26 27  1  0
 26 28  2  0
 28 29  1  0
 29 30  1  0
 30 31  1  0
 30 32  1  0
 30 33  1  0
 15  9  2  0
 28 19  1  0
M  CHG  1   5  -1
M  END
>  <UniqueID>  (14) 
14

>  <SMILES>  (14) 
COc1ccccc1/C=C\C(=O)[N-]Cc1ccco1

>  <Energy>  (14) 
63.302250585748055

>  <Genealogy>  (14) 
COc1ccccc1C=CC(=O)[N-]Cc1ccco1 (protonated)
COc1ccccc1/C=C\C(=O)[N-]Cc1ccco1 (cis-trans isomerization)
COc1ccccc1/C=C\C(=O)[N-]Cc1ccco1 (3D coordinates assigned)
COc1ccccc1/C=C\C(=O)[N-]Cc1ccco1 (optimized conformer: 63.302250585748055 kcal/mol)

>  <smiles>  (14) 
COc1ccccc1C=CC(=O)NCc1ccco1

>  <score_type>  (14) 
oracle

>  <origin>  (14) 
adg

>  <m_score__min__energy>  (14) 
-9

>  <m_primary>  (14) 
energy

$$$$
14:0
     RDKit          3D

 50 51  0  0  0  0  0  0  0  0999 V2000
   60.7690   28.5070   45.2590 C   0  0  0  0  0  0  0  0  0  0  0  0
   59.5140   29.1270   44.6460 C   0  0  0  0  0  0  0  0  0  0  0  0
   58.2830   28.6720   45.3340 N   0  0  0  0  0  0  0  0  0  0  0  0
   58.4090   27.3400   45.9760 C   0  0  0  0  0  0  0  0  0  0  0  0
   57.0700   26.7050   46.3750 C   0  0  0  0  0  0  0  0  0  0  0  0
   57.0990   28.7600   44.4500 C   0  0  0  0  0  0  0  0  0  0  0  0
   57.3200   29.8330   43.3780 C   0  0  0  0  0  0  0  0  0  0  0  0
   56.6950   31.1690   43.7900 C   0  0  0  0  0  0  0  0  0  0  0  0
   56.8760   31.3790   45.2320 N   0  0  0  0  0  0  0  0  0  0  0  0
   57.6420   32.6020   45.5180 C   0  0  0  0  0  0  0  0  0  0  0  0
   58.9390   32.3090   46.2430 C   0  0  0  0  0  0  0  0  0  0  0  0
   59.0050   31.2150   47.1170 C   0  0  0  0  0  0  0  0  0  0  0  0
   60.1680   30.9370   47.8370 C   0  0  0  0  0  0  0  0  0  0  0  0
   60.1370   29.4080   49.0010 Br  0  0  0  0  0  0  0  0  0  0  0  0
   61.2950   31.7770   47.7070 C   0  0  0  0  0  0  0  0  0  0  0  0
   62.4770   31.5370   48.4350 C   0  0  0  0  0  0  0  0  0  0  0  0
   63.5740   32.3930   48.3100 C   0  0  0  0  0  0  0  0  0  0  0  0
   63.5070   33.4980   47.4650 C   0  0  0  0  0  0  0  0  0  0  0  0
   62.3480   33.7530   46.7310 C   0  0  0  0  0  0  0  0  0  0  0  0
   61.2350   32.8940   46.8310 C   0  0  0  0  0  0  0  0  0  0  0  0
   60.0630   33.1420   46.0840 C   0  0  0  0  0  0  0  0  0  0  0  0
   60.0000   34.2190   45.1950 O   0  0  0  0  0  0  0  0  0  0  0  0
   59.6420   35.5250   45.6340 C   0  0  0  0  0  0  0  0  0  0  0  0
   60.6971   28.5425   46.3561 H   0  0  0  0  0  0  0  0  0  0  0  0
   60.8588   27.4609   44.9311 H   0  0  0  0  0  0  0  0  0  0  0  0
   61.6544   29.0713   44.9311 H   0  0  0  0  0  0  0  0  0  0  0  0
   59.5824   30.2220   44.7258 H   0  0  0  0  0  0  0  0  0  0  0  0
   59.4549   28.8101   43.5943 H   0  0  0  0  0  0  0  0  0  0  0  0
   58.9151   26.6638   45.2713 H   0  0  0  0  0  0  0  0  0  0  0  0
   58.9775   27.4896   46.9057 H   0  0  0  0  0  0  0  0  0  0  0  0
   56.9937   26.6688   47.4718 H   0  0  0  0  0  0  0  0  0  0  0  0
   56.2434   27.3070   45.9696 H   0  0  0  0  0  0  0  0  0  0  0  0
   57.0131   25.6840   45.9696 H   0  0  0  0  0  0  0  0  0  0  0  0
   56.9357   27.7874   43.9629 H   0  0  0  0  0  0  0  0  0  0  0  0
   56.2192   29.0294   45.0527 H   0  0  0  0  0  0  0  0  0  0  0  0
   58.4008   29.9738   43.2295 H   0  0  0  0  0  0  0  0  0  0  0  0
   56.8395   29.4976   42.4471 H   0  0  0  0  0  0  0  0  0  0  0  0
   57.1826   31.9860   43.2379 H   0  0  0  0  0  0  0  0  0  0  0  0
   55.6200   31.1543   43.5572 H   0  0  0  0  0  0  0  0  0  0  0  0
   57.3820   30.5550   45.6350 H   0  0  0  0  0  0  0  0  0  0  0  0
   57.8734   33.1053   44.5677 H   0  0  0  0  0  0  0  0  0  0  0  0
   57.0276   33.2402   46.1701 H   0  0  0  0  0  0  0  0  0  0  0  0
   58.1258   30.5650   47.2374 H   0  0  0  0  0  0  0  0  0  0  0  0
   62.5367   30.6685   49.1074 H   0  0  0  0  0  0  0  0  0  0  0  0
   64.4931   32.1937   48.8805 H   0  0  0  0  0  0  0  0  0  0  0  0
   64.3713   34.1725   47.3758 H   0  0  0  0  0  0  0  0  0  0  0  0
   62.3026   34.6307   46.0696 H   0  0  0  0  0  0  0  0  0  0  0  0
   59.6343   35.5529   46.7336 H   0  0  0  0  0  0  0  0  0  0  0  0
   60.3737   36.2531   45.2538 H   0  0  0  0  0  0  0  0  0  0  0  0
   58.6413   35.7782   45.2538 H   0  0  0  0  0  0  0  0  0  0  0  0
  1  2  1  0
  2  3  1  0
  3  4  1  0
  4  5  1  0
  3  6  1  0
  6  7  1  0
  7  8  1  0
  8  9  1  0
  9 10  1  0
 10 11  1  0
 11 12  2  0
 12 13  1  0
 13 14  1  0
 13 15  2  0
 15 16  1  0
 16 17  2  0
 17 18  1  0
 18 19  2  0
 19 20  1  0
 20 21  2  0
 21 22  1  0
 22 23  1  0
 21 11  1  0
 20 15  1  0
  1 24  1  0
  1 25  1  0
  1 26  1  0
  2 27  1  0
  2 28  1  0
  4 29  1  0
  4 30  1  0
  5 31  1  0
  5 32  1  0
  5 33  1  0
  6 34  1  0
  6 35  1  0
  7 36  1  0
  7 37  1  0
  8 38  1  0
  8 39  1  0
  9 40  1  0
 10 41  1  0
 10 42  1  0
 12 43  1  0
 16 44  1  0
 17 45  1  0
 18 46  1  0
 19 47  1  0
 23 48  1  0
 23 49  1  0
 23 50  1  0
M  END
>  <UniqueID>  (15) 
15

>  <SMILES>  (15) 
CCN(CC)CCCNCc1cc(Br)c2ccccc2c1OC

>  <Energy>  (15) 
59.043019869463635

>  <Genealogy>  (15) 
CCN(CC)CCCNCc1cc(Br)c2ccccc2c1OC (3D coordinates assigned)
CCN(CC)CCCNCc1cc(Br)c2ccccc2c1OC (optimized conformer: 59.043019869463635 kcal/mol)

>  <smiles>  (15) 
CCN(CC)CCCNCc1cc(Br)c2ccccc2c1OC

>  <score_type>  (15) 
oracle

>  <origin>  (15) 
adg

>  <m_score__min__energy>  (15) 
-7.2000000000000002

>  <m_primary>  (15) 
energy

$$$$
15:0
     RDKit          3D

 36 37  0  0  0  0  0  0  0  0999 V2000
   59.8120   19.3830   50.8530 C   0  0  0  0  0  0  0  0  0  0  0  0
   59.3170   20.7400   50.5760 N   0  0  0  0  0  0  0  0  0  0  0  0
   59.6210   21.6570   51.6880 C   0  0  0  0  0  0  0  0  0  0  0  0
   57.8880   20.7660   50.1870 C   0  0  0  0  0  0  0  0  0  0  0  0
   57.3480   22.1730   49.8550 C   0  0  0  0  0  0  0  0  0  0  0  0
   57.2060   22.3450   48.4110 N   0  0  0  0  0  0  0  0  0  0  0  0
   56.3240   23.2760   47.7650 C   0  0  0  0  0  0  0  0  0  0  0  0
   55.0880   23.2010   47.9930 O   0  0  0  0  0  0  0  0  0  0  0  0
   56.8160   24.2910   46.8140 C   0  0  0  0  0  0  0  0  0  0  0  0
   58.0020   24.0620   46.1030 C   0  0  0  0  0  0  0  0  0  0  0  0
   58.4990   25.0340   45.2300 C   0  0  0  0  0  0  0  0  0  0  0  0
   57.8050   26.2360   45.0540 C   0  0  0  0  0  0  0  0  0  0  0  0
   56.6120   26.4730   45.7550 C   0  0  0  0  0  0  0  0  0  0  0  0
   56.1100   25.4880   46.6140 C   0  0  0  0  0  0  0  0  0  0  0  0
   55.9000   27.7120   45.6210 N   0  0  0  0  0  0  0  0  0  0  0  0
   56.4080   28.8950   44.9890 C   0  0  0  0  0  0  0  0  0  0  0  0
   55.6470   29.8870   44.8430 O   0  0  0  0  0  0  0  0  0  0  0  0
   57.8450   29.0080   44.5720 C   0  0  0  0  0  0  0  0  0  0  0  0
   58.4100   27.4470   43.9510 S   0  0  0  0  0  0  0  0  0  0  0  0
   57.7760   27.1790   42.4190 O   0  0  0  0  0  0  0  0  0  0  0  0
   59.8685   19.2282   51.9406 H   0  0  0  0  0  0  0  0  0  0  0  0
   59.1251   18.6452   50.4128 H   0  0  0  0  0  0  0  0  0  0  0  0
   60.8126   19.2607   50.4128 H   0  0  0  0  0  0  0  0  0  0  0  0
   59.4503   21.1421   52.6450 H   0  0  0  0  0  0  0  0  0  0  0  0
   60.6724   21.9742   51.6247 H   0  0  0  0  0  0  0  0  0  0  0  0
   58.9673   22.5394   51.6247 H   0  0  0  0  0  0  0  0  0  0  0  0
   57.7606   20.1293   49.2991 H   0  0  0  0  0  0  0  0  0  0  0  0
   57.3175   20.4054   51.0556 H   0  0  0  0  0  0  0  0  0  0  0  0
   56.3658   22.3046   50.3325 H   0  0  0  0  0  0  0  0  0  0  0  0
   58.0595   22.9225   50.2318 H   0  0  0  0  0  0  0  0  0  0  0  0
   58.5439   23.1135   46.2325 H   0  0  0  0  0  0  0  0  0  0  0  0
   59.4354   24.8539   44.6816 H   0  0  0  0  0  0  0  0  0  0  0  0
   55.1558   25.6531   47.1358 H   0  0  0  0  0  0  0  0  0  0  0  0
   57.9386   29.7705   43.7847 H   0  0  0  0  0  0  0  0  0  0  0  0
   58.4551   29.2975   45.4403 H   0  0  0  0  0  0  0  0  0  0  0  0
   56.8000   27.0950   42.5660 H   0  0  0  0  0  0  0  0  0  0  0  0
  1  2  1  0
  2  3  1  0
  2  4  1  0
  4  5  1  0
  5  6  1  0
  6  7  1  0
  7  8  2  0
  7  9  1  0
  9 10  2  0
 10 11  1  0
 11 12  2  0
 12 13  1  0
 13 14  2  0
 13 15  1  0
 15 16  1  0
 16 17  2  0
 16 18  1  0
 18 19  1  0
 19 20  1  6
 14  9  1  0
 19 12  1  0
  1 21  1  0
  1 22  1  0
  1 23  1  0
  3 24  1  0
  3 25  1  0
  3 26  1  0
  4 27  1  0
  4 28  1  0
  5 29  1  0
  5 30  1  0
 10 31  1  0
 11 32  1  0
 14 33  1  0
 18 34  1  0
 18 35  1  0
 20 36  1  0
M  CHG  3   6  -1  15  -1  19   1
M  END
>  <UniqueID>  (16) 
16

>  <SMILES>  (16) 
CN(C)CC[N-]C(=O)c1ccc2c(c1)[N-]C(=O)C[S@+]2O

>  <Energy>  (16) 
40.09654468070502

>  <Genealogy>  (16) 
CN(C)CC[N-]C(=O)c1ccc2c(c1)[N-]C(=O)C[S+]2O (protonated)
CN(C)CC[N-]C(=O)c1ccc2c(c1)[N-]C(=O)C[S@+]2O (chirality)
CN(C)CC[N-]C(=O)c1ccc2c(c1)[N-]C(=O)C[S@+]2O (3D coordinates assigned)
CN(C)CC[N-]C(=O)c1ccc2c(c1)[N-]C(=O)C[S@+]2O (nonaromatic ring conformer: 40.09654468070502 kcal/mol)

>  <smiles>  (16) 
CN(C)CCNC(=O)c1ccc2c(c1)NC(=O)C[S+]2[O-]

>  <score_type>  (16) 
oracle

>  <origin>  (16) 
adg

>  <m_score__min__energy>  (16) 
-8.6899999999999995

>  <m_primary>  (16) 
energy

$$$$
16:0
     RDKit          3D

 51 52  0  0  0  0  0  0  0  0999 V2000
   61.4120   30.6220   48.1380 C   0  0  0  0  0  0  0  0  0  0  0  0
   62.2490   31.7600   47.5320 C   0  0  0  0  0  0  0  0  0  0  0  0
   62.7440   32.7500   48.5260 N   0  0  0  0  0  0  0  0  0  0  0  0
   63.5070   33.8540   47.8700 C   0  0  0  0  0  0  0  0  0  0  0  0
   63.3350   33.8500   46.3460 C   0  0  0  0  0  0  0  0  0  0  0  0
   63.5200   32.0770   49.6010 C   0  0  0  0  0  0  0  0  0  0  0  0
   63.1490   32.5710   51.0050 C   0  0  0  0  0  0  0  0  0  0  0  0
   62.1830   33.5890   50.8750 O   0  0  0  0  0  0  0  0  0  0  0  0
   60.9900   33.2220   51.5320 C   0  0  0  0  0  0  0  0  0  0  0  0
   59.7960   33.8320   50.7960 C   0  0  0  0  0  0  0  0  0  0  0  0
   60.1750   34.2760   49.4900 O   0  0  0  0  0  0  0  0  0  0  0  0
   59.6260   33.8190   48.2800 C   0  0  0  0  0  0  0  0  0  0  0  0
   59.8710   34.4500   47.0460 C   0  0  0  0  0  0  0  0  0  0  0  0
   59.3500   33.9180   45.8640 C   0  0  0  0  0  0  0  0  0  0  0  0
   58.5540   32.7600   45.8930 C   0  0  0  0  0  0  0  0  0  0  0  0
   58.0270   32.1780   44.6330 C   0  0  0  0  0  0  0  0  0  0  0  0
   58.2600   32.8130   43.3980 C   0  0  0  0  0  0  0  0  0  0  0  0
   57.7600   32.2610   42.2130 C   0  0  0  0  0  0  0  0  0  0  0  0
   57.0230   31.0750   42.2490 C   0  0  0  0  0  0  0  0  0  0  0  0
   56.7840   30.4380   43.4680 C   0  0  0  0  0  0  0  0  0  0  0  0
   57.2810   30.9840   44.6550 C   0  0  0  0  0  0  0  0  0  0  0  0
   58.2760   32.1570   47.1310 C   0  0  0  0  0  0  0  0  0  0  0  0
   58.8050   32.6880   48.3120 C   0  0  0  0  0  0  0  0  0  0  0  0
   61.4546   30.6799   49.2356 H   0  0  0  0  0  0  0  0  0  0  0  0
   60.3677   30.7180   47.8060 H   0  0  0  0  0  0  0  0  0  0  0  0
   61.8147   29.6537   47.8060 H   0  0  0  0  0  0  0  0  0  0  0  0
   63.1185   31.3162   47.0249 H   0  0  0  0  0  0  0  0  0  0  0  0
   61.5873   32.3069   46.8442 H   0  0  0  0  0  0  0  0  0  0  0  0
   61.8780   33.1410   48.9700 H   0  0  0  0  0  0  0  0  0  0  0  0
   63.1482   34.8160   48.2646 H   0  0  0  0  0  0  0  0  0  0  0  0
   64.5743   33.7046   48.0901 H   0  0  0  0  0  0  0  0  0  0  0  0
   62.2636   33.8251   46.0980 H   0  0  0  0  0  0  0  0  0  0  0  0
   63.7881   34.7589   45.9235 H   0  0  0  0  0  0  0  0  0  0  0  0
   63.8299   32.9631   45.9235 H   0  0  0  0  0  0  0  0  0  0  0  0
   63.3279   30.9952   49.5476 H   0  0  0  0  0  0  0  0  0  0  0  0
   64.5819   32.3132   49.4383 H   0  0  0  0  0  0  0  0  0  0  0  0
   62.7360   31.7394   51.5948 H   0  0  0  0  0  0  0  0  0  0  0  0
   64.0413   32.9585   51.5185 H   0  0  0  0  0  0  0  0  0  0  0  0
   60.8965   32.1260   51.5378 H   0  0  0  0  0  0  0  0  0  0  0  0
   61.0118   33.5929   52.5673 H   0  0  0  0  0  0  0  0  0  0  0  0
   59.0044   33.0739   50.7032 H   0  0  0  0  0  0  0  0  0  0  0  0
   59.4334   34.6973   51.3703 H   0  0  0  0  0  0  0  0  0  0  0  0
   60.4765   35.3677   47.0121 H   0  0  0  0  0  0  0  0  0  0  0  0
   59.5644   34.4091   44.9033 H   0  0  0  0  0  0  0  0  0  0  0  0
   58.8382   33.7482   43.3644 H   0  0  0  0  0  0  0  0  0  0  0  0
   57.9477   32.7619   41.2518 H   0  0  0  0  0  0  0  0  0  0  0  0
   56.6308   30.6428   41.3166 H   0  0  0  0  0  0  0  0  0  0  0  0
   56.2032   29.5042   43.4945 H   0  0  0  0  0  0  0  0  0  0  0  0
   57.0881   30.4777   45.6123 H   0  0  0  0  0  0  0  0  0  0  0  0
   57.6383   31.2616   47.1719 H   0  0  0  0  0  0  0  0  0  0  0  0
   58.5727   32.2109   49.2755 H   0  0  0  0  0  0  0  0  0  0  0  0
  1  2  1  0
  2  3  1  0
  3  4  1  0
  4  5  1  0
  3  6  1  0
  6  7  1  0
  7  8  1  0
  8  9  1  0
  9 10  1  0
 10 11  1  0
 11 12  1  0
 12 13  2  0
 13 14  1  0
 14 15  2  0
 15 16  1  0
 16 17  2  0
 17 18  1  0
 18 19  2  0
 19 20  1  0
 20 21  2  0
 15 22  1  0
 22 23  2  0
 23 12  1  0
 21 16  1  0
  1 24  1  0
  1 25  1  0
  1 26  1  0
  2 27  1  0
  2 28  1  0
  3 29  1  0
  4 30  1  0
  4 31  1  0
  5 32  1  0
  5 33  1  0
  5 34  1  0
  6 35  1  0
  6 36  1  0
  7 37  1  0
  7 38  1  0
  9 39  1  0
  9 40  1  0
 10 41  1  0
 10 42  1  0
 13 43  1  0
 14 44  1  0
 17 45  1  0
 18 46  1  0
 19 47  1  0
 20 48  1  0
 21 49  1  0
 22 50  1  0
 23 51  1  0
M  CHG  1   3   1
M  END
>  <UniqueID>  (17) 
17

>  <SMILES>  (17) 
CC[NH+](CC)CCOCCOc1ccc(-c2ccccc2)cc1

>  <Energy>  (17) 
57.62293871095775

>  <Genealogy>  (17) 
CC[NH+](CC)CCOCCOc1ccc(-c2ccccc2)cc1 (protonated)
CC[NH+](CC)CCOCCOc1ccc(-c2ccccc2)cc1 (3D coordinates assigned)
CC[NH+](CC)CCOCCOc1ccc(-c2ccccc2)cc1 (optimized conformer: 57.62293871095775 kcal/mol)

>  <smiles>  (17) 
CCN(CC)CCOCCOc1ccc(-c2ccccc2)cc1

>  <score_type>  (17) 
oracle

>  <origin>  (17) 
adg

>  <m_score__min__energy>  (17) 
-5.3099999999999996

>  <m_primary>  (17) 
energy

$$$$
17:0
     RDKit          3D

 57 59  0  0  0  0  0  0  0  0999 V2000
   61.6260   33.5660   49.9650 C   0  0  0  0  0  0  0  0  0  0  0  0
   62.4420   34.2060   48.8420 C   0  0  0  0  0  0  0  0  0  0  0  0
   63.4780   33.2680   48.3420 N   0  0  0  0  0  0  0  0  0  0  0  0
   63.9270   32.3310   49.4060 C   0  0  0  0  0  0  0  0  0  0  0  0
   65.3600   32.6500   49.8100 C   0  0  0  0  0  0  0  0  0  0  0  0
   63.0100   32.5670   47.1210 C   0  0  0  0  0  0  0  0  0  0  0  0
   62.4360   31.1740   47.4540 C   0  0  0  0  0  0  0  0  0  0  0  0
   60.9900   31.2180   47.6940 N   0  0  0  0  0  0  0  0  0  0  0  0
   60.0060   31.2680   46.6350 C   0  0  0  0  0  0  0  0  0  0  0  0
   59.5070   32.5080   46.1620 C   0  0  0  0  0  0  0  0  0  0  0  0
   59.7850   33.7220   46.8390 C   0  0  0  0  0  0  0  0  0  0  0  0
   59.3230   34.9380   46.3520 C   0  0  0  0  0  0  0  0  0  0  0  0
   58.5210   34.9750   45.2210 C   0  0  0  0  0  0  0  0  0  0  0  0
   58.1710   33.7890   44.5710 C   0  0  0  0  0  0  0  0  0  0  0  0
   58.6670   32.5340   45.0130 C   0  0  0  0  0  0  0  0  0  0  0  0
   58.3240   31.3580   44.3740 N   0  0  0  0  0  0  0  0  0  0  0  0
   57.6830   31.3940   43.0410 C   0  0  0  0  0  0  0  0  0  0  0  0
   58.5790   30.1430   44.9840 C   0  0  0  0  0  0  0  0  0  0  0  0
   57.9670   28.9440   44.5290 C   0  0  0  0  0  0  0  0  0  0  0  0
   58.2560   27.7000   45.1200 C   0  0  0  0  0  0  0  0  0  0  0  0
   57.5710   26.5000   44.6810 N   0  0  0  0  0  0  0  0  0  0  0  0
   57.3790   25.5600   45.7970 C   0  0  0  0  0  0  0  0  0  0  0  0
   55.9810   25.6290   46.3420 C   0  0  0  0  0  0  0  0  0  0  0  0
   55.5240   24.6890   47.0470 O   0  0  0  0  0  0  0  0  0  0  0  0
   55.1540   26.6930   45.9980 O   0  0  0  0  0  0  0  0  0  0  0  0
   59.1640   27.6500   46.1800 C   0  0  0  0  0  0  0  0  0  0  0  0
   59.7790   28.8070   46.6490 C   0  0  0  0  0  0  0  0  0  0  0  0
   59.4620   30.0740   46.0980 C   0  0  0  0  0  0  0  0  0  0  0  0
   62.0298   33.8827   50.9380 H   0  0  0  0  0  0  0  0  0  0  0  0
   60.5762   33.8841   49.8826 H   0  0  0  0  0  0  0  0  0  0  0  0
   61.6848   32.4707   49.8826 H   0  0  0  0  0  0  0  0  0  0  0  0
   61.7685   34.4738   48.0145 H   0  0  0  0  0  0  0  0  0  0  0  0
   62.9404   35.1039   49.2363 H   0  0  0  0  0  0  0  0  0  0  0  0
   63.2701   32.4332   50.2824 H   0  0  0  0  0  0  0  0  0  0  0  0
   63.8806   31.3008   49.0231 H   0  0  0  0  0  0  0  0  0  0  0  0
   65.4365   32.6670   50.9072 H   0  0  0  0  0  0  0  0  0  0  0  0
   66.0345   31.8800   49.4073 H   0  0  0  0  0  0  0  0  0  0  0  0
   65.6442   33.6334   49.4073 H   0  0  0  0  0  0  0  0  0  0  0  0
   62.2264   33.1710   46.6402 H   0  0  0  0  0  0  0  0  0  0  0  0
   63.8700   32.4342   46.4481 H   0  0  0  0  0  0  0  0  0  0  0  0
   62.6354   30.4969   46.6103 H   0  0  0  0  0  0  0  0  0  0  0  0
   62.9222   30.8176   48.3741 H   0  0  0  0  0  0  0  0  0  0  0  0
   60.6720   31.1530   48.6890 H   0  0  0  0  0  0  0  0  0  0  0  0
   60.3768   33.7007   47.7660 H   0  0  0  0  0  0  0  0  0  0  0  0
   59.5936   35.8732   46.8641 H   0  0  0  0  0  0  0  0  0  0  0  0
   58.1599   35.9398   44.8352 H   0  0  0  0  0  0  0  0  0  0  0  0
   57.4990   33.8280   43.7010 H   0  0  0  0  0  0  0  0  0  0  0  0
   56.5912   31.4553   43.1607 H   0  0  0  0  0  0  0  0  0  0  0  0
   58.0410   32.2735   42.4856 H   0  0  0  0  0  0  0  0  0  0  0  0
   57.9402   30.4800   42.4856 H   0  0  0  0  0  0  0  0  0  0  0  0
   57.2507   28.9893   43.6954 H   0  0  0  0  0  0  0  0  0  0  0  0
   56.6410   26.7770   44.2860 H   0  0  0  0  0  0  0  0  0  0  0  0
   58.1170   26.0250   43.9230 H   0  0  0  0  0  0  0  0  0  0  0  0
   57.5734   24.5377   45.4405 H   0  0  0  0  0  0  0  0  0  0  0  0
   58.0767   25.8338   46.6021 H   0  0  0  0  0  0  0  0  0  0  0  0
   59.3962   26.6832   46.6505 H   0  0  0  0  0  0  0  0  0  0  0  0
   60.5210   28.7374   47.4581 H   0  0  0  0  0  0  0  0  0  0  0  0
  1  2  1  0
  2  3  1  0
  3  4  1  0
  4  5  1  0
  3  6  1  0
  6  7  1  0
  7  8  1  0
  8  9  1  0
  9 10  2  0
 10 11  1  0
 11 12  2  0
 12 13  1  0
 13 14  2  0
 14 15  1  0
 15 16  2  0
 16 17  1  0
 16 18  1  0
 18 19  2  0
 19 20  1  0
 20 21  1  0
 21 22  1  0
 22 23  1  0
 23 24  2  0
 23 25  1  0
 20 26  2  0
 26 27  1  0
 27 28  2  0
 28  9  1  0
 15 10  1  0
 28 18  1  0
  1 29  1  0
  1 30  1  0
  1 31  1  0
  2 32  1  0
  2 33  1  0
  4 34  1  0
  4 35  1  0
  5 36  1  0
  5 37  1  0
  5 38  1  0
  6 39  1  0
  6 40  1  0
  7 41  1  0
  7 42  1  0
  8 43  1  0
 11 44  1  0
 12 45  1  0
 13 46  1  0
 14 47  1  0
 17 48  1  0
 17 49  1  0
 17 50  1  0
 19 51  1  0
 21 52  1  0
 21 53  1  0
 22 54  1  0
 22 55  1  0
 26 56  1  0
 27 57  1  0
M  CHG  3  16   1  21   1  25  -1
M  END
>  <UniqueID>  (18) 
18

>  <SMILES>  (18) 
CCN(CC)CCNc1c2ccccc2[n+](C)c2cc([NH2+]CC(=O)[O-])ccc12

>  <Energy>  (18) 
90.62867001685296

>  <Genealogy>  (18) 
CCN(CC)CCNc1c2ccccc2[n+](C)c2cc([NH2+]CC(=O)[O-])ccc12 (protonated)
CCN(CC)CCNc1c2ccccc2[n+](C)c2cc([NH2+]CC(=O)[O-])ccc12 (3D coordinates assigned)
CCN(CC)CCNc1c2ccccc2[n+](C)c2cc([NH2+]CC(=O)[O-])ccc12 (optimized conformer: 90.62867001685296 kcal/mol)

>  <smiles>  (18) 
CCN(CC)CCNc1c2ccccc2[n+](C)c2cc(NCC(=O)O)ccc12

>  <score_type>  (18) 
oracle

>  <origin>  (18) 
adg

>  <m_score__min__energy>  (18) 
-8.1699999999999999

>  <m_primary>  (18) 
energy

$$$$
18:0
     RDKit          3D

 50 52  0  0  0  0  0  0  0  0999 V2000
   59.4880   28.2160   44.4320 C   0  0  0  0  0  0  0  0  0  0  0  0
   60.4860   28.5960   45.5260 C   0  0  0  0  0  0  0  0  0  0  0  0
   60.0410   28.1260   46.9190 C   0  0  0  0  0  0  0  0  0  0  0  0
   60.3760   29.1390   48.0410 C   0  0  0  0  0  0  0  0  0  0  0  0
   59.1590   29.9710   48.4840 C   0  0  0  0  0  0  0  0  0  0  0  0
   59.1470   31.3010   47.8360 N   0  0  0  0  0  0  0  0  0  0  0  0
   59.8380   32.3030   48.4600 C   0  0  0  0  0  0  0  0  0  0  0  0
   59.9760   33.5700   47.8880 C   0  0  0  0  0  0  0  0  0  0  0  0
   60.8680   34.5880   48.5570 C   0  0  0  0  0  0  0  0  0  0  0  0
   62.2260   33.9880   48.8060 C   0  0  0  0  0  0  0  0  0  0  0  0
   62.7480   33.9170   50.1060 C   0  0  0  0  0  0  0  0  0  0  0  0
   63.9720   33.2870   50.3320 C   0  0  0  0  0  0  0  0  0  0  0  0
   64.6640   32.7290   49.2570 C   0  0  0  0  0  0  0  0  0  0  0  0
   64.1460   32.7970   48.0000 N   0  0  0  0  0  0  0  0  0  0  0  0
   62.9510   33.4050   47.7560 C   0  0  0  0  0  0  0  0  0  0  0  0
   59.3670   33.8280   46.6530 C   0  0  0  0  0  0  0  0  0  0  0  0
   59.4950   34.9620   46.1130 O   0  0  0  0  0  0  0  0  0  0  0  0
   58.6190   32.8200   46.0200 C   0  0  0  0  0  0  0  0  0  0  0  0
   57.9900   33.0650   44.7850 C   0  0  0  0  0  0  0  0  0  0  0  0
   57.2660   32.0620   44.1480 C   0  0  0  0  0  0  0  0  0  0  0  0
   57.1510   30.7960   44.7190 C   0  0  0  0  0  0  0  0  0  0  0  0
   56.4120   29.8230   44.0260 O   0  0  0  0  0  0  0  0  0  0  0  0
   56.3340   29.7250   42.6080 C   0  0  0  0  0  0  0  0  0  0  0  0
   57.7730   30.5360   45.9540 C   0  0  0  0  0  0  0  0  0  0  0  0
   58.5170   31.5390   46.6270 C   0  0  0  0  0  0  0  0  0  0  0  0
   58.5551   27.8608   44.8940 H   0  0  0  0  0  0  0  0  0  0  0  0
   59.2758   29.0963   43.8074 H   0  0  0  0  0  0  0  0  0  0  0  0
   59.9150   27.4175   43.8074 H   0  0  0  0  0  0  0  0  0  0  0  0
   61.4574   28.1358   45.2923 H   0  0  0  0  0  0  0  0  0  0  0  0
   60.5530   29.6937   45.5498 H   0  0  0  0  0  0  0  0  0  0  0  0
   58.9524   27.9689   46.9036 H   0  0  0  0  0  0  0  0  0  0  0  0
   60.5895   27.1988   47.1416 H   0  0  0  0  0  0  0  0  0  0  0  0
   60.7570   28.5846   48.9113 H   0  0  0  0  0  0  0  0  0  0  0  0
   61.1241   29.8386   47.6397 H   0  0  0  0  0  0  0  0  0  0  0  0
   58.2394   29.4323   48.2117 H   0  0  0  0  0  0  0  0  0  0  0  0
   59.2188   30.1178   49.5725 H   0  0  0  0  0  0  0  0  0  0  0  0
   60.2979   32.1057   49.4396 H   0  0  0  0  0  0  0  0  0  0  0  0
   60.9712   35.4681   47.9052 H   0  0  0  0  0  0  0  0  0  0  0  0
   60.4215   34.8887   49.5163 H   0  0  0  0  0  0  0  0  0  0  0  0
   62.1925   34.3579   50.9469 H   0  0  0  0  0  0  0  0  0  0  0  0
   64.3877   33.2308   51.3489 H   0  0  0  0  0  0  0  0  0  0  0  0
   65.6311   32.2326   49.4255 H   0  0  0  0  0  0  0  0  0  0  0  0
   64.6730   32.3690   47.2070 H   0  0  0  0  0  0  0  0  0  0  0  0
   62.5531   33.4388   46.7310 H   0  0  0  0  0  0  0  0  0  0  0  0
   58.0715   34.0582   44.3193 H   0  0  0  0  0  0  0  0  0  0  0  0
   56.7794   32.2705   43.1838 H   0  0  0  0  0  0  0  0  0  0  0  0
   55.6706   28.8915   42.3340 H   0  0  0  0  0  0  0  0  0  0  0  0
   55.9328   30.6632   42.1971 H   0  0  0  0  0  0  0  0  0  0  0  0
   57.3383   29.5446   42.1971 H   0  0  0  0  0  0  0  0  0  0  0  0
   57.6807   29.5373   46.4057 H   0  0  0  0  0  0  0  0  0  0  0  0
  1  2  1  0
  2  3  1  0
  3  4  1  0
  4  5  1  0
  5  6  1  0
  6  7  1  0
  7  8  2  0
  8  9  1  0
  9 10  1  0
 10 11  2  0
 11 12  1  0
 12 13  2  0
 13 14  1  0
 14 15  2  0
  8 16  1  0
 16 17  2  0
 16 18  1  0
 18 19  2  0
 19 20  1  0
 20 21  2  0
 21 22  1  0
 22 23  1  0
 21 24  1  0
 24 25  2  0
 25  6  1  0
 15 10  1  0
 25 18  1  0
  1 26  1  0
  1 27  1  0
  1 28  1  0
  2 29  1  0
  2 30  1  0
  3 31  1  0
  3 32  1  0
  4 33  1  0
  4 34  1  0
  5 35  1  0
  5 36  1  0
  7 37  1  0
  9 38  1  0
  9 39  1  0
 11 40  1  0
 12 41  1  0
 13 42  1  0
 14 43  1  0
 15 44  1  0
 19 45  1  0
 20 46  1  0
 23 47  1  0
 23 48  1  0
 23 49  1  0
 24 50  1  0
M  CHG  1  14   1
M  END
>  <UniqueID>  (19) 
19

>  <SMILES>  (19) 
CCCCCn1cc(Cc2ccc[nH+]c2)c(=O)c2ccc(OC)cc21

>  <Energy>  (19) 
52.660527966998266

>  <Genealogy>  (19) 
CCCCCn1cc(Cc2ccc[nH+]c2)c(=O)c2ccc(OC)cc21 (protonated)
CCCCCn1cc(Cc2ccc[nH+]c2)c(=O)c2ccc(OC)cc21 (3D coordinates assigned)
CCCCCn1cc(Cc2ccc[nH+]c2)c(=O)c2ccc(OC)cc21 (optimized conformer: 52.660527966998266 kcal/mol)

>  <smiles>  (19) 
CCCCCn1cc(Cc2cccnc2)c(=O)c2ccc(OC)cc21

>  <score_type>  (19) 
oracle

>  <origin>  (19) 
adg

>  <m_score__min__energy>  (19) 
-6.1500000000000004

>  <m_primary>  (19) 
energy

$$$$
19:0
     RDKit          3D

 59 62  0  0  0  0  0  0  0  0999 V2000
   57.4900   26.1880   45.1910 C   0  0  0  0  0  0  0  0  0  0  0  0
   56.7300   27.4460   45.6320 C   0  0  0  0  0  0  0  0  0  0  0  0
   57.2540   28.7260   45.0940 N   0  0  0  0  0  0  0  0  0  0  0  0
   56.1210   29.4870   44.4690 C   0  0  0  0  0  0  0  0  0  0  0  0
   56.3340   30.0750   43.0630 C   0  0  0  0  0  0  0  0  0  0  0  0
   58.4850   28.5820   44.2740 C   0  0  0  0  0  0  0  0  0  0  0  0
   59.7520   28.8740   45.1260 C   0  0  0  0  0  0  0  0  0  0  0  0
   59.5570   28.6360   46.6370 C   0  0  0  0  0  0  0  0  0  0  0  0
   58.7700   29.7000   47.2980 N   0  0  0  0  0  0  0  0  0  0  0  0
   59.4790   30.9790   47.3270 C   0  0  0  0  0  0  0  0  0  0  0  0
   59.0610   32.0460   46.4840 C   0  0  0  0  0  0  0  0  0  0  0  0
   57.8870   31.9600   45.6940 C   0  0  0  0  0  0  0  0  0  0  0  0
   57.5280   32.9840   44.8220 C   0  0  0  0  0  0  0  0  0  0  0  0
   58.3230   34.1190   44.7170 C   0  0  0  0  0  0  0  0  0  0  0  0
   59.4820   34.2380   45.4860 C   0  0  0  0  0  0  0  0  0  0  0  0
   59.8620   33.2180   46.3890 C   0  0  0  0  0  0  0  0  0  0  0  0
   61.0150   33.3270   47.1390 N   0  0  0  0  0  0  0  0  0  0  0  0
   62.1090   34.2140   46.6750 C   0  0  0  0  0  0  0  0  0  0  0  0
   61.1990   32.4900   48.2130 C   0  0  0  0  0  0  0  0  0  0  0  0
   60.5770   31.2100   48.2060 C   0  0  0  0  0  0  0  0  0  0  0  0
   61.1150   30.2020   49.0410 C   0  0  0  0  0  0  0  0  0  0  0  0
   62.1910   30.4580   49.8910 C   0  0  0  0  0  0  0  0  0  0  0  0
   62.6740   31.7610   50.0370 C   0  0  0  0  0  0  0  0  0  0  0  0
   63.6840   32.0400   50.9730 C   0  0  0  0  0  0  0  0  0  0  0  0
   64.0760   33.3620   51.2020 C   0  0  0  0  0  0  0  0  0  0  0  0
   63.4220   34.4080   50.5440 C   0  0  0  0  0  0  0  0  0  0  0  0
   62.4120   34.1350   49.6120 C   0  0  0  0  0  0  0  0  0  0  0  0
   62.1070   32.8050   49.2640 C   0  0  0  0  0  0  0  0  0  0  0  0
   57.8257   25.6323   46.0790 H   0  0  0  0  0  0  0  0  0  0  0  0
   56.8258   25.5505   44.5890 H   0  0  0  0  0  0  0  0  0  0  0  0
   58.3633   26.4794   44.5890 H   0  0  0  0  0  0  0  0  0  0  0  0
   55.6846   27.3431   45.3057 H   0  0  0  0  0  0  0  0  0  0  0  0
   56.8477   27.5047   46.7241 H   0  0  0  0  0  0  0  0  0  0  0  0
   55.2609   28.8038   44.4109 H   0  0  0  0  0  0  0  0  0  0  0  0
   55.9899   30.3660   45.1173 H   0  0  0  0  0  0  0  0  0  0  0  0
   56.7075   31.1060   43.1495 H   0  0  0  0  0  0  0  0  0  0  0  0
   57.0678   29.4637   42.5172 H   0  0  0  0  0  0  0  0  0  0  0  0
   55.3789   30.0755   42.5172 H   0  0  0  0  0  0  0  0  0  0  0  0
   58.5410   27.5548   43.8845 H   0  0  0  0  0  0  0  0  0  0  0  0
   58.4432   29.3036   43.4448 H   0  0  0  0  0  0  0  0  0  0  0  0
   60.5640   28.2206   44.7744 H   0  0  0  0  0  0  0  0  0  0  0  0
   59.9838   29.9417   44.9981 H   0  0  0  0  0  0  0  0  0  0  0  0
   59.0348   27.6778   46.7754 H   0  0  0  0  0  0  0  0  0  0  0  0
   60.5553   28.6332   47.0989 H   0  0  0  0  0  0  0  0  0  0  0  0
   57.8100   29.7710   46.9030 H   0  0  0  0  0  0  0  0  0  0  0  0
   58.5620   29.4040   48.2790 H   0  0  0  0  0  0  0  0  0  0  0  0
   57.2481   31.0679   45.7715 H   0  0  0  0  0  0  0  0  0  0  0  0
   56.6145   32.8947   44.2157 H   0  0  0  0  0  0  0  0  0  0  0  0
   58.0382   34.9260   44.0259 H   0  0  0  0  0  0  0  0  0  0  0  0
   60.1081   35.1371   45.3883 H   0  0  0  0  0  0  0  0  0  0  0  0
   62.6316   34.6377   47.5453 H   0  0  0  0  0  0  0  0  0  0  0  0
   62.8191   33.6335   46.0678 H   0  0  0  0  0  0  0  0  0  0  0  0
   61.6878   35.0288   46.0678 H   0  0  0  0  0  0  0  0  0  0  0  0
   60.6749   29.1941   49.0193 H   0  0  0  0  0  0  0  0  0  0  0  0
   62.6600   29.6329   50.4472 H   0  0  0  0  0  0  0  0  0  0  0  0
   64.1656   31.2193   51.5248 H   0  0  0  0  0  0  0  0  0  0  0  0
   64.8984   33.5793   51.8994 H   0  0  0  0  0  0  0  0  0  0  0  0
   63.7016   35.4499   50.7589 H   0  0  0  0  0  0  0  0  0  0  0  0
   61.8548   34.9633   49.1501 H   0  0  0  0  0  0  0  0  0  0  0  0
  1  2  1  0
  2  3  1  0
  3  4  1  0
  4  5  1  0
  3  6  1  0
  6  7  1  0
  7  8  1  0
  8  9  1  0
  9 10  1  0
 10 11  2  0
 11 12  1  0
 12 13  2  0
 13 14  1  0
 14 15  2  0
 15 16  1  0
 16 17  2  0
 17 18  1  0
 17 19  1  0
 19 20  2  0
 20 21  1  0
 21 22  2  0
 22 23  1  0
 23 24  2  0
 24 25  1  0
 25 26  2  0
 26 27  1  0
 27 28  2  0
 20 10  1  0
 28 23  1  0
 16 11  1  0
 28 19  1  0
  1 29  1  0
  1 30  1  0
  1 31  1  0
  2 32  1  0
  2 33  1  0
  4 34  1  0
  4 35  1  0
  5 36  1  0
  5 37  1  0
  5 38  1  0
  6 39  1  0
  6 40  1  0
  7 41  1  0
  7 42  1  0
  8 43  1  0
  8 44  1  0
  9 45  1  0
  9 46  1  0
 12 47  1  0
 13 48  1  0
 14 49  1  0
 15 50  1  0
 18 51  1  0
 18 52  1  0
 18 53  1  0
 21 54  1  0
 22 55  1  0
 24 56  1  0
 25 57  1  0
 26 58  1  0
 27 59  1  0
M  CHG  2   9   1  17   1
M  END
>  <UniqueID>  (20) 
20

>  <SMILES>  (20) 
CCN(CC)CCC[NH2+]c1c2ccccc2[n+](C)c2c1ccc1ccccc12

>  <Energy>  (20) 
121.61768137676945

>  <Genealogy>  (20) 
CCN(CC)CCC[NH2+]c1c2ccccc2[n+](C)c2c1ccc1ccccc12 (protonated)
CCN(CC)CCC[NH2+]c1c2ccccc2[n+](C)c2c1ccc1ccccc12 (3D coordinates assigned)
CCN(CC)CCC[NH2+]c1c2ccccc2[n+](C)c2c1ccc1ccccc12 (optimized conformer: 121.61768137676945 kcal/mol)

>  <smiles>  (20) 
CCN(CC)CCCNc1c2ccccc2[n+](C)c2c1ccc1ccccc12

>  <score_type>  (20) 
oracle

>  <origin>  (20) 
adg

>  <m_score__min__energy>  (20) 
-5.2699999999999996

>  <m_primary>  (20) 
energy

$$$$
20:0
     RDKit          3D

 55 57  0  0  0  0  0  0  0  0999 V2000
   57.2492   29.7111   42.6203 H   0  0  0  0  0  0  0  0  0  0  0  0
   57.2640   29.5010   43.7000 C   0  0  0  0  0  0  0  0  0  0  0  0
   56.1620   30.0650   44.5070 C   0  0  0  0  0  0  0  0  0  0  0  0
   55.1930   29.3500   44.8760 O   0  0  0  0  0  0  0  0  0  0  0  0
   56.2200   31.4520   44.8600 N   0  0  0  0  0  0  0  0  0  0  0  0
   57.3820   32.2060   45.2370 C   0  0  0  0  0  0  0  0  0  0  0  0
   57.4880   33.6020   44.9970 C   0  0  0  0  0  0  0  0  0  0  0  0
   56.6516   34.1385   44.5253 H   0  0  0  0  0  0  0  0  0  0  0  0
   58.6500   34.3040   45.3560 C   0  0  0  0  0  0  0  0  0  0  0  0
   58.7258   35.3875   45.1820 H   0  0  0  0  0  0  0  0  0  0  0  0
   59.7060   33.6030   45.9370 C   0  0  0  0  0  0  0  0  0  0  0  0
   60.8790   34.1660   46.3240 N   0  0  0  0  0  0  0  0  0  0  0  0
   61.7070   33.2320   46.8490 C   0  0  0  0  0  0  0  0  0  0  0  0
   63.3270   33.6160   47.5080 S   0  0  0  0  0  0  0  0  0  0  0  0
   62.7300   33.8140   49.2240 C   0  0  0  0  0  0  0  0  0  0  0  0
   61.8593   34.4862   49.2254 H   0  0  0  0  0  0  0  0  0  0  0  0
   63.5463   34.2343   49.8298 H   0  0  0  0  0  0  0  0  0  0  0  0
   62.3280   32.4870   49.8200 C   0  0  0  0  0  0  0  0  0  0  0  0
   63.2400   31.6450   50.0550 O   0  0  0  0  0  0  0  0  0  0  0  0
   60.9450   32.1200   50.0590 N   0  0  0  0  0  0  0  0  0  0  0  0
   60.6320   30.7720   50.5590 C   0  0  0  0  0  0  0  0  0  0  0  0
   59.5976   30.7559   50.9329 H   0  0  0  0  0  0  0  0  0  0  0  0
   61.3325   30.5219   51.3694 H   0  0  0  0  0  0  0  0  0  0  0  0
   60.7790   29.7400   49.4440 C   0  0  0  0  0  0  0  0  0  0  0  0
   60.9211   28.7421   49.8844 H   0  0  0  0  0  0  0  0  0  0  0  0
   59.8717   29.7404   48.8220 H   0  0  0  0  0  0  0  0  0  0  0  0
   61.6501   29.9938   48.8220 H   0  0  0  0  0  0  0  0  0  0  0  0
   59.8360   33.0680   49.8680 C   0  0  0  0  0  0  0  0  0  0  0  0
   59.6088   33.5564   50.8271 H   0  0  0  0  0  0  0  0  0  0  0  0
   60.1351   33.8176   49.1206 H   0  0  0  0  0  0  0  0  0  0  0  0
   58.5910   32.3440   49.3670 C   0  0  0  0  0  0  0  0  0  0  0  0
   57.9971   31.9986   50.2260 H   0  0  0  0  0  0  0  0  0  0  0  0
   57.9874   33.0320   48.7568 H   0  0  0  0  0  0  0  0  0  0  0  0
   58.8904   31.4791   48.7568 H   0  0  0  0  0  0  0  0  0  0  0  0
   61.0280   31.6820   46.8480 S   0  0  0  0  0  0  0  0  0  0  0  0
   59.6080   32.2400   46.1480 C   0  0  0  0  0  0  0  0  0  0  0  0
   58.4670   31.5190   45.8060 C   0  0  0  0  0  0  0  0  0  0  0  0
   58.4163   30.4337   45.9779 H   0  0  0  0  0  0  0  0  0  0  0  0
   58.2820   28.7560   44.1610 C   0  0  0  0  0  0  0  0  0  0  0  0
   59.2588   28.8850   43.6719 H   0  0  0  0  0  0  0  0  0  0  0  0
   58.2070   27.7790   45.2660 C   0  0  0  0  0  0  0  0  0  0  0  0
   59.3300   27.4830   46.0560 C   0  0  0  0  0  0  0  0  0  0  0  0
   60.2774   28.0141   45.8818 H   0  0  0  0  0  0  0  0  0  0  0  0
   59.2490   26.5170   47.0620 C   0  0  0  0  0  0  0  0  0  0  0  0
   60.1269   26.3024   47.6891 H   0  0  0  0  0  0  0  0  0  0  0  0
   58.0550   25.8230   47.2730 C   0  0  0  0  0  0  0  0  0  0  0  0
   57.9916   25.0719   48.0742 H   0  0  0  0  0  0  0  0  0  0  0  0
   56.9320   26.0820   46.4630 C   0  0  0  0  0  0  0  0  0  0  0  0
   55.7160   25.3990   46.6220 O   0  0  0  0  0  0  0  0  0  0  0  0
   55.1510   24.5270   45.6490 C   0  0  0  0  0  0  0  0  0  0  0  0
   54.6200   23.7075   46.1554 H   0  0  0  0  0  0  0  0  0  0  0  0
   54.4444   25.0882   45.0199 H   0  0  0  0  0  0  0  0  0  0  0  0
   55.9520   24.1115   45.0199 H   0  0  0  0  0  0  0  0  0  0  0  0
   57.0220   27.0560   45.4600 C   0  0  0  0  0  0  0  0  0  0  0  0
   56.1522   27.2557   44.8170 H   0  0  0  0  0  0  0  0  0  0  0  0
  1  2  1  0
  2  3  1  0
  3  4  2  0
  3  5  1  0
  5  6  1  0
  6  7  2  0
  7  8  1  0
  7  9  1  0
  9 10  1  0
  9 11  2  0
 11 12  1  0
 12 13  2  0
 13 14  1  0
 14 15  1  0
 15 16  1  0
 15 17  1  0
 15 18  1  0
 18 19  2  0
 18 20  1  0
 20 21  1  0
 21 22  1  0
 21 23  1  0
 21 24  1  0
 24 25  1  0
 24 26  1  0
 24 27  1  0
 20 28  1  0
 28 29  1  0
 28 30  1  0
 28 31  1  0
 31 32  1  0
 31 33  1  0
 31 34  1  0
 13 35  1  0
 35 36  1  0
 36 37  2  0
 37 38  1  0
  2 39  2  0
 39 40  1  0
 39 41  1  0
 41 42  2  0
 42 43  1  0
 42 44  1  0
 44 45  1  0
 44 46  2  0
 46 47  1  0
 46 48  1  0
 48 49  1  0
 49 50  1  0
 50 51  1  0
 50 52  1  0
 50 53  1  0
 48 54  2  0
 54 55  1  0
 37  6  1  0
 54 41  1  0
 36 11  1  0
M  CHG  1   5  -1
M  END
>  <UniqueID>  (21) 
21

>  <SMILES>  (21) 
CCN(CC)C(=O)CSc1nc2ccc([N-]C(=O)/C=C\c3cccc(OC)c3)cc2s1

>  <Energy>  (21) 
90.91155635672315

>  <Genealogy>  (21) 
CCN(CC)C(=O)CSc1nc2ccc([N-]C(=O)C=Cc3cccc(OC)c3)cc2s1 (protonated)
CCN(CC)C(=O)CSc1nc2ccc([N-]C(=O)/C=C\c3cccc(OC)c3)cc2s1 (cis-trans isomerization)
CCN(CC)C(=O)CSc1nc2ccc([N-]C(=O)/C=C\c3cccc(OC)c3)cc2s1 (3D coordinates assigned)
CCN(CC)C(=O)CSc1nc2ccc([N-]C(=O)/C=C\c3cccc(OC)c3)cc2s1 (optimized conformer: 90.91155635672315 kcal/mol)

>  <smiles>  (21) 
CCN(CC)C(=O)CSc1nc2ccc(NC(=O)C=Cc3cccc(OC)c3)cc2s1

>  <score_type>  (21) 
oracle

>  <origin>  (21) 
adg

>  <m_score__min__energy>  (21) 
-10.51

>  <m_primary>  (21) 
energy

$$$$
21:0
     RDKit          3D

 54 57  0  0  0  0  0  0  0  0999 V2000
   65.1620   32.5780   50.1420 C   0  0  0  0  0  0  0  0  0  0  0  0
   63.8110   33.1930   50.5080 C   0  0  0  0  0  0  0  0  0  0  0  0
   62.8450   33.0940   49.3900 N   0  0  0  0  0  0  0  0  0  0  0  0
   61.9330   34.2660   49.3440 C   0  0  0  0  0  0  0  0  0  0  0  0
   60.5340   33.8500   49.7840 C   0  0  0  0  0  0  0  0  0  0  0  0
   63.5670   32.9020   48.1080 C   0  0  0  0  0  0  0  0  0  0  0  0
   62.7420   32.0620   47.1100 C   0  0  0  0  0  0  0  0  0  0  0  0
   61.4450   31.6660   47.6600 N   0  0  0  0  0  0  0  0  0  0  0  0
   60.3340   31.4190   46.7900 C   0  0  0  0  0  0  0  0  0  0  0  0
   59.8670   30.1220   46.6010 C   0  0  0  0  0  0  0  0  0  0  0  0
   58.7590   29.8770   45.8140 C   0  0  0  0  0  0  0  0  0  0  0  0
   58.1500   30.8690   45.0870 N   0  0  0  0  0  0  0  0  0  0  0  0
   57.1920   30.5230   44.0230 C   0  0  0  0  0  0  0  0  0  0  0  0
   58.5100   32.1840   45.3330 C   0  0  0  0  0  0  0  0  0  0  0  0
   57.7860   33.2710   44.7860 C   0  0  0  0  0  0  0  0  0  0  0  0
   58.1830   34.5890   45.0170 C   0  0  0  0  0  0  0  0  0  0  0  0
   59.3000   34.8600   45.8020 C   0  0  0  0  0  0  0  0  0  0  0  0
   60.0170   33.8160   46.3840 C   0  0  0  0  0  0  0  0  0  0  0  0
   59.6290   32.4780   46.1790 C   0  0  0  0  0  0  0  0  0  0  0  0
   58.4320   28.4500   45.9350 C   0  0  0  0  0  0  0  0  0  0  0  0
   57.3080   27.7140   45.5300 C   0  0  0  0  0  0  0  0  0  0  0  0
   57.2330   26.3540   45.8720 C   0  0  0  0  0  0  0  0  0  0  0  0
   58.2440   25.7570   46.6450 C   0  0  0  0  0  0  0  0  0  0  0  0
   59.3270   26.5210   47.1020 C   0  0  0  0  0  0  0  0  0  0  0  0
   59.3950   27.8690   46.7460 C   0  0  0  0  0  0  0  0  0  0  0  0
   60.3980   28.8670   47.2250 C   0  0  0  0  0  0  0  0  0  0  0  0
   65.7120   32.3276   51.0612 H   0  0  0  0  0  0  0  0  0  0  0  0
   65.0009   31.6645   49.5508 H   0  0  0  0  0  0  0  0  0  0  0  0
   65.7451   33.2994   49.5508 H   0  0  0  0  0  0  0  0  0  0  0  0
   63.4022   32.6626   51.3807 H   0  0  0  0  0  0  0  0  0  0  0  0
   63.9681   34.2582   50.7331 H   0  0  0  0  0  0  0  0  0  0  0  0
   62.3102   35.0488   50.0185 H   0  0  0  0  0  0  0  0  0  0  0  0
   61.8900   34.6522   48.3149 H   0  0  0  0  0  0  0  0  0  0  0  0
   60.4844   33.8353   50.8828 H   0  0  0  0  0  0  0  0  0  0  0  0
   59.7980   34.5682   49.3934 H   0  0  0  0  0  0  0  0  0  0  0  0
   60.3100   32.8464   49.3934 H   0  0  0  0  0  0  0  0  0  0  0  0
   63.7707   33.8868   47.6624 H   0  0  0  0  0  0  0  0  0  0  0  0
   64.5031   32.3639   48.3182 H   0  0  0  0  0  0  0  0  0  0  0  0
   62.5741   32.6570   46.2002 H   0  0  0  0  0  0  0  0  0  0  0  0
   63.3094   31.1456   46.8902 H   0  0  0  0  0  0  0  0  0  0  0  0
   61.2400   31.7930   48.6770 H   0  0  0  0  0  0  0  0  0  0  0  0
   56.2489   30.1824   44.4753 H   0  0  0  0  0  0  0  0  0  0  0  0
   57.0007   31.4088   43.3995 H   0  0  0  0  0  0  0  0  0  0  0  0
   57.6109   29.7194   43.3995 H   0  0  0  0  0  0  0  0  0  0  0  0
   56.8967   33.0736   44.1693 H   0  0  0  0  0  0  0  0  0  0  0  0
   57.6100   35.4181   44.5763 H   0  0  0  0  0  0  0  0  0  0  0  0
   59.6177   35.9007   45.9635 H   0  0  0  0  0  0  0  0  0  0  0  0
   60.8940   34.0394   47.0092 H   0  0  0  0  0  0  0  0  0  0  0  0
   56.5013   28.1930   44.9558 H   0  0  0  0  0  0  0  0  0  0  0  0
   56.3773   25.7518   45.5327 H   0  0  0  0  0  0  0  0  0  0  0  0
   58.1852   24.6867   46.8922 H   0  0  0  0  0  0  0  0  0  0  0  0
   60.1083   26.0668   47.7292 H   0  0  0  0  0  0  0  0  0  0  0  0
   60.4093   28.9344   48.3229 H   0  0  0  0  0  0  0  0  0  0  0  0
   61.4385   28.6308   46.9575 H   0  0  0  0  0  0  0  0  0  0  0  0
  1  2  1  0
  2  3  1  0
  3  4  1  0
  4  5  1  0
  3  6  1  0
  6  7  1  0
  7  8  1  0
  8  9  1  0
  9 10  2  0
 10 11  1  0
 11 12  2  0
 12 13  1  0
 12 14  1  0
 14 15  2  0
 15 16  1  0
 16 17  2  0
 17 18  1  0
 18 19  2  0
 11 20  1  0
 20 21  2  0
 21 22  1  0
 22 23  2  0
 23 24  1  0
 24 25  2  0
 25 26  1  0
 19  9  1  0
 25 20  1  0
 26 10  1  0
 19 14  1  0
  1 27  1  0
  1 28  1  0
  1 29  1  0
  2 30  1  0
  2 31  1  0
  4 32  1  0
  4 33  1  0
  5 34  1  0
  5 35  1  0
  5 36  1  0
  6 37  1  0
  6 38  1  0
  7 39  1  0
  7 40  1  0
  8 41  1  0
 13 42  1  0
 13 43  1  0
 13 44  1  0
 15 45  1  0
 16 46  1  0
 17 47  1  0
 18 48  1  0
 21 49  1  0
 22 50  1  0
 23 51  1  0
 24 52  1  0
 26 53  1  0
 26 54  1  0
M  CHG  1  12   1
M  END
>  <UniqueID>  (22) 
22

>  <SMILES>  (22) 
CCN(CC)CCNc1c2c([n+](C)c3ccccc13)-c1ccccc1C2

>  <Energy>  (22) 
100.27156693862418

>  <Genealogy>  (22) 
CCN(CC)CCNc1c2c([n+](C)c3ccccc13)-c1ccccc1C2 (3D coordinates assigned)
CCN(CC)CCNc1c2c([n+](C)c3ccccc13)-c1ccccc1C2 (nonaromatic ring conformer: 100.27156693862418 kcal/mol)

>  <smiles>  (22) 
CCN(CC)CCNc1c2c([n+](C)c3ccccc13)-c1ccccc1C2

>  <score_type>  (22) 
oracle

>  <origin>  (22) 
adg

>  <m_score__min__energy>  (22) 
-6.1100000000000003

>  <m_primary>  (22) 
energy

$$$$
22:0
     RDKit          3D

 66 69  0  0  0  0  0  0  0  0999 V2000
   57.8290   25.4250   45.2490 C   0  0  0  0  0  0  0  0  0  0  0  0
   57.2350   26.0730   46.4890 C   0  0  0  0  0  0  0  0  0  0  0  0
   58.2700   26.6630   47.2470 O   0  0  0  0  0  0  0  0  0  0  0  0
   59.5300   26.4230   46.6470 C   0  0  0  0  0  0  0  0  0  0  0  0
   60.5080   27.5640   46.9450 C   0  0  0  0  0  0  0  0  0  0  0  0
   60.2130   28.1820   48.2420 N   0  0  0  0  0  0  0  0  0  0  0  0
   59.5020   29.4610   48.3240 C   0  0  0  0  0  0  0  0  0  0  0  0
   60.2290   30.4630   49.2860 C   0  0  1  0  0  0  0  0  0  0  0  0
   60.9280   29.7140   50.4890 C   0  0  0  0  0  0  0  0  0  0  0  0
   60.3790   28.3070   50.7460 C   0  0  0  0  0  0  0  0  0  0  0  0
   60.5170   27.5250   49.4820 C   0  0  0  0  0  0  0  0  0  0  0  0
   60.9230   26.3290   49.5070 O   0  0  0  0  0  0  0  0  0  0  0  0
   61.3120   31.2530   48.4770 C   0  0  0  0  0  0  0  0  0  0  0  0
   60.7790   32.6010   47.9740 C   0  0  0  0  0  0  0  0  0  0  0  0
   60.4570   33.5020   49.1110 N   0  0  1  0  0  0  0  0  0  0  0  0
   59.6870   34.6720   48.6220 C   0  0  0  0  0  0  0  0  0  0  0  0
   59.1750   34.4650   47.2120 C   0  0  0  0  0  0  0  0  0  0  0  0
   59.6640   35.2490   46.1530 C   0  0  0  0  0  0  0  0  0  0  0  0
   59.2230   35.0220   44.8480 C   0  0  0  0  0  0  0  0  0  0  0  0
   58.2980   34.0100   44.5860 C   0  0  0  0  0  0  0  0  0  0  0  0
   57.8050   33.2150   45.6320 C   0  0  0  0  0  0  0  0  0  0  0  0
   56.8760   32.1910   45.4000 O   0  0  0  0  0  0  0  0  0  0  0  0
   57.1680   30.9610   44.7900 C   0  0  0  0  0  0  0  0  0  0  0  0
   56.3890   30.5450   43.7000 C   0  0  0  0  0  0  0  0  0  0  0  0
   56.6340   29.3120   43.0850 C   0  0  0  0  0  0  0  0  0  0  0  0
   57.6480   28.4770   43.5650 C   0  0  0  0  0  0  0  0  0  0  0  0
   58.4210   28.8760   44.6590 C   0  0  0  0  0  0  0  0  0  0  0  0
   58.1810   30.1100   45.2740 C   0  0  0  0  0  0  0  0  0  0  0  0
   58.2240   33.4650   46.9430 C   0  0  0  0  0  0  0  0  0  0  0  0
   59.7660   32.8070   50.2420 C   0  0  0  0  0  0  0  0  0  0  0  0
   59.1550   31.4510   49.8450 C   0  0  0  0  0  0  0  0  0  0  0  0
   58.5440   24.6450   45.5497 H   0  0  0  0  0  0  0  0  0  0  0  0
   57.0244   24.9736   44.6500 H   0  0  0  0  0  0  0  0  0  0  0  0
   58.3485   26.1874   44.6500 H   0  0  0  0  0  0  0  0  0  0  0  0
   56.5121   26.8461   46.1894 H   0  0  0  0  0  0  0  0  0  0  0  0
   56.7227   25.3107   47.0943 H   0  0  0  0  0  0  0  0  0  0  0  0
   59.9431   25.4832   47.0421 H   0  0  0  0  0  0  0  0  0  0  0  0
   59.3917   26.3563   45.5578 H   0  0  0  0  0  0  0  0  0  0  0  0
   61.5328   27.1647   46.9613 H   0  0  0  0  0  0  0  0  0  0  0  0
   60.4054   28.3282   46.1605 H   0  0  0  0  0  0  0  0  0  0  0  0
   59.4489   29.9053   47.3191 H   0  0  0  0  0  0  0  0  0  0  0  0
   58.4945   29.2704   48.7222 H   0  0  0  0  0  0  0  0  0  0  0  0
   62.0026   29.6318   50.2686 H   0  0  0  0  0  0  0  0  0  0  0  0
   60.7272   30.3059   51.3942 H   0  0  0  0  0  0  0  0  0  0  0  0
   60.9525   27.8227   51.5501 H   0  0  0  0  0  0  0  0  0  0  0  0
   59.3241   28.3566   51.0537 H   0  0  0  0  0  0  0  0  0  0  0  0
   62.1802   31.4341   49.1277 H   0  0  0  0  0  0  0  0  0  0  0  0
   61.5922   30.6487   47.6016 H   0  0  0  0  0  0  0  0  0  0  0  0
   61.5433   33.0774   47.3424 H   0  0  0  0  0  0  0  0  0  0  0  0
   59.8600   32.4220   47.3965 H   0  0  0  0  0  0  0  0  0  0  0  0
   61.3750   33.8530   49.4740 H   0  0  0  0  0  0  0  0  0  0  0  0
   58.8293   34.8373   49.2906 H   0  0  0  0  0  0  0  0  0  0  0  0
   60.3595   35.5425   48.6149 H   0  0  0  0  0  0  0  0  0  0  0  0
   60.3969   36.0444   46.3531 H   0  0  0  0  0  0  0  0  0  0  0  0
   59.6055   35.6423   44.0240 H   0  0  0  0  0  0  0  0  0  0  0  0
   57.9543   33.8350   43.5558 H   0  0  0  0  0  0  0  0  0  0  0  0
   55.5811   31.1915   43.3267 H   0  0  0  0  0  0  0  0  0  0  0  0
   56.0277   28.9990   42.2222 H   0  0  0  0  0  0  0  0  0  0  0  0
   57.8371   27.5070   43.0819 H   0  0  0  0  0  0  0  0  0  0  0  0
   59.2187   28.2195   45.0369 H   0  0  0  0  0  0  0  0  0  0  0  0
   58.7864   30.4170   46.1396 H   0  0  0  0  0  0  0  0  0  0  0  0
   57.8056   32.8739   47.7710 H   0  0  0  0  0  0  0  0  0  0  0  0
   60.4973   32.6378   51.0461 H   0  0  0  0  0  0  0  0  0  0  0  0
   58.9371   33.4549   50.5631 H   0  0  0  0  0  0  0  0  0  0  0  0
   58.6859   31.0001   50.7319 H   0  0  0  0  0  0  0  0  0  0  0  0
   58.4157   31.6322   49.0509 H   0  0  0  0  0  0  0  0  0  0  0  0
  1  2  1  0
  2  3  1  0
  3  4  1  0
  4  5  1  0
  5  6  1  0
  6  7  1  0
  8  7  1  6
  8  9  1  0
  9 10  1  0
 10 11  1  0
 11 12  2  0
  8 13  1  0
 13 14  1  0
 14 15  1  0
 15 16  1  0
 16 17  1  0
 17 18  2  0
 18 19  1  0
 19 20  2  0
 20 21  1  0
 21 22  1  0
 22 23  1  0
 23 24  2  0
 24 25  1  0
 25 26  2  0
 26 27  1  0
 27 28  2  0
 21 29  2  0
 15 30  1  0
 30 31  1  0
 11  6  1  0
 29 17  1  0
 31  8  1  0
 28 23  1  0
  1 32  1  0
  1 33  1  0
  1 34  1  0
  2 35  1  0
  2 36  1  0
  4 37  1  0
  4 38  1  0
  5 39  1  0
  5 40  1  0
  7 41  1  0
  7 42  1  0
  9 43  1  0
  9 44  1  0
 10 45  1  0
 10 46  1  0
 13 47  1  0
 13 48  1  0
 14 49  1  0
 14 50  1  0
 15 51  1  1
 16 52  1  0
 16 53  1  0
 18 54  1  0
 19 55  1  0
 20 56  1  0
 24 57  1  0
 25 58  1  0
 26 59  1  0
 27 60  1  0
 28 61  1  0
 29 62  1  0
 30 63  1  0
 30 64  1  0
 31 65  1  0
 31 66  1  0
M  CHG  1  15   1
M  END
>  <UniqueID>  (23) 
23

>  <SMILES>  (23) 
CCOCCN1CC2(CCC1=O)CC[NH+](Cc1cccc(Oc3ccccc3)c1)CC2

>  <Energy>  (23) 
87.75499599540495

>  <Genealogy>  (23) 
CCOCCN1CC2(CCC1=O)CC[NH+](Cc1cccc(Oc3ccccc3)c1)CC2 (protonated)
CCOCCN1CC2(CCC1=O)CC[NH+](Cc1cccc(Oc3ccccc3)c1)CC2 (3D coordinates assigned)
CCOCCN1CC2(CCC1=O)CC[NH+](Cc1cccc(Oc3ccccc3)c1)CC2 (nonaromatic ring conformer: 87.75499599540495 kcal/mol)

>  <smiles>  (23) 
CCOCCN1CC2(CCC1=O)CCN(Cc1cccc(Oc3ccccc3)c1)CC2

>  <score_type>  (23) 
oracle

>  <origin>  (23) 
adg

>  <m_score__min__energy>  (23) 
-7.5

>  <m_primary>  (23) 
energy

$$$$
23:0
     RDKit          3D

 46 49  0  0  0  0  0  0  0  0999 V2000
   57.1092   34.6987   44.9992 H   0  0  0  0  0  0  0  0  0  0  0  0
   57.7400   33.8000   45.0660 C   0  0  0  0  0  0  0  0  0  0  0  0
   57.7640   32.9840   44.0010 C   0  0  0  0  0  0  0  0  0  0  0  0
   57.9123   33.4448   43.0132 H   0  0  0  0  0  0  0  0  0  0  0  0
   57.6070   31.5160   44.0500 C   0  0  0  0  0  0  0  0  0  0  0  0
   56.7270   30.8480   43.1800 C   0  0  0  0  0  0  0  0  0  0  0  0
   56.1223   31.4237   42.4639 H   0  0  0  0  0  0  0  0  0  0  0  0
   56.6180   29.4550   43.2220 C   0  0  0  0  0  0  0  0  0  0  0  0
   55.9146   28.9384   42.5524 H   0  0  0  0  0  0  0  0  0  0  0  0
   57.4020   28.7180   44.1140 C   0  0  0  0  0  0  0  0  0  0  0  0
   57.3096   27.6225   44.1515 H   0  0  0  0  0  0  0  0  0  0  0  0
   58.3030   29.3720   44.9580 C   0  0  0  0  0  0  0  0  0  0  0  0
   58.9259   28.7901   45.6533 H   0  0  0  0  0  0  0  0  0  0  0  0
   58.4140   30.7660   44.9200 C   0  0  0  0  0  0  0  0  0  0  0  0
   59.1362   31.2763   45.5742 H   0  0  0  0  0  0  0  0  0  0  0  0
   58.4900   33.5910   46.3190 C   0  0  0  0  0  0  0  0  0  0  0  0
   57.9400   33.1980   47.4880 N   0  0  0  0  0  0  0  0  0  0  0  0
   59.0120   33.1020   48.2990 C   0  0  0  0  0  0  0  0  0  0  0  0
   58.8900   32.7960   49.7410 C   0  0  0  0  0  0  0  0  0  0  0  0
   59.2940   33.7490   50.6900 C   0  0  0  0  0  0  0  0  0  0  0  0
   59.6795   34.7241   50.3574 H   0  0  0  0  0  0  0  0  0  0  0  0
   59.2080   33.4630   52.0570 C   0  0  0  0  0  0  0  0  0  0  0  0
   59.5150   34.2177   52.7961 H   0  0  0  0  0  0  0  0  0  0  0  0
   58.7330   32.2210   52.4850 C   0  0  0  0  0  0  0  0  0  0  0  0
   58.6598   32.0006   53.5602 H   0  0  0  0  0  0  0  0  0  0  0  0
   58.3510   31.2590   51.5470 C   0  0  0  0  0  0  0  0  0  0  0  0
   57.9811   30.2795   51.8844 H   0  0  0  0  0  0  0  0  0  0  0  0
   58.4380   31.5390   50.1800 C   0  0  0  0  0  0  0  0  0  0  0  0
   58.1516   30.7726   49.4447 H   0  0  0  0  0  0  0  0  0  0  0  0
   60.1540   33.3960   47.6370 N   0  0  0  0  0  0  0  0  0  0  0  0
   61.5140   33.3070   48.0920 C   0  0  0  0  0  0  0  0  0  0  0  0
   61.9790   34.1870   49.0800 C   0  0  0  0  0  0  0  0  0  0  0  0
   61.2962   34.9333   49.5122 H   0  0  0  0  0  0  0  0  0  0  0  0
   63.3040   34.1220   49.5190 C   0  0  0  0  0  0  0  0  0  0  0  0
   63.6549   34.8090   50.3032 H   0  0  0  0  0  0  0  0  0  0  0  0
   64.1920   33.1820   48.9630 C   0  0  0  0  0  0  0  0  0  0  0  0
   65.5290   33.0740   49.3710 O   0  0  0  0  0  0  0  0  0  0  0  0
   65.9780   32.2510   50.4430 C   0  0  0  0  0  0  0  0  0  0  0  0
   65.7197   32.7244   51.4017 H   0  0  0  0  0  0  0  0  0  0  0  0
   65.4921   31.2663   50.3776 H   0  0  0  0  0  0  0  0  0  0  0  0
   67.0690   32.1266   50.3776 H   0  0  0  0  0  0  0  0  0  0  0  0
   63.7310   32.3190   47.9610 C   0  0  0  0  0  0  0  0  0  0  0  0
   64.4177   31.5837   47.5162 H   0  0  0  0  0  0  0  0  0  0  0  0
   62.4050   32.3840   47.5210 C   0  0  0  0  0  0  0  0  0  0  0  0
   62.0586   31.7093   46.7243 H   0  0  0  0  0  0  0  0  0  0  0  0
   59.8300   33.7010   46.3920 N   0  0  0  0  0  0  0  0  0  0  0  0
  1  2  1  0
  2  3  2  0
  3  4  1  0
  3  5  1  0
  5  6  2  0
  6  7  1  0
  6  8  1  0
  8  9  1  0
  8 10  2  0
 10 11  1  0
 10 12  1  0
 12 13  1  0
 12 14  2  0
 14 15  1  0
  2 16  1  0
 16 17  1  0
 17 18  2  0
 18 19  1  0
 19 20  2  0
 20 21  1  0
 20 22  1  0
 22 23  1  0
 22 24  2  0
 24 25  1  0
 24 26  1  0
 26 27  1  0
 26 28  2  0
 28 29  1  0
 18 30  1  0
 30 31  1  0
 31 32  2  0
 32 33  1  0
 32 34  1  0
 34 35  1  0
 34 36  2  0
 36 37  1  0
 37 38  1  0
 38 39  1  0
 38 40  1  0
 38 41  1  0
 36 42  1  0
 42 43  1  0
 42 44  2  0
 44 45  1  0
 30 46  1  0
 14  5  1  0
 46 16  2  0
 28 19  1  0
 44 31  1  0
M  END
>  <UniqueID>  (24) 
24

>  <SMILES>  (24) 
COc1ccc(-n2nc(/C=C\c3ccccc3)nc2-c2ccccc2)cc1

>  <Energy>  (24) 
98.3463698448093

>  <Genealogy>  (24) 
COc1ccc(-n2nc(/C=C\c3ccccc3)nc2-c2ccccc2)cc1 (cis-trans isomerization)
COc1ccc(-n2nc(/C=C\c3ccccc3)nc2-c2ccccc2)cc1 (3D coordinates assigned)
COc1ccc(-n2nc(/C=C\c3ccccc3)nc2-c2ccccc2)cc1 (optimized conformer: 98.3463698448093 kcal/mol)

>  <smiles>  (24) 
COc1ccc(-n2nc(C=Cc3ccccc3)nc2-c2ccccc2)cc1

>  <score_type>  (24) 
oracle

>  <origin>  (24) 
adg

>  <m_score__min__energy>  (24) 
-8.1500000000000004

>  <m_primary>  (24) 
energy

$$$$
24:0
     RDKit          3D

 40 41  0  0  0  0  0  0  0  0999 V2000
   56.7840   32.2320   42.4450 H   0  0  0  0  0  0  0  0  0  0  0  0
   57.0110   31.2180   42.3380 N   0  0  0  0  0  0  0  0  0  0  0  0
   57.0030   30.4080   43.3490 C   0  0  0  0  0  0  0  0  0  0  0  0
   58.2380   29.8910   43.8550 N   0  0  0  0  0  0  0  0  0  0  0  0
   59.1190   30.0650   43.3180 H   0  0  0  0  0  0  0  0  0  0  0  0
   58.2690   29.1730   45.1360 C   0  0  2  0  0  0  0  0  0  0  0  0
   58.5300   30.1850   46.2750 C   0  0  0  0  0  0  0  0  0  0  0  0
   58.5250   31.5830   46.0610 C   0  0  0  0  0  0  0  0  0  0  0  0
   58.3246   31.9697   45.0509 H   0  0  0  0  0  0  0  0  0  0  0  0
   58.7700   32.4930   47.1080 C   0  0  0  0  0  0  0  0  0  0  0  0
   58.7850   33.9190   46.8730 N   0  0  0  0  0  0  0  0  0  0  0  0
   58.8850   34.5640   47.6890 H   0  0  0  0  0  0  0  0  0  0  0  0
   58.6970   34.5510   45.5550 C   0  0  0  0  0  0  0  0  0  0  0  0
   58.7858   35.6412   45.6716 H   0  0  0  0  0  0  0  0  0  0  0  0
   59.5115   34.1646   44.9246 H   0  0  0  0  0  0  0  0  0  0  0  0
   57.3650   34.2270   44.8840 C   0  0  0  0  0  0  0  0  0  0  0  0
   56.6020   34.0414   45.6543 H   0  0  0  0  0  0  0  0  0  0  0  0
   57.0542   35.0757   44.2571 H   0  0  0  0  0  0  0  0  0  0  0  0
   57.4788   33.3303   44.2571 H   0  0  0  0  0  0  0  0  0  0  0  0
   58.9870   32.0050   48.4090 C   0  0  0  0  0  0  0  0  0  0  0  0
   59.2290   32.9200   49.4470 O   0  0  0  0  0  0  0  0  0  0  0  0
   58.8970   32.7020   50.8150 C   0  0  0  0  0  0  0  0  0  0  0  0
   59.6441   33.1925   51.4563 H   0  0  0  0  0  0  0  0  0  0  0  0
   57.9023   33.1233   51.0225 H   0  0  0  0  0  0  0  0  0  0  0  0
   58.8882   31.6218   51.0225 H   0  0  0  0  0  0  0  0  0  0  0  0
   58.9620   30.6210   48.6400 C   0  0  0  0  0  0  0  0  0  0  0  0
   59.1237   30.2381   49.6585 H   0  0  0  0  0  0  0  0  0  0  0  0
   58.7350   29.7240   47.5960 C   0  0  0  0  0  0  0  0  0  0  0  0
   58.7040   28.4020   47.8950 F   0  0  0  0  0  0  0  0  0  0  0  0
   59.4000   28.1280   45.1180 C   0  0  0  0  0  0  0  0  0  0  0  0
   59.6782   27.8710   46.1507 H   0  0  0  0  0  0  0  0  0  0  0  0
   59.0553   27.2236   44.5952 H   0  0  0  0  0  0  0  0  0  0  0  0
   60.2744   28.5430   44.5952 H   0  0  0  0  0  0  0  0  0  0  0  0
   56.9150   28.4240   45.2560 C   0  0  0  0  0  0  0  0  0  0  0  0
   56.8844   27.8754   46.2089 H   0  0  0  0  0  0  0  0  0  0  0  0
   56.8152   27.7181   44.4183 H   0  0  0  0  0  0  0  0  0  0  0  0
   55.8460   29.3540   45.2140 O   0  0  0  0  0  0  0  0  0  0  0  0
   55.7010   29.8800   43.9050 C   0  0  0  0  0  0  0  0  0  0  0  0
   54.9700   30.7015   43.9333 H   0  0  0  0  0  0  0  0  0  0  0  0
   55.3637   29.0627   43.2506 H   0  0  0  0  0  0  0  0  0  0  0  0
  1  2  1  0
  2  3  2  0
  3  4  1  0
  4  5  1  0
  4  6  1  0
  6  7  1  0
  7  8  2  0
  8  9  1  0
  8 10  1  0
 10 11  1  0
 11 12  1  0
 11 13  1  0
 13 14  1  0
 13 15  1  0
 13 16  1  0
 16 17  1  0
 16 18  1  0
 16 19  1  0
 10 20  2  0
 20 21  1  0
 21 22  1  0
 22 23  1  0
 22 24  1  0
 22 25  1  0
 20 26  1  0
 26 27  1  0
 26 28  2  0
 28 29  1  0
  6 30  1  6
 30 31  1  0
 30 32  1  0
 30 33  1  0
  6 34  1  0
 34 35  1  0
 34 36  1  0
 34 37  1  0
 37 38  1  0
 38 39  1  0
 38 40  1  0
 38  3  1  0
 28  7  1  0
M  END
>  <UniqueID>  (25) 
25

>  <SMILES>  (25) 
[H]/N=C1\COC[C@](C)(c2cc(NCC)c(OC)cc2F)N1

>  <Energy>  (25) 
45.10695622839917

>  <Genealogy>  (25) 
CCNc1cc([C@@]2(C)COCC(=N)N2)c(F)cc1OC (chirality)
[H]/N=C1\COC[C@](C)(c2cc(NCC)c(OC)cc2F)N1 (cis-trans isomerization)
[H]/N=C1\COC[C@](C)(c2cc(NCC)c(OC)cc2F)N1 (3D coordinates assigned)
[H]/N=C1\COC[C@](C)(c2cc(NCC)c(OC)cc2F)N1 (nonaromatic ring conformer: 45.10695622839917 kcal/mol)

>  <smiles>  (25) 
CCNc1cc(C2(C)COCC(=N)N2)c(F)cc1OC

>  <score_type>  (25) 
oracle

>  <origin>  (25) 
adg

>  <m_score__min__energy>  (25) 
-5.6500000000000004

>  <m_primary>  (25) 
energy

$$$$
25:0
     RDKit          3D

 54 57  0  0  0  0  0  0  0  0999 V2000
   65.5590   31.9570   50.4400 C   0  0  0  0  0  0  0  0  0  0  0  0
   65.0430   33.0800   49.5330 C   0  0  0  0  0  0  0  0  0  0  0  0
   64.0010   32.6250   48.5730 N   0  0  0  0  0  0  0  0  0  0  0  0
   63.2930   33.7850   47.9670 C   0  0  0  0  0  0  0  0  0  0  0  0
   63.3910   33.8020   46.4360 C   0  0  0  0  0  0  0  0  0  0  0  0
   63.0340   31.6570   49.1590 C   0  0  0  0  0  0  0  0  0  0  0  0
   61.6010   31.7710   48.6010 C   0  0  0  0  0  0  0  0  0  0  0  0
   61.5550   31.3180   47.2120 N   0  0  0  0  0  0  0  0  0  0  0  0
   60.2950   31.0920   46.5680 C   0  0  0  0  0  0  0  0  0  0  0  0
   59.5500   32.1750   46.0720 C   0  0  0  0  0  0  0  0  0  0  0  0
   59.9890   33.5010   46.2640 C   0  0  0  0  0  0  0  0  0  0  0  0
   59.2400   34.5740   45.7870 C   0  0  0  0  0  0  0  0  0  0  0  0
   58.0390   34.3450   45.1240 C   0  0  0  0  0  0  0  0  0  0  0  0
   57.5870   33.0400   44.9200 C   0  0  0  0  0  0  0  0  0  0  0  0
   58.3400   31.9270   45.3710 C   0  0  0  0  0  0  0  0  0  0  0  0
   57.9210   30.6300   45.1470 N   0  0  0  0  0  0  0  0  0  0  0  0
   56.9280   30.3680   44.0850 C   0  0  0  0  0  0  0  0  0  0  0  0
   58.5180   29.5850   45.8290 C   0  0  0  0  0  0  0  0  0  0  0  0
   59.7670   29.7920   46.4880 C   0  0  0  0  0  0  0  0  0  0  0  0
   60.4640   28.6980   47.0660 C   0  0  0  0  0  0  0  0  0  0  0  0
   59.9160   27.4120   47.0610 C   0  0  0  0  0  0  0  0  0  0  0  0
   58.6590   27.2390   46.5030 C   0  0  0  0  0  0  0  0  0  0  0  0
   57.9310   26.1120   46.5330 N   0  0  0  0  0  0  0  0  0  0  0  0
   56.7380   26.4270   45.9930 C   0  0  0  0  0  0  0  0  0  0  0  0
   56.7110   27.7600   45.6160 C   0  0  0  0  0  0  0  0  0  0  0  0
   57.9660   28.2770   45.9200 C   0  0  0  0  0  0  0  0  0  0  0  0
   65.4262   32.2460   51.4930 H   0  0  0  0  0  0  0  0  0  0  0  0
   64.9944   31.0346   50.2389 H   0  0  0  0  0  0  0  0  0  0  0  0
   66.6266   31.7846   50.2389 H   0  0  0  0  0  0  0  0  0  0  0  0
   64.6143   33.8713   50.1655 H   0  0  0  0  0  0  0  0  0  0  0  0
   65.8972   33.4416   48.9417 H   0  0  0  0  0  0  0  0  0  0  0  0
   64.4900   32.1090   47.8020 H   0  0  0  0  0  0  0  0  0  0  0  0
   62.2315   33.7376   48.2515 H   0  0  0  0  0  0  0  0  0  0  0  0
   63.7731   34.7010   48.3417 H   0  0  0  0  0  0  0  0  0  0  0  0
   64.4341   33.9829   46.1373 H   0  0  0  0  0  0  0  0  0  0  0  0
   63.0581   32.8327   46.0365 H   0  0  0  0  0  0  0  0  0  0  0  0
   62.7511   34.6026   46.0365 H   0  0  0  0  0  0  0  0  0  0  0  0
   63.4013   30.6397   48.9585 H   0  0  0  0  0  0  0  0  0  0  0  0
   62.9718   31.8866   50.2330 H   0  0  0  0  0  0  0  0  0  0  0  0
   60.9259   31.1490   49.2072 H   0  0  0  0  0  0  0  0  0  0  0  0
   61.2858   32.8241   48.6424 H   0  0  0  0  0  0  0  0  0  0  0  0
   62.4280   31.2400   46.6410 H   0  0  0  0  0  0  0  0  0  0  0  0
   60.9330   33.6901   46.7961 H   0  0  0  0  0  0  0  0  0  0  0  0
   59.5986   35.6034   45.9347 H   0  0  0  0  0  0  0  0  0  0  0  0
   57.4434   35.1948   44.7592 H   0  0  0  0  0  0  0  0  0  0  0  0
   56.6316   32.8729   44.4012 H   0  0  0  0  0  0  0  0  0  0  0  0
   55.9607   30.1128   44.5424 H   0  0  0  0  0  0  0  0  0  0  0  0
   56.8128   31.2665   43.4609 H   0  0  0  0  0  0  0  0  0  0  0  0
   57.2711   29.5296   43.4609 H   0  0  0  0  0  0  0  0  0  0  0  0
   61.4498   28.8650   47.5245 H   0  0  0  0  0  0  0  0  0  0  0  0
   60.4670   26.5610   47.4880 H   0  0  0  0  0  0  0  0  0  0  0  0
   58.2100   25.1910   46.9370 H   0  0  0  0  0  0  0  0  0  0  0  0
   55.9014   25.7237   45.8686 H   0  0  0  0  0  0  0  0  0  0  0  0
   55.8657   28.3014   45.1661 H   0  0  0  0  0  0  0  0  0  0  0  0
  1  2  1  0
  2  3  1  0
  3  4  1  0
  4  5  1  0
  3  6  1  0
  6  7  1  0
  7  8  1  0
  8  9  1  0
  9 10  2  0
 10 11  1  0
 11 12  2  0
 12 13  1  0
 13 14  2  0
 14 15  1  0
 15 16  2  0
 16 17  1  0
 16 18  1  0
 18 19  2  0
 19 20  1  0
 20 21  2  0
 21 22  1  0
 22 23  1  0
 23 24  1  0
 24 25  2  0
 25 26  1  0
 19  9  1  0
 26 22  2  0
 15 10  1  0
 26 18  1  0
  1 27  1  0
  1 28  1  0
  1 29  1  0
  2 30  1  0
  2 31  1  0
  3 32  1  0
  4 33  1  0
  4 34  1  0
  5 35  1  0
  5 36  1  0
  5 37  1  0
  6 38  1  0
  6 39  1  0
  7 40  1  0
  7 41  1  0
  8 42  1  0
 11 43  1  0
 12 44  1  0
 13 45  1  0
 14 46  1  0
 17 47  1  0
 17 48  1  0
 17 49  1  0
 20 50  1  0
 21 51  1  0
 23 52  1  0
 24 53  1  0
 25 54  1  0
M  CHG  2   3   1  16   1
M  END
>  <UniqueID>  (26) 
26

>  <SMILES>  (26) 
CC[NH+](CC)CCNc1c2ccccc2[n+](C)c2c1ccc1[nH]ccc12

>  <Energy>  (26) 
121.68459487773183

>  <Genealogy>  (26) 
CC[NH+](CC)CCNc1c2ccccc2[n+](C)c2c1ccc1[nH]ccc12 (protonated)
CC[NH+](CC)CCNc1c2ccccc2[n+](C)c2c1ccc1[nH]ccc12 (3D coordinates assigned)
CC[NH+](CC)CCNc1c2ccccc2[n+](C)c2c1ccc1[nH]ccc12 (optimized conformer: 121.68459487773183 kcal/mol)

>  <smiles>  (26) 
CCN(CC)CCNc1c2ccccc2[n+](C)c2c1ccc1[nH]ccc12

>  <score_type>  (26) 
oracle

>  <origin>  (26) 
adg

>  <m_score__min__energy>  (26) 
-5.5099999999999998

>  <m_primary>  (26) 
energy

$$$$
26:0
     RDKit          3D

 33 35  0  0  0  0  0  0  0  0999 V2000
   53.9500   25.0150   45.5690 O   0  0  0  0  0  0  0  0  0  0  0  0
   55.1990   25.1430   45.6680 C   0  0  0  0  0  0  0  0  0  0  0  0
   55.7280   26.4230   46.0420 N   0  0  0  0  0  0  0  0  0  0  0  0
   57.1040   26.7210   46.3290 C   0  0  0  0  0  0  0  0  0  0  0  0
   57.8110   25.9860   47.3000 C   0  0  0  0  0  0  0  0  0  0  0  0
   59.1570   26.2550   47.5490 C   0  0  0  0  0  0  0  0  0  0  0  0
   59.8110   27.2650   46.8430 C   0  0  0  0  0  0  0  0  0  0  0  0
   59.1170   28.0180   45.8950 C   0  0  0  0  0  0  0  0  0  0  0  0
   57.7560   27.7680   45.6410 C   0  0  0  0  0  0  0  0  0  0  0  0
   57.0600   28.5640   44.6630 N   0  0  0  0  0  0  0  0  0  0  0  0
   55.9940   29.3610   44.8810 C   0  0  0  0  0  0  0  0  0  0  0  0
   55.6340   29.9940   43.7080 C   0  0  0  0  0  0  0  0  0  0  0  0
   56.5240   29.5680   42.7420 C   0  0  0  0  0  0  0  0  0  0  0  0
   57.3930   28.6950   43.3630 C   0  0  0  0  0  0  0  0  0  0  0  0
   56.0770   23.9950   45.3420 C   0  0  0  0  0  0  0  0  0  0  0  0
   56.5730   23.8100   44.0410 C   0  0  0  0  0  0  0  0  0  0  0  0
   57.3940   22.7150   43.7640 C   0  0  0  0  0  0  0  0  0  0  0  0
   57.7040   21.8250   44.7450 N   0  0  0  0  0  0  0  0  0  0  0  0
   57.2260   21.9700   46.0100 C   0  0  0  0  0  0  0  0  0  0  0  0
   56.4010   23.0520   46.3300 C   0  0  0  0  0  0  0  0  0  0  0  0
   57.2984   25.1943   47.8661 H   0  0  0  0  0  0  0  0  0  0  0  0
   59.7036   25.6698   48.3032 H   0  0  0  0  0  0  0  0  0  0  0  0
   60.8751   27.4681   47.0338 H   0  0  0  0  0  0  0  0  0  0  0  0
   59.6382   28.8133   45.3420 H   0  0  0  0  0  0  0  0  0  0  0  0
   55.4870   29.4878   45.8489 H   0  0  0  0  0  0  0  0  0  0  0  0
   54.8014   30.6994   43.5700 H   0  0  0  0  0  0  0  0  0  0  0  0
   56.5374   29.8666   41.6834 H   0  0  0  0  0  0  0  0  0  0  0  0
   58.2326   28.1821   42.8709 H   0  0  0  0  0  0  0  0  0  0  0  0
   56.3161   24.5239   43.2446 H   0  0  0  0  0  0  0  0  0  0  0  0
   57.7917   22.5715   42.7485 H   0  0  0  0  0  0  0  0  0  0  0  0
   58.3190   21.0110   44.5210 H   0  0  0  0  0  0  0  0  0  0  0  0
   57.4894   21.2336   46.7835 H   0  0  0  0  0  0  0  0  0  0  0  0
   56.0076   23.1640   47.3511 H   0  0  0  0  0  0  0  0  0  0  0  0
  1  2  2  0
  2  3  1  0
  3  4  1  0
  4  5  2  0
  5  6  1  0
  6  7  2  0
  7  8  1  0
  8  9  2  0
  9 10  1  0
 10 11  1  0
 11 12  2  0
 12 13  1  0
 13 14  2  0
  2 15  1  0
 15 16  2  0
 16 17  1  0
 17 18  2  0
 18 19  1  0
 19 20  2  0
  9  4  1  0
 14 10  1  0
 20 15  1  0
  5 21  1  0
  6 22  1  0
  7 23  1  0
  8 24  1  0
 11 25  1  0
 12 26  1  0
 13 27  1  0
 14 28  1  0
 16 29  1  0
 17 30  1  0
 18 31  1  0
 19 32  1  0
 20 33  1  0
M  CHG  2   3  -1  18   1
M  END
>  <UniqueID>  (27) 
27

>  <SMILES>  (27) 
O=C([N-]c1ccccc1-n1cccc1)c1cc[nH+]cc1

>  <Energy>  (27) 
73.57748004400422

>  <Genealogy>  (27) 
O=C([N-]c1ccccc1-n1cccc1)c1cc[nH+]cc1 (protonated)
O=C([N-]c1ccccc1-n1cccc1)c1cc[nH+]cc1 (3D coordinates assigned)
O=C([N-]c1ccccc1-n1cccc1)c1cc[nH+]cc1 (optimized conformer: 73.57748004400422 kcal/mol)

>  <smiles>  (27) 
O=C(Nc1ccccc1-n1cccc1)c1ccncc1

>  <score_type>  (27) 
oracle

>  <origin>  (27) 
adg

>  <m_score__min__energy>  (27) 
-6.9699999999999998

>  <m_primary>  (27) 
energy

$$$$
27:0
     RDKit          3D

 40 41  0  0  0  0  0  0  0  0999 V2000
   58.1250   32.5180   43.2190 C   0  0  0  0  0  0  0  0  0  0  0  0
   57.3590   31.2000   43.2360 C   0  0  0  0  0  0  0  0  0  0  0  0
   56.7930   30.9680   44.5250 O   0  0  0  0  0  0  0  0  0  0  0  0
   56.5530   29.6890   45.0390 C   0  0  0  0  0  0  0  0  0  0  0  0
   55.4340   29.1300   44.8710 O   0  0  0  0  0  0  0  0  0  0  0  0
   57.6630   28.9610   45.7580 C   0  0  1  0  0  0  0  0  0  0  0  0
   58.0270   27.6530   45.0010 C   0  0  0  0  0  0  0  0  0  0  0  0
   59.2640   27.8370   44.1230 C   0  0  0  0  0  0  0  0  0  0  0  0
   60.4760   28.2720   44.9630 C   0  0  0  0  0  0  0  0  0  0  0  0
   60.0740   29.0960   46.2030 C   0  0  0  0  0  0  0  0  0  0  0  0
   58.8350   29.8700   45.9610 N   0  0  2  0  0  0  0  0  0  0  0  0
   58.5750   30.8000   47.0920 C   0  0  0  0  0  0  0  0  0  0  0  0
   59.1750   32.1690   46.8520 C   0  0  0  0  0  0  0  0  0  0  0  0
   60.5680   32.3340   46.9190 C   0  0  0  0  0  0  0  0  0  0  0  0
   61.1410   33.5940   46.7130 C   0  0  0  0  0  0  0  0  0  0  0  0
   63.0370   33.8070   46.8080 Br  0  0  0  0  0  0  0  0  0  0  0  0
   60.3260   34.6960   46.4380 C   0  0  0  0  0  0  0  0  0  0  0  0
   58.9390   34.5400   46.3680 C   0  0  0  0  0  0  0  0  0  0  0  0
   58.3600   33.2840   46.5740 C   0  0  0  0  0  0  0  0  0  0  0  0
   57.0110   33.1590   46.5050 F   0  0  0  0  0  0  0  0  0  0  0  0
   58.3150   32.8450   44.2519 H   0  0  0  0  0  0  0  0  0  0  0  0
   59.0829   32.3787   42.6964 H   0  0  0  0  0  0  0  0  0  0  0  0
   57.5298   33.2813   42.6964 H   0  0  0  0  0  0  0  0  0  0  0  0
   56.5530   31.2400   42.4885 H   0  0  0  0  0  0  0  0  0  0  0  0
   58.0545   30.3811   43.0000 H   0  0  0  0  0  0  0  0  0  0  0  0
   57.3219   28.6608   46.7598 H   0  0  0  0  0  0  0  0  0  0  0  0
   58.2256   26.8588   45.7357 H   0  0  0  0  0  0  0  0  0  0  0  0
   57.1808   27.3845   44.3514 H   0  0  0  0  0  0  0  0  0  0  0  0
   59.4956   26.8846   43.6236 H   0  0  0  0  0  0  0  0  0  0  0  0
   59.0531   28.6203   43.3801 H   0  0  0  0  0  0  0  0  0  0  0  0
   61.0140   27.3726   45.2971 H   0  0  0  0  0  0  0  0  0  0  0  0
   61.1081   28.9113   44.3291 H   0  0  0  0  0  0  0  0  0  0  0  0
   59.9090   28.4121   47.0486 H   0  0  0  0  0  0  0  0  0  0  0  0
   60.8859   29.8042   46.4252 H   0  0  0  0  0  0  0  0  0  0  0  0
   58.9800   30.4380   45.0910 H   0  0  0  0  0  0  0  0  0  0  0  0
   57.4878   30.9067   47.2209 H   0  0  0  0  0  0  0  0  0  0  0  0
   59.0438   30.3775   47.9930 H   0  0  0  0  0  0  0  0  0  0  0  0
   61.2119   31.4686   47.1345 H   0  0  0  0  0  0  0  0  0  0  0  0
   60.7767   35.6864   46.2766 H   0  0  0  0  0  0  0  0  0  0  0  0
   58.3003   35.4086   46.1500 H   0  0  0  0  0  0  0  0  0  0  0  0
  1  2  1  0
  2  3  1  0
  3  4  1  0
  4  5  2  0
  4  6  1  0
  6  7  1  0
  7  8  1  0
  8  9  1  0
  9 10  1  0
 10 11  1  0
 11 12  1  0
 12 13  1  0
 13 14  2  0
 14 15  1  0
 15 16  1  0
 15 17  2  0
 17 18  1  0
 18 19  2  0
 19 20  1  0
 11  6  1  0
 19 13  1  0
  1 21  1  0
  1 22  1  0
  1 23  1  0
  2 24  1  0
  2 25  1  0
  6 26  1  1
  7 27  1  0
  7 28  1  0
  8 29  1  0
  8 30  1  0
  9 31  1  0
  9 32  1  0
 10 33  1  0
 10 34  1  0
 11 35  1  6
 12 36  1  0
 12 37  1  0
 14 38  1  0
 17 39  1  0
 18 40  1  0
M  CHG  1  11   1
M  END
>  <UniqueID>  (28) 
28

>  <SMILES>  (28) 
CCOC(=O)[C@H]1CCCC[N@@H+]1Cc1cc(Br)ccc1F

>  <Energy>  (28) 
42.17585948923715

>  <Genealogy>  (28) 
CCOC(=O)C1CCCC[NH+]1Cc1cc(Br)ccc1F (protonated)
CCOC(=O)[C@H]1CCCC[N@@H+]1Cc1cc(Br)ccc1F (chirality)
CCOC(=O)[C@H]1CCCC[N@@H+]1Cc1cc(Br)ccc1F (3D coordinates assigned)
CCOC(=O)[C@H]1CCCC[N@@H+]1Cc1cc(Br)ccc1F (nonaromatic ring conformer: 42.17585948923715 kcal/mol)

>  <smiles>  (28) 
CCOC(=O)C1CCCCN1Cc1cc(Br)ccc1F

>  <score_type>  (28) 
oracle

>  <origin>  (28) 
adg

>  <m_score__min__energy>  (28) 
-5.75

>  <m_primary>  (28) 
energy

$$$$
28:0
     RDKit          3D

 63 66  0  0  0  0  0  0  0  0999 V2000
   57.8550   32.6370   45.1520 C   0  0  0  0  0  0  0  0  0  0  0  0
   57.4600   32.5270   46.5160 O   0  0  0  0  0  0  0  0  0  0  0  0
   58.2820   32.8450   47.6080 C   0  0  0  0  0  0  0  0  0  0  0  0
   58.4870   31.9470   48.6720 C   0  0  0  0  0  0  0  0  0  0  0  0
   59.3360   32.2890   49.7290 C   0  0  0  0  0  0  0  0  0  0  0  0
   60.0010   33.5160   49.7260 C   0  0  0  0  0  0  0  0  0  0  0  0
   59.7780   34.4300   48.6900 C   0  0  0  0  0  0  0  0  0  0  0  0
   58.9190   34.0980   47.6230 C   0  0  0  0  0  0  0  0  0  0  0  0
   58.6820   34.9780   46.5560 O   0  0  0  0  0  0  0  0  0  0  0  0
   59.6570   35.3530   45.5890 C   0  0  0  0  0  0  0  0  0  0  0  0
   60.9500   33.8050   50.8580 C   0  0  0  0  0  0  0  0  0  0  0  0
   61.7620   32.6110   51.1990 N   0  0  0  0  0  0  0  0  0  0  0  0
   63.1410   32.6020   50.6570 C   0  0  0  0  0  0  0  0  0  0  0  0
   63.4150   31.5330   49.5760 C   0  0  0  0  0  0  0  0  0  0  0  0
   62.4710   31.5990   48.4650 N   0  0  0  0  0  0  0  0  0  0  0  0
   61.7170   30.5940   47.9780 C   0  0  0  0  0  0  0  0  0  0  0  0
   61.0620   31.1030   46.8760 C   0  0  0  0  0  0  0  0  0  0  0  0
   60.1100   30.3840   45.9750 C   0  0  0  0  0  0  0  0  0  0  0  0
   59.0050   29.8500   46.7070 O   0  0  0  0  0  0  0  0  0  0  0  0
   58.4390   28.5760   46.5270 C   0  0  0  0  0  0  0  0  0  0  0  0
   58.9480   27.4090   47.1450 C   0  0  0  0  0  0  0  0  0  0  0  0
   60.4010   27.4250   48.3930 Br  0  0  0  0  0  0  0  0  0  0  0  0
   58.3050   26.1810   46.9470 C   0  0  0  0  0  0  0  0  0  0  0  0
   57.1390   26.1000   46.1760 C   0  0  0  0  0  0  0  0  0  0  0  0
   56.4360   24.7820   46.0070 C   0  0  0  0  0  0  0  0  0  0  0  0
   56.8940   23.9860   44.3010 Br  0  0  0  0  0  0  0  0  0  0  0  0
   56.6350   27.2540   45.5670 C   0  0  0  0  0  0  0  0  0  0  0  0
   57.2830   28.4930   45.7350 C   0  0  0  0  0  0  0  0  0  0  0  0
   56.8080   29.6660   45.1290 O   0  0  0  0  0  0  0  0  0  0  0  0
   56.5870   29.8210   43.7310 C   0  0  0  0  0  0  0  0  0  0  0  0
   61.4370   32.3880   46.7340 N   0  0  0  0  0  0  0  0  0  0  0  0
   62.3020   32.6630   47.6950 N   0  0  0  0  0  0  0  0  0  0  0  0
   61.0850   31.2860   51.1730 C   0  0  0  0  0  0  0  0  0  0  0  0
   59.5780   31.3630   50.8830 C   0  0  0  0  0  0  0  0  0  0  0  0
   58.9135   32.9318   45.0994 H   0  0  0  0  0  0  0  0  0  0  0  0
   57.7192   31.6669   44.6516 H   0  0  0  0  0  0  0  0  0  0  0  0
   57.2373   33.3973   44.6516 H   0  0  0  0  0  0  0  0  0  0  0  0
   57.9773   30.9722   48.6721 H   0  0  0  0  0  0  0  0  0  0  0  0
   60.2750   35.4112   48.7085 H   0  0  0  0  0  0  0  0  0  0  0  0
   60.5657   35.7025   46.1010 H   0  0  0  0  0  0  0  0  0  0  0  0
   59.9018   34.4849   44.9594 H   0  0  0  0  0  0  0  0  0  0  0  0
   59.2570   36.1614   44.9594 H   0  0  0  0  0  0  0  0  0  0  0  0
   61.6229   34.6231   50.5615 H   0  0  0  0  0  0  0  0  0  0  0  0
   60.3598   34.0875   51.7422 H   0  0  0  0  0  0  0  0  0  0  0  0
   63.3402   33.5902   50.2168 H   0  0  0  0  0  0  0  0  0  0  0  0
   63.8002   32.3572   51.5029 H   0  0  0  0  0  0  0  0  0  0  0  0
   64.4315   31.6826   49.1831 H   0  0  0  0  0  0  0  0  0  0  0  0
   63.3021   30.5463   50.0490 H   0  0  0  0  0  0  0  0  0  0  0  0
   61.6394   29.5726   48.3789 H   0  0  0  0  0  0  0  0  0  0  0  0
   59.7322   31.0874   45.2184 H   0  0  0  0  0  0  0  0  0  0  0  0
   60.6460   29.5502   45.4981 H   0  0  0  0  0  0  0  0  0  0  0  0
   58.7205   25.2699   47.4022 H   0  0  0  0  0  0  0  0  0  0  0  0
   56.7398   24.1027   46.8171 H   0  0  0  0  0  0  0  0  0  0  0  0
   55.3495   24.9501   46.0421 H   0  0  0  0  0  0  0  0  0  0  0  0
   55.7251   27.1932   44.9519 H   0  0  0  0  0  0  0  0  0  0  0  0
   55.6964   30.4456   43.5676 H   0  0  0  0  0  0  0  0  0  0  0  0
   57.4627   30.3039   43.2727 H   0  0  0  0  0  0  0  0  0  0  0  0
   56.4312   28.8332   43.2727 H   0  0  0  0  0  0  0  0  0  0  0  0
   61.1290   33.0610   45.9990 H   0  0  0  0  0  0  0  0  0  0  0  0
   61.5570   30.6710   50.3926 H   0  0  0  0  0  0  0  0  0  0  0  0
   61.1953   30.8511   52.1773 H   0  0  0  0  0  0  0  0  0  0  0  0
   59.2013   30.3602   50.6332 H   0  0  0  0  0  0  0  0  0  0  0  0
   59.0531   31.7418   51.7724 H   0  0  0  0  0  0  0  0  0  0  0  0
  1  2  1  0
  2  3  1  0
  3  4  2  0
  4  5  1  0
  5  6  2  0
  6  7  1  0
  7  8  2  0
  8  9  1  0
  9 10  1  0
  6 11  1  0
 11 12  1  0
 12 13  1  0
 13 14  1  0
 14 15  1  0
 15 16  1  0
 16 17  2  0
 17 18  1  0
 18 19  1  0
 19 20  1  0
 20 21  2  0
 21 22  1  0
 21 23  1  0
 23 24  2  0
 24 25  1  0
 25 26  1  0
 24 27  1  0
 27 28  2  0
 28 29  1  0
 29 30  1  0
 17 31  1  0
 31 32  2  0
 12 33  1  0
 33 34  1  0
  8  3  1  0
 32 15  1  0
 34  5  1  0
 28 20  1  0
  1 35  1  0
  1 36  1  0
  1 37  1  0
  4 38  1  0
  7 39  1  0
 10 40  1  0
 10 41  1  0
 10 42  1  0
 11 43  1  0
 11 44  1  0
 13 45  1  0
 13 46  1  0
 14 47  1  0
 14 48  1  0
 16 49  1  0
 18 50  1  0
 18 51  1  0
 23 52  1  0
 25 53  1  0
 25 54  1  0
 27 55  1  0
 30 56  1  0
 30 57  1  0
 30 58  1  0
 31 59  1  0
 33 60  1  0
 33 61  1  0
 34 62  1  0
 34 63  1  0
M  CHG  1  31   1
M  END
>  <UniqueID>  (29) 
29

>  <SMILES>  (29) 
COc1cc2c(cc1OC)CN(CCn1cc(COc3c(Br)cc(CBr)cc3OC)[nH+]n1)CC2

>  <Energy>  (29) 
109.32017360210078

>  <Genealogy>  (29) 
COc1cc2c(cc1OC)CN(CCn1cc(COc3c(Br)cc(CBr)cc3OC)[nH+]n1)CC2 (protonated)
COc1cc2c(cc1OC)CN(CCn1cc(COc3c(Br)cc(CBr)cc3OC)[nH+]n1)CC2 (3D coordinates assigned)
COc1cc2c(cc1OC)CN(CCn1cc(COc3c(Br)cc(CBr)cc3OC)[nH+]n1)CC2 (nonaromatic ring conformer: 109.32017360210078 kcal/mol)

>  <smiles>  (29) 
COc1cc2c(cc1OC)CN(CCn1cc(COc3c(Br)cc(CBr)cc3OC)nn1)CC2

>  <score_type>  (29) 
oracle

>  <origin>  (29) 
adg

>  <m_score__min__energy>  (29) 
-7.9199999999999999

>  <m_primary>  (29) 
energy

$$$$
29:0
     RDKit          3D

 61 64  0  0  0  0  0  0  0  0999 V2000
   57.2870   25.4220   54.9330 C   0  0  0  0  0  0  0  0  0  0  0  0
   56.5820   26.5990   54.5520 O   0  0  0  0  0  0  0  0  0  0  0  0
   57.1950   27.7920   54.1420 C   0  0  0  0  0  0  0  0  0  0  0  0
   58.4110   28.2390   54.6870 C   0  0  0  0  0  0  0  0  0  0  0  0
   58.9830   29.4340   54.2470 C   0  0  0  0  0  0  0  0  0  0  0  0
   58.3570   30.2030   53.2520 C   0  0  0  0  0  0  0  0  0  0  0  0
   59.0020   31.4910   52.7800 C   0  0  0  0  0  0  0  0  0  0  0  0
   59.0060   31.6060   51.3000 N   0  0  0  0  0  0  0  0  0  0  0  0
   58.9050   33.0360   50.9080 C   0  0  0  0  0  0  0  0  0  0  0  0
   59.4360   33.2660   49.4890 C   0  0  0  0  0  0  0  0  0  0  0  0
   60.8850   32.9550   49.3950 N   0  0  0  0  0  0  0  0  0  0  0  0
   61.2800   32.6310   48.0080 C   0  0  0  0  0  0  0  0  0  0  0  0
   60.3060   33.2300   47.0120 C   0  0  0  0  0  0  0  0  0  0  0  0
   60.4360   34.5900   46.6840 C   0  0  0  0  0  0  0  0  0  0  0  0
   59.5810   35.1880   45.7600 C   0  0  0  0  0  0  0  0  0  0  0  0
   58.5810   34.4400   45.1420 C   0  0  0  0  0  0  0  0  0  0  0  0
   58.4270   33.0790   45.4410 C   0  0  0  0  0  0  0  0  0  0  0  0
   57.4210   32.3340   44.8070 C   0  0  0  0  0  0  0  0  0  0  0  0
   57.2590   30.9670   45.0930 C   0  0  0  0  0  0  0  0  0  0  0  0
   56.2680   30.1820   44.4840 O   0  0  0  0  0  0  0  0  0  0  0  0
   56.3070   29.7460   43.1290 C   0  0  0  0  0  0  0  0  0  0  0  0
   58.1100   30.3570   46.0170 C   0  0  0  0  0  0  0  0  0  0  0  0
   59.1140   31.0860   46.6550 C   0  0  0  0  0  0  0  0  0  0  0  0
   59.2920   32.4570   46.3820 C   0  0  0  0  0  0  0  0  0  0  0  0
   61.3190   31.9010   50.3470 C   0  0  0  0  0  0  0  0  0  0  0  0
   60.1820   30.9220   50.6890 C   0  0  0  0  0  0  0  0  0  0  0  0
   57.1320   29.7670   52.7070 C   0  0  0  0  0  0  0  0  0  0  0  0
   56.5060   30.5570   51.7260 O   0  0  0  0  0  0  0  0  0  0  0  0
   55.1110   30.8360   51.6800 C   0  0  0  0  0  0  0  0  0  0  0  0
   56.5640   28.5590   53.1580 C   0  0  0  0  0  0  0  0  0  0  0  0
   57.3259   25.3570   56.0304 H   0  0  0  0  0  0  0  0  0  0  0  0
   56.7693   24.5384   54.5315 H   0  0  0  0  0  0  0  0  0  0  0  0
   58.3103   25.4614   54.5315 H   0  0  0  0  0  0  0  0  0  0  0  0
   58.9142   27.6445   55.4638 H   0  0  0  0  0  0  0  0  0  0  0  0
   59.9328   29.7766   54.6835 H   0  0  0  0  0  0  0  0  0  0  0  0
   58.4444   32.3411   53.2000 H   0  0  0  0  0  0  0  0  0  0  0  0
   60.0476   31.4903   53.1217 H   0  0  0  0  0  0  0  0  0  0  0  0
   58.1460   31.1340   50.9300 H   0  0  0  0  0  0  0  0  0  0  0  0
   57.8501   33.3448   50.9497 H   0  0  0  0  0  0  0  0  0  0  0  0
   59.5137   33.6299   51.6057 H   0  0  0  0  0  0  0  0  0  0  0  0
   58.8850   32.6181   48.7914 H   0  0  0  0  0  0  0  0  0  0  0  0
   59.2925   34.3263   49.2336 H   0  0  0  0  0  0  0  0  0  0  0  0
   62.2849   33.0354   47.8163 H   0  0  0  0  0  0  0  0  0  0  0  0
   61.2756   31.5375   47.8885 H   0  0  0  0  0  0  0  0  0  0  0  0
   61.2232   35.1908   47.1629 H   0  0  0  0  0  0  0  0  0  0  0  0
   59.6961   36.2548   45.5176 H   0  0  0  0  0  0  0  0  0  0  0  0
   57.9087   34.9200   44.4156 H   0  0  0  0  0  0  0  0  0  0  0  0
   56.7545   32.8229   44.0812 H   0  0  0  0  0  0  0  0  0  0  0  0
   56.4050   28.6508   43.0989 H   0  0  0  0  0  0  0  0  0  0  0  0
   55.3785   30.0452   42.6207 H   0  0  0  0  0  0  0  0  0  0  0  0
   57.1677   30.2052   42.6207 H   0  0  0  0  0  0  0  0  0  0  0  0
   57.9872   29.2879   46.2448 H   0  0  0  0  0  0  0  0  0  0  0  0
   59.7737   30.5852   47.3789 H   0  0  0  0  0  0  0  0  0  0  0  0
   62.1487   31.3366   49.8964 H   0  0  0  0  0  0  0  0  0  0  0  0
   61.6304   32.3955   51.2790 H   0  0  0  0  0  0  0  0  0  0  0  0
   59.8580   30.4205   49.7651 H   0  0  0  0  0  0  0  0  0  0  0  0
   60.5700   30.2018   51.4244 H   0  0  0  0  0  0  0  0  0  0  0  0
   54.7188   30.9144   52.7047 H   0  0  0  0  0  0  0  0  0  0  0  0
   54.9442   31.7853   51.1499 H   0  0  0  0  0  0  0  0  0  0  0  0
   54.5919   30.0239   51.1499 H   0  0  0  0  0  0  0  0  0  0  0  0
   55.6110   28.2146   52.7300 H   0  0  0  0  0  0  0  0  0  0  0  0
  1  2  1  0
  2  3  1  0
  3  4  2  0
  4  5  1  0
  5  6  2  0
  6  7  1  0
  7  8  1  0
  8  9  1  0
  9 10  1  0
 10 11  1  0
 11 12  1  0
 12 13  1  0
 13 14  2  0
 14 15  1  0
 15 16  2  0
 16 17  1  0
 17 18  2  0
 18 19  1  0
 19 20  1  0
 20 21  1  0
 19 22  2  0
 22 23  1  0
 23 24  2  0
 11 25  1  0
 25 26  1  0
  6 27  1  0
 27 28  1  0
 28 29  1  0
 27 30  2  0
 30  3  1  0
 26  8  1  0
 24 13  1  0
 24 17  1  0
  1 31  1  0
  1 32  1  0
  1 33  1  0
  4 34  1  0
  5 35  1  0
  7 36  1  0
  7 37  1  0
  8 38  1  0
  9 39  1  0
  9 40  1  0
 10 41  1  0
 10 42  1  0
 12 43  1  0
 12 44  1  0
 14 45  1  0
 15 46  1  0
 16 47  1  0
 18 48  1  0
 21 49  1  0
 21 50  1  0
 21 51  1  0
 22 52  1  0
 23 53  1  0
 25 54  1  0
 25 55  1  0
 26 56  1  0
 26 57  1  0
 29 58  1  0
 29 59  1  0
 29 60  1  0
 30 61  1  0
M  CHG  1   8   1
M  END
>  <UniqueID>  (30) 
30

>  <SMILES>  (30) 
COc1ccc(C[NH+]2CCN(Cc3cccc4cc(OC)ccc34)CC2)c(OC)c1

>  <Energy>  (30) 
81.95460841236836

>  <Genealogy>  (30) 
COc1ccc(C[NH+]2CCN(Cc3cccc4cc(OC)ccc34)CC2)c(OC)c1 (protonated)
COc1ccc(C[NH+]2CCN(Cc3cccc4cc(OC)ccc34)CC2)c(OC)c1 (3D coordinates assigned)
COc1ccc(C[NH+]2CCN(Cc3cccc4cc(OC)ccc34)CC2)c(OC)c1 (nonaromatic ring conformer: 81.95460841236836 kcal/mol)

>  <smiles>  (30) 
COc1ccc(CN2CCN(Cc3cccc4cc(OC)ccc34)CC2)c(OC)c1

>  <score_type>  (30) 
oracle

>  <origin>  (30) 
adg

>  <m_score__min__energy>  (30) 
-6.6900000000000004

>  <m_primary>  (30) 
energy

$$$$
30:0
     RDKit          3D

 44 46  0  0  0  0  0  0  0  0999 V2000
   54.6900   22.3440   47.2200 C   0  0  0  0  0  0  0  0  0  0  0  0
   54.9860   22.5740   45.7420 C   0  0  0  0  0  0  0  0  0  0  0  0
   55.8800   23.7310   45.5710 N   0  0  0  0  0  0  0  0  0  0  0  0
   57.2200   23.5120   45.3300 C   0  0  0  0  0  0  0  0  0  0  0  0
   58.0870   24.5600   45.1900 N   0  0  0  0  0  0  0  0  0  0  0  0
   57.6040   25.8180   45.3030 C   0  0  0  0  0  0  0  0  0  0  0  0
   58.2650   27.0200   45.2070 C   0  0  0  0  0  0  0  0  0  0  0  0
   57.2720   27.9840   45.4190 C   0  0  0  0  0  0  0  0  0  0  0  0
   57.4860   29.4530   45.4170 C   0  0  0  0  0  0  0  0  0  0  0  0
   56.8560   30.2680   44.4630 C   0  0  0  0  0  0  0  0  0  0  0  0
   57.0560   31.6510   44.4600 C   0  0  0  0  0  0  0  0  0  0  0  0
   57.8960   32.2690   45.4140 C   0  0  0  0  0  0  0  0  0  0  0  0
   58.1460   33.7910   45.4470 C   0  0  0  0  0  0  0  0  0  0  0  0
   58.4580   34.2290   46.8950 C   0  0  0  0  0  0  0  0  0  0  0  0
   59.3330   34.2310   44.5570 C   0  0  0  0  0  0  0  0  0  0  0  0
   56.8860   34.5300   44.9470 C   0  0  0  0  0  0  0  0  0  0  0  0
   58.5250   31.4370   46.3660 C   0  0  0  0  0  0  0  0  0  0  0  0
   58.3230   30.0550   46.3680 C   0  0  0  0  0  0  0  0  0  0  0  0
   56.0670   27.3910   45.6320 N   0  0  0  0  0  0  0  0  0  0  0  0
   56.2970   26.0690   45.5540 C   0  0  0  0  0  0  0  0  0  0  0  0
   55.4020   25.0170   45.6990 C   0  0  0  0  0  0  0  0  0  0  0  0
   54.1850   25.2450   45.9440 O   0  0  0  0  0  0  0  0  0  0  0  0
   55.4126   22.9055   47.8304 H   0  0  0  0  0  0  0  0  0  0  0  0
   53.6708   22.6895   47.4479 H   0  0  0  0  0  0  0  0  0  0  0  0
   54.7730   21.2711   47.4479 H   0  0  0  0  0  0  0  0  0  0  0  0
   55.4694   21.6779   45.3256 H   0  0  0  0  0  0  0  0  0  0  0  0
   54.0407   22.7730   45.2158 H   0  0  0  0  0  0  0  0  0  0  0  0
   57.5961   22.4814   45.2494 H   0  0  0  0  0  0  0  0  0  0  0  0
   59.1010   24.3880   45.0040 H   0  0  0  0  0  0  0  0  0  0  0  0
   59.3340   27.1867   45.0083 H   0  0  0  0  0  0  0  0  0  0  0  0
   56.1972   29.8125   43.7090 H   0  0  0  0  0  0  0  0  0  0  0  0
   56.5514   32.2689   43.7027 H   0  0  0  0  0  0  0  0  0  0  0  0
   57.9680   33.5411   47.5998 H   0  0  0  0  0  0  0  0  0  0  0  0
   59.5456   34.2078   47.0582 H   0  0  0  0  0  0  0  0  0  0  0  0
   58.0826   35.2500   47.0582 H   0  0  0  0  0  0  0  0  0  0  0  0
   60.1735   34.5426   45.1945 H   0  0  0  0  0  0  0  0  0  0  0  0
   59.6468   33.3894   43.9219 H   0  0  0  0  0  0  0  0  0  0  0  0
   59.0224   35.0737   43.9219 H   0  0  0  0  0  0  0  0  0  0  0  0
   56.2971   34.8754   45.8095 H   0  0  0  0  0  0  0  0  0  0  0  0
   57.1860   35.3953   44.3377 H   0  0  0  0  0  0  0  0  0  0  0  0
   56.2772   33.8458   44.3377 H   0  0  0  0  0  0  0  0  0  0  0  0
   59.1871   31.8862   47.1209 H   0  0  0  0  0  0  0  0  0  0  0  0
   58.8254   29.4324   47.1230 H   0  0  0  0  0  0  0  0  0  0  0  0
   55.1460   27.8510   45.7980 H   0  0  0  0  0  0  0  0  0  0  0  0
  1  2  1  0
  2  3  1  0
  3  4  1  0
  4  5  2  0
  5  6  1  0
  6  7  1  0
  7  8  2  0
  8  9  1  0
  9 10  2  0
 10 11  1  0
 11 12  2  0
 12 13  1  0
 13 14  1  0
 13 15  1  0
 13 16  1  0
 12 17  1  0
 17 18  2  0
  8 19  1  0
 19 20  1  0
 20 21  1  0
 21 22  2  0
 21  3  1  0
 20  6  2  0
 18  9  1  0
  1 23  1  0
  1 24  1  0
  1 25  1  0
  2 26  1  0
  2 27  1  0
  4 28  1  0
  5 29  1  0
  7 30  1  0
 10 31  1  0
 11 32  1  0
 14 33  1  0
 14 34  1  0
 14 35  1  0
 15 36  1  0
 15 37  1  0
 15 38  1  0
 16 39  1  0
 16 40  1  0
 16 41  1  0
 17 42  1  0
 18 43  1  0
 19 44  1  0
M  CHG  1   5   1
M  END
>  <UniqueID>  (31) 
31

>  <SMILES>  (31) 
CCn1c[nH+]c2cc(-c3ccc(C(C)(C)C)cc3)[nH]c2c1=O

>  <Energy>  (31) 
83.62960215605396

>  <Genealogy>  (31) 
CCn1c[nH+]c2cc(-c3ccc(C(C)(C)C)cc3)[nH]c2c1=O (protonated)
CCn1c[nH+]c2cc(-c3ccc(C(C)(C)C)cc3)[nH]c2c1=O (3D coordinates assigned)
CCn1c[nH+]c2cc(-c3ccc(C(C)(C)C)cc3)[nH]c2c1=O (optimized conformer: 83.62960215605396 kcal/mol)

>  <smiles>  (31) 
CCn1cnc2cc(-c3ccc(C(C)(C)C)cc3)[nH]c2c1=O

>  <score_type>  (31) 
oracle

>  <origin>  (31) 
adg

>  <m_score__min__energy>  (31) 
-5.8300000000000001

>  <m_primary>  (31) 
energy

$$$$
31:0
     RDKit          3D

 34 35  0  0  0  0  0  0  0  0999 V2000
   56.3850   25.9790   46.1230 C   0  0  0  0  0  0  0  0  0  0  0  0
   56.9560   27.3090   45.6620 C   0  0  0  0  0  0  0  0  0  0  0  0
   55.8950   28.1730   45.2690 O   0  0  0  0  0  0  0  0  0  0  0  0
   56.1100   29.3600   44.5650 C   0  0  0  0  0  0  0  0  0  0  0  0
   55.2140   30.2470   44.5080 O   0  0  0  0  0  0  0  0  0  0  0  0
   57.4060   29.5660   43.8460 C   0  0  0  0  0  0  0  0  0  0  0  0
   57.8000   30.9730   43.9060 N   0  0  0  0  0  0  0  0  0  0  0  0
   57.9820   31.8030   42.8490 C   0  0  0  0  0  0  0  0  0  0  0  0
   58.4070   33.0330   43.2250 N   0  0  0  0  0  0  0  0  0  0  0  0
   58.5010   32.9530   44.5660 C   0  0  0  0  0  0  0  0  0  0  0  0
   58.1400   31.7160   44.9810 C   0  0  0  0  0  0  0  0  0  0  0  0
   58.1700   31.3960   46.3330 C   0  0  0  0  0  0  0  0  0  0  0  0
   57.8230   30.2490   46.7280 O   0  0  0  0  0  0  0  0  0  0  0  0
   58.5800   32.3630   47.2220 N   0  0  0  0  0  0  0  0  0  0  0  0
   58.5910   32.0700   48.6660 C   0  0  0  0  0  0  0  0  0  0  0  0
   58.9140   33.6310   46.7740 C   0  0  0  0  0  0  0  0  0  0  0  0
   59.2340   34.5230   47.6080 O   0  0  0  0  0  0  0  0  0  0  0  0
   58.8950   33.9310   45.4280 N   0  0  0  0  0  0  0  0  0  0  0  0
   59.2550   35.2590   44.9130 C   0  0  0  0  0  0  0  0  0  0  0  0
   56.3713   25.9472   47.2225 H   0  0  0  0  0  0  0  0  0  0  0  0
   55.3598   25.8677   45.7402 H   0  0  0  0  0  0  0  0  0  0  0  0
   57.0104   25.1590   45.7402 H   0  0  0  0  0  0  0  0  0  0  0  0
   57.5186   27.7715   46.4864 H   0  0  0  0  0  0  0  0  0  0  0  0
   57.6273   27.1419   44.8067 H   0  0  0  0  0  0  0  0  0  0  0  0
   58.1854   28.9502   44.3186 H   0  0  0  0  0  0  0  0  0  0  0  0
   57.2822   29.2730   42.7930 H   0  0  0  0  0  0  0  0  0  0  0  0
   57.8044   31.5102   41.8037 H   0  0  0  0  0  0  0  0  0  0  0  0
   58.6180   33.8440   42.6040 H   0  0  0  0  0  0  0  0  0  0  0  0
   58.5556   33.0127   49.2317 H   0  0  0  0  0  0  0  0  0  0  0  0
   57.7153   31.4556   48.9222 H   0  0  0  0  0  0  0  0  0  0  0  0
   59.5103   31.5230   48.9222 H   0  0  0  0  0  0  0  0  0  0  0  0
   59.4400   35.9413   45.7558 H   0  0  0  0  0  0  0  0  0  0  0  0
   60.1641   35.1800   44.2988 H   0  0  0  0  0  0  0  0  0  0  0  0
   58.4304   35.6500   44.2988 H   0  0  0  0  0  0  0  0  0  0  0  0
  1  2  1  0
  2  3  1  0
  3  4  1  0
  4  5  2  0
  4  6  1  0
  6  7  1  0
  7  8  1  0
  8  9  2  0
  9 10  1  0
 10 11  2  0
 11 12  1  0
 12 13  2  0
 12 14  1  0
 14 15  1  0
 14 16  1  0
 16 17  2  0
 16 18  1  0
 18 19  1  0
 11  7  1  0
 18 10  1  0
  1 20  1  0
  1 21  1  0
  1 22  1  0
  2 23  1  0
  2 24  1  0
  6 25  1  0
  6 26  1  0
  8 27  1  0
  9 28  1  0
 15 29  1  0
 15 30  1  0
 15 31  1  0
 19 32  1  0
 19 33  1  0
 19 34  1  0
M  CHG  1   9   1
M  END
>  <UniqueID>  (32) 
32

>  <SMILES>  (32) 
CCOC(=O)Cn1c[nH+]c2c1c(=O)n(C)c(=O)n2C

>  <Energy>  (32) 
74.37433262138985

>  <Genealogy>  (32) 
CCOC(=O)Cn1c[nH+]c2c1c(=O)n(C)c(=O)n2C (protonated)
CCOC(=O)Cn1c[nH+]c2c1c(=O)n(C)c(=O)n2C (3D coordinates assigned)
CCOC(=O)Cn1c[nH+]c2c1c(=O)n(C)c(=O)n2C (optimized conformer: 74.37433262138985 kcal/mol)

>  <smiles>  (32) 
CCOC(=O)Cn1cnc2c1c(=O)n(C)c(=O)n2C

>  <score_type>  (32) 
oracle

>  <origin>  (32) 
adg

>  <m_score__min__energy>  (32) 
-4.25

>  <m_primary>  (32) 
energy

$$$$
32:0
     RDKit          3D

 39 42  0  0  0  0  0  0  0  0999 V2000
   64.0950   32.9860   48.5710 C   0  0  0  0  0  0  0  0  0  0  0  0
   63.7290   33.4580   47.3080 C   0  0  0  0  0  0  0  0  0  0  0  0
   62.4950   33.0980   46.7560 C   0  0  0  0  0  0  0  0  0  0  0  0
   61.6140   32.2720   47.4730 C   0  0  0  0  0  0  0  0  0  0  0  0
   60.3310   31.8630   46.8630 C   0  0  0  0  0  0  0  0  0  0  0  0
   59.9750   30.5530   46.9530 N   0  0  0  0  0  0  0  0  0  0  0  0
   58.7990   30.0840   46.4550 C   0  0  0  0  0  0  0  0  0  0  0  0
   58.4610   28.6870   46.5780 N   0  0  0  0  0  0  0  0  0  0  0  0
   57.4070   28.1130   45.7300 C   0  0  0  0  0  0  0  0  0  0  0  0
   57.5830   26.5960   45.6070 C   0  0  0  0  0  0  0  0  0  0  0  0
   57.7220   26.0010   46.8800 O   0  0  0  0  0  0  0  0  0  0  0  0
   58.9290   26.4360   47.4730 C   0  0  0  0  0  0  0  0  0  0  0  0
   58.8780   27.9370   47.7710 C   0  0  0  0  0  0  0  0  0  0  0  0
   57.9440   30.9480   45.8460 N   0  0  0  0  0  0  0  0  0  0  0  0
   58.2420   32.2640   45.7100 C   0  0  0  0  0  0  0  0  0  0  0  0
   57.3420   33.1150   45.0580 C   0  0  0  0  0  0  0  0  0  0  0  0
   57.6560   34.4640   44.8820 C   0  0  0  0  0  0  0  0  0  0  0  0
   58.8750   34.9670   45.3450 C   0  0  0  0  0  0  0  0  0  0  0  0
   59.7810   34.1270   45.9990 C   0  0  0  0  0  0  0  0  0  0  0  0
   59.4650   32.7680   46.2070 C   0  0  0  0  0  0  0  0  0  0  0  0
   61.9990   31.7820   48.7320 C   0  0  0  0  0  0  0  0  0  0  0  0
   63.2330   32.1450   49.2810 C   0  0  0  0  0  0  0  0  0  0  0  0
   65.0622   33.2763   49.0071 H   0  0  0  0  0  0  0  0  0  0  0  0
   64.4117   34.1133   46.7471 H   0  0  0  0  0  0  0  0  0  0  0  0
   62.2138   33.4630   45.7572 H   0  0  0  0  0  0  0  0  0  0  0  0
   56.4254   28.3283   46.1773 H   0  0  0  0  0  0  0  0  0  0  0  0
   57.4739   28.5610   44.7276 H   0  0  0  0  0  0  0  0  0  0  0  0
   56.7017   26.1706   45.1047 H   0  0  0  0  0  0  0  0  0  0  0  0
   58.4927   26.3935   45.0227 H   0  0  0  0  0  0  0  0  0  0  0  0
   59.0875   25.8869   48.4129 H   0  0  0  0  0  0  0  0  0  0  0  0
   59.7554   26.2433   46.7730 H   0  0  0  0  0  0  0  0  0  0  0  0
   58.1588   28.1202   48.5829 H   0  0  0  0  0  0  0  0  0  0  0  0
   59.8819   28.2739   48.0689 H   0  0  0  0  0  0  0  0  0  0  0  0
   56.3859   32.7203   44.6837 H   0  0  0  0  0  0  0  0  0  0  0  0
   56.9424   35.1323   44.3779 H   0  0  0  0  0  0  0  0  0  0  0  0
   59.1225   36.0281   45.1942 H   0  0  0  0  0  0  0  0  0  0  0  0
   60.7429   34.5268   46.3524 H   0  0  0  0  0  0  0  0  0  0  0  0
   61.3278   31.1107   49.2878 H   0  0  0  0  0  0  0  0  0  0  0  0
   63.5256   31.7685   50.2723 H   0  0  0  0  0  0  0  0  0  0  0  0
  1  2  2  0
  2  3  1  0
  3  4  2  0
  4  5  1  0
  5  6  2  0
  6  7  1  0
  7  8  1  0
  8  9  1  0
  9 10  1  0
 10 11  1  0
 11 12  1  0
 12 13  1  0
  7 14  2  0
 14 15  1  0
 15 16  2  0
 16 17  1  0
 17 18  2  0
 18 19  1  0
 19 20  2  0
  4 21  1  0
 21 22  2  0
 22  1  1  0
 20  5  1  0
 13  8  1  0
 20 15  1  0
  1 23  1  0
  2 24  1  0
  3 25  1  0
  9 26  1  0
  9 27  1  0
 10 28  1  0
 10 29  1  0
 12 30  1  0
 12 31  1  0
 13 32  1  0
 13 33  1  0
 16 34  1  0
 17 35  1  0
 18 36  1  0
 19 37  1  0
 21 38  1  0
 22 39  1  0
M  END
>  <UniqueID>  (33) 
33

>  <SMILES>  (33) 
c1ccc(-c2nc(N3CCOCC3)nc3ccccc23)cc1

>  <Energy>  (33) 
55.69438834299598

>  <Genealogy>  (33) 
c1ccc(-c2nc(N3CCOCC3)nc3ccccc23)cc1 (3D coordinates assigned)
c1ccc(-c2nc(N3CCOCC3)nc3ccccc23)cc1 (nonaromatic ring conformer: 55.69438834299598 kcal/mol)

>  <smiles>  (33) 
c1ccc(-c2nc(N3CCOCC3)nc3ccccc23)cc1

>  <score_type>  (33) 
oracle

>  <origin>  (33) 
adg

>  <m_score__min__energy>  (33) 
-7.29

>  <m_primary>  (33) 
energy

$$$$
33:0
     RDKit          3D

 32 33  0  0  0  0  0  0  0  0999 V2000
   59.9400   28.7070   49.7810 C   0  0  0  0  0  0  0  0  0  0  0  0
   60.7460   27.4760   49.3980 C   0  0  0  0  0  0  0  0  0  0  0  0
   60.5630   27.2010   48.0120 O   0  0  0  0  0  0  0  0  0  0  0  0
   59.6360   27.8590   47.1890 C   0  0  0  0  0  0  0  0  0  0  0  0
   58.4590   27.1840   46.8420 C   0  0  0  0  0  0  0  0  0  0  0  0
   57.5050   27.7950   46.0240 C   0  0  0  0  0  0  0  0  0  0  0  0
   57.7190   29.0920   45.5400 C   0  0  0  0  0  0  0  0  0  0  0  0
   56.5200   29.8690   44.5090 S   0  0  0  0  0  0  0  0  0  0  0  0
   55.1580   29.3380   44.8550 O   0  0  0  0  0  0  0  0  0  0  0  0
   56.8080   29.5840   43.0620 O   0  0  0  0  0  0  0  0  0  0  0  0
   56.5470   31.5820   44.7620 N   0  0  0  0  0  0  0  0  0  0  0  0
   57.6390   32.4020   44.3410 C   0  0  0  0  0  0  0  0  0  0  0  0
   58.0440   32.3580   43.1480 O   0  0  0  0  0  0  0  0  0  0  0  0
   58.2970   33.2960   45.3020 C   0  0  0  0  0  0  0  0  0  0  0  0
   59.1870   34.3180   44.9920 C   0  0  0  0  0  0  0  0  0  0  0  0
   59.6500   35.0060   46.1210 C   0  0  0  0  0  0  0  0  0  0  0  0
   59.1280   34.5320   47.3170 C   0  0  0  0  0  0  0  0  0  0  0  0
   58.0890   33.2550   46.9710 S   0  0  0  0  0  0  0  0  0  0  0  0
   58.8900   29.7760   45.8900 C   0  0  0  0  0  0  0  0  0  0  0  0
   59.8460   29.1650   46.7060 C   0  0  0  0  0  0  0  0  0  0  0  0
   59.8887   28.7853   50.8770 H   0  0  0  0  0  0  0  0  0  0  0  0
   60.4255   29.6051   49.3715 H   0  0  0  0  0  0  0  0  0  0  0  0
   58.9227   28.6212   49.3715 H   0  0  0  0  0  0  0  0  0  0  0  0
   61.8121   27.6589   49.5979 H   0  0  0  0  0  0  0  0  0  0  0  0
   60.4043   26.6148   49.9910 H   0  0  0  0  0  0  0  0  0  0  0  0
   58.2841   26.1646   47.2164 H   0  0  0  0  0  0  0  0  0  0  0  0
   56.5834   27.2560   45.7594 H   0  0  0  0  0  0  0  0  0  0  0  0
   59.4961   34.5616   43.9648 H   0  0  0  0  0  0  0  0  0  0  0  0
   60.3608   35.8436   46.0652 H   0  0  0  0  0  0  0  0  0  0  0  0
   59.3550   34.9243   48.3193 H   0  0  0  0  0  0  0  0  0  0  0  0
   59.0580   30.7986   45.5210 H   0  0  0  0  0  0  0  0  0  0  0  0
   60.7659   29.7063   46.9720 H   0  0  0  0  0  0  0  0  0  0  0  0
  1  2  1  0
  2  3  1  0
  3  4  1  0
  4  5  2  0
  5  6  1  0
  6  7  2  0
  7  8  1  0
  8  9  2  0
  8 10  2  0
  8 11  1  0
 11 12  1  0
 12 13  2  0
 12 14  1  0
 14 15  2  0
 15 16  1  0
 16 17  2  0
 17 18  1  0
  7 19  1  0
 19 20  2  0
 20  4  1  0
 18 14  1  0
  1 21  1  0
  1 22  1  0
  1 23  1  0
  2 24  1  0
  2 25  1  0
  5 26  1  0
  6 27  1  0
 15 28  1  0
 16 29  1  0
 17 30  1  0
 19 31  1  0
 20 32  1  0
M  CHG  1  11  -1
M  END
>  <UniqueID>  (34) 
34

>  <SMILES>  (34) 
CCOc1ccc(S(=O)(=O)[N-]C(=O)c2cccs2)cc1

>  <Energy>  (34) 
55.661733603077074

>  <Genealogy>  (34) 
CCOc1ccc(S(=O)(=O)[N-]C(=O)c2cccs2)cc1 (protonated)
CCOc1ccc(S(=O)(=O)[N-]C(=O)c2cccs2)cc1 (3D coordinates assigned)
CCOc1ccc(S(=O)(=O)[N-]C(=O)c2cccs2)cc1 (optimized conformer: 55.661733603077074 kcal/mol)

>  <smiles>  (34) 
CCOc1ccc(S(=O)(=O)NC(=O)c2cccs2)cc1

>  <score_type>  (34) 
oracle

>  <origin>  (34) 
adg

>  <m_score__min__energy>  (34) 
-8.6699999999999999

>  <m_primary>  (34) 
energy

$$$$
34:0
     RDKit          3D

 50 51  0  0  0  0  0  0  0  0999 V2000
   57.4920   28.6720   44.1100 C   0  0  0  0  0  0  0  0  0  0  0  0
   56.2040   29.3740   44.5490 C   0  0  0  0  0  0  0  0  0  0  0  0
   56.3700   30.8350   44.6490 N   0  0  0  0  0  0  0  0  0  0  0  0
   57.3610   31.3630   43.6980 C   0  0  0  0  0  0  0  0  0  0  0  0
   57.9010   32.7300   44.1520 C   0  0  0  0  0  0  0  0  0  0  0  0
   57.2350   33.2780   45.4270 C   0  0  0  0  0  0  0  0  0  0  0  0
   58.1790   34.1910   46.2430 C   0  0  0  0  0  0  0  0  0  0  0  0
   59.1230   33.4610   47.1240 N   0  0  0  0  0  0  0  0  0  0  0  0
   59.9830   34.3390   47.9500 C   0  0  0  0  0  0  0  0  0  0  0  0
   61.4130   33.8680   47.9300 C   0  0  0  0  0  0  0  0  0  0  0  0
   62.0950   33.7430   46.7120 C   0  0  0  0  0  0  0  0  0  0  0  0
   63.4280   33.3270   46.7090 C   0  0  0  0  0  0  0  0  0  0  0  0
   64.0600   33.0490   47.8810 N   0  0  0  0  0  0  0  0  0  0  0  0
   63.4220   33.1680   49.0770 C   0  0  0  0  0  0  0  0  0  0  0  0
   62.0880   33.5810   49.1240 C   0  0  0  0  0  0  0  0  0  0  0  0
   58.4510   32.4270   47.9390 C   0  0  0  0  0  0  0  0  0  0  0  0
   59.0130   31.0690   47.6150 C   0  0  0  0  0  0  0  0  0  0  0  0
   58.8910   30.0210   48.5420 C   0  0  0  0  0  0  0  0  0  0  0  0
   59.3930   28.7510   48.2400 C   0  0  0  0  0  0  0  0  0  0  0  0
   60.0180   28.5200   47.0120 C   0  0  0  0  0  0  0  0  0  0  0  0
   60.1400   29.5560   46.0820 C   0  0  0  0  0  0  0  0  0  0  0  0
   60.7430   29.3280   44.8890 F   0  0  0  0  0  0  0  0  0  0  0  0
   59.6400   30.8280   46.3800 C   0  0  0  0  0  0  0  0  0  0  0  0
   58.0615   28.3616   44.9984 H   0  0  0  0  0  0  0  0  0  0  0  0
   57.2401   27.7864   43.5081 H   0  0  0  0  0  0  0  0  0  0  0  0
   58.0997   29.3637   43.5081 H   0  0  0  0  0  0  0  0  0  0  0  0
   55.4147   29.1570   43.8142 H   0  0  0  0  0  0  0  0  0  0  0  0
   55.9381   28.9962   45.5473 H   0  0  0  0  0  0  0  0  0  0  0  0
   56.6560   31.0930   45.6230 H   0  0  0  0  0  0  0  0  0  0  0  0
   58.1987   30.6540   43.6234 H   0  0  0  0  0  0  0  0  0  0  0  0
   56.8703   31.4912   42.7219 H   0  0  0  0  0  0  0  0  0  0  0  0
   58.9798   32.6293   44.3420 H   0  0  0  0  0  0  0  0  0  0  0  0
   57.6759   33.4433   43.3454 H   0  0  0  0  0  0  0  0  0  0  0  0
   56.3456   33.8577   45.1391 H   0  0  0  0  0  0  0  0  0  0  0  0
   56.9703   32.4191   46.0612 H   0  0  0  0  0  0  0  0  0  0  0  0
   58.7654   34.7984   45.5379 H   0  0  0  0  0  0  0  0  0  0  0  0
   57.5395   34.7980   46.9007 H   0  0  0  0  0  0  0  0  0  0  0  0
   59.9364   35.3641   47.5536 H   0  0  0  0  0  0  0  0  0  0  0  0
   59.6191   34.3099   48.9877 H   0  0  0  0  0  0  0  0  0  0  0  0
   61.5838   33.9710   45.7651 H   0  0  0  0  0  0  0  0  0  0  0  0
   63.9684   33.2238   45.7564 H   0  0  0  0  0  0  0  0  0  0  0  0
   65.0580   32.7400   47.8630 H   0  0  0  0  0  0  0  0  0  0  0  0
   63.9581   32.9384   50.0097 H   0  0  0  0  0  0  0  0  0  0  0  0
   61.5719   33.6800   50.0904 H   0  0  0  0  0  0  0  0  0  0  0  0
   58.6119   32.6426   49.0056 H   0  0  0  0  0  0  0  0  0  0  0  0
   57.3741   32.4345   47.7147 H   0  0  0  0  0  0  0  0  0  0  0  0
   58.3987   30.1997   49.5093 H   0  0  0  0  0  0  0  0  0  0  0  0
   59.2957   27.9336   48.9697 H   0  0  0  0  0  0  0  0  0  0  0  0
   60.4146   27.5213   46.7768 H   0  0  0  0  0  0  0  0  0  0  0  0
   59.7376   31.6417   45.6462 H   0  0  0  0  0  0  0  0  0  0  0  0
  1  2  1  0
  2  3  1  0
  3  4  1  0
  4  5  1  0
  5  6  1  0
  6  7  1  0
  7  8  1  0
  8  9  1  0
  9 10  1  0
 10 11  2  0
 11 12  1  0
 12 13  2  0
 13 14  1  0
 14 15  2  0
  8 16  1  0
 16 17  1  0
 17 18  2  0
 18 19  1  0
 19 20  2  0
 20 21  1  0
 21 22  1  0
 21 23  2  0
 15 10  1  0
 23 17  1  0
  1 24  1  0
  1 25  1  0
  1 26  1  0
  2 27  1  0
  2 28  1  0
  3 29  1  0
  4 30  1  0
  4 31  1  0
  5 32  1  0
  5 33  1  0
  6 34  1  0
  6 35  1  0
  7 36  1  0
  7 37  1  0
  9 38  1  0
  9 39  1  0
 11 40  1  0
 12 41  1  0
 13 42  1  0
 14 43  1  0
 15 44  1  0
 16 45  1  0
 16 46  1  0
 18 47  1  0
 19 48  1  0
 20 49  1  0
 23 50  1  0
M  CHG  1  13   1
M  END
>  <UniqueID>  (35) 
35

>  <SMILES>  (35) 
CCNCCCCN(Cc1cc[nH+]cc1)Cc1cccc(F)c1

>  <Energy>  (35) 
48.19525041205344

>  <Genealogy>  (35) 
CCNCCCCN(Cc1cc[nH+]cc1)Cc1cccc(F)c1 (protonated)
CCNCCCCN(Cc1cc[nH+]cc1)Cc1cccc(F)c1 (3D coordinates assigned)
CCNCCCCN(Cc1cc[nH+]cc1)Cc1cccc(F)c1 (optimized conformer: 48.19525041205344 kcal/mol)

>  <smiles>  (35) 
CCNCCCCN(Cc1ccncc1)Cc1cccc(F)c1

>  <score_type>  (35) 
oracle

>  <origin>  (35) 
adg

>  <m_score__min__energy>  (35) 
-5.8600000000000003

>  <m_primary>  (35) 
energy

$$$$
35:0
     RDKit          3D

 42 43  0  0  0  0  0  0  0  0999 V2000
   60.8414   30.6554   47.8496 H   0  0  0  0  0  0  0  0  0  0  0  0
   60.3570   30.8090   46.8740 C   0  0  0  0  0  0  0  0  0  0  0  0
   60.1920   29.7340   46.0860 C   0  0  0  0  0  0  0  0  0  0  0  0
   61.0230   29.4610   45.4190 H   0  0  0  0  0  0  0  0  0  0  0  0
   58.9760   28.8870   46.0460 C   0  0  0  0  0  0  0  0  0  0  0  0
   57.7810   29.3780   45.4960 C   0  0  0  0  0  0  0  0  0  0  0  0
   57.7483   30.4016   45.0945 H   0  0  0  0  0  0  0  0  0  0  0  0
   56.6260   28.5780   45.4520 C   0  0  0  0  0  0  0  0  0  0  0  0
   55.4300   29.0300   44.8680 O   0  0  0  0  0  0  0  0  0  0  0  0
   55.3510   29.7370   43.6350 C   0  0  0  0  0  0  0  0  0  0  0  0
   55.2309   30.8118   43.8357 H   0  0  0  0  0  0  0  0  0  0  0  0
   56.2731   29.5725   43.0583 H   0  0  0  0  0  0  0  0  0  0  0  0
   54.4879   29.3730   43.0583 H   0  0  0  0  0  0  0  0  0  0  0  0
   56.6540   27.2890   46.0000 C   0  0  0  0  0  0  0  0  0  0  0  0
   55.4830   26.5180   45.9450 O   0  0  0  0  0  0  0  0  0  0  0  0
   55.4460   25.1190   45.6790 C   0  0  0  0  0  0  0  0  0  0  0  0
   55.4314   24.5653   46.6294 H   0  0  0  0  0  0  0  0  0  0  0  0
   54.5412   24.8794   45.1011 H   0  0  0  0  0  0  0  0  0  0  0  0
   56.3369   24.8320   45.1011 H   0  0  0  0  0  0  0  0  0  0  0  0
   57.8390   26.8090   46.5880 C   0  0  0  0  0  0  0  0  0  0  0  0
   57.8568   25.8023   47.0310 H   0  0  0  0  0  0  0  0  0  0  0  0
   59.0020   27.6020   46.6160 C   0  0  0  0  0  0  0  0  0  0  0  0
   60.2000   27.1400   47.1910 O   0  0  0  0  0  0  0  0  0  0  0  0
   61.1670   26.3400   46.5190 C   0  0  0  0  0  0  0  0  0  0  0  0
   61.7933   25.8219   47.2602 H   0  0  0  0  0  0  0  0  0  0  0  0
   60.6550   25.5980   45.8888 H   0  0  0  0  0  0  0  0  0  0  0  0
   61.8000   26.9820   45.8888 H   0  0  0  0  0  0  0  0  0  0  0  0
   59.9350   32.1870   46.5270 C   0  0  0  0  0  0  0  0  0  0  0  0
   58.6810   32.4240   45.9350 C   0  0  0  0  0  0  0  0  0  0  0  0
   58.0050   31.5806   45.7309 H   0  0  0  0  0  0  0  0  0  0  0  0
   58.2890   33.7220   45.6050 C   0  0  0  0  0  0  0  0  0  0  0  0
   57.3008   33.9003   45.1560 H   0  0  0  0  0  0  0  0  0  0  0  0
   59.1490   34.7930   45.8440 C   0  0  0  0  0  0  0  0  0  0  0  0
   58.8349   35.8159   45.5891 H   0  0  0  0  0  0  0  0  0  0  0  0
   60.4080   34.5710   46.4060 C   0  0  0  0  0  0  0  0  0  0  0  0
   61.0853   35.4194   46.5831 H   0  0  0  0  0  0  0  0  0  0  0  0
   60.8160   33.2640   46.7480 C   0  0  0  0  0  0  0  0  0  0  0  0
   62.0740   33.0070   47.3180 O   0  0  0  0  0  0  0  0  0  0  0  0
   63.3110   33.4710   46.7860 C   0  0  0  0  0  0  0  0  0  0  0  0
   63.9922   33.7265   47.6111 H   0  0  0  0  0  0  0  0  0  0  0  0
   63.7635   32.6815   46.1680 H   0  0  0  0  0  0  0  0  0  0  0  0
   63.1327   34.3634   46.1680 H   0  0  0  0  0  0  0  0  0  0  0  0
  1  2  1  0
  2  3  2  0
  3  4  1  0
  3  5  1  0
  5  6  2  0
  6  7  1  0
  6  8  1  0
  8  9  1  0
  9 10  1  0
 10 11  1  0
 10 12  1  0
 10 13  1  0
  8 14  2  0
 14 15  1  0
 15 16  1  0
 16 17  1  0
 16 18  1  0
 16 19  1  0
 14 20  1  0
 20 21  1  0
 20 22  2  0
 22 23  1  0
 23 24  1  0
 24 25  1  0
 24 26  1  0
 24 27  1  0
  2 28  1  0
 28 29  2  0
 29 30  1  0
 29 31  1  0
 31 32  1  0
 31 33  2  0
 33 34  1  0
 33 35  1  0
 35 36  1  0
 35 37  2  0
 37 38  1  0
 38 39  1  0
 39 40  1  0
 39 41  1  0
 39 42  1  0
 22  5  1  0
 37 28  1  0
M  END
>  <UniqueID>  (36) 
36

>  <SMILES>  (36) 
COc1ccccc1/C=C\c1cc(OC)c(OC)cc1OC

>  <Energy>  (36) 
49.8735933119524

>  <Genealogy>  (36) 
COc1ccccc1/C=C\c1cc(OC)c(OC)cc1OC (cis-trans isomerization)
COc1ccccc1/C=C\c1cc(OC)c(OC)cc1OC (3D coordinates assigned)
COc1ccccc1/C=C\c1cc(OC)c(OC)cc1OC (optimized conformer: 49.8735933119524 kcal/mol)

>  <smiles>  (36) 
COc1ccccc1C=Cc1cc(OC)c(OC)cc1OC

>  <score_type>  (36) 
oracle

>  <origin>  (36) 
adg

>  <m_score__min__energy>  (36) 
-6.9199999999999999

>  <m_primary>  (36) 
energy

$$$$
36:0
     RDKit          3D

 50 52  0  0  0  0  0  0  0  0999 V2000
   59.3730   34.9770   47.4220 C   0  0  0  0  0  0  0  0  0  0  0  0
   58.2990   33.9350   47.1230 C   0  0  0  0  0  0  0  0  0  0  0  0
   58.3330   33.5620   45.6920 N   0  0  0  0  0  0  0  0  0  0  0  0
   58.9500   34.6090   44.8600 C   0  0  0  0  0  0  0  0  0  0  0  0
   57.0150   33.1290   45.1740 C   0  0  0  0  0  0  0  0  0  0  0  0
   56.9680   31.6560   44.6970 C   0  0  0  0  0  0  0  0  0  0  0  0
   58.2330   31.2490   43.9270 C   0  0  0  0  0  0  0  0  0  0  0  0
   58.5460   29.8380   44.1600 N   0  0  0  0  0  0  0  0  0  0  0  0
   58.9690   29.3200   45.4350 C   0  0  0  0  0  0  0  0  0  0  0  0
   58.6050   28.0170   45.8170 C   0  0  0  0  0  0  0  0  0  0  0  0
   59.0510   27.4760   47.0220 C   0  0  0  0  0  0  0  0  0  0  0  0
   59.8720   28.2210   47.8660 C   0  0  0  0  0  0  0  0  0  0  0  0
   60.2410   29.5260   47.5160 C   0  0  0  0  0  0  0  0  0  0  0  0
   61.0570   30.2840   48.3650 C   0  0  0  0  0  0  0  0  0  0  0  0
   61.4060   31.5970   48.0250 C   0  0  0  0  0  0  0  0  0  0  0  0
   62.2760   32.4090   48.9150 C   0  0  0  0  0  0  0  0  0  0  0  0
   61.8230   33.6370   49.4330 C   0  0  0  0  0  0  0  0  0  0  0  0
   62.6450   34.4020   50.2660 C   0  0  0  0  0  0  0  0  0  0  0  0
   63.9250   33.9510   50.5940 C   0  0  0  0  0  0  0  0  0  0  0  0
   64.3880   32.7340   50.0900 C   0  0  0  0  0  0  0  0  0  0  0  0
   66.1380   32.1170   50.5420 Br  0  0  0  0  0  0  0  0  0  0  0  0
   63.5690   31.9650   49.2560 C   0  0  0  0  0  0  0  0  0  0  0  0
   60.9100   32.1310   46.8270 C   0  0  0  0  0  0  0  0  0  0  0  0
   60.1220   31.3870   46.0050 N   0  0  0  0  0  0  0  0  0  0  0  0
   59.7870   30.0930   46.3010 C   0  0  0  0  0  0  0  0  0  0  0  0
   59.4852   35.0859   48.5108 H   0  0  0  0  0  0  0  0  0  0  0  0
   60.3294   34.6535   46.9854 H   0  0  0  0  0  0  0  0  0  0  0  0
   59.0786   35.9427   46.9854 H   0  0  0  0  0  0  0  0  0  0  0  0
   58.4805   33.0400   47.7361 H   0  0  0  0  0  0  0  0  0  0  0  0
   57.3120   34.3589   47.3599 H   0  0  0  0  0  0  0  0  0  0  0  0
   59.4011   35.3744   45.5086 H   0  0  0  0  0  0  0  0  0  0  0  0
   59.7287   34.1613   44.2250 H   0  0  0  0  0  0  0  0  0  0  0  0
   58.1811   35.0733   44.2250 H   0  0  0  0  0  0  0  0  0  0  0  0
   56.2720   33.2551   45.9753 H   0  0  0  0  0  0  0  0  0  0  0  0
   56.8041   33.7517   44.2921 H   0  0  0  0  0  0  0  0  0  0  0  0
   56.8643   31.0032   45.5762 H   0  0  0  0  0  0  0  0  0  0  0  0
   56.1119   31.5518   44.0142 H   0  0  0  0  0  0  0  0  0  0  0  0
   58.0691   31.4101   42.8513 H   0  0  0  0  0  0  0  0  0  0  0  0
   59.0755   31.8622   44.2794 H   0  0  0  0  0  0  0  0  0  0  0  0
   58.4550   29.1860   43.3500 H   0  0  0  0  0  0  0  0  0  0  0  0
   57.9607   27.4172   45.1574 H   0  0  0  0  0  0  0  0  0  0  0  0
   58.7534   26.4563   47.3078 H   0  0  0  0  0  0  0  0  0  0  0  0
   60.2311   27.7833   48.8091 H   0  0  0  0  0  0  0  0  0  0  0  0
   61.4258   29.8457   49.3041 H   0  0  0  0  0  0  0  0  0  0  0  0
   60.8148   33.9974   49.1805 H   0  0  0  0  0  0  0  0  0  0  0  0
   62.2825   35.3613   50.6638 H   0  0  0  0  0  0  0  0  0  0  0  0
   64.5692   34.5549   51.2500 H   0  0  0  0  0  0  0  0  0  0  0  0
   63.9376   31.0059   48.8633 H   0  0  0  0  0  0  0  0  0  0  0  0
   61.1614   33.1650   46.5484 H   0  0  0  0  0  0  0  0  0  0  0  0
   59.7620   31.8560   45.1450 H   0  0  0  0  0  0  0  0  0  0  0  0
  1  2  1  0
  2  3  1  0
  3  4  1  0
  3  5  1  0
  5  6  1  0
  6  7  1  0
  7  8  1  0
  8  9  1  0
  9 10  2  0
 10 11  1  0
 11 12  2  0
 12 13  1  0
 13 14  2  0
 14 15  1  0
 15 16  1  0
 16 17  2  0
 17 18  1  0
 18 19  2  0
 19 20  1  0
 20 21  1  0
 20 22  2  0
 15 23  2  0
 23 24  1  0
 24 25  2  0
 25  9  1  0
 25 13  1  0
 22 16  1  0
  1 26  1  0
  1 27  1  0
  1 28  1  0
  2 29  1  0
  2 30  1  0
  4 31  1  0
  4 32  1  0
  4 33  1  0
  5 34  1  0
  5 35  1  0
  6 36  1  0
  6 37  1  0
  7 38  1  0
  7 39  1  0
  8 40  1  0
 10 41  1  0
 11 42  1  0
 12 43  1  0
 14 44  1  0
 17 45  1  0
 18 46  1  0
 19 47  1  0
 22 48  1  0
 23 49  1  0
 24 50  1  0
M  CHG  1  24   1
M  END
>  <UniqueID>  (37) 
37

>  <SMILES>  (37) 
CCN(C)CCCNc1cccc2cc(-c3cccc(Br)c3)c[nH+]c12

>  <Energy>  (37) 
63.6377028982289

>  <Genealogy>  (37) 
CCN(C)CCCNc1cccc2cc(-c3cccc(Br)c3)c[nH+]c12 (protonated)
CCN(C)CCCNc1cccc2cc(-c3cccc(Br)c3)c[nH+]c12 (3D coordinates assigned)
CCN(C)CCCNc1cccc2cc(-c3cccc(Br)c3)c[nH+]c12 (optimized conformer: 63.6377028982289 kcal/mol)

>  <smiles>  (37) 
CCN(C)CCCNc1cccc2cc(-c3cccc(Br)c3)cnc12

>  <score_type>  (37) 
oracle

>  <origin>  (37) 
adg

>  <m_score__min__energy>  (37) 
-6.75

>  <m_primary>  (37) 
energy

$$$$
37:0
     RDKit          3D

 49 50  0  0  0  0  0  0  0  0999 V2000
   58.8150   30.8490   49.8440 C   0  0  0  0  0  0  0  0  0  0  0  0
   58.6140   32.3070   49.4470 C   0  0  0  0  0  0  0  0  0  0  0  0
   58.0660   32.4030   48.1320 O   0  0  0  0  0  0  0  0  0  0  0  0
   58.4670   33.3180   47.1420 C   0  0  0  0  0  0  0  0  0  0  0  0
   59.2650   34.4430   47.4300 C   0  0  0  0  0  0  0  0  0  0  0  0
   59.6380   35.3230   46.4120 C   0  0  0  0  0  0  0  0  0  0  0  0
   59.2270   35.0900   45.1000 C   0  0  0  0  0  0  0  0  0  0  0  0
   58.4410   33.9760   44.8000 C   0  0  0  0  0  0  0  0  0  0  0  0
   58.0520   33.0830   45.8190 C   0  0  0  0  0  0  0  0  0  0  0  0
   57.2640   31.9470   45.5650 O   0  0  0  0  0  0  0  0  0  0  0  0
   57.4800   31.0000   44.5190 C   0  0  0  0  0  0  0  0  0  0  0  0
   58.0090   29.6820   45.0840 C   0  0  0  0  0  0  0  0  0  0  0  0
   58.2320   29.8120   46.5290 N   0  0  0  0  0  0  0  0  0  0  0  0
   59.3630   28.9860   46.9790 C   0  0  0  0  0  0  0  0  0  0  0  0
   60.6940   29.7110   46.7480 C   0  0  0  0  0  0  0  0  0  0  0  0
   60.6080   31.0820   47.1370 O   0  0  0  0  0  0  0  0  0  0  0  0
   61.6880   31.8980   47.5160 C   0  0  0  0  0  0  0  0  0  0  0  0
   62.1150   32.9960   46.7410 C   0  0  0  0  0  0  0  0  0  0  0  0
   63.1940   33.7770   47.1590 C   0  0  0  0  0  0  0  0  0  0  0  0
   63.8590   33.4740   48.3470 C   0  0  0  0  0  0  0  0  0  0  0  0
   63.4490   32.3880   49.1210 C   0  0  0  0  0  0  0  0  0  0  0  0
   62.3600   31.5920   48.7110 C   0  0  0  0  0  0  0  0  0  0  0  0
   61.9170   30.4920   49.4620 O   0  0  0  0  0  0  0  0  0  0  0  0
   62.2250   30.2760   50.8360 C   0  0  0  0  0  0  0  0  0  0  0  0
   58.8265   30.7659   50.9408 H   0  0  0  0  0  0  0  0  0  0  0  0
   57.9921   30.2419   49.4388 H   0  0  0  0  0  0  0  0  0  0  0  0
   59.7715   30.4872   49.4388 H   0  0  0  0  0  0  0  0  0  0  0  0
   57.9255   32.7835   50.1604 H   0  0  0  0  0  0  0  0  0  0  0  0
   59.5901   32.8141   49.4603 H   0  0  0  0  0  0  0  0  0  0  0  0
   59.5960   34.6291   48.4624 H   0  0  0  0  0  0  0  0  0  0  0  0
   60.2572   36.2017   46.6454 H   0  0  0  0  0  0  0  0  0  0  0  0
   59.5226   35.7850   44.3003 H   0  0  0  0  0  0  0  0  0  0  0  0
   58.1234   33.7940   43.7627 H   0  0  0  0  0  0  0  0  0  0  0  0
   56.5290   30.8139   43.9984 H   0  0  0  0  0  0  0  0  0  0  0  0
   58.2242   31.4090   43.8198 H   0  0  0  0  0  0  0  0  0  0  0  0
   57.2743   28.8846   44.8985 H   0  0  0  0  0  0  0  0  0  0  0  0
   58.9605   29.4326   44.5916 H   0  0  0  0  0  0  0  0  0  0  0  0
   58.4740   30.8130   46.7210 H   0  0  0  0  0  0  0  0  0  0  0  0
   59.2497   28.7738   48.0524 H   0  0  0  0  0  0  0  0  0  0  0  0
   59.3671   28.0499   46.4014 H   0  0  0  0  0  0  0  0  0  0  0  0
   61.4789   29.2182   47.3406 H   0  0  0  0  0  0  0  0  0  0  0  0
   60.9336   29.6671   45.6753 H   0  0  0  0  0  0  0  0  0  0  0  0
   61.5952   33.2383   45.8023 H   0  0  0  0  0  0  0  0  0  0  0  0
   63.5204   34.6331   46.5502 H   0  0  0  0  0  0  0  0  0  0  0  0
   64.7080   34.0922   48.6742 H   0  0  0  0  0  0  0  0  0  0  0  0
   63.9781   32.1516   50.0559 H   0  0  0  0  0  0  0  0  0  0  0  0
   61.4853   30.7947   51.4635 H   0  0  0  0  0  0  0  0  0  0  0  0
   62.1981   29.1979   51.0527 H   0  0  0  0  0  0  0  0  0  0  0  0
   63.2294   30.6686   51.0527 H   0  0  0  0  0  0  0  0  0  0  0  0
  1  2  1  0
  2  3  1  0
  3  4  1  0
  4  5  2  0
  5  6  1  0
  6  7  2  0
  7  8  1  0
  8  9  2  0
  9 10  1  0
 10 11  1  0
 11 12  1  0
 12 13  1  0
 13 14  1  0
 14 15  1  0
 15 16  1  0
 16 17  1  0
 17 18  2  0
 18 19  1  0
 19 20  2  0
 20 21  1  0
 21 22  2  0
 22 23  1  0
 23 24  1  0
  9  4  1  0
 22 17  1  0
  1 25  1  0
  1 26  1  0
  1 27  1  0
  2 28  1  0
  2 29  1  0
  5 30  1  0
  6 31  1  0
  7 32  1  0
  8 33  1  0
 11 34  1  0
 11 35  1  0
 12 36  1  0
 12 37  1  0
 13 38  1  0
 14 39  1  0
 14 40  1  0
 15 41  1  0
 15 42  1  0
 18 43  1  0
 19 44  1  0
 20 45  1  0
 21 46  1  0
 24 47  1  0
 24 48  1  0
 24 49  1  0
M  END
>  <UniqueID>  (38) 
38

>  <SMILES>  (38) 
CCOc1ccccc1OCCNCCOc1ccccc1OC

>  <Energy>  (38) 
43.370586089183874

>  <Genealogy>  (38) 
CCOc1ccccc1OCCNCCOc1ccccc1OC (3D coordinates assigned)
CCOc1ccccc1OCCNCCOc1ccccc1OC (optimized conformer: 43.370586089183874 kcal/mol)

>  <smiles>  (38) 
CCOc1ccccc1OCCNCCOc1ccccc1OC

>  <score_type>  (38) 
oracle

>  <origin>  (38) 
adg

>  <m_score__min__energy>  (38) 
-6.3200000000000003

>  <m_primary>  (38) 
energy

$$$$
38:0
     RDKit          3D

 50 54  0  0  0  0  0  0  0  0999 V2000
   61.0829   27.1019   49.6456 H   0  0  0  0  0  0  0  0  0  0  0  0
   60.4090   27.3680   48.8180 C   0  0  0  0  0  0  0  0  0  0  0  0
   59.6220   26.4070   48.2490 N   0  0  0  0  0  0  0  0  0  0  0  0
   58.8090   26.7460   47.2160 C   0  0  0  0  0  0  0  0  0  0  0  0
   58.7550   28.0190   46.7140 C   0  0  0  0  0  0  0  0  0  0  0  0
   59.5160   29.0400   47.2840 C   0  0  0  0  0  0  0  0  0  0  0  0
   59.4546   30.0731   46.9112 H   0  0  0  0  0  0  0  0  0  0  0  0
   60.3640   28.7000   48.3520 C   0  0  0  0  0  0  0  0  0  0  0  0
   60.9915   29.4703   48.8240 H   0  0  0  0  0  0  0  0  0  0  0  0
   57.8210   28.0000   45.6860 C   0  0  0  0  0  0  0  0  0  0  0  0
   57.3860   29.1000   44.8050 C   0  0  0  0  0  0  0  0  0  0  0  0
   57.2620   30.3530   45.3220 N   0  0  0  0  0  0  0  0  0  0  0  0
   56.8420   31.3980   44.5620 C   0  0  0  0  0  0  0  0  0  0  0  0
   56.7700   32.5810   45.0980 N   0  0  0  0  0  0  0  0  0  0  0  0
   57.8660   33.3800   45.5760 C   0  0  0  0  0  0  0  0  0  0  0  0
   58.1900   34.5550   44.8870 C   0  0  0  0  0  0  0  0  0  0  0  0
   57.5912   34.8612   44.0165 H   0  0  0  0  0  0  0  0  0  0  0  0
   59.2680   35.3400   45.2980 C   0  0  0  0  0  0  0  0  0  0  0  0
   59.5077   36.2680   44.7582 H   0  0  0  0  0  0  0  0  0  0  0  0
   60.0440   34.9510   46.3930 C   0  0  0  0  0  0  0  0  0  0  0  0
   60.8868   35.5798   46.7161 H   0  0  0  0  0  0  0  0  0  0  0  0
   59.7550   33.7610   47.0850 C   0  0  0  0  0  0  0  0  0  0  0  0
   60.5750   33.3610   48.2010 N   0  0  0  0  0  0  0  0  0  0  0  0
   60.3390   33.7050   49.4600 N   0  0  0  0  0  0  0  0  0  0  0  0
   61.2520   33.1690   50.2540 N   0  0  0  0  0  0  0  0  0  0  0  0
   61.2760   33.2750   51.2910 H   0  0  0  0  0  0  0  0  0  0  0  0
   62.1010   32.4640   49.4850 C   0  0  0  0  0  0  0  0  0  0  0  0
   63.2200   31.6190   49.9960 C   0  0  0  0  0  0  0  0  0  0  0  0
   63.2115   31.6254   51.0959 H   0  0  0  0  0  0  0  0  0  0  0  0
   63.0954   30.5877   49.6343 H   0  0  0  0  0  0  0  0  0  0  0  0
   64.1779   32.0211   49.6343 H   0  0  0  0  0  0  0  0  0  0  0  0
   61.6710   32.5690   48.1810 C   0  0  0  0  0  0  0  0  0  0  0  0
   62.1288   32.1008   47.2971 H   0  0  0  0  0  0  0  0  0  0  0  0
   58.6700   32.9710   46.6570 C   0  0  0  0  0  0  0  0  0  0  0  0
   58.4487   32.0249   47.1727 H   0  0  0  0  0  0  0  0  0  0  0  0
   56.5420   31.1950   43.2490 N   0  0  0  0  0  0  0  0  0  0  0  0
   56.6330   29.9600   42.6930 C   0  0  0  0  0  0  0  0  0  0  0  0
   56.3770   29.8142   41.6332 H   0  0  0  0  0  0  0  0  0  0  0  0
   57.0500   28.8780   43.4630 C   0  0  0  0  0  0  0  0  0  0  0  0
   57.1144   27.8701   43.0272 H   0  0  0  0  0  0  0  0  0  0  0  0
   57.3410   26.6900   45.6390 C   0  0  0  0  0  0  0  0  0  0  0  0
   56.5759   26.3267   44.9372 H   0  0  0  0  0  0  0  0  0  0  0  0
   57.9500   25.9300   46.5790 N   0  0  0  0  0  0  0  0  0  0  0  0
   57.7610   24.4980   46.7960 C   0  0  0  0  0  0  0  0  0  0  0  0
   58.2138   24.2136   47.7573 H   0  0  0  0  0  0  0  0  0  0  0  0
   58.2413   23.9449   45.9754 H   0  0  0  0  0  0  0  0  0  0  0  0
   56.2750   24.1590   46.8200 C   0  0  0  0  0  0  0  0  0  0  0  0
   55.9335   24.0811   47.8627 H   0  0  0  0  0  0  0  0  0  0  0  0
   55.7098   24.9513   46.3073 H   0  0  0  0  0  0  0  0  0  0  0  0
   56.1094   23.2000   46.3073 H   0  0  0  0  0  0  0  0  0  0  0  0
  1  2  1  0
  2  3  2  0
  3  4  1  0
  4  5  2  0
  5  6  1  0
  6  7  1  0
  6  8  2  0
  8  9  1  0
  5 10  1  0
 10 11  1  0
 11 12  2  0
 12 13  1  0
 13 14  2  0
 14 15  1  0
 15 16  2  0
 16 17  1  0
 16 18  1  0
 18 19  1  0
 18 20  2  0
 20 21  1  0
 20 22  1  0
 22 23  1  0
 23 24  1  0
 24 25  2  0
 25 26  1  0
 25 27  1  0
 27 28  1  0
 28 29  1  0
 28 30  1  0
 28 31  1  0
 27 32  2  0
 32 33  1  0
 22 34  2  0
 34 35  1  0
 13 36  1  0
 36 37  1  0
 37 38  1  0
 37 39  2  0
 39 40  1  0
 10 41  2  0
 41 42  1  0
 41 43  1  0
 43 44  1  0
 44 45  1  0
 44 46  1  0
 44 47  1  0
 47 48  1  0
 47 49  1  0
 47 50  1  0
  8  2  1  0
 39 11  1  0
 43  4  1  0
 34 15  1  0
 32 23  1  0
M  CHG  2  25   1  36  -1
M  END
>  <UniqueID>  (39) 
39

>  <SMILES>  (39) 
CCn1cc(-c2cc[n-]/c(=N\c3cccc(-n4cc(C)[nH+]n4)c3)n2)c2cccnc21

>  <Energy>  (39) 
136.0737906719288

>  <Genealogy>  (39) 
CCn1cc(-c2cc[n-]c(=Nc3cccc(-n4cc(C)[nH+]n4)c3)n2)c2cccnc21 (protonated)
CCn1cc(-c2cc[n-]/c(=N\c3cccc(-n4cc(C)[nH+]n4)c3)n2)c2cccnc21 (cis-trans isomerization)
CCn1cc(-c2cc[n-]/c(=N\c3cccc(-n4cc(C)[nH+]n4)c3)n2)c2cccnc21 (3D coordinates assigned)
CCn1cc(-c2cc[n-]/c(=N\c3cccc(-n4cc(C)[nH+]n4)c3)n2)c2cccnc21 (optimized conformer: 136.0737906719288 kcal/mol)

>  <smiles>  (39) 
CCn1cc(-c2cc[nH]c(=Nc3cccc(-n4cc(C)nn4)c3)n2)c2cccnc21

>  <score_type>  (39) 
oracle

>  <origin>  (39) 
adg

>  <m_score__min__energy>  (39) 
-9.3499999999999996

>  <m_primary>  (39) 
energy

$$$$
39:0
     RDKit          3D

 43 45  0  0  0  0  0  0  0  0999 V2000
   60.7010   26.0860   46.3880 C   0  0  0  0  0  0  0  0  0  0  0  0
   59.2620   25.9820   45.9850 C   0  0  0  0  0  0  0  0  0  0  0  0
   58.4760   27.1560   46.3140 N   0  0  0  0  0  0  0  0  0  0  0  0
   57.0360   27.2200   46.0810 C   0  0  0  0  0  0  0  0  0  0  0  0
   56.6400   28.2460   45.1150 C   0  0  0  0  0  0  0  0  0  0  0  0
   57.4290   28.5930   44.0100 C   0  0  0  0  0  0  0  0  0  0  0  0
   56.7430   29.5830   43.3360 C   0  0  0  0  0  0  0  0  0  0  0  0
   55.5760   29.7840   44.0710 C   0  0  0  0  0  0  0  0  0  0  0  0
   55.5400   28.9870   45.1070 O   0  0  0  0  0  0  0  0  0  0  0  0
   59.0510   28.3220   46.8840 C   0  0  0  0  0  0  0  0  0  0  0  0
   58.8210   28.7130   48.0590 O   0  0  0  0  0  0  0  0  0  0  0  0
   60.0090   29.2150   46.1120 C   0  0  0  0  0  0  0  0  0  0  0  0
   59.4250   30.4310   45.9150 N   0  0  0  0  0  0  0  0  0  0  0  0
   58.8400   31.6500   45.7160 C   0  0  0  0  0  0  0  0  0  0  0  0
   57.9120   32.0910   44.8160 C   0  0  0  0  0  0  0  0  0  0  0  0
   57.4240   33.3800   44.7410 C   0  0  0  0  0  0  0  0  0  0  0  0
   57.9100   34.2810   45.6420 C   0  0  0  0  0  0  0  0  0  0  0  0
   58.8380   33.9410   46.5800 C   0  0  0  0  0  0  0  0  0  0  0  0
   59.2770   34.9140   47.4580 C   0  0  0  0  0  0  0  0  0  0  0  0
   60.2120   34.5810   48.4110 C   0  0  0  0  0  0  0  0  0  0  0  0
   60.7060   33.2780   48.4870 C   0  0  0  0  0  0  0  0  0  0  0  0
   60.2310   32.3520   47.5860 C   0  0  0  0  0  0  0  0  0  0  0  0
   59.2940   32.6610   46.6200 C   0  0  0  0  0  0  0  0  0  0  0  0
   60.7749   26.0913   47.4855 H   0  0  0  0  0  0  0  0  0  0  0  0
   61.2571   25.2257   45.9872 H   0  0  0  0  0  0  0  0  0  0  0  0
   61.1276   27.0173   45.9872 H   0  0  0  0  0  0  0  0  0  0  0  0
   59.2168   25.8281   44.8968 H   0  0  0  0  0  0  0  0  0  0  0  0
   58.8317   25.1402   46.5473 H   0  0  0  0  0  0  0  0  0  0  0  0
   56.7015   26.2418   45.7051 H   0  0  0  0  0  0  0  0  0  0  0  0
   56.5672   27.4844   47.0403 H   0  0  0  0  0  0  0  0  0  0  0  0
   58.4026   28.1616   43.7343 H   0  0  0  0  0  0  0  0  0  0  0  0
   57.0511   30.1019   42.4163 H   0  0  0  0  0  0  0  0  0  0  0  0
   54.7930   30.5128   43.8148 H   0  0  0  0  0  0  0  0  0  0  0  0
   60.9385   29.3416   46.6865 H   0  0  0  0  0  0  0  0  0  0  0  0
   60.2432   28.7548   45.1407 H   0  0  0  0  0  0  0  0  0  0  0  0
   59.0390   30.4280   47.1960 H   0  0  0  0  0  0  0  0  0  0  0  0
   57.5220   31.3599   44.0925 H   0  0  0  0  0  0  0  0  0  0  0  0
   56.6760   33.6678   43.9876 H   0  0  0  0  0  0  0  0  0  0  0  0
   57.5406   35.3166   45.6105 H   0  0  0  0  0  0  0  0  0  0  0  0
   58.8846   35.9397   47.3958 H   0  0  0  0  0  0  0  0  0  0  0  0
   60.5716   35.3450   49.1159 H   0  0  0  0  0  0  0  0  0  0  0  0
   61.4531   32.9991   49.2447 H   0  0  0  0  0  0  0  0  0  0  0  0
   60.6141   31.3222   47.6378 H   0  0  0  0  0  0  0  0  0  0  0  0
  1  2  1  0
  2  3  1  0
  3  4  1  0
  4  5  1  0
  5  6  2  0
  6  7  1  0
  7  8  2  0
  8  9  1  0
  3 10  1  0
 10 11  2  0
 10 12  1  0
 12 13  1  0
 13 14  1  0
 14 15  2  0
 15 16  1  0
 16 17  2  0
 17 18  1  0
 18 19  2  0
 19 20  1  0
 20 21  2  0
 21 22  1  0
 22 23  2  0
  9  5  1  0
 23 14  1  0
 23 18  1  0
  1 24  1  0
  1 25  1  0
  1 26  1  0
  2 27  1  0
  2 28  1  0
  4 29  1  0
  4 30  1  0
  6 31  1  0
  7 32  1  0
  8 33  1  0
 12 34  1  0
 12 35  1  0
 13 36  1  0
 15 37  1  0
 16 38  1  0
 17 39  1  0
 19 40  1  0
 20 41  1  0
 21 42  1  0
 22 43  1  0
M  END
>  <UniqueID>  (40) 
40

>  <SMILES>  (40) 
CCN(Cc1ccco1)C(=O)CNc1cccc2ccccc12

>  <Energy>  (40) 
239.58067839444695

>  <Genealogy>  (40) 
CCN(Cc1ccco1)C(=O)CNc1cccc2ccccc12 (3D coordinates assigned)
CCN(Cc1ccco1)C(=O)CNc1cccc2ccccc12 (optimized conformer: 239.58067839444695 kcal/mol)

>  <smiles>  (40) 
CCN(Cc1ccco1)C(=O)CNc1cccc2ccccc12

>  <score_type>  (40) 
oracle

>  <origin>  (40) 
adg

>  <m_score__min__energy>  (40) 
-7.5800000000000001

>  <m_primary>  (40) 
energy

$$$$
40:0
     RDKit          3D

 42 45  0  0  0  0  0  0  0  0999 V2000
   56.6730   30.1890   43.6390 C   0  0  0  0  0  0  0  0  0  0  0  0
   56.8630   30.6710   44.9660 O   0  0  0  0  0  0  0  0  0  0  0  0
   57.5070   31.8740   45.2860 C   0  0  0  0  0  0  0  0  0  0  0  0
   57.3460   33.0450   44.5200 C   0  0  0  0  0  0  0  0  0  0  0  0
   58.0100   34.2200   44.8820 C   0  0  0  0  0  0  0  0  0  0  0  0
   58.8390   34.2400   46.0060 C   0  0  0  0  0  0  0  0  0  0  0  0
   59.0100   33.0810   46.7770 C   0  0  0  0  0  0  0  0  0  0  0  0
   59.8660   33.0980   47.9310 N   0  0  0  0  0  0  0  0  0  0  0  0
   61.1800   33.4460   47.9670 C   0  0  0  0  0  0  0  0  0  0  0  0
   61.6690   33.3260   49.2730 C   0  0  0  0  0  0  0  0  0  0  0  0
   60.6040   32.8800   50.0370 C   0  0  0  0  0  0  0  0  0  0  0  0
   60.5040   32.5940   51.4000 C   0  0  0  0  0  0  0  0  0  0  0  0
   59.2590   32.1700   51.8960 C   0  0  0  0  0  0  0  0  0  0  0  0
   58.1510   32.0470   51.0330 C   0  0  0  0  0  0  0  0  0  0  0  0
   58.2770   32.3420   49.6650 C   0  0  0  0  0  0  0  0  0  0  0  0
   59.5280   32.7500   49.1920 C   0  0  0  0  0  0  0  0  0  0  0  0
   63.0590   33.6500   49.7430 C   0  0  0  0  0  0  0  0  0  0  0  0
   64.1290   32.7850   49.0520 C   0  0  0  0  0  0  0  0  0  0  0  0
   63.8600   32.5270   47.6260 N   0  0  0  0  0  0  0  0  0  0  0  0
   63.5000   33.7470   46.8880 C   0  0  0  0  0  0  0  0  0  0  0  0
   61.9730   33.8690   46.7460 C   0  0  0  0  0  0  0  0  0  0  0  0
   58.3410   31.9040   46.4110 C   0  0  0  0  0  0  0  0  0  0  0  0
   56.2698   29.1662   43.6746 H   0  0  0  0  0  0  0  0  0  0  0  0
   55.9657   30.8437   43.1089 H   0  0  0  0  0  0  0  0  0  0  0  0
   57.6368   30.1849   43.1089 H   0  0  0  0  0  0  0  0  0  0  0  0
   56.6950   33.0345   43.6334 H   0  0  0  0  0  0  0  0  0  0  0  0
   57.8795   35.1315   44.2803 H   0  0  0  0  0  0  0  0  0  0  0  0
   59.3593   35.1675   46.2873 H   0  0  0  0  0  0  0  0  0  0  0  0
   61.3735   32.6974   52.0658 H   0  0  0  0  0  0  0  0  0  0  0  0
   59.1485   31.9326   52.9644 H   0  0  0  0  0  0  0  0  0  0  0  0
   57.1809   31.7177   51.4335 H   0  0  0  0  0  0  0  0  0  0  0  0
   57.4163   32.2545   48.9857 H   0  0  0  0  0  0  0  0  0  0  0  0
   63.2671   34.7084   49.5273 H   0  0  0  0  0  0  0  0  0  0  0  0
   63.1051   33.4418   50.8221 H   0  0  0  0  0  0  0  0  0  0  0  0
   65.0971   33.3009   49.1339 H   0  0  0  0  0  0  0  0  0  0  0  0
   64.1260   31.8087   49.5588 H   0  0  0  0  0  0  0  0  0  0  0  0
   64.7360   32.1320   47.2090 H   0  0  0  0  0  0  0  0  0  0  0  0
   63.8828   34.6234   47.4315 H   0  0  0  0  0  0  0  0  0  0  0  0
   63.9446   33.6954   45.8832 H   0  0  0  0  0  0  0  0  0  0  0  0
   61.7333   34.9208   46.5310 H   0  0  0  0  0  0  0  0  0  0  0  0
   61.6835   33.1810   45.9380 H   0  0  0  0  0  0  0  0  0  0  0  0
   58.4727   30.9938   47.0144 H   0  0  0  0  0  0  0  0  0  0  0  0
  1  2  1  0
  2  3  1  0
  3  4  2  0
  4  5  1  0
  5  6  2  0
  6  7  1  0
  7  8  1  0
  8  9  1  0
  9 10  2  0
 10 11  1  0
 11 12  2  0
 12 13  1  0
 13 14  2  0
 14 15  1  0
 15 16  2  0
 10 17  1  0
 17 18  1  0
 18 19  1  0
 19 20  1  0
 20 21  1  0
  7 22  2  0
 22  3  1  0
 16  8  1  0
 21  9  1  0
 16 11  1  0
  1 23  1  0
  1 24  1  0
  1 25  1  0
  4 26  1  0
  5 27  1  0
  6 28  1  0
 12 29  1  0
 13 30  1  0
 14 31  1  0
 15 32  1  0
 17 33  1  0
 17 34  1  0
 18 35  1  0
 18 36  1  0
 19 37  1  0
 20 38  1  0
 20 39  1  0
 21 40  1  0
 21 41  1  0
 22 42  1  0
M  END
>  <UniqueID>  (41) 
41

>  <SMILES>  (41) 
COc1cccc(-n2c3c(c4ccccc42)CCNCC3)c1

>  <Energy>  (41) 
91.53565243065336

>  <Genealogy>  (41) 
COc1cccc(-n2c3c(c4ccccc42)CCNCC3)c1 (3D coordinates assigned)
COc1cccc(-n2c3c(c4ccccc42)CCNCC3)c1 (nonaromatic ring conformer: 91.53565243065336 kcal/mol)

>  <smiles>  (41) 
COc1cccc(-n2c3c(c4ccccc42)CCNCC3)c1

>  <score_type>  (41) 
oracle

>  <origin>  (41) 
adg

>  <m_score__min__energy>  (41) 
-6.5700000000000003

>  <m_primary>  (41) 
energy

$$$$
41:0
     RDKit          3D

 60 64  0  0  0  0  0  0  0  0999 V2000
   65.5860   33.9550   51.2740 C   0  0  0  0  0  0  0  0  0  0  0  0
   64.5370   33.2360   50.5210 N   0  0  1  0  0  0  0  0  0  0  0  0
   64.0960   32.0060   51.2040 C   0  0  1  0  0  0  0  0  0  0  0  0
   63.1190   32.4630   52.3030 C   0  0  0  0  0  0  0  0  0  0  0  0
   62.6240   33.8210   51.8250 C   0  0  0  0  0  0  0  0  0  0  0  0
   63.2720   33.9890   50.4370 C   0  0  2  0  0  0  0  0  0  0  0  0
   62.4060   33.3880   49.2680 C   0  0  2  0  0  0  0  0  0  0  0  0
   60.9240   33.7300   49.3640 C   0  0  0  0  0  0  0  0  0  0  0  0
   60.4010   33.8970   50.4990 O   0  0  0  0  0  0  0  0  0  0  0  0
   60.0610   33.8660   48.1610 C   0  0  0  0  0  0  0  0  0  0  0  0
   58.7930   33.2570   48.1430 C   0  0  0  0  0  0  0  0  0  0  0  0
   57.9640   33.3720   47.0230 C   0  0  0  0  0  0  0  0  0  0  0  0
   58.3880   34.1000   45.9100 C   0  0  0  0  0  0  0  0  0  0  0  0
   59.6400   34.7180   45.9170 C   0  0  0  0  0  0  0  0  0  0  0  0
   60.4730   34.6060   47.0350 C   0  0  0  0  0  0  0  0  0  0  0  0
   62.7140   31.8610   48.9950 C   0  0  2  0  0  0  0  0  0  0  0  0
   61.5980   31.1100   48.2710 C   0  0  0  0  0  0  0  0  0  0  0  0
   60.7040   30.2560   48.9410 C   0  0  0  0  0  0  0  0  0  0  0  0
   59.6660   29.6250   48.2520 C   0  0  0  0  0  0  0  0  0  0  0  0
   59.4730   29.8300   46.8660 C   0  0  0  0  0  0  0  0  0  0  0  0
   58.3860   29.1720   46.1450 N   0  0  0  0  0  0  0  0  0  0  0  0
   57.7070   29.8900   45.0450 C   0  0  0  0  0  0  0  0  0  0  0  0
   56.6470   29.0510   44.3250 C   0  0  0  0  0  0  0  0  0  0  0  0
   55.9380   28.2440   45.2350 O   0  0  0  0  0  0  0  0  0  0  0  0
   56.8100   27.2530   45.7220 C   0  0  0  0  0  0  0  0  0  0  0  0
   57.8870   27.8650   46.6220 C   0  0  0  0  0  0  0  0  0  0  0  0
   60.3610   30.7120   46.2090 C   0  0  0  0  0  0  0  0  0  0  0  0
   61.3980   31.3410   46.9020 C   0  0  0  0  0  0  0  0  0  0  0  0
   63.3590   31.0810   50.1890 C   0  0  0  0  0  0  0  0  0  0  0  0
   65.4104   33.8346   52.3532 H   0  0  0  0  0  0  0  0  0  0  0  0
   66.5719   33.5419   51.0146 H   0  0  0  0  0  0  0  0  0  0  0  0
   65.5564   35.0236   51.0146 H   0  0  0  0  0  0  0  0  0  0  0  0
   64.9410   33.0400   49.5750 H   0  0  0  0  0  0  0  0  0  0  0  0
   64.9426   31.4430   51.6238 H   0  0  0  0  0  0  0  0  0  0  0  0
   62.2825   31.7552   52.3997 H   0  0  0  0  0  0  0  0  0  0  0  0
   63.5945   32.5138   53.2936 H   0  0  0  0  0  0  0  0  0  0  0  0
   61.5268   33.8318   51.7477 H   0  0  0  0  0  0  0  0  0  0  0  0
   62.8890   34.6346   52.5163 H   0  0  0  0  0  0  0  0  0  0  0  0
   63.3924   35.0580   50.2075 H   0  0  0  0  0  0  0  0  0  0  0  0
   62.7342   33.9063   48.3549 H   0  0  0  0  0  0  0  0  0  0  0  0
   58.4506   32.6851   49.0181 H   0  0  0  0  0  0  0  0  0  0  0  0
   56.9762   32.8881   47.0189 H   0  0  0  0  0  0  0  0  0  0  0  0
   57.7363   34.1867   45.0281 H   0  0  0  0  0  0  0  0  0  0  0  0
   59.9721   35.2945   45.0410 H   0  0  0  0  0  0  0  0  0  0  0  0
   61.4564   35.0989   47.0352 H   0  0  0  0  0  0  0  0  0  0  0  0
   63.5314   31.8998   48.2600 H   0  0  0  0  0  0  0  0  0  0  0  0
   60.8237   30.0829   50.0207 H   0  0  0  0  0  0  0  0  0  0  0  0
   58.9852   28.9554   48.7980 H   0  0  0  0  0  0  0  0  0  0  0  0
   57.2187   30.7830   45.4623 H   0  0  0  0  0  0  0  0  0  0  0  0
   58.4774   30.1422   44.3015 H   0  0  0  0  0  0  0  0  0  0  0  0
   55.9414   29.7235   43.8152 H   0  0  0  0  0  0  0  0  0  0  0  0
   57.1517   28.3983   43.5975 H   0  0  0  0  0  0  0  0  0  0  0  0
   56.2319   26.5181   46.3014 H   0  0  0  0  0  0  0  0  0  0  0  0
   57.3022   26.7676   44.8664 H   0  0  0  0  0  0  0  0  0  0  0  0
   57.4632   28.0009   47.6279 H   0  0  0  0  0  0  0  0  0  0  0  0
   58.7419   27.1728   46.6175 H   0  0  0  0  0  0  0  0  0  0  0  0
   60.2333   30.9063   45.1339 H   0  0  0  0  0  0  0  0  0  0  0  0
   62.0685   32.0285   46.3655 H   0  0  0  0  0  0  0  0  0  0  0  0
   62.5637   30.5405   50.7231 H   0  0  0  0  0  0  0  0  0  0  0  0
   64.1107   30.3994   49.7644 H   0  0  0  0  0  0  0  0  0  0  0  0
  1  2  1  0
  2  3  1  0
  3  4  1  0
  4  5  1  0
  5  6  1  0
  6  7  1  0
  7  8  1  0
  8  9  2  0
  8 10  1  0
 10 11  2  0
 11 12  1  0
 12 13  2  0
 13 14  1  0
 14 15  2  0
  7 16  1  0
 16 17  1  0
 17 18  2  0
 18 19  1  0
 19 20  2  0
 20 21  1  0
 21 22  1  0
 22 23  1  0
 23 24  1  0
 24 25  1  0
 25 26  1  0
 20 27  1  0
 27 28  2  0
 16 29  1  0
  6  2  1  0
 15 10  1  0
 28 17  1  0
 29  3  1  0
 26 21  1  0
  1 30  1  0
  1 31  1  0
  1 32  1  0
  2 33  1  6
  3 34  1  1
  4 35  1  0
  4 36  1  0
  5 37  1  0
  5 38  1  0
  6 39  1  6
  7 40  1  6
 11 41  1  0
 12 42  1  0
 13 43  1  0
 14 44  1  0
 15 45  1  0
 16 46  1  6
 18 47  1  0
 19 48  1  0
 22 49  1  0
 22 50  1  0
 23 51  1  0
 23 52  1  0
 25 53  1  0
 25 54  1  0
 26 55  1  0
 26 56  1  0
 27 57  1  0
 28 58  1  0
 29 59  1  0
 29 60  1  0
M  CHG  1   2   1
M  END
>  <UniqueID>  (42) 
42

>  <SMILES>  (42) 
C[N@@H+]1C2CC[C@H]1CC(c1ccc(N3CCOCC3)cc1)C2C(=O)c1ccccc1

>  <Energy>  (42) 
106.74942757688326

>  <Genealogy>  (42) 
C[NH+]1C2CCC1C(C(=O)c1ccccc1)C(c1ccc(N3CCOCC3)cc1)C2 (protonated)
C[N@@H+]1C2CC[C@H]1CC(c1ccc(N3CCOCC3)cc1)C2C(=O)c1ccccc1 (chirality)
C[N@@H+]1C2CC[C@H]1CC(c1ccc(N3CCOCC3)cc1)C2C(=O)c1ccccc1 (3D coordinates assigned)
C[N@@H+]1C2CC[C@H]1CC(c1ccc(N3CCOCC3)cc1)C2C(=O)c1ccccc1 (nonaromatic ring conformer: 106.74942757688326 kcal/mol)

>  <smiles>  (42) 
CN1C2CCC1C(C(=O)c1ccccc1)C(c1ccc(N3CCOCC3)cc1)C2

>  <score_type>  (42) 
oracle

>  <origin>  (42) 
adg

>  <m_score__min__energy>  (42) 
-7.2300000000000004

>  <m_primary>  (42) 
energy

$$$$
42:0
     RDKit          3D

 60 62  0  0  0  0  0  0  0  0999 V2000
   57.9340   32.4630   52.1900 C   0  0  0  0  0  0  0  0  0  0  0  0
   56.9350   31.5060   51.5340 C   0  0  0  0  0  0  0  0  0  0  0  0
   57.4100   30.1040   51.5700 N   0  0  0  0  0  0  0  0  0  0  0  0
   56.6240   29.3060   52.5340 C   0  0  0  0  0  0  0  0  0  0  0  0
   58.8510   30.0490   51.9150 C   0  0  0  0  0  0  0  0  0  0  0  0
   59.6720   29.5540   50.7180 C   0  0  0  0  0  0  0  0  0  0  0  0
   58.8460   29.4720   49.5120 N   0  0  0  0  0  0  0  0  0  0  0  0
   59.1690   28.5750   48.4410 C   0  0  0  0  0  0  0  0  0  0  0  0
   60.2330   27.8980   48.4790 O   0  0  0  0  0  0  0  0  0  0  0  0
   58.2680   28.4870   47.2370 C   0  0  0  0  0  0  0  0  0  0  0  0
   58.8490   29.1880   46.0020 C   0  0  0  0  0  0  0  0  0  0  0  0
   57.9390   30.2650   45.4950 C   0  0  0  0  0  0  0  0  0  0  0  0
   56.7920   30.0470   44.8050 N   0  0  0  0  0  0  0  0  0  0  0  0
   56.2800   31.2380   44.4830 N   0  0  0  0  0  0  0  0  0  0  0  0
   57.1320   32.1550   44.9820 C   0  0  0  0  0  0  0  0  0  0  0  0
   57.0320   33.5370   44.9090 C   0  0  0  0  0  0  0  0  0  0  0  0
   58.0560   34.2790   45.5220 C   0  0  0  0  0  0  0  0  0  0  0  0
   59.1130   33.6130   46.1840 C   0  0  0  0  0  0  0  0  0  0  0  0
   60.4090   34.5540   46.9990 S   0  0  0  0  0  0  0  0  0  0  0  0
   59.9770   34.0400   48.7040 C   0  0  0  0  0  0  0  0  0  0  0  0
   59.7070   32.5720   48.8580 C   0  0  0  0  0  0  0  0  0  0  0  0
   58.5530   32.1950   49.1980 O   0  0  0  0  0  0  0  0  0  0  0  0
   60.7420   31.6010   48.7020 N   0  0  0  0  0  0  0  0  0  0  0  0
   62.1160   31.8620   49.0300 C   0  0  0  0  0  0  0  0  0  0  0  0
   62.6840   31.3850   50.2270 C   0  0  0  0  0  0  0  0  0  0  0  0
   63.9910   31.7390   50.5780 C   0  0  0  0  0  0  0  0  0  0  0  0
   64.7530   32.5630   49.7340 C   0  0  0  0  0  0  0  0  0  0  0  0
   66.1250   33.0000   50.1520 C   0  0  0  0  0  0  0  0  0  0  0  0
   64.1830   33.0500   48.5460 C   0  0  0  0  0  0  0  0  0  0  0  0
   62.8700   32.7050   48.2000 C   0  0  0  0  0  0  0  0  0  0  0  0
   59.1500   32.2480   46.1980 N   0  0  0  0  0  0  0  0  0  0  0  0
   58.1630   31.5820   45.6020 N   0  0  0  0  0  0  0  0  0  0  0  0
   57.8524   32.3848   53.2842 H   0  0  0  0  0  0  0  0  0  0  0  0
   58.9550   32.1973   51.8786 H   0  0  0  0  0  0  0  0  0  0  0  0
   57.7124   33.4945   51.8786 H   0  0  0  0  0  0  0  0  0  0  0  0
   55.9762   31.5707   52.0692 H   0  0  0  0  0  0  0  0  0  0  0  0
   56.8210   31.8009   50.4804 H   0  0  0  0  0  0  0  0  0  0  0  0
   56.9037   29.5900   53.5592 H   0  0  0  0  0  0  0  0  0  0  0  0
   55.5517   29.4973   52.3802 H   0  0  0  0  0  0  0  0  0  0  0  0
   56.8315   28.2368   52.3802 H   0  0  0  0  0  0  0  0  0  0  0  0
   59.1940   31.0551   52.1979 H   0  0  0  0  0  0  0  0  0  0  0  0
   58.9893   29.3511   52.7539 H   0  0  0  0  0  0  0  0  0  0  0  0
   60.5025   30.2525   50.5381 H   0  0  0  0  0  0  0  0  0  0  0  0
   60.0559   28.5492   50.9483 H   0  0  0  0  0  0  0  0  0  0  0  0
   58.0010   30.0800   49.4160 H   0  0  0  0  0  0  0  0  0  0  0  0
   58.1084   27.4258   46.9953 H   0  0  0  0  0  0  0  0  0  0  0  0
   57.3266   28.9957   47.4921 H   0  0  0  0  0  0  0  0  0  0  0  0
   59.8172   29.6364   46.2694 H   0  0  0  0  0  0  0  0  0  0  0  0
   58.9676   28.4375   45.2066 H   0  0  0  0  0  0  0  0  0  0  0  0
   56.1919   34.0280   44.3961 H   0  0  0  0  0  0  0  0  0  0  0  0
   58.0352   35.3782   45.4868 H   0  0  0  0  0  0  0  0  0  0  0  0
   60.8133   34.3076   49.3666 H   0  0  0  0  0  0  0  0  0  0  0  0
   59.0428   34.5603   48.9621 H   0  0  0  0  0  0  0  0  0  0  0  0
   62.0973   30.7311   50.8890 H   0  0  0  0  0  0  0  0  0  0  0  0
   64.4239   31.3702   51.5196 H   0  0  0  0  0  0  0  0  0  0  0  0
   66.1850   33.0191   51.2502 H   0  0  0  0  0  0  0  0  0  0  0  0
   66.8708   32.2950   49.7562 H   0  0  0  0  0  0  0  0  0  0  0  0
   66.3257   34.0065   49.7562 H   0  0  0  0  0  0  0  0  0  0  0  0
   64.7698   33.7047   47.8849 H   0  0  0  0  0  0  0  0  0  0  0  0
   62.4278   33.0973   47.2723 H   0  0  0  0  0  0  0  0  0  0  0  0
  1  2  1  0
  2  3  1  0
  3  4  1  0
  3  5  1  0
  5  6  1  0
  6  7  1  0
  7  8  1  0
  8  9  2  0
  8 10  1  0
 10 11  1  0
 11 12  1  0
 12 13  2  0
 13 14  1  0
 14 15  2  0
 15 16  1  0
 16 17  2  0
 17 18  1  0
 18 19  1  0
 19 20  1  0
 20 21  1  0
 21 22  2  0
 21 23  1  0
 23 24  1  0
 24 25  2  0
 25 26  1  0
 26 27  2  0
 27 28  1  0
 27 29  1  0
 29 30  2  0
 18 31  2  0
 31 32  1  0
 32 12  1  0
 32 15  1  0
 30 24  1  0
  1 33  1  0
  1 34  1  0
  1 35  1  0
  2 36  1  0
  2 37  1  0
  4 38  1  0
  4 39  1  0
  4 40  1  0
  5 41  1  0
  5 42  1  0
  6 43  1  0
  6 44  1  0
  7 45  1  0
 10 46  1  0
 10 47  1  0
 11 48  1  0
 11 49  1  0
 16 50  1  0
 17 51  1  0
 20 52  1  0
 20 53  1  0
 25 54  1  0
 26 55  1  0
 28 56  1  0
 28 57  1  0
 28 58  1  0
 29 59  1  0
 30 60  1  0
M  CHG  1  23  -1
M  END
>  <UniqueID>  (43) 
43

>  <SMILES>  (43) 
CCN(C)CCNC(=O)CCc1nnc2ccc(SCC(=O)[N-]c3ccc(C)cc3)nn12

>  <Energy>  (43) 
99.73450141956775

>  <Genealogy>  (43) 
CCN(C)CCNC(=O)CCc1nnc2ccc(SCC(=O)[N-]c3ccc(C)cc3)nn12 (protonated)
CCN(C)CCNC(=O)CCc1nnc2ccc(SCC(=O)[N-]c3ccc(C)cc3)nn12 (3D coordinates assigned)
CCN(C)CCNC(=O)CCc1nnc2ccc(SCC(=O)[N-]c3ccc(C)cc3)nn12 (optimized conformer: 99.73450141956775 kcal/mol)

>  <smiles>  (43) 
CCN(C)CCNC(=O)CCc1nnc2ccc(SCC(=O)Nc3ccc(C)cc3)nn12

>  <score_type>  (43) 
oracle

>  <origin>  (43) 
adg

>  <m_score__min__energy>  (43) 
-9.4499999999999993

>  <m_primary>  (43) 
energy

$$$$
43:0
     RDKit          3D

 44 46  0  0  0  0  0  0  0  0999 V2000
   63.9617   33.3526   48.5211 H   0  0  0  0  0  0  0  0  0  0  0  0
   62.9550   33.6070   48.1580 C   0  0  0  0  0  0  0  0  0  0  0  0
   62.6500   33.4810   46.8000 C   0  0  0  0  0  0  0  0  0  0  0  0
   63.4158   33.1243   46.0955 H   0  0  0  0  0  0  0  0  0  0  0  0
   61.3720   33.8080   46.3360 C   0  0  0  0  0  0  0  0  0  0  0  0
   61.1321   33.6985   45.2681 H   0  0  0  0  0  0  0  0  0  0  0  0
   60.3930   34.2760   47.2290 C   0  0  0  0  0  0  0  0  0  0  0  0
   59.0080   34.5900   46.7380 C   0  0  0  0  0  0  0  0  0  0  0  0
   59.0427   34.8350   45.6662 H   0  0  0  0  0  0  0  0  0  0  0  0
   58.6025   35.4505   47.2904 H   0  0  0  0  0  0  0  0  0  0  0  0
   58.1600   33.4260   46.9460 N   0  0  0  0  0  0  0  0  0  0  0  0
   57.9790   32.3610   46.2140 C   0  0  0  0  0  0  0  0  0  0  0  0
   56.9970   32.3500   45.2780 N   0  0  0  0  0  0  0  0  0  0  0  0
   57.1320   31.1520   44.6940 C   0  0  0  0  0  0  0  0  0  0  0  0
   56.3630   30.6260   43.6600 C   0  0  0  0  0  0  0  0  0  0  0  0
   55.5370   31.2018   43.2171 H   0  0  0  0  0  0  0  0  0  0  0  0
   56.6760   29.3350   43.2000 C   0  0  0  0  0  0  0  0  0  0  0  0
   56.0889   28.8868   42.3849 H   0  0  0  0  0  0  0  0  0  0  0  0
   57.7410   28.6110   43.7800 C   0  0  0  0  0  0  0  0  0  0  0  0
   57.9806   27.6024   43.4123 H   0  0  0  0  0  0  0  0  0  0  0  0
   58.4970   29.1720   44.8250 C   0  0  0  0  0  0  0  0  0  0  0  0
   59.3274   28.6167   45.2855 H   0  0  0  0  0  0  0  0  0  0  0  0
   58.1600   30.4590   45.2610 C   0  0  0  0  0  0  0  0  0  0  0  0
   58.7200   31.1990   46.2430 N   0  0  0  0  0  0  0  0  0  0  0  0
   59.7610   30.7040   47.1600 C   0  0  0  0  0  0  0  0  0  0  0  0
   60.6302   31.3764   47.1109 H   0  0  0  0  0  0  0  0  0  0  0  0
   60.0373   29.6849   46.8516 H   0  0  0  0  0  0  0  0  0  0  0  0
   59.2520   30.6490   48.6120 C   0  0  0  0  0  0  0  0  0  0  0  0
   60.1116   30.5136   49.2849 H   0  0  0  0  0  0  0  0  0  0  0  0
   58.5470   29.8086   48.6936 H   0  0  0  0  0  0  0  0  0  0  0  0
   58.5390   31.8800   48.9930 N   0  0  0  0  0  0  0  0  0  0  0  0
   59.1470   32.6970   48.7520 H   0  0  0  0  0  0  0  0  0  0  0  0
   57.6410   31.9680   48.4640 H   0  0  0  0  0  0  0  0  0  0  0  0
   58.2720   31.9360   50.4420 C   0  0  0  0  0  0  0  0  0  0  0  0
   58.5815   30.9830   50.8959 H   0  0  0  0  0  0  0  0  0  0  0  0
   57.1954   32.1153   50.5792 H   0  0  0  0  0  0  0  0  0  0  0  0
   59.0290   33.0780   51.1290 C   0  0  0  0  0  0  0  0  0  0  0  0
   58.9533   32.9637   52.2204 H   0  0  0  0  0  0  0  0  0  0  0  0
   60.0871   33.0487   50.8298 H   0  0  0  0  0  0  0  0  0  0  0  0
   58.5899   34.0412   50.8298 H   0  0  0  0  0  0  0  0  0  0  0  0
   60.7030   34.3840   48.5950 C   0  0  0  0  0  0  0  0  0  0  0  0
   59.9367   34.7279   49.3053 H   0  0  0  0  0  0  0  0  0  0  0  0
   61.9820   34.0560   49.0550 C   0  0  0  0  0  0  0  0  0  0  0  0
   62.2226   34.1515   50.1241 H   0  0  0  0  0  0  0  0  0  0  0  0
  1  2  1  0
  2  3  2  0
  3  4  1  0
  3  5  1  0
  5  6  1  0
  5  7  2  0
  7  8  1  0
  8  9  1  0
  8 10  1  0
  8 11  1  0
 11 12  2  0
 12 13  1  0
 13 14  1  0
 14 15  2  0
 15 16  1  0
 15 17  1  0
 17 18  1  0
 17 19  2  0
 19 20  1  0
 19 21  1  0
 21 22  1  0
 21 23  2  0
 23 24  1  0
 24 25  1  0
 25 26  1  0
 25 27  1  0
 25 28  1  0
 28 29  1  0
 28 30  1  0
 28 31  1  0
 31 32  1  0
 31 33  1  0
 31 34  1  0
 34 35  1  0
 34 36  1  0
 34 37  1  0
 37 38  1  0
 37 39  1  0
 37 40  1  0
  7 41  1  0
 41 42  1  0
 41 43  2  0
 43 44  1  0
 43  2  1  0
 24 12  1  0
 23 14  1  0
M  CHG  2  13  -1  31   1
M  END
>  <UniqueID>  (44) 
44

>  <SMILES>  (44) 
CC[NH2+]CCn1/c(=N\Cc2ccccc2)[n-]c2ccccc21

>  <Energy>  (44) 
87.43881966955524

>  <Genealogy>  (44) 
CC[NH2+]CCn1c(=NCc2ccccc2)[n-]c2ccccc21 (protonated)
CC[NH2+]CCn1/c(=N\Cc2ccccc2)[n-]c2ccccc21 (cis-trans isomerization)
CC[NH2+]CCn1/c(=N\Cc2ccccc2)[n-]c2ccccc21 (3D coordinates assigned)
CC[NH2+]CCn1/c(=N\Cc2ccccc2)[n-]c2ccccc21 (optimized conformer: 87.43881966955524 kcal/mol)

>  <smiles>  (44) 
CCNCCn1c(=NCc2ccccc2)[nH]c2ccccc21

>  <score_type>  (44) 
oracle

>  <origin>  (44) 
adg

>  <m_score__min__energy>  (44) 
-6.3099999999999996

>  <m_primary>  (44) 
energy

$$$$
44:0
     RDKit          3D

 58 60  0  0  0  0  0  0  0  0999 V2000
   57.4620   32.2100   41.9110 C   0  0  0  0  0  0  0  0  0  0  0  0
   58.3830   31.6090   42.9740 C   0  0  0  0  0  0  0  0  0  0  0  0
   58.0010   32.0360   44.3370 N   0  0  0  0  0  0  0  0  0  0  0  0
   57.4120   30.9800   45.1940 C   0  0  0  0  0  0  0  0  0  0  0  0
   56.5780   29.9390   44.4310 C   0  0  0  0  0  0  0  0  0  0  0  0
   57.3950   33.3840   44.4780 C   0  0  0  0  0  0  0  0  0  0  0  0
   57.8690   34.1940   45.6980 C   0  0  0  0  0  0  0  0  0  0  0  0
   59.1720   33.7220   46.1820 N   0  0  0  0  0  0  0  0  0  0  0  0
   59.1150   33.2680   47.5830 C   0  0  0  0  0  0  0  0  0  0  0  0
   60.4360   32.7400   48.0930 C   0  0  0  0  0  0  0  0  0  0  0  0
   61.4260   33.4400   48.7680 C   0  0  0  0  0  0  0  0  0  0  0  0
   62.4420   32.5950   49.0430 N   0  0  0  0  0  0  0  0  0  0  0  0
   63.6600   32.9230   49.7410 C   0  0  0  0  0  0  0  0  0  0  0  0
   64.8800   32.3260   49.3720 C   0  0  0  0  0  0  0  0  0  0  0  0
   66.0590   32.6470   50.0510 C   0  0  0  0  0  0  0  0  0  0  0  0
   66.0360   33.5640   51.1040 C   0  0  0  0  0  0  0  0  0  0  0  0
   67.6480   34.0000   52.0300 Br  0  0  0  0  0  0  0  0  0  0  0  0
   64.8300   34.1610   51.4800 C   0  0  0  0  0  0  0  0  0  0  0  0
   63.6480   33.8450   50.8040 C   0  0  0  0  0  0  0  0  0  0  0  0
   62.1470   31.3950   48.5630 N   0  0  0  0  0  0  0  0  0  0  0  0
   60.9410   31.4470   47.9650 C   0  0  0  0  0  0  0  0  0  0  0  0
   60.3000   30.2830   47.3150 C   0  0  0  0  0  0  0  0  0  0  0  0
   59.2630   29.6030   47.9730 C   0  0  0  0  0  0  0  0  0  0  0  0
   58.6550   28.4930   47.3770 C   0  0  0  0  0  0  0  0  0  0  0  0
   59.0910   28.0340   46.1250 C   0  0  0  0  0  0  0  0  0  0  0  0
   58.4110   26.8690   45.4690 C   0  0  0  0  0  0  0  0  0  0  0  0
   60.1260   28.7130   45.4660 C   0  0  0  0  0  0  0  0  0  0  0  0
   60.7350   29.8210   46.0620 C   0  0  0  0  0  0  0  0  0  0  0  0
   56.6376   32.7480   42.4019 H   0  0  0  0  0  0  0  0  0  0  0  0
   58.0338   32.9093   41.2833 H   0  0  0  0  0  0  0  0  0  0  0  0
   57.0522   31.4050   41.2833 H   0  0  0  0  0  0  0  0  0  0  0  0
   58.3259   30.5120   42.9155 H   0  0  0  0  0  0  0  0  0  0  0  0
   59.4062   31.9628   42.7792 H   0  0  0  0  0  0  0  0  0  0  0  0
   58.2316   30.4558   45.7073 H   0  0  0  0  0  0  0  0  0  0  0  0
   56.7258   31.4850   45.8898 H   0  0  0  0  0  0  0  0  0  0  0  0
   56.0570   29.2887   45.1492 H   0  0  0  0  0  0  0  0  0  0  0  0
   55.8390   30.4531   43.7988 H   0  0  0  0  0  0  0  0  0  0  0  0
   57.2409   29.3300   43.7988 H   0  0  0  0  0  0  0  0  0  0  0  0
   57.6353   33.9610   43.5728 H   0  0  0  0  0  0  0  0  0  0  0  0
   56.3170   33.2193   44.6225 H   0  0  0  0  0  0  0  0  0  0  0  0
   57.9555   35.2528   45.4127 H   0  0  0  0  0  0  0  0  0  0  0  0
   57.1330   34.0657   46.5054 H   0  0  0  0  0  0  0  0  0  0  0  0
   59.5330   32.9640   45.5560 H   0  0  0  0  0  0  0  0  0  0  0  0
   58.8112   34.1168   48.2133 H   0  0  0  0  0  0  0  0  0  0  0  0
   58.3928   32.4395   47.6285 H   0  0  0  0  0  0  0  0  0  0  0  0
   61.3889   34.5065   49.0347 H   0  0  0  0  0  0  0  0  0  0  0  0
   64.9059   31.6022   48.5441 H   0  0  0  0  0  0  0  0  0  0  0  0
   67.0079   32.1758   49.7549 H   0  0  0  0  0  0  0  0  0  0  0  0
   64.8106   34.8819   52.3106 H   0  0  0  0  0  0  0  0  0  0  0  0
   62.7026   34.3200   51.1049 H   0  0  0  0  0  0  0  0  0  0  0  0
   62.7540   30.5490   48.6460 H   0  0  0  0  0  0  0  0  0  0  0  0
   58.9266   29.9449   48.9629 H   0  0  0  0  0  0  0  0  0  0  0  0
   57.8312   27.9776   47.8924 H   0  0  0  0  0  0  0  0  0  0  0  0
   58.0161   26.1925   46.2413 H   0  0  0  0  0  0  0  0  0  0  0  0
   57.5834   27.2328   44.8423 H   0  0  0  0  0  0  0  0  0  0  0  0
   59.1348   26.3273   44.8423 H   0  0  0  0  0  0  0  0  0  0  0  0
   60.4603   28.3719   44.4751 H   0  0  0  0  0  0  0  0  0  0  0  0
   61.5601   30.3343   45.5465 H   0  0  0  0  0  0  0  0  0  0  0  0
  1  2  1  0
  2  3  1  0
  3  4  1  0
  4  5  1  0
  3  6  1  0
  6  7  1  0
  7  8  1  0
  8  9  1  0
  9 10  1  0
 10 11  2  0
 11 12  1  0
 12 13  1  0
 13 14  2  0
 14 15  1  0
 15 16  2  0
 16 17  1  0
 16 18  1  0
 18 19  2  0
 12 20  1  0
 20 21  2  0
 21 22  1  0
 22 23  2  0
 23 24  1  0
 24 25  2  0
 25 26  1  0
 25 27  1  0
 27 28  2  0
 21 10  1  0
 28 22  1  0
 19 13  1  0
  1 29  1  0
  1 30  1  0
  1 31  1  0
  2 32  1  0
  2 33  1  0
  4 34  1  0
  4 35  1  0
  5 36  1  0
  5 37  1  0
  5 38  1  0
  6 39  1  0
  6 40  1  0
  7 41  1  0
  7 42  1  0
  8 43  1  0
  9 44  1  0
  9 45  1  0
 11 46  1  0
 14 47  1  0
 15 48  1  0
 18 49  1  0
 19 50  1  0
 20 51  1  0
 23 52  1  0
 24 53  1  0
 26 54  1  0
 26 55  1  0
 26 56  1  0
 27 57  1  0
 28 58  1  0
M  CHG  1  20   1
M  END
>  <UniqueID>  (45) 
45

>  <SMILES>  (45) 
CCN(CC)CCNCc1cn(-c2ccc(Br)cc2)[nH+]c1-c1ccc(C)cc1

>  <Energy>  (45) 
105.36367539101083

>  <Genealogy>  (45) 
CCN(CC)CCNCc1cn(-c2ccc(Br)cc2)[nH+]c1-c1ccc(C)cc1 (protonated)
CCN(CC)CCNCc1cn(-c2ccc(Br)cc2)[nH+]c1-c1ccc(C)cc1 (3D coordinates assigned)
CCN(CC)CCNCc1cn(-c2ccc(Br)cc2)[nH+]c1-c1ccc(C)cc1 (optimized conformer: 105.36367539101083 kcal/mol)

>  <smiles>  (45) 
CCN(CC)CCNCc1cn(-c2ccc(Br)cc2)nc1-c1ccc(C)cc1

>  <score_type>  (45) 
oracle

>  <origin>  (45) 
adg

>  <m_score__min__energy>  (45) 
-6.4699999999999998

>  <m_primary>  (45) 
energy

$$$$
45:0
     RDKit          3D

 65 68  0  0  0  0  0  0  0  0999 V2000
   57.7450   22.2500   50.5370 C   0  0  0  0  0  0  0  0  0  0  0  0
   57.3370   21.0050   49.7560 C   0  0  0  0  0  0  0  0  0  0  0  0
   57.0250   21.3740   48.3490 N   0  0  0  0  0  0  0  0  0  0  0  0
   56.2090   22.6070   48.2700 C   0  0  0  0  0  0  0  0  0  0  0  0
   56.9930   23.7490   47.6230 C   0  0  0  0  0  0  0  0  0  0  0  0
   56.3580   20.2640   47.6280 C   0  0  0  0  0  0  0  0  0  0  0  0
   57.3100   19.5940   46.6220 C   0  0  0  0  0  0  0  0  0  0  0  0
   56.8600   19.8070   45.2380 N   0  0  0  0  0  0  0  0  0  0  0  0
   57.0800   21.1810   44.8560 C   0  0  0  0  0  0  0  0  0  0  0  0
   58.3840   21.6980   44.7890 C   0  0  0  0  0  0  0  0  0  0  0  0
   58.5980   23.0420   44.4720 C   0  0  0  0  0  0  0  0  0  0  0  0
   57.5110   23.8960   44.2130 C   0  0  0  0  0  0  0  0  0  0  0  0
   57.7190   25.3240   43.8860 C   0  0  0  0  0  0  0  0  0  0  0  0
   57.8460   26.3740   44.7790 C   0  0  0  0  0  0  0  0  0  0  0  0
   57.9910   27.4840   43.9670 C   0  0  0  0  0  0  0  0  0  0  0  0
   58.1500   28.8950   44.3840 C   0  0  0  0  0  0  0  0  0  0  0  0
   59.1660   29.2380   45.2900 C   0  0  0  0  0  0  0  0  0  0  0  0
   59.3470   30.5670   45.6840 C   0  0  0  0  0  0  0  0  0  0  0  0
   58.5180   31.5820   45.1780 C   0  0  0  0  0  0  0  0  0  0  0  0
   58.7130   32.9560   45.5740 N   0  0  0  0  0  0  0  0  0  0  0  0
   58.1380   33.4460   46.8350 C   0  0  0  0  0  0  0  0  0  0  0  0
   59.0170   34.5390   47.4820 C   0  0  0  0  0  0  0  0  0  0  0  0
   59.8140   35.3350   46.5260 N   0  0  0  0  0  0  0  0  0  0  0  0
   59.2480   35.3370   45.1720 C   0  0  0  0  0  0  0  0  0  0  0  0
   59.2480   33.9160   44.6000 C   0  0  0  0  0  0  0  0  0  0  0  0
   57.4960   31.2380   44.2750 C   0  0  0  0  0  0  0  0  0  0  0  0
   57.3140   29.9090   43.8820 C   0  0  0  0  0  0  0  0  0  0  0  0
   57.9550   27.0890   42.7150 O   0  0  0  0  0  0  0  0  0  0  0  0
   57.7900   25.8020   42.6280 N   0  0  0  0  0  0  0  0  0  0  0  0
   56.2060   23.3740   44.2710 C   0  0  0  0  0  0  0  0  0  0  0  0
   55.9920   22.0320   44.6010 C   0  0  0  0  0  0  0  0  0  0  0  0
   57.6777   22.0447   51.6156 H   0  0  0  0  0  0  0  0  0  0  0  0
   58.7792   22.5219   50.2793 H   0  0  0  0  0  0  0  0  0  0  0  0
   57.0723   23.0813   50.2793 H   0  0  0  0  0  0  0  0  0  0  0  0
   58.1630   20.2787   49.7687 H   0  0  0  0  0  0  0  0  0  0  0  0
   56.4454   20.5596   50.2215 H   0  0  0  0  0  0  0  0  0  0  0  0
   55.3097   22.4042   47.6699 H   0  0  0  0  0  0  0  0  0  0  0  0
   55.9341   22.9085   49.2915 H   0  0  0  0  0  0  0  0  0  0  0  0
   57.4294   24.3847   48.4075 H   0  0  0  0  0  0  0  0  0  0  0  0
   57.7973   23.3336   46.9980 H   0  0  0  0  0  0  0  0  0  0  0  0
   56.3164   24.3503   46.9980 H   0  0  0  0  0  0  0  0  0  0  0  0
   56.0235   19.5129   48.3587 H   0  0  0  0  0  0  0  0  0  0  0  0
   55.5031   20.6770   47.0725 H   0  0  0  0  0  0  0  0  0  0  0  0
   58.3165   20.0215   46.7415 H   0  0  0  0  0  0  0  0  0  0  0  0
   57.3209   18.5123   46.8213 H   0  0  0  0  0  0  0  0  0  0  0  0
   55.8420   19.5730   45.1500 H   0  0  0  0  0  0  0  0  0  0  0  0
   57.3910   19.1760   44.5930 H   0  0  0  0  0  0  0  0  0  0  0  0
   59.2431   21.0403   44.9875 H   0  0  0  0  0  0  0  0  0  0  0  0
   59.6243   23.4350   44.4247 H   0  0  0  0  0  0  0  0  0  0  0  0
   57.8343   26.3347   45.8782 H   0  0  0  0  0  0  0  0  0  0  0  0
   59.8249   28.4548   45.6931 H   0  0  0  0  0  0  0  0  0  0  0  0
   60.1457   30.8203   46.3966 H   0  0  0  0  0  0  0  0  0  0  0  0
   57.1412   33.8648   46.6324 H   0  0  0  0  0  0  0  0  0  0  0  0
   58.0773   32.5989   47.5341 H   0  0  0  0  0  0  0  0  0  0  0  0
   58.3589   35.2255   48.0348 H   0  0  0  0  0  0  0  0  0  0  0  0
   59.7375   34.0166   48.1285 H   0  0  0  0  0  0  0  0  0  0  0  0
   60.7870   34.9480   46.4830 H   0  0  0  0  0  0  0  0  0  0  0  0
   58.2153   35.7141   45.2098 H   0  0  0  0  0  0  0  0  0  0  0  0
   59.8594   35.9850   44.5269 H   0  0  0  0  0  0  0  0  0  0  0  0
   58.6254   33.8933   43.6934 H   0  0  0  0  0  0  0  0  0  0  0  0
   60.2845   33.6338   44.3632 H   0  0  0  0  0  0  0  0  0  0  0  0
   56.8348   32.0209   43.8750 H   0  0  0  0  0  0  0  0  0  0  0  0
   56.5110   29.6540   43.1748 H   0  0  0  0  0  0  0  0  0  0  0  0
   55.3472   24.0265   44.0551 H   0  0  0  0  0  0  0  0  0  0  0  0
   54.9658   21.6406   44.6612 H   0  0  0  0  0  0  0  0  0  0  0  0
  1  2  1  0
  2  3  1  0
  3  4  1  0
  4  5  1  0
  3  6  1  0
  6  7  1  0
  7  8  1  0
  8  9  1  0
  9 10  2  0
 10 11  1  0
 11 12  2  0
 12 13  1  0
 13 14  1  0
 14 15  2  0
 15 16  1  0
 16 17  2  0
 17 18  1  0
 18 19  2  0
 19 20  1  0
 20 21  1  0
 21 22  1  0
 22 23  1  0
 23 24  1  0
 24 25  1  0
 19 26  1  0
 26 27  2  0
 15 28  1  0
 28 29  1  0
 12 30  1  0
 30 31  2  0
 31  9  1  0
 29 13  2  0
 27 16  1  0
 25 20  1  0
  1 32  1  0
  1 33  1  0
  1 34  1  0
  2 35  1  0
  2 36  1  0
  4 37  1  0
  4 38  1  0
  5 39  1  0
  5 40  1  0
  5 41  1  0
  6 42  1  0
  6 43  1  0
  7 44  1  0
  7 45  1  0
  8 46  1  0
  8 47  1  0
 10 48  1  0
 11 49  1  0
 14 50  1  0
 17 51  1  0
 18 52  1  0
 21 53  1  0
 21 54  1  0
 22 55  1  0
 22 56  1  0
 23 57  1  0
 24 58  1  0
 24 59  1  0
 25 60  1  0
 25 61  1  0
 26 62  1  0
 27 63  1  0
 30 64  1  0
 31 65  1  0
M  CHG  1   8   1
M  END
>  <UniqueID>  (46) 
46

>  <SMILES>  (46) 
CCN(CC)CC[NH2+]c1ccc(-c2cc(-c3ccc(N4CCNCC4)cc3)on2)cc1

>  <Energy>  (46) 
107.13044301467032

>  <Genealogy>  (46) 
CCN(CC)CC[NH2+]c1ccc(-c2cc(-c3ccc(N4CCNCC4)cc3)on2)cc1 (protonated)
CCN(CC)CC[NH2+]c1ccc(-c2cc(-c3ccc(N4CCNCC4)cc3)on2)cc1 (3D coordinates assigned)
CCN(CC)CC[NH2+]c1ccc(-c2cc(-c3ccc(N4CCNCC4)cc3)on2)cc1 (nonaromatic ring conformer: 107.13044301467032 kcal/mol)

>  <smiles>  (46) 
CCN(CC)CCNc1ccc(-c2cc(-c3ccc(N4CCNCC4)cc3)on2)cc1

>  <score_type>  (46) 
oracle

>  <origin>  (46) 
adg

>  <m_score__min__energy>  (46) 
-7.0999999999999996

>  <m_primary>  (46) 
energy

$$$$
46:0
     RDKit          3D

 77 78  0  0  0  0  0  0  0  0999 V2000
   56.8793   32.2425   46.4198 H   0  0  0  0  0  0  0  0  0  0  0  0
   57.1220   32.2560   45.3470 C   0  0  0  0  0  0  0  0  0  0  0  0
   56.8760   31.1860   44.6450 N   0  0  0  0  0  0  0  0  0  0  0  0
   57.3980   29.8750   44.9150 C   0  0  0  0  0  0  0  0  0  0  0  0
   58.7800   29.6600   45.0000 C   0  0  0  0  0  0  0  0  0  0  0  0
   59.4733   30.5024   44.8595 H   0  0  0  0  0  0  0  0  0  0  0  0
   59.2840   28.3830   45.2620 C   0  0  0  0  0  0  0  0  0  0  0  0
   60.6580   28.2070   45.3740 O   0  0  0  0  0  0  0  0  0  0  0  0
   58.4110   27.2940   45.4240 C   0  0  0  0  0  0  0  0  0  0  0  0
   58.9430   25.9840   45.7060 N   0  0  0  0  0  0  0  0  0  0  0  0
   59.9350   25.9010   46.0220 H   0  0  0  0  0  0  0  0  0  0  0  0
   58.1420   24.7580   45.7050 C   0  0  0  0  0  0  0  0  0  0  0  0
   57.3412   24.8488   46.4537 H   0  0  0  0  0  0  0  0  0  0  0  0
   58.7956   23.9073   45.9480 H   0  0  0  0  0  0  0  0  0  0  0  0
   57.5180   24.5230   44.3270 C   0  0  0  0  0  0  0  0  0  0  0  0
   58.2412   24.0030   43.6816 H   0  0  0  0  0  0  0  0  0  0  0  0
   57.2517   25.4908   43.8770 H   0  0  0  0  0  0  0  0  0  0  0  0
   56.2980   23.6940   44.4680 N   0  0  0  0  0  0  0  0  0  0  0  0
   56.5950   22.2400   44.4480 C   0  0  0  0  0  0  0  0  0  0  0  0
   55.7526   21.7096   44.9160 H   0  0  0  0  0  0  0  0  0  0  0  0
   57.5409   22.1037   44.9927 H   0  0  0  0  0  0  0  0  0  0  0  0
   56.8080   21.6600   43.0450 C   0  0  0  0  0  0  0  0  0  0  0  0
   57.1861   20.6303   43.1274 H   0  0  0  0  0  0  0  0  0  0  0  0
   55.8523   21.6571   42.5004 H   0  0  0  0  0  0  0  0  0  0  0  0
   57.5384   22.2764   42.5004 H   0  0  0  0  0  0  0  0  0  0  0  0
   55.4610   24.1440   45.6050 C   0  0  0  0  0  0  0  0  0  0  0  0
   55.6315   23.4724   46.4593 H   0  0  0  0  0  0  0  0  0  0  0  0
   55.7463   25.1780   45.8488 H   0  0  0  0  0  0  0  0  0  0  0  0
   53.9730   24.1340   45.2590 C   0  0  0  0  0  0  0  0  0  0  0  0
   53.3810   24.1300   46.1861 H   0  0  0  0  0  0  0  0  0  0  0  0
   53.7273   25.0305   44.6709 H   0  0  0  0  0  0  0  0  0  0  0  0
   53.7393   23.2343   44.6709 H   0  0  0  0  0  0  0  0  0  0  0  0
   57.0240   27.5090   45.2960 C   0  0  0  0  0  0  0  0  0  0  0  0
   56.3290   26.6629   45.4007 H   0  0  0  0  0  0  0  0  0  0  0  0
   56.5240   28.7890   45.0370 C   0  0  0  0  0  0  0  0  0  0  0  0
   55.1530   28.9790   44.9080 O   0  0  0  0  0  0  0  0  0  0  0  0
   57.7210   33.5100   44.7670 C   0  0  0  0  0  0  0  0  0  0  0  0
   58.6199   33.2442   44.1913 H   0  0  0  0  0  0  0  0  0  0  0  0
   56.9693   33.9854   44.1197 H   0  0  0  0  0  0  0  0  0  0  0  0
   58.1100   34.5070   45.8690 C   0  0  0  0  0  0  0  0  0  0  0  0
   57.4200   35.3631   45.8388 H   0  0  0  0  0  0  0  0  0  0  0  0
   58.0487   33.9952   46.8407 H   0  0  0  0  0  0  0  0  0  0  0  0
   59.5480   35.0140   45.6740 C   0  0  0  0  0  0  0  0  0  0  0  0
   59.8046   34.9378   44.6071 H   0  0  0  0  0  0  0  0  0  0  0  0
   59.5811   36.0537   46.0318 H   0  0  0  0  0  0  0  0  0  0  0  0
   60.5820   34.2170   46.4840 C   0  0  0  0  0  0  0  0  0  0  0  0
   60.5884   33.1799   46.1174 H   0  0  0  0  0  0  0  0  0  0  0  0
   61.5548   34.7116   46.3463 H   0  0  0  0  0  0  0  0  0  0  0  0
   60.2890   34.1990   48.0000 C   0  0  0  0  0  0  0  0  0  0  0  0
   60.2319   35.2372   48.3591 H   0  0  0  0  0  0  0  0  0  0  0  0
   59.3397   33.6631   48.1471 H   0  0  0  0  0  0  0  0  0  0  0  0
   61.3310   33.4840   48.7800 N   0  0  0  0  0  0  0  0  0  0  0  0
   61.2070   33.5490   50.2660 C   0  0  0  0  0  0  0  0  0  0  0  0
   62.0038   32.9273   50.7003 H   0  0  0  0  0  0  0  0  0  0  0  0
   61.2832   34.6142   50.5297 H   0  0  0  0  0  0  0  0  0  0  0  0
   59.8820   33.0730   50.8310 C   0  0  0  0  0  0  0  0  0  0  0  0
   59.2540   33.8070   51.8520 C   0  0  0  0  0  0  0  0  0  0  0  0
   59.7384   34.7084   52.2555 H   0  0  0  0  0  0  0  0  0  0  0  0
   58.0170   33.3970   52.3570 C   0  0  0  0  0  0  0  0  0  0  0  0
   57.5180   33.9920   53.1360 H   0  0  0  0  0  0  0  0  0  0  0  0
   57.4140   32.2360   51.8760 C   0  0  0  0  0  0  0  0  0  0  0  0
   56.4491   31.9074   52.2896 H   0  0  0  0  0  0  0  0  0  0  0  0
   58.0310   31.4890   50.8710 C   0  0  0  0  0  0  0  0  0  0  0  0
   57.5527   30.5707   50.4995 H   0  0  0  0  0  0  0  0  0  0  0  0
   59.2640   31.9060   50.3300 C   0  0  0  0  0  0  0  0  0  0  0  0
   59.8970   31.1960   49.2970 O   0  0  0  0  0  0  0  0  0  0  0  0
   59.2700   30.8050   48.0810 C   0  0  0  0  0  0  0  0  0  0  0  0
   58.3564   30.2353   48.3062 H   0  0  0  0  0  0  0  0  0  0  0  0
   59.0092   31.7008   47.4984 H   0  0  0  0  0  0  0  0  0  0  0  0
   59.9597   30.1766   47.4984 H   0  0  0  0  0  0  0  0  0  0  0  0
   62.7250   33.7530   48.3470 C   0  0  0  0  0  0  0  0  0  0  0  0
   62.7245   34.6600   47.7246 H   0  0  0  0  0  0  0  0  0  0  0  0
   63.3251   33.8659   49.2619 H   0  0  0  0  0  0  0  0  0  0  0  0
   63.3620   32.6120   47.5370 C   0  0  0  0  0  0  0  0  0  0  0  0
   63.7803   31.8628   48.2253 H   0  0  0  0  0  0  0  0  0  0  0  0
   62.5965   32.1406   46.9031 H   0  0  0  0  0  0  0  0  0  0  0  0
   64.1650   33.0162   46.9031 H   0  0  0  0  0  0  0  0  0  0  0  0
  1  2  1  0
  2  3  2  0
  3  4  1  0
  4  5  2  0
  5  6  1  0
  5  7  1  0
  7  8  1  0
  7  9  2  0
  9 10  1  0
 10 11  1  0
 10 12  1  0
 12 13  1  0
 12 14  1  0
 12 15  1  0
 15 16  1  0
 15 17  1  0
 15 18  1  0
 18 19  1  0
 19 20  1  0
 19 21  1  0
 19 22  1  0
 22 23  1  0
 22 24  1  0
 22 25  1  0
 18 26  1  0
 26 27  1  0
 26 28  1  0
 26 29  1  0
 29 30  1  0
 29 31  1  0
 29 32  1  0
  9 33  1  0
 33 34  1  0
 33 35  2  0
 35 36  1  0
  2 37  1  0
 37 38  1  0
 37 39  1  0
 37 40  1  0
 40 41  1  0
 40 42  1  0
 40 43  1  0
 43 44  1  0
 43 45  1  0
 43 46  1  0
 46 47  1  0
 46 48  1  0
 46 49  1  0
 49 50  1  0
 49 51  1  0
 49 52  1  0
 52 53  1  0
 53 54  1  0
 53 55  1  0
 53 56  1  0
 56 57  2  0
 57 58  1  0
 57 59  1  0
 59 60  1  0
 59 61  2  0
 61 62  1  0
 61 63  1  0
 63 64  1  0
 63 65  2  0
 65 66  1  0
 66 67  1  0
 67 68  1  0
 67 69  1  0
 67 70  1  0
 52 71  1  0
 71 72  1  0
 71 73  1  0
 71 74  1  0
 74 75  1  0
 74 76  1  0
 74 77  1  0
 35  4  1  0
 65 56  1  0
M  CHG  2   8  -1  36  -1
M  END
>  <UniqueID>  (47) 
47

>  <SMILES>  (47) 
CCN(CC)CCNc1cc([O-])c(/N=C\CCCCCN(CC)Cc2ccccc2OC)cc1[O-]

>  <Energy>  (47) 
79.52178830746475

>  <Genealogy>  (47) 
CCN(CC)CCNc1cc([O-])c(N=CCCCCCN(CC)Cc2ccccc2OC)cc1[O-] (protonated)
CCN(CC)CCNc1cc([O-])c(/N=C\CCCCCN(CC)Cc2ccccc2OC)cc1[O-] (cis-trans isomerization)
CCN(CC)CCNc1cc([O-])c(/N=C\CCCCCN(CC)Cc2ccccc2OC)cc1[O-] (3D coordinates assigned)
CCN(CC)CCNc1cc([O-])c(/N=C\CCCCCN(CC)Cc2ccccc2OC)cc1[O-] (optimized conformer: 79.52178830746475 kcal/mol)

>  <smiles>  (47) 
CCN(CC)CCNc1cc(O)c(N=CCCCCCN(CC)Cc2ccccc2OC)cc1O

>  <score_type>  (47) 
oracle

>  <origin>  (47) 
adg

>  <m_score__min__energy>  (47) 
-13.289999999999999

>  <m_primary>  (47) 
energy

$$$$
47:0
     RDKit          3D

 51 53  0  0  0  0  0  0  0  0999 V2000
   63.3880   33.5720   46.6430 C   0  0  0  0  0  0  0  0  0  0  0  0
   64.1360   33.3930   47.9630 C   0  0  0  0  0  0  0  0  0  0  0  0
   63.2130   32.9140   49.0180 N   0  0  0  0  0  0  0  0  0  0  0  0
   63.8390   31.8450   49.8290 C   0  0  0  0  0  0  0  0  0  0  0  0
   65.2990   32.1830   50.1110 C   0  0  0  0  0  0  0  0  0  0  0  0
   62.7460   34.0330   49.8700 C   0  0  0  0  0  0  0  0  0  0  0  0
   61.4050   34.5770   49.3610 C   0  0  0  0  0  0  0  0  0  0  0  0
   60.8480   33.7200   48.3130 N   0  0  0  0  0  0  0  0  0  0  0  0
   59.7480   34.1570   47.5000 C   0  0  0  0  0  0  0  0  0  0  0  0
   59.2640   35.3090   47.6710 O   0  0  0  0  0  0  0  0  0  0  0  0
   59.1780   33.2670   46.4650 C   0  0  0  0  0  0  0  0  0  0  0  0
   59.3560   31.8660   46.5390 C   0  0  0  0  0  0  0  0  0  0  0  0
   58.7920   31.0980   45.5260 C   0  0  0  0  0  0  0  0  0  0  0  0
   58.7590   29.7370   45.3200 C   0  0  0  0  0  0  0  0  0  0  0  0
   59.2810   28.6790   46.0620 C   0  0  0  0  0  0  0  0  0  0  0  0
   59.0460   27.3730   45.5940 C   0  0  0  0  0  0  0  0  0  0  0  0
   58.2980   27.1590   44.4150 C   0  0  0  0  0  0  0  0  0  0  0  0
   57.7790   28.2450   43.6870 C   0  0  0  0  0  0  0  0  0  0  0  0
   58.0310   29.5360   44.1620 C   0  0  0  0  0  0  0  0  0  0  0  0
   57.6230   30.7170   43.6310 N   0  0  0  0  0  0  0  0  0  0  0  0
   56.7790   30.9220   42.4510 C   0  0  0  0  0  0  0  0  0  0  0  0
   57.4080   31.9550   41.5250 C   0  0  0  0  0  0  0  0  0  0  0  0
   58.0860   31.6620   44.4880 C   0  0  0  0  0  0  0  0  0  0  0  0
   57.9110   33.0440   44.4340 C   0  0  0  0  0  0  0  0  0  0  0  0
   58.4640   33.8060   45.4240 N   0  0  0  0  0  0  0  0  0  0  0  0
   62.3370   33.8235   46.8483 H   0  0  0  0  0  0  0  0  0  0  0  0
   63.8532   34.3842   46.0651 H   0  0  0  0  0  0  0  0  0  0  0  0
   63.4352   32.6372   46.0651 H   0  0  0  0  0  0  0  0  0  0  0  0
   64.9426   32.6578   47.8258 H   0  0  0  0  0  0  0  0  0  0  0  0
   64.5564   34.3622   48.2695 H   0  0  0  0  0  0  0  0  0  0  0  0
   63.2981   31.7481   50.7819 H   0  0  0  0  0  0  0  0  0  0  0  0
   63.7915   30.8978   49.2716 H   0  0  0  0  0  0  0  0  0  0  0  0
   65.4632   32.2210   51.1980 H   0  0  0  0  0  0  0  0  0  0  0  0
   65.9461   31.4109   49.6692 H   0  0  0  0  0  0  0  0  0  0  0  0
   65.5409   33.1609   49.6692 H   0  0  0  0  0  0  0  0  0  0  0  0
   62.6219   33.6738   50.9023 H   0  0  0  0  0  0  0  0  0  0  0  0
   63.4922   34.8404   49.8348 H   0  0  0  0  0  0  0  0  0  0  0  0
   60.6955   34.6243   50.2003 H   0  0  0  0  0  0  0  0  0  0  0  0
   61.5739   35.5783   48.9381 H   0  0  0  0  0  0  0  0  0  0  0  0
   61.2540   32.7720   48.1540 H   0  0  0  0  0  0  0  0  0  0  0  0
   59.9174   31.4028   47.3638 H   0  0  0  0  0  0  0  0  0  0  0  0
   59.8569   28.8587   46.9818 H   0  0  0  0  0  0  0  0  0  0  0  0
   59.4475   26.5129   46.1500 H   0  0  0  0  0  0  0  0  0  0  0  0
   58.1195   26.1324   44.0625 H   0  0  0  0  0  0  0  0  0  0  0  0
   57.1920   28.0835   42.7708 H   0  0  0  0  0  0  0  0  0  0  0  0
   56.6711   29.9692   41.9119 H   0  0  0  0  0  0  0  0  0  0  0  0
   55.7925   31.2851   42.7750 H   0  0  0  0  0  0  0  0  0  0  0  0
   57.8873   32.7422   42.1255 H   0  0  0  0  0  0  0  0  0  0  0  0
   58.1626   31.4673   40.8904 H   0  0  0  0  0  0  0  0  0  0  0  0
   56.6283   32.4015   40.8904 H   0  0  0  0  0  0  0  0  0  0  0  0
   57.3423   33.5090   43.6153 H   0  0  0  0  0  0  0  0  0  0  0  0
  1  2  1  0
  2  3  1  0
  3  4  1  0
  4  5  1  0
  3  6  1  0
  6  7  1  0
  7  8  1  0
  8  9  1  0
  9 10  2  0
  9 11  1  0
 11 12  2  0
 12 13  1  0
 13 14  1  0
 14 15  2  0
 15 16  1  0
 16 17  2  0
 17 18  1  0
 18 19  2  0
 19 20  1  0
 20 21  1  0
 21 22  1  0
 20 23  1  0
 23 24  1  0
 24 25  2  0
 25 11  1  0
 23 13  2  0
 19 14  1  0
  1 26  1  0
  1 27  1  0
  1 28  1  0
  2 29  1  0
  2 30  1  0
  4 31  1  0
  4 32  1  0
  5 33  1  0
  5 34  1  0
  5 35  1  0
  6 36  1  0
  6 37  1  0
  7 38  1  0
  7 39  1  0
  8 40  1  0
 12 41  1  0
 15 42  1  0
 16 43  1  0
 17 44  1  0
 18 45  1  0
 21 46  1  0
 21 47  1  0
 22 48  1  0
 22 49  1  0
 22 50  1  0
 24 51  1  0
M  END
>  <UniqueID>  (48) 
48

>  <SMILES>  (48) 
CCN(CC)CCNC(=O)c1cc2c3ccccc3n(CC)c2cn1

>  <Energy>  (48) 
87.13894261703845

>  <Genealogy>  (48) 
CCN(CC)CCNC(=O)c1cc2c3ccccc3n(CC)c2cn1 (3D coordinates assigned)
CCN(CC)CCNC(=O)c1cc2c3ccccc3n(CC)c2cn1 (optimized conformer: 87.13894261703845 kcal/mol)

>  <smiles>  (48) 
CCN(CC)CCNC(=O)c1cc2c3ccccc3n(CC)c2cn1

>  <score_type>  (48) 
oracle

>  <origin>  (48) 
adg

>  <m_score__min__energy>  (48) 
-7.0099999999999998

>  <m_primary>  (48) 
energy

$$$$
