0:0
     RDKit          3D

 59 61  0  0  0  0  0  0  0  0999 V2000
   55.9900   22.2930   47.6950 C   0  0  0  0  0  0  0  0  0  0  0  0
   56.1280   23.7290   48.1810 C   0  0  0  0  0  0  0  0  0  0  0  0
   56.4750   24.6170   47.0390 N   0  0  0  0  0  0  0  0  0  0  0  0
   55.7770   24.2130   45.7970 C   0  0  0  0  0  0  0  0  0  0  0  0
   54.5300   25.0700   45.5720 C   0  0  0  0  0  0  0  0  0  0  0  0
   54.7740   26.3850   45.9940 O   0  0  0  0  0  0  0  0  0  0  0  0
   57.9390   24.6920   46.8240 C   0  0  0  0  0  0  0  0  0  0  0  0
   58.3560   26.1140   46.5590 C   0  0  0  0  0  0  0  0  0  0  0  0
   59.1000   26.8300   47.5100 C   0  0  0  0  0  0  0  0  0  0  0  0
   59.4340   28.1650   47.2780 C   0  0  0  0  0  0  0  0  0  0  0  0
   59.0290   28.7960   46.1000 C   0  0  0  0  0  0  0  0  0  0  0  0
   58.2870   28.1000   45.1390 C   0  0  0  0  0  0  0  0  0  0  0  0
   57.8960   28.7900   43.9790 O   0  0  0  0  0  0  0  0  0  0  0  0
   56.6000   29.3320   43.7260 C   0  0  0  0  0  0  0  0  0  0  0  0
   56.6620   30.8240   43.3810 C   0  0  0  0  0  0  0  0  0  0  0  0
   56.4430   31.6250   44.5450 O   0  0  0  0  0  0  0  0  0  0  0  0
   57.4230   32.3520   45.2410 C   0  0  0  0  0  0  0  0  0  0  0  0
   58.0360   33.4280   44.5880 C   0  0  0  0  0  0  0  0  0  0  0  0
   59.0270   34.1780   45.2290 C   0  0  0  0  0  0  0  0  0  0  0  0
   59.4080   33.8760   46.5400 C   0  0  0  0  0  0  0  0  0  0  0  0
   60.4220   34.6350   47.1410 O   0  0  0  0  0  0  0  0  0  0  0  0
   61.6390   34.1300   47.6260 C   0  0  0  0  0  0  0  0  0  0  0  0
   62.6060   33.5720   46.7700 C   0  0  0  0  0  0  0  0  0  0  0  0
   63.8030   33.0720   47.2940 C   0  0  0  0  0  0  0  0  0  0  0  0
   64.0350   33.1110   48.6710 C   0  0  0  0  0  0  0  0  0  0  0  0
   63.0670   33.6430   49.5280 C   0  0  0  0  0  0  0  0  0  0  0  0
   61.8700   34.1450   49.0070 C   0  0  0  0  0  0  0  0  0  0  0  0
   58.7990   32.7940   47.1990 C   0  0  0  0  0  0  0  0  0  0  0  0
   57.8020   32.0510   46.5620 C   0  0  0  0  0  0  0  0  0  0  0  0
   57.9510   26.7530   45.3750 C   0  0  0  0  0  0  0  0  0  0  0  0
   55.9251   21.6175   48.5608 H   0  0  0  0  0  0  0  0  0  0  0  0
   55.0786   22.1978   47.0865 H   0  0  0  0  0  0  0  0  0  0  0  0
   56.8666   22.0260   47.0865 H   0  0  0  0  0  0  0  0  0  0  0  0
   55.1759   24.0579   48.6230 H   0  0  0  0  0  0  0  0  0  0  0  0
   56.9255   23.7813   48.9368 H   0  0  0  0  0  0  0  0  0  0  0  0
   56.4591   24.3374   44.9431 H   0  0  0  0  0  0  0  0  0  0  0  0
   55.4698   23.1610   45.8912 H   0  0  0  0  0  0  0  0  0  0  0  0
   54.2762   25.0713   44.5017 H   0  0  0  0  0  0  0  0  0  0  0  0
   53.6933   24.6524   46.1512 H   0  0  0  0  0  0  0  0  0  0  0  0
   55.1340   26.3160   46.9150 H   0  0  0  0  0  0  0  0  0  0  0  0
   58.4569   24.3232   47.7216 H   0  0  0  0  0  0  0  0  0  0  0  0
   58.2051   24.0731   45.9544 H   0  0  0  0  0  0  0  0  0  0  0  0
   59.4204   26.3377   48.4401 H   0  0  0  0  0  0  0  0  0  0  0  0
   60.0181   28.7219   48.0254 H   0  0  0  0  0  0  0  0  0  0  0  0
   59.2954   29.8490   45.9259 H   0  0  0  0  0  0  0  0  0  0  0  0
   56.1465   28.7905   42.8827 H   0  0  0  0  0  0  0  0  0  0  0  0
   55.9984   29.2181   44.6399 H   0  0  0  0  0  0  0  0  0  0  0  0
   57.6532   31.0567   42.9646 H   0  0  0  0  0  0  0  0  0  0  0  0
   55.8749   31.0484   42.6460 H   0  0  0  0  0  0  0  0  0  0  0  0
   57.7355   33.6857   43.5617 H   0  0  0  0  0  0  0  0  0  0  0  0
   59.5102   35.0115   44.6981 H   0  0  0  0  0  0  0  0  0  0  0  0
   62.4206   33.5287   45.6866 H   0  0  0  0  0  0  0  0  0  0  0  0
   64.5624   32.6476   46.6208 H   0  0  0  0  0  0  0  0  0  0  0  0
   64.9792   32.7232   49.0809 H   0  0  0  0  0  0  0  0  0  0  0  0
   63.2469   33.6668   50.6129 H   0  0  0  0  0  0  0  0  0  0  0  0
   61.1065   34.5535   49.6853 H   0  0  0  0  0  0  0  0  0  0  0  0
   59.1089   32.5310   48.2212 H   0  0  0  0  0  0  0  0  0  0  0  0
   57.3101   31.2252   47.0968 H   0  0  0  0  0  0  0  0  0  0  0  0
   57.3671   26.1969   44.6268 H   0  0  0  0  0  0  0  0  0  0  0  0
  1  2  1  0
  2  3  1  0
  3  4  1  0
  4  5  1  0
  5  6  1  0
  3  7  1  0
  7  8  1  0
  8  9  2  0
  9 10  1  0
 10 11  2  0
 11 12  1  0
 12 13  1  0
 13 14  1  0
 14 15  1  0
 15 16  1  0
 16 17  1  0
 17 18  2  0
 18 19  1  0
 19 20  2  0
 20 21  1  0
 21 22  1  0
 22 23  2  0
 23 24  1  0
 24 25  2  0
 25 26  1  0
 26 27  2  0
 20 28  1  0
 28 29  2  0
 12 30  2  0
 30  8  1  0
 29 17  1  0
 27 22  1  0
  1 31  1  0
  1 32  1  0
  1 33  1  0
  2 34  1  0
  2 35  1  0
  4 36  1  0
  4 37  1  0
  5 38  1  0
  5 39  1  0
  6 40  1  0
  7 41  1  0
  7 42  1  0
  9 43  1  0
 10 44  1  0
 11 45  1  0
 14 46  1  0
 14 47  1  0
 15 48  1  0
 15 49  1  0
 18 50  1  0
 19 51  1  0
 23 52  1  0
 24 53  1  0
 25 54  1  0
 26 55  1  0
 27 56  1  0
 28 57  1  0
 29 58  1  0
 30 59  1  0
M  END
>  <UniqueID>  (1) 
1

>  <SMILES>  (1) 
CCN(CCO)Cc1cccc(OCCOc2ccc(Oc3ccccc3)cc2)c1

>  <Energy>  (1) 
63.19610531914712

>  <Genealogy>  (1) 
CCN(CCO)Cc1cccc(OCCOc2ccc(Oc3ccccc3)cc2)c1 (3D coordinates assigned)
CCN(CCO)Cc1cccc(OCCOc2ccc(Oc3ccccc3)cc2)c1 (optimized conformer: 63.19610531914712 kcal/mol)

>  <smiles>  (1) 
CCN(CCO)Cc1cccc(OCCOc2ccc(Oc3ccccc3)cc2)c1

>  <score_type>  (1) 
oracle

>  <origin>  (1) 
adg

>  <m_score__min__energy>  (1) 
-9.0999999999999996

>  <m_primary>  (1) 
energy

$$$$
1:0
     RDKit          3D

 63 66  0  0  0  0  0  0  0  0999 V2000
   59.9550   30.3840   51.3570 C   0  0  0  0  0  0  0  0  0  0  0  0
   59.4530   31.7860   51.6080 C   0  0  0  0  0  0  0  0  0  0  0  0
   60.2570   32.9270   51.3620 C   0  0  0  0  0  0  0  0  0  0  0  0
   61.6220   32.8370   50.7860 C   0  0  0  0  0  0  0  0  0  0  0  0
   62.6970   32.5900   51.6570 C   0  0  0  0  0  0  0  0  0  0  0  0
   63.9970   32.4740   51.1640 C   0  0  0  0  0  0  0  0  0  0  0  0
   64.2410   32.6040   49.7970 C   0  0  0  0  0  0  0  0  0  0  0  0
   63.1860   32.8560   48.9180 C   0  0  0  0  0  0  0  0  0  0  0  0
   61.8700   32.9870   49.3950 C   0  0  0  0  0  0  0  0  0  0  0  0
   60.7840   33.2730   48.4250 C   0  0  0  0  0  0  0  0  0  0  0  0
   60.0840   32.2150   47.8210 C   0  0  0  0  0  0  0  0  0  0  0  0
   59.0440   32.4750   46.9260 C   0  0  0  0  0  0  0  0  0  0  0  0
   58.6820   33.7920   46.6190 C   0  0  0  0  0  0  0  0  0  0  0  0
   57.6100   33.9910   45.7340 O   0  0  0  0  0  0  0  0  0  0  0  0
   57.0060   32.9850   44.9190 C   0  0  0  0  0  0  0  0  0  0  0  0
   57.8710   32.6510   43.6880 C   0  0  0  0  0  0  0  0  0  0  0  0
   57.9440   31.2060   43.3630 N   0  0  0  0  0  0  0  0  0  0  0  0
   58.4870   30.3440   44.4330 C   0  0  0  0  0  0  0  0  0  0  0  0
   57.3920   29.5870   45.2150 C   0  0  0  0  0  0  0  0  0  0  0  0
   56.0970   30.0350   44.8810 O   0  0  0  0  0  0  0  0  0  0  0  0
   55.8630   29.7980   43.5120 C   0  0  0  0  0  0  0  0  0  0  0  0
   56.7880   30.6530   42.6260 C   0  0  0  0  0  0  0  0  0  0  0  0
   59.3980   34.8540   47.2020 C   0  0  0  0  0  0  0  0  0  0  0  0
   60.4440   34.5940   48.0920 C   0  0  0  0  0  0  0  0  0  0  0  0
   59.7430   34.1980   51.6630 C   0  0  0  0  0  0  0  0  0  0  0  0
   58.4800   34.3390   52.1430 N   0  0  0  0  0  0  0  0  0  0  0  0
   57.6750   33.2650   52.3460 C   0  0  0  0  0  0  0  0  0  0  0  0
   58.1390   31.9720   52.0830 C   0  0  0  0  0  0  0  0  0  0  0  0
   57.2660   30.8520   52.2840 N   0  0  0  0  0  0  0  0  0  0  0  0
   57.5400   29.9360   53.3900 C   0  0  0  0  0  0  0  0  0  0  0  0
   55.9140   30.9090   51.7320 C   0  0  0  0  0  0  0  0  0  0  0  0
   60.1350   29.8813   52.3187 H   0  0  0  0  0  0  0  0  0  0  0  0
   59.2023   29.8220   50.7847 H   0  0  0  0  0  0  0  0  0  0  0  0
   60.8934   30.4275   50.7847 H   0  0  0  0  0  0  0  0  0  0  0  0
   62.5119   32.4873   52.7364 H   0  0  0  0  0  0  0  0  0  0  0  0
   64.8309   32.2797   51.8546 H   0  0  0  0  0  0  0  0  0  0  0  0
   65.2664   32.5078   49.4107 H   0  0  0  0  0  0  0  0  0  0  0  0
   63.3866   32.9531   47.8408 H   0  0  0  0  0  0  0  0  0  0  0  0
   60.3569   31.1753   48.0546 H   0  0  0  0  0  0  0  0  0  0  0  0
   58.5048   31.6380   46.4584 H   0  0  0  0  0  0  0  0  0  0  0  0
   56.8732   32.0727   45.5191 H   0  0  0  0  0  0  0  0  0  0  0  0
   56.0382   33.3683   44.5633 H   0  0  0  0  0  0  0  0  0  0  0  0
   57.4503   33.1780   42.8190 H   0  0  0  0  0  0  0  0  0  0  0  0
   58.8957   32.9702   43.9291 H   0  0  0  0  0  0  0  0  0  0  0  0
   59.1654   29.6071   43.9784 H   0  0  0  0  0  0  0  0  0  0  0  0
   59.0082   30.9976   45.1479 H   0  0  0  0  0  0  0  0  0  0  0  0
   57.4673   28.5144   44.9828 H   0  0  0  0  0  0  0  0  0  0  0  0
   57.5498   29.7748   46.2873 H   0  0  0  0  0  0  0  0  0  0  0  0
   56.0446   28.7346   43.2970 H   0  0  0  0  0  0  0  0  0  0  0  0
   54.8211   30.0701   43.2874 H   0  0  0  0  0  0  0  0  0  0  0  0
   57.1637   30.0261   41.8039 H   0  0  0  0  0  0  0  0  0  0  0  0
   56.1960   31.5032   42.2563 H   0  0  0  0  0  0  0  0  0  0  0  0
   59.1334   35.8930   46.9563 H   0  0  0  0  0  0  0  0  0  0  0  0
   61.0049   35.4303   48.5347 H   0  0  0  0  0  0  0  0  0  0  0  0
   60.3693   35.0890   51.5086 H   0  0  0  0  0  0  0  0  0  0  0  0
   58.1160   35.2960   52.3480 H   0  0  0  0  0  0  0  0  0  0  0  0
   56.6510   33.4126   52.7198 H   0  0  0  0  0  0  0  0  0  0  0  0
   57.3839   30.4579   54.3456 H   0  0  0  0  0  0  0  0  0  0  0  0
   56.8607   29.0730   53.3283 H   0  0  0  0  0  0  0  0  0  0  0  0
   58.5816   29.5878   53.3283 H   0  0  0  0  0  0  0  0  0  0  0  0
   55.1834   30.9398   52.5538 H   0  0  0  0  0  0  0  0  0  0  0  0
   55.8083   31.8124   51.1134 H   0  0  0  0  0  0  0  0  0  0  0  0
   55.7326   30.0177   51.1134 H   0  0  0  0  0  0  0  0  0  0  0  0
  1  2  1  0
  2  3  2  0
  3  4  1  0
  4  5  2  0
  5  6  1  0
  6  7  2  0
  7  8  1  0
  8  9  2  0
  9 10  1  0
 10 11  2  0
 11 12  1  0
 12 13  2  0
 13 14  1  0
 14 15  1  0
 15 16  1  0
 16 17  1  0
 17 18  1  0
 18 19  1  0
 19 20  1  0
 20 21  1  0
 21 22  1  0
 13 23  1  0
 23 24  2  0
  3 25  1  0
 25 26  2  0
 26 27  1  0
 27 28  2  0
 28 29  1  0
 29 30  1  0
 29 31  1  0
 28  2  1  0
  9  4  1  0
 24 10  1  0
 22 17  1  0
  1 32  1  0
  1 33  1  0
  1 34  1  0
  5 35  1  0
  6 36  1  0
  7 37  1  0
  8 38  1  0
 11 39  1  0
 12 40  1  0
 15 41  1  0
 15 42  1  0
 16 43  1  0
 16 44  1  0
 18 45  1  0
 18 46  1  0
 19 47  1  0
 19 48  1  0
 21 49  1  0
 21 50  1  0
 22 51  1  0
 22 52  1  0
 23 53  1  0
 24 54  1  0
 25 55  1  0
 26 56  1  0
 27 57  1  0
 30 58  1  0
 30 59  1  0
 30 60  1  0
 31 61  1  0
 31 62  1  0
 31 63  1  0
M  CHG  1  26   1
M  END
>  <UniqueID>  (2) 
2

>  <SMILES>  (2) 
Cc1c(-c2ccccc2-c2ccc(OCCN3CCOCC3)cc2)c[nH+]cc1N(C)C

>  <Energy>  (2) 
97.23121072459661

>  <Genealogy>  (2) 
Cc1c(-c2ccccc2-c2ccc(OCCN3CCOCC3)cc2)c[nH+]cc1N(C)C (protonated)
Cc1c(-c2ccccc2-c2ccc(OCCN3CCOCC3)cc2)c[nH+]cc1N(C)C (3D coordinates assigned)
Cc1c(-c2ccccc2-c2ccc(OCCN3CCOCC3)cc2)c[nH+]cc1N(C)C (nonaromatic ring conformer: 97.23121072459661 kcal/mol)

>  <smiles>  (2) 
Cc1c(-c2ccccc2-c2ccc(OCCN3CCOCC3)cc2)cncc1N(C)C

>  <score_type>  (2) 
oracle

>  <origin>  (2) 
adg

>  <m_score__min__energy>  (2) 
-7.7000000000000002

>  <m_primary>  (2) 
energy

$$$$
2:0
     RDKit          3D

 51 52  0  0  0  0  0  0  0  0999 V2000
   63.7400   33.4120   47.0630 C   0  0  0  0  0  0  0  0  0  0  0  0
   62.3070   33.2090   47.4490 C   0  0  0  0  0  0  0  0  0  0  0  0
   61.6160   32.1220   47.1420 C   0  0  0  0  0  0  0  0  0  0  0  0
   60.2100   32.1910   47.6300 C   0  0  2  0  0  0  0  0  0  0  0  0
   59.2280   32.1100   46.4680 C   0  0  0  0  0  0  0  0  0  0  0  0
   58.7460   33.3010   45.8950 C   0  0  0  0  0  0  0  0  0  0  0  0
   57.7940   33.2680   44.8840 C   0  0  0  0  0  0  0  0  0  0  0  0
   57.2880   32.0520   44.4370 C   0  0  0  0  0  0  0  0  0  0  0  0
   57.7520   30.8330   44.9650 C   0  0  0  0  0  0  0  0  0  0  0  0
   57.0690   29.5510   44.4920 C   0  0  0  0  0  0  0  0  0  0  0  0
   58.0810   28.5550   43.9160 C   0  0  0  0  0  0  0  0  0  0  0  0
   55.9030   29.7970   43.5280 C   0  0  0  0  0  0  0  0  0  0  0  0
   58.7700   30.8630   45.9610 C   0  0  0  0  0  0  0  0  0  0  0  0
   59.3360   29.6450   46.4620 N   0  0  0  0  0  0  0  0  0  0  0  0
   58.9240   29.1210   47.7690 C   0  0  0  0  0  0  0  0  0  0  0  0
   59.1020   27.6000   47.8660 C   0  0  0  0  0  0  0  0  0  0  0  0
   59.3800   27.0200   46.5290 N   0  0  0  0  0  0  0  0  0  0  0  0
   58.4640   25.9070   46.2250 C   0  0  0  0  0  0  0  0  0  0  0  0
   60.7710   26.5470   46.4430 C   0  0  0  0  0  0  0  0  0  0  0  0
   60.1360   33.5350   48.3880 C   0  0  0  0  0  0  0  0  0  0  0  0
   61.4950   34.2130   48.1890 C   0  0  0  0  0  0  0  0  0  0  0  0
   64.3554   33.4992   47.9706 H   0  0  0  0  0  0  0  0  0  0  0  0
   64.0845   32.5537   46.4675 H   0  0  0  0  0  0  0  0  0  0  0  0
   63.8325   34.3322   46.4675 H   0  0  0  0  0  0  0  0  0  0  0  0
   62.0322   31.2663   46.5901 H   0  0  0  0  0  0  0  0  0  0  0  0
   59.9359   31.3502   48.2842 H   0  0  0  0  0  0  0  0  0  0  0  0
   59.1273   34.2692   46.2516 H   0  0  0  0  0  0  0  0  0  0  0  0
   57.4389   34.2074   44.4351 H   0  0  0  0  0  0  0  0  0  0  0  0
   56.5119   32.0431   43.6575 H   0  0  0  0  0  0  0  0  0  0  0  0
   56.6212   29.0995   45.3896 H   0  0  0  0  0  0  0  0  0  0  0  0
   58.6010   28.0432   44.7392 H   0  0  0  0  0  0  0  0  0  0  0  0
   57.5542   27.8133   43.2977 H   0  0  0  0  0  0  0  0  0  0  0  0
   58.8142   29.0935   43.2977 H   0  0  0  0  0  0  0  0  0  0  0  0
   54.9859   29.9905   44.1037 H   0  0  0  0  0  0  0  0  0  0  0  0
   56.1286   30.6673   42.8942 H   0  0  0  0  0  0  0  0  0  0  0  0
   55.7578   28.9097   42.8942 H   0  0  0  0  0  0  0  0  0  0  0  0
   59.8180   29.0240   45.7770 H   0  0  0  0  0  0  0  0  0  0  0  0
   59.5327   29.5994   48.5504 H   0  0  0  0  0  0  0  0  0  0  0  0
   57.8552   29.3450   47.9009 H   0  0  0  0  0  0  0  0  0  0  0  0
   59.9431   27.3767   48.5388 H   0  0  0  0  0  0  0  0  0  0  0  0
   58.1736   27.1588   48.2577 H   0  0  0  0  0  0  0  0  0  0  0  0
   58.1000   25.4647   47.1641 H   0  0  0  0  0  0  0  0  0  0  0  0
   57.6105   26.2833   45.6419 H   0  0  0  0  0  0  0  0  0  0  0  0
   58.9975   25.1419   45.6419 H   0  0  0  0  0  0  0  0  0  0  0  0
   61.1749   26.4096   47.4569 H   0  0  0  0  0  0  0  0  0  0  0  0
   60.7997   25.5886   45.9039 H   0  0  0  0  0  0  0  0  0  0  0  0
   61.3780   27.2892   45.9039 H   0  0  0  0  0  0  0  0  0  0  0  0
   59.3326   34.1623   47.9744 H   0  0  0  0  0  0  0  0  0  0  0  0
   59.9167   33.3820   49.4550 H   0  0  0  0  0  0  0  0  0  0  0  0
   61.3867   35.1358   47.6002 H   0  0  0  0  0  0  0  0  0  0  0  0
   61.9596   34.5068   49.1418 H   0  0  0  0  0  0  0  0  0  0  0  0
  1  2  1  0
  2  3  2  0
  3  4  1  0
  4  5  1  0
  5  6  2  0
  6  7  1  0
  7  8  2  0
  8  9  1  0
  9 10  1  0
 10 11  1  0
 10 12  1  0
  9 13  2  0
 13 14  1  0
 14 15  1  0
 15 16  1  0
 16 17  1  0
 17 18  1  0
 17 19  1  0
  4 20  1  0
 20 21  1  0
 21  2  1  0
 13  5  1  0
  1 22  1  0
  1 23  1  0
  1 24  1  0
  3 25  1  0
  4 26  1  1
  6 27  1  0
  7 28  1  0
  8 29  1  0
 10 30  1  0
 11 31  1  0
 11 32  1  0
 11 33  1  0
 12 34  1  0
 12 35  1  0
 12 36  1  0
 14 37  1  0
 15 38  1  0
 15 39  1  0
 16 40  1  0
 16 41  1  0
 18 42  1  0
 18 43  1  0
 18 44  1  0
 19 45  1  0
 19 46  1  0
 19 47  1  0
 20 48  1  0
 20 49  1  0
 21 50  1  0
 21 51  1  0
M  END
>  <UniqueID>  (3) 
3

>  <SMILES>  (3) 
CC1=C[C@H](c2cccc(C(C)C)c2NCCN(C)C)CC1

>  <Energy>  (3) 
59.14157291488281

>  <Genealogy>  (3) 
CC1=C[C@H](c2cccc(C(C)C)c2NCCN(C)C)CC1 (chirality)
CC1=C[C@H](c2cccc(C(C)C)c2NCCN(C)C)CC1 (3D coordinates assigned)
CC1=C[C@H](c2cccc(C(C)C)c2NCCN(C)C)CC1 (nonaromatic ring conformer: 59.14157291488281 kcal/mol)

>  <smiles>  (3) 
CC1=CC(c2cccc(C(C)C)c2NCCN(C)C)CC1

>  <score_type>  (3) 
oracle

>  <origin>  (3) 
adg

>  <m_score__min__energy>  (3) 
-6.9699999999999998

>  <m_primary>  (3) 
energy

$$$$
3:0
     RDKit          3D

 44 47  0  0  0  0  0  0  0  0999 V2000
   67.9150   33.1320   51.3270 C   0  0  0  0  0  0  0  0  0  0  0  0
   66.7490   32.3980   51.6870 O   0  0  0  0  0  0  0  0  0  0  0  0
   65.6240   32.2460   50.8640 C   0  0  0  0  0  0  0  0  0  0  0  0
   64.6270   31.2860   51.1150 C   0  0  0  0  0  0  0  0  0  0  0  0
   63.5240   31.1740   50.2630 C   0  0  0  0  0  0  0  0  0  0  0  0
   63.3940   32.0150   49.1460 C   0  0  0  0  0  0  0  0  0  0  0  0
   62.2160   31.8760   48.2590 C   0  0  0  0  0  0  0  0  0  0  0  0
   61.4910   32.8970   47.6660 C   0  0  0  0  0  0  0  0  0  0  0  0
   60.4820   32.2800   46.9530 C   0  0  0  0  0  0  0  0  0  0  0  0
   59.3830   32.9820   46.2540 C   0  0  0  0  0  0  0  0  0  0  0  0
   59.6270   34.1680   45.5390 C   0  0  0  0  0  0  0  0  0  0  0  0
   58.5830   34.8170   44.8710 C   0  0  0  0  0  0  0  0  0  0  0  0
   57.2930   34.2810   44.9000 C   0  0  0  0  0  0  0  0  0  0  0  0
   57.0460   33.0940   45.5930 C   0  0  0  0  0  0  0  0  0  0  0  0
   58.0860   32.4420   46.2630 C   0  0  0  0  0  0  0  0  0  0  0  0
   60.6660   30.9130   47.1350 C   0  0  0  0  0  0  0  0  0  0  0  0
   59.8900   29.8020   46.5450 C   0  0  0  0  0  0  0  0  0  0  0  0
   58.8370   29.1930   47.2510 C   0  0  0  0  0  0  0  0  0  0  0  0
   58.1030   28.1570   46.6670 C   0  0  0  0  0  0  0  0  0  0  0  0
   58.3980   27.7290   45.3690 C   0  0  0  0  0  0  0  0  0  0  0  0
   57.6590   26.6940   44.8010 O   0  0  0  0  0  0  0  0  0  0  0  0
   59.4310   28.3480   44.6520 C   0  0  0  0  0  0  0  0  0  0  0  0
   60.1670   29.3840   45.2340 C   0  0  0  0  0  0  0  0  0  0  0  0
   61.6970   30.7150   47.9240 O   0  0  0  0  0  0  0  0  0  0  0  0
   64.3950   32.9730   48.8980 C   0  0  0  0  0  0  0  0  0  0  0  0
   65.4960   33.0840   49.7510 C   0  0  0  0  0  0  0  0  0  0  0  0
   68.4371   33.4607   52.2377 H   0  0  0  0  0  0  0  0  0  0  0  0
   68.5828   32.4911   50.7326 H   0  0  0  0  0  0  0  0  0  0  0  0
   67.6258   34.0112   50.7326 H   0  0  0  0  0  0  0  0  0  0  0  0
   64.7155   30.6200   51.9860 H   0  0  0  0  0  0  0  0  0  0  0  0
   62.7505   30.4197   50.4698 H   0  0  0  0  0  0  0  0  0  0  0  0
   61.6803   33.9776   47.7466 H   0  0  0  0  0  0  0  0  0  0  0  0
   60.6433   34.5874   45.5047 H   0  0  0  0  0  0  0  0  0  0  0  0
   58.7780   35.7503   44.3224 H   0  0  0  0  0  0  0  0  0  0  0  0
   56.4722   34.7938   44.3771 H   0  0  0  0  0  0  0  0  0  0  0  0
   56.0308   32.6708   45.6119 H   0  0  0  0  0  0  0  0  0  0  0  0
   57.8877   31.5023   46.7994 H   0  0  0  0  0  0  0  0  0  0  0  0
   58.5901   29.5337   48.2674 H   0  0  0  0  0  0  0  0  0  0  0  0
   57.2899   27.6763   47.2308 H   0  0  0  0  0  0  0  0  0  0  0  0
   56.9960   26.8660   44.0540 H   0  0  0  0  0  0  0  0  0  0  0  0
   59.6631   28.0177   43.6288 H   0  0  0  0  0  0  0  0  0  0  0  0
   60.9679   29.8745   44.6613 H   0  0  0  0  0  0  0  0  0  0  0  0
   64.3099   33.6389   48.0266 H   0  0  0  0  0  0  0  0  0  0  0  0
   66.2701   33.8380   49.5454 H   0  0  0  0  0  0  0  0  0  0  0  0
  1  2  1  0
  2  3  1  0
  3  4  2  0
  4  5  1  0
  5  6  2  0
  6  7  1  0
  7  8  2  0
  8  9  1  0
  9 10  1  0
 10 11  2  0
 11 12  1  0
 12 13  2  0
 13 14  1  0
 14 15  2  0
  9 16  2  0
 16 17  1  0
 17 18  2  0
 18 19  1  0
 19 20  2  0
 20 21  1  0
 20 22  1  0
 22 23  2  0
 16 24  1  0
  6 25  1  0
 25 26  2  0
 26  3  1  0
 24  7  1  0
 15 10  1  0
 23 17  1  0
  1 27  1  0
  1 28  1  0
  1 29  1  0
  4 30  1  0
  5 31  1  0
  8 32  1  0
 11 33  1  0
 12 34  1  0
 13 35  1  0
 14 36  1  0
 15 37  1  0
 18 38  1  0
 19 39  1  0
 21 40  1  0
 22 41  1  0
 23 42  1  0
 25 43  1  0
 26 44  1  0
M  END
>  <UniqueID>  (4) 
4

>  <SMILES>  (4) 
COc1ccc(-c2cc(-c3ccccc3)c(-c3ccc(O)cc3)o2)cc1

>  <Energy>  (4) 
83.02230747156199

>  <Genealogy>  (4) 
COc1ccc(-c2cc(-c3ccccc3)c(-c3ccc(O)cc3)o2)cc1 (3D coordinates assigned)
COc1ccc(-c2cc(-c3ccccc3)c(-c3ccc(O)cc3)o2)cc1 (optimized conformer: 83.02230747156199 kcal/mol)

>  <smiles>  (4) 
COc1ccc(-c2cc(-c3ccccc3)c(-c3ccc(O)cc3)o2)cc1

>  <score_type>  (4) 
oracle

>  <origin>  (4) 
adg

>  <m_score__min__energy>  (4) 
-7.1399999999999997

>  <m_primary>  (4) 
energy

$$$$
4:0
     RDKit          3D

 41 44  0  0  0  0  0  0  0  0999 V2000
   58.4980   32.0200   50.4910 C   0  0  0  0  0  0  0  0  0  0  0  0
   59.1530   30.7800   51.1070 C   0  0  0  0  0  0  0  0  0  0  0  0
   60.3030   30.3060   50.3150 N   0  0  0  0  0  0  0  0  0  0  0  0
   60.0590   30.3800   48.8960 C   0  0  0  0  0  0  0  0  0  0  0  0
   59.0740   29.7760   48.2770 O   0  0  0  0  0  0  0  0  0  0  0  0
   59.1950   30.0610   46.9990 C   0  0  0  0  0  0  0  0  0  0  0  0
   58.2720   29.5550   45.9710 C   0  0  0  0  0  0  0  0  0  0  0  0
   57.6430   28.3140   45.9890 C   0  0  0  0  0  0  0  0  0  0  0  0
   56.8630   28.1630   44.8950 N   0  0  0  0  0  0  0  0  0  0  0  0
   56.9940   29.2970   44.1850 C   0  0  0  0  0  0  0  0  0  0  0  0
   56.3760   29.6050   42.9740 C   0  0  0  0  0  0  0  0  0  0  0  0
   56.6530   30.8560   42.3940 C   0  0  0  0  0  0  0  0  0  0  0  0
   57.5300   31.7610   43.0300 C   0  0  0  0  0  0  0  0  0  0  0  0
   58.1380   31.4240   44.2530 C   0  0  0  0  0  0  0  0  0  0  0  0
   57.8470   30.1740   44.8070 C   0  0  0  0  0  0  0  0  0  0  0  0
   60.2510   30.8620   46.7390 N   0  0  0  0  0  0  0  0  0  0  0  0
   60.7950   31.0800   47.9530 C   0  0  0  0  0  0  0  0  0  0  0  0
   61.9970   31.9190   48.1600 C   0  0  0  0  0  0  0  0  0  0  0  0
   62.2730   33.0220   47.3330 C   0  0  0  0  0  0  0  0  0  0  0  0
   63.4240   33.7890   47.5390 C   0  0  0  0  0  0  0  0  0  0  0  0
   64.3140   33.4560   48.5620 C   0  0  0  0  0  0  0  0  0  0  0  0
   64.0600   32.3500   49.3760 C   0  0  0  0  0  0  0  0  0  0  0  0
   62.9110   31.5800   49.1730 C   0  0  0  0  0  0  0  0  0  0  0  0
   58.1464   32.6856   51.2931 H   0  0  0  0  0  0  0  0  0  0  0  0
   59.2328   32.5519   49.8688 H   0  0  0  0  0  0  0  0  0  0  0  0
   57.6444   31.7129   49.8688 H   0  0  0  0  0  0  0  0  0  0  0  0
   59.4996   31.0291   52.1208 H   0  0  0  0  0  0  0  0  0  0  0  0
   58.4023   29.9762   51.1268 H   0  0  0  0  0  0  0  0  0  0  0  0
   61.1600   30.8610   50.5430 H   0  0  0  0  0  0  0  0  0  0  0  0
   60.4730   29.3060   50.5700 H   0  0  0  0  0  0  0  0  0  0  0  0
   57.7634   27.5613   46.7821 H   0  0  0  0  0  0  0  0  0  0  0  0
   56.2790   27.3320   44.6550 H   0  0  0  0  0  0  0  0  0  0  0  0
   55.6936   28.8924   42.4876 H   0  0  0  0  0  0  0  0  0  0  0  0
   56.1830   31.1311   41.4382 H   0  0  0  0  0  0  0  0  0  0  0  0
   57.7394   32.7362   42.5662 H   0  0  0  0  0  0  0  0  0  0  0  0
   58.8214   32.1226   44.7578 H   0  0  0  0  0  0  0  0  0  0  0  0
   61.5799   33.2830   46.5197 H   0  0  0  0  0  0  0  0  0  0  0  0
   63.6286   34.6562   46.8940 H   0  0  0  0  0  0  0  0  0  0  0  0
   65.2152   34.0648   48.7268 H   0  0  0  0  0  0  0  0  0  0  0  0
   64.7648   32.0844   50.1777 H   0  0  0  0  0  0  0  0  0  0  0  0
   62.7209   30.7035   49.8098 H   0  0  0  0  0  0  0  0  0  0  0  0
  1  2  1  0
  2  3  1  0
  3  4  1  0
  4  5  1  0
  5  6  1  0
  6  7  1  0
  7  8  2  0
  8  9  1  0
  9 10  1  0
 10 11  2  0
 11 12  1  0
 12 13  2  0
 13 14  1  0
 14 15  2  0
  6 16  2  0
 16 17  1  0
 17 18  1  0
 18 19  2  0
 19 20  1  0
 20 21  2  0
 21 22  1  0
 22 23  2  0
 17  4  2  0
 23 18  1  0
 15  7  1  0
 15 10  1  0
  1 24  1  0
  1 25  1  0
  1 26  1  0
  2 27  1  0
  2 28  1  0
  3 29  1  0
  3 30  1  0
  8 31  1  0
  9 32  1  0
 11 33  1  0
 12 34  1  0
 13 35  1  0
 14 36  1  0
 19 37  1  0
 20 38  1  0
 21 39  1  0
 22 40  1  0
 23 41  1  0
M  CHG  1   3   1
M  END
>  <UniqueID>  (5) 
5

>  <SMILES>  (5) 
CC[NH2+]c1oc(-c2c[nH]c3ccccc23)nc1-c1ccccc1

>  <Energy>  (5) 
112.82083646395816

>  <Genealogy>  (5) 
CC[NH2+]c1oc(-c2c[nH]c3ccccc23)nc1-c1ccccc1 (protonated)
CC[NH2+]c1oc(-c2c[nH]c3ccccc23)nc1-c1ccccc1 (3D coordinates assigned)
CC[NH2+]c1oc(-c2c[nH]c3ccccc23)nc1-c1ccccc1 (optimized conformer: 112.82083646395816 kcal/mol)

>  <smiles>  (5) 
CCNc1oc(-c2c[nH]c3ccccc23)nc1-c1ccccc1

>  <score_type>  (5) 
oracle

>  <origin>  (5) 
adg

>  <m_score__min__energy>  (5) 
-6.1100000000000003

>  <m_primary>  (5) 
energy

$$$$
5:0
     RDKit          3D

 47 49  0  0  0  0  0  0  0  0999 V2000
   60.4050   27.2580   48.7860 C   0  0  0  0  0  0  0  0  0  0  0  0
   59.8210   27.5050   47.3990 C   0  0  0  0  0  0  0  0  0  0  0  0
   60.0010   28.9210   47.0020 N   0  0  0  0  0  0  0  0  0  0  0  0
   60.6300   29.0060   45.6720 C   0  0  0  0  0  0  0  0  0  0  0  0
   60.8220   29.6540   47.9920 C   0  0  0  0  0  0  0  0  0  0  0  0
   60.0680   30.8750   48.5370 C   0  0  0  0  0  0  0  0  0  0  0  0
   58.7180   30.9640   47.9750 N   0  0  0  0  0  0  0  0  0  0  0  0
   58.4700   31.5690   46.6940 C   0  0  0  0  0  0  0  0  0  0  0  0
   58.8940   32.8790   46.4040 C   0  0  0  0  0  0  0  0  0  0  0  0
   59.4060   33.7260   47.4090 C   0  0  0  0  0  0  0  0  0  0  0  0
   59.8480   35.0120   47.0960 C   0  0  0  0  0  0  0  0  0  0  0  0
   59.7710   35.4790   45.7860 C   0  0  0  0  0  0  0  0  0  0  0  0
   59.2310   34.6710   44.7850 C   0  0  0  0  0  0  0  0  0  0  0  0
   58.7660   33.3700   45.0790 C   0  0  0  0  0  0  0  0  0  0  0  0
   58.2000   32.5930   44.0980 N   0  0  0  0  0  0  0  0  0  0  0  0
   58.1910   33.0910   42.8050 O   0  0  0  0  0  0  0  0  0  0  0  0
   57.6630   31.3610   44.4030 C   0  0  0  0  0  0  0  0  0  0  0  0
   56.9490   30.5900   43.4580 C   0  0  0  0  0  0  0  0  0  0  0  0
   56.4270   29.3460   43.8100 C   0  0  0  0  0  0  0  0  0  0  0  0
   56.5960   28.8670   45.1060 C   0  0  0  0  0  0  0  0  0  0  0  0
   56.0530   27.6290   45.4580 O   0  0  0  0  0  0  0  0  0  0  0  0
   56.8350   26.5720   46.0000 C   0  0  0  0  0  0  0  0  0  0  0  0
   57.2760   29.6160   46.0150 N   0  0  0  0  0  0  0  0  0  0  0  0
   57.7990   30.8350   45.7090 C   0  0  0  0  0  0  0  0  0  0  0  0
   59.6767   27.5660   49.5507 H   0  0  0  0  0  0  0  0  0  0  0  0
   60.6299   26.1877   48.9039 H   0  0  0  0  0  0  0  0  0  0  0  0
   61.3296   27.8421   48.9039 H   0  0  0  0  0  0  0  0  0  0  0  0
   60.3320   26.8577   46.6711 H   0  0  0  0  0  0  0  0  0  0  0  0
   58.7451   27.2770   47.4215 H   0  0  0  0  0  0  0  0  0  0  0  0
   61.7140   29.1525   45.7878 H   0  0  0  0  0  0  0  0  0  0  0  0
   60.4430   28.0744   45.1177 H   0  0  0  0  0  0  0  0  0  0  0  0
   60.2025   29.8545   45.1177 H   0  0  0  0  0  0  0  0  0  0  0  0
   61.0658   28.9800   48.8265 H   0  0  0  0  0  0  0  0  0  0  0  0
   61.7402   30.0021   47.4963 H   0  0  0  0  0  0  0  0  0  0  0  0
   59.9953   30.7916   49.6314 H   0  0  0  0  0  0  0  0  0  0  0  0
   60.6227   31.7807   48.2506 H   0  0  0  0  0  0  0  0  0  0  0  0
   57.9820   30.3460   48.3850 H   0  0  0  0  0  0  0  0  0  0  0  0
   59.4573   33.3697   48.4484 H   0  0  0  0  0  0  0  0  0  0  0  0
   60.2582   35.6585   47.8857 H   0  0  0  0  0  0  0  0  0  0  0  0
   60.1367   36.4869   45.5402 H   0  0  0  0  0  0  0  0  0  0  0  0
   59.1666   35.0515   43.7549 H   0  0  0  0  0  0  0  0  0  0  0  0
   57.3820   33.0750   42.2000 H   0  0  0  0  0  0  0  0  0  0  0  0
   56.8041   30.9741   42.4375 H   0  0  0  0  0  0  0  0  0  0  0  0
   55.8834   28.7451   43.0661 H   0  0  0  0  0  0  0  0  0  0  0  0
   56.8015   26.6172   47.0986 H   0  0  0  0  0  0  0  0  0  0  0  0
   56.4321   25.6064   45.6603 H   0  0  0  0  0  0  0  0  0  0  0  0
   57.8762   26.6748   45.6603 H   0  0  0  0  0  0  0  0  0  0  0  0
  1  2  1  0
  2  3  1  0
  3  4  1  0
  3  5  1  0
  5  6  1  0
  6  7  1  0
  7  8  1  0
  8  9  2  0
  9 10  1  0
 10 11  2  0
 11 12  1  0
 12 13  2  0
 13 14  1  0
 14 15  2  0
 15 16  1  0
 15 17  1  0
 17 18  2  0
 18 19  1  0
 19 20  2  0
 20 21  1  0
 21 22  1  0
 20 23  1  0
 23 24  2  0
 24  8  1  0
 14  9  1  0
 24 17  1  0
  1 25  1  0
  1 26  1  0
  1 27  1  0
  2 28  1  0
  2 29  1  0
  4 30  1  0
  4 31  1  0
  4 32  1  0
  5 33  1  0
  5 34  1  0
  6 35  1  0
  6 36  1  0
  7 37  1  0
 10 38  1  0
 11 39  1  0
 12 40  1  0
 13 41  1  0
 16 42  1  0
 18 43  1  0
 19 44  1  0
 22 45  1  0
 22 46  1  0
 22 47  1  0
M  CHG  1  15   1
M  END
>  <UniqueID>  (6) 
6

>  <SMILES>  (6) 
CCN(C)CCNc1c2ccccc2[n+](O)c2ccc(OC)nc12

>  <Energy>  (6) 
61.65149279649616

>  <Genealogy>  (6) 
CCN(C)CCNc1c2ccccc2[n+](O)c2ccc(OC)nc12 (protonated)
CCN(C)CCNc1c2ccccc2[n+](O)c2ccc(OC)nc12 (3D coordinates assigned)
CCN(C)CCNc1c2ccccc2[n+](O)c2ccc(OC)nc12 (optimized conformer: 61.65149279649616 kcal/mol)

>  <smiles>  (6) 
CCN(C)CCNc1c2ccccc2[n+]([O-])c2ccc(OC)nc12

>  <score_type>  (6) 
oracle

>  <origin>  (6) 
adg

>  <m_score__min__energy>  (6) 
-5.3499999999999996

>  <m_primary>  (6) 
energy

$$$$
6:0
     RDKit          3D

 45 46  0  0  0  0  0  0  0  0999 V2000
   63.3510   33.8620   46.5050 C   0  0  0  0  0  0  0  0  0  0  0  0
   63.6680   33.1510   47.8310 C   0  0  0  0  0  0  0  0  0  0  0  0
   62.4780   32.6480   48.5620 N   0  0  0  0  0  0  0  0  0  0  0  0
   61.5920   31.7540   47.7860 C   0  0  0  0  0  0  0  0  0  0  0  0
   61.2180   30.5040   48.5810 C   0  0  0  0  0  0  0  0  0  0  0  0
   61.8010   33.6590   49.4090 C   0  0  0  0  0  0  0  0  0  0  0  0
   60.2690   33.5310   49.4450 C   0  0  0  0  0  0  0  0  0  0  0  0
   59.6550   34.5340   48.5720 N   0  0  0  0  0  0  0  0  0  0  0  0
   59.3380   34.3270   47.1800 C   0  0  0  0  0  0  0  0  0  0  0  0
   59.5870   35.3100   46.2040 C   0  0  0  0  0  0  0  0  0  0  0  0
   59.2670   35.0710   44.8680 C   0  0  0  0  0  0  0  0  0  0  0  0
   58.7070   33.8530   44.4830 C   0  0  0  0  0  0  0  0  0  0  0  0
   58.4630   32.8450   45.4350 C   0  0  0  0  0  0  0  0  0  0  0  0
   57.8610   31.5390   45.0430 C   0  0  0  0  0  0  0  0  0  0  0  0
   57.9000   30.4350   45.7770 C   0  0  0  0  0  0  0  0  0  0  0  0
   57.2020   29.2960   45.1330 C   0  0  0  0  0  0  0  0  0  0  0  0
   56.8130   29.8200   43.7530 C   0  0  0  0  0  0  0  0  0  0  0  0
   57.0980   31.3230   43.7790 C   0  0  0  0  0  0  0  0  0  0  0  0
   58.7800   33.1010   46.7840 C   0  0  0  0  0  0  0  0  0  0  0  0
   62.9112   34.8484   46.7139 H   0  0  0  0  0  0  0  0  0  0  0  0
   64.2778   33.9889   45.9263 H   0  0  0  0  0  0  0  0  0  0  0  0
   62.6372   33.2574   45.9263 H   0  0  0  0  0  0  0  0  0  0  0  0
   64.3240   32.2953   47.6133 H   0  0  0  0  0  0  0  0  0  0  0  0
   64.1399   33.9015   48.4823 H   0  0  0  0  0  0  0  0  0  0  0  0
   60.6731   32.2999   47.5261 H   0  0  0  0  0  0  0  0  0  0  0  0
   62.1304   31.4374   46.8805 H   0  0  0  0  0  0  0  0  0  0  0  0
   61.2829   30.7210   49.6574 H   0  0  0  0  0  0  0  0  0  0  0  0
   60.1904   30.2030   48.3290 H   0  0  0  0  0  0  0  0  0  0  0  0
   61.9114   29.6881   48.3290 H   0  0  0  0  0  0  0  0  0  0  0  0
   62.1795   33.5566   50.4367 H   0  0  0  0  0  0  0  0  0  0  0  0
   62.0247   34.6411   48.9669 H   0  0  0  0  0  0  0  0  0  0  0  0
   59.9806   32.5263   49.1025 H   0  0  0  0  0  0  0  0  0  0  0  0
   59.9204   33.6919   50.4758 H   0  0  0  0  0  0  0  0  0  0  0  0
   59.4360   35.4620   48.9980 H   0  0  0  0  0  0  0  0  0  0  0  0
   60.0359   36.2708   46.4963 H   0  0  0  0  0  0  0  0  0  0  0  0
   59.4574   35.8480   44.1130 H   0  0  0  0  0  0  0  0  0  0  0  0
   58.4539   33.6786   43.4268 H   0  0  0  0  0  0  0  0  0  0  0  0
   58.3961   30.3712   46.7567 H   0  0  0  0  0  0  0  0  0  0  0  0
   57.8722   28.4282   45.0451 H   0  0  0  0  0  0  0  0  0  0  0  0
   56.3314   28.9558   45.7129 H   0  0  0  0  0  0  0  0  0  0  0  0
   57.4153   29.3298   42.9739 H   0  0  0  0  0  0  0  0  0  0  0  0
   55.7568   29.6133   43.5257 H   0  0  0  0  0  0  0  0  0  0  0  0
   57.6992   31.6195   42.9069 H   0  0  0  0  0  0  0  0  0  0  0  0
   56.1770   31.9232   43.7396 H   0  0  0  0  0  0  0  0  0  0  0  0
   58.5867   32.3262   47.5405 H   0  0  0  0  0  0  0  0  0  0  0  0
  1  2  1  0
  2  3  1  0
  3  4  1  0
  4  5  1  0
  3  6  1  0
  6  7  1  0
  7  8  1  0
  8  9  1  0
  9 10  2  0
 10 11  1  0
 11 12  2  0
 12 13  1  0
 13 14  1  0
 14 15  2  0
 15 16  1  0
 16 17  1  0
 17 18  1  0
 13 19  2  0
 19  9  1  0
 18 14  1  0
  1 20  1  0
  1 21  1  0
  1 22  1  0
  2 23  1  0
  2 24  1  0
  4 25  1  0
  4 26  1  0
  5 27  1  0
  5 28  1  0
  5 29  1  0
  6 30  1  0
  6 31  1  0
  7 32  1  0
  7 33  1  0
  8 34  1  0
 10 35  1  0
 11 36  1  0
 12 37  1  0
 15 38  1  0
 16 39  1  0
 16 40  1  0
 17 41  1  0
 17 42  1  0
 18 43  1  0
 18 44  1  0
 19 45  1  0
M  END
>  <UniqueID>  (7) 
7

>  <SMILES>  (7) 
CCN(CC)CCNc1cccc(C2=CCCC2)c1

>  <Energy>  (7) 
54.68590601862096

>  <Genealogy>  (7) 
CCN(CC)CCNc1cccc(C2=CCCC2)c1 (3D coordinates assigned)
CCN(CC)CCNc1cccc(C2=CCCC2)c1 (nonaromatic ring conformer: 54.68590601862096 kcal/mol)

>  <smiles>  (7) 
CCN(CC)CCNc1cccc(C2=CCCC2)c1

>  <score_type>  (7) 
oracle

>  <origin>  (7) 
adg

>  <m_score__min__energy>  (7) 
-6.9100000000000001

>  <m_primary>  (7) 
energy

$$$$
7:0
     RDKit          3D

 52 55  0  0  0  0  0  0  0  0999 V2000
   60.2440   33.8550   49.8020 C   0  0  0  0  0  0  0  0  0  0  0  0
   61.5030   34.4680   49.1900 C   0  0  0  0  0  0  0  0  0  0  0  0
   62.6540   33.5450   49.2910 N   0  0  0  0  0  0  0  0  0  0  0  0
   63.2410   33.6300   50.6390 C   0  0  0  0  0  0  0  0  0  0  0  0
   63.6810   33.8050   48.2500 C   0  0  0  0  0  0  0  0  0  0  0  0
   63.2910   33.1220   46.9310 C   0  0  0  0  0  0  0  0  0  0  0  0
   62.7720   31.6910   47.1260 C   0  0  0  0  0  0  0  0  0  0  0  0
   61.4050   31.6970   47.6460 N   0  0  0  0  0  0  0  0  0  0  0  0
   60.2650   31.4500   46.8070 C   0  0  0  0  0  0  0  0  0  0  0  0
   59.5810   32.5000   46.1560 C   0  0  0  0  0  0  0  0  0  0  0  0
   59.9760   33.8430   46.3270 C   0  0  0  0  0  0  0  0  0  0  0  0
   59.2890   34.8730   45.6880 C   0  0  0  0  0  0  0  0  0  0  0  0
   58.1970   34.5870   44.8760 C   0  0  0  0  0  0  0  0  0  0  0  0
   57.7960   33.2670   44.6750 C   0  0  0  0  0  0  0  0  0  0  0  0
   58.4880   32.1920   45.2850 C   0  0  0  0  0  0  0  0  0  0  0  0
   58.1250   30.8750   45.0530 N   0  0  0  0  0  0  0  0  0  0  0  0
   57.3120   30.5350   43.8710 C   0  0  0  0  0  0  0  0  0  0  0  0
   58.6530   29.8880   45.8570 C   0  0  0  0  0  0  0  0  0  0  0  0
   59.7530   30.1630   46.6690 C   0  0  0  0  0  0  0  0  0  0  0  0
   60.2700   28.7700   47.4660 S   0  0  0  0  0  0  0  0  0  0  0  0
   59.0740   27.7920   46.8160 C   0  0  0  0  0  0  0  0  0  0  0  0
   58.8560   26.4470   47.1040 C   0  0  0  0  0  0  0  0  0  0  0  0
   57.7310   25.8210   46.5560 C   0  0  0  0  0  0  0  0  0  0  0  0
   56.8320   26.5550   45.7660 C   0  0  0  0  0  0  0  0  0  0  0  0
   57.0640   27.9130   45.4920 C   0  0  0  0  0  0  0  0  0  0  0  0
   58.2320   28.5310   45.9820 C   0  0  0  0  0  0  0  0  0  0  0  0
   60.3153   33.8897   50.8991 H   0  0  0  0  0  0  0  0  0  0  0  0
   59.3620   34.4245   49.4737 H   0  0  0  0  0  0  0  0  0  0  0  0
   60.1484   32.8095   49.4737 H   0  0  0  0  0  0  0  0  0  0  0  0
   61.3141   34.6904   48.1294 H   0  0  0  0  0  0  0  0  0  0  0  0
   61.7457   35.3872   49.7433 H   0  0  0  0  0  0  0  0  0  0  0  0
   62.4477   33.5151   51.3923 H   0  0  0  0  0  0  0  0  0  0  0  0
   63.9856   32.8303   50.7658 H   0  0  0  0  0  0  0  0  0  0  0  0
   63.7282   34.6081   50.7658 H   0  0  0  0  0  0  0  0  0  0  0  0
   63.7642   34.8895   48.0858 H   0  0  0  0  0  0  0  0  0  0  0  0
   64.6450   33.3992   48.5906 H   0  0  0  0  0  0  0  0  0  0  0  0
   62.5026   33.7178   46.4477 H   0  0  0  0  0  0  0  0  0  0  0  0
   64.1982   33.0610   46.3119 H   0  0  0  0  0  0  0  0  0  0  0  0
   62.7868   31.1677   46.1585 H   0  0  0  0  0  0  0  0  0  0  0  0
   63.4211   31.1779   47.8508 H   0  0  0  0  0  0  0  0  0  0  0  0
   61.2550   32.0300   48.6250 H   0  0  0  0  0  0  0  0  0  0  0  0
   60.8354   34.0798   46.9715 H   0  0  0  0  0  0  0  0  0  0  0  0
   59.6114   35.9156   45.8263 H   0  0  0  0  0  0  0  0  0  0  0  0
   57.6469   35.4062   44.3899 H   0  0  0  0  0  0  0  0  0  0  0  0
   56.9283   33.0569   44.0324 H   0  0  0  0  0  0  0  0  0  0  0  0
   56.3427   30.1297   44.1969 H   0  0  0  0  0  0  0  0  0  0  0  0
   57.1468   31.4394   43.2671 H   0  0  0  0  0  0  0  0  0  0  0  0
   57.8399   29.7822   43.2671 H   0  0  0  0  0  0  0  0  0  0  0  0
   59.5524   25.8895   47.7476 H   0  0  0  0  0  0  0  0  0  0  0  0
   57.5507   24.7524   46.7444 H   0  0  0  0  0  0  0  0  0  0  0  0
   55.9375   26.0620   45.3577 H   0  0  0  0  0  0  0  0  0  0  0  0
   56.3391   28.4901   44.8991 H   0  0  0  0  0  0  0  0  0  0  0  0
  1  2  1  0
  2  3  1  0
  3  4  1  0
  3  5  1  0
  5  6  1  0
  6  7  1  0
  7  8  1  0
  8  9  1  0
  9 10  2  0
 10 11  1  0
 11 12  2  0
 12 13  1  0
 13 14  2  0
 14 15  1  0
 15 16  2  0
 16 17  1  0
 16 18  1  0
 18 19  2  0
 19 20  1  0
 20 21  1  0
 21 22  2  0
 22 23  1  0
 23 24  2  0
 24 25  1  0
 25 26  2  0
 19  9  1  0
 26 21  1  0
 15 10  1  0
 26 18  1  0
  1 27  1  0
  1 28  1  0
  1 29  1  0
  2 30  1  0
  2 31  1  0
  4 32  1  0
  4 33  1  0
  4 34  1  0
  5 35  1  0
  5 36  1  0
  6 37  1  0
  6 38  1  0
  7 39  1  0
  7 40  1  0
  8 41  1  0
 11 42  1  0
 12 43  1  0
 13 44  1  0
 14 45  1  0
 17 46  1  0
 17 47  1  0
 17 48  1  0
 22 49  1  0
 23 50  1  0
 24 51  1  0
 25 52  1  0
M  CHG  1  16   1
M  END
>  <UniqueID>  (8) 
8

>  <SMILES>  (8) 
CCN(C)CCCNc1c2ccccc2[n+](C)c2c1sc1ccccc12

>  <Energy>  (8) 
111.5447596732948

>  <Genealogy>  (8) 
CCN(C)CCCNc1c2ccccc2[n+](C)c2c1sc1ccccc12 (3D coordinates assigned)
CCN(C)CCCNc1c2ccccc2[n+](C)c2c1sc1ccccc12 (optimized conformer: 111.5447596732948 kcal/mol)

>  <smiles>  (8) 
CCN(C)CCCNc1c2ccccc2[n+](C)c2c1sc1ccccc12

>  <score_type>  (8) 
oracle

>  <origin>  (8) 
adg

>  <m_score__min__energy>  (8) 
-5.96

>  <m_primary>  (8) 
energy

$$$$
8:0
     RDKit          3D

 67 70  0  0  0  0  0  0  0  0999 V2000
   56.2969   31.0825   44.4242 H   0  0  0  0  0  0  0  0  0  0  0  0
   57.2910   31.5470   44.5020 C   0  0  0  0  0  0  0  0  0  0  0  0
   57.3940   32.8700   44.6720 C   0  0  0  0  0  0  0  0  0  0  0  0
   56.8873   33.5275   43.9502 H   0  0  0  0  0  0  0  0  0  0  0  0
   59.5670   29.7040   46.4470 C   0  0  0  0  0  0  0  0  0  0  0  0
   60.4160   30.6970   46.6600 O   0  0  0  0  0  0  0  0  0  0  0  0
   61.1600   30.8300   47.7590 C   0  0  0  0  0  0  0  0  0  0  0  0
   61.0490   29.8720   48.8050 C   0  0  0  0  0  0  0  0  0  0  0  0
   61.8060   30.0690   50.0040 C   0  0  0  0  0  0  0  0  0  0  0  0
   61.6130   29.2280   51.1800 N   0  0  0  0  0  0  0  0  0  0  0  0
   61.5560   28.2280   50.8860 H   0  0  0  0  0  0  0  0  0  0  0  0
   62.4640   29.2060   51.7770 H   0  0  0  0  0  0  0  0  0  0  0  0
   60.3810   29.5900   51.9260 C   0  0  0  0  0  0  0  0  0  0  0  0
   60.4003   29.0772   52.8990 H   0  0  0  0  0  0  0  0  0  0  0  0
   59.5263   29.2804   51.3066 H   0  0  0  0  0  0  0  0  0  0  0  0
   60.2330   31.1040   52.1760 C   0  0  0  0  0  0  0  0  0  0  0  0
   61.2351   31.5488   52.2652 H   0  0  0  0  0  0  0  0  0  0  0  0
   59.6532   31.2404   53.1008 H   0  0  0  0  0  0  0  0  0  0  0  0
   59.5070   31.7790   51.0780 N   0  0  0  0  0  0  0  0  0  0  0  0
   59.4550   33.2530   51.2180 C   0  0  0  0  0  0  0  0  0  0  0  0
   59.0685   33.5123   52.2147 H   0  0  0  0  0  0  0  0  0  0  0  0
   58.7921   33.6694   50.4452 H   0  0  0  0  0  0  0  0  0  0  0  0
   60.8540   33.8340   51.0500 C   0  0  0  0  0  0  0  0  0  0  0  0
   61.2961   34.0176   52.0404 H   0  0  0  0  0  0  0  0  0  0  0  0
   61.4823   33.1224   50.4942 H   0  0  0  0  0  0  0  0  0  0  0  0
   60.7933   34.7813   50.4942 H   0  0  0  0  0  0  0  0  0  0  0  0
   58.1820   31.1740   50.8040 C   0  0  0  0  0  0  0  0  0  0  0  0
   57.9200   31.3772   49.7552 H   0  0  0  0  0  0  0  0  0  0  0  0
   58.2742   30.0992   51.0192 H   0  0  0  0  0  0  0  0  0  0  0  0
   57.0500   31.7080   51.6960 C   0  0  0  0  0  0  0  0  0  0  0  0
   57.3243   31.5786   52.7534 H   0  0  0  0  0  0  0  0  0  0  0  0
   56.8909   32.7761   51.4865 H   0  0  0  0  0  0  0  0  0  0  0  0
   56.1246   31.1515   51.4865 H   0  0  0  0  0  0  0  0  0  0  0  0
   62.7540   31.1330   50.0430 C   0  0  0  0  0  0  0  0  0  0  0  0
   63.6340   31.3080   51.1410 C   0  0  0  0  0  0  0  0  0  0  0  0
   63.5948   30.5992   51.9813 H   0  0  0  0  0  0  0  0  0  0  0  0
   64.5460   32.3580   51.1770 C   0  0  0  0  0  0  0  0  0  0  0  0
   65.2190   32.4704   52.0398 H   0  0  0  0  0  0  0  0  0  0  0  0
   64.6090   33.2620   50.1300 C   0  0  0  0  0  0  0  0  0  0  0  0
   65.3218   34.0989   50.1687 H   0  0  0  0  0  0  0  0  0  0  0  0
   63.7730   33.1130   49.0310 C   0  0  0  0  0  0  0  0  0  0  0  0
   63.8377   33.8345   48.2032 H   0  0  0  0  0  0  0  0  0  0  0  0
   62.8360   32.0480   48.9540 C   0  0  0  0  0  0  0  0  0  0  0  0
   62.0130   31.8990   47.8590 N   0  0  0  0  0  0  0  0  0  0  0  0
   62.0660   32.8800   46.7490 C   0  0  0  0  0  0  0  0  0  0  0  0
   62.1210   33.8981   47.1618 H   0  0  0  0  0  0  0  0  0  0  0  0
   62.9550   32.6865   46.1308 H   0  0  0  0  0  0  0  0  0  0  0  0
   61.1613   32.7834   46.1308 H   0  0  0  0  0  0  0  0  0  0  0  0
   60.1700   28.7740   48.5710 C   0  0  0  0  0  0  0  0  0  0  0  0
   60.0480   27.8180   49.3780 O   0  0  0  0  0  0  0  0  0  0  0  0
   59.4130   28.7170   47.4070 C   0  0  0  0  0  0  0  0  0  0  0  0
   58.6982   27.8959   47.2493 H   0  0  0  0  0  0  0  0  0  0  0  0
   58.5020   30.7050   44.4180 C   0  0  0  0  0  0  0  0  0  0  0  0
   59.2480   30.9538   43.6488 H   0  0  0  0  0  0  0  0  0  0  0  0
   58.7520   29.6590   45.2160 C   0  0  0  0  0  0  0  0  0  0  0  0
   58.3160   28.6898   44.9323 H   0  0  0  0  0  0  0  0  0  0  0  0
   58.1530   33.4990   45.7790 C   0  0  0  0  0  0  0  0  0  0  0  0
   58.9520   34.6450   45.5910 C   0  0  0  0  0  0  0  0  0  0  0  0
   59.0126   35.1120   44.5969 H   0  0  0  0  0  0  0  0  0  0  0  0
   59.6670   35.1910   46.6590 C   0  0  0  0  0  0  0  0  0  0  0  0
   60.2828   36.0892   46.5042 H   0  0  0  0  0  0  0  0  0  0  0  0
   59.6030   34.6010   47.9220 C   0  0  0  0  0  0  0  0  0  0  0  0
   60.1660   35.0349   48.7615 H   0  0  0  0  0  0  0  0  0  0  0  0
   58.8240   33.4600   48.1190 C   0  0  0  0  0  0  0  0  0  0  0  0
   58.7739   32.9952   49.1147 H   0  0  0  0  0  0  0  0  0  0  0  0
   58.1070   32.9060   47.0540 C   0  0  0  0  0  0  0  0  0  0  0  0
   57.5031   32.0007   47.2141 H   0  0  0  0  0  0  0  0  0  0  0  0
  1  2  1  0
  2  3  2  0
  3  4  1  0
  3  5  1  0
  5  6  1  0
  6  7  1  0
  7  8  2  0
  8  9  1  0
  9 10  1  0
 10 11  1  0
 10 12  1  0
 10 13  1  0
 13 14  1  0
 13 15  1  0
 13 16  1  0
 16 17  1  0
 16 18  1  0
 16 19  1  0
 19 20  1  0
 20 21  1  0
 20 22  1  0
 20 23  1  0
 23 24  1  0
 23 25  1  0
 23 26  1  0
 19 27  1  0
 27 28  1  0
 27 29  1  0
 27 30  1  0
 30 31  1  0
 30 32  1  0
 30 33  1  0
  9 34  2  0
 34 35  1  0
 35 36  1  0
 35 37  2  0
 37 38  1  0
 37 39  1  0
 39 40  1  0
 39 41  2  0
 41 42  1  0
 41 43  1  0
 43 44  2  0
 44 45  1  0
 45 46  1  0
 45 47  1  0
 45 48  1  0
  8 49  1  0
 49 50  2  0
 49 51  1  0
 51 52  1  0
  2 53  1  0
 53 54  1  0
 53 55  2  0
 55 56  1  0
 55 57  1  0
 57 58  2  0
 58 59  1  0
 58 60  1  0
 60 61  1  0
 60 62  2  0
 62 63  1  0
 62 64  1  0
 64 65  1  0
 64 66  2  0
 66 67  1  0
 51  5  2  0
 66 57  1  0
 44  7  1  0
 43 34  1  0
M  CHG  2  10   1  44   1
M  END
>  <UniqueID>  (9) 
9

>  <SMILES>  (9) 
CCN(CC)CC[NH2+]c1c2ccccc2[n+](C)c2oc(C=C/C=C/c3ccccc3)cc(=O)c12

>  <Energy>  (9) 
106.55312163732265

>  <Genealogy>  (9) 
CCN(CC)CC[NH2+]c1c2ccccc2[n+](C)c2oc(C=CC=Cc3ccccc3)cc(=O)c12 (protonated)
CCN(CC)CC[NH2+]c1c2ccccc2[n+](C)c2oc(C=C/C=C/c3ccccc3)cc(=O)c12 (cis-trans isomerization)
CCN(CC)CC[NH2+]c1c2ccccc2[n+](C)c2oc(C=C/C=C/c3ccccc3)cc(=O)c12 (3D coordinates assigned)
CCN(CC)CC[NH2+]c1c2ccccc2[n+](C)c2oc(C=C/C=C/c3ccccc3)cc(=O)c12 (optimized conformer: 106.55312163732265 kcal/mol)

>  <smiles>  (9) 
CCN(CC)CCNc1c2ccccc2[n+](C)c2oc(C=CC=Cc3ccccc3)cc(=O)c12

>  <score_type>  (9) 
oracle

>  <origin>  (9) 
adg

>  <m_score__min__energy>  (9) 
-5.7599999999999998

>  <m_primary>  (9) 
energy

$$$$
9:0
     RDKit          3D

 46 48  0  0  0  0  0  0  0  0999 V2000
   58.8960   30.9630   47.7160 C   0  0  0  0  0  0  0  0  0  0  0  0
   59.6480   31.4510   46.4830 C   0  0  0  0  0  0  0  0  0  0  0  0
   58.9650   32.5940   45.8600 N   0  0  0  0  0  0  0  0  0  0  0  0
   59.3530   33.9630   46.2310 C   0  0  0  0  0  0  0  0  0  0  0  0
   60.6280   33.9520   47.0360 C   0  0  0  0  0  0  0  0  0  0  0  0
   61.8720   33.8120   46.3970 C   0  0  0  0  0  0  0  0  0  0  0  0
   63.0500   33.7640   47.1480 C   0  0  0  0  0  0  0  0  0  0  0  0
   62.9970   33.8580   48.5420 C   0  0  0  0  0  0  0  0  0  0  0  0
   64.1400   33.8120   49.2690 F   0  0  0  0  0  0  0  0  0  0  0  0
   61.7650   34.0000   49.1850 C   0  0  0  0  0  0  0  0  0  0  0  0
   60.5840   34.0450   48.4370 C   0  0  0  0  0  0  0  0  0  0  0  0
   57.7950   32.3920   45.0400 C   0  0  0  0  0  0  0  0  0  0  0  0
   56.7280   33.0040   45.3160 O   0  0  0  0  0  0  0  0  0  0  0  0
   57.8220   31.4910   43.8380 C   0  0  0  0  0  0  0  0  0  0  0  0
   57.4780   30.1170   44.2000 N   0  0  0  0  0  0  0  0  0  0  0  0
   56.2120   29.6570   44.6460 C   0  0  0  0  0  0  0  0  0  0  0  0
   55.1520   30.3270   44.5330 O   0  0  0  0  0  0  0  0  0  0  0  0
   56.2520   28.3730   45.2550 N   0  0  0  0  0  0  0  0  0  0  0  0
   57.6520   27.9380   45.2530 C   0  0  0  0  0  0  0  0  0  0  0  0
   58.1200   27.6310   46.6710 C   0  0  0  0  0  0  0  0  0  0  0  0
   57.8140   26.1510   46.8900 C   0  0  0  0  0  0  0  0  0  0  0  0
   57.5500   25.5380   45.5130 C   0  0  0  0  0  0  0  0  0  0  0  0
   57.8050   26.6330   44.4850 C   0  0  0  0  0  0  0  0  0  0  0  0
   58.3740   29.0930   44.6150 C   0  0  0  0  0  0  0  0  0  0  0  0
   59.6230   29.1650   44.4690 O   0  0  0  0  0  0  0  0  0  0  0  0
   59.4188   31.3022   48.6224 H   0  0  0  0  0  0  0  0  0  0  0  0
   57.8744   31.3707   47.7076 H   0  0  0  0  0  0  0  0  0  0  0  0
   58.8522   29.8639   47.7076 H   0  0  0  0  0  0  0  0  0  0  0  0
   60.6621   31.7573   46.7794 H   0  0  0  0  0  0  0  0  0  0  0  0
   59.6882   30.6296   45.7525 H   0  0  0  0  0  0  0  0  0  0  0  0
   59.5072   34.5555   45.3172 H   0  0  0  0  0  0  0  0  0  0  0  0
   58.5519   34.4065   46.8405 H   0  0  0  0  0  0  0  0  0  0  0  0
   61.9188   33.7398   45.3004 H   0  0  0  0  0  0  0  0  0  0  0  0
   64.0200   33.6521   46.6415 H   0  0  0  0  0  0  0  0  0  0  0  0
   61.7236   34.0766   50.2816 H   0  0  0  0  0  0  0  0  0  0  0  0
   59.6161   34.1537   48.9482 H   0  0  0  0  0  0  0  0  0  0  0  0
   57.0970   31.8592   43.0971 H   0  0  0  0  0  0  0  0  0  0  0  0
   58.8397   31.4971   43.4206 H   0  0  0  0  0  0  0  0  0  0  0  0
   59.1994   27.8190   46.7688 H   0  0  0  0  0  0  0  0  0  0  0  0
   57.6155   28.2664   47.4139 H   0  0  0  0  0  0  0  0  0  0  0  0
   58.6725   25.6545   47.3658 H   0  0  0  0  0  0  0  0  0  0  0  0
   56.9421   26.0246   47.5487 H   0  0  0  0  0  0  0  0  0  0  0  0
   58.2296   24.6906   45.3396 H   0  0  0  0  0  0  0  0  0  0  0  0
   56.5187   25.1622   45.4404 H   0  0  0  0  0  0  0  0  0  0  0  0
   58.8201   26.5452   44.0704 H   0  0  0  0  0  0  0  0  0  0  0  0
   57.1106   26.5706   43.6341 H   0  0  0  0  0  0  0  0  0  0  0  0
  1  2  1  0
  2  3  1  0
  3  4  1  0
  4  5  1  0
  5  6  2  0
  6  7  1  0
  7  8  2  0
  8  9  1  0
  8 10  1  0
 10 11  2  0
  3 12  1  0
 12 13  2  0
 12 14  1  0
 14 15  1  0
 15 16  1  0
 16 17  2  0
 16 18  1  0
 18 19  1  0
 19 20  1  0
 20 21  1  0
 21 22  1  0
 22 23  1  0
 19 24  1  0
 24 25  2  0
 11  5  1  0
 24 15  1  0
 23 19  1  0
  1 26  1  0
  1 27  1  0
  1 28  1  0
  2 29  1  0
  2 30  1  0
  4 31  1  0
  4 32  1  0
  6 33  1  0
  7 34  1  0
 10 35  1  0
 11 36  1  0
 14 37  1  0
 14 38  1  0
 20 39  1  0
 20 40  1  0
 21 41  1  0
 21 42  1  0
 22 43  1  0
 22 44  1  0
 23 45  1  0
 23 46  1  0
M  CHG  1  18  -1
M  END
>  <UniqueID>  (10) 
10

>  <SMILES>  (10) 
CCN(Cc1ccc(F)cc1)C(=O)CN1C(=O)[N-]C2(CCCC2)C1=O

>  <Energy>  (10) 
64.29621467544813

>  <Genealogy>  (10) 
CCN(Cc1ccc(F)cc1)C(=O)CN1C(=O)[N-]C2(CCCC2)C1=O (protonated)
CCN(Cc1ccc(F)cc1)C(=O)CN1C(=O)[N-]C2(CCCC2)C1=O (3D coordinates assigned)
CCN(Cc1ccc(F)cc1)C(=O)CN1C(=O)[N-]C2(CCCC2)C1=O (nonaromatic ring conformer: 64.29621467544813 kcal/mol)

>  <smiles>  (10) 
CCN(Cc1ccc(F)cc1)C(=O)CN1C(=O)NC2(CCCC2)C1=O

>  <score_type>  (10) 
oracle

>  <origin>  (10) 
adg

>  <m_score__min__energy>  (10) 
-9.9399999999999995

>  <m_primary>  (10) 
energy

$$$$
10:0
     RDKit          3D

 48 50  0  0  0  0  0  0  0  0999 V2000
   59.0440   29.1230   47.1810 C   0  0  0  0  0  0  0  0  0  0  0  0
   58.1790   30.0270   46.3040 C   0  0  0  0  0  0  0  0  0  0  0  0
   58.9940   30.8110   45.2630 C   0  0  0  0  0  0  0  0  0  0  0  0
   58.1240   31.6490   44.3010 C   0  0  0  0  0  0  0  0  0  0  0  0
   57.0190   32.4210   45.0440 C   0  0  0  0  0  0  0  0  0  0  0  0
   57.3430   33.9140   45.2420 C   0  0  0  0  0  0  0  0  0  0  0  0
   58.7170   34.2210   45.8700 C   0  0  0  0  0  0  0  0  0  0  0  0
   58.7400   34.1710   47.4090 C   0  0  0  0  0  0  0  0  0  0  0  0
   59.7860   33.2780   47.9210 N   0  0  0  0  0  0  0  0  0  0  0  0
   61.1040   33.2230   47.5780 C   0  0  0  0  0  0  0  0  0  0  0  0
   61.8050   34.0470   46.6900 C   0  0  0  0  0  0  0  0  0  0  0  0
   63.1800   33.8100   46.5110 C   0  0  0  0  0  0  0  0  0  0  0  0
   63.8320   32.7700   47.2120 C   0  0  0  0  0  0  0  0  0  0  0  0
   63.1160   31.9520   48.1030 C   0  0  0  0  0  0  0  0  0  0  0  0
   61.7570   32.2080   48.2620 C   0  0  0  0  0  0  0  0  0  0  0  0
   60.7950   31.6120   49.0390 C   0  0  0  0  0  0  0  0  0  0  0  0
   60.8560   30.5700   49.8980 N   0  0  0  0  0  0  0  0  0  0  0  0
   59.7310   30.1810   50.5260 N   0  0  0  0  0  0  0  0  0  0  0  0
   59.7770   29.0560   51.4660 C   0  0  0  0  0  0  0  0  0  0  0  0
   58.5350   30.8370   50.2910 C   0  0  0  0  0  0  0  0  0  0  0  0
   57.4790   30.4750   50.8770 O   0  0  0  0  0  0  0  0  0  0  0  0
   58.4830   31.8880   49.4190 N   0  0  0  0  0  0  0  0  0  0  0  0
   59.6280   32.2660   48.8060 C   0  0  0  0  0  0  0  0  0  0  0  0
   58.8400   29.3362   48.2407 H   0  0  0  0  0  0  0  0  0  0  0  0
   58.8084   28.0701   46.9668 H   0  0  0  0  0  0  0  0  0  0  0  0
   60.1063   29.3119   46.9668 H   0  0  0  0  0  0  0  0  0  0  0  0
   57.4431   29.4030   45.7757 H   0  0  0  0  0  0  0  0  0  0  0  0
   57.6952   30.7615   46.9646 H   0  0  0  0  0  0  0  0  0  0  0  0
   59.6768   31.4897   45.7951 H   0  0  0  0  0  0  0  0  0  0  0  0
   59.5319   30.0720   44.6510 H   0  0  0  0  0  0  0  0  0  0  0  0
   58.7686   32.3695   43.7762 H   0  0  0  0  0  0  0  0  0  0  0  0
   57.6391   30.9592   43.5946 H   0  0  0  0  0  0  0  0  0  0  0  0
   56.0874   32.3402   44.4647 H   0  0  0  0  0  0  0  0  0  0  0  0
   56.9266   31.9733   46.0445 H   0  0  0  0  0  0  0  0  0  0  0  0
   57.3048   34.4019   44.2569 H   0  0  0  0  0  0  0  0  0  0  0  0
   56.5956   34.2916   45.9553 H   0  0  0  0  0  0  0  0  0  0  0  0
   59.4405   33.4840   45.4912 H   0  0  0  0  0  0  0  0  0  0  0  0
   58.9675   35.2538   45.5863 H   0  0  0  0  0  0  0  0  0  0  0  0
   58.9215   35.1856   47.7933 H   0  0  0  0  0  0  0  0  0  0  0  0
   57.7688   33.7812   47.7479 H   0  0  0  0  0  0  0  0  0  0  0  0
   61.2953   34.8569   46.1475 H   0  0  0  0  0  0  0  0  0  0  0  0
   63.7546   34.4414   45.8174 H   0  0  0  0  0  0  0  0  0  0  0  0
   64.9079   32.5996   47.0591 H   0  0  0  0  0  0  0  0  0  0  0  0
   63.6114   31.1393   48.6544 H   0  0  0  0  0  0  0  0  0  0  0  0
   61.7660   30.0830   50.0620 H   0  0  0  0  0  0  0  0  0  0  0  0
   59.7613   29.4389   52.4971 H   0  0  0  0  0  0  0  0  0  0  0  0
   58.9047   28.4060   51.3029 H   0  0  0  0  0  0  0  0  0  0  0  0
   60.6995   28.4794   51.3029 H   0  0  0  0  0  0  0  0  0  0  0  0
  1  2  1  0
  2  3  1  0
  3  4  1  0
  4  5  1  0
  5  6  1  0
  6  7  1  0
  7  8  1  0
  8  9  1  0
  9 10  1  0
 10 11  2  0
 11 12  1  0
 12 13  2  0
 13 14  1  0
 14 15  2  0
 15 16  1  0
 16 17  2  0
 17 18  1  0
 18 19  1  0
 18 20  1  0
 20 21  2  0
 20 22  1  0
 22 23  2  0
 23  9  1  0
 15 10  1  0
 23 16  1  0
  1 24  1  0
  1 25  1  0
  1 26  1  0
  2 27  1  0
  2 28  1  0
  3 29  1  0
  3 30  1  0
  4 31  1  0
  4 32  1  0
  5 33  1  0
  5 34  1  0
  6 35  1  0
  6 36  1  0
  7 37  1  0
  7 38  1  0
  8 39  1  0
  8 40  1  0
 11 41  1  0
 12 42  1  0
 13 43  1  0
 14 44  1  0
 17 45  1  0
 19 46  1  0
 19 47  1  0
 19 48  1  0
M  CHG  1  17   1
M  END
>  <UniqueID>  (11) 
11

>  <SMILES>  (11) 
CCCCCCCCn1c2ccccc2c2[nH+]n(C)c(=O)nc21

>  <Energy>  (11) 
87.19484571955019

>  <Genealogy>  (11) 
CCCCCCCCn1c2ccccc2c2[nH+]n(C)c(=O)nc21 (protonated)
CCCCCCCCn1c2ccccc2c2[nH+]n(C)c(=O)nc21 (3D coordinates assigned)
CCCCCCCCn1c2ccccc2c2[nH+]n(C)c(=O)nc21 (optimized conformer: 87.19484571955019 kcal/mol)

>  <smiles>  (11) 
CCCCCCCCn1c2ccccc2c2nn(C)c(=O)nc21

>  <score_type>  (11) 
oracle

>  <origin>  (11) 
adg

>  <m_score__min__energy>  (11) 
-5.9699999999999998

>  <m_primary>  (11) 
energy

$$$$
11:0
     RDKit          3D

 59 62  0  0  0  0  0  0  0  0999 V2000
   65.8630   32.9630   50.2330 C   0  0  0  0  0  0  0  0  0  0  0  0
   65.1220   32.0380   49.4450 O   0  0  0  0  0  0  0  0  0  0  0  0
   63.8770   32.3150   48.8590 C   0  0  0  0  0  0  0  0  0  0  0  0
   62.6850   31.7140   49.3020 C   0  0  0  0  0  0  0  0  0  0  0  0
   61.4690   32.0200   48.6810 C   0  0  0  0  0  0  0  0  0  0  0  0
   61.4230   32.9300   47.6120 C   0  0  0  0  0  0  0  0  0  0  0  0
   60.1320   33.2400   46.9460 C   0  0  0  0  0  0  0  0  0  0  0  0
   59.3580   34.3270   47.3660 C   0  0  0  0  0  0  0  0  0  0  0  0
   58.1480   34.5820   46.7380 C   0  0  0  0  0  0  0  0  0  0  0  0
   57.7320   33.7660   45.6900 C   0  0  0  0  0  0  0  0  0  0  0  0
   56.6210   33.9950   45.1400 O   0  0  0  0  0  0  0  0  0  0  0  0
   58.5310   32.7290   45.2760 N   0  0  0  0  0  0  0  0  0  0  0  0
   58.1470   31.8800   44.1300 C   0  0  0  0  0  0  0  0  0  0  0  0
   57.4480   30.5860   44.5850 C   0  0  0  0  0  0  0  0  0  0  0  0
   57.8350   30.1160   46.0020 C   0  0  0  0  0  0  0  0  0  0  0  0
   59.2910   29.8490   46.0900 N   0  0  0  0  0  0  0  0  0  0  0  0
   59.8320   29.2580   44.8470 C   0  0  0  0  0  0  0  0  0  0  0  0
   59.2430   27.8590   44.5860 C   0  0  0  0  0  0  0  0  0  0  0  0
   59.0290   27.1480   45.8500 N   0  0  0  0  0  0  0  0  0  0  0  0
   57.9810   26.1640   45.9660 C   0  0  0  0  0  0  0  0  0  0  0  0
   58.3010   24.8190   46.2220 C   0  0  0  0  0  0  0  0  0  0  0  0
   57.2910   23.8640   46.3660 C   0  0  0  0  0  0  0  0  0  0  0  0
   55.9520   24.2410   46.2520 C   0  0  0  0  0  0  0  0  0  0  0  0
   55.6210   25.5730   45.9950 C   0  0  0  0  0  0  0  0  0  0  0  0
   56.6280   26.5340   45.8520 C   0  0  0  0  0  0  0  0  0  0  0  0
   56.2800   27.8160   45.5790 F   0  0  0  0  0  0  0  0  0  0  0  0
   59.8260   27.5450   47.0150 C   0  0  0  0  0  0  0  0  0  0  0  0
   59.6640   29.0550   47.2900 C   0  0  0  0  0  0  0  0  0  0  0  0
   59.6820   32.4680   45.9130 N   0  0  0  0  0  0  0  0  0  0  0  0
   62.6170   33.5300   47.1760 C   0  0  0  0  0  0  0  0  0  0  0  0
   63.8310   33.2230   47.7970 C   0  0  0  0  0  0  0  0  0  0  0  0
   65.6949   32.7532   51.2996 H   0  0  0  0  0  0  0  0  0  0  0  0
   66.9344   32.8638   50.0042 H   0  0  0  0  0  0  0  0  0  0  0  0
   65.5324   33.9869   50.0042 H   0  0  0  0  0  0  0  0  0  0  0  0
   62.7088   31.0011   50.1394 H   0  0  0  0  0  0  0  0  0  0  0  0
   60.5417   31.5441   49.0328 H   0  0  0  0  0  0  0  0  0  0  0  0
   59.7055   34.9728   48.1859 H   0  0  0  0  0  0  0  0  0  0  0  0
   57.5209   35.4240   47.0662 H   0  0  0  0  0  0  0  0  0  0  0  0
   57.4616   32.4458   43.4818 H   0  0  0  0  0  0  0  0  0  0  0  0
   59.0634   31.6012   43.5892 H   0  0  0  0  0  0  0  0  0  0  0  0
   56.3615   30.7565   44.5640 H   0  0  0  0  0  0  0  0  0  0  0  0
   57.7719   29.7947   43.8929 H   0  0  0  0  0  0  0  0  0  0  0  0
   57.5676   30.8989   46.7270 H   0  0  0  0  0  0  0  0  0  0  0  0
   57.2923   29.1855   46.2249 H   0  0  0  0  0  0  0  0  0  0  0  0
   59.5825   29.9148   44.0006 H   0  0  0  0  0  0  0  0  0  0  0  0
   60.9220   29.1592   44.9570 H   0  0  0  0  0  0  0  0  0  0  0  0
   58.2815   27.9631   44.0619 H   0  0  0  0  0  0  0  0  0  0  0  0
   59.9504   27.2844   43.9700 H   0  0  0  0  0  0  0  0  0  0  0  0
   59.3548   24.5161   46.3096 H   0  0  0  0  0  0  0  0  0  0  0  0
   57.5514   22.8148   46.5693 H   0  0  0  0  0  0  0  0  0  0  0  0
   55.1574   23.4887   46.3646 H   0  0  0  0  0  0  0  0  0  0  0  0
   54.5651   25.8678   45.9047 H   0  0  0  0  0  0  0  0  0  0  0  0
   59.4882   26.9782   47.8951 H   0  0  0  0  0  0  0  0  0  0  0  0
   60.8857   27.3316   46.8112 H   0  0  0  0  0  0  0  0  0  0  0  0
   58.8796   29.1865   48.0499 H   0  0  0  0  0  0  0  0  0  0  0  0
   60.6438   29.4253   47.6261 H   0  0  0  0  0  0  0  0  0  0  0  0
   60.2710   31.6630   45.5980 H   0  0  0  0  0  0  0  0  0  0  0  0
   62.5959   34.2456   46.3409 H   0  0  0  0  0  0  0  0  0  0  0  0
   64.7583   33.7000   47.4470 H   0  0  0  0  0  0  0  0  0  0  0  0
  1  2  1  0
  2  3  1  0
  3  4  2  0
  4  5  1  0
  5  6  2  0
  6  7  1  0
  7  8  1  0
  8  9  2  0
  9 10  1  0
 10 11  2  0
 10 12  1  0
 12 13  1  0
 13 14  1  0
 14 15  1  0
 15 16  1  0
 16 17  1  0
 17 18  1  0
 18 19  1  0
 19 20  1  0
 20 21  2  0
 21 22  1  0
 22 23  2  0
 23 24  1  0
 24 25  2  0
 25 26  1  0
 19 27  1  0
 27 28  1  0
 12 29  1  0
  6 30  1  0
 30 31  2  0
 31  3  1  0
 29  7  2  0
 28 16  1  0
 25 20  1  0
  1 32  1  0
  1 33  1  0
  1 34  1  0
  4 35  1  0
  5 36  1  0
  8 37  1  0
  9 38  1  0
 13 39  1  0
 13 40  1  0
 14 41  1  0
 14 42  1  0
 15 43  1  0
 15 44  1  0
 17 45  1  0
 17 46  1  0
 18 47  1  0
 18 48  1  0
 21 49  1  0
 22 50  1  0
 23 51  1  0
 24 52  1  0
 27 53  1  0
 27 54  1  0
 28 55  1  0
 28 56  1  0
 29 57  1  0
 30 58  1  0
 31 59  1  0
M  CHG  1  29   1
M  END
>  <UniqueID>  (12) 
12

>  <SMILES>  (12) 
COc1ccc(-c2ccc(=O)n(CCCN3CCN(c4ccccc4F)CC3)[nH+]2)cc1

>  <Energy>  (12) 
80.34050982360351

>  <Genealogy>  (12) 
COc1ccc(-c2ccc(=O)n(CCCN3CCN(c4ccccc4F)CC3)[nH+]2)cc1 (protonated)
COc1ccc(-c2ccc(=O)n(CCCN3CCN(c4ccccc4F)CC3)[nH+]2)cc1 (3D coordinates assigned)
COc1ccc(-c2ccc(=O)n(CCCN3CCN(c4ccccc4F)CC3)[nH+]2)cc1 (nonaromatic ring conformer: 80.34050982360351 kcal/mol)

>  <smiles>  (12) 
COc1ccc(-c2ccc(=O)n(CCCN3CCN(c4ccccc4F)CC3)n2)cc1

>  <score_type>  (12) 
oracle

>  <origin>  (12) 
adg

>  <m_score__min__energy>  (12) 
-8.3300000000000001

>  <m_primary>  (12) 
energy

$$$$
12:0
     RDKit          3D

 63 66  0  0  0  0  0  0  0  0999 V2000
   63.6060   32.9680   46.7410 C   0  0  0  0  0  0  0  0  0  0  0  0
   63.6230   31.8880   47.8290 C   0  0  0  0  0  0  0  0  0  0  0  0
   63.1690   32.3920   49.1520 N   0  0  0  0  0  0  0  0  0  0  0  0
   64.2100   32.2930   50.2120 C   0  0  0  0  0  0  0  0  0  0  0  0
   65.5800   32.8600   49.8100 C   0  0  0  0  0  0  0  0  0  0  0  0
   62.6440   33.7830   49.0360 C   0  0  0  0  0  0  0  0  0  0  0  0
   61.6110   34.1280   50.1320 C   0  0  0  0  0  0  0  0  0  0  0  0
   60.5820   33.0890   50.2530 N   0  0  0  0  0  0  0  0  0  0  0  0
   60.1410   32.3160   49.1250 C   0  0  0  0  0  0  0  0  0  0  0  0
   60.1580   30.9130   49.1870 C   0  0  0  0  0  0  0  0  0  0  0  0
   60.4190   30.2390   50.3990 C   0  0  0  0  0  0  0  0  0  0  0  0
   60.4670   28.8480   50.4420 C   0  0  0  0  0  0  0  0  0  0  0  0
   60.2540   28.1070   49.2840 C   0  0  0  0  0  0  0  0  0  0  0  0
   60.0020   28.7530   48.0740 C   0  0  0  0  0  0  0  0  0  0  0  0
   59.9610   30.1660   47.9980 C   0  0  0  0  0  0  0  0  0  0  0  0
   59.7590   30.8190   46.8000 N   0  0  0  0  0  0  0  0  0  0  0  0
   60.0790   30.1110   45.5420 C   0  0  0  0  0  0  0  0  0  0  0  0
   59.4290   32.1620   46.7920 C   0  0  0  0  0  0  0  0  0  0  0  0
   58.8210   32.8070   45.6680 C   0  0  0  0  0  0  0  0  0  0  0  0
   58.1140   32.0660   44.5960 C   0  0  0  0  0  0  0  0  0  0  0  0
   57.3480   30.9320   44.9130 C   0  0  0  0  0  0  0  0  0  0  0  0
   56.6570   30.2480   43.9110 C   0  0  0  0  0  0  0  0  0  0  0  0
   56.7150   30.6940   42.5890 C   0  0  0  0  0  0  0  0  0  0  0  0
   57.4750   31.8250   42.2570 C   0  0  0  0  0  0  0  0  0  0  0  0
   57.5030   32.3290   40.8440 C   0  0  0  0  0  0  0  0  0  0  0  0
   58.1560   32.5210   43.2690 C   0  0  0  0  0  0  0  0  0  0  0  0
   58.6970   34.2060   45.6500 C   0  0  0  0  0  0  0  0  0  0  0  0
   59.0700   34.9660   46.7490 C   0  0  0  0  0  0  0  0  0  0  0  0
   59.5350   34.3450   47.9010 C   0  0  0  0  0  0  0  0  0  0  0  0
   59.7110   32.9480   47.9440 C   0  0  0  0  0  0  0  0  0  0  0  0
   63.5903   33.9622   47.2115 H   0  0  0  0  0  0  0  0  0  0  0  0
   64.5058   32.8725   46.1155 H   0  0  0  0  0  0  0  0  0  0  0  0
   62.7097   32.8442   46.1155 H   0  0  0  0  0  0  0  0  0  0  0  0
   62.9590   31.0675   47.5194 H   0  0  0  0  0  0  0  0  0  0  0  0
   64.6640   31.5514   47.9436 H   0  0  0  0  0  0  0  0  0  0  0  0
   62.3920   31.7670   49.4630 H   0  0  0  0  0  0  0  0  0  0  0  0
   63.8552   32.8441   51.0954 H   0  0  0  0  0  0  0  0  0  0  0  0
   64.3587   31.2207   50.4072 H   0  0  0  0  0  0  0  0  0  0  0  0
   66.1577   33.0991   50.7150 H   0  0  0  0  0  0  0  0  0  0  0  0
   66.1251   32.1136   49.2136 H   0  0  0  0  0  0  0  0  0  0  0  0
   65.4382   33.7733   49.2136 H   0  0  0  0  0  0  0  0  0  0  0  0
   63.4876   34.4845   49.1152 H   0  0  0  0  0  0  0  0  0  0  0  0
   62.1347   33.8641   48.0644 H   0  0  0  0  0  0  0  0  0  0  0  0
   62.1327   34.2272   51.0953 H   0  0  0  0  0  0  0  0  0  0  0  0
   61.1164   35.0702   49.8533 H   0  0  0  0  0  0  0  0  0  0  0  0
   60.2100   32.8540   51.2000 H   0  0  0  0  0  0  0  0  0  0  0  0
   60.5862   30.8183   51.3190 H   0  0  0  0  0  0  0  0  0  0  0  0
   60.6736   28.3345   51.3926 H   0  0  0  0  0  0  0  0  0  0  0  0
   60.2845   27.0081   49.3229 H   0  0  0  0  0  0  0  0  0  0  0  0
   59.8327   28.1561   47.1657 H   0  0  0  0  0  0  0  0  0  0  0  0
   60.5218   29.1314   45.7750 H   0  0  0  0  0  0  0  0  0  0  0  0
   59.1582   29.9675   44.9576 H   0  0  0  0  0  0  0  0  0  0  0  0
   60.7951   30.7074   44.9576 H   0  0  0  0  0  0  0  0  0  0  0  0
   57.2924   30.5817   45.9542 H   0  0  0  0  0  0  0  0  0  0  0  0
   56.0655   29.3556   44.1636 H   0  0  0  0  0  0  0  0  0  0  0  0
   56.1623   30.1560   41.8047 H   0  0  0  0  0  0  0  0  0  0  0  0
   57.5640   33.4273   40.8476 H   0  0  0  0  0  0  0  0  0  0  0  0
   58.3795   31.9148   40.3243 H   0  0  0  0  0  0  0  0  0  0  0  0
   56.5860   32.0144   40.3243 H   0  0  0  0  0  0  0  0  0  0  0  0
   58.7258   33.4284   43.0201 H   0  0  0  0  0  0  0  0  0  0  0  0
   58.2994   34.7049   44.7539 H   0  0  0  0  0  0  0  0  0  0  0  0
   58.9973   36.0628   46.7079 H   0  0  0  0  0  0  0  0  0  0  0  0
   59.7683   34.9505   48.7892 H   0  0  0  0  0  0  0  0  0  0  0  0
  1  2  1  0
  2  3  1  0
  3  4  1  0
  4  5  1  0
  3  6  1  0
  6  7  1  0
  7  8  1  0
  8  9  1  0
  9 10  2  0
 10 11  1  0
 11 12  2  0
 12 13  1  0
 13 14  2  0
 14 15  1  0
 15 16  2  0
 16 17  1  0
 16 18  1  0
 18 19  2  0
 19 20  1  0
 20 21  2  0
 21 22  1  0
 22 23  2  0
 23 24  1  0
 24 25  1  0
 24 26  2  0
 19 27  1  0
 27 28  2  0
 28 29  1  0
 29 30  2  0
 30  9  1  0
 15 10  1  0
 30 18  1  0
 26 20  1  0
  1 31  1  0
  1 32  1  0
  1 33  1  0
  2 34  1  0
  2 35  1  0
  3 36  1  0
  4 37  1  0
  4 38  1  0
  5 39  1  0
  5 40  1  0
  5 41  1  0
  6 42  1  0
  6 43  1  0
  7 44  1  0
  7 45  1  0
  8 46  1  0
 11 47  1  0
 12 48  1  0
 13 49  1  0
 14 50  1  0
 17 51  1  0
 17 52  1  0
 17 53  1  0
 21 54  1  0
 22 55  1  0
 23 56  1  0
 25 57  1  0
 25 58  1  0
 25 59  1  0
 26 60  1  0
 27 61  1  0
 28 62  1  0
 29 63  1  0
M  CHG  2   3   1  16   1
M  END
>  <UniqueID>  (13) 
13

>  <SMILES>  (13) 
CC[NH+](CC)CCNc1c2ccccc2[n+](C)c2c(-c3cccc(C)c3)cccc12

>  <Energy>  (13) 
105.69089829636911

>  <Genealogy>  (13) 
CC[NH+](CC)CCNc1c2ccccc2[n+](C)c2c(-c3cccc(C)c3)cccc12 (protonated)
CC[NH+](CC)CCNc1c2ccccc2[n+](C)c2c(-c3cccc(C)c3)cccc12 (3D coordinates assigned)
CC[NH+](CC)CCNc1c2ccccc2[n+](C)c2c(-c3cccc(C)c3)cccc12 (optimized conformer: 105.69089829636911 kcal/mol)

>  <smiles>  (13) 
CCN(CC)CCNc1c2ccccc2[n+](C)c2c(-c3cccc(C)c3)cccc12

>  <score_type>  (13) 
oracle

>  <origin>  (13) 
adg

>  <m_score__min__energy>  (13) 
-6.3499999999999996

>  <m_primary>  (13) 
energy

$$$$
13:0
     RDKit          3D

 43 45  0  0  0  0  0  0  0  0999 V2000
   56.3960   27.1020   45.8190 C   0  0  0  0  0  0  0  0  0  0  0  0
   56.7130   28.2510   44.8670 C   0  0  0  0  0  0  0  0  0  0  0  0
   55.7270   29.3280   45.0240 N   0  0  0  0  0  0  0  0  0  0  0  0
   56.0000   30.4480   44.1120 C   0  0  0  0  0  0  0  0  0  0  0  0
   57.4920   30.5080   43.7790 C   0  0  0  0  0  0  0  0  0  0  0  0
   58.2720   31.1040   44.9150 C   0  0  0  0  0  0  0  0  0  0  0  0
   58.4700   32.4600   45.1580 C   0  0  0  0  0  0  0  0  0  0  0  0
   59.3070   32.6240   46.2080 N   0  0  0  0  0  0  0  0  0  0  0  0
   59.8330   34.1400   46.8650 S   0  0  0  0  0  0  0  0  0  0  0  0
   59.8640   35.1610   45.7620 O   0  0  0  0  0  0  0  0  0  0  0  0
   58.8740   34.5950   47.9290 O   0  0  0  0  0  0  0  0  0  0  0  0
   61.4310   33.9520   47.5750 C   0  0  0  0  0  0  0  0  0  0  0  0
   61.6210   34.1890   48.9450 C   0  0  0  0  0  0  0  0  0  0  0  0
   62.8880   34.0340   49.5150 C   0  0  0  0  0  0  0  0  0  0  0  0
   63.9710   33.6440   48.7210 C   0  0  0  0  0  0  0  0  0  0  0  0
   63.7870   33.4120   47.3550 C   0  0  0  0  0  0  0  0  0  0  0  0
   62.5210   33.5660   46.7820 C   0  0  0  0  0  0  0  0  0  0  0  0
   59.6520   31.3910   46.6250 C   0  0  0  0  0  0  0  0  0  0  0  0
   60.5120   31.0410   47.6690 C   0  0  0  0  0  0  0  0  0  0  0  0
   60.7370   29.6740   47.9080 C   0  0  0  0  0  0  0  0  0  0  0  0
   60.1110   28.6950   47.1070 C   0  0  0  0  0  0  0  0  0  0  0  0
   59.2500   29.0730   46.0610 C   0  0  0  0  0  0  0  0  0  0  0  0
   59.0390   30.4350   45.8510 C   0  0  0  0  0  0  0  0  0  0  0  0
   56.4919   27.4497   46.8582 H   0  0  0  0  0  0  0  0  0  0  0  0
   55.3679   26.7527   45.6427 H   0  0  0  0  0  0  0  0  0  0  0  0
   57.0995   26.2750   45.6427 H   0  0  0  0  0  0  0  0  0  0  0  0
   57.7165   28.6419   45.0911 H   0  0  0  0  0  0  0  0  0  0  0  0
   56.6764   27.8796   43.8322 H   0  0  0  0  0  0  0  0  0  0  0  0
   55.7970   29.6930   46.0040 H   0  0  0  0  0  0  0  0  0  0  0  0
   55.4261   30.3088   43.1840 H   0  0  0  0  0  0  0  0  0  0  0  0
   55.7036   31.3882   44.6001 H   0  0  0  0  0  0  0  0  0  0  0  0
   57.8590   29.4892   43.5859 H   0  0  0  0  0  0  0  0  0  0  0  0
   57.6280   31.1409   42.8897 H   0  0  0  0  0  0  0  0  0  0  0  0
   58.0132   33.2778   44.5813 H   0  0  0  0  0  0  0  0  0  0  0  0
   60.7712   34.4974   49.5717 H   0  0  0  0  0  0  0  0  0  0  0  0
   63.0332   34.2191   50.5895 H   0  0  0  0  0  0  0  0  0  0  0  0
   64.9670   33.5199   49.1711 H   0  0  0  0  0  0  0  0  0  0  0  0
   64.6395   33.1078   46.7299 H   0  0  0  0  0  0  0  0  0  0  0  0
   62.3797   33.3839   45.7064 H   0  0  0  0  0  0  0  0  0  0  0  0
   60.9983   31.8116   48.2852 H   0  0  0  0  0  0  0  0  0  0  0  0
   61.4057   29.3653   48.7251 H   0  0  0  0  0  0  0  0  0  0  0  0
   60.2978   27.6287   47.3021 H   0  0  0  0  0  0  0  0  0  0  0  0
   58.7590   28.3183   45.4290 H   0  0  0  0  0  0  0  0  0  0  0  0
  1  2  1  0
  2  3  1  0
  3  4  1  0
  4  5  1  0
  5  6  1  0
  6  7  2  0
  7  8  1  0
  8  9  1  0
  9 10  2  0
  9 11  2  0
  9 12  1  0
 12 13  2  0
 13 14  1  0
 14 15  2  0
 15 16  1  0
 16 17  2  0
  8 18  1  0
 18 19  2  0
 19 20  1  0
 20 21  2  0
 21 22  1  0
 22 23  2  0
 23  6  1  0
 17 12  1  0
 23 18  1  0
  1 24  1  0
  1 25  1  0
  1 26  1  0
  2 27  1  0
  2 28  1  0
  3 29  1  0
  4 30  1  0
  4 31  1  0
  5 32  1  0
  5 33  1  0
  7 34  1  0
 13 35  1  0
 14 36  1  0
 15 37  1  0
 16 38  1  0
 17 39  1  0
 19 40  1  0
 20 41  1  0
 21 42  1  0
 22 43  1  0
M  END
>  <UniqueID>  (14) 
14

>  <SMILES>  (14) 
CCNCCc1cn(S(=O)(=O)c2ccccc2)c2ccccc12

>  <Energy>  (14) 
73.25043054733341

>  <Genealogy>  (14) 
CCNCCc1cn(S(=O)(=O)c2ccccc2)c2ccccc12 (3D coordinates assigned)
CCNCCc1cn(S(=O)(=O)c2ccccc2)c2ccccc12 (optimized conformer: 73.25043054733341 kcal/mol)

>  <smiles>  (14) 
CCNCCc1cn(S(=O)(=O)c2ccccc2)c2ccccc12

>  <score_type>  (14) 
oracle

>  <origin>  (14) 
adg

>  <m_score__min__energy>  (14) 
-8.1899999999999995

>  <m_primary>  (14) 
energy

$$$$
14:0
     RDKit          3D

 41 43  0  0  0  0  0  0  0  0999 V2000
   64.0080   33.4420   49.3670 C   0  0  0  0  0  0  0  0  0  0  0  0
   63.7720   32.3480   48.3300 C   0  0  0  0  0  0  0  0  0  0  0  0
   62.4500   32.5470   47.6350 C   0  0  0  0  0  0  0  0  0  0  0  0
   62.0960   33.8070   47.1580 C   0  0  0  0  0  0  0  0  0  0  0  0
   60.8930   33.9920   46.4860 C   0  0  0  0  0  0  0  0  0  0  0  0
   60.0040   32.9140   46.2590 C   0  0  0  0  0  0  0  0  0  0  0  0
   60.3620   31.6150   46.7310 C   0  0  0  0  0  0  0  0  0  0  0  0
   61.5970   31.4590   47.4100 C   0  0  0  0  0  0  0  0  0  0  0  0
   59.4690   30.5260   46.5000 C   0  0  0  0  0  0  0  0  0  0  0  0
   59.7380   29.2100   46.9350 C   0  0  0  0  0  0  0  0  0  0  0  0
   58.8450   28.1740   46.6890 C   0  0  0  0  0  0  0  0  0  0  0  0
   57.6440   28.3990   46.0010 C   0  0  0  0  0  0  0  0  0  0  0  0
   56.7490   27.3450   45.7580 O   0  0  0  0  0  0  0  0  0  0  0  0
   57.1210   26.0270   45.3620 C   0  0  0  0  0  0  0  0  0  0  0  0
   57.3420   29.7080   45.5530 C   0  0  0  0  0  0  0  0  0  0  0  0
   56.1550   30.0220   44.8550 O   0  0  0  0  0  0  0  0  0  0  0  0
   55.8990   29.8350   43.4680 C   0  0  0  0  0  0  0  0  0  0  0  0
   58.2570   30.7630   45.8070 C   0  0  0  0  0  0  0  0  0  0  0  0
   57.9640   32.0620   45.3700 C   0  0  0  0  0  0  0  0  0  0  0  0
   58.8140   33.1050   45.5930 N   0  0  0  0  0  0  0  0  0  0  0  0
   58.4130   34.4350   45.0950 C   0  0  0  0  0  0  0  0  0  0  0  0
   63.9161   33.0159   50.3769 H   0  0  0  0  0  0  0  0  0  0  0  0
   65.0170   33.8600   49.2358 H   0  0  0  0  0  0  0  0  0  0  0  0
   63.2611   34.2388   49.2358 H   0  0  0  0  0  0  0  0  0  0  0  0
   64.5799   32.3777   47.5840 H   0  0  0  0  0  0  0  0  0  0  0  0
   63.7590   31.3741   48.8411 H   0  0  0  0  0  0  0  0  0  0  0  0
   62.7721   34.6605   47.3139 H   0  0  0  0  0  0  0  0  0  0  0  0
   60.6268   34.9959   46.1236 H   0  0  0  0  0  0  0  0  0  0  0  0
   61.8917   30.4615   47.7680 H   0  0  0  0  0  0  0  0  0  0  0  0
   60.6713   29.0010   47.4784 H   0  0  0  0  0  0  0  0  0  0  0  0
   59.0845   27.1595   47.0402 H   0  0  0  0  0  0  0  0  0  0  0  0
   57.2949   25.4108   46.2564 H   0  0  0  0  0  0  0  0  0  0  0  0
   56.3132   25.5827   44.7620 H   0  0  0  0  0  0  0  0  0  0  0  0
   58.0419   26.0706   44.7620 H   0  0  0  0  0  0  0  0  0  0  0  0
   55.0166   29.1905   43.3416 H   0  0  0  0  0  0  0  0  0  0  0  0
   55.7114   30.8102   42.9950 H   0  0  0  0  0  0  0  0  0  0  0  0
   56.7710   29.3597   42.9950 H   0  0  0  0  0  0  0  0  0  0  0  0
   57.0222   32.2454   44.8321 H   0  0  0  0  0  0  0  0  0  0  0  0
   58.2123   35.1005   45.9475 H   0  0  0  0  0  0  0  0  0  0  0  0
   59.2238   34.8572   44.4831 H   0  0  0  0  0  0  0  0  0  0  0  0
   57.5040   34.3387   44.4831 H   0  0  0  0  0  0  0  0  0  0  0  0
  1  2  1  0
  2  3  1  0
  3  4  2  0
  4  5  1  0
  5  6  2  0
  6  7  1  0
  7  8  2  0
  7  9  1  0
  9 10  2  0
 10 11  1  0
 11 12  2  0
 12 13  1  0
 13 14  1  0
 12 15  1  0
 15 16  1  0
 16 17  1  0
 15 18  2  0
 18 19  1  0
 19 20  2  0
 20 21  1  0
  8  3  1  0
 18  9  1  0
 20  6  1  0
  1 22  1  0
  1 23  1  0
  1 24  1  0
  2 25  1  0
  2 26  1  0
  4 27  1  0
  5 28  1  0
  8 29  1  0
 10 30  1  0
 11 31  1  0
 14 32  1  0
 14 33  1  0
 14 34  1  0
 17 35  1  0
 17 36  1  0
 17 37  1  0
 19 38  1  0
 21 39  1  0
 21 40  1  0
 21 41  1  0
M  CHG  1  20   1
M  END
>  <UniqueID>  (15) 
15

>  <SMILES>  (15) 
CCc1ccc2c(c1)c1ccc(OC)c(OC)c1c[n+]2C

>  <Energy>  (15) 
59.253202100355516

>  <Genealogy>  (15) 
CCc1ccc2c(c1)c1ccc(OC)c(OC)c1c[n+]2C (3D coordinates assigned)
CCc1ccc2c(c1)c1ccc(OC)c(OC)c1c[n+]2C (optimized conformer: 59.253202100355516 kcal/mol)

>  <smiles>  (15) 
CCc1ccc2c(c1)c1ccc(OC)c(OC)c1c[n+]2C

>  <score_type>  (15) 
oracle

>  <origin>  (15) 
adg

>  <m_score__min__energy>  (15) 
-5.9000000000000004

>  <m_primary>  (15) 
energy

$$$$
15:0
     RDKit          3D

 46 48  0  0  0  0  0  0  0  0999 V2000
   61.6220   34.2120   48.7070 C   0  0  0  0  0  0  0  0  0  0  0  0
   61.4610   33.2790   47.5790 N   0  0  0  0  0  0  0  0  0  0  0  0
   62.7430   32.6140   47.2980 C   0  0  0  0  0  0  0  0  0  0  0  0
   60.9550   33.9800   46.3780 C   0  0  0  0  0  0  0  0  0  0  0  0
   59.7460   34.8650   46.7240 C   0  0  0  0  0  0  0  0  0  0  0  0
   58.5160   34.5860   45.8350 C   0  0  0  0  0  0  0  0  0  0  0  0
   57.6240   33.5890   46.4300 N   0  0  0  0  0  0  0  0  0  0  0  0
   58.0070   32.2150   46.6080 C   0  0  0  0  0  0  0  0  0  0  0  0
   57.8060   31.2760   45.5800 C   0  0  0  0  0  0  0  0  0  0  0  0
   57.0600   31.6080   44.4310 C   0  0  0  0  0  0  0  0  0  0  0  0
   56.8480   30.6710   43.4230 C   0  0  0  0  0  0  0  0  0  0  0  0
   57.3520   29.3820   43.5550 C   0  0  0  0  0  0  0  0  0  0  0  0
   58.0730   29.0240   44.6930 C   0  0  0  0  0  0  0  0  0  0  0  0
   58.3330   29.9640   45.7210 C   0  0  0  0  0  0  0  0  0  0  0  0
   59.0620   29.6280   46.8470 N   0  0  0  0  0  0  0  0  0  0  0  0
   59.8640   28.3850   46.8670 C   0  0  0  0  0  0  0  0  0  0  0  0
   59.0570   30.4660   47.9460 C   0  0  0  0  0  0  0  0  0  0  0  0
   59.5500   30.0450   49.2070 C   0  0  0  0  0  0  0  0  0  0  0  0
   59.6090   30.9250   50.2870 C   0  0  0  0  0  0  0  0  0  0  0  0
   59.1670   32.2370   50.1470 C   0  0  0  0  0  0  0  0  0  0  0  0
   59.2640   33.4410   51.6260 Br  0  0  0  0  0  0  0  0  0  0  0  0
   58.6370   32.6670   48.9320 C   0  0  0  0  0  0  0  0  0  0  0  0
   58.5550   31.7900   47.8300 C   0  0  0  0  0  0  0  0  0  0  0  0
   61.5270   33.6615   49.6546 H   0  0  0  0  0  0  0  0  0  0  0  0
   62.6147   34.6830   48.6545 H   0  0  0  0  0  0  0  0  0  0  0  0
   60.8446   34.9884   48.6545 H   0  0  0  0  0  0  0  0  0  0  0  0
   63.2383   32.3571   48.2460 H   0  0  0  0  0  0  0  0  0  0  0  0
   62.5610   31.6966   46.7190 H   0  0  0  0  0  0  0  0  0  0  0  0
   63.3881   33.2911   46.7190 H   0  0  0  0  0  0  0  0  0  0  0  0
   61.7562   34.6109   45.9656 H   0  0  0  0  0  0  0  0  0  0  0  0
   60.6385   33.2275   45.6407 H   0  0  0  0  0  0  0  0  0  0  0  0
   59.4682   34.6833   47.7727 H   0  0  0  0  0  0  0  0  0  0  0  0
   60.0447   35.9095   46.5514 H   0  0  0  0  0  0  0  0  0  0  0  0
   57.9581   35.5238   45.6962 H   0  0  0  0  0  0  0  0  0  0  0  0
   58.8746   34.1902   44.8733 H   0  0  0  0  0  0  0  0  0  0  0  0
   56.6870   33.8960   46.7790 H   0  0  0  0  0  0  0  0  0  0  0  0
   56.6402   32.6196   44.3294 H   0  0  0  0  0  0  0  0  0  0  0  0
   56.2818   30.9506   42.5223 H   0  0  0  0  0  0  0  0  0  0  0  0
   57.1813   28.6423   42.7589 H   0  0  0  0  0  0  0  0  0  0  0  0
   58.4465   27.9944   44.7948 H   0  0  0  0  0  0  0  0  0  0  0  0
   60.0552   28.0887   47.9090 H   0  0  0  0  0  0  0  0  0  0  0  0
   59.3119   27.5841   46.3535 H   0  0  0  0  0  0  0  0  0  0  0  0
   60.8213   28.5580   46.3535 H   0  0  0  0  0  0  0  0  0  0  0  0
   59.8915   29.0073   49.3354 H   0  0  0  0  0  0  0  0  0  0  0  0
   60.0064   30.5808   51.2532 H   0  0  0  0  0  0  0  0  0  0  0  0
   58.2785   33.7020   48.8310 H   0  0  0  0  0  0  0  0  0  0  0  0
  1  2  1  0
  2  3  1  0
  2  4  1  0
  4  5  1  0
  5  6  1  0
  6  7  1  0
  7  8  1  0
  8  9  2  0
  9 10  1  0
 10 11  2  0
 11 12  1  0
 12 13  2  0
 13 14  1  0
 14 15  2  0
 15 16  1  0
 15 17  1  0
 17 18  2  0
 18 19  1  0
 19 20  2  0
 20 21  1  0
 20 22  1  0
 22 23  2  0
 23  8  1  0
 14  9  1  0
 23 17  1  0
  1 24  1  0
  1 25  1  0
  1 26  1  0
  3 27  1  0
  3 28  1  0
  3 29  1  0
  4 30  1  0
  4 31  1  0
  5 32  1  0
  5 33  1  0
  6 34  1  0
  6 35  1  0
  7 36  1  0
 10 37  1  0
 11 38  1  0
 12 39  1  0
 13 40  1  0
 16 41  1  0
 16 42  1  0
 16 43  1  0
 18 44  1  0
 19 45  1  0
 22 46  1  0
M  CHG  1  15   1
M  END
>  <UniqueID>  (16) 
16

>  <SMILES>  (16) 
CN(C)CCCNc1c2ccccc2[n+](C)c2ccc(Br)cc12

>  <Energy>  (16) 
68.9130353939367

>  <Genealogy>  (16) 
CN(C)CCCNc1c2ccccc2[n+](C)c2ccc(Br)cc12 (3D coordinates assigned)
CN(C)CCCNc1c2ccccc2[n+](C)c2ccc(Br)cc12 (optimized conformer: 68.9130353939367 kcal/mol)

>  <smiles>  (16) 
CN(C)CCCNc1c2ccccc2[n+](C)c2ccc(Br)cc12

>  <score_type>  (16) 
oracle

>  <origin>  (16) 
adg

>  <m_score__min__energy>  (16) 
-6.0599999999999996

>  <m_primary>  (16) 
energy

$$$$
16:0
     RDKit          3D

 36 37  0  0  0  0  0  0  0  0999 V2000
   55.7950   24.9800   45.6320 C   0  0  0  0  0  0  0  0  0  0  0  0
   56.2680   26.2660   46.3080 C   0  0  0  0  0  0  0  0  0  0  0  0
   57.4060   26.8580   45.5660 N   0  0  0  0  0  0  0  0  0  0  0  0
   57.8130   25.9690   44.4590 C   0  0  0  0  0  0  0  0  0  0  0  0
   58.5450   27.1160   46.4780 C   0  0  0  0  0  0  0  0  0  0  0  0
   58.8340   28.6160   46.6070 C   0  0  0  0  0  0  0  0  0  0  0  0
   59.3030   29.3190   44.9840 S   0  0  0  0  0  0  0  0  0  0  0  0
   57.6590   29.9350   44.5910 C   0  0  0  0  0  0  0  0  0  0  0  0
   56.6420   29.1550   44.1930 N   0  0  0  0  0  0  0  0  0  0  0  0
   55.5750   29.9340   44.1340 N   0  0  0  0  0  0  0  0  0  0  0  0
   55.9140   31.1640   44.4920 N   0  0  0  0  0  0  0  0  0  0  0  0
   57.2080   31.1940   44.7760 N   0  0  0  0  0  0  0  0  0  0  0  0
   57.8910   32.3480   45.2960 C   0  0  0  0  0  0  0  0  0  0  0  0
   58.1970   32.4610   46.6640 C   0  0  0  0  0  0  0  0  0  0  0  0
   58.8750   33.5840   47.1460 C   0  0  0  0  0  0  0  0  0  0  0  0
   59.2640   34.5990   46.2690 C   0  0  0  0  0  0  0  0  0  0  0  0
   58.9830   34.4880   44.9050 C   0  0  0  0  0  0  0  0  0  0  0  0
   58.3060   33.3650   44.4190 C   0  0  0  0  0  0  0  0  0  0  0  0
   55.5231   24.2408   46.3998 H   0  0  0  0  0  0  0  0  0  0  0  0
   54.9177   25.1967   45.0047 H   0  0  0  0  0  0  0  0  0  0  0  0
   56.6036   24.5767   45.0047 H   0  0  0  0  0  0  0  0  0  0  0  0
   55.4381   26.9876   46.3327 H   0  0  0  0  0  0  0  0  0  0  0  0
   56.5968   26.0285   47.3305 H   0  0  0  0  0  0  0  0  0  0  0  0
   58.2376   25.0415   44.8707 H   0  0  0  0  0  0  0  0  0  0  0  0
   56.9356   25.7278   43.8409 H   0  0  0  0  0  0  0  0  0  0  0  0
   58.5689   26.4756   43.8409 H   0  0  0  0  0  0  0  0  0  0  0  0
   58.3052   26.7116   47.4724 H   0  0  0  0  0  0  0  0  0  0  0  0
   59.4380   26.6275   46.0610 H   0  0  0  0  0  0  0  0  0  0  0  0
   57.9333   29.1279   46.9768 H   0  0  0  0  0  0  0  0  0  0  0  0
   59.6669   28.7590   47.3112 H   0  0  0  0  0  0  0  0  0  0  0  0
   56.6520   28.1290   44.0010 H   0  0  0  0  0  0  0  0  0  0  0  0
   57.9010   31.6610   47.3585 H   0  0  0  0  0  0  0  0  0  0  0  0
   59.1029   33.6687   48.2188 H   0  0  0  0  0  0  0  0  0  0  0  0
   59.7913   35.4852   46.6520 H   0  0  0  0  0  0  0  0  0  0  0  0
   59.2944   35.2843   44.2130 H   0  0  0  0  0  0  0  0  0  0  0  0
   58.0968   33.2769   43.3427 H   0  0  0  0  0  0  0  0  0  0  0  0
  1  2  1  0
  2  3  1  0
  3  4  1  0
  3  5  1  0
  5  6  1  0
  6  7  1  0
  7  8  1  0
  8  9  2  0
  9 10  1  0
 10 11  2  0
 11 12  1  0
 12 13  1  0
 13 14  2  0
 14 15  1  0
 15 16  2  0
 16 17  1  0
 17 18  2  0
 12  8  1  0
 18 13  1  0
  1 19  1  0
  1 20  1  0
  1 21  1  0
  2 22  1  0
  2 23  1  0
  4 24  1  0
  4 25  1  0
  4 26  1  0
  5 27  1  0
  5 28  1  0
  6 29  1  0
  6 30  1  0
  9 31  1  0
 14 32  1  0
 15 33  1  0
 16 34  1  0
 17 35  1  0
 18 36  1  0
M  CHG  1   9   1
M  END
>  <UniqueID>  (17) 
17

>  <SMILES>  (17) 
CCN(C)CCSc1[nH+]nnn1-c1ccccc1

>  <Energy>  (17) 
78.32702483053599

>  <Genealogy>  (17) 
CCN(C)CCSc1[nH+]nnn1-c1ccccc1 (protonated)
CCN(C)CCSc1[nH+]nnn1-c1ccccc1 (3D coordinates assigned)
CCN(C)CCSc1[nH+]nnn1-c1ccccc1 (optimized conformer: 78.32702483053599 kcal/mol)

>  <smiles>  (17) 
CCN(C)CCSc1nnnn1-c1ccccc1

>  <score_type>  (17) 
oracle

>  <origin>  (17) 
adg

>  <m_score__min__energy>  (17) 
-5.2400000000000002

>  <m_primary>  (17) 
energy

$$$$
17:0
     RDKit          3D

 70 72  0  0  0  0  0  0  0  0999 V2000
   63.3800   32.8820   47.1230 C   0  0  0  0  0  0  0  0  0  0  0  0
   63.0480   32.2680   48.4870 C   0  0  0  0  0  0  0  0  0  0  0  0
   62.0890   33.1060   49.2570 N   0  0  1  0  0  0  0  0  0  0  0  0
   62.7560   33.8210   50.3620 C   0  0  0  0  0  0  0  0  0  0  0  0
   61.2710   34.0060   48.3970 C   0  0  0  0  0  0  0  0  0  0  0  0
   59.7410   34.0060   48.6360 C   0  0  0  0  0  0  0  0  0  0  0  0
   59.1840   32.6650   48.8320 N   0  0  0  0  0  0  0  0  0  0  0  0
   59.3770   31.6310   47.8460 C   0  0  0  0  0  0  0  0  0  0  0  0
   58.8880   31.8240   46.5370 C   0  0  0  0  0  0  0  0  0  0  0  0
   58.2160   33.0120   46.1830 C   0  0  0  0  0  0  0  0  0  0  0  0
   57.7170   33.2010   44.8980 C   0  0  0  0  0  0  0  0  0  0  0  0
   57.8490   32.1930   43.9360 C   0  0  0  0  0  0  0  0  0  0  0  0
   57.3420   32.3260   42.6330 O   0  0  0  0  0  0  0  0  0  0  0  0
   58.1440   32.3500   41.4560 C   0  0  0  0  0  0  0  0  0  0  0  0
   58.4950   31.0030   44.2770 C   0  0  0  0  0  0  0  0  0  0  0  0
   59.0430   30.7990   45.5710 C   0  0  0  0  0  0  0  0  0  0  0  0
   59.6780   29.6220   45.9070 N   0  0  0  0  0  0  0  0  0  0  0  0
   60.0830   28.6690   44.8480 C   0  0  0  0  0  0  0  0  0  0  0  0
   59.9540   29.3390   47.2300 C   0  0  0  0  0  0  0  0  0  0  0  0
   60.2750   28.0260   47.6420 C   0  0  0  0  0  0  0  0  0  0  0  0
   60.6070   27.7450   48.9600 C   0  0  0  0  0  0  0  0  0  0  0  0
   60.6870   28.7700   49.9070 C   0  0  0  0  0  0  0  0  0  0  0  0
   61.0240   28.5040   51.2440 O   0  0  0  0  0  0  0  0  0  0  0  0
   61.1450   27.2040   51.8100 C   0  0  0  0  0  0  0  0  0  0  0  0
   60.4100   30.0950   49.5180 C   0  0  0  0  0  0  0  0  0  0  0  0
   60.6710   31.1520   50.4050 O   0  0  0  0  0  0  0  0  0  0  0  0
   60.2040   31.2140   51.7590 C   0  0  0  0  0  0  0  0  0  0  0  0
   60.0770   32.6650   52.2490 C   0  0  0  0  0  0  0  0  0  0  0  0
   58.8340   33.2870   51.7420 N   0  0  0  0  0  0  0  0  0  0  0  0
   57.7080   32.3430   51.8150 C   0  0  0  0  0  0  0  0  0  0  0  0
   58.5070   34.5140   52.4860 C   0  0  0  0  0  0  0  0  0  0  0  0
   59.9060   30.3660   48.2120 C   0  0  0  0  0  0  0  0  0  0  0  0
   63.8986   33.8410   47.2690 H   0  0  0  0  0  0  0  0  0  0  0  0
   64.0299   32.1957   46.5604 H   0  0  0  0  0  0  0  0  0  0  0  0
   62.4498   33.0501   46.5604 H   0  0  0  0  0  0  0  0  0  0  0  0
   62.6045   31.2736   48.3304 H   0  0  0  0  0  0  0  0  0  0  0  0
   63.9811   32.2008   49.0656 H   0  0  0  0  0  0  0  0  0  0  0  0
   61.3920   32.4650   49.7090 H   0  0  0  0  0  0  0  0  0  0  0  0
   62.3920   33.4308   51.3239 H   0  0  0  0  0  0  0  0  0  0  0  0
   63.8434   33.6700   50.2930 H   0  0  0  0  0  0  0  0  0  0  0  0
   62.5299   34.8953   50.2930 H   0  0  0  0  0  0  0  0  0  0  0  0
   61.6316   35.0333   48.5541 H   0  0  0  0  0  0  0  0  0  0  0  0
   61.4008   33.6207   47.3749 H   0  0  0  0  0  0  0  0  0  0  0  0
   59.5279   34.6068   49.5324 H   0  0  0  0  0  0  0  0  0  0  0  0
   59.2708   34.4250   47.7341 H   0  0  0  0  0  0  0  0  0  0  0  0
   58.9710   32.3510   49.8000 H   0  0  0  0  0  0  0  0  0  0  0  0
   58.0840   33.8031   46.9358 H   0  0  0  0  0  0  0  0  0  0  0  0
   57.2172   34.1456   44.6373 H   0  0  0  0  0  0  0  0  0  0  0  0
   59.2070   32.3818   41.7372 H   0  0  0  0  0  0  0  0  0  0  0  0
   57.9490   31.4456   40.8610 H   0  0  0  0  0  0  0  0  0  0  0  0
   57.8953   33.2411   40.8610 H   0  0  0  0  0  0  0  0  0  0  0  0
   58.5815   30.2046   43.5253 H   0  0  0  0  0  0  0  0  0  0  0  0
   60.4733   27.7506   45.3109 H   0  0  0  0  0  0  0  0  0  0  0  0
   59.2117   28.4230   44.2233 H   0  0  0  0  0  0  0  0  0  0  0  0
   60.8648   29.1256   44.2233 H   0  0  0  0  0  0  0  0  0  0  0  0
   60.2615   27.2107   46.9037 H   0  0  0  0  0  0  0  0  0  0  0  0
   60.8089   26.7067   49.2619 H   0  0  0  0  0  0  0  0  0  0  0  0
   61.1379   27.2798   52.9074 H   0  0  0  0  0  0  0  0  0  0  0  0
   60.3010   26.5804   51.4801 H   0  0  0  0  0  0  0  0  0  0  0  0
   62.0896   26.7469   51.4801 H   0  0  0  0  0  0  0  0  0  0  0  0
   59.2182   30.7297   51.8189 H   0  0  0  0  0  0  0  0  0  0  0  0
   60.9353   30.6982   52.3986 H   0  0  0  0  0  0  0  0  0  0  0  0
   60.0613   32.6736   53.3489 H   0  0  0  0  0  0  0  0  0  0  0  0
   60.9362   33.2394   51.8724 H   0  0  0  0  0  0  0  0  0  0  0  0
   57.4668   32.1408   52.8690 H   0  0  0  0  0  0  0  0  0  0  0  0
   56.8306   32.7795   51.3153 H   0  0  0  0  0  0  0  0  0  0  0  0
   57.9847   31.4029   51.3153 H   0  0  0  0  0  0  0  0  0  0  0  0
   58.5605   34.3131   53.5662 H   0  0  0  0  0  0  0  0  0  0  0  0
   59.2259   35.3043   52.2240 H   0  0  0  0  0  0  0  0  0  0  0  0
   57.4902   34.8417   52.2240 H   0  0  0  0  0  0  0  0  0  0  0  0
  1  2  1  0
  2  3  1  0
  3  4  1  0
  3  5  1  0
  5  6  1  0
  6  7  1  0
  7  8  1  0
  8  9  2  0
  9 10  1  0
 10 11  2  0
 11 12  1  0
 12 13  1  0
 13 14  1  0
 12 15  2  0
 15 16  1  0
 16 17  2  0
 17 18  1  0
 17 19  1  0
 19 20  2  0
 20 21  1  0
 21 22  2  0
 22 23  1  0
 23 24  1  0
 22 25  1  0
 25 26  1  0
 26 27  1  0
 27 28  1  0
 28 29  1  0
 29 30  1  0
 29 31  1  0
 25 32  2  0
 32  8  1  0
 16  9  1  0
 32 19  1  0
  1 33  1  0
  1 34  1  0
  1 35  1  0
  2 36  1  0
  2 37  1  0
  3 38  1  1
  4 39  1  0
  4 40  1  0
  4 41  1  0
  5 42  1  0
  5 43  1  0
  6 44  1  0
  6 45  1  0
  7 46  1  0
 10 47  1  0
 11 48  1  0
 14 49  1  0
 14 50  1  0
 14 51  1  0
 15 52  1  0
 18 53  1  0
 18 54  1  0
 18 55  1  0
 20 56  1  0
 21 57  1  0
 24 58  1  0
 24 59  1  0
 24 60  1  0
 27 61  1  0
 27 62  1  0
 28 63  1  0
 28 64  1  0
 30 65  1  0
 30 66  1  0
 30 67  1  0
 31 68  1  0
 31 69  1  0
 31 70  1  0
M  CHG  2   3   1  17   1
M  END
>  <UniqueID>  (18) 
18

>  <SMILES>  (18) 
CC[N@@H+](C)CCNc1c2ccc(OC)cc2[n+](C)c2ccc(OC)c(OCCN(C)C)c12

>  <Energy>  (18) 
107.75730835546443

>  <Genealogy>  (18) 
CC[NH+](C)CCNc1c2ccc(OC)cc2[n+](C)c2ccc(OC)c(OCCN(C)C)c12 (protonated)
CC[N@@H+](C)CCNc1c2ccc(OC)cc2[n+](C)c2ccc(OC)c(OCCN(C)C)c12 (chirality)
CC[N@@H+](C)CCNc1c2ccc(OC)cc2[n+](C)c2ccc(OC)c(OCCN(C)C)c12 (3D coordinates assigned)
CC[N@@H+](C)CCNc1c2ccc(OC)cc2[n+](C)c2ccc(OC)c(OCCN(C)C)c12 (optimized conformer: 107.75730835546443 kcal/mol)

>  <smiles>  (18) 
CCN(C)CCNc1c2ccc(OC)cc2[n+](C)c2ccc(OC)c(OCCN(C)C)c12

>  <score_type>  (18) 
oracle

>  <origin>  (18) 
adg

>  <m_score__min__energy>  (18) 
-2.8500000000000001

>  <m_primary>  (18) 
energy

$$$$
18:0
     RDKit          3D

 55 58  0  0  0  0  0  0  0  0999 V2000
   59.2170   29.6810   48.7180 C   0  0  0  0  0  0  0  0  0  0  0  0
   59.9330   30.8090   49.2080 O   0  0  0  0  0  0  0  0  0  0  0  0
   59.4790   31.6660   50.2230 C   0  0  0  0  0  0  0  0  0  0  0  0
   58.1420   31.6280   50.6630 C   0  0  0  0  0  0  0  0  0  0  0  0
   57.6880   32.5230   51.6300 C   0  0  0  0  0  0  0  0  0  0  0  0
   58.5610   33.4580   52.1820 C   0  0  0  0  0  0  0  0  0  0  0  0
   59.8940   33.4980   51.7720 C   0  0  0  0  0  0  0  0  0  0  0  0
   60.3760   32.6030   50.7970 C   0  0  0  0  0  0  0  0  0  0  0  0
   61.7650   32.6690   50.3940 N   0  0  0  0  0  0  0  0  0  0  0  0
   62.5500   31.4680   50.1020 C   0  0  0  0  0  0  0  0  0  0  0  0
   63.0470   31.5640   48.6580 C   0  0  0  0  0  0  0  0  0  0  0  0
   63.7710   32.8380   48.3710 N   0  0  0  0  0  0  0  0  0  0  0  0
   63.3670   33.3790   47.0770 C   0  0  0  0  0  0  0  0  0  0  0  0
   64.0590   33.1390   46.0970 O   0  0  0  0  0  0  0  0  0  0  0  0
   62.0880   34.1530   46.8580 C   0  0  0  0  0  0  0  0  0  0  0  0
   61.0030   33.5650   47.6350 N   0  0  0  0  0  0  0  0  0  0  0  0
   59.6240   33.8090   47.3270 C   0  0  0  0  0  0  0  0  0  0  0  0
   58.9320   34.5510   48.0790 O   0  0  0  0  0  0  0  0  0  0  0  0
   58.9980   33.1700   46.1540 C   0  0  0  0  0  0  0  0  0  0  0  0
   59.0900   33.7770   44.8860 C   0  0  0  0  0  0  0  0  0  0  0  0
   58.4890   33.1840   43.7720 C   0  0  0  0  0  0  0  0  0  0  0  0
   57.8080   31.9740   43.9120 C   0  0  0  0  0  0  0  0  0  0  0  0
   57.7510   31.3390   45.1590 C   0  0  0  0  0  0  0  0  0  0  0  0
   58.3200   31.9470   46.2840 C   0  0  0  0  0  0  0  0  0  0  0  0
   57.1160   30.0980   45.2600 O   0  0  0  0  0  0  0  0  0  0  0  0
   56.7480   29.3560   44.0950 C   0  0  0  0  0  0  0  0  0  0  0  0
   56.2480   30.3040   42.9990 C   0  0  0  0  0  0  0  0  0  0  0  0
   57.1700   31.3820   42.8180 O   0  0  0  0  0  0  0  0  0  0  0  0
   63.7770   33.8310   49.4820 C   0  0  0  0  0  0  0  0  0  0  0  0
   62.4210   33.9690   50.2130 C   0  0  0  0  0  0  0  0  0  0  0  0
   58.8411   29.0889   49.5654 H   0  0  0  0  0  0  0  0  0  0  0  0
   58.3699   30.0224   48.1049 H   0  0  0  0  0  0  0  0  0  0  0  0
   59.8865   29.0598   48.1049 H   0  0  0  0  0  0  0  0  0  0  0  0
   57.4497   30.8853   50.2397 H   0  0  0  0  0  0  0  0  0  0  0  0
   56.6385   32.4911   51.9580 H   0  0  0  0  0  0  0  0  0  0  0  0
   58.1988   34.1657   52.9422 H   0  0  0  0  0  0  0  0  0  0  0  0
   60.5769   34.2375   52.2156 H   0  0  0  0  0  0  0  0  0  0  0  0
   63.4076   31.4072   50.7882 H   0  0  0  0  0  0  0  0  0  0  0  0
   61.9318   30.5676   50.2331 H   0  0  0  0  0  0  0  0  0  0  0  0
   63.7292   30.7228   48.4660 H   0  0  0  0  0  0  0  0  0  0  0  0
   62.1628   31.5349   48.0043 H   0  0  0  0  0  0  0  0  0  0  0  0
   64.7810   32.5780   48.2530 H   0  0  0  0  0  0  0  0  0  0  0  0
   62.2364   35.1964   47.1732 H   0  0  0  0  0  0  0  0  0  0  0  0
   61.8252   34.1164   45.7905 H   0  0  0  0  0  0  0  0  0  0  0  0
   59.6383   34.7237   44.7719 H   0  0  0  0  0  0  0  0  0  0  0  0
   58.5527   33.6700   42.7872 H   0  0  0  0  0  0  0  0  0  0  0  0
   58.2361   31.4668   47.2701 H   0  0  0  0  0  0  0  0  0  0  0  0
   57.6238   28.8028   43.7250 H   0  0  0  0  0  0  0  0  0  0  0  0
   55.9428   28.6536   44.3565 H   0  0  0  0  0  0  0  0  0  0  0  0
   56.1498   29.7479   42.0550 H   0  0  0  0  0  0  0  0  0  0  0  0
   55.2719   30.7138   43.2977 H   0  0  0  0  0  0  0  0  0  0  0  0
   64.5356   33.5229   50.2166 H   0  0  0  0  0  0  0  0  0  0  0  0
   63.9953   34.8103   49.0310 H   0  0  0  0  0  0  0  0  0  0  0  0
   62.5933   34.4215   51.2007 H   0  0  0  0  0  0  0  0  0  0  0  0
   61.7636   34.6011   49.5979 H   0  0  0  0  0  0  0  0  0  0  0  0
  1  2  1  0
  2  3  1  0
  3  4  2  0
  4  5  1  0
  5  6  2  0
  6  7  1  0
  7  8  2  0
  8  9  1  0
  9 10  1  0
 10 11  1  0
 11 12  1  0
 12 13  1  0
 13 14  2  0
 13 15  1  0
 15 16  1  0
 16 17  1  0
 17 18  2  0
 17 19  1  0
 19 20  2  0
 20 21  1  0
 21 22  2  0
 22 23  1  0
 23 24  2  0
 23 25  1  0
 25 26  1  0
 26 27  1  0
 27 28  1  0
 12 29  1  0
 29 30  1  0
  8  3  1  0
 30  9  1  0
 24 19  1  0
 28 22  1  0
  1 31  1  0
  1 32  1  0
  1 33  1  0
  4 34  1  0
  5 35  1  0
  6 36  1  0
  7 37  1  0
 10 38  1  0
 10 39  1  0
 11 40  1  0
 11 41  1  0
 12 42  1  0
 15 43  1  0
 15 44  1  0
 20 45  1  0
 21 46  1  0
 24 47  1  0
 26 48  1  0
 26 49  1  0
 27 50  1  0
 27 51  1  0
 29 52  1  0
 29 53  1  0
 30 54  1  0
 30 55  1  0
M  CHG  2  12   1  16  -1
M  END
>  <UniqueID>  (19) 
19

>  <SMILES>  (19) 
COc1ccccc1N1CC[NH+](C(=O)C[N-]C(=O)c2ccc3c(c2)OCCO3)CC1

>  <Energy>  (19) 
69.87940417844088

>  <Genealogy>  (19) 
COc1ccccc1N1CC[NH+](C(=O)C[N-]C(=O)c2ccc3c(c2)OCCO3)CC1 (protonated)
COc1ccccc1N1CC[NH+](C(=O)C[N-]C(=O)c2ccc3c(c2)OCCO3)CC1 (3D coordinates assigned)
COc1ccccc1N1CC[NH+](C(=O)C[N-]C(=O)c2ccc3c(c2)OCCO3)CC1 (nonaromatic ring conformer: 69.87940417844088 kcal/mol)

>  <smiles>  (19) 
COc1ccccc1N1CCN(C(=O)CNC(=O)c2ccc3c(c2)OCCO3)CC1

>  <score_type>  (19) 
oracle

>  <origin>  (19) 
adg

>  <m_score__min__energy>  (19) 
-7.8700000000000001

>  <m_primary>  (19) 
energy

$$$$
19:0
     RDKit          3D

 52 55  0  0  0  0  0  0  0  0999 V2000
   59.5900   33.4650   50.3920 C   0  0  0  0  0  0  0  0  0  0  0  0
   58.7800   32.2710   49.8960 C   0  0  0  0  0  0  0  0  0  0  0  0
   59.6630   31.0880   49.7620 N   0  0  0  0  0  0  0  0  0  0  0  0
   60.6940   31.0830   50.8130 C   0  0  0  0  0  0  0  0  0  0  0  0
   58.9000   29.8200   49.7830 C   0  0  0  0  0  0  0  0  0  0  0  0
   58.9180   29.1520   48.4010 C   0  0  0  0  0  0  0  0  0  0  0  0
   60.3340   28.7210   47.9940 C   0  0  0  0  0  0  0  0  0  0  0  0
   60.7760   29.4470   46.8030 N   0  0  0  0  0  0  0  0  0  0  0  0
   60.5130   30.8500   46.6560 C   0  0  0  0  0  0  0  0  0  0  0  0
   61.3760   31.8010   47.2500 C   0  0  0  0  0  0  0  0  0  0  0  0
   62.5980   31.3980   47.8300 C   0  0  0  0  0  0  0  0  0  0  0  0
   63.4470   32.3300   48.4220 C   0  0  0  0  0  0  0  0  0  0  0  0
   63.1020   33.6770   48.4400 C   0  0  0  0  0  0  0  0  0  0  0  0
   61.9070   34.1060   47.8630 C   0  0  0  0  0  0  0  0  0  0  0  0
   61.0160   33.1830   47.2580 C   0  0  0  0  0  0  0  0  0  0  0  0
   59.8250   33.5950   46.6910 N   0  0  0  0  0  0  0  0  0  0  0  0
   59.4090   35.0100   46.7500 C   0  0  0  0  0  0  0  0  0  0  0  0
   59.0400   32.6680   46.0570 C   0  0  0  0  0  0  0  0  0  0  0  0
   57.5770   32.9520   45.2520 S   0  0  0  0  0  0  0  0  0  0  0  0
   57.3420   31.3530   44.8110 C   0  0  0  0  0  0  0  0  0  0  0  0
   56.2810   30.8410   44.0690 C   0  0  0  0  0  0  0  0  0  0  0  0
   56.2800   29.4740   43.7680 C   0  0  0  0  0  0  0  0  0  0  0  0
   57.3330   28.6530   44.2060 C   0  0  0  0  0  0  0  0  0  0  0  0
   58.3960   29.1900   44.9500 C   0  0  0  0  0  0  0  0  0  0  0  0
   58.3930   30.5610   45.2720 C   0  0  0  0  0  0  0  0  0  0  0  0
   59.3580   31.3070   46.0000 C   0  0  0  0  0  0  0  0  0  0  0  0
   59.5954   33.4729   51.4920 H   0  0  0  0  0  0  0  0  0  0  0  0
   60.6226   33.3872   50.0208 H   0  0  0  0  0  0  0  0  0  0  0  0
   59.1361   34.3957   50.0208 H   0  0  0  0  0  0  0  0  0  0  0  0
   57.9782   32.0490   50.6156 H   0  0  0  0  0  0  0  0  0  0  0  0
   58.3415   32.5106   48.9160 H   0  0  0  0  0  0  0  0  0  0  0  0
   60.2104   31.0853   51.8010 H   0  0  0  0  0  0  0  0  0  0  0  0
   61.3166   30.1818   50.7116 H   0  0  0  0  0  0  0  0  0  0  0  0
   61.3253   31.9781   50.7116 H   0  0  0  0  0  0  0  0  0  0  0  0
   59.3521   29.1389   50.5190 H   0  0  0  0  0  0  0  0  0  0  0  0
   57.8572   30.0396   50.0557 H   0  0  0  0  0  0  0  0  0  0  0  0
   58.2691   28.2641   48.4263 H   0  0  0  0  0  0  0  0  0  0  0  0
   58.5582   29.8840   47.6629 H   0  0  0  0  0  0  0  0  0  0  0  0
   61.0269   28.9309   48.8222 H   0  0  0  0  0  0  0  0  0  0  0  0
   60.3234   27.6447   47.7671 H   0  0  0  0  0  0  0  0  0  0  0  0
   61.4550   28.9940   46.1500 H   0  0  0  0  0  0  0  0  0  0  0  0
   62.8831   30.3357   47.8143 H   0  0  0  0  0  0  0  0  0  0  0  0
   64.3927   31.9997   48.8764 H   0  0  0  0  0  0  0  0  0  0  0  0
   63.7751   34.4079   48.9118 H   0  0  0  0  0  0  0  0  0  0  0  0
   61.6517   35.1759   47.8773 H   0  0  0  0  0  0  0  0  0  0  0  0
   59.3174   35.3217   47.8009 H   0  0  0  0  0  0  0  0  0  0  0  0
   60.1615   35.6347   46.2465 H   0  0  0  0  0  0  0  0  0  0  0  0
   58.4381   35.1281   46.2465 H   0  0  0  0  0  0  0  0  0  0  0  0
   55.4643   31.4942   43.7280 H   0  0  0  0  0  0  0  0  0  0  0  0
   55.4524   29.0411   43.1868 H   0  0  0  0  0  0  0  0  0  0  0  0
   57.3245   27.5800   43.9639 H   0  0  0  0  0  0  0  0  0  0  0  0
   59.2243   28.5451   45.2786 H   0  0  0  0  0  0  0  0  0  0  0  0
  1  2  1  0
  2  3  1  0
  3  4  1  0
  3  5  1  0
  5  6  1  0
  6  7  1  0
  7  8  1  0
  8  9  1  0
  9 10  2  0
 10 11  1  0
 11 12  2  0
 12 13  1  0
 13 14  2  0
 14 15  1  0
 15 16  2  0
 16 17  1  0
 16 18  1  0
 18 19  1  0
 19 20  1  0
 20 21  2  0
 21 22  1  0
 22 23  2  0
 23 24  1  0
 24 25  2  0
 25 26  1  0
 26  9  1  0
 15 10  1  0
 26 18  2  0
 25 20  1  0
  1 27  1  0
  1 28  1  0
  1 29  1  0
  2 30  1  0
  2 31  1  0
  4 32  1  0
  4 33  1  0
  4 34  1  0
  5 35  1  0
  5 36  1  0
  6 37  1  0
  6 38  1  0
  7 39  1  0
  7 40  1  0
  8 41  1  0
 11 42  1  0
 12 43  1  0
 13 44  1  0
 14 45  1  0
 17 46  1  0
 17 47  1  0
 17 48  1  0
 21 49  1  0
 22 50  1  0
 23 51  1  0
 24 52  1  0
M  CHG  1  16   1
M  END
>  <UniqueID>  (20) 
20

>  <SMILES>  (20) 
CCN(C)CCCNc1c2ccccc2[n+](C)c2sc3ccccc3c12

>  <Energy>  (20) 
105.70752120407101

>  <Genealogy>  (20) 
CCN(C)CCCNc1c2ccccc2[n+](C)c2sc3ccccc3c12 (3D coordinates assigned)
CCN(C)CCCNc1c2ccccc2[n+](C)c2sc3ccccc3c12 (optimized conformer: 105.70752120407101 kcal/mol)

>  <smiles>  (20) 
CCN(C)CCCNc1c2ccccc2[n+](C)c2sc3ccccc3c12

>  <score_type>  (20) 
oracle

>  <origin>  (20) 
adg

>  <m_score__min__energy>  (20) 
-6.4800000000000004

>  <m_primary>  (20) 
energy

$$$$
20:0
     RDKit          3D

 41 44  0  0  0  0  0  0  0  0999 V2000
   62.8190   33.8410   46.3700 C   0  0  0  0  0  0  0  0  0  0  0  0
   63.6110   32.8200   47.1800 C   0  0  0  0  0  0  0  0  0  0  0  0
   63.9640   33.3750   48.5020 N   0  0  0  0  0  0  0  0  0  0  0  0
   64.5860   32.3770   49.3900 C   0  0  0  0  0  0  0  0  0  0  0  0
   62.8680   34.1360   49.1490 C   0  0  0  0  0  0  0  0  0  0  0  0
   61.7940   33.2810   49.8730 C   0  0  0  0  0  0  0  0  0  0  0  0
   60.3530   33.7840   49.7180 C   0  0  0  0  0  0  0  0  0  0  0  0
   59.7510   33.2880   48.4880 N   0  0  0  0  0  0  0  0  0  0  0  0
   59.4270   33.8330   47.2750 C   0  0  0  0  0  0  0  0  0  0  0  0
   59.4060   34.9560   46.4750 C   0  0  0  0  0  0  0  0  0  0  0  0
   58.9040   34.9060   45.1350 C   0  0  0  0  0  0  0  0  0  0  0  0
   58.3600   33.8150   44.3560 C   0  0  0  0  0  0  0  0  0  0  0  0
   58.1570   32.4340   44.6910 C   0  0  0  0  0  0  0  0  0  0  0  0
   57.6170   31.4940   43.7830 C   0  0  0  0  0  0  0  0  0  0  0  0
   57.4460   30.1300   44.1610 C   0  0  0  0  0  0  0  0  0  0  0  0
   57.8100   29.6740   45.4530 C   0  0  0  0  0  0  0  0  0  0  0  0
   58.3390   30.6020   46.3480 C   0  0  0  0  0  0  0  0  0  0  0  0
   58.9140   30.4130   48.0060 S   0  0  0  0  0  0  0  0  0  0  0  0
   59.3010   32.0650   48.0450 C   0  0  0  0  0  0  0  0  0  0  0  0
   58.9940   32.6070   46.9010 C   0  0  0  0  0  0  0  0  0  0  0  0
   58.4780   31.9190   45.9250 C   0  0  0  0  0  0  0  0  0  0  0  0
   62.2910   34.5217   47.0540 H   0  0  0  0  0  0  0  0  0  0  0  0
   63.5071   34.4194   45.7359 H   0  0  0  0  0  0  0  0  0  0  0  0
   62.0877   33.3184   45.7359 H   0  0  0  0  0  0  0  0  0  0  0  0
   63.0014   31.9148   47.3178 H   0  0  0  0  0  0  0  0  0  0  0  0
   64.5357   32.5735   46.6376 H   0  0  0  0  0  0  0  0  0  0  0  0
   64.4102   32.6591   50.4386 H   0  0  0  0  0  0  0  0  0  0  0  0
   64.1438   31.3884   49.1971 H   0  0  0  0  0  0  0  0  0  0  0  0
   65.6683   32.3385   49.1971 H   0  0  0  0  0  0  0  0  0  0  0  0
   63.3178   34.8129   49.8903 H   0  0  0  0  0  0  0  0  0  0  0  0
   62.3407   34.6549   48.3349 H   0  0  0  0  0  0  0  0  0  0  0  0
   61.8437   32.2584   49.4708 H   0  0  0  0  0  0  0  0  0  0  0  0
   62.0265   33.3395   50.9466 H   0  0  0  0  0  0  0  0  0  0  0  0
   59.7574   33.4358   50.5747 H   0  0  0  0  0  0  0  0  0  0  0  0
   60.3703   34.8832   49.6785 H   0  0  0  0  0  0  0  0  0  0  0  0
   59.7825   35.9093   46.8743 H   0  0  0  0  0  0  0  0  0  0  0  0
   58.9380   35.8683   44.6032 H   0  0  0  0  0  0  0  0  0  0  0  0
   58.0502   34.0896   43.3369 H   0  0  0  0  0  0  0  0  0  0  0  0
   57.3255   31.8190   42.7733 H   0  0  0  0  0  0  0  0  0  0  0  0
   57.0237   29.4181   43.4365 H   0  0  0  0  0  0  0  0  0  0  0  0
   57.6789   28.6203   45.7402 H   0  0  0  0  0  0  0  0  0  0  0  0
  1  2  1  0
  2  3  1  0
  3  4  1  0
  3  5  1  0
  5  6  1  0
  6  7  1  0
  7  8  1  0
  8  9  1  0
  9 10  2  0
 10 11  1  0
 11 12  2  0
 12 13  1  0
 13 14  1  0
 14 15  2  0
 15 16  1  0
 16 17  2  0
 17 18  1  0
 18 19  1  0
 19 20  2  0
 20 21  1  0
 19  8  1  0
 20  9  1  0
 21 13  2  0
 21 17  1  0
  1 22  1  0
  1 23  1  0
  1 24  1  0
  2 25  1  0
  2 26  1  0
  4 27  1  0
  4 28  1  0
  4 29  1  0
  5 30  1  0
  5 31  1  0
  6 32  1  0
  6 33  1  0
  7 34  1  0
  7 35  1  0
 10 36  1  0
 11 37  1  0
 12 38  1  0
 14 39  1  0
 15 40  1  0
 16 41  1  0
M  END
>  <UniqueID>  (21) 
21

>  <SMILES>  (21) 
CCN(C)CCCn1c2cccc3cccc4sc1c-2c34

>  <Energy>  (21) 
156.68750047231356

>  <Genealogy>  (21) 
CCN(C)CCCn1c2cccc3cccc4sc1c-2c34 (3D coordinates assigned)
CCN(C)CCCn1c2cccc3cccc4sc1c-2c34 (optimized conformer: 156.68750047231356 kcal/mol)

>  <smiles>  (21) 
CCN(C)CCCn1c2cccc3cccc4sc1c-2c34

>  <score_type>  (21) 
oracle

>  <origin>  (21) 
adg

>  <m_score__min__energy>  (21) 
-7.0300000000000002

>  <m_primary>  (21) 
energy

$$$$
21:0
     RDKit          3D

 38 40  0  0  0  0  0  0  0  0999 V2000
   57.8650   22.2140   44.2520 C   0  0  0  0  0  0  0  0  0  0  0  0
   56.8100   22.3950   43.3650 C   0  0  0  0  0  0  0  0  0  0  0  0
   56.3690   24.0190   43.3910 S   0  0  0  0  0  0  0  0  0  0  0  0
   57.5000   24.4940   44.5410 C   0  0  0  0  0  0  0  0  0  0  0  0
   57.7230   25.9010   45.0050 C   0  0  0  0  0  0  0  0  0  0  0  0
   57.7910   26.8150   43.8580 N   0  0  0  0  0  0  0  0  0  0  0  0
   57.9180   28.1760   44.3180 C   0  0  0  0  0  0  0  0  0  0  0  0
   59.1820   28.7340   44.5620 C   0  0  0  0  0  0  0  0  0  0  0  0
   59.2940   30.0620   44.9770 C   0  0  0  0  0  0  0  0  0  0  0  0
   58.1330   30.8370   45.1470 C   0  0  0  0  0  0  0  0  0  0  0  0
   58.2030   32.2180   45.5620 N   0  0  0  0  0  0  0  0  0  0  0  0
   58.5690   32.5130   46.9520 C   0  0  0  0  0  0  0  0  0  0  0  0
   58.5250   34.0170   47.2240 C   0  0  0  0  0  0  0  0  0  0  0  0
   59.2370   34.7410   46.1680 N   0  0  0  0  0  0  0  0  0  0  0  0
   58.6120   34.5780   44.8400 C   0  0  0  0  0  0  0  0  0  0  0  0
   57.7500   33.3050   44.6810 C   0  0  0  0  0  0  0  0  0  0  0  0
   56.9200   30.2790   44.8790 N   0  0  0  0  0  0  0  0  0  0  0  0
   56.7860   28.9880   44.4730 C   0  0  0  0  0  0  0  0  0  0  0  0
   58.2580   23.3890   44.9040 C   0  0  0  0  0  0  0  0  0  0  0  0
   58.3456   21.2398   44.4252 H   0  0  0  0  0  0  0  0  0  0  0  0
   56.3432   21.6107   42.7510 H   0  0  0  0  0  0  0  0  0  0  0  0
   56.8920   26.2025   45.6596 H   0  0  0  0  0  0  0  0  0  0  0  0
   58.6745   25.9481   45.5549 H   0  0  0  0  0  0  0  0  0  0  0  0
   58.6130   26.5680   43.2560 H   0  0  0  0  0  0  0  0  0  0  0  0
   56.9240   26.7200   43.2770 H   0  0  0  0  0  0  0  0  0  0  0  0
   60.0868   28.1235   44.4259 H   0  0  0  0  0  0  0  0  0  0  0  0
   60.2846   30.4997   45.1699 H   0  0  0  0  0  0  0  0  0  0  0  0
   57.8628   32.0051   47.6253 H   0  0  0  0  0  0  0  0  0  0  0  0
   59.5944   32.1555   47.1273 H   0  0  0  0  0  0  0  0  0  0  0  0
   57.4774   34.3512   47.2514 H   0  0  0  0  0  0  0  0  0  0  0  0
   59.0089   34.2223   48.1903 H   0  0  0  0  0  0  0  0  0  0  0  0
   60.2210   34.3840   46.1270 H   0  0  0  0  0  0  0  0  0  0  0  0
   57.9697   35.4515   44.6546 H   0  0  0  0  0  0  0  0  0  0  0  0
   59.4373   34.4851   44.1187 H   0  0  0  0  0  0  0  0  0  0  0  0
   56.7063   33.5500   44.9274 H   0  0  0  0  0  0  0  0  0  0  0  0
   57.8433   32.9598   43.6407 H   0  0  0  0  0  0  0  0  0  0  0  0
   55.7859   28.5796   44.2655 H   0  0  0  0  0  0  0  0  0  0  0  0
   59.0833   23.4322   45.6299 H   0  0  0  0  0  0  0  0  0  0  0  0
  1  2  2  0
  2  3  1  0
  3  4  1  0
  4  5  1  0
  5  6  1  0
  6  7  1  0
  7  8  2  0
  8  9  1  0
  9 10  2  0
 10 11  1  0
 11 12  1  0
 12 13  1  0
 13 14  1  0
 14 15  1  0
 15 16  1  0
 10 17  1  0
 17 18  2  0
  4 19  2  0
 19  1  1  0
 18  7  1  0
 16 11  1  0
  1 20  1  0
  2 21  1  0
  5 22  1  0
  5 23  1  0
  6 24  1  0
  6 25  1  0
  8 26  1  0
  9 27  1  0
 12 28  1  0
 12 29  1  0
 13 30  1  0
 13 31  1  0
 14 32  1  0
 15 33  1  0
 15 34  1  0
 16 35  1  0
 16 36  1  0
 18 37  1  0
 19 38  1  0
M  CHG  1   6   1
M  END
>  <UniqueID>  (22) 
22

>  <SMILES>  (22) 
c1csc(C[NH2+]c2ccc(N3CCNCC3)nc2)c1

>  <Energy>  (22) 
71.70950156556239

>  <Genealogy>  (22) 
c1csc(C[NH2+]c2ccc(N3CCNCC3)nc2)c1 (protonated)
c1csc(C[NH2+]c2ccc(N3CCNCC3)nc2)c1 (3D coordinates assigned)
c1csc(C[NH2+]c2ccc(N3CCNCC3)nc2)c1 (nonaromatic ring conformer: 71.70950156556239 kcal/mol)

>  <smiles>  (22) 
c1csc(CNc2ccc(N3CCNCC3)nc2)c1

>  <score_type>  (22) 
oracle

>  <origin>  (22) 
adg

>  <m_score__min__energy>  (22) 
-5.2800000000000002

>  <m_primary>  (22) 
energy

$$$$
23:0
     RDKit          3D

 58 60  0  0  0  0  0  0  0  0999 V2000
   60.0470   28.0020   47.5060 C   0  0  0  0  0  0  0  0  0  0  0  0
   59.6500   28.4410   48.9200 C   0  0  0  0  0  0  0  0  0  0  0  0
   60.0950   29.8080   49.2830 N   0  0  0  0  0  0  0  0  0  0  0  0
   61.4150   29.8770   49.9570 C   0  0  0  0  0  0  0  0  0  0  0  0
   61.5140   30.9360   51.0670 C   0  0  0  0  0  0  0  0  0  0  0  0
   59.0340   30.6860   49.8250 C   0  0  0  0  0  0  0  0  0  0  0  0
   58.5160   31.6480   48.7460 C   0  0  0  0  0  0  0  0  0  0  0  0
   58.9840   31.2530   47.4170 N   0  0  0  0  0  0  0  0  0  0  0  0
   58.7380   32.0440   46.2470 C   0  0  0  0  0  0  0  0  0  0  0  0
   59.0220   33.4150   46.1390 C   0  0  0  0  0  0  0  0  0  0  0  0
   59.7620   34.2370   47.1180 C   0  0  0  0  0  0  0  0  0  0  0  0
   59.2610   35.3310   47.4950 O   0  0  0  0  0  0  0  0  0  0  0  0
   61.0220   33.8050   47.6740 N   0  0  0  0  0  0  0  0  0  0  0  0
   61.9170   32.9090   46.9360 C   0  0  0  0  0  0  0  0  0  0  0  0
   63.3790   33.3560   47.1000 C   0  0  0  0  0  0  0  0  0  0  0  0
   63.7510   33.6160   48.5080 N   0  0  0  0  0  0  0  0  0  0  0  0
   63.9180   32.3850   49.3140 C   0  0  0  0  0  0  0  0  0  0  0  0
   65.2220   32.4280   50.1060 C   0  0  0  0  0  0  0  0  0  0  0  0
   62.8300   34.5860   49.1350 C   0  0  0  0  0  0  0  0  0  0  0  0
   61.3690   34.1270   49.0600 C   0  0  0  0  0  0  0  0  0  0  0  0
   58.5460   33.9550   44.6010 S   0  0  0  0  0  0  0  0  0  0  0  0
   57.9740   32.4650   44.0940 C   0  0  0  0  0  0  0  0  0  0  0  0
   57.3970   32.1740   42.9020 N   0  0  0  0  0  0  0  0  0  0  0  0
   56.9650   30.9030   42.6600 C   0  0  0  0  0  0  0  0  0  0  0  0
   57.1130   29.9000   43.6380 C   0  0  0  0  0  0  0  0  0  0  0  0
   57.7110   30.2100   44.8700 C   0  0  0  0  0  0  0  0  0  0  0  0
   58.1500   31.5190   45.0860 C   0  0  0  0  0  0  0  0  0  0  0  0
   60.7836   27.1874   47.5682 H   0  0  0  0  0  0  0  0  0  0  0  0
   59.1550   27.6493   46.9675 H   0  0  0  0  0  0  0  0  0  0  0  0
   60.4873   28.8542   46.9675 H   0  0  0  0  0  0  0  0  0  0  0  0
   58.5533   28.4042   48.9968 H   0  0  0  0  0  0  0  0  0  0  0  0
   60.1512   27.7519   49.6157 H   0  0  0  0  0  0  0  0  0  0  0  0
   61.6244   28.8932   50.4022 H   0  0  0  0  0  0  0  0  0  0  0  0
   62.1436   30.1662   49.1853 H   0  0  0  0  0  0  0  0  0  0  0  0
   61.4679   30.4430   52.0493 H   0  0  0  0  0  0  0  0  0  0  0  0
   62.4667   31.4778   50.9730 H   0  0  0  0  0  0  0  0  0  0  0  0
   60.6782   31.6450   50.9730 H   0  0  0  0  0  0  0  0  0  0  0  0
   58.2004   30.0645   50.1839 H   0  0  0  0  0  0  0  0  0  0  0  0
   59.4549   31.2777   50.6513 H   0  0  0  0  0  0  0  0  0  0  0  0
   57.4161   31.6401   48.7562 H   0  0  0  0  0  0  0  0  0  0  0  0
   58.8984   32.6559   48.9649 H   0  0  0  0  0  0  0  0  0  0  0  0
   59.3060   30.2670   47.2860 H   0  0  0  0  0  0  0  0  0  0  0  0
   61.8054   31.8856   47.3236 H   0  0  0  0  0  0  0  0  0  0  0  0
   61.6522   32.9404   45.8688 H   0  0  0  0  0  0  0  0  0  0  0  0
   64.0335   32.5650   46.7052 H   0  0  0  0  0  0  0  0  0  0  0  0
   63.4973   34.3008   46.5493 H   0  0  0  0  0  0  0  0  0  0  0  0
   63.0740   32.2949   50.0137 H   0  0  0  0  0  0  0  0  0  0  0  0
   63.9466   31.5202   48.6348 H   0  0  0  0  0  0  0  0  0  0  0  0
   64.9974   32.4206   51.1828 H   0  0  0  0  0  0  0  0  0  0  0  0
   65.8338   31.5495   49.8530 H   0  0  0  0  0  0  0  0  0  0  0  0
   65.7746   33.3449   49.8530 H   0  0  0  0  0  0  0  0  0  0  0  0
   63.1094   34.7081   50.1919 H   0  0  0  0  0  0  0  0  0  0  0  0
   62.9148   35.5360   48.5870 H   0  0  0  0  0  0  0  0  0  0  0  0
   61.2340   33.2337   49.6875 H   0  0  0  0  0  0  0  0  0  0  0  0
   60.7150   34.9347   49.4205 H   0  0  0  0  0  0  0  0  0  0  0  0
   56.4978   30.6595   41.6944 H   0  0  0  0  0  0  0  0  0  0  0  0
   56.7612   28.8773   43.4372 H   0  0  0  0  0  0  0  0  0  0  0  0
   57.8311   29.4406   45.6469 H   0  0  0  0  0  0  0  0  0  0  0  0
  1  2  1  0
  2  3  1  0
  3  4  1  0
  4  5  1  0
  3  6  1  0
  6  7  1  0
  7  8  1  0
  8  9  1  0
  9 10  2  0
 10 11  1  0
 11 12  2  0
 11 13  1  0
 13 14  1  0
 14 15  1  0
 15 16  1  0
 16 17  1  0
 17 18  1  0
 16 19  1  0
 19 20  1  0
 10 21  1  0
 21 22  1  0
 22 23  2  0
 23 24  1  0
 24 25  2  0
 25 26  1  0
 26 27  2  0
 27  9  1  0
 20 13  1  0
 27 22  1  0
  1 28  1  0
  1 29  1  0
  1 30  1  0
  2 31  1  0
  2 32  1  0
  4 33  1  0
  4 34  1  0
  5 35  1  0
  5 36  1  0
  5 37  1  0
  6 38  1  0
  6 39  1  0
  7 40  1  0
  7 41  1  0
  8 42  1  0
 14 43  1  0
 14 44  1  0
 15 45  1  0
 15 46  1  0
 17 47  1  0
 17 48  1  0
 18 49  1  0
 18 50  1  0
 18 51  1  0
 19 52  1  0
 19 53  1  0
 20 54  1  0
 20 55  1  0
 24 56  1  0
 25 57  1  0
 26 58  1  0
M  END
>  <UniqueID>  (23) 
23

>  <SMILES>  (23) 
CCN(CC)CCNc1c(C(=O)N2CCN(CC)CC2)sc2ncccc12

>  <Energy>  (23) 
102.91996179448914

>  <Genealogy>  (23) 
CCN(CC)CCNc1c(C(=O)N2CCN(CC)CC2)sc2ncccc12 (3D coordinates assigned)
CCN(CC)CCNc1c(C(=O)N2CCN(CC)CC2)sc2ncccc12 (nonaromatic ring conformer: 102.91996179448914 kcal/mol)

>  <smiles>  (23) 
CCN(CC)CCNc1c(C(=O)N2CCN(CC)CC2)sc2ncccc12

>  <score_type>  (23) 
oracle

>  <origin>  (23) 
adg

>  <m_score__min__energy>  (23) 
-7.3300000000000001

>  <m_primary>  (23) 
energy

$$$$
24:0
     RDKit          3D

 45 46  0  0  0  0  0  0  0  0999 V2000
   59.2610   34.6150   47.2410 C   0  0  0  0  0  0  0  0  0  0  0  0
   58.1990   33.5240   47.3520 C   0  0  0  0  0  0  0  0  0  0  0  0
   57.6880   33.1630   46.0200 N   0  0  0  0  0  0  0  0  0  0  0  0
   57.0220   34.1940   45.2130 C   0  0  0  0  0  0  0  0  0  0  0  0
   57.8060   31.8240   45.4750 C   0  0  0  0  0  0  0  0  0  0  0  0
   58.9880   31.0670   45.5920 C   0  0  0  0  0  0  0  0  0  0  0  0
   59.0420   29.7780   45.0570 C   0  0  0  0  0  0  0  0  0  0  0  0
   57.9270   29.2400   44.4040 C   0  0  0  0  0  0  0  0  0  0  0  0
   57.9460   27.8300   43.8760 C   0  0  0  0  0  0  0  0  0  0  0  0
   57.4160   26.8910   44.8770 N   0  0  0  0  0  0  0  0  0  0  0  0
   58.4040   25.8750   45.2830 C   0  0  0  0  0  0  0  0  0  0  0  0
   57.7080   24.7100   45.9950 C   0  0  0  0  0  0  0  0  0  0  0  0
   56.7670   24.0270   45.0960 N   0  0  0  0  0  0  0  0  0  0  0  0
   55.4450   24.2580   44.9220 C   0  0  0  0  0  0  0  0  0  0  0  0
   54.6640   25.2800   45.5660 N   0  0  0  0  0  0  0  0  0  0  0  0
   55.1950   26.2960   46.0560 O   0  0  0  0  0  0  0  0  0  0  0  0
   53.2950   25.1540   45.6230 O   0  0  0  0  0  0  0  0  0  0  0  0
   54.9440   23.3440   44.0230 C   0  0  0  0  0  0  0  0  0  0  0  0
   55.9390   22.5270   43.6250 N   0  0  0  0  0  0  0  0  0  0  0  0
   57.0290   22.9680   44.2900 C   0  0  0  0  0  0  0  0  0  0  0  0
   58.3650   22.3060   44.1550 C   0  0  0  0  0  0  0  0  0  0  0  0
   56.7700   30.0200   44.2990 C   0  0  0  0  0  0  0  0  0  0  0  0
   56.7390   31.2710   44.8290 N   0  0  0  0  0  0  0  0  0  0  0  0
   59.5687   34.9311   48.2487 H   0  0  0  0  0  0  0  0  0  0  0  0
   60.1334   34.2236   46.6972 H   0  0  0  0  0  0  0  0  0  0  0  0
   58.8462   35.4765   46.6972 H   0  0  0  0  0  0  0  0  0  0  0  0
   58.6423   32.6342   47.8228 H   0  0  0  0  0  0  0  0  0  0  0  0
   57.3650   33.9009   47.9623 H   0  0  0  0  0  0  0  0  0  0  0  0
   56.5466   34.9299   45.8781 H   0  0  0  0  0  0  0  0  0  0  0  0
   57.7648   34.6994   44.5783 H   0  0  0  0  0  0  0  0  0  0  0  0
   56.2559   33.7247   44.5783 H   0  0  0  0  0  0  0  0  0  0  0  0
   59.8656   31.4896   46.1030 H   0  0  0  0  0  0  0  0  0  0  0  0
   59.9633   29.1840   45.1491 H   0  0  0  0  0  0  0  0  0  0  0  0
   57.3275   27.7764   42.9679 H   0  0  0  0  0  0  0  0  0  0  0  0
   58.9856   27.5526   43.6475 H   0  0  0  0  0  0  0  0  0  0  0  0
   56.6020   26.3970   44.4390 H   0  0  0  0  0  0  0  0  0  0  0  0
   58.9229   25.4964   44.3900 H   0  0  0  0  0  0  0  0  0  0  0  0
   59.1270   26.3349   45.9727 H   0  0  0  0  0  0  0  0  0  0  0  0
   58.4679   23.9904   46.3337 H   0  0  0  0  0  0  0  0  0  0  0  0
   57.1454   25.1099   46.8515 H   0  0  0  0  0  0  0  0  0  0  0  0
   53.8990   23.2893   43.6838 H   0  0  0  0  0  0  0  0  0  0  0  0
   58.7760   22.1023   45.1548 H   0  0  0  0  0  0  0  0  0  0  0  0
   58.2515   21.3599   43.6055 H   0  0  0  0  0  0  0  0  0  0  0  0
   59.0491   22.9694   43.6055 H   0  0  0  0  0  0  0  0  0  0  0  0
   55.8832   29.6195   43.7861 H   0  0  0  0  0  0  0  0  0  0  0  0
  1  2  1  0
  2  3  1  0
  3  4  1  0
  3  5  1  0
  5  6  2  0
  6  7  1  0
  7  8  2  0
  8  9  1  0
  9 10  1  0
 10 11  1  0
 11 12  1  0
 12 13  1  0
 13 14  1  0
 14 15  1  0
 15 16  2  0
 15 17  1  0
 14 18  2  0
 18 19  1  0
 19 20  2  0
 20 21  1  0
  8 22  1  0
 22 23  2  0
 23  5  1  0
 20 13  1  0
  1 24  1  0
  1 25  1  0
  1 26  1  0
  2 27  1  0
  2 28  1  0
  4 29  1  0
  4 30  1  0
  4 31  1  0
  6 32  1  0
  7 33  1  0
  9 34  1  0
  9 35  1  0
 10 36  1  0
 11 37  1  0
 11 38  1  0
 12 39  1  0
 12 40  1  0
 18 41  1  0
 21 42  1  0
 21 43  1  0
 21 44  1  0
 22 45  1  0
M  CHG  2  15   1  17  -1
M  END
>  <UniqueID>  (24) 
24

>  <SMILES>  (24) 
CCN(C)c1ccc(CNCCn2c([N+](=O)[O-])cnc2C)cn1

>  <Energy>  (24) 
70.92387792625027

>  <Genealogy>  (24) 
CCN(C)c1ccc(CNCCn2c([N+](=O)[O-])cnc2C)cn1 (3D coordinates assigned)
CCN(C)c1ccc(CNCCn2c([N+](=O)[O-])cnc2C)cn1 (optimized conformer: 70.92387792625027 kcal/mol)

>  <smiles>  (24) 
CCN(C)c1ccc(CNCCn2c([N+](=O)[O-])cnc2C)cn1

>  <score_type>  (24) 
oracle

>  <origin>  (24) 
adg

>  <m_score__min__energy>  (24) 
-7.9500000000000002

>  <m_primary>  (24) 
energy

$$$$
25:0
     RDKit          3D

 47 48  0  0  0  0  0  0  0  0999 V2000
   64.8540   32.7750   49.7090 C   0  0  0  0  0  0  0  0  0  0  0  0
   63.5090   32.0910   49.9760 C   0  0  0  0  0  0  0  0  0  0  0  0
   62.6280   32.0460   48.7780 N   0  0  0  0  0  0  0  0  0  0  0  0
   61.8260   30.7930   48.7570 C   0  0  0  0  0  0  0  0  0  0  0  0
   61.3830   30.3500   50.1570 C   0  0  0  0  0  0  0  0  0  0  0  0
   63.3500   32.2530   47.4910 C   0  0  0  0  0  0  0  0  0  0  0  0
   62.9270   33.4950   46.6820 C   0  0  0  0  0  0  0  0  0  0  0  0
   61.9210   34.2270   47.3640 O   0  0  0  0  0  0  0  0  0  0  0  0
   60.6350   34.2770   46.8690 N   0  0  0  0  0  0  0  0  0  0  0  0
   59.7230   33.4250   47.2310 C   0  0  0  0  0  0  0  0  0  0  0  0
   59.4380   33.2270   48.6790 C   0  0  0  0  0  0  0  0  0  0  0  0
   60.0570   34.0330   49.6570 C   0  0  0  0  0  0  0  0  0  0  0  0
   59.7850   33.8390   51.0140 C   0  0  0  0  0  0  0  0  0  0  0  0
   58.8950   32.8400   51.4160 C   0  0  0  0  0  0  0  0  0  0  0  0
   58.5260   32.5790   53.2720 Br  0  0  0  0  0  0  0  0  0  0  0  0
   58.2780   32.0310   50.4590 C   0  0  0  0  0  0  0  0  0  0  0  0
   58.5470   32.2200   49.1000 C   0  0  0  0  0  0  0  0  0  0  0  0
   58.9990   32.6430   46.2050 C   0  0  0  0  0  0  0  0  0  0  0  0
   59.2080   31.2610   46.0950 C   0  0  0  0  0  0  0  0  0  0  0  0
   58.5030   30.5170   45.1440 C   0  0  0  0  0  0  0  0  0  0  0  0
   57.5920   31.1510   44.2930 C   0  0  0  0  0  0  0  0  0  0  0  0
   56.6240   30.1310   43.0010 Br  0  0  0  0  0  0  0  0  0  0  0  0
   57.3900   32.5310   44.3910 C   0  0  0  0  0  0  0  0  0  0  0  0
   58.0920   33.2780   45.3430 C   0  0  0  0  0  0  0  0  0  0  0  0
   65.3369   33.0206   50.6663 H   0  0  0  0  0  0  0  0  0  0  0  0
   65.5024   32.0971   49.1345 H   0  0  0  0  0  0  0  0  0  0  0  0
   64.6882   33.6983   49.1345 H   0  0  0  0  0  0  0  0  0  0  0  0
   63.7006   31.0601   50.3083 H   0  0  0  0  0  0  0  0  0  0  0  0
   62.9879   32.6817   50.7438 H   0  0  0  0  0  0  0  0  0  0  0  0
   61.9590   32.8490   48.8570 H   0  0  0  0  0  0  0  0  0  0  0  0
   60.9302   30.9589   48.1405 H   0  0  0  0  0  0  0  0  0  0  0  0
   62.4632   29.9976   48.3431 H   0  0  0  0  0  0  0  0  0  0  0  0
   61.9465   30.9135   50.9153 H   0  0  0  0  0  0  0  0  0  0  0  0
   60.3073   30.5445   50.2799 H   0  0  0  0  0  0  0  0  0  0  0  0
   61.5775   29.2743   50.2799 H   0  0  0  0  0  0  0  0  0  0  0  0
   64.4228   32.3449   47.7159 H   0  0  0  0  0  0  0  0  0  0  0  0
   63.0998   31.3853   46.8628 H   0  0  0  0  0  0  0  0  0  0  0  0
   63.8036   34.1423   46.5318 H   0  0  0  0  0  0  0  0  0  0  0  0
   62.5235   33.1624   45.7142 H   0  0  0  0  0  0  0  0  0  0  0  0
   60.7599   34.8211   49.3490 H   0  0  0  0  0  0  0  0  0  0  0  0
   60.2730   34.4746   51.7676 H   0  0  0  0  0  0  0  0  0  0  0  0
   57.5786   31.2431   50.7753 H   0  0  0  0  0  0  0  0  0  0  0  0
   58.0587   31.5769   48.3530 H   0  0  0  0  0  0  0  0  0  0  0  0
   59.9286   30.7607   46.7587 H   0  0  0  0  0  0  0  0  0  0  0  0
   58.6650   29.4319   45.0651 H   0  0  0  0  0  0  0  0  0  0  0  0
   56.6775   33.0305   43.7180 H   0  0  0  0  0  0  0  0  0  0  0  0
   57.9328   34.3640   45.4159 H   0  0  0  0  0  0  0  0  0  0  0  0
  1  2  1  0
  2  3  1  0
  3  4  1  0
  4  5  1  0
  3  6  1  0
  6  7  1  0
  7  8  1  0
  8  9  1  0
  9 10  2  3
 10 11  1  0
 11 12  2  0
 12 13  1  0
 13 14  2  0
 14 15  1  0
 14 16  1  0
 16 17  2  0
 10 18  1  0
 18 19  2  0
 19 20  1  0
 20 21  2  0
 21 22  1  0
 21 23  1  0
 23 24  2  0
 17 11  1  0
 24 18  1  0
  1 25  1  0
  1 26  1  0
  1 27  1  0
  2 28  1  0
  2 29  1  0
  3 30  1  0
  4 31  1  0
  4 32  1  0
  5 33  1  0
  5 34  1  0
  5 35  1  0
  6 36  1  0
  6 37  1  0
  7 38  1  0
  7 39  1  0
 12 40  1  0
 13 41  1  0
 16 42  1  0
 17 43  1  0
 19 44  1  0
 20 45  1  0
 23 46  1  0
 24 47  1  0
M  CHG  1   3   1
M  END
>  <UniqueID>  (25) 
25

>  <SMILES>  (25) 
CC[NH+](CC)CCON=C(c1ccc(Br)cc1)c1ccc(Br)cc1

>  <Energy>  (25) 
52.571380272850064

>  <Genealogy>  (25) 
CC[NH+](CC)CCON=C(c1ccc(Br)cc1)c1ccc(Br)cc1 (protonated)
CC[NH+](CC)CCON=C(c1ccc(Br)cc1)c1ccc(Br)cc1 (3D coordinates assigned)
CC[NH+](CC)CCON=C(c1ccc(Br)cc1)c1ccc(Br)cc1 (optimized conformer: 52.571380272850064 kcal/mol)

>  <smiles>  (25) 
CCN(CC)CCON=C(c1ccc(Br)cc1)c1ccc(Br)cc1

>  <score_type>  (25) 
oracle

>  <origin>  (25) 
adg

>  <m_score__min__energy>  (25) 
-5.2199999999999998

>  <m_primary>  (25) 
energy

$$$$
26:0
     RDKit          3D

 54 56  0  0  0  0  0  0  0  0999 V2000
   59.2690   34.6560   44.8660 C   0  0  0  0  0  0  0  0  0  0  0  0
   57.9750   34.2410   45.5580 C   0  0  0  0  0  0  0  0  0  0  0  0
   58.2320   33.1890   46.5520 N   0  0  0  0  0  0  0  0  0  0  0  0
   57.8800   31.7990   46.2110 C   0  0  0  0  0  0  0  0  0  0  0  0
   57.2590   31.7100   44.8140 C   0  0  0  0  0  0  0  0  0  0  0  0
   56.3580   30.6230   44.7780 O   0  0  0  0  0  0  0  0  0  0  0  0
   56.5860   29.8660   43.6110 C   0  0  0  0  0  0  0  0  0  0  0  0
   58.7400   33.5600   47.8570 C   0  0  0  0  0  0  0  0  0  0  0  0
   59.3400   34.6590   48.0000 O   0  0  0  0  0  0  0  0  0  0  0  0
   58.5510   32.6930   49.0730 C   0  0  0  0  0  0  0  0  0  0  0  0
   60.1000   31.8500   49.5480 S   0  0  0  0  0  0  0  0  0  0  0  0
   60.1080   30.7240   48.1470 C   0  0  0  0  0  0  0  0  0  0  0  0
   59.1840   29.7290   48.1120 N   0  0  0  0  0  0  0  0  0  0  0  0
   59.1050   28.8690   47.0670 C   0  0  0  0  0  0  0  0  0  0  0  0
   58.1380   27.8570   47.0520 C   0  0  0  0  0  0  0  0  0  0  0  0
   58.0690   26.9740   45.9680 C   0  0  0  0  0  0  0  0  0  0  0  0
   58.9650   27.1010   44.9010 C   0  0  0  0  0  0  0  0  0  0  0  0
   59.9340   28.1100   44.9110 C   0  0  0  0  0  0  0  0  0  0  0  0
   60.0070   29.0010   45.9940 C   0  0  0  0  0  0  0  0  0  0  0  0
   60.9450   29.9900   46.0290 N   0  0  0  0  0  0  0  0  0  0  0  0
   61.0240   30.8590   47.0790 C   0  0  0  0  0  0  0  0  0  0  0  0
   62.0620   31.8580   47.0950 N   0  0  0  0  0  0  0  0  0  0  0  0
   61.7530   33.2520   46.7440 C   0  0  0  0  0  0  0  0  0  0  0  0
   62.5700   34.2070   47.6200 C   0  0  0  0  0  0  0  0  0  0  0  0
   62.6840   33.6740   48.9240 O   0  0  0  0  0  0  0  0  0  0  0  0
   63.5650   32.5590   48.9310 C   0  0  0  0  0  0  0  0  0  0  0  0
   63.3440   31.5820   47.7530 C   0  0  0  0  0  0  0  0  0  0  0  0
   60.0283   34.8995   45.6238 H   0  0  0  0  0  0  0  0  0  0  0  0
   59.6304   33.8287   44.2375 H   0  0  0  0  0  0  0  0  0  0  0  0
   59.0818   35.5392   44.2375 H   0  0  0  0  0  0  0  0  0  0  0  0
   57.5386   35.1157   46.0625 H   0  0  0  0  0  0  0  0  0  0  0  0
   57.2787   33.8503   44.8013 H   0  0  0  0  0  0  0  0  0  0  0  0
   58.7900   31.1816   46.2388 H   0  0  0  0  0  0  0  0  0  0  0  0
   57.1426   31.4376   46.9429 H   0  0  0  0  0  0  0  0  0  0  0  0
   56.7204   32.6426   44.5901 H   0  0  0  0  0  0  0  0  0  0  0  0
   58.0506   31.5606   44.0650 H   0  0  0  0  0  0  0  0  0  0  0  0
   56.8929   28.8470   43.8891 H   0  0  0  0  0  0  0  0  0  0  0  0
   55.6615   29.8211   43.0166 H   0  0  0  0  0  0  0  0  0  0  0  0
   57.3815   30.3392   43.0166 H   0  0  0  0  0  0  0  0  0  0  0  0
   58.2159   33.3220   49.9109 H   0  0  0  0  0  0  0  0  0  0  0  0
   57.8015   31.9243   48.8333 H   0  0  0  0  0  0  0  0  0  0  0  0
   57.4335   27.7558   47.8907 H   0  0  0  0  0  0  0  0  0  0  0  0
   57.3090   26.1789   45.9551 H   0  0  0  0  0  0  0  0  0  0  0  0
   58.9073   26.4050   44.0512 H   0  0  0  0  0  0  0  0  0  0  0  0
   60.6381   28.2054   44.0713 H   0  0  0  0  0  0  0  0  0  0  0  0
   61.6360   30.0670   45.2490 H   0  0  0  0  0  0  0  0  0  0  0  0
   62.0018   33.4250   45.6866 H   0  0  0  0  0  0  0  0  0  0  0  0
   60.6815   33.4370   46.9106 H   0  0  0  0  0  0  0  0  0  0  0  0
   63.5733   34.3330   47.1870 H   0  0  0  0  0  0  0  0  0  0  0  0
   62.0640   35.1826   47.6671 H   0  0  0  0  0  0  0  0  0  0  0  0
   64.5983   32.9331   48.8822 H   0  0  0  0  0  0  0  0  0  0  0  0
   63.3639   31.9974   49.8552 H   0  0  0  0  0  0  0  0  0  0  0  0
   64.1591   31.7023   47.0242 H   0  0  0  0  0  0  0  0  0  0  0  0
   63.3328   30.5524   48.1399 H   0  0  0  0  0  0  0  0  0  0  0  0
  1  2  1  0
  2  3  1  0
  3  4  1  0
  4  5  1  0
  5  6  1  0
  6  7  1  0
  3  8  1  0
  8  9  2  0
  8 10  1  0
 10 11  1  0
 11 12  1  0
 12 13  2  0
 13 14  1  0
 14 15  2  0
 15 16  1  0
 16 17  2  0
 17 18  1  0
 18 19  2  0
 19 20  1  0
 20 21  2  0
 21 22  1  0
 22 23  1  0
 23 24  1  0
 24 25  1  0
 25 26  1  0
 26 27  1  0
 21 12  1  0
 27 22  1  0
 19 14  1  0
  1 28  1  0
  1 29  1  0
  1 30  1  0
  2 31  1  0
  2 32  1  0
  4 33  1  0
  4 34  1  0
  5 35  1  0
  5 36  1  0
  7 37  1  0
  7 38  1  0
  7 39  1  0
 10 40  1  0
 10 41  1  0
 15 42  1  0
 16 43  1  0
 17 44  1  0
 18 45  1  0
 20 46  1  0
 23 47  1  0
 23 48  1  0
 24 49  1  0
 24 50  1  0
 26 51  1  0
 26 52  1  0
 27 53  1  0
 27 54  1  0
M  CHG  1  20   1
M  END
>  <UniqueID>  (26) 
26

>  <SMILES>  (26) 
CCN(CCOC)C(=O)CSc1nc2ccccc2[nH+]c1N1CCOCC1

>  <Energy>  (26) 
61.4223367304582

>  <Genealogy>  (26) 
CCN(CCOC)C(=O)CSc1nc2ccccc2[nH+]c1N1CCOCC1 (protonated)
CCN(CCOC)C(=O)CSc1nc2ccccc2[nH+]c1N1CCOCC1 (3D coordinates assigned)
CCN(CCOC)C(=O)CSc1nc2ccccc2[nH+]c1N1CCOCC1 (nonaromatic ring conformer: 61.4223367304582 kcal/mol)

>  <smiles>  (26) 
CCN(CCOC)C(=O)CSc1nc2ccccc2nc1N1CCOCC1

>  <score_type>  (26) 
oracle

>  <origin>  (26) 
adg

>  <m_score__min__energy>  (26) 
-5.5999999999999996

>  <m_primary>  (26) 
energy

$$$$
27:0
     RDKit          3D

 71 75  0  0  0  0  0  0  0  0999 V2000
   57.7230   26.1650   45.3360 C   0  0  0  0  0  0  0  0  0  0  0  0
   56.8330   27.3930   45.5850 C   0  0  0  0  0  0  0  0  0  0  0  0
   57.3970   28.7380   45.0170 C   0  0  1  0  0  0  0  0  0  0  0  0
   58.1370   28.4720   43.8490 O   0  0  0  0  0  0  0  0  0  0  0  0
   56.2830   29.7050   44.6390 C   0  0  0  0  0  0  0  0  0  0  0  0
   55.0880   29.3320   44.5080 O   0  0  0  0  0  0  0  0  0  0  0  0
   56.5880   31.0540   44.4440 O   0  0  0  0  0  0  0  0  0  0  0  0
   57.9190   31.5420   44.5840 C   0  0  0  0  0  0  0  0  0  0  0  0
   58.5880   30.8680   45.7570 C   0  0  0  0  0  0  0  0  0  0  0  0
   58.3130   29.4940   46.0070 C   0  0  0  0  0  0  0  0  0  0  0  0
   58.9440   28.8720   47.1100 C   0  0  0  0  0  0  0  0  0  0  0  0
   59.8590   29.6030   47.8760 C   0  0  0  0  0  0  0  0  0  0  0  0
   60.0500   30.9190   47.6410 N   0  0  0  0  0  0  0  0  0  0  0  0
   59.4630   31.5730   46.6050 C   0  0  0  0  0  0  0  0  0  0  0  0
   59.6990   32.7980   46.4160 O   0  0  0  0  0  0  0  0  0  0  0  0
   60.8740   31.5230   48.6860 C   0  0  0  0  0  0  0  0  0  0  0  0
   61.1540   30.3620   49.5960 C   0  0  0  0  0  0  0  0  0  0  0  0
   61.8900   30.3490   50.7850 C   0  0  0  0  0  0  0  0  0  0  0  0
   62.4890   31.5740   51.2800 N   0  0  0  0  0  0  0  0  0  0  0  0
   63.9430   31.5620   51.0500 C   0  0  0  0  0  0  0  0  0  0  0  0
   64.3460   32.6880   50.0740 C   0  0  0  0  0  0  0  0  0  0  0  0
   63.2720   33.1040   49.1430 N   0  0  0  0  0  0  0  0  0  0  0  0
   63.6990   33.1020   47.7360 C   0  0  0  0  0  0  0  0  0  0  0  0
   62.6550   34.3880   49.5120 C   0  0  0  0  0  0  0  0  0  0  0  0
   62.0280   29.0990   51.4560 C   0  0  0  0  0  0  0  0  0  0  0  0
   62.7280   28.9880   52.6760 C   0  0  0  0  0  0  0  0  0  0  0  0
   62.8270   27.7610   53.3520 C   0  0  0  0  0  0  0  0  0  0  0  0
   63.5270   27.6310   54.5630 O   0  0  0  0  0  0  0  0  0  0  0  0
   64.9430   27.7050   54.6950 C   0  0  0  0  0  0  0  0  0  0  0  0
   62.2120   26.6260   52.8220 C   0  0  0  0  0  0  0  0  0  0  0  0
   62.3070   25.4250   53.5450 O   0  0  0  0  0  0  0  0  0  0  0  0
   63.4340   24.5550   53.5290 C   0  0  0  0  0  0  0  0  0  0  0  0
   61.5270   26.7100   51.5980 C   0  0  0  0  0  0  0  0  0  0  0  0
   61.4560   27.9210   50.8730 C   0  0  0  0  0  0  0  0  0  0  0  0
   60.8430   27.9800   49.6310 N   0  0  0  0  0  0  0  0  0  0  0  0
   60.5560   26.7580   48.8610 C   0  0  0  0  0  0  0  0  0  0  0  0
   60.5960   29.2120   49.0860 C   0  0  0  0  0  0  0  0  0  0  0  0
   58.0339   25.7360   46.3000 H   0  0  0  0  0  0  0  0  0  0  0  0
   57.1588   25.4130   44.7649 H   0  0  0  0  0  0  0  0  0  0  0  0
   58.6133   26.4671   44.7649 H   0  0  0  0  0  0  0  0  0  0  0  0
   55.8549   27.2073   45.1172 H   0  0  0  0  0  0  0  0  0  0  0  0
   56.7753   27.5176   46.6764 H   0  0  0  0  0  0  0  0  0  0  0  0
   58.0290   29.2490   43.2410 H   0  0  0  0  0  0  0  0  0  0  0  0
   58.4859   31.3261   43.6664 H   0  0  0  0  0  0  0  0  0  0  0  0
   57.8922   32.6283   44.7552 H   0  0  0  0  0  0  0  0  0  0  0  0
   58.7179   27.8255   47.3626 H   0  0  0  0  0  0  0  0  0  0  0  0
   61.8052   31.9341   48.2691 H   0  0  0  0  0  0  0  0  0  0  0  0
   60.3860   32.3682   49.1934 H   0  0  0  0  0  0  0  0  0  0  0  0
   62.2660   31.7090   52.2900 H   0  0  0  0  0  0  0  0  0  0  0  0
   62.0810   32.4030   50.7890 H   0  0  0  0  0  0  0  0  0  0  0  0
   64.4622   31.7107   52.0083 H   0  0  0  0  0  0  0  0  0  0  0  0
   64.2255   30.5935   50.6115 H   0  0  0  0  0  0  0  0  0  0  0  0
   64.6470   33.5650   50.6659 H   0  0  0  0  0  0  0  0  0  0  0  0
   65.1620   32.2887   49.4537 H   0  0  0  0  0  0  0  0  0  0  0  0
   64.7979   33.0969   47.6863 H   0  0  0  0  0  0  0  0  0  0  0  0
   63.3051   32.2057   47.2345 H   0  0  0  0  0  0  0  0  0  0  0  0
   63.3135   34.0020   47.2345 H   0  0  0  0  0  0  0  0  0  0  0  0
   62.6139   34.4735   50.6079 H   0  0  0  0  0  0  0  0  0  0  0  0
   63.2545   35.2141   49.1020 H   0  0  0  0  0  0  0  0  0  0  0  0
   61.6354   34.4361   49.1020 H   0  0  0  0  0  0  0  0  0  0  0  0
   63.2058   29.8805   53.1063 H   0  0  0  0  0  0  0  0  0  0  0  0
   65.2116   27.7190   55.7616 H   0  0  0  0  0  0  0  0  0  0  0  0
   65.4025   26.8296   54.2127 H   0  0  0  0  0  0  0  0  0  0  0  0
   65.3087   28.6235   54.2127 H   0  0  0  0  0  0  0  0  0  0  0  0
   63.7334   24.3238   54.5619 H   0  0  0  0  0  0  0  0  0  0  0  0
   63.1708   23.6236   53.0064 H   0  0  0  0  0  0  0  0  0  0  0  0
   64.2684   25.0455   53.0064 H   0  0  0  0  0  0  0  0  0  0  0  0
   61.0348   25.8126   51.1949 H   0  0  0  0  0  0  0  0  0  0  0  0
   60.3606   25.9258   49.5533 H   0  0  0  0  0  0  0  0  0  0  0  0
   59.6722   26.9230   48.2273 H   0  0  0  0  0  0  0  0  0  0  0  0
   61.4209   26.5123   48.2273 H   0  0  0  0  0  0  0  0  0  0  0  0
  1  2  1  0
  2  3  1  0
  3  4  1  6
  3  5  1  0
  5  6  2  0
  5  7  1  0
  7  8  1  0
  8  9  1  0
  9 10  2  0
 10 11  1  0
 11 12  2  0
 12 13  1  0
 13 14  1  0
 14 15  2  0
 13 16  1  0
 16 17  1  0
 17 18  2  0
 18 19  1  0
 19 20  1  0
 20 21  1  0
 21 22  1  0
 22 23  1  0
 22 24  1  0
 18 25  1  0
 25 26  2  0
 26 27  1  0
 27 28  1  0
 28 29  1  0
 27 30  2  0
 30 31  1  0
 31 32  1  0
 30 33  1  0
 33 34  2  0
 34 35  1  0
 35 36  1  0
 35 37  2  0
 10  3  1  0
 37 12  1  0
 14  9  1  0
 37 17  1  0
 34 25  1  0
  1 38  1  0
  1 39  1  0
  1 40  1  0
  2 41  1  0
  2 42  1  0
  4 43  1  0
  8 44  1  0
  8 45  1  0
 11 46  1  0
 16 47  1  0
 16 48  1  0
 19 49  1  0
 19 50  1  0
 20 51  1  0
 20 52  1  0
 21 53  1  0
 21 54  1  0
 23 55  1  0
 23 56  1  0
 23 57  1  0
 24 58  1  0
 24 59  1  0
 24 60  1  0
 26 61  1  0
 29 62  1  0
 29 63  1  0
 29 64  1  0
 32 65  1  0
 32 66  1  0
 32 67  1  0
 33 68  1  0
 36 69  1  0
 36 70  1  0
 36 71  1  0
M  CHG  2  19   1  35   1
M  END
>  <UniqueID>  (27) 
27

>  <SMILES>  (27) 
CC[C@@]1(O)C(=O)OCc2c1cc1n(c2=O)Cc2c([NH2+]CCN(C)C)c3cc(OC)c(OC)cc3[n+](C)c2-1

>  <Energy>  (27) 
130.42176012522074

>  <Genealogy>  (27) 
CCC1(O)C(=O)OCc2c1cc1n(c2=O)Cc2c([NH2+]CCN(C)C)c3cc(OC)c(OC)cc3[n+](C)c2-1 (protonated)
CC[C@@]1(O)C(=O)OCc2c1cc1n(c2=O)Cc2c([NH2+]CCN(C)C)c3cc(OC)c(OC)cc3[n+](C)c2-1 (chirality)
CC[C@@]1(O)C(=O)OCc2c1cc1n(c2=O)Cc2c([NH2+]CCN(C)C)c3cc(OC)c(OC)cc3[n+](C)c2-1 (3D coordinates assigned)
CC[C@@]1(O)C(=O)OCc2c1cc1n(c2=O)Cc2c([NH2+]CCN(C)C)c3cc(OC)c(OC)cc3[n+](C)c2-1 (nonaromatic ring conformer: 130.42176012522074 kcal/mol)

>  <smiles>  (27) 
CCC1(O)C(=O)OCc2c1cc1n(c2=O)Cc2c(NCCN(C)C)c3cc(OC)c(OC)cc3[n+](C)c2-1

>  <score_type>  (27) 
oracle

>  <origin>  (27) 
adg

>  <m_score__min__energy>  (27) 
-4.5599999999999996

>  <m_primary>  (27) 
energy

$$$$
28:0
     RDKit          3D

 52 54  0  0  0  0  0  0  0  0999 V2000
   60.1930   29.6440   46.2980 C   0  0  0  0  0  0  0  0  0  0  0  0
   58.8310   30.0610   46.2750 O   0  0  0  0  0  0  0  0  0  0  0  0
   58.0680   30.2010   45.1040 C   0  0  0  0  0  0  0  0  0  0  0  0
   57.2280   29.1640   44.6180 C   0  0  0  0  0  0  0  0  0  0  0  0
   57.0320   27.8780   45.3730 C   0  0  0  0  0  0  0  0  0  0  0  0
   56.5380   29.3440   43.4090 C   0  0  0  0  0  0  0  0  0  0  0  0
   56.6320   30.5450   42.7100 C   0  0  0  0  0  0  0  0  0  0  0  0
   57.4130   31.5840   43.2070 C   0  0  0  0  0  0  0  0  0  0  0  0
   58.1320   31.4270   44.4020 C   0  0  0  0  0  0  0  0  0  0  0  0
   58.9870   32.5740   44.8870 C   0  0  0  0  0  0  0  0  0  0  0  0
   58.2010   33.4750   45.7580 N   0  0  0  0  0  0  0  0  0  0  0  0
   57.8260   32.8240   47.0320 C   0  0  0  0  0  0  0  0  0  0  0  0
   59.0580   32.5500   47.9050 C   0  0  0  0  0  0  0  0  0  0  0  0
   59.9780   33.6880   47.8650 N   0  0  0  0  0  0  0  0  0  0  0  0
   61.3160   33.5420   48.3590 C   0  0  0  0  0  0  0  0  0  0  0  0
   62.3710   33.4360   47.4440 C   0  0  0  0  0  0  0  0  0  0  0  0
   63.6830   33.2830   47.8930 C   0  0  0  0  0  0  0  0  0  0  0  0
   63.9580   33.2210   49.2650 C   0  0  0  0  0  0  0  0  0  0  0  0
   65.3740   33.0870   49.7440 C   0  0  0  0  0  0  0  0  0  0  0  0
   62.9080   33.3510   50.1860 C   0  0  0  0  0  0  0  0  0  0  0  0
   61.5850   33.5220   49.7450 C   0  0  0  0  0  0  0  0  0  0  0  0
   60.4780   33.6300   50.7580 C   0  0  0  0  0  0  0  0  0  0  0  0
   59.5280   34.9740   47.3320 C   0  0  0  0  0  0  0  0  0  0  0  0
   58.8560   34.7960   45.9570 C   0  0  0  0  0  0  0  0  0  0  0  0
   60.5275   29.5416   47.3409 H   0  0  0  0  0  0  0  0  0  0  0  0
   60.2886   28.6754   45.7854 H   0  0  0  0  0  0  0  0  0  0  0  0
   60.8145   30.3930   45.7854 H   0  0  0  0  0  0  0  0  0  0  0  0
   57.0627   28.0791   46.4540 H   0  0  0  0  0  0  0  0  0  0  0  0
   56.0571   27.4425   45.1086 H   0  0  0  0  0  0  0  0  0  0  0  0
   57.8329   27.1718   45.1086 H   0  0  0  0  0  0  0  0  0  0  0  0
   55.9170   28.5286   43.0097 H   0  0  0  0  0  0  0  0  0  0  0  0
   56.0875   30.6726   41.7627 H   0  0  0  0  0  0  0  0  0  0  0  0
   57.4672   32.5361   42.6588 H   0  0  0  0  0  0  0  0  0  0  0  0
   59.8398   32.1745   45.4554 H   0  0  0  0  0  0  0  0  0  0  0  0
   59.3444   33.1437   44.0165 H   0  0  0  0  0  0  0  0  0  0  0  0
   57.1375   33.4828   47.5814 H   0  0  0  0  0  0  0  0  0  0  0  0
   57.3449   31.8622   46.8007 H   0  0  0  0  0  0  0  0  0  0  0  0
   58.7358   32.3813   48.9431 H   0  0  0  0  0  0  0  0  0  0  0  0
   59.5764   31.6597   47.5194 H   0  0  0  0  0  0  0  0  0  0  0  0
   62.1638   33.4736   46.3643 H   0  0  0  0  0  0  0  0  0  0  0  0
   64.5054   33.2107   47.1661 H   0  0  0  0  0  0  0  0  0  0  0  0
   65.3904   33.0854   50.8439 H   0  0  0  0  0  0  0  0  0  0  0  0
   65.8001   32.1445   49.3696 H   0  0  0  0  0  0  0  0  0  0  0  0
   65.9693   33.9328   49.3696 H   0  0  0  0  0  0  0  0  0  0  0  0
   63.1226   33.3187   51.2644 H   0  0  0  0  0  0  0  0  0  0  0  0
   60.9032   33.5885   51.7716 H   0  0  0  0  0  0  0  0  0  0  0  0
   59.9479   34.5841   50.6215 H   0  0  0  0  0  0  0  0  0  0  0  0
   59.7735   32.7963   50.6215 H   0  0  0  0  0  0  0  0  0  0  0  0
   58.8051   35.4201   48.0308 H   0  0  0  0  0  0  0  0  0  0  0  0
   60.4030   35.6299   47.2126 H   0  0  0  0  0  0  0  0  0  0  0  0
   58.0919   35.5791   45.8438 H   0  0  0  0  0  0  0  0  0  0  0  0
   59.6565   34.8652   45.2057 H   0  0  0  0  0  0  0  0  0  0  0  0
  1  2  1  0
  2  3  1  0
  3  4  2  0
  4  5  1  0
  4  6  1  0
  6  7  2  0
  7  8  1  0
  8  9  2  0
  9 10  1  0
 10 11  1  0
 11 12  1  0
 12 13  1  0
 13 14  1  0
 14 15  1  0
 15 16  2  0
 16 17  1  0
 17 18  2  0
 18 19  1  0
 18 20  1  0
 20 21  2  0
 21 22  1  0
 14 23  1  0
 23 24  1  0
  9  3  1  0
 24 11  1  0
 21 15  1  0
  1 25  1  0
  1 26  1  0
  1 27  1  0
  5 28  1  0
  5 29  1  0
  5 30  1  0
  6 31  1  0
  7 32  1  0
  8 33  1  0
 10 34  1  0
 10 35  1  0
 12 36  1  0
 12 37  1  0
 13 38  1  0
 13 39  1  0
 16 40  1  0
 17 41  1  0
 19 42  1  0
 19 43  1  0
 19 44  1  0
 20 45  1  0
 22 46  1  0
 22 47  1  0
 22 48  1  0
 23 49  1  0
 23 50  1  0
 24 51  1  0
 24 52  1  0
M  END
>  <UniqueID>  (28) 
28

>  <SMILES>  (28) 
COc1c(C)cccc1CN1CCN(c2ccc(C)cc2C)CC1

>  <Energy>  (28) 
70.91059175258805

>  <Genealogy>  (28) 
COc1c(C)cccc1CN1CCN(c2ccc(C)cc2C)CC1 (3D coordinates assigned)
COc1c(C)cccc1CN1CCN(c2ccc(C)cc2C)CC1 (nonaromatic ring conformer: 70.91059175258805 kcal/mol)

>  <smiles>  (28) 
COc1c(C)cccc1CN1CCN(c2ccc(C)cc2C)CC1

>  <score_type>  (28) 
oracle

>  <origin>  (28) 
adg

>  <m_score__min__energy>  (28) 
-7.9400000000000004

>  <m_primary>  (28) 
energy

$$$$
29:0
     RDKit          3D

 50 52  0  0  0  0  0  0  0  0999 V2000
   62.0240   33.8310   46.4160 C   0  0  0  0  0  0  0  0  0  0  0  0
   63.5170   33.5390   46.6000 C   0  0  0  0  0  0  0  0  0  0  0  0
   63.7670   32.4670   47.5990 N   0  0  1  0  0  0  0  0  0  0  0  0
   64.1180   33.0810   48.8950 C   0  0  0  0  0  0  0  0  0  0  0  0
   62.5730   31.5890   47.7370 C   0  0  0  0  0  0  0  0  0  0  0  0
   61.7660   31.8250   49.0370 C   0  0  0  0  0  0  0  0  0  0  0  0
   60.3100   31.6690   48.8940 N   0  0  0  0  0  0  0  0  0  0  0  0
   59.6210   31.4110   47.6590 C   0  0  0  0  0  0  0  0  0  0  0  0
   59.0900   32.4710   46.8860 C   0  0  0  0  0  0  0  0  0  0  0  0
   59.0900   33.7930   47.3740 C   0  0  0  0  0  0  0  0  0  0  0  0
   58.5870   34.8390   46.6030 C   0  0  0  0  0  0  0  0  0  0  0  0
   58.0640   34.5880   45.3400 C   0  0  0  0  0  0  0  0  0  0  0  0
   58.0250   33.2860   44.8430 C   0  0  0  0  0  0  0  0  0  0  0  0
   58.5270   32.1990   45.6000 C   0  0  0  0  0  0  0  0  0  0  0  0
   58.4730   30.9020   45.1240 N   0  0  0  0  0  0  0  0  0  0  0  0
   57.9400   30.6080   43.7800 C   0  0  0  0  0  0  0  0  0  0  0  0
   58.9010   29.8850   45.9360 C   0  0  0  0  0  0  0  0  0  0  0  0
   58.8630   28.2330   45.6080 S   0  0  0  0  0  0  0  0  0  0  0  0
   59.5460   27.7500   47.0640 C   0  0  0  0  0  0  0  0  0  0  0  0
   59.7840   26.3210   47.4350 C   0  0  0  0  0  0  0  0  0  0  0  0
   59.8190   28.8810   47.8480 C   0  0  0  0  0  0  0  0  0  0  0  0
   60.3680   28.7800   49.2480 C   0  0  0  0  0  0  0  0  0  0  0  0
   59.4570   30.0930   47.1950 C   0  0  0  0  0  0  0  0  0  0  0  0
   61.5445   33.9248   47.4016 H   0  0  0  0  0  0  0  0  0  0  0  0
   61.9002   34.7704   45.8572 H   0  0  0  0  0  0  0  0  0  0  0  0
   61.5555   33.0075   45.8572 H   0  0  0  0  0  0  0  0  0  0  0  0
   63.9372   33.2254   45.6330 H   0  0  0  0  0  0  0  0  0  0  0  0
   63.9951   34.4585   46.9687 H   0  0  0  0  0  0  0  0  0  0  0  0
   64.5910   31.9060   47.2880 H   0  0  0  0  0  0  0  0  0  0  0  0
   63.7534   32.4432   49.7137 H   0  0  0  0  0  0  0  0  0  0  0  0
   65.2108   33.1829   48.9685 H   0  0  0  0  0  0  0  0  0  0  0  0
   63.6513   34.0744   48.9685 H   0  0  0  0  0  0  0  0  0  0  0  0
   61.9086   31.7710   46.8794 H   0  0  0  0  0  0  0  0  0  0  0  0
   62.9416   30.5533   47.7743 H   0  0  0  0  0  0  0  0  0  0  0  0
   62.1151   31.1055   49.7923 H   0  0  0  0  0  0  0  0  0  0  0  0
   61.9393   32.8726   49.3243 H   0  0  0  0  0  0  0  0  0  0  0  0
   59.7240   31.9480   49.7130 H   0  0  0  0  0  0  0  0  0  0  0  0
   59.4922   34.0018   48.3763 H   0  0  0  0  0  0  0  0  0  0  0  0
   58.6039   35.8666   46.9952 H   0  0  0  0  0  0  0  0  0  0  0  0
   57.6796   35.4192   44.7306 H   0  0  0  0  0  0  0  0  0  0  0  0
   57.5974   33.0998   43.8468 H   0  0  0  0  0  0  0  0  0  0  0  0
   56.9803   30.0786   43.8739 H   0  0  0  0  0  0  0  0  0  0  0  0
   57.7874   31.5495   43.2321 H   0  0  0  0  0  0  0  0  0  0  0  0
   58.6549   29.9766   43.2321 H   0  0  0  0  0  0  0  0  0  0  0  0
   59.8001   26.2244   48.5306 H   0  0  0  0  0  0  0  0  0  0  0  0
   58.9775   25.6962   47.0236 H   0  0  0  0  0  0  0  0  0  0  0  0
   60.7494   25.9913   47.0236 H   0  0  0  0  0  0  0  0  0  0  0  0
   59.5541   28.9297   49.9727 H   0  0  0  0  0  0  0  0  0  0  0  0
   60.8128   27.7850   49.3965 H   0  0  0  0  0  0  0  0  0  0  0  0
   61.1378   29.5516   49.3965 H   0  0  0  0  0  0  0  0  0  0  0  0
  1  2  1  0
  2  3  1  0
  3  4  1  0
  3  5  1  0
  5  6  1  0
  6  7  1  0
  7  8  1  0
  8  9  2  0
  9 10  1  0
 10 11  2  0
 11 12  1  0
 12 13  2  0
 13 14  1  0
 14 15  2  0
 15 16  1  0
 15 17  1  0
 17 18  1  0
 18 19  1  0
 19 20  1  0
 19 21  2  0
 21 22  1  0
 21 23  1  0
 23  8  1  0
 14  9  1  0
 23 17  2  0
  1 24  1  0
  1 25  1  0
  1 26  1  0
  2 27  1  0
  2 28  1  0
  3 29  1  6
  4 30  1  0
  4 31  1  0
  4 32  1  0
  5 33  1  0
  5 34  1  0
  6 35  1  0
  6 36  1  0
  7 37  1  0
 10 38  1  0
 11 39  1  0
 12 40  1  0
 13 41  1  0
 16 42  1  0
 16 43  1  0
 16 44  1  0
 20 45  1  0
 20 46  1  0
 20 47  1  0
 22 48  1  0
 22 49  1  0
 22 50  1  0
M  CHG  2   3   1  15   1
M  END
>  <UniqueID>  (29) 
29

>  <SMILES>  (29) 
CC[N@@H+](C)CCNc1c2ccccc2[n+](C)c2sc(C)c(C)c12

>  <Energy>  (29) 
99.81842388304133

>  <Genealogy>  (29) 
CC[NH+](C)CCNc1c2ccccc2[n+](C)c2sc(C)c(C)c12 (protonated)
CC[N@@H+](C)CCNc1c2ccccc2[n+](C)c2sc(C)c(C)c12 (chirality)
CC[N@@H+](C)CCNc1c2ccccc2[n+](C)c2sc(C)c(C)c12 (3D coordinates assigned)
CC[N@@H+](C)CCNc1c2ccccc2[n+](C)c2sc(C)c(C)c12 (optimized conformer: 99.81842388304133 kcal/mol)

>  <smiles>  (29) 
CCN(C)CCNc1c2ccccc2[n+](C)c2sc(C)c(C)c12

>  <score_type>  (29) 
oracle

>  <origin>  (29) 
adg

>  <m_score__min__energy>  (29) 
-4.9500000000000002

>  <m_primary>  (29) 
energy

$$$$
30:0
     RDKit          3D

 53 55  0  0  0  0  0  0  0  0999 V2000
   59.5810   27.5910   47.0120 C   0  0  0  0  0  0  0  0  0  0  0  0
   59.7920   27.7400   45.5630 N   0  0  0  0  0  0  0  0  0  0  0  0
   58.5890   27.3790   44.7700 C   0  0  0  0  0  0  0  0  0  0  0  0
   57.9030   28.5890   44.1050 C   0  0  0  0  0  0  0  0  0  0  0  0
   57.9050   29.7490   45.0130 N   0  0  0  0  0  0  0  0  0  0  0  0
   57.1270   30.8260   44.4230 C   0  0  0  0  0  0  0  0  0  0  0  0
   55.9070   30.8110   44.5020 O   0  0  0  0  0  0  0  0  0  0  0  0
   57.8090   32.0540   43.8520 C   0  0  0  0  0  0  0  0  0  0  0  0
   57.6130   33.2830   44.6480 N   0  0  0  0  0  0  0  0  0  0  0  0
   57.0200   33.1240   45.9910 C   0  0  0  0  0  0  0  0  0  0  0  0
   58.0790   33.0830   47.0970 C   0  0  0  0  0  0  0  0  0  0  0  0
   59.0280   34.2870   47.0040 C   0  0  0  0  0  0  0  0  0  0  0  0
   60.0770   34.2960   48.1440 C   0  0  0  0  0  0  0  0  0  0  0  0
   61.2570   33.3790   47.9040 C   0  0  0  0  0  0  0  0  0  0  0  0
   61.0600   31.9970   47.7260 C   0  0  0  0  0  0  0  0  0  0  0  0
   62.1480   31.1540   47.4650 C   0  0  0  0  0  0  0  0  0  0  0  0
   63.4390   31.6830   47.3900 C   0  0  0  0  0  0  0  0  0  0  0  0
   63.6460   33.0530   47.5780 C   0  0  0  0  0  0  0  0  0  0  0  0
   62.5610   33.8990   47.8360 C   0  0  0  0  0  0  0  0  0  0  0  0
   59.6790   34.3350   45.6140 C   0  0  0  0  0  0  0  0  0  0  0  0
   58.6200   34.3550   44.5040 C   0  0  0  0  0  0  0  0  0  0  0  0
   59.2850   30.1920   45.3480 C   0  0  0  0  0  0  0  0  0  0  0  0
   60.3360   29.0660   45.2210 C   0  0  0  0  0  0  0  0  0  0  0  0
   60.3624   28.1428   47.5550 H   0  0  0  0  0  0  0  0  0  0  0  0
   58.5933   27.9931   47.2820 H   0  0  0  0  0  0  0  0  0  0  0  0
   59.6295   26.5257   47.2820 H   0  0  0  0  0  0  0  0  0  0  0  0
   58.8907   26.6736   43.9817 H   0  0  0  0  0  0  0  0  0  0  0  0
   57.8619   26.9393   45.4685 H   0  0  0  0  0  0  0  0  0  0  0  0
   58.4441   28.8501   43.1835 H   0  0  0  0  0  0  0  0  0  0  0  0
   56.8615   28.3226   43.8718 H   0  0  0  0  0  0  0  0  0  0  0  0
   57.4360   29.4540   45.9010 H   0  0  0  0  0  0  0  0  0  0  0  0
   58.8885   31.8515   43.7908 H   0  0  0  0  0  0  0  0  0  0  0  0
   57.3527   32.2393   42.8684 H   0  0  0  0  0  0  0  0  0  0  0  0
   56.3438   33.9706   46.1809 H   0  0  0  0  0  0  0  0  0  0  0  0
   56.4810   32.1653   46.0077 H   0  0  0  0  0  0  0  0  0  0  0  0
   57.5764   33.0973   48.0754 H   0  0  0  0  0  0  0  0  0  0  0  0
   58.6710   32.1636   46.9777 H   0  0  0  0  0  0  0  0  0  0  0  0
   58.4349   35.2038   47.1375 H   0  0  0  0  0  0  0  0  0  0  0  0
   60.4548   35.3228   48.2579 H   0  0  0  0  0  0  0  0  0  0  0  0
   59.5677   33.9285   49.0471 H   0  0  0  0  0  0  0  0  0  0  0  0
   60.0458   31.5762   47.7922 H   0  0  0  0  0  0  0  0  0  0  0  0
   61.9859   30.0758   47.3191 H   0  0  0  0  0  0  0  0  0  0  0  0
   64.2930   31.0213   47.1829 H   0  0  0  0  0  0  0  0  0  0  0  0
   64.6637   33.4669   47.5230 H   0  0  0  0  0  0  0  0  0  0  0  0
   62.7297   34.9756   47.9862 H   0  0  0  0  0  0  0  0  0  0  0  0
   60.2953   35.2430   45.5379 H   0  0  0  0  0  0  0  0  0  0  0  0
   60.2973   33.4339   45.4884 H   0  0  0  0  0  0  0  0  0  0  0  0
   58.1042   35.3262   44.5290 H   0  0  0  0  0  0  0  0  0  0  0  0
   59.1408   34.1914   43.5490 H   0  0  0  0  0  0  0  0  0  0  0  0
   59.5645   31.0090   44.6666 H   0  0  0  0  0  0  0  0  0  0  0  0
   59.2777   30.5138   46.3998 H   0  0  0  0  0  0  0  0  0  0  0  0
   60.7005   29.0401   44.1835 H   0  0  0  0  0  0  0  0  0  0  0  0
   61.1466   29.2861   45.9312 H   0  0  0  0  0  0  0  0  0  0  0  0
  1  2  1  0
  2  3  1  0
  3  4  1  0
  4  5  1  0
  5  6  1  0
  6  7  2  0
  6  8  1  0
  8  9  1  0
  9 10  1  0
 10 11  1  0
 11 12  1  0
 12 13  1  0
 13 14  1  0
 14 15  2  0
 15 16  1  0
 16 17  2  0
 17 18  1  0
 18 19  2  0
 12 20  1  0
 20 21  1  0
  5 22  1  0
 22 23  1  0
 23  2  1  0
 21  9  1  0
 19 14  1  0
  1 24  1  0
  1 25  1  0
  1 26  1  0
  3 27  1  0
  3 28  1  0
  4 29  1  0
  4 30  1  0
  5 31  1  0
  8 32  1  0
  8 33  1  0
 10 34  1  0
 10 35  1  0
 11 36  1  0
 11 37  1  0
 12 38  1  0
 13 39  1  0
 13 40  1  0
 15 41  1  0
 16 42  1  0
 17 43  1  0
 18 44  1  0
 19 45  1  0
 20 46  1  0
 20 47  1  0
 21 48  1  0
 21 49  1  0
 22 50  1  0
 22 51  1  0
 23 52  1  0
 23 53  1  0
M  CHG  1   5   1
M  END
>  <UniqueID>  (30) 
30

>  <SMILES>  (30) 
CN1CC[NH+](C(=O)CN2CCC(Cc3ccccc3)CC2)CC1

>  <Energy>  (30) 
68.36563363487215

>  <Genealogy>  (30) 
CN1CC[NH+](C(=O)CN2CCC(Cc3ccccc3)CC2)CC1 (protonated)
CN1CC[NH+](C(=O)CN2CCC(Cc3ccccc3)CC2)CC1 (3D coordinates assigned)
CN1CC[NH+](C(=O)CN2CCC(Cc3ccccc3)CC2)CC1 (nonaromatic ring conformer: 68.36563363487215 kcal/mol)

>  <smiles>  (30) 
CN1CCN(C(=O)CN2CCC(Cc3ccccc3)CC2)CC1

>  <score_type>  (30) 
oracle

>  <origin>  (30) 
adg

>  <m_score__min__energy>  (30) 
-6.8300000000000001

>  <m_primary>  (30) 
energy

$$$$
31:0
     RDKit          3D

 57 60  0  0  0  0  0  0  0  0999 V2000
   58.5330   32.3530   49.6230 C   0  0  0  0  0  0  0  0  0  0  0  0
   59.6680   31.4270   50.0740 C   0  0  0  0  0  0  0  0  0  0  0  0
   60.9980   32.0000   49.7950 N   0  0  0  0  0  0  0  0  0  0  0  0
   61.1010   33.4240   50.1720 C   0  0  0  0  0  0  0  0  0  0  0  0
   62.1010   34.1870   49.2800 C   0  0  0  0  0  0  0  0  0  0  0  0
   62.6090   33.3350   48.1780 N   0  0  0  0  0  0  0  0  0  0  0  0
   64.0750   33.2160   48.2770 C   0  0  0  0  0  0  0  0  0  0  0  0
   62.2250   33.8510   46.8410 C   0  0  0  0  0  0  0  0  0  0  0  0
   60.7520   33.6500   46.6000 C   0  0  0  0  0  0  0  0  0  0  0  0
   59.8900   34.7520   46.4980 C   0  0  0  0  0  0  0  0  0  0  0  0
   58.5280   34.5610   46.2560 C   0  0  0  0  0  0  0  0  0  0  0  0
   58.0150   33.2700   46.1030 C   0  0  0  0  0  0  0  0  0  0  0  0
   58.8650   32.1530   46.1870 C   0  0  0  0  0  0  0  0  0  0  0  0
   58.3250   30.7810   46.0280 C   0  0  0  0  0  0  0  0  0  0  0  0
   57.4560   30.4720   44.9680 C   0  0  0  0  0  0  0  0  0  0  0  0
   56.9510   29.1780   44.8190 C   0  0  0  0  0  0  0  0  0  0  0  0
   57.2990   28.1660   45.7300 C   0  0  0  0  0  0  0  0  0  0  0  0
   56.7580   26.7980   45.5770 C   0  0  0  0  0  0  0  0  0  0  0  0
   57.4630   25.7820   45.0060 N   0  0  0  0  0  0  0  0  0  0  0  0
   56.6070   24.7530   45.0740 C   0  0  0  0  0  0  0  0  0  0  0  0
   56.8070   23.4470   44.6360 C   0  0  0  0  0  0  0  0  0  0  0  0
   55.7540   22.5290   44.8150 C   0  0  0  0  0  0  0  0  0  0  0  0
   55.8990   21.2460   44.4020 F   0  0  0  0  0  0  0  0  0  0  0  0
   54.5450   22.9410   45.4220 C   0  0  0  0  0  0  0  0  0  0  0  0
   54.3830   24.2700   45.8570 C   0  0  0  0  0  0  0  0  0  0  0  0
   55.4450   25.1470   45.6600 C   0  0  0  0  0  0  0  0  0  0  0  0
   55.5110   26.4450   45.9920 N   0  0  0  0  0  0  0  0  0  0  0  0
   58.1650   28.4750   46.7920 C   0  0  0  0  0  0  0  0  0  0  0  0
   58.6730   29.7690   46.9390 C   0  0  0  0  0  0  0  0  0  0  0  0
   60.2370   32.3560   46.4260 C   0  0  0  0  0  0  0  0  0  0  0  0
   58.0250   32.7674   50.5063 H   0  0  0  0  0  0  0  0  0  0  0  0
   58.9475   33.1740   49.0195 H   0  0  0  0  0  0  0  0  0  0  0  0
   57.8119   31.7822   49.0195 H   0  0  0  0  0  0  0  0  0  0  0  0
   59.5762   31.2553   51.1566 H   0  0  0  0  0  0  0  0  0  0  0  0
   59.5805   30.4862   49.5108 H   0  0  0  0  0  0  0  0  0  0  0  0
   61.2050   31.8910   48.7750 H   0  0  0  0  0  0  0  0  0  0  0  0
   61.7300   31.4580   50.3090 H   0  0  0  0  0  0  0  0  0  0  0  0
   60.1096   33.8901   50.0731 H   0  0  0  0  0  0  0  0  0  0  0  0
   61.4633   33.4754   51.2094 H   0  0  0  0  0  0  0  0  0  0  0  0
   61.5975   35.0651   48.8494 H   0  0  0  0  0  0  0  0  0  0  0  0
   62.9556   34.4905   49.9025 H   0  0  0  0  0  0  0  0  0  0  0  0
   64.3702   33.1920   49.3364 H   0  0  0  0  0  0  0  0  0  0  0  0
   64.4017   32.2884   47.7842 H   0  0  0  0  0  0  0  0  0  0  0  0
   64.5470   34.0788   47.7842 H   0  0  0  0  0  0  0  0  0  0  0  0
   62.4572   34.9249   46.7873 H   0  0  0  0  0  0  0  0  0  0  0  0
   62.7889   33.3017   46.0727 H   0  0  0  0  0  0  0  0  0  0  0  0
   60.2887   35.7712   46.6091 H   0  0  0  0  0  0  0  0  0  0  0  0
   57.8567   35.4295   46.1856 H   0  0  0  0  0  0  0  0  0  0  0  0
   56.9405   33.1269   45.9159 H   0  0  0  0  0  0  0  0  0  0  0  0
   57.1711   31.2551   44.2499 H   0  0  0  0  0  0  0  0  0  0  0  0
   56.2753   28.9493   43.9816 H   0  0  0  0  0  0  0  0  0  0  0  0
   57.7541   23.1426   44.1666 H   0  0  0  0  0  0  0  0  0  0  0  0
   53.7262   22.2186   45.5551 H   0  0  0  0  0  0  0  0  0  0  0  0
   53.4502   24.6032   46.3355 H   0  0  0  0  0  0  0  0  0  0  0  0
   58.4454   27.6931   47.5131 H   0  0  0  0  0  0  0  0  0  0  0  0
   59.3508   29.9971   47.7748 H   0  0  0  0  0  0  0  0  0  0  0  0
   60.9137   31.4903   46.4770 H   0  0  0  0  0  0  0  0  0  0  0  0
  1  2  1  0
  2  3  1  0
  3  4  1  0
  4  5  1  0
  5  6  1  0
  6  7  1  0
  6  8  1  0
  8  9  1  0
  9 10  2  0
 10 11  1  0
 11 12  2  0
 12 13  1  0
 13 14  1  0
 14 15  2  0
 15 16  1  0
 16 17  2  0
 17 18  1  0
 18 19  2  0
 19 20  1  0
 20 21  2  0
 21 22  1  0
 22 23  1  0
 22 24  2  0
 24 25  1  0
 25 26  2  0
 26 27  1  0
 17 28  1  0
 28 29  2  0
 13 30  2  0
 30  9  1  0
 29 14  1  0
 27 18  1  0
 26 20  1  0
  1 31  1  0
  1 32  1  0
  1 33  1  0
  2 34  1  0
  2 35  1  0
  3 36  1  0
  3 37  1  0
  4 38  1  0
  4 39  1  0
  5 40  1  0
  5 41  1  0
  7 42  1  0
  7 43  1  0
  7 44  1  0
  8 45  1  0
  8 46  1  0
 10 47  1  0
 11 48  1  0
 12 49  1  0
 15 50  1  0
 16 51  1  0
 21 52  1  0
 24 53  1  0
 25 54  1  0
 28 55  1  0
 29 56  1  0
 30 57  1  0
M  CHG  2   3   1  27  -1
M  END
>  <UniqueID>  (31) 
31

>  <SMILES>  (31) 
CC[NH2+]CCN(C)Cc1cccc(-c2ccc(-c3nc4cc(F)ccc4[n-]3)cc2)c1

>  <Energy>  (31) 
102.02803340052145

>  <Genealogy>  (31) 
CC[NH2+]CCN(C)Cc1cccc(-c2ccc(-c3nc4cc(F)ccc4[n-]3)cc2)c1 (protonated)
CC[NH2+]CCN(C)Cc1cccc(-c2ccc(-c3nc4cc(F)ccc4[n-]3)cc2)c1 (3D coordinates assigned)
CC[NH2+]CCN(C)Cc1cccc(-c2ccc(-c3nc4cc(F)ccc4[n-]3)cc2)c1 (optimized conformer: 102.02803340052145 kcal/mol)

>  <smiles>  (31) 
CCNCCN(C)Cc1cccc(-c2ccc(-c3nc4cc(F)ccc4[nH]3)cc2)c1

>  <score_type>  (31) 
oracle

>  <origin>  (31) 
adg

>  <m_score__min__energy>  (31) 
-8.4199999999999999

>  <m_primary>  (31) 
energy

$$$$
32:0
     RDKit          3D

 50 53  0  0  0  0  0  0  0  0999 V2000
   62.7110   33.9510   48.9830 C   0  0  0  0  0  0  0  0  0  0  0  0
   62.5890   33.1830   47.7330 N   0  0  0  0  0  0  0  0  0  0  0  0
   63.3950   33.8280   46.6810 C   0  0  0  0  0  0  0  0  0  0  0  0
   63.0160   31.7830   47.9510 C   0  0  0  0  0  0  0  0  0  0  0  0
   61.8540   30.8000   47.7300 C   0  0  0  0  0  0  0  0  0  0  0  0
   60.5570   31.4170   48.0550 N   0  0  0  0  0  0  0  0  0  0  0  0
   59.6690   31.3710   46.9030 C   0  0  0  0  0  0  0  0  0  0  0  0
   59.3690   32.5550   46.1770 C   0  0  0  0  0  0  0  0  0  0  0  0
   60.0150   33.7860   46.4580 C   0  0  0  0  0  0  0  0  0  0  0  0
   59.6430   34.9590   45.8070 C   0  0  0  0  0  0  0  0  0  0  0  0
   58.6210   34.9400   44.8710 C   0  0  0  0  0  0  0  0  0  0  0  0
   58.0010   33.7390   44.5380 C   0  0  0  0  0  0  0  0  0  0  0  0
   58.3980   32.5150   45.1380 C   0  0  0  0  0  0  0  0  0  0  0  0
   57.8530   31.3120   44.7370 N   0  0  0  0  0  0  0  0  0  0  0  0
   57.0920   31.2340   43.4680 C   0  0  0  0  0  0  0  0  0  0  0  0
   58.0670   30.1670   45.4810 C   0  0  0  0  0  0  0  0  0  0  0  0
   57.3230   28.9840   45.2360 C   0  0  0  0  0  0  0  0  0  0  0  0
   57.6100   27.7910   45.9040 C   0  0  0  0  0  0  0  0  0  0  0  0
   56.8800   26.6220   45.6280 C   0  0  0  0  0  0  0  0  0  0  0  0
   57.1920   25.4280   46.2830 C   0  0  0  0  0  0  0  0  0  0  0  0
   58.2300   25.3910   47.2150 C   0  0  0  0  0  0  0  0  0  0  0  0
   58.9590   26.5490   47.5010 C   0  0  0  0  0  0  0  0  0  0  0  0
   58.6490   27.7560   46.8510 C   0  0  0  0  0  0  0  0  0  0  0  0
   59.3520   28.9270   47.1500 C   0  0  0  0  0  0  0  0  0  0  0  0
   59.0370   30.1560   46.5210 C   0  0  0  0  0  0  0  0  0  0  0  0
   62.6032   33.2726   49.8422 H   0  0  0  0  0  0  0  0  0  0  0  0
   63.6975   34.4362   49.0204 H   0  0  0  0  0  0  0  0  0  0  0  0
   61.9234   34.7180   49.0204 H   0  0  0  0  0  0  0  0  0  0  0  0
   64.1735   34.4510   47.1457 H   0  0  0  0  0  0  0  0  0  0  0  0
   63.8677   33.0560   46.0561 H   0  0  0  0  0  0  0  0  0  0  0  0
   62.7454   34.4585   46.0561 H   0  0  0  0  0  0  0  0  0  0  0  0
   63.8267   31.5426   47.2474 H   0  0  0  0  0  0  0  0  0  0  0  0
   63.3593   31.6842   48.9914 H   0  0  0  0  0  0  0  0  0  0  0  0
   61.8466   30.4863   46.6757 H   0  0  0  0  0  0  0  0  0  0  0  0
   62.0015   29.9357   48.3942 H   0  0  0  0  0  0  0  0  0  0  0  0
   60.1280   30.9510   48.8840 H   0  0  0  0  0  0  0  0  0  0  0  0
   60.6860   32.3980   48.3870 H   0  0  0  0  0  0  0  0  0  0  0  0
   60.8238   33.8144   47.2030 H   0  0  0  0  0  0  0  0  0  0  0  0
   60.1609   35.9021   46.0358 H   0  0  0  0  0  0  0  0  0  0  0  0
   58.2992   35.8757   44.3904 H   0  0  0  0  0  0  0  0  0  0  0  0
   57.1886   33.7382   43.7964 H   0  0  0  0  0  0  0  0  0  0  0  0
   56.0201   31.1241   43.6894 H   0  0  0  0  0  0  0  0  0  0  0  0
   57.2539   32.1534   42.8863 H   0  0  0  0  0  0  0  0  0  0  0  0
   57.4370   30.3665   42.8863 H   0  0  0  0  0  0  0  0  0  0  0  0
   56.5022   29.0066   44.5040 H   0  0  0  0  0  0  0  0  0  0  0  0
   56.0608   26.6473   44.8943 H   0  0  0  0  0  0  0  0  0  0  0  0
   56.6184   24.5154   46.0636 H   0  0  0  0  0  0  0  0  0  0  0  0
   58.4752   24.4482   47.7259 H   0  0  0  0  0  0  0  0  0  0  0  0
   59.7767   26.5155   48.2360 H   0  0  0  0  0  0  0  0  0  0  0  0
   60.1663   28.8929   47.8888 H   0  0  0  0  0  0  0  0  0  0  0  0
  1  2  1  0
  2  3  1  0
  2  4  1  0
  4  5  1  0
  5  6  1  0
  6  7  1  0
  7  8  2  0
  8  9  1  0
  9 10  2  0
 10 11  1  0
 11 12  2  0
 12 13  1  0
 13 14  2  0
 14 15  1  0
 14 16  1  0
 16 17  2  0
 17 18  1  0
 18 19  2  0
 19 20  1  0
 20 21  2  0
 21 22  1  0
 22 23  2  0
 23 24  1  0
 24 25  2  0
 25  7  1  0
 13  8  1  0
 25 16  1  0
 23 18  1  0
  1 26  1  0
  1 27  1  0
  1 28  1  0
  3 29  1  0
  3 30  1  0
  3 31  1  0
  4 32  1  0
  4 33  1  0
  5 34  1  0
  5 35  1  0
  6 36  1  0
  6 37  1  0
  9 38  1  0
 10 39  1  0
 11 40  1  0
 12 41  1  0
 15 42  1  0
 15 43  1  0
 15 44  1  0
 17 45  1  0
 19 46  1  0
 20 47  1  0
 21 48  1  0
 22 49  1  0
 24 50  1  0
M  CHG  2   6   1  14   1
M  END
>  <UniqueID>  (32) 
32

>  <SMILES>  (32) 
CN(C)CC[NH2+]c1c2ccccc2[n+](C)c2cc3ccccc3cc12

>  <Energy>  (32) 
84.48769637224134

>  <Genealogy>  (32) 
CN(C)CC[NH2+]c1c2ccccc2[n+](C)c2cc3ccccc3cc12 (protonated)
CN(C)CC[NH2+]c1c2ccccc2[n+](C)c2cc3ccccc3cc12 (3D coordinates assigned)
CN(C)CC[NH2+]c1c2ccccc2[n+](C)c2cc3ccccc3cc12 (optimized conformer: 84.48769637224134 kcal/mol)

>  <smiles>  (32) 
CN(C)CCNc1c2ccccc2[n+](C)c2cc3ccccc3cc12

>  <score_type>  (32) 
oracle

>  <origin>  (32) 
adg

>  <m_score__min__energy>  (32) 
-4.8899999999999997

>  <m_primary>  (32) 
energy

$$$$
33:0
     RDKit          3D

 47 49  0  0  0  0  0  0  0  0999 V2000
   56.2300   23.6690   43.7170 C   0  0  0  0  0  0  0  0  0  0  0  0
   57.3490   24.6570   43.3570 C   0  0  0  0  0  0  0  0  0  0  0  0
   57.4250   25.8500   44.2380 N   0  0  0  0  0  0  0  0  0  0  0  0
   58.1300   25.6220   45.5250 C   0  0  0  0  0  0  0  0  0  0  0  0
   57.3160   26.0880   46.7380 C   0  0  0  0  0  0  0  0  0  0  0  0
   58.0000   26.9760   43.5220 C   0  0  0  0  0  0  0  0  0  0  0  0
   58.4860   26.8130   42.3660 O   0  0  0  0  0  0  0  0  0  0  0  0
   57.9810   28.3390   44.0950 C   0  0  0  0  0  0  0  0  0  0  0  0
   58.7890   28.7770   45.1500 C   0  0  0  0  0  0  0  0  0  0  0  0
   58.5590   30.1200   45.4740 C   0  0  0  0  0  0  0  0  0  0  0  0
   59.1780   30.8780   46.4660 C   0  0  0  0  0  0  0  0  0  0  0  0
   60.0590   30.3440   47.1950 O   0  0  0  0  0  0  0  0  0  0  0  0
   58.8130   32.1990   46.6380 N   0  0  0  0  0  0  0  0  0  0  0  0
   59.4540   33.0020   47.7040 C   0  0  0  0  0  0  0  0  0  0  0  0
   60.9530   33.0420   47.5360 C   0  0  0  0  0  0  0  0  0  0  0  0
   61.7850   32.3370   48.4240 C   0  0  0  0  0  0  0  0  0  0  0  0
   63.1740   32.3880   48.2820 C   0  0  0  0  0  0  0  0  0  0  0  0
   63.7460   33.1510   47.2600 C   0  0  0  0  0  0  0  0  0  0  0  0
   62.9290   33.8690   46.3840 C   0  0  0  0  0  0  0  0  0  0  0  0
   61.5390   33.8200   46.5220 C   0  0  0  0  0  0  0  0  0  0  0  0
   57.8360   32.7530   45.8200 C   0  0  0  0  0  0  0  0  0  0  0  0
   57.3920   34.1830   45.9550 C   0  0  0  0  0  0  0  0  0  0  0  0
   57.2380   31.9990   44.8530 N   0  0  0  0  0  0  0  0  0  0  0  0
   57.6010   30.7110   44.6930 C   0  0  0  0  0  0  0  0  0  0  0  0
   56.9950   29.6200   43.5750 S   0  0  0  0  0  0  0  0  0  0  0  0
   56.1451   23.5940   44.8111 H   0  0  0  0  0  0  0  0  0  0  0  0
   55.2772   24.0259   43.2989 H   0  0  0  0  0  0  0  0  0  0  0  0
   56.4661   22.6793   43.2989 H   0  0  0  0  0  0  0  0  0  0  0  0
   58.3096   24.1244   43.4164 H   0  0  0  0  0  0  0  0  0  0  0  0
   57.1246   25.0286   42.3463 H   0  0  0  0  0  0  0  0  0  0  0  0
   56.4410   26.1090   44.4860 H   0  0  0  0  0  0  0  0  0  0  0  0
   58.3319   24.5457   45.6295 H   0  0  0  0  0  0  0  0  0  0  0  0
   59.0589   26.2107   45.5031 H   0  0  0  0  0  0  0  0  0  0  0  0
   57.8334   25.7918   47.6625 H   0  0  0  0  0  0  0  0  0  0  0  0
   57.2116   27.1827   46.7109 H   0  0  0  0  0  0  0  0  0  0  0  0
   56.3191   25.6238   46.7109 H   0  0  0  0  0  0  0  0  0  0  0  0
   59.5215   28.1391   45.6662 H   0  0  0  0  0  0  0  0  0  0  0  0
   59.0617   34.0289   47.6637 H   0  0  0  0  0  0  0  0  0  0  0  0
   59.2263   32.5354   48.6737 H   0  0  0  0  0  0  0  0  0  0  0  0
   61.3397   31.7420   49.2350 H   0  0  0  0  0  0  0  0  0  0  0  0
   63.8181   31.8271   48.9752 H   0  0  0  0  0  0  0  0  0  0  0  0
   64.8395   33.1859   47.1457 H   0  0  0  0  0  0  0  0  0  0  0  0
   63.3803   34.4742   45.5839 H   0  0  0  0  0  0  0  0  0  0  0  0
   60.9003   34.3930   45.8338 H   0  0  0  0  0  0  0  0  0  0  0  0
   57.3113   34.4428   47.0208 H   0  0  0  0  0  0  0  0  0  0  0  0
   58.1277   34.8426   45.4715 H   0  0  0  0  0  0  0  0  0  0  0  0
   56.4122   34.3099   45.4715 H   0  0  0  0  0  0  0  0  0  0  0  0
  1  2  1  0
  2  3  1  0
  3  4  1  0
  4  5  1  0
  3  6  1  0
  6  7  2  0
  6  8  1  0
  8  9  2  0
  9 10  1  0
 10 11  1  0
 11 12  2  0
 11 13  1  0
 13 14  1  0
 14 15  1  0
 15 16  2  0
 16 17  1  0
 17 18  2  0
 18 19  1  0
 19 20  2  0
 13 21  1  0
 21 22  1  0
 21 23  2  0
 23 24  1  0
 24 25  1  0
 25  8  1  0
 24 10  2  0
 20 15  1  0
  1 26  1  0
  1 27  1  0
  1 28  1  0
  2 29  1  0
  2 30  1  0
  3 31  1  0
  4 32  1  0
  4 33  1  0
  5 34  1  0
  5 35  1  0
  5 36  1  0
  9 37  1  0
 14 38  1  0
 14 39  1  0
 16 40  1  0
 17 41  1  0
 18 42  1  0
 19 43  1  0
 20 44  1  0
 22 45  1  0
 22 46  1  0
 22 47  1  0
M  CHG  1   3   1
M  END
>  <UniqueID>  (33) 
33

>  <SMILES>  (33) 
CC[NH+](CC)C(=O)c1cc2c(=O)n(Cc3ccccc3)c(C)nc2s1

>  <Energy>  (33) 
88.40072611038461

>  <Genealogy>  (33) 
CC[NH+](CC)C(=O)c1cc2c(=O)n(Cc3ccccc3)c(C)nc2s1 (protonated)
CC[NH+](CC)C(=O)c1cc2c(=O)n(Cc3ccccc3)c(C)nc2s1 (3D coordinates assigned)
CC[NH+](CC)C(=O)c1cc2c(=O)n(Cc3ccccc3)c(C)nc2s1 (optimized conformer: 88.40072611038461 kcal/mol)

>  <smiles>  (33) 
CCN(CC)C(=O)c1cc2c(=O)n(Cc3ccccc3)c(C)nc2s1

>  <score_type>  (33) 
oracle

>  <origin>  (33) 
adg

>  <m_score__min__energy>  (33) 
-6.6100000000000003

>  <m_primary>  (33) 
energy

$$$$
34:0
     RDKit          3D

 28 28  0  0  0  0  0  0  0  0999 V2000
   52.7512   23.7633   44.9505 H   0  0  0  0  0  0  0  0  0  0  0  0
   53.8180   24.0310   44.9310 C   0  0  0  0  0  0  0  0  0  0  0  0
   54.2900   25.0030   45.7580 N   0  0  0  0  0  0  0  0  0  0  0  0
   55.6000   25.3730   45.7730 C   0  0  0  0  0  0  0  0  0  0  0  0
   55.9690   26.3120   46.6000 N   0  0  0  0  0  0  0  0  0  0  0  0
   57.2740   26.9720   46.6730 C   0  0  0  0  0  0  0  0  0  0  0  0
   58.0257   26.3413   46.1758 H   0  0  0  0  0  0  0  0  0  0  0  0
   57.5371   27.1181   47.7310 H   0  0  0  0  0  0  0  0  0  0  0  0
   57.2300   28.3350   45.9860 C   0  0  0  0  0  0  0  0  0  0  0  0
   58.0772   28.4210   45.2897 H   0  0  0  0  0  0  0  0  0  0  0  0
   57.2941   29.1280   46.7456 H   0  0  0  0  0  0  0  0  0  0  0  0
   55.9820   28.4730   45.2490 N   0  0  0  0  0  0  0  0  0  0  0  0
   55.6310   29.6630   44.5400 C   0  0  0  0  0  0  0  0  0  0  0  0
   54.7580   29.6060   43.6350 O   0  0  0  0  0  0  0  0  0  0  0  0
   56.2600   30.9080   44.8660 N   0  0  0  0  0  0  0  0  0  0  0  0
   57.4140   31.4480   44.1540 C   0  0  0  0  0  0  0  0  0  0  0  0
   58.2217   30.7012   44.1581 H   0  0  0  0  0  0  0  0  0  0  0  0
   57.1128   31.6820   43.1222 H   0  0  0  0  0  0  0  0  0  0  0  0
   57.9140   32.7300   44.8200 C   0  0  0  0  0  0  0  0  0  0  0  0
   58.6230   33.5000   43.9160 F   0  0  0  0  0  0  0  0  0  0  0  0
   56.8340   33.4610   45.2780 F   0  0  0  0  0  0  0  0  0  0  0  0
   58.7320   32.4170   45.8910 F   0  0  0  0  0  0  0  0  0  0  0  0
   56.5030   24.7230   44.9060 C   0  0  0  0  0  0  0  0  0  0  0  0
   57.5674   25.0006   44.9047 H   0  0  0  0  0  0  0  0  0  0  0  0
   56.0350   23.7240   44.0490 C   0  0  0  0  0  0  0  0  0  0  0  0
   56.7308   23.2137   43.3667 H   0  0  0  0  0  0  0  0  0  0  0  0
   54.6850   23.3740   44.0590 C   0  0  0  0  0  0  0  0  0  0  0  0
   54.3087   22.5888   43.3868 H   0  0  0  0  0  0  0  0  0  0  0  0
  1  2  1  0
  2  3  1  0
  3  4  1  0
  4  5  2  0
  5  6  1  0
  6  7  1  0
  6  8  1  0
  6  9  1  0
  9 10  1  0
  9 11  1  0
  9 12  1  0
 12 13  1  0
 13 14  2  0
 13 15  1  0
 15 16  1  0
 16 17  1  0
 16 18  1  0
 16 19  1  0
 19 20  1  0
 19 21  1  0
 19 22  1  0
  4 23  1  0
 23 24  1  0
 23 25  2  0
 25 26  1  0
 25 27  1  0
 27 28  1  0
 27  2  2  0
M  CHG  3   3  -1  12  -1  15  -1
M  END
>  <UniqueID>  (34) 
34

>  <SMILES>  (34) 
O=C([N-]CC/N=c1\cccc[n-]1)[N-]CC(F)(F)F

>  <Energy>  (34) 
20.503948707836052

>  <Genealogy>  (34) 
O=C([N-]CCN=c1cccc[n-]1)[N-]CC(F)(F)F (protonated)
O=C([N-]CC/N=c1\cccc[n-]1)[N-]CC(F)(F)F (cis-trans isomerization)
O=C([N-]CC/N=c1\cccc[n-]1)[N-]CC(F)(F)F (3D coordinates assigned)
O=C([N-]CC/N=c1\cccc[n-]1)[N-]CC(F)(F)F (optimized conformer: 20.503948707836052 kcal/mol)

>  <smiles>  (34) 
O=C(NCCN=c1cccc[nH]1)NCC(F)(F)F

>  <score_type>  (34) 
oracle

>  <origin>  (34) 
adg

>  <m_score__min__energy>  (34) 
-10.630000000000001

>  <m_primary>  (34) 
energy

$$$$
35:0
     RDKit          3D

 40 41  0  0  0  0  0  0  0  0999 V2000
   56.7270   28.6320   45.1600 S   0  0  0  0  0  0  0  0  0  0  0  0
   57.9060   29.7660   45.0770 C   0  0  0  0  0  0  0  0  0  0  0  0
   58.2380   30.3350   43.8050 N   0  0  0  0  0  0  0  0  0  0  0  0
   58.1090   31.7730   43.5730 C   0  0  0  0  0  0  0  0  0  0  0  0
   57.2650   32.4310   44.6690 C   0  0  0  0  0  0  0  0  0  0  0  0
   58.0770   33.3950   45.4920 C   0  0  0  0  0  0  0  0  0  0  0  0
   58.1090   33.2800   46.8920 C   0  0  0  0  0  0  0  0  0  0  0  0
   58.8800   34.1630   47.6550 C   0  0  0  0  0  0  0  0  0  0  0  0
   59.6310   35.1590   47.0260 C   0  0  0  0  0  0  0  0  0  0  0  0
   59.6170   35.2710   45.6330 C   0  0  0  0  0  0  0  0  0  0  0  0
   58.8450   34.3930   44.8670 C   0  0  0  0  0  0  0  0  0  0  0  0
   58.6580   30.0850   46.2570 N   0  0  0  0  0  0  0  0  0  0  0  0
   60.0140   30.6300   46.1870 C   0  0  0  0  0  0  0  0  0  0  0  0
   60.6560   30.6770   47.5750 C   0  0  0  0  0  0  0  0  0  0  0  0
   61.7670   31.6920   47.6090 C   0  0  0  0  0  0  0  0  0  0  0  0
   61.7610   32.7810   46.7200 C   0  0  0  0  0  0  0  0  0  0  0  0
   62.7800   33.7360   46.7700 C   0  0  0  0  0  0  0  0  0  0  0  0
   63.8030   33.6200   47.7150 C   0  0  0  0  0  0  0  0  0  0  0  0
   63.8070   32.5500   48.6140 C   0  0  0  0  0  0  0  0  0  0  0  0
   62.7910   31.5910   48.5650 C   0  0  0  0  0  0  0  0  0  0  0  0
   58.1530   29.7150   42.9680 H   0  0  0  0  0  0  0  0  0  0  0  0
   59.1105   32.2281   43.5679 H   0  0  0  0  0  0  0  0  0  0  0  0
   57.6106   31.9290   42.6049 H   0  0  0  0  0  0  0  0  0  0  0  0
   56.4327   32.9759   44.1995 H   0  0  0  0  0  0  0  0  0  0  0  0
   56.8912   31.6402   45.3360 H   0  0  0  0  0  0  0  0  0  0  0  0
   57.5251   32.4920   47.3902 H   0  0  0  0  0  0  0  0  0  0  0  0
   58.8950   34.0731   48.7512 H   0  0  0  0  0  0  0  0  0  0  0  0
   60.2337   35.8555   47.6275 H   0  0  0  0  0  0  0  0  0  0  0  0
   60.2144   36.0513   45.1387 H   0  0  0  0  0  0  0  0  0  0  0  0
   58.8383   34.4833   43.7707 H   0  0  0  0  0  0  0  0  0  0  0  0
   58.2820   29.7670   47.1790 H   0  0  0  0  0  0  0  0  0  0  0  0
   60.6243   29.9937   45.5293 H   0  0  0  0  0  0  0  0  0  0  0  0
   59.9609   31.6543   45.7895 H   0  0  0  0  0  0  0  0  0  0  0  0
   59.8924   30.9514   48.3177 H   0  0  0  0  0  0  0  0  0  0  0  0
   61.0729   29.6860   47.8074 H   0  0  0  0  0  0  0  0  0  0  0  0
   60.9513   32.8818   45.9823 H   0  0  0  0  0  0  0  0  0  0  0  0
   62.7769   34.5801   46.0647 H   0  0  0  0  0  0  0  0  0  0  0  0
   64.6056   34.3714   47.7512 H   0  0  0  0  0  0  0  0  0  0  0  0
   64.6101   32.4623   49.3606 H   0  0  0  0  0  0  0  0  0  0  0  0
   62.7935   30.7536   49.2783 H   0  0  0  0  0  0  0  0  0  0  0  0
  1  2  2  0
  2  3  1  0
  3  4  1  0
  4  5  1  0
  5  6  1  0
  6  7  2  0
  7  8  1  0
  8  9  2  0
  9 10  1  0
 10 11  2  0
  2 12  1  0
 12 13  1  0
 13 14  1  0
 14 15  1  0
 15 16  2  0
 16 17  1  0
 17 18  2  0
 18 19  1  0
 19 20  2  0
 11  6  1  0
 20 15  1  0
  3 21  1  0
  4 22  1  0
  4 23  1  0
  5 24  1  0
  5 25  1  0
  7 26  1  0
  8 27  1  0
  9 28  1  0
 10 29  1  0
 11 30  1  0
 12 31  1  0
 13 32  1  0
 13 33  1  0
 14 34  1  0
 14 35  1  0
 16 36  1  0
 17 37  1  0
 18 38  1  0
 19 39  1  0
 20 40  1  0
M  END
>  <UniqueID>  (35) 
35

>  <SMILES>  (35) 
S=C(NCCc1ccccc1)NCCc1ccccc1

>  <Energy>  (35) 
30.866925370717098

>  <Genealogy>  (35) 
S=C(NCCc1ccccc1)NCCc1ccccc1 (3D coordinates assigned)
S=C(NCCc1ccccc1)NCCc1ccccc1 (optimized conformer: 30.866925370717098 kcal/mol)

>  <smiles>  (35) 
S=C(NCCc1ccccc1)NCCc1ccccc1

>  <score_type>  (35) 
oracle

>  <origin>  (35) 
adg

>  <m_score__min__energy>  (35) 
-7.0099999999999998

>  <m_primary>  (35) 
energy

$$$$
36:0
     RDKit          3D

 52 54  0  0  0  0  0  0  0  0999 V2000
   58.9550   34.5690   46.2270 C   0  0  0  0  0  0  0  0  0  0  0  0
   59.7060   34.1720   47.3700 O   0  0  0  0  0  0  0  0  0  0  0  0
   61.0360   33.7210   47.3520 C   0  0  0  0  0  0  0  0  0  0  0  0
   61.9320   34.2160   46.3830 C   0  0  0  0  0  0  0  0  0  0  0  0
   63.2650   33.8280   46.3810 C   0  0  0  0  0  0  0  0  0  0  0  0
   63.7420   32.9670   47.3580 C   0  0  0  0  0  0  0  0  0  0  0  0
   62.8790   32.4510   48.3410 C   0  0  0  0  0  0  0  0  0  0  0  0
   63.3700   31.6290   49.3690 O   0  0  0  0  0  0  0  0  0  0  0  0
   64.4910   31.9340   50.1940 C   0  0  0  0  0  0  0  0  0  0  0  0
   61.4920   32.7670   48.3120 C   0  0  0  0  0  0  0  0  0  0  0  0
   60.5900   32.1370   49.3960 C   0  0  1  0  0  0  0  0  0  0  0  0
   59.0770   32.4490   49.4000 C   0  0  0  0  0  0  0  0  0  0  0  0
   58.4680   31.3780   50.3020 C   0  0  2  0  0  0  0  0  0  0  0  0
   58.2780   31.8670   51.7410 C   0  0  0  0  0  0  0  0  0  0  0  0
   59.4950   30.3040   50.2320 C   0  0  0  0  0  0  0  0  0  0  0  0
   59.3340   29.2040   50.7430 O   0  0  0  0  0  0  0  0  0  0  0  0
   60.7060   30.6590   49.5450 N   0  0  1  0  0  0  0  0  0  0  0  0
   60.8720   29.8590   48.2970 C   0  0  0  0  0  0  0  0  0  0  0  0
   59.6680   29.8470   47.3740 C   0  0  0  0  0  0  0  0  0  0  0  0
   59.3420   30.9870   46.6210 C   0  0  0  0  0  0  0  0  0  0  0  0
   58.2170   30.9950   45.7930 C   0  0  0  0  0  0  0  0  0  0  0  0
   57.4120   29.8460   45.6770 C   0  0  0  0  0  0  0  0  0  0  0  0
   56.2630   29.8020   44.8730 O   0  0  0  0  0  0  0  0  0  0  0  0
   56.2570   29.7100   43.4490 C   0  0  0  0  0  0  0  0  0  0  0  0
   56.6800   30.9130   42.9200 F   0  0  0  0  0  0  0  0  0  0  0  0
   57.1180   28.7100   43.0320 F   0  0  0  0  0  0  0  0  0  0  0  0
   54.9760   29.4490   42.9950 F   0  0  0  0  0  0  0  0  0  0  0  0
   57.7700   28.6920   46.3840 C   0  0  0  0  0  0  0  0  0  0  0  0
   58.8930   28.6860   47.2150 C   0  0  0  0  0  0  0  0  0  0  0  0
   58.0258   35.0602   46.5513 H   0  0  0  0  0  0  0  0  0  0  0  0
   59.5493   35.2707   45.6234 H   0  0  0  0  0  0  0  0  0  0  0  0
   58.7098   33.6827   45.6234 H   0  0  0  0  0  0  0  0  0  0  0  0
   61.5703   34.9190   45.6182 H   0  0  0  0  0  0  0  0  0  0  0  0
   63.9447   34.2045   45.6024 H   0  0  0  0  0  0  0  0  0  0  0  0
   64.8053   32.6851   47.3640 H   0  0  0  0  0  0  0  0  0  0  0  0
   64.2001   31.8548   51.2519 H   0  0  0  0  0  0  0  0  0  0  0  0
   65.3050   31.2247   49.9835 H   0  0  0  0  0  0  0  0  0  0  0  0
   64.8334   32.9579   49.9835 H   0  0  0  0  0  0  0  0  0  0  0  0
   61.0387   32.6769   50.2428 H   0  0  0  0  0  0  0  0  0  0  0  0
   58.8882   33.4534   49.8070 H   0  0  0  0  0  0  0  0  0  0  0  0
   58.6452   32.4388   48.3883 H   0  0  0  0  0  0  0  0  0  0  0  0
   57.4611   31.0664   49.9872 H   0  0  0  0  0  0  0  0  0  0  0  0
   58.5854   31.0758   52.4407 H   0  0  0  0  0  0  0  0  0  0  0  0
   58.8932   32.7635   51.9079 H   0  0  0  0  0  0  0  0  0  0  0  0
   57.2189   32.1129   51.9079 H   0  0  0  0  0  0  0  0  0  0  0  0
   61.4970   30.4330   50.1910 H   0  0  0  0  0  0  0  0  0  0  0  0
   61.7250   30.2720   47.7387 H   0  0  0  0  0  0  0  0  0  0  0  0
   61.0211   28.8177   48.6188 H   0  0  0  0  0  0  0  0  0  0  0  0
   59.9786   31.8819   46.6839 H   0  0  0  0  0  0  0  0  0  0  0  0
   57.9589   31.9034   45.2290 H   0  0  0  0  0  0  0  0  0  0  0  0
   57.1613   27.7812   46.2843 H   0  0  0  0  0  0  0  0  0  0  0  0
   59.1725   27.7656   47.7487 H   0  0  0  0  0  0  0  0  0  0  0  0
  1  2  1  0
  2  3  1  0
  3  4  2  0
  4  5  1  0
  5  6  2  0
  6  7  1  0
  7  8  1  0
  8  9  1  0
  7 10  2  0
 10 11  1  0
 11 12  1  0
 12 13  1  0
 13 14  1  0
 13 15  1  0
 15 16  2  0
 15 17  1  0
 17 18  1  0
 18 19  1  0
 19 20  2  0
 20 21  1  0
 21 22  2  0
 22 23  1  0
 23 24  1  0
 24 25  1  0
 24 26  1  0
 24 27  1  0
 22 28  1  0
 28 29  2  0
 10  3  1  0
 17 11  1  0
 29 19  1  0
  1 30  1  0
  1 31  1  0
  1 32  1  0
  4 33  1  0
  5 34  1  0
  6 35  1  0
  9 36  1  0
  9 37  1  0
  9 38  1  0
 11 39  1  1
 12 40  1  0
 12 41  1  0
 13 42  1  6
 14 43  1  0
 14 44  1  0
 14 45  1  0
 17 46  1  1
 18 47  1  0
 18 48  1  0
 20 49  1  0
 21 50  1  0
 28 51  1  0
 29 52  1  0
M  CHG  1  17   1
M  END
>  <UniqueID>  (36) 
36

>  <SMILES>  (36) 
COc1cccc(OC)c1[C@H]1C[C@H](C)C(=O)[NH+]1Cc1ccc(OC(F)(F)F)cc1

>  <Energy>  (36) 
69.16136946656351

>  <Genealogy>  (36) 
COc1cccc(OC)c1C1CC(C)C(=O)[NH+]1Cc1ccc(OC(F)(F)F)cc1 (protonated)
COc1cccc(OC)c1[C@H]1C[C@H](C)C(=O)[NH+]1Cc1ccc(OC(F)(F)F)cc1 (chirality)
COc1cccc(OC)c1[C@H]1C[C@H](C)C(=O)[NH+]1Cc1ccc(OC(F)(F)F)cc1 (3D coordinates assigned)
COc1cccc(OC)c1[C@H]1C[C@H](C)C(=O)[NH+]1Cc1ccc(OC(F)(F)F)cc1 (nonaromatic ring conformer: 69.16136946656351 kcal/mol)

>  <smiles>  (36) 
COc1cccc(OC)c1C1CC(C)C(=O)N1Cc1ccc(OC(F)(F)F)cc1

>  <score_type>  (36) 
oracle

>  <origin>  (36) 
adg

>  <m_score__min__energy>  (36) 
-5.3700000000000001

>  <m_primary>  (36) 
energy

$$$$
37:0
     RDKit          3D

 34 35  0  0  0  0  0  0  0  0999 V2000
   60.0524   35.2540   46.8958 H   0  0  0  0  0  0  0  0  0  0  0  0
   60.1400   34.3390   47.5000 C   0  0  0  0  0  0  0  0  0  0  0  0
   59.0320   33.6130   47.7060 C   0  0  0  0  0  0  0  0  0  0  0  0
   58.2664   33.9880   48.4011 H   0  0  0  0  0  0  0  0  0  0  0  0
   58.8140   32.3210   47.0220 C   0  0  0  0  0  0  0  0  0  0  0  0
   58.1340   32.2410   45.7830 C   0  0  0  0  0  0  0  0  0  0  0  0
   57.5470   33.8340   44.8670 Br  0  0  0  0  0  0  0  0  0  0  0  0
   57.9390   30.9860   45.1760 C   0  0  0  0  0  0  0  0  0  0  0  0
   57.0190   30.7970   43.5040 Br  0  0  0  0  0  0  0  0  0  0  0  0
   58.4330   29.8310   45.7850 C   0  0  0  0  0  0  0  0  0  0  0  0
   58.2709   28.8517   45.3111 H   0  0  0  0  0  0  0  0  0  0  0  0
   59.1300   29.9100   46.9890 C   0  0  0  0  0  0  0  0  0  0  0  0
   59.5260   28.9939   47.4517 H   0  0  0  0  0  0  0  0  0  0  0  0
   59.3310   31.1520   47.6170 C   0  0  0  0  0  0  0  0  0  0  0  0
   60.0270   31.2600   48.8340 O   0  0  0  0  0  0  0  0  0  0  0  0
   61.1550   30.4690   49.1930 C   0  0  0  0  0  0  0  0  0  0  0  0
   61.2314   30.4154   50.2890 H   0  0  0  0  0  0  0  0  0  0  0  0
   61.0369   29.4548   48.7837 H   0  0  0  0  0  0  0  0  0  0  0  0
   62.0682   30.9256   48.7837 H   0  0  0  0  0  0  0  0  0  0  0  0
   61.4760   33.9850   48.0360 C   0  0  0  0  0  0  0  0  0  0  0  0
   61.8330   34.1860   49.3840 C   0  0  0  0  0  0  0  0  0  0  0  0
   61.1014   34.6152   50.0844 H   0  0  0  0  0  0  0  0  0  0  0  0
   63.1100   33.8440   49.8380 C   0  0  0  0  0  0  0  0  0  0  0  0
   63.3744   34.0001   50.8943 H   0  0  0  0  0  0  0  0  0  0  0  0
   64.0600   33.3010   48.9520 C   0  0  0  0  0  0  0  0  0  0  0  0
   65.3520   32.9400   49.3610 O   0  0  0  0  0  0  0  0  0  0  0  0
   65.6370   32.0650   50.4480 C   0  0  0  0  0  0  0  0  0  0  0  0
   65.4652   32.5923   51.3979 H   0  0  0  0  0  0  0  0  0  0  0  0
   64.9790   31.1853   50.3928 H   0  0  0  0  0  0  0  0  0  0  0  0
   66.6869   31.7416   50.3928 H   0  0  0  0  0  0  0  0  0  0  0  0
   63.7090   33.1150   47.6120 C   0  0  0  0  0  0  0  0  0  0  0  0
   64.4444   32.6952   46.9098 H   0  0  0  0  0  0  0  0  0  0  0  0
   62.4330   33.4570   47.1550 C   0  0  0  0  0  0  0  0  0  0  0  0
   62.1764   33.3111   46.0953 H   0  0  0  0  0  0  0  0  0  0  0  0
  1  2  1  0
  2  3  2  0
  3  4  1  0
  3  5  1  0
  5  6  2  0
  6  7  1  0
  6  8  1  0
  8  9  1  0
  8 10  2  0
 10 11  1  0
 10 12  1  0
 12 13  1  0
 12 14  2  0
 14 15  1  0
 15 16  1  0
 16 17  1  0
 16 18  1  0
 16 19  1  0
  2 20  1  0
 20 21  2  0
 21 22  1  0
 21 23  1  0
 23 24  1  0
 23 25  2  0
 25 26  1  0
 26 27  1  0
 27 28  1  0
 27 29  1  0
 27 30  1  0
 25 31  1  0
 31 32  1  0
 31 33  2  0
 33 34  1  0
 14  5  1  0
 33 20  1  0
M  END
>  <UniqueID>  (37) 
37

>  <SMILES>  (37) 
COc1ccc(/C=C/c2c(OC)ccc(Br)c2Br)cc1

>  <Energy>  (37) 
44.50650127852585

>  <Genealogy>  (37) 
COc1ccc(/C=C/c2c(OC)ccc(Br)c2Br)cc1 (cis-trans isomerization)
COc1ccc(/C=C/c2c(OC)ccc(Br)c2Br)cc1 (3D coordinates assigned)
COc1ccc(/C=C/c2c(OC)ccc(Br)c2Br)cc1 (optimized conformer: 44.50650127852585 kcal/mol)

>  <smiles>  (37) 
COc1ccc(C=Cc2c(OC)ccc(Br)c2Br)cc1

>  <score_type>  (37) 
oracle

>  <origin>  (37) 
adg

>  <m_score__min__energy>  (37) 
-6.7300000000000004

>  <m_primary>  (37) 
energy

$$$$
38:0
     RDKit          3D

 66 67  0  0  0  0  0  0  0  0999 V2000
   60.6280   30.3180   48.5240 C   0  0  0  0  0  0  0  0  0  0  0  0
   59.1500   30.1150   48.1680 C   0  0  0  0  0  0  0  0  0  0  0  0
   58.9500   29.8790   46.7130 N   0  0  0  0  0  0  0  0  0  0  0  0
   60.2470   29.9730   45.9890 C   0  0  0  0  0  0  0  0  0  0  0  0
   60.3980   28.8720   44.9300 C   0  0  0  0  0  0  0  0  0  0  0  0
   58.3310   28.5420   46.4860 C   0  0  0  0  0  0  0  0  0  0  0  0
   57.0660   28.6260   45.6210 C   0  0  0  0  0  0  0  0  0  0  0  0
   56.7320   29.9940   45.4170 O   0  0  0  0  0  0  0  0  0  0  0  0
   57.1010   30.7510   44.2950 C   0  0  0  0  0  0  0  0  0  0  0  0
   56.7330   30.3580   42.9920 C   0  0  0  0  0  0  0  0  0  0  0  0
   57.0280   31.1690   41.8940 C   0  0  0  0  0  0  0  0  0  0  0  0
   57.6850   32.3830   42.0820 C   0  0  0  0  0  0  0  0  0  0  0  0
   58.0690   32.7780   43.3640 C   0  0  0  0  0  0  0  0  0  0  0  0
   57.8150   31.9610   44.4730 C   0  0  0  0  0  0  0  0  0  0  0  0
   58.2500   32.4140   45.7280 O   0  0  0  0  0  0  0  0  0  0  0  0
   57.9370   33.6880   46.2890 C   0  0  0  0  0  0  0  0  0  0  0  0
   58.9980   34.0850   47.3240 C   0  0  0  0  0  0  0  0  0  0  0  0
   60.4130   34.2420   46.7330 C   0  0  0  0  0  0  0  0  0  0  0  0
   61.4960   33.7680   47.6700 C   0  0  0  0  0  0  0  0  0  0  0  0
   62.7140   33.2930   47.1680 C   0  0  0  0  0  0  0  0  0  0  0  0
   63.7370   32.9020   48.0360 C   0  0  0  0  0  0  0  0  0  0  0  0
   63.5820   32.9960   49.4470 C   0  0  0  0  0  0  0  0  0  0  0  0
   64.6690   32.6810   50.3970 N   0  0  0  0  0  0  0  0  0  0  0  0
   64.6510   33.6620   51.5120 C   0  0  0  0  0  0  0  0  0  0  0  0
   66.0210   32.7320   49.7830 C   0  0  0  0  0  0  0  0  0  0  0  0
   64.4740   31.3120   50.9390 C   0  0  0  0  0  0  0  0  0  0  0  0
   62.3230   33.4370   49.9280 C   0  0  0  0  0  0  0  0  0  0  0  0
   61.2990   33.8050   49.0550 C   0  0  0  0  0  0  0  0  0  0  0  0
   60.7429   30.3338   49.6179 H   0  0  0  0  0  0  0  0  0  0  0  0
   61.2228   29.4931   48.1047 H   0  0  0  0  0  0  0  0  0  0  0  0
   60.9784   31.2727   48.1047 H   0  0  0  0  0  0  0  0  0  0  0  0
   58.7679   29.2460   48.7237 H   0  0  0  0  0  0  0  0  0  0  0  0
   58.6081   31.0331   48.4389 H   0  0  0  0  0  0  0  0  0  0  0  0
   58.3070   30.6180   46.3400 H   0  0  0  0  0  0  0  0  0  0  0  0
   60.3061   30.9530   45.4928 H   0  0  0  0  0  0  0  0  0  0  0  0
   61.0554   29.8488   46.7245 H   0  0  0  0  0  0  0  0  0  0  0  0
   60.5313   27.9002   45.4278 H   0  0  0  0  0  0  0  0  0  0  0  0
   59.4956   28.8414   44.3017 H   0  0  0  0  0  0  0  0  0  0  0  0
   61.2753   29.0855   44.3017 H   0  0  0  0  0  0  0  0  0  0  0  0
   59.0628   27.8944   45.9809 H   0  0  0  0  0  0  0  0  0  0  0  0
   58.0426   28.1336   47.4658 H   0  0  0  0  0  0  0  0  0  0  0  0
   57.2508   28.1431   44.6501 H   0  0  0  0  0  0  0  0  0  0  0  0
   56.2354   28.1132   46.1280 H   0  0  0  0  0  0  0  0  0  0  0  0
   56.2084   29.4034   42.8387 H   0  0  0  0  0  0  0  0  0  0  0  0
   56.7417   30.8494   40.8811 H   0  0  0  0  0  0  0  0  0  0  0  0
   57.9011   33.0305   41.2194 H   0  0  0  0  0  0  0  0  0  0  0  0
   58.5776   33.7431   43.5055 H   0  0  0  0  0  0  0  0  0  0  0  0
   57.9107   34.4414   45.4880 H   0  0  0  0  0  0  0  0  0  0  0  0
   56.9559   33.6318   46.7833 H   0  0  0  0  0  0  0  0  0  0  0  0
   58.7017   35.0437   47.7747 H   0  0  0  0  0  0  0  0  0  0  0  0
   59.0468   33.2710   48.0623 H   0  0  0  0  0  0  0  0  0  0  0  0
   60.4721   33.6568   45.8035 H   0  0  0  0  0  0  0  0  0  0  0  0
   60.5784   35.3144   46.5526 H   0  0  0  0  0  0  0  0  0  0  0  0
   62.8668   33.2271   46.0807 H   0  0  0  0  0  0  0  0  0  0  0  0
   64.6791   32.5146   47.6207 H   0  0  0  0  0  0  0  0  0  0  0  0
   64.6608   33.1257   52.4724 H   0  0  0  0  0  0  0  0  0  0  0  0
   65.5374   34.3099   51.4447 H   0  0  0  0  0  0  0  0  0  0  0  0
   63.7414   34.2769   51.4447 H   0  0  0  0  0  0  0  0  0  0  0  0
   66.7829   32.7607   50.5759 H   0  0  0  0  0  0  0  0  0  0  0  0
   66.1744   31.8390   49.1593 H   0  0  0  0  0  0  0  0  0  0  0  0
   66.1067   33.6340   49.1593 H   0  0  0  0  0  0  0  0  0  0  0  0
   64.4792   31.3487   52.0384 H   0  0  0  0  0  0  0  0  0  0  0  0
   63.5100   30.9133   50.5900 H   0  0  0  0  0  0  0  0  0  0  0  0
   65.2883   30.6600   50.5900 H   0  0  0  0  0  0  0  0  0  0  0  0
   62.1501   33.4901   51.0130 H   0  0  0  0  0  0  0  0  0  0  0  0
   60.3279   34.1272   49.4590 H   0  0  0  0  0  0  0  0  0  0  0  0
  1  2  1  0
  2  3  1  0
  3  4  1  0
  4  5  1  0
  3  6  1  0
  6  7  1  0
  7  8  1  0
  8  9  1  0
  9 10  2  0
 10 11  1  0
 11 12  2  0
 12 13  1  0
 13 14  2  0
 14 15  1  0
 15 16  1  0
 16 17  1  0
 17 18  1  0
 18 19  1  0
 19 20  2  0
 20 21  1  0
 21 22  2  0
 22 23  1  0
 23 24  1  0
 23 25  1  0
 23 26  1  0
 22 27  1  0
 27 28  2  0
 14  9  1  0
 28 19  1  0
  1 29  1  0
  1 30  1  0
  1 31  1  0
  2 32  1  0
  2 33  1  0
  3 34  1  0
  4 35  1  0
  4 36  1  0
  5 37  1  0
  5 38  1  0
  5 39  1  0
  6 40  1  0
  6 41  1  0
  7 42  1  0
  7 43  1  0
 10 44  1  0
 11 45  1  0
 12 46  1  0
 13 47  1  0
 16 48  1  0
 16 49  1  0
 17 50  1  0
 17 51  1  0
 18 52  1  0
 18 53  1  0
 20 54  1  0
 21 55  1  0
 24 56  1  0
 24 57  1  0
 24 58  1  0
 25 59  1  0
 25 60  1  0
 25 61  1  0
 26 62  1  0
 26 63  1  0
 26 64  1  0
 27 65  1  0
 28 66  1  0
M  CHG  2   3   1  23   1
M  END
>  <UniqueID>  (38) 
38

>  <SMILES>  (38) 
CC[NH+](CC)CCOc1ccccc1OCCCc1ccc([N+](C)(C)C)cc1

>  <Energy>  (38) 
77.20221930092023

>  <Genealogy>  (38) 
CC[NH+](CC)CCOc1ccccc1OCCCc1ccc([N+](C)(C)C)cc1 (protonated)
CC[NH+](CC)CCOc1ccccc1OCCCc1ccc([N+](C)(C)C)cc1 (3D coordinates assigned)
CC[NH+](CC)CCOc1ccccc1OCCCc1ccc([N+](C)(C)C)cc1 (optimized conformer: 77.20221930092023 kcal/mol)

>  <smiles>  (38) 
CCN(CC)CCOc1ccccc1OCCCc1ccc([N+](C)(C)C)cc1

>  <score_type>  (38) 
oracle

>  <origin>  (38) 
adg

>  <m_score__min__energy>  (38) 
-4.1299999999999999

>  <m_primary>  (38) 
energy

$$$$
39:0
     RDKit          3D

 56 59  0  0  0  0  0  0  0  0999 V2000
   63.5700   33.1030   46.8020 C   0  0  0  0  0  0  0  0  0  0  0  0
   62.9260   33.8950   47.9510 C   0  0  0  0  0  0  0  0  0  0  0  0
   62.7800   33.1460   49.2270 N   0  0  0  0  0  0  0  0  0  0  0  0
   63.9230   33.3120   50.1570 C   0  0  0  0  0  0  0  0  0  0  0  0
   65.0980   32.4000   49.7990 C   0  0  0  0  0  0  0  0  0  0  0  0
   61.4920   33.4040   49.9140 C   0  0  0  0  0  0  0  0  0  0  0  0
   60.3530   32.5270   49.3590 C   0  0  0  0  0  0  0  0  0  0  0  0
   60.7950   31.6980   48.2320 N   0  0  0  0  0  0  0  0  0  0  0  0
   59.8940   31.4200   47.1520 C   0  0  0  0  0  0  0  0  0  0  0  0
   59.3770   32.4710   46.3590 C   0  0  0  0  0  0  0  0  0  0  0  0
   59.8230   33.7960   46.5440 C   0  0  0  0  0  0  0  0  0  0  0  0
   59.2770   34.8410   45.8040 C   0  0  0  0  0  0  0  0  0  0  0  0
   58.2710   34.5890   44.8770 C   0  0  0  0  0  0  0  0  0  0  0  0
   57.8200   33.2870   44.6610 C   0  0  0  0  0  0  0  0  0  0  0  0
   58.3810   32.1940   45.3650 C   0  0  0  0  0  0  0  0  0  0  0  0
   57.9750   30.8900   45.1290 N   0  0  0  0  0  0  0  0  0  0  0  0
   57.1770   30.5390   43.9410 C   0  0  0  0  0  0  0  0  0  0  0  0
   58.4140   29.9090   45.9820 C   0  0  0  0  0  0  0  0  0  0  0  0
   58.0500   28.5690   46.1000 C   0  0  0  0  0  0  0  0  0  0  0  0
   57.0150   27.8090   45.5350 C   0  0  0  0  0  0  0  0  0  0  0  0
   56.8910   26.4630   45.9190 C   0  0  0  0  0  0  0  0  0  0  0  0
   57.7660   25.9070   46.8710 C   0  0  0  0  0  0  0  0  0  0  0  0
   58.7640   26.6950   47.4660 C   0  0  0  0  0  0  0  0  0  0  0  0
   58.8830   28.0340   47.0670 C   0  0  0  0  0  0  0  0  0  0  0  0
   59.7290   28.9710   47.5630 N   0  0  0  0  0  0  0  0  0  0  0  0
   60.7820   28.7610   48.5570 C   0  0  0  0  0  0  0  0  0  0  0  0
   59.3990   30.1290   46.9270 C   0  0  0  0  0  0  0  0  0  0  0  0
   64.2128   32.3125   47.2167 H   0  0  0  0  0  0  0  0  0  0  0  0
   62.7822   32.6482   46.1835 H   0  0  0  0  0  0  0  0  0  0  0  0
   64.1759   33.7815   46.1835 H   0  0  0  0  0  0  0  0  0  0  0  0
   63.5480   34.7813   48.1450 H   0  0  0  0  0  0  0  0  0  0  0  0
   61.9059   34.1406   47.6207 H   0  0  0  0  0  0  0  0  0  0  0  0
   64.2619   34.3578   50.1183 H   0  0  0  0  0  0  0  0  0  0  0  0
   63.5794   33.0390   51.1657 H   0  0  0  0  0  0  0  0  0  0  0  0
   65.5713   32.0326   50.7215 H   0  0  0  0  0  0  0  0  0  0  0  0
   64.7331   31.5463   49.2090 H   0  0  0  0  0  0  0  0  0  0  0  0
   65.8345   32.9653   49.2090 H   0  0  0  0  0  0  0  0  0  0  0  0
   61.6132   33.1912   50.9864 H   0  0  0  0  0  0  0  0  0  0  0  0
   61.2224   34.4568   49.7440 H   0  0  0  0  0  0  0  0  0  0  0  0
   59.9882   31.8693   50.1617 H   0  0  0  0  0  0  0  0  0  0  0  0
   59.5567   33.1942   48.9974 H   0  0  0  0  0  0  0  0  0  0  0  0
   61.8120   31.5360   48.0610 H   0  0  0  0  0  0  0  0  0  0  0  0
   60.6115   34.0062   47.2816 H   0  0  0  0  0  0  0  0  0  0  0  0
   59.6418   35.8681   45.9526 H   0  0  0  0  0  0  0  0  0  0  0  0
   57.8284   35.4218   44.3108 H   0  0  0  0  0  0  0  0  0  0  0  0
   57.0159   33.1064   43.9324 H   0  0  0  0  0  0  0  0  0  0  0  0
   56.2131   30.1150   44.2590 H   0  0  0  0  0  0  0  0  0  0  0  0
   56.9995   31.4421   43.3386 H   0  0  0  0  0  0  0  0  0  0  0  0
   57.7227   29.7978   43.3386 H   0  0  0  0  0  0  0  0  0  0  0  0
   56.3184   28.2553   44.8100 H   0  0  0  0  0  0  0  0  0  0  0  0
   56.1035   25.8386   45.4718 H   0  0  0  0  0  0  0  0  0  0  0  0
   57.6672   24.8478   47.1507 H   0  0  0  0  0  0  0  0  0  0  0  0
   59.4365   26.2722   48.2269 H   0  0  0  0  0  0  0  0  0  0  0  0
   60.3549   28.8462   49.5671 H   0  0  0  0  0  0  0  0  0  0  0  0
   61.2157   27.7587   48.4256 H   0  0  0  0  0  0  0  0  0  0  0  0
   61.5670   29.5203   48.4256 H   0  0  0  0  0  0  0  0  0  0  0  0
  1  2  1  0
  2  3  1  0
  3  4  1  0
  4  5  1  0
  3  6  1  0
  6  7  1  0
  7  8  1  0
  8  9  1  0
  9 10  2  0
 10 11  1  0
 11 12  2  0
 12 13  1  0
 13 14  2  0
 14 15  1  0
 15 16  2  0
 16 17  1  0
 16 18  1  0
 18 19  1  0
 19 20  2  0
 20 21  1  0
 21 22  2  0
 22 23  1  0
 23 24  2  0
 24 25  1  0
 25 26  1  0
 25 27  1  0
 27  9  1  0
 15 10  1  0
 27 18  2  0
 24 19  1  0
  1 28  1  0
  1 29  1  0
  1 30  1  0
  2 31  1  0
  2 32  1  0
  4 33  1  0
  4 34  1  0
  5 35  1  0
  5 36  1  0
  5 37  1  0
  6 38  1  0
  6 39  1  0
  7 40  1  0
  7 41  1  0
  8 42  1  0
 11 43  1  0
 12 44  1  0
 13 45  1  0
 14 46  1  0
 17 47  1  0
 17 48  1  0
 17 49  1  0
 20 50  1  0
 21 51  1  0
 22 52  1  0
 23 53  1  0
 26 54  1  0
 26 55  1  0
 26 56  1  0
M  CHG  1  16   1
M  END
>  <UniqueID>  (39) 
39

>  <SMILES>  (39) 
CCN(CC)CCNc1c2ccccc2[n+](C)c2c3ccccc3n(C)c12

>  <Energy>  (39) 
128.85878566755778

>  <Genealogy>  (39) 
CCN(CC)CCNc1c2ccccc2[n+](C)c2c3ccccc3n(C)c12 (3D coordinates assigned)
CCN(CC)CCNc1c2ccccc2[n+](C)c2c3ccccc3n(C)c12 (optimized conformer: 128.85878566755778 kcal/mol)

>  <smiles>  (39) 
CCN(CC)CCNc1c2ccccc2[n+](C)c2c3ccccc3n(C)c12

>  <score_type>  (39) 
oracle

>  <origin>  (39) 
adg

>  <m_score__min__energy>  (39) 
-5.9100000000000001

>  <m_primary>  (39) 
energy

$$$$
40:0
     RDKit          3D

 50 51  0  0  0  0  0  0  0  0999 V2000
   55.5630   29.8380   44.0870 C   0  0  0  0  0  0  0  0  0  0  0  0
   57.0340   30.0310   43.7300 C   0  0  0  0  0  0  0  0  0  0  0  0
   57.6740   31.0650   44.6260 C   0  0  0  0  0  0  0  0  0  0  0  0
   57.4530   32.4270   44.3500 C   0  0  0  0  0  0  0  0  0  0  0  0
   58.0220   33.4160   45.1540 C   0  0  0  0  0  0  0  0  0  0  0  0
   58.8070   33.0600   46.2490 C   0  0  0  0  0  0  0  0  0  0  0  0
   59.0270   31.7140   46.5450 C   0  0  0  0  0  0  0  0  0  0  0  0
   58.4720   30.7030   45.7390 C   0  0  0  0  0  0  0  0  0  0  0  0
   58.6760   29.3210   46.0830 N   0  0  0  0  0  0  0  0  0  0  0  0
   59.6860   28.5000   45.4790 C   0  0  0  0  0  0  0  0  0  0  0  0
   60.2850   28.8830   44.4370 O   0  0  0  0  0  0  0  0  0  0  0  0
   60.0010   27.1540   46.0570 C   0  0  0  0  0  0  0  0  0  0  0  0
   59.0930   26.8390   47.1100 O   0  0  0  0  0  0  0  0  0  0  0  0
   57.7660   26.4530   46.8890 C   0  0  0  0  0  0  0  0  0  0  0  0
   56.9140   27.2860   46.4720 O   0  0  0  0  0  0  0  0  0  0  0  0
   57.3620   25.0300   47.1110 C   0  0  0  0  0  0  0  0  0  0  0  0
   55.9130   24.8890   47.0160 N   0  0  0  0  0  0  0  0  0  0  0  0
   55.1360   24.9700   45.8120 C   0  0  0  0  0  0  0  0  0  0  0  0
   54.3830   25.9680   45.6520 O   0  0  0  0  0  0  0  0  0  0  0  0
   55.1360   23.8690   44.7710 C   0  0  0  0  0  0  0  0  0  0  0  0
   56.2480   24.1370   43.7290 C   0  0  0  0  0  0  0  0  0  0  0  0
   56.6460   22.8510   42.9980 C   0  0  0  0  0  0  0  0  0  0  0  0
   57.2250   21.8010   43.9700 C   0  0  0  0  0  0  0  0  0  0  0  0
   56.6850   21.9300   45.4080 C   0  0  0  0  0  0  0  0  0  0  0  0
   55.2480   22.4650   45.4280 C   0  0  0  0  0  0  0  0  0  0  0  0
   55.4501   29.8232   45.1811 H   0  0  0  0  0  0  0  0  0  0  0  0
   54.9724   30.6664   43.6686 H   0  0  0  0  0  0  0  0  0  0  0  0
   55.2061   28.8853   43.6686 H   0  0  0  0  0  0  0  0  0  0  0  0
   57.5625   29.0737   43.8498 H   0  0  0  0  0  0  0  0  0  0  0  0
   57.1006   30.3784   42.6884 H   0  0  0  0  0  0  0  0  0  0  0  0
   56.8263   32.7149   43.4930 H   0  0  0  0  0  0  0  0  0  0  0  0
   57.8506   34.4777   44.9230 H   0  0  0  0  0  0  0  0  0  0  0  0
   59.2541   33.8413   46.8812 H   0  0  0  0  0  0  0  0  0  0  0  0
   59.6400   31.4409   47.4166 H   0  0  0  0  0  0  0  0  0  0  0  0
   58.0500   28.8800   46.7930 H   0  0  0  0  0  0  0  0  0  0  0  0
   59.9183   26.3925   45.2675 H   0  0  0  0  0  0  0  0  0  0  0  0
   61.0238   27.1706   46.4616 H   0  0  0  0  0  0  0  0  0  0  0  0
   57.8381   24.3955   46.3489 H   0  0  0  0  0  0  0  0  0  0  0  0
   57.6841   24.7217   48.1166 H   0  0  0  0  0  0  0  0  0  0  0  0
   54.1729   23.8733   44.2396 H   0  0  0  0  0  0  0  0  0  0  0  0
   55.8816   24.8686   42.9938 H   0  0  0  0  0  0  0  0  0  0  0  0
   57.1321   24.5251   44.2561 H   0  0  0  0  0  0  0  0  0  0  0  0
   55.7567   22.4301   42.5062 H   0  0  0  0  0  0  0  0  0  0  0  0
   57.4219   23.1010   42.2595 H   0  0  0  0  0  0  0  0  0  0  0  0
   56.9720   20.7996   43.5917 H   0  0  0  0  0  0  0  0  0  0  0  0
   58.3113   21.9675   44.0163 H   0  0  0  0  0  0  0  0  0  0  0  0
   56.7033   20.9394   45.8859 H   0  0  0  0  0  0  0  0  0  0  0  0
   57.3236   22.6417   45.9517 H   0  0  0  0  0  0  0  0  0  0  0  0
   54.6013   21.7644   44.8794 H   0  0  0  0  0  0  0  0  0  0  0  0
   54.9364   22.5577   46.4789 H   0  0  0  0  0  0  0  0  0  0  0  0
  1  2  1  0
  2  3  1  0
  3  4  2  0
  4  5  1  0
  5  6  2  0
  6  7  1  0
  7  8  2  0
  8  9  1  0
  9 10  1  0
 10 11  2  0
 10 12  1  0
 12 13  1  0
 13 14  1  0
 14 15  2  0
 14 16  1  0
 16 17  1  0
 17 18  1  0
 18 19  2  0
 18 20  1  0
 20 21  1  0
 21 22  1  0
 22 23  1  0
 23 24  1  0
 24 25  1  0
  8  3  1  0
 25 20  1  0
  1 26  1  0
  1 27  1  0
  1 28  1  0
  2 29  1  0
  2 30  1  0
  4 31  1  0
  5 32  1  0
  6 33  1  0
  7 34  1  0
  9 35  1  0
 12 36  1  0
 12 37  1  0
 16 38  1  0
 16 39  1  0
 20 40  1  0
 21 41  1  0
 21 42  1  0
 22 43  1  0
 22 44  1  0
 23 45  1  0
 23 46  1  0
 24 47  1  0
 24 48  1  0
 25 49  1  0
 25 50  1  0
M  CHG  1  17  -1
M  END
>  <UniqueID>  (40) 
40

>  <SMILES>  (40) 
CCc1ccccc1NC(=O)COC(=O)C[N-]C(=O)C1CCCCC1

>  <Energy>  (40) 
46.9957494967055

>  <Genealogy>  (40) 
CCc1ccccc1NC(=O)COC(=O)C[N-]C(=O)C1CCCCC1 (protonated)
CCc1ccccc1NC(=O)COC(=O)C[N-]C(=O)C1CCCCC1 (3D coordinates assigned)
CCc1ccccc1NC(=O)COC(=O)C[N-]C(=O)C1CCCCC1 (nonaromatic ring conformer: 46.9957494967055 kcal/mol)

>  <smiles>  (40) 
CCc1ccccc1NC(=O)COC(=O)CNC(=O)C1CCCCC1

>  <score_type>  (40) 
oracle

>  <origin>  (40) 
adg

>  <m_score__min__energy>  (40) 
-10.390000000000001

>  <m_primary>  (40) 
energy

$$$$
41:0
     RDKit          3D

 45 47  0  0  0  0  0  0  0  0999 V2000
   61.9000   30.9340   48.5860 C   0  0  0  0  0  0  0  0  0  0  0  0
   62.9040   31.4160   47.5320 C   0  0  0  0  0  0  0  0  0  0  0  0
   63.7280   32.5830   47.9390 N   0  0  2  0  0  0  0  0  0  0  0  0
   64.3600   32.4010   49.2600 C   0  0  0  0  0  0  0  0  0  0  0  0
   63.0530   33.8990   47.7530 C   0  0  0  0  0  0  0  0  0  0  0  0
   62.2780   34.4280   48.9850 C   0  0  0  0  0  0  0  0  0  0  0  0
   60.7650   34.4710   48.7300 C   0  0  0  0  0  0  0  0  0  0  0  0
   60.4580   34.5340   47.2980 N   0  0  0  0  0  0  0  0  0  0  0  0
   59.5260   33.6460   46.6530 C   0  0  0  0  0  0  0  0  0  0  0  0
   58.2390   34.0870   46.2390 C   0  0  0  0  0  0  0  0  0  0  0  0
   57.3440   33.2050   45.6100 C   0  0  0  0  0  0  0  0  0  0  0  0
   57.7490   31.8890   45.4060 C   0  0  0  0  0  0  0  0  0  0  0  0
   58.9970   31.4480   45.8060 C   0  0  0  0  0  0  0  0  0  0  0  0
   59.9030   32.3030   46.4310 C   0  0  0  0  0  0  0  0  0  0  0  0
   59.1210   30.0330   45.4550 C   0  0  0  0  0  0  0  0  0  0  0  0
   60.1800   29.1460   45.6480 C   0  0  0  0  0  0  0  0  0  0  0  0
   60.0230   27.8200   45.2050 C   0  0  0  0  0  0  0  0  0  0  0  0
   58.8240   27.4100   44.5830 C   0  0  0  0  0  0  0  0  0  0  0  0
   57.7690   28.3200   44.3980 C   0  0  0  0  0  0  0  0  0  0  0  0
   57.9450   29.6290   44.8450 C   0  0  0  0  0  0  0  0  0  0  0  0
   57.0400   30.7720   44.7900 C   0  0  0  0  0  0  0  0  0  0  0  0
   55.8780   30.7910   44.3060 O   0  0  0  0  0  0  0  0  0  0  0  0
   62.3026   31.1273   49.5913 H   0  0  0  0  0  0  0  0  0  0  0  0
   60.9499   31.4742   48.4614 H   0  0  0  0  0  0  0  0  0  0  0  0
   61.7273   29.8548   48.4614 H   0  0  0  0  0  0  0  0  0  0  0  0
   63.5833   30.5822   47.3011 H   0  0  0  0  0  0  0  0  0  0  0  0
   62.3087   31.7457   46.6677 H   0  0  0  0  0  0  0  0  0  0  0  0
   64.5270   32.5840   47.2600 H   0  0  0  0  0  0  0  0  0  0  0  0
   63.6249   32.6127   50.0504 H   0  0  0  0  0  0  0  0  0  0  0  0
   64.7146   31.3643   49.3571 H   0  0  0  0  0  0  0  0  0  0  0  0
   65.2116   33.0904   49.3571 H   0  0  0  0  0  0  0  0  0  0  0  0
   63.8220   34.6409   47.4916 H   0  0  0  0  0  0  0  0  0  0  0  0
   62.3011   33.7453   46.9650 H   0  0  0  0  0  0  0  0  0  0  0  0
   62.4763   33.7668   49.8414 H   0  0  0  0  0  0  0  0  0  0  0  0
   62.6199   35.4532   49.1902 H   0  0  0  0  0  0  0  0  0  0  0  0
   60.3063   33.5653   49.1534 H   0  0  0  0  0  0  0  0  0  0  0  0
   60.3625   35.3767   49.2071 H   0  0  0  0  0  0  0  0  0  0  0  0
   60.9390   35.2500   46.7080 H   0  0  0  0  0  0  0  0  0  0  0  0
   57.9404   35.1313   46.4133 H   0  0  0  0  0  0  0  0  0  0  0  0
   56.3492   33.5457   45.2872 H   0  0  0  0  0  0  0  0  0  0  0  0
   60.8923   31.9390   46.7453 H   0  0  0  0  0  0  0  0  0  0  0  0
   61.1114   29.4739   46.1328 H   0  0  0  0  0  0  0  0  0  0  0  0
   60.8406   27.0974   45.3443 H   0  0  0  0  0  0  0  0  0  0  0  0
   58.7145   26.3704   44.2405 H   0  0  0  0  0  0  0  0  0  0  0  0
   56.8314   28.0085   43.9145 H   0  0  0  0  0  0  0  0  0  0  0  0
  1  2  1  0
  2  3  1  0
  3  4  1  0
  3  5  1  0
  5  6  1  0
  6  7  1  0
  7  8  1  0
  8  9  1  0
  9 10  2  0
 10 11  1  0
 11 12  2  0
 12 13  1  0
 13 14  2  0
 13 15  1  0
 15 16  2  0
 16 17  1  0
 17 18  2  0
 18 19  1  0
 19 20  2  0
 20 21  1  0
 21 22  2  0
 14  9  1  0
 20 15  1  0
 21 12  1  0
  1 23  1  0
  1 24  1  0
  1 25  1  0
  2 26  1  0
  2 27  1  0
  3 28  1  6
  4 29  1  0
  4 30  1  0
  4 31  1  0
  5 32  1  0
  5 33  1  0
  6 34  1  0
  6 35  1  0
  7 36  1  0
  7 37  1  0
  8 38  1  0
 10 39  1  0
 11 40  1  0
 14 41  1  0
 16 42  1  0
 17 43  1  0
 18 44  1  0
 19 45  1  0
M  CHG  1   3   1
M  END
>  <UniqueID>  (41) 
41

>  <SMILES>  (41) 
CC[N@H+](C)CCCNc1ccc2c(c1)-c1ccccc1C2=O

>  <Energy>  (41) 
84.41773433719443

>  <Genealogy>  (41) 
CC[NH+](C)CCCNc1ccc2c(c1)-c1ccccc1C2=O (protonated)
CC[N@H+](C)CCCNc1ccc2c(c1)-c1ccccc1C2=O (chirality)
CC[N@H+](C)CCCNc1ccc2c(c1)-c1ccccc1C2=O (3D coordinates assigned)
CC[N@H+](C)CCCNc1ccc2c(c1)-c1ccccc1C2=O (nonaromatic ring conformer: 84.41773433719443 kcal/mol)

>  <smiles>  (41) 
CCN(C)CCCNc1ccc2c(c1)-c1ccccc1C2=O

>  <score_type>  (41) 
oracle

>  <origin>  (41) 
adg

>  <m_score__min__energy>  (41) 
-6.2300000000000004

>  <m_primary>  (41) 
energy

$$$$
42:0
     RDKit          3D

 43 47  0  0  1  0  0  0  0  0999 V2000
   55.5400   22.9430   43.6100 C   0  0  0  0  0  0  0  0  0  0  0  0
   55.0090   23.4720   44.7660 C   0  0  0  0  0  0  0  0  0  0  0  0
   55.5810   24.5640   45.3830 C   0  0  0  0  0  0  0  0  0  0  0  0
   56.7250   25.1900   44.8740 C   0  0  0  0  0  0  0  0  0  0  0  0
   57.3060   26.3400   45.5480 C   0  0  0  0  0  0  0  0  0  0  0  0
   58.2600   26.1200   46.4720 N   0  0  0  0  0  0  0  0  0  0  0  0
   58.8460   27.1360   47.1390 C   0  0  0  0  0  0  0  0  0  0  0  0
   59.8060   26.8420   48.0630 C   0  0  0  0  0  0  0  0  0  0  0  0
   60.3920   27.8710   48.7320 C   0  0  0  0  0  0  0  0  0  0  0  0
   60.0800   29.1830   48.5370 C   0  0  0  0  0  0  0  0  0  0  0  0
   59.0890   29.4660   47.5800 C   0  0  0  0  0  0  0  0  0  0  0  0
   58.5010   28.4340   46.9090 C   0  0  0  0  0  0  0  0  0  0  0  0
   57.5340   28.6710   45.9740 C   0  0  0  0  0  0  0  0  0  0  0  0
   57.1510   29.7940   45.6910 N   0  0  0  0  0  0  0  0  0  0  0  0
   57.4370   30.6970   44.7220 C   0  0  0  0  0  0  0  0  0  0  0  0
   57.1800   30.4580   43.3470 C   0  0  0  0  0  0  0  0  0  0  0  0
   57.3930   31.4550   42.4140 C   0  0  0  0  0  0  0  0  0  0  0  0
   57.8580   32.7040   42.7890 C   0  0  0  0  0  0  0  0  0  0  0  0
   58.1060   32.9300   44.1240 C   0  0  0  0  0  0  0  0  0  0  0  0
   58.5610   34.1700   44.4480 N   0  0  0  0  0  0  0  0  0  0  0  0
   58.8110   34.4200   45.7340 C   0  0  0  0  0  0  0  0  0  0  0  0
   58.6340   33.4990   46.7490 C   0  0  0  0  0  0  0  0  0  0  0  0
   58.1720   32.2360   46.4410 C   0  0  0  0  0  0  0  0  0  0  0  0
   57.9130   31.9760   45.1010 C   0  0  0  0  0  0  0  0  0  0  0  0
   56.9630   27.6100   45.3180 N   0  0  0  0  0  0  0  0  0  0  0  0
   57.2360   24.6400   43.7180 C   0  0  0  0  0  0  0  0  0  0  0  0
   56.6670   23.5410   43.0900 C   0  0  0  0  0  0  0  0  0  0  0  0
   55.0798   22.0729   43.1190 H   0  0  0  0  0  0  0  0  0  0  0  0
   54.1107   23.0138   45.2054 H   0  0  0  0  0  0  0  0  0  0  0  0
   55.1243   24.9556   46.3039 H   0  0  0  0  0  0  0  0  0  0  0  0
   60.0982   25.8003   48.2616 H   0  0  0  0  0  0  0  0  0  0  0  0
   61.1652   27.6293   49.4761 H   0  0  0  0  0  0  0  0  0  0  0  0
   60.5800   29.9836   49.1018 H   0  0  0  0  0  0  0  0  0  0  0  0
   58.7921   30.5052   47.3754 H   0  0  0  0  0  0  0  0  0  0  0  0
   56.8095   29.4745   43.0223 H   0  0  0  0  0  0  0  0  0  0  0  0
   57.1890   31.2522   41.3523 H   0  0  0  0  0  0  0  0  0  0  0  0
   58.0246   33.4934   42.0413 H   0  0  0  0  0  0  0  0  0  0  0  0
   59.1807   35.4204   46.0032 H   0  0  0  0  0  0  0  0  0  0  0  0
   58.8590   33.7699   47.7911 H   0  0  0  0  0  0  0  0  0  0  0  0
   58.0164   31.4728   47.2178 H   0  0  0  0  0  0  0  0  0  0  0  0
   56.2230   27.7710   44.5990 H   0  0  0  0  0  0  0  0  0  0  0  0
   58.1348   25.0923   43.2735 H   0  0  0  0  0  0  0  0  0  0  0  0
   57.1196   23.1440   42.1694 H   0  0  0  0  0  0  0  0  0  0  0  0
  1  2  2  0
  2  3  1  0
  3  4  2  0
  4  5  1  0
  5  6  2  0
  6  7  1  0
  7  8  2  0
  8  9  1  0
  9 10  2  0
 10 11  1  0
 11 12  2  0
 12 13  1  0
 13 14  2  0
 14 15  1  0
 15 16  2  0
 16 17  1  0
 17 18  2  0
 18 19  1  0
 19 20  2  0
 20 21  1  0
 21 22  2  0
 22 23  1  0
 23 24  2  0
 13 25  1  0
  4 26  1  0
 26 27  2  0
 27  1  1  0
 25  5  1  0
 12  7  1  0
 24 15  1  0
 24 19  1  0
  1 28  1  0
  2 29  1  0
  3 30  1  0
  8 31  1  0
  9 32  1  0
 10 33  1  0
 11 34  1  0
 16 35  1  0
 17 36  1  0
 18 37  1  0
 21 38  1  0
 22 39  1  0
 23 40  1  0
 25 41  1  0
 26 42  1  0
 27 43  1  0
M  END
>  <smiles>  (42) 
c1ccc(-c2nc3ccccc3c(=Nc3cccc4ncccc34)[nH]2)cc1

>  <score_type>  (42) 
oracle

>  <origin>  (42) 
adg

>  <m_score__min__energy>  (42) 
-9.0899999999999999

>  <m_primary>  (42) 
energy

$$$$
