0:0
     RDKit          3D

 43 45  0  0  0  0  0  0  0  0999 V2000
   63.3750   31.6000   49.3150 C   0  0  0  0  0  0  0  0  0  0  0  0
   63.9070   32.9440   48.8070 C   0  0  0  0  0  0  0  0  0  0  0  0
   64.1250   32.9470   47.3490 N   0  0  0  0  0  0  0  0  0  0  0  0
   63.1000   33.7270   46.6340 C   0  0  0  0  0  0  0  0  0  0  0  0
   61.7880   33.7970   47.4310 C   0  0  0  0  0  0  0  0  0  0  0  0
   60.6360   33.4860   46.5820 N   0  0  0  0  0  0  0  0  0  0  0  0
   60.0060   34.3510   45.7520 C   0  0  0  0  0  0  0  0  0  0  0  0
   58.9240   33.7340   45.1370 C   0  0  0  0  0  0  0  0  0  0  0  0
   58.9030   32.4440   45.6310 C   0  0  0  0  0  0  0  0  0  0  0  0
   58.0300   31.3790   45.3710 C   0  0  0  0  0  0  0  0  0  0  0  0
   58.2900   30.1460   46.0180 C   0  0  0  0  0  0  0  0  0  0  0  0
   59.3690   30.0370   46.9300 C   0  0  0  0  0  0  0  0  0  0  0  0
   60.2150   31.1300   47.1760 C   0  0  0  0  0  0  0  0  0  0  0  0
   59.9550   32.3260   46.5050 C   0  0  0  0  0  0  0  0  0  0  0  0
   57.3690   28.9640   45.8210 C   0  0  0  0  0  0  0  0  0  0  0  0
   56.5900   29.0430   44.5690 N   0  0  0  0  0  0  0  0  0  0  0  0
   57.4020   28.6940   43.3910 C   0  0  0  0  0  0  0  0  0  0  0  0
   55.9210   30.3520   44.4320 C   0  0  0  0  0  0  0  0  0  0  0  0
   56.9180   31.5210   44.3660 C   0  0  0  0  0  0  0  0  0  0  0  0
   63.3742   31.5981   50.4150 H   0  0  0  0  0  0  0  0  0  0  0  0
   62.3493   31.4491   48.9474 H   0  0  0  0  0  0  0  0  0  0  0  0
   64.0195   30.7879   48.9474 H   0  0  0  0  0  0  0  0  0  0  0  0
   63.1787   33.7295   49.0569 H   0  0  0  0  0  0  0  0  0  0  0  0
   64.8776   33.1255   49.2917 H   0  0  0  0  0  0  0  0  0  0  0  0
   65.0780   33.3270   47.1400 H   0  0  0  0  0  0  0  0  0  0  0  0
   64.0890   31.9530   47.0190 H   0  0  0  0  0  0  0  0  0  0  0  0
   63.4756   34.7483   46.4733 H   0  0  0  0  0  0  0  0  0  0  0  0
   62.8949   33.2298   45.6745 H   0  0  0  0  0  0  0  0  0  0  0  0
   61.8309   33.0722   48.2573 H   0  0  0  0  0  0  0  0  0  0  0  0
   61.6696   34.8197   47.8183 H   0  0  0  0  0  0  0  0  0  0  0  0
   60.3087   35.3957   45.5878 H   0  0  0  0  0  0  0  0  0  0  0  0
   58.2296   34.1792   44.4093 H   0  0  0  0  0  0  0  0  0  0  0  0
   59.5458   29.0847   47.4514 H   0  0  0  0  0  0  0  0  0  0  0  0
   61.0584   31.0463   47.8772 H   0  0  0  0  0  0  0  0  0  0  0  0
   57.9755   28.0466   45.7994 H   0  0  0  0  0  0  0  0  0  0  0  0
   56.6522   28.9622   46.6554 H   0  0  0  0  0  0  0  0  0  0  0  0
   58.3663   28.2795   43.7201 H   0  0  0  0  0  0  0  0  0  0  0  0
   56.8684   27.9457   42.7865 H   0  0  0  0  0  0  0  0  0  0  0  0
   57.5777   29.5961   42.7865 H   0  0  0  0  0  0  0  0  0  0  0  0
   55.3223   30.3469   43.5092 H   0  0  0  0  0  0  0  0  0  0  0  0
   55.2923   30.4999   45.3224 H   0  0  0  0  0  0  0  0  0  0  0  0
   57.3550   31.5571   43.3572 H   0  0  0  0  0  0  0  0  0  0  0  0
   56.3694   32.4456   44.5986 H   0  0  0  0  0  0  0  0  0  0  0  0
  1  2  1  0
  2  3  1  0
  3  4  1  0
  4  5  1  0
  5  6  1  0
  6  7  1  0
  7  8  2  0
  8  9  1  0
  9 10  2  0
 10 11  1  0
 11 12  2  0
 12 13  1  0
 13 14  2  0
 11 15  1  0
 15 16  1  0
 16 17  1  0
 16 18  1  0
 18 19  1  0
 14  6  1  0
 14  9  1  0
 19 10  1  0
  1 20  1  0
  1 21  1  0
  1 22  1  0
  2 23  1  0
  2 24  1  0
  3 25  1  0
  3 26  1  0
  4 27  1  0
  4 28  1  0
  5 29  1  0
  5 30  1  0
  7 31  1  0
  8 32  1  0
 12 33  1  0
 13 34  1  0
 15 35  1  0
 15 36  1  0
 17 37  1  0
 17 38  1  0
 17 39  1  0
 18 40  1  0
 18 41  1  0
 19 42  1  0
 19 43  1  0
M  CHG  1   3   1
M  END
>  <UniqueID>  (1) 
1

>  <SMILES>  (1) 
CC[NH2+]CCn1ccc2c3c(ccc21)CN(C)CC3

>  <Energy>  (1) 
76.97769672601352

>  <Genealogy>  (1) 
CC[NH2+]CCn1ccc2c3c(ccc21)CN(C)CC3 (protonated)
CC[NH2+]CCn1ccc2c3c(ccc21)CN(C)CC3 (3D coordinates assigned)
CC[NH2+]CCn1ccc2c3c(ccc21)CN(C)CC3 (nonaromatic ring conformer: 76.97769672601352 kcal/mol)

>  <smiles>  (1) 
CCNCCn1ccc2c3c(ccc21)CN(C)CC3

>  <score_type>  (1) 
oracle

>  <origin>  (1) 
adg

>  <m_score__min__energy>  (1) 
-5.4500000000000002

>  <m_primary>  (1) 
energy

$$$$
1:0
     RDKit          3D

 43 45  0  0  0  0  0  0  0  0999 V2000
   57.8040   32.3430   41.1350 C   0  0  0  0  0  0  0  0  0  0  0  0
   57.3940   31.7700   42.4870 C   0  0  0  0  0  0  0  0  0  0  0  0
   57.0080   30.3620   42.3410 N   0  0  0  0  0  0  0  0  0  0  0  0
   55.9370   30.0290   43.2870 C   0  0  0  0  0  0  0  0  0  0  0  0
   56.5180   29.6520   44.6550 C   0  0  0  0  0  0  0  0  0  0  0  0
   57.9520   29.9440   44.7500 N   0  0  0  0  0  0  0  0  0  0  0  0
   58.5980   30.4230   45.9480 C   0  0  0  0  0  0  0  0  0  0  0  0
   58.6570   31.8050   46.2520 C   0  0  0  0  0  0  0  0  0  0  0  0
   58.0390   32.7530   45.4130 C   0  0  0  0  0  0  0  0  0  0  0  0
   58.1400   34.1110   45.6800 C   0  0  0  0  0  0  0  0  0  0  0  0
   58.9230   34.5600   46.7340 C   0  0  0  0  0  0  0  0  0  0  0  0
   59.5820   33.6550   47.5810 C   0  0  0  0  0  0  0  0  0  0  0  0
   60.6340   34.2370   48.4940 C   0  0  0  0  0  0  0  0  0  0  0  0
   59.3430   32.2480   47.4360 C   0  0  0  0  0  0  0  0  0  0  0  0
   59.7600   31.3060   48.3690 N   0  0  0  0  0  0  0  0  0  0  0  0
   59.9790   31.6450   49.7870 C   0  0  0  0  0  0  0  0  0  0  0  0
   59.8100   29.9860   48.0020 C   0  0  0  0  0  0  0  0  0  0  0  0
   60.4120   28.9470   48.7430 C   0  0  0  0  0  0  0  0  0  0  0  0
   60.3190   27.7060   48.1240 C   0  0  0  0  0  0  0  0  0  0  0  0
   59.4950   27.8910   46.6680 S   0  0  0  0  0  0  0  0  0  0  0  0
   59.2450   29.5490   46.8170 C   0  0  0  0  0  0  0  0  0  0  0  0
   58.4378   33.2288   41.2891 H   0  0  0  0  0  0  0  0  0  0  0  0
   58.3654   31.5842   40.5702 H   0  0  0  0  0  0  0  0  0  0  0  0
   56.9046   32.6295   40.5702 H   0  0  0  0  0  0  0  0  0  0  0  0
   58.2403   31.8448   43.1857 H   0  0  0  0  0  0  0  0  0  0  0  0
   56.5371   32.3402   42.8751 H   0  0  0  0  0  0  0  0  0  0  0  0
   57.8440   29.7830   42.5880 H   0  0  0  0  0  0  0  0  0  0  0  0
   55.2750   30.8997   43.4037 H   0  0  0  0  0  0  0  0  0  0  0  0
   55.3733   29.1700   42.8940 H   0  0  0  0  0  0  0  0  0  0  0  0
   55.9887   30.2214   45.4332 H   0  0  0  0  0  0  0  0  0  0  0  0
   56.3855   28.5684   44.7900 H   0  0  0  0  0  0  0  0  0  0  0  0
   58.5080   29.8970   43.8680 H   0  0  0  0  0  0  0  0  0  0  0  0
   57.4695   32.4126   44.5356 H   0  0  0  0  0  0  0  0  0  0  0  0
   57.5973   34.8343   45.0537 H   0  0  0  0  0  0  0  0  0  0  0  0
   59.0289   35.6409   46.9084 H   0  0  0  0  0  0  0  0  0  0  0  0
   60.3407   34.0747   49.5417 H   0  0  0  0  0  0  0  0  0  0  0  0
   61.5987   33.7443   48.3028 H   0  0  0  0  0  0  0  0  0  0  0  0
   60.7291   35.3161   48.3028 H   0  0  0  0  0  0  0  0  0  0  0  0
   59.4922   30.8915   50.4236 H   0  0  0  0  0  0  0  0  0  0  0  0
   61.0585   31.6609   49.9977 H   0  0  0  0  0  0  0  0  0  0  0  0
   59.5497   32.6356   49.9977 H   0  0  0  0  0  0  0  0  0  0  0  0
   60.9056   29.1035   49.7135 H   0  0  0  0  0  0  0  0  0  0  0  0
   60.7176   26.7602   48.5198 H   0  0  0  0  0  0  0  0  0  0  0  0
  1  2  1  0
  2  3  1  0
  3  4  1  0
  4  5  1  0
  5  6  1  0
  6  7  1  0
  7  8  2  0
  8  9  1  0
  9 10  2  0
 10 11  1  0
 11 12  2  0
 12 13  1  0
 12 14  1  0
 14 15  2  0
 15 16  1  0
 15 17  1  0
 17 18  1  0
 18 19  2  0
 19 20  1  0
 20 21  1  0
 21  7  1  0
 14  8  1  0
 21 17  2  0
  1 22  1  0
  1 23  1  0
  1 24  1  0
  2 25  1  0
  2 26  1  0
  3 27  1  0
  4 28  1  0
  4 29  1  0
  5 30  1  0
  5 31  1  0
  6 32  1  0
  9 33  1  0
 10 34  1  0
 11 35  1  0
 13 36  1  0
 13 37  1  0
 13 38  1  0
 16 39  1  0
 16 40  1  0
 16 41  1  0
 18 42  1  0
 19 43  1  0
M  CHG  1  15   1
M  END
>  <UniqueID>  (2) 
2

>  <SMILES>  (2) 
CCNCCNc1c2cccc(C)c2[n+](C)c2ccsc12

>  <Energy>  (2) 
96.29013747859027

>  <Genealogy>  (2) 
CCNCCNc1c2cccc(C)c2[n+](C)c2ccsc12 (3D coordinates assigned)
CCNCCNc1c2cccc(C)c2[n+](C)c2ccsc12 (optimized conformer: 96.29013747859027 kcal/mol)

>  <smiles>  (2) 
CCNCCNc1c2cccc(C)c2[n+](C)c2ccsc12

>  <score_type>  (2) 
oracle

>  <origin>  (2) 
adg

>  <m_score__min__energy>  (2) 
-6.0700000000000003

>  <m_primary>  (2) 
energy

$$$$
2:0
     RDKit          3D

 60 62  0  0  0  0  0  0  0  0999 V2000
   57.2300   32.5850   45.2250 C   0  0  0  0  0  0  0  0  0  0  0  0
   57.5240   31.2800   44.4860 C   0  0  0  0  0  0  0  0  0  0  0  0
   56.5700   30.2120   44.8570 N   0  0  0  0  0  0  0  0  0  0  0  0
   55.5330   30.0570   43.8220 C   0  0  0  0  0  0  0  0  0  0  0  0
   57.1910   28.9140   45.2300 C   0  0  0  0  0  0  0  0  0  0  0  0
   58.0660   28.2690   44.1390 C   0  0  0  0  0  0  0  0  0  0  0  0
   59.4210   28.1940   44.5730 O   0  0  0  0  0  0  0  0  0  0  0  0
   59.8750   28.5790   45.8430 C   0  0  0  0  0  0  0  0  0  0  0  0
   60.2560   29.9110   46.0370 C   0  0  0  0  0  0  0  0  0  0  0  0
   60.6920   30.3510   47.2880 C   0  0  0  0  0  0  0  0  0  0  0  0
   60.7560   29.4580   48.3720 C   0  0  0  0  0  0  0  0  0  0  0  0
   61.1170   29.9330   49.6870 N   0  0  0  0  0  0  0  0  0  0  0  0
   60.1740   29.4490   50.7090 C   0  0  0  0  0  0  0  0  0  0  0  0
   59.2280   30.5410   51.1630 C   0  0  0  0  0  0  0  0  0  0  0  0
   57.9200   30.2020   51.5430 C   0  0  0  0  0  0  0  0  0  0  0  0
   57.0180   31.1910   51.9440 C   0  0  0  0  0  0  0  0  0  0  0  0
   55.2430   30.7100   52.4620 Br  0  0  0  0  0  0  0  0  0  0  0  0
   57.4130   32.5270   51.9580 C   0  0  0  0  0  0  0  0  0  0  0  0
   58.7060   32.8830   51.5740 C   0  0  0  0  0  0  0  0  0  0  0  0
   59.6270   31.8960   51.1700 C   0  0  0  0  0  0  0  0  0  0  0  0
   60.9320   32.2210   50.7600 O   0  0  0  0  0  0  0  0  0  0  0  0
   61.3700   33.5110   50.3330 C   0  0  0  0  0  0  0  0  0  0  0  0
   60.9150   33.7740   48.9240 C   0  0  0  0  0  0  0  0  0  0  0  0
   59.6170   34.2460   48.6630 C   0  0  0  0  0  0  0  0  0  0  0  0
   59.2150   34.5070   47.3470 C   0  0  0  0  0  0  0  0  0  0  0  0
   60.1010   34.2960   46.2870 C   0  0  0  0  0  0  0  0  0  0  0  0
   59.7090   34.5540   45.0110 F   0  0  0  0  0  0  0  0  0  0  0  0
   61.3910   33.8160   46.5410 C   0  0  0  0  0  0  0  0  0  0  0  0
   61.7950   33.5500   47.8520 C   0  0  0  0  0  0  0  0  0  0  0  0
   60.3890   28.1160   48.1750 C   0  0  0  0  0  0  0  0  0  0  0  0
   59.9540   27.6780   46.9220 C   0  0  0  0  0  0  0  0  0  0  0  0
   57.2697   32.4089   46.3101 H   0  0  0  0  0  0  0  0  0  0  0  0
   57.9805   33.3401   44.9484 H   0  0  0  0  0  0  0  0  0  0  0  0
   56.2282   32.9453   44.9484 H   0  0  0  0  0  0  0  0  0  0  0  0
   57.4533   31.4602   43.4032 H   0  0  0  0  0  0  0  0  0  0  0  0
   58.5347   30.9484   44.7663 H   0  0  0  0  0  0  0  0  0  0  0  0
   54.5544   29.9107   44.3025 H   0  0  0  0  0  0  0  0  0  0  0  0
   55.5024   30.9606   43.1954 H   0  0  0  0  0  0  0  0  0  0  0  0
   55.7680   29.1840   43.1954 H   0  0  0  0  0  0  0  0  0  0  0  0
   57.8201   29.0800   46.1170 H   0  0  0  0  0  0  0  0  0  0  0  0
   56.3588   28.2166   45.4063 H   0  0  0  0  0  0  0  0  0  0  0  0
   57.6954   27.2548   43.9290 H   0  0  0  0  0  0  0  0  0  0  0  0
   58.0151   28.8845   43.2287 H   0  0  0  0  0  0  0  0  0  0  0  0
   60.2116   30.6184   45.1958 H   0  0  0  0  0  0  0  0  0  0  0  0
   60.9870   31.4016   47.4263 H   0  0  0  0  0  0  0  0  0  0  0  0
   61.1040   30.9800   49.6850 H   0  0  0  0  0  0  0  0  0  0  0  0
   62.0920   29.6360   49.9320 H   0  0  0  0  0  0  0  0  0  0  0  0
   59.5857   28.6209   50.2870 H   0  0  0  0  0  0  0  0  0  0  0  0
   60.7559   29.1161   51.5811 H   0  0  0  0  0  0  0  0  0  0  0  0
   57.6024   29.1490   51.5250 H   0  0  0  0  0  0  0  0  0  0  0  0
   56.7019   33.3048   52.2733 H   0  0  0  0  0  0  0  0  0  0  0  0
   59.0084   33.9405   51.5867 H   0  0  0  0  0  0  0  0  0  0  0  0
   60.9480   34.2772   51.0000 H   0  0  0  0  0  0  0  0  0  0  0  0
   62.4689   33.5466   50.3678 H   0  0  0  0  0  0  0  0  0  0  0  0
   58.9155   34.4107   49.4941 H   0  0  0  0  0  0  0  0  0  0  0  0
   58.1993   34.8790   47.1472 H   0  0  0  0  0  0  0  0  0  0  0  0
   62.0882   33.6478   45.7070 H   0  0  0  0  0  0  0  0  0  0  0  0
   62.8065   33.1635   48.0455 H   0  0  0  0  0  0  0  0  0  0  0  0
   60.4446   27.4057   49.0131 H   0  0  0  0  0  0  0  0  0  0  0  0
   59.6719   26.6246   46.7776 H   0  0  0  0  0  0  0  0  0  0  0  0
  1  2  1  0
  2  3  1  0
  3  4  1  0
  3  5  1  0
  5  6  1  0
  6  7  1  0
  7  8  1  0
  8  9  2  0
  9 10  1  0
 10 11  2  0
 11 12  1  0
 12 13  1  0
 13 14  1  0
 14 15  2  0
 15 16  1  0
 16 17  1  0
 16 18  2  0
 18 19  1  0
 19 20  2  0
 20 21  1  0
 21 22  1  0
 22 23  1  0
 23 24  2  0
 24 25  1  0
 25 26  2  0
 26 27  1  0
 26 28  1  0
 28 29  2  0
 11 30  1  0
 30 31  2  0
 31  8  1  0
 20 14  1  0
 29 23  1  0
  1 32  1  0
  1 33  1  0
  1 34  1  0
  2 35  1  0
  2 36  1  0
  4 37  1  0
  4 38  1  0
  4 39  1  0
  5 40  1  0
  5 41  1  0
  6 42  1  0
  6 43  1  0
  9 44  1  0
 10 45  1  0
 12 46  1  0
 12 47  1  0
 13 48  1  0
 13 49  1  0
 15 50  1  0
 18 51  1  0
 19 52  1  0
 22 53  1  0
 22 54  1  0
 24 55  1  0
 25 56  1  0
 28 57  1  0
 29 58  1  0
 30 59  1  0
 31 60  1  0
M  CHG  1  12   1
M  END
>  <UniqueID>  (3) 
3

>  <SMILES>  (3) 
CCN(C)CCOc1ccc([NH2+]Cc2cc(Br)ccc2OCc2ccc(F)cc2)cc1

>  <Energy>  (3) 
61.77948177233716

>  <Genealogy>  (3) 
CCN(C)CCOc1ccc([NH2+]Cc2cc(Br)ccc2OCc2ccc(F)cc2)cc1 (protonated)
CCN(C)CCOc1ccc([NH2+]Cc2cc(Br)ccc2OCc2ccc(F)cc2)cc1 (3D coordinates assigned)
CCN(C)CCOc1ccc([NH2+]Cc2cc(Br)ccc2OCc2ccc(F)cc2)cc1 (optimized conformer: 61.77948177233716 kcal/mol)

>  <smiles>  (3) 
CCN(C)CCOc1ccc(NCc2cc(Br)ccc2OCc2ccc(F)cc2)cc1

>  <score_type>  (3) 
oracle

>  <origin>  (3) 
adg

>  <m_score__min__energy>  (3) 
-6.4000000000000004

>  <m_primary>  (3) 
energy

$$$$
3:0
     RDKit          3D

 36 37  0  0  0  0  0  0  0  0999 V2000
   57.1710   28.4370   43.6700 F   0  0  0  0  0  0  0  0  0  0  0  0
   56.6110   29.4190   44.4730 C   0  0  0  0  0  0  0  0  0  0  0  0
   55.3540   28.9790   44.8580 F   0  0  0  0  0  0  0  0  0  0  0  0
   56.4490   30.7540   43.6930 C   0  0  0  0  0  0  0  0  0  0  0  0
   57.6410   31.1690   42.9280 N   0  0  0  0  0  0  0  0  0  0  0  0
   58.2060   32.4690   43.3200 C   0  0  0  0  0  0  0  0  0  0  0  0
   57.3960   33.1280   44.4440 C   0  0  0  0  0  0  0  0  0  0  0  0
   58.2970   33.5010   45.5920 C   0  0  0  0  0  0  0  0  0  0  0  0
   59.1700   34.5960   45.4770 C   0  0  0  0  0  0  0  0  0  0  0  0
   59.9820   34.9650   46.5540 C   0  0  0  0  0  0  0  0  0  0  0  0
   59.9210   34.2510   47.7530 C   0  0  0  0  0  0  0  0  0  0  0  0
   59.0450   33.1680   47.8810 C   0  0  0  0  0  0  0  0  0  0  0  0
   58.9540   32.2010   49.5250 Br  0  0  0  0  0  0  0  0  0  0  0  0
   58.2300   32.7960   46.8050 C   0  0  0  0  0  0  0  0  0  0  0  0
   57.4590   29.6040   45.7420 C   0  0  0  0  0  0  0  0  0  0  0  0
   58.8270   29.1440   45.5170 N   0  0  0  0  0  0  0  0  0  0  0  0
   59.4450   28.1210   46.1320 C   0  0  0  0  0  0  0  0  0  0  0  0
   60.6800   27.9580   45.6320 N   0  0  0  0  0  0  0  0  0  0  0  0
   60.7760   28.9160   44.6890 C   0  0  0  0  0  0  0  0  0  0  0  0
   59.6460   29.6460   44.6060 N   0  0  0  0  0  0  0  0  0  0  0  0
   55.6121   30.6399   42.9884 H   0  0  0  0  0  0  0  0  0  0  0  0
   56.2757   31.5358   44.4472 H   0  0  0  0  0  0  0  0  0  0  0  0
   58.3810   30.4360   43.0210 H   0  0  0  0  0  0  0  0  0  0  0  0
   59.2388   32.3180   43.6671 H   0  0  0  0  0  0  0  0  0  0  0  0
   58.1760   33.1327   42.4433 H   0  0  0  0  0  0  0  0  0  0  0  0
   56.9091   34.0349   44.0560 H   0  0  0  0  0  0  0  0  0  0  0  0
   56.6382   32.4157   44.8023 H   0  0  0  0  0  0  0  0  0  0  0  0
   59.2148   35.1649   44.5366 H   0  0  0  0  0  0  0  0  0  0  0  0
   60.6694   35.8183   46.4569 H   0  0  0  0  0  0  0  0  0  0  0  0
   60.5629   34.5409   48.5979 H   0  0  0  0  0  0  0  0  0  0  0  0
   57.5355   31.9495   46.9099 H   0  0  0  0  0  0  0  0  0  0  0  0
   57.4759   30.6698   46.0134 H   0  0  0  0  0  0  0  0  0  0  0  0
   57.0146   29.0115   46.5553 H   0  0  0  0  0  0  0  0  0  0  0  0
   59.0026   27.5062   46.9297 H   0  0  0  0  0  0  0  0  0  0  0  0
   61.3960   27.2480   45.9040 H   0  0  0  0  0  0  0  0  0  0  0  0
   61.6662   29.0816   44.0645 H   0  0  0  0  0  0  0  0  0  0  0  0
  1  2  1  0
  2  3  1  0
  2  4  1  0
  4  5  1  0
  5  6  1  0
  6  7  1  0
  7  8  1  0
  8  9  2  0
  9 10  1  0
 10 11  2  0
 11 12  1  0
 12 13  1  0
 12 14  2  0
  2 15  1  0
 15 16  1  0
 16 17  1  0
 17 18  2  0
 18 19  1  0
 19 20  2  0
 14  8  1  0
 20 16  1  0
  4 21  1  0
  4 22  1  0
  5 23  1  0
  6 24  1  0
  6 25  1  0
  7 26  1  0
  7 27  1  0
  9 28  1  0
 10 29  1  0
 11 30  1  0
 14 31  1  0
 15 32  1  0
 15 33  1  0
 17 34  1  0
 18 35  1  0
 19 36  1  0
M  CHG  1  18   1
M  END
>  <UniqueID>  (4) 
4

>  <SMILES>  (4) 
FC(F)(CNCCc1cccc(Br)c1)Cn1c[nH+]cn1

>  <Energy>  (4) 
69.2765021071271

>  <Genealogy>  (4) 
FC(F)(CNCCc1cccc(Br)c1)Cn1c[nH+]cn1 (protonated)
FC(F)(CNCCc1cccc(Br)c1)Cn1c[nH+]cn1 (3D coordinates assigned)
FC(F)(CNCCc1cccc(Br)c1)Cn1c[nH+]cn1 (optimized conformer: 69.2765021071271 kcal/mol)

>  <smiles>  (4) 
FC(F)(CNCCc1cccc(Br)c1)Cn1cncn1

>  <score_type>  (4) 
oracle

>  <origin>  (4) 
adg

>  <m_score__min__energy>  (4) 
-5.6500000000000004

>  <m_primary>  (4) 
energy

$$$$
4:0
     RDKit          3D

 61 64  0  0  0  0  0  0  0  0999 V2000
   58.9130   33.6750   52.0710 C   0  0  0  0  0  0  0  0  0  0  0  0
   58.5970   32.7820   50.8660 C   0  0  0  0  0  0  0  0  0  0  0  0
   57.5360   31.7840   51.1650 N   0  0  2  0  0  0  0  0  0  0  0  0
   57.0820   31.9600   52.5620 C   0  0  0  0  0  0  0  0  0  0  0  0
   58.0340   30.3990   50.9560 C   0  0  0  0  0  0  0  0  0  0  0  0
   59.5200   30.2280   51.3580 C   0  0  0  0  0  0  0  0  0  0  0  0
   60.3540   29.8560   50.2120 N   0  0  0  0  0  0  0  0  0  0  0  0
   61.0170   30.8370   49.3930 C   0  0  0  0  0  0  0  0  0  0  0  0
   62.2970   31.3070   49.7360 C   0  0  0  0  0  0  0  0  0  0  0  0
   63.0180   30.7430   50.8040 C   0  0  0  0  0  0  0  0  0  0  0  0
   64.2730   31.2290   51.1580 C   0  0  0  0  0  0  0  0  0  0  0  0
   64.8630   32.2910   50.4520 C   0  0  0  0  0  0  0  0  0  0  0  0
   66.1630   32.8180   50.8430 N   0  0  0  0  0  0  0  0  0  0  0  0
   66.3110   34.2170   51.2710 C   0  0  0  0  0  0  0  0  0  0  0  0
   67.3580   31.9610   50.8200 C   0  0  0  0  0  0  0  0  0  0  0  0
   64.1640   32.8210   49.3490 C   0  0  0  0  0  0  0  0  0  0  0  0
   62.8960   32.3250   48.9570 C   0  0  0  0  0  0  0  0  0  0  0  0
   62.2560   32.8020   47.8290 N   0  0  0  0  0  0  0  0  0  0  0  0
   63.0820   33.3930   46.7530 C   0  0  0  0  0  0  0  0  0  0  0  0
   60.9240   32.4990   47.6060 C   0  0  0  0  0  0  0  0  0  0  0  0
   60.3500   31.3940   48.2860 C   0  0  0  0  0  0  0  0  0  0  0  0
   59.1180   30.8690   47.8520 C   0  0  0  0  0  0  0  0  0  0  0  0
   58.4110   31.4710   46.8210 C   0  0  0  0  0  0  0  0  0  0  0  0
   58.8580   32.6740   46.2720 C   0  0  0  0  0  0  0  0  0  0  0  0
   58.0570   33.3490   45.3370 C   0  0  0  0  0  0  0  0  0  0  0  0
   58.4200   34.6150   44.8840 C   0  0  0  0  0  0  0  0  0  0  0  0
   59.5630   35.2320   45.3880 C   0  0  0  0  0  0  0  0  0  0  0  0
   60.3770   34.5640   46.3050 C   0  0  0  0  0  0  0  0  0  0  0  0
   60.0900   33.2360   46.7020 C   0  0  0  0  0  0  0  0  0  0  0  0
   58.7166   33.1200   53.0002 H   0  0  0  0  0  0  0  0  0  0  0  0
   59.9713   33.9733   52.0388 H   0  0  0  0  0  0  0  0  0  0  0  0
   58.2779   34.5726   52.0388 H   0  0  0  0  0  0  0  0  0  0  0  0
   58.2603   33.4174   50.0336 H   0  0  0  0  0  0  0  0  0  0  0  0
   59.5131   32.2312   50.6064 H   0  0  0  0  0  0  0  0  0  0  0  0
   56.7160   31.9620   50.5390 H   0  0  0  0  0  0  0  0  0  0  0  0
   57.8826   31.6496   53.2496 H   0  0  0  0  0  0  0  0  0  0  0  0
   56.8376   33.0180   52.7376 H   0  0  0  0  0  0  0  0  0  0  0  0
   56.1883   31.3432   52.7376 H   0  0  0  0  0  0  0  0  0  0  0  0
   57.4249   29.7115   51.5613 H   0  0  0  0  0  0  0  0  0  0  0  0
   57.9541   30.1771   49.8816 H   0  0  0  0  0  0  0  0  0  0  0  0
   59.8882   31.1778   51.7730 H   0  0  0  0  0  0  0  0  0  0  0  0
   59.5822   29.4208   52.1027 H   0  0  0  0  0  0  0  0  0  0  0  0
   60.4340   28.8480   49.9500 H   0  0  0  0  0  0  0  0  0  0  0  0
   62.5831   29.9048   51.3681 H   0  0  0  0  0  0  0  0  0  0  0  0
   64.8112   30.7750   52.0031 H   0  0  0  0  0  0  0  0  0  0  0  0
   66.3161   34.2657   52.3699 H   0  0  0  0  0  0  0  0  0  0  0  0
   67.2569   34.6215   50.8816 H   0  0  0  0  0  0  0  0  0  0  0  0
   65.4706   34.8104   50.8816 H   0  0  0  0  0  0  0  0  0  0  0  0
   67.6691   31.7379   51.8512 H   0  0  0  0  0  0  0  0  0  0  0  0
   67.1259   31.0222   50.2958 H   0  0  0  0  0  0  0  0  0  0  0  0
   68.1728   32.4819   50.2958 H   0  0  0  0  0  0  0  0  0  0  0  0
   64.6160   33.6438   48.7757 H   0  0  0  0  0  0  0  0  0  0  0  0
   63.9000   33.9783   47.1982 H   0  0  0  0  0  0  0  0  0  0  0  0
   63.5026   32.5896   46.1304 H   0  0  0  0  0  0  0  0  0  0  0  0
   62.4574   34.0505   46.1304 H   0  0  0  0  0  0  0  0  0  0  0  0
   58.7104   29.9696   48.3367 H   0  0  0  0  0  0  0  0  0  0  0  0
   57.4955   30.9988   46.4351 H   0  0  0  0  0  0  0  0  0  0  0  0
   57.1383   32.8756   44.9604 H   0  0  0  0  0  0  0  0  0  0  0  0
   57.8051   35.1271   44.1293 H   0  0  0  0  0  0  0  0  0  0  0  0
   59.8252   36.2494   45.0622 H   0  0  0  0  0  0  0  0  0  0  0  0
   61.2544   35.0775   46.7252 H   0  0  0  0  0  0  0  0  0  0  0  0
  1  2  1  0
  2  3  1  0
  3  4  1  0
  3  5  1  0
  5  6  1  0
  6  7  1  0
  7  8  1  0
  8  9  2  0
  9 10  1  0
 10 11  2  0
 11 12  1  0
 12 13  1  0
 13 14  1  0
 13 15  1  0
 12 16  2  0
 16 17  1  0
 17 18  2  0
 18 19  1  0
 18 20  1  0
 20 21  2  0
 21 22  1  0
 22 23  2  0
 23 24  1  0
 24 25  2  0
 25 26  1  0
 26 27  2  0
 27 28  1  0
 28 29  2  0
 21  8  1  0
 29 24  1  0
 17  9  1  0
 29 20  1  0
  1 30  1  0
  1 31  1  0
  1 32  1  0
  2 33  1  0
  2 34  1  0
  3 35  1  6
  4 36  1  0
  4 37  1  0
  4 38  1  0
  5 39  1  0
  5 40  1  0
  6 41  1  0
  6 42  1  0
  7 43  1  0
 10 44  1  0
 11 45  1  0
 14 46  1  0
 14 47  1  0
 14 48  1  0
 15 49  1  0
 15 50  1  0
 15 51  1  0
 16 52  1  0
 19 53  1  0
 19 54  1  0
 19 55  1  0
 22 56  1  0
 23 57  1  0
 25 58  1  0
 26 59  1  0
 27 60  1  0
 28 61  1  0
M  CHG  2   3   1  18   1
M  END
>  <UniqueID>  (5) 
5

>  <SMILES>  (5) 
CC[N@H+](C)CCNc1c2ccc(N(C)C)cc2[n+](C)c2c1ccc1ccccc12

>  <Energy>  (5) 
109.89996360952058

>  <Genealogy>  (5) 
CC[NH+](C)CCNc1c2ccc(N(C)C)cc2[n+](C)c2c1ccc1ccccc12 (protonated)
CC[N@H+](C)CCNc1c2ccc(N(C)C)cc2[n+](C)c2c1ccc1ccccc12 (chirality)
CC[N@H+](C)CCNc1c2ccc(N(C)C)cc2[n+](C)c2c1ccc1ccccc12 (3D coordinates assigned)
CC[N@H+](C)CCNc1c2ccc(N(C)C)cc2[n+](C)c2c1ccc1ccccc12 (optimized conformer: 109.89996360952058 kcal/mol)

>  <smiles>  (5) 
CCN(C)CCNc1c2ccc(N(C)C)cc2[n+](C)c2c1ccc1ccccc12

>  <score_type>  (5) 
oracle

>  <origin>  (5) 
adg

>  <m_score__min__energy>  (5) 
-4.7300000000000004

>  <m_primary>  (5) 
energy

$$$$
5:0
     RDKit          3D

 50 52  0  0  0  0  0  0  0  0999 V2000
   63.3210   33.8440   46.4210 C   0  0  0  0  0  0  0  0  0  0  0  0
   63.7790   32.8480   47.4810 C   0  0  0  0  0  0  0  0  0  0  0  0
   62.8190   32.8200   48.6100 N   0  0  0  0  0  0  0  0  0  0  0  0
   63.2990   33.6770   49.7110 C   0  0  0  0  0  0  0  0  0  0  0  0
   62.5950   31.4430   49.1030 C   0  0  0  0  0  0  0  0  0  0  0  0
   61.4260   30.7670   48.3700 C   0  0  0  0  0  0  0  0  0  0  0  0
   61.1060   31.4540   47.1170 N   0  0  0  0  0  0  0  0  0  0  0  0
   59.9090   31.1630   46.3790 C   0  0  0  0  0  0  0  0  0  0  0  0
   59.6140   29.8330   46.0310 C   0  0  0  0  0  0  0  0  0  0  0  0
   60.3630   28.7630   46.5660 C   0  0  0  0  0  0  0  0  0  0  0  0
   60.0510   27.4440   46.2430 C   0  0  0  0  0  0  0  0  0  0  0  0
   58.9810   27.1690   45.4000 C   0  0  0  0  0  0  0  0  0  0  0  0
   58.2260   28.2110   44.8630 C   0  0  0  0  0  0  0  0  0  0  0  0
   58.5410   29.5640   45.1470 C   0  0  0  0  0  0  0  0  0  0  0  0
   57.8290   30.6080   44.5890 N   0  0  0  0  0  0  0  0  0  0  0  0
   56.9520   30.3610   43.4230 C   0  0  0  0  0  0  0  0  0  0  0  0
   57.9540   31.8830   45.1080 C   0  0  0  0  0  0  0  0  0  0  0  0
   57.0330   32.9030   44.7670 C   0  0  0  0  0  0  0  0  0  0  0  0
   57.1810   34.1960   45.2500 C   0  0  0  0  0  0  0  0  0  0  0  0
   58.2270   34.5100   46.1040 C   0  0  0  0  0  0  0  0  0  0  0  0
   59.1410   33.5240   46.5110 C   0  0  0  0  0  0  0  0  0  0  0  0
   60.1660   33.8420   47.4190 O   0  0  0  0  0  0  0  0  0  0  0  0
   59.9710   34.2350   48.7740 C   0  0  0  0  0  0  0  0  0  0  0  0
   59.0120   32.1950   46.0110 C   0  0  0  0  0  0  0  0  0  0  0  0
   62.9097   34.7385   46.9117 H   0  0  0  0  0  0  0  0  0  0  0  0
   64.1775   34.1312   45.7933 H   0  0  0  0  0  0  0  0  0  0  0  0
   62.5455   33.3808   45.7933 H   0  0  0  0  0  0  0  0  0  0  0  0
   63.8420   31.8452   47.0334 H   0  0  0  0  0  0  0  0  0  0  0  0
   64.7656   33.1553   47.8580 H   0  0  0  0  0  0  0  0  0  0  0  0
   63.0401   33.2148   50.6750 H   0  0  0  0  0  0  0  0  0  0  0  0
   64.3910   33.7887   49.6394 H   0  0  0  0  0  0  0  0  0  0  0  0
   62.8238   34.6665   49.6394 H   0  0  0  0  0  0  0  0  0  0  0  0
   63.5085   30.8520   48.9409 H   0  0  0  0  0  0  0  0  0  0  0  0
   62.3479   31.4951   50.1736 H   0  0  0  0  0  0  0  0  0  0  0  0
   61.6995   29.7253   48.1462 H   0  0  0  0  0  0  0  0  0  0  0  0
   60.5407   30.8094   49.0215 H   0  0  0  0  0  0  0  0  0  0  0  0
   61.6730   32.2880   46.8390 H   0  0  0  0  0  0  0  0  0  0  0  0
   61.2023   28.9727   47.2454 H   0  0  0  0  0  0  0  0  0  0  0  0
   60.6519   26.6201   46.6554 H   0  0  0  0  0  0  0  0  0  0  0  0
   58.7290   26.1265   45.1557 H   0  0  0  0  0  0  0  0  0  0  0  0
   57.3725   27.9798   44.2087 H   0  0  0  0  0  0  0  0  0  0  0  0
   55.9481   30.0783   43.7726 H   0  0  0  0  0  0  0  0  0  0  0  0
   56.8845   31.2751   42.8148 H   0  0  0  0  0  0  0  0  0  0  0  0
   57.3715   29.5461   42.8148 H   0  0  0  0  0  0  0  0  0  0  0  0
   56.1850   32.6666   44.1075 H   0  0  0  0  0  0  0  0  0  0  0  0
   56.4642   34.9759   44.9534 H   0  0  0  0  0  0  0  0  0  0  0  0
   58.3424   35.5421   46.4667 H   0  0  0  0  0  0  0  0  0  0  0  0
   60.3593   33.4523   49.4423 H   0  0  0  0  0  0  0  0  0  0  0  0
   60.5061   35.1773   48.9631 H   0  0  0  0  0  0  0  0  0  0  0  0
   58.8970   34.3789   48.9631 H   0  0  0  0  0  0  0  0  0  0  0  0
  1  2  1  0
  2  3  1  0
  3  4  1  0
  3  5  1  0
  5  6  1  0
  6  7  1  0
  7  8  1  0
  8  9  2  0
  9 10  1  0
 10 11  2  0
 11 12  1  0
 12 13  2  0
 13 14  1  0
 14 15  2  0
 15 16  1  0
 15 17  1  0
 17 18  2  0
 18 19  1  0
 19 20  2  0
 20 21  1  0
 21 22  1  0
 22 23  1  0
 21 24  2  0
 24  8  1  0
 14  9  1  0
 24 17  1  0
  1 25  1  0
  1 26  1  0
  1 27  1  0
  2 28  1  0
  2 29  1  0
  4 30  1  0
  4 31  1  0
  4 32  1  0
  5 33  1  0
  5 34  1  0
  6 35  1  0
  6 36  1  0
  7 37  1  0
 10 38  1  0
 11 39  1  0
 12 40  1  0
 13 41  1  0
 16 42  1  0
 16 43  1  0
 16 44  1  0
 18 45  1  0
 19 46  1  0
 20 47  1  0
 23 48  1  0
 23 49  1  0
 23 50  1  0
M  CHG  1  15   1
M  END
>  <UniqueID>  (6) 
6

>  <SMILES>  (6) 
CCN(C)CCNc1c2ccccc2[n+](C)c2cccc(OC)c12

>  <Energy>  (6) 
74.8401673664362

>  <Genealogy>  (6) 
CCN(C)CCNc1c2ccccc2[n+](C)c2cccc(OC)c12 (3D coordinates assigned)
CCN(C)CCNc1c2ccccc2[n+](C)c2cccc(OC)c12 (optimized conformer: 74.8401673664362 kcal/mol)

>  <smiles>  (6) 
CCN(C)CCNc1c2ccccc2[n+](C)c2cccc(OC)c12

>  <score_type>  (6) 
oracle

>  <origin>  (6) 
adg

>  <m_score__min__energy>  (6) 
-5.04

>  <m_primary>  (6) 
energy

$$$$
6:0
     RDKit          3D

 76 79  0  0  0  0  0  0  0  0999 V2000
   56.9780   24.2490   43.4290 C   0  0  0  0  0  0  0  0  0  0  0  0
   57.5360   25.1820   44.5070 C   0  0  0  0  0  0  0  0  0  0  0  0
   57.4770   26.6010   44.1140 N   0  0  0  0  0  0  0  0  0  0  0  0
   58.7400   27.3060   44.3910 C   0  0  0  0  0  0  0  0  0  0  0  0
   58.8250   27.7170   45.8680 C   0  0  0  0  0  0  0  0  0  0  0  0
   57.8810   28.7970   46.1700 N   0  0  0  0  0  0  0  0  0  0  0  0
   58.1530   30.1630   45.8070 C   0  0  0  0  0  0  0  0  0  0  0  0
   57.7600   30.6570   44.5510 C   0  0  0  0  0  0  0  0  0  0  0  0
   56.9630   29.8780   43.6840 C   0  0  0  0  0  0  0  0  0  0  0  0
   56.6210   30.3460   42.4170 C   0  0  0  0  0  0  0  0  0  0  0  0
   57.0660   31.5920   41.9910 C   0  0  0  0  0  0  0  0  0  0  0  0
   57.8310   32.3910   42.8410 C   0  0  0  0  0  0  0  0  0  0  0  0
   58.1580   31.9630   44.1550 C   0  0  0  0  0  0  0  0  0  0  0  0
   58.8560   32.7720   45.0330 N   0  0  0  0  0  0  0  0  0  0  0  0
   59.0400   34.2100   44.7340 C   0  0  0  0  0  0  0  0  0  0  0  0
   59.3410   32.2510   46.2180 C   0  0  0  0  0  0  0  0  0  0  0  0
   60.2830   32.9510   47.0090 C   0  0  0  0  0  0  0  0  0  0  0  0
   60.7090   32.4620   48.2460 C   0  0  0  0  0  0  0  0  0  0  0  0
   61.6830   33.1940   48.9380 O   0  0  0  0  0  0  0  0  0  0  0  0
   61.4820   33.9030   50.1630 C   0  0  0  0  0  0  0  0  0  0  0  0
   62.8610   34.2310   50.7810 C   0  0  0  0  0  0  0  0  0  0  0  0
   63.6120   33.0750   51.3800 N   0  0  0  0  0  0  0  0  0  0  0  0
   62.7240   32.3520   52.3310 C   0  0  0  0  0  0  0  0  0  0  0  0
   64.0900   32.1070   50.3340 C   0  0  0  0  0  0  0  0  0  0  0  0
   65.4770   32.4800   49.7850 C   0  0  0  0  0  0  0  0  0  0  0  0
   66.5340   32.4030   50.8430 N   0  0  0  0  0  0  0  0  0  0  0  0
   67.1420   31.0480   50.8430 C   0  0  0  0  0  0  0  0  0  0  0  0
   67.6060   33.3780   50.5210 C   0  0  0  0  0  0  0  0  0  0  0  0
   65.9840   32.6890   52.2060 C   0  0  0  0  0  0  0  0  0  0  0  0
   64.7700   33.6410   52.1570 C   0  0  0  0  0  0  0  0  0  0  0  0
   60.1850   31.2560   48.7240 C   0  0  0  0  0  0  0  0  0  0  0  0
   59.3200   30.5090   47.9300 C   0  0  0  0  0  0  0  0  0  0  0  0
   58.9250   30.9700   46.6580 C   0  0  0  0  0  0  0  0  0  0  0  0
   56.4695   23.3988   43.9072 H   0  0  0  0  0  0  0  0  0  0  0  0
   56.2610   24.7999   42.8026 H   0  0  0  0  0  0  0  0  0  0  0  0
   57.8026   23.8779   42.8026 H   0  0  0  0  0  0  0  0  0  0  0  0
   56.9497   25.0468   45.4279 H   0  0  0  0  0  0  0  0  0  0  0  0
   58.5941   24.9217   44.6578 H   0  0  0  0  0  0  0  0  0  0  0  0
   57.2860   26.6370   43.0850 H   0  0  0  0  0  0  0  0  0  0  0  0
   56.6870   27.0760   44.6100 H   0  0  0  0  0  0  0  0  0  0  0  0
   59.5834   26.6411   44.1530 H   0  0  0  0  0  0  0  0  0  0  0  0
   58.7795   28.2135   43.7706 H   0  0  0  0  0  0  0  0  0  0  0  0
   58.5884   26.8465   46.4974 H   0  0  0  0  0  0  0  0  0  0  0  0
   59.8443   28.0763   46.0728 H   0  0  0  0  0  0  0  0  0  0  0  0
   57.0340   28.5900   46.7450 H   0  0  0  0  0  0  0  0  0  0  0  0
   56.6080   28.8901   44.0127 H   0  0  0  0  0  0  0  0  0  0  0  0
   55.9981   29.7287   41.7530 H   0  0  0  0  0  0  0  0  0  0  0  0
   56.8144   31.9488   40.9814 H   0  0  0  0  0  0  0  0  0  0  0  0
   58.1872   33.3698   42.4872 H   0  0  0  0  0  0  0  0  0  0  0  0
   59.1122   34.7740   45.6757 H   0  0  0  0  0  0  0  0  0  0  0  0
   59.9632   34.3483   44.1521 H   0  0  0  0  0  0  0  0  0  0  0  0
   58.1814   34.5763   44.1521 H   0  0  0  0  0  0  0  0  0  0  0  0
   60.6899   33.9042   46.6403 H   0  0  0  0  0  0  0  0  0  0  0  0
   60.9344   34.8362   49.9645 H   0  0  0  0  0  0  0  0  0  0  0  0
   60.8972   33.2855   50.8606 H   0  0  0  0  0  0  0  0  0  0  0  0
   63.4890   34.6649   49.9889 H   0  0  0  0  0  0  0  0  0  0  0  0
   62.6533   34.9128   51.6189 H   0  0  0  0  0  0  0  0  0  0  0  0
   63.0191   32.5923   53.3631 H   0  0  0  0  0  0  0  0  0  0  0  0
   61.6813   32.6612   52.1663 H   0  0  0  0  0  0  0  0  0  0  0  0
   62.8154   31.2682   52.1663 H   0  0  0  0  0  0  0  0  0  0  0  0
   64.1441   31.1027   50.7796 H   0  0  0  0  0  0  0  0  0  0  0  0
   63.3772   32.1367   49.4967 H   0  0  0  0  0  0  0  0  0  0  0  0
   65.7362   31.7861   48.9718 H   0  0  0  0  0  0  0  0  0  0  0  0
   65.4327   33.5172   49.4213 H   0  0  0  0  0  0  0  0  0  0  0  0
   67.2921   30.7135   51.8801 H   0  0  0  0  0  0  0  0  0  0  0  0
   66.4727   30.3458   50.3245 H   0  0  0  0  0  0  0  0  0  0  0  0
   68.1115   31.0812   50.3245 H   0  0  0  0  0  0  0  0  0  0  0  0
   68.0372   33.7702   51.4539 H   0  0  0  0  0  0  0  0  0  0  0  0
   68.3919   32.8787   49.9353 H   0  0  0  0  0  0  0  0  0  0  0  0
   67.1833   34.2076   49.9353 H   0  0  0  0  0  0  0  0  0  0  0  0
   65.6722   31.7408   52.6683 H   0  0  0  0  0  0  0  0  0  0  0  0
   66.7744   33.1797   52.7929 H   0  0  0  0  0  0  0  0  0  0  0  0
   64.4380   33.8395   53.1867 H   0  0  0  0  0  0  0  0  0  0  0  0
   65.0922   34.5603   51.6460 H   0  0  0  0  0  0  0  0  0  0  0  0
   60.4569   30.8981   49.7280 H   0  0  0  0  0  0  0  0  0  0  0  0
   58.9394   29.5456   48.3002 H   0  0  0  0  0  0  0  0  0  0  0  0
  1  2  1  0
  2  3  1  0
  3  4  1  0
  4  5  1  0
  5  6  1  0
  6  7  1  0
  7  8  2  0
  8  9  1  0
  9 10  2  0
 10 11  1  0
 11 12  2  0
 12 13  1  0
 13 14  2  0
 14 15  1  0
 14 16  1  0
 16 17  2  0
 17 18  1  0
 18 19  1  0
 19 20  1  0
 20 21  1  0
 21 22  1  0
 22 23  1  0
 22 24  1  0
 24 25  1  0
 25 26  1  0
 26 27  1  0
 26 28  1  0
 26 29  1  0
 29 30  1  0
 18 31  2  0
 31 32  1  0
 32 33  2  0
 33  7  1  0
 13  8  1  0
 33 16  1  0
 30 22  1  0
  1 34  1  0
  1 35  1  0
  1 36  1  0
  2 37  1  0
  2 38  1  0
  3 39  1  0
  3 40  1  0
  4 41  1  0
  4 42  1  0
  5 43  1  0
  5 44  1  0
  6 45  1  0
  9 46  1  0
 10 47  1  0
 11 48  1  0
 12 49  1  0
 15 50  1  0
 15 51  1  0
 15 52  1  0
 17 53  1  0
 20 54  1  0
 20 55  1  0
 21 56  1  0
 21 57  1  0
 23 58  1  0
 23 59  1  0
 23 60  1  0
 24 61  1  0
 24 62  1  0
 25 63  1  0
 25 64  1  0
 27 65  1  0
 27 66  1  0
 27 67  1  0
 28 68  1  0
 28 69  1  0
 28 70  1  0
 29 71  1  0
 29 72  1  0
 30 73  1  0
 30 74  1  0
 31 75  1  0
 32 76  1  0
M  CHG  4   3   1  14   1  22   1  26   1
M  END
>  <UniqueID>  (7) 
7

>  <SMILES>  (7) 
CC[NH2+]CCNc1c2ccccc2[n+](C)c2cc(OCC[N+]3(C)CC[N+](C)(C)CC3)ccc12

>  <Energy>  (7) 
130.47689883831964

>  <Genealogy>  (7) 
CC[NH2+]CCNc1c2ccccc2[n+](C)c2cc(OCC[N+]3(C)CC[N+](C)(C)CC3)ccc12 (protonated)
CC[NH2+]CCNc1c2ccccc2[n+](C)c2cc(OCC[N+]3(C)CC[N+](C)(C)CC3)ccc12 (3D coordinates assigned)
CC[NH2+]CCNc1c2ccccc2[n+](C)c2cc(OCC[N+]3(C)CC[N+](C)(C)CC3)ccc12 (nonaromatic ring conformer: 130.47689883831964 kcal/mol)

>  <smiles>  (7) 
CCNCCNc1c2ccccc2[n+](C)c2cc(OCC[N+]3(C)CC[N+](C)(C)CC3)ccc12

>  <score_type>  (7) 
oracle

>  <origin>  (7) 
adg

>  <m_score__min__energy>  (7) 
-2.8900000000000001

>  <m_primary>  (7) 
energy

$$$$
7:0
     RDKit          3D

 31 32  0  0  0  0  0  0  0  0999 V2000
   63.1870   33.4860   46.8020 C   0  0  0  0  0  0  0  0  0  0  0  0
   61.7300   33.8030   46.5020 C   0  0  0  0  0  0  0  0  0  0  0  0
   60.6630   33.1370   47.8220 S   0  0  0  0  0  0  0  0  0  0  0  0
   59.6890   32.1270   46.6870 C   0  0  0  0  0  0  0  0  0  0  0  0
   60.1600   30.8890   46.3690 N   0  0  0  0  0  0  0  0  0  0  0  0
   59.4420   30.0950   45.5460 C   0  0  0  0  0  0  0  0  0  0  0  0
   59.8420   28.5450   45.0500 S   0  0  0  0  0  0  0  0  0  0  0  0
   58.4480   28.3380   44.1160 C   0  0  0  0  0  0  0  0  0  0  0  0
   58.1420   27.0950   43.3430 C   0  0  0  0  0  0  0  0  0  0  0  0
   57.6530   29.4940   44.1880 C   0  0  0  0  0  0  0  0  0  0  0  0
   56.3380   29.6520   43.4760 C   0  0  0  0  0  0  0  0  0  0  0  0
   58.2360   30.4860   45.0090 C   0  0  0  0  0  0  0  0  0  0  0  0
   57.7530   31.7630   45.3300 C   0  0  0  0  0  0  0  0  0  0  0  0
   56.6460   32.1530   44.8670 O   0  0  0  0  0  0  0  0  0  0  0  0
   58.4980   32.5820   46.1540 N   0  0  0  0  0  0  0  0  0  0  0  0
   58.0120   33.9290   46.4980 C   0  0  0  0  0  0  0  0  0  0  0  0
   63.3384   33.4531   47.8910 H   0  0  0  0  0  0  0  0  0  0  0  0
   63.4472   32.5102   46.3660 H   0  0  0  0  0  0  0  0  0  0  0  0
   63.8291   34.2654   46.3660 H   0  0  0  0  0  0  0  0  0  0  0  0
   61.5990   34.8936   46.4431 H   0  0  0  0  0  0  0  0  0  0  0  0
   61.4498   33.3416   45.5436 H   0  0  0  0  0  0  0  0  0  0  0  0
   61.0650   30.5480   46.7650 H   0  0  0  0  0  0  0  0  0  0  0  0
   57.9388   26.2697   44.0412 H   0  0  0  0  0  0  0  0  0  0  0  0
   57.2589   27.2652   42.7096 H   0  0  0  0  0  0  0  0  0  0  0  0
   59.0031   26.8358   42.7096 H   0  0  0  0  0  0  0  0  0  0  0  0
   55.5298   29.7491   44.2159 H   0  0  0  0  0  0  0  0  0  0  0  0
   56.3683   30.5530   42.8457 H   0  0  0  0  0  0  0  0  0  0  0  0
   56.1540   28.7695   42.8457 H   0  0  0  0  0  0  0  0  0  0  0  0
   57.9732   34.0365   47.5920 H   0  0  0  0  0  0  0  0  0  0  0  0
   58.6947   34.6831   46.0794 H   0  0  0  0  0  0  0  0  0  0  0  0
   57.0051   34.0735   46.0794 H   0  0  0  0  0  0  0  0  0  0  0  0
  1  2  1  0
  2  3  1  0
  3  4  1  0
  4  5  2  0
  5  6  1  0
  6  7  1  0
  7  8  1  0
  8  9  1  0
  8 10  2  0
 10 11  1  0
 10 12  1  0
 12 13  1  0
 13 14  2  0
 13 15  1  0
 15 16  1  0
 15  4  1  0
 12  6  2  0
  1 17  1  0
  1 18  1  0
  1 19  1  0
  2 20  1  0
  2 21  1  0
  5 22  1  0
  9 23  1  0
  9 24  1  0
  9 25  1  0
 11 26  1  0
 11 27  1  0
 11 28  1  0
 16 29  1  0
 16 30  1  0
 16 31  1  0
M  CHG  1   5   1
M  END
>  <UniqueID>  (8) 
8

>  <SMILES>  (8) 
CCSc1[nH+]c2sc(C)c(C)c2c(=O)n1C

>  <Energy>  (8) 
60.06064799070966

>  <Genealogy>  (8) 
CCSc1[nH+]c2sc(C)c(C)c2c(=O)n1C (protonated)
CCSc1[nH+]c2sc(C)c(C)c2c(=O)n1C (3D coordinates assigned)
CCSc1[nH+]c2sc(C)c(C)c2c(=O)n1C (optimized conformer: 60.06064799070966 kcal/mol)

>  <smiles>  (8) 
CCSc1nc2sc(C)c(C)c2c(=O)n1C

>  <score_type>  (8) 
oracle

>  <origin>  (8) 
adg

>  <m_score__min__energy>  (8) 
-4.8399999999999999

>  <m_primary>  (8) 
energy

$$$$
8:0
     RDKit          3D

 58 60  0  0  0  0  0  0  0  0999 V2000
   59.1820   29.7270   45.1070 C   0  0  0  0  0  0  0  0  0  0  0  0
   58.0890   30.4870   45.8550 C   0  0  0  0  0  0  0  0  0  0  0  0
   57.0110   30.8890   44.9240 N   0  0  0  0  0  0  0  0  0  0  0  0
   56.4540   29.7350   44.1720 C   0  0  0  0  0  0  0  0  0  0  0  0
   56.3460   29.9550   42.6560 C   0  0  0  0  0  0  0  0  0  0  0  0
   57.4070   32.0300   44.0650 C   0  0  0  0  0  0  0  0  0  0  0  0
   57.4000   33.3640   44.8320 C   0  0  0  0  0  0  0  0  0  0  0  0
   58.6560   34.2170   44.5850 C   0  0  0  0  0  0  0  0  0  0  0  0
   59.2780   34.6540   45.8370 N   0  0  0  0  0  0  0  0  0  0  0  0
   59.6310   33.7700   46.9230 C   0  0  0  0  0  0  0  0  0  0  0  0
   58.6420   33.1950   47.7280 C   0  0  0  0  0  0  0  0  0  0  0  0
   58.9810   32.2910   48.7260 C   0  0  0  0  0  0  0  0  0  0  0  0
   60.3170   31.9520   48.9750 C   0  0  0  0  0  0  0  0  0  0  0  0
   60.5570   30.8690   49.8890 N   0  0  0  0  0  0  0  0  0  0  0  0
   60.6650   29.5180   49.3320 C   0  0  0  0  0  0  0  0  0  0  0  0
   61.0510   28.5270   50.4450 C   0  0  0  0  0  0  0  0  0  0  0  0
   60.2110   28.5450   51.5960 O   0  0  0  0  0  0  0  0  0  0  0  0
   59.4310   29.7230   51.7450 C   0  0  0  0  0  0  0  0  0  0  0  0
   60.1540   30.9990   51.2950 C   0  0  0  0  0  0  0  0  0  0  0  0
   61.3570   32.5750   48.2240 C   0  0  0  0  0  0  0  0  0  0  0  0
   62.7540   32.3690   48.4520 C   0  0  0  0  0  0  0  0  0  0  0  0
   63.3090   31.6130   49.6310 C   0  0  0  0  0  0  0  0  0  0  0  0
   63.6860   32.9500   47.5760 C   0  0  0  0  0  0  0  0  0  0  0  0
   63.2570   33.7660   46.5380 C   0  0  0  0  0  0  0  0  0  0  0  0
   61.9390   34.0150   46.3750 N   0  0  0  0  0  0  0  0  0  0  0  0
   60.9850   33.4670   47.1730 C   0  0  0  0  0  0  0  0  0  0  0  0
   59.8615   29.2545   45.8315 H   0  0  0  0  0  0  0  0  0  0  0  0
   58.7232   28.9521   44.4753 H   0  0  0  0  0  0  0  0  0  0  0  0
   59.7486   30.4269   44.4753 H   0  0  0  0  0  0  0  0  0  0  0  0
   57.6685   29.8395   46.6385 H   0  0  0  0  0  0  0  0  0  0  0  0
   58.5266   31.3900   46.3056 H   0  0  0  0  0  0  0  0  0  0  0  0
   57.1036   28.8648   44.3475 H   0  0  0  0  0  0  0  0  0  0  0  0
   55.4281   29.5873   44.5405 H   0  0  0  0  0  0  0  0  0  0  0  0
   55.8691   30.9266   42.4595 H   0  0  0  0  0  0  0  0  0  0  0  0
   57.3520   29.9438   42.2113 H   0  0  0  0  0  0  0  0  0  0  0  0
   55.7396   29.1522   42.2113 H   0  0  0  0  0  0  0  0  0  0  0  0
   58.4211   31.8482   43.6795 H   0  0  0  0  0  0  0  0  0  0  0  0
   56.6759   32.1068   43.2467 H   0  0  0  0  0  0  0  0  0  0  0  0
   56.5185   33.9422   44.5180 H   0  0  0  0  0  0  0  0  0  0  0  0
   57.3776   33.1218   45.9048 H   0  0  0  0  0  0  0  0  0  0  0  0
   59.3842   33.6203   44.0161 H   0  0  0  0  0  0  0  0  0  0  0  0
   58.3526   35.1141   44.0254 H   0  0  0  0  0  0  0  0  0  0  0  0
   59.5240   35.6670   45.9080 H   0  0  0  0  0  0  0  0  0  0  0  0
   57.5866   33.4613   47.5691 H   0  0  0  0  0  0  0  0  0  0  0  0
   58.1857   31.8327   49.3322 H   0  0  0  0  0  0  0  0  0  0  0  0
   59.6980   29.2228   48.8988 H   0  0  0  0  0  0  0  0  0  0  0  0
   61.4388   29.5072   48.5503 H   0  0  0  0  0  0  0  0  0  0  0  0
   61.0241   27.5125   50.0207 H   0  0  0  0  0  0  0  0  0  0  0  0
   62.0486   28.8338   50.7923 H   0  0  0  0  0  0  0  0  0  0  0  0
   58.5155   29.6121   51.1454 H   0  0  0  0  0  0  0  0  0  0  0  0
   59.2171   29.8348   52.8182 H   0  0  0  0  0  0  0  0  0  0  0  0
   59.4781   31.8600   51.4037 H   0  0  0  0  0  0  0  0  0  0  0  0
   61.0479   31.1505   51.9179 H   0  0  0  0  0  0  0  0  0  0  0  0
   62.9638   32.0833   50.5636 H   0  0  0  0  0  0  0  0  0  0  0  0
   62.9602   30.5704   49.5951 H   0  0  0  0  0  0  0  0  0  0  0  0
   64.4082   31.6334   49.5951 H   0  0  0  0  0  0  0  0  0  0  0  0
   64.7603   32.7575   47.7131 H   0  0  0  0  0  0  0  0  0  0  0  0
   63.9900   34.2098   45.8483 H   0  0  0  0  0  0  0  0  0  0  0  0
  1  2  1  0
  2  3  1  0
  3  4  1  0
  4  5  1  0
  3  6  1  0
  6  7  1  0
  7  8  1  0
  8  9  1  0
  9 10  1  0
 10 11  2  0
 11 12  1  0
 12 13  2  0
 13 14  1  0
 14 15  1  0
 15 16  1  0
 16 17  1  0
 17 18  1  0
 18 19  1  0
 13 20  1  0
 20 21  2  0
 21 22  1  0
 21 23  1  0
 23 24  2  0
 24 25  1  0
 25 26  2  0
 26 10  1  0
 19 14  1  0
 26 20  1  0
  1 27  1  0
  1 28  1  0
  1 29  1  0
  2 30  1  0
  2 31  1  0
  4 32  1  0
  4 33  1  0
  5 34  1  0
  5 35  1  0
  5 36  1  0
  6 37  1  0
  6 38  1  0
  7 39  1  0
  7 40  1  0
  8 41  1  0
  8 42  1  0
  9 43  1  0
 11 44  1  0
 12 45  1  0
 15 46  1  0
 15 47  1  0
 16 48  1  0
 16 49  1  0
 18 50  1  0
 18 51  1  0
 19 52  1  0
 19 53  1  0
 22 54  1  0
 22 55  1  0
 22 56  1  0
 23 57  1  0
 24 58  1  0
M  END
>  <UniqueID>  (9) 
9

>  <SMILES>  (9) 
CCN(CC)CCCNc1ccc(N2CCOCC2)c2c(C)ccnc12

>  <Energy>  (9) 
80.37271687629043

>  <Genealogy>  (9) 
CCN(CC)CCCNc1ccc(N2CCOCC2)c2c(C)ccnc12 (3D coordinates assigned)
CCN(CC)CCCNc1ccc(N2CCOCC2)c2c(C)ccnc12 (nonaromatic ring conformer: 80.37271687629043 kcal/mol)

>  <smiles>  (9) 
CCN(CC)CCCNc1ccc(N2CCOCC2)c2c(C)ccnc12

>  <score_type>  (9) 
oracle

>  <origin>  (9) 
adg

>  <m_score__min__energy>  (9) 
-7.4100000000000001

>  <m_primary>  (9) 
energy

$$$$
9:0
     RDKit          3D

 38 39  0  0  0  0  0  0  0  0999 V2000
   57.9140   28.2810   43.8830 C   0  0  0  0  0  0  0  0  0  0  0  0
   56.8020   28.5580   44.8980 C   0  0  0  0  0  0  0  0  0  0  0  0
   56.3750   29.9690   44.8870 N   0  0  0  0  0  0  0  0  0  0  0  0
   56.8300   30.7210   43.7060 C   0  0  0  0  0  0  0  0  0  0  0  0
   57.4390   32.0900   44.0550 C   0  0  0  0  0  0  0  0  0  0  0  0
   57.3140   32.3770   45.4480 O   0  0  0  0  0  0  0  0  0  0  0  0
   58.3420   32.8390   46.2850 C   0  0  0  0  0  0  0  0  0  0  0  0
   58.5400   34.2090   46.5440 C   0  0  0  0  0  0  0  0  0  0  0  0
   59.5750   34.6260   47.3840 C   0  0  0  0  0  0  0  0  0  0  0  0
   60.4260   33.6840   47.9690 C   0  0  0  0  0  0  0  0  0  0  0  0
   61.7340   34.2130   49.0120 Cl  0  0  0  0  0  0  0  0  0  0  0  0
   60.2380   32.3230   47.7170 C   0  0  0  0  0  0  0  0  0  0  0  0
   59.1910   31.8910   46.8840 C   0  0  0  0  0  0  0  0  0  0  0  0
   58.9870   30.4910   46.6290 N   0  0  0  0  0  0  0  0  0  0  0  0
   59.5530   29.4520   47.4450 C   0  0  0  0  0  0  0  0  0  0  0  0
   60.1580   29.7450   48.5120 O   0  0  0  0  0  0  0  0  0  0  0  0
   59.4030   28.0310   47.0800 C   0  0  0  0  0  0  0  0  0  0  0  0
   60.3080   27.2450   46.3720 C   0  0  0  0  0  0  0  0  0  0  0  0
   59.8710   25.9280   46.1880 C   0  0  0  0  0  0  0  0  0  0  0  0
   58.6280   25.6660   46.7470 C   0  0  0  0  0  0  0  0  0  0  0  0
   58.0730   27.0760   47.4730 S   0  0  0  0  0  0  0  0  0  0  0  0
   58.8476   28.0484   44.4163 H   0  0  0  0  0  0  0  0  0  0  0  0
   57.6296   27.4262   43.2517 H   0  0  0  0  0  0  0  0  0  0  0  0
   58.0638   29.1693   43.2517 H   0  0  0  0  0  0  0  0  0  0  0  0
   55.9361   27.9242   44.6562 H   0  0  0  0  0  0  0  0  0  0  0  0
   57.1964   28.3329   45.8999 H   0  0  0  0  0  0  0  0  0  0  0  0
   56.6410   30.4690   45.7680 H   0  0  0  0  0  0  0  0  0  0  0  0
   57.5911   30.1232   43.1831 H   0  0  0  0  0  0  0  0  0  0  0  0
   55.9465   30.9076   43.0778 H   0  0  0  0  0  0  0  0  0  0  0  0
   58.5053   32.0865   43.7848 H   0  0  0  0  0  0  0  0  0  0  0  0
   56.8957   32.8636   43.4925 H   0  0  0  0  0  0  0  0  0  0  0  0
   57.8760   34.9546   46.0823 H   0  0  0  0  0  0  0  0  0  0  0  0
   59.7207   35.6975   47.5855 H   0  0  0  0  0  0  0  0  0  0  0  0
   60.9135   31.5844   48.1732 H   0  0  0  0  0  0  0  0  0  0  0  0
   58.2710   30.2290   45.9160 H   0  0  0  0  0  0  0  0  0  0  0  0
   61.2704   27.6213   45.9949 H   0  0  0  0  0  0  0  0  0  0  0  0
   60.4589   25.1701   45.6496 H   0  0  0  0  0  0  0  0  0  0  0  0
   58.0981   24.7024   46.7195 H   0  0  0  0  0  0  0  0  0  0  0  0
  1  2  1  0
  2  3  1  0
  3  4  1  0
  4  5  1  0
  5  6  1  0
  6  7  1  0
  7  8  2  0
  8  9  1  0
  9 10  2  0
 10 11  1  0
 10 12  1  0
 12 13  2  0
 13 14  1  0
 14 15  1  0
 15 16  2  0
 15 17  1  0
 17 18  2  0
 18 19  1  0
 19 20  2  0
 20 21  1  0
 13  7  1  0
 21 17  1  0
  1 22  1  0
  1 23  1  0
  1 24  1  0
  2 25  1  0
  2 26  1  0
  3 27  1  0
  4 28  1  0
  4 29  1  0
  5 30  1  0
  5 31  1  0
  8 32  1  0
  9 33  1  0
 12 34  1  0
 14 35  1  0
 18 36  1  0
 19 37  1  0
 20 38  1  0
M  END
>  <UniqueID>  (10) 
10

>  <SMILES>  (10) 
CCNCCOc1ccc(Cl)cc1NC(=O)c1cccs1

>  <Energy>  (10) 
66.44702069970174

>  <Genealogy>  (10) 
CCNCCOc1ccc(Cl)cc1NC(=O)c1cccs1 (3D coordinates assigned)
CCNCCOc1ccc(Cl)cc1NC(=O)c1cccs1 (optimized conformer: 66.44702069970174 kcal/mol)

>  <smiles>  (10) 
CCNCCOc1ccc(Cl)cc1NC(=O)c1cccs1

>  <score_type>  (10) 
oracle

>  <origin>  (10) 
adg

>  <m_score__min__energy>  (10) 
-5.9100000000000001

>  <m_primary>  (10) 
energy

$$$$
10:0
     RDKit          3D

 46 48  0  0  0  0  0  0  0  0999 V2000
   57.8240   32.0140   42.3860 C   0  0  0  0  0  0  0  0  0  0  0  0
   57.0210   31.2200   43.4130 C   0  0  0  0  0  0  0  0  0  0  0  0
   57.8230   30.9790   44.6370 N   0  0  0  0  0  0  0  0  0  0  0  0
   58.0580   32.0250   45.5100 C   0  0  0  0  0  0  0  0  0  0  0  0
   57.4730   33.7110   45.2030 S   0  0  0  0  0  0  0  0  0  0  0  0
   59.1280   34.4240   44.8680 C   0  0  0  0  0  0  0  0  0  0  0  0
   59.6240   35.3030   46.0140 C   0  0  0  0  0  0  0  0  0  0  0  0
   59.9390   34.4930   47.1430 O   0  0  0  0  0  0  0  0  0  0  0  0
   61.2180   33.9930   47.4310 C   0  0  0  0  0  0  0  0  0  0  0  0
   62.1830   33.7840   46.4260 C   0  0  0  0  0  0  0  0  0  0  0  0
   63.4480   33.2930   46.7560 C   0  0  0  0  0  0  0  0  0  0  0  0
   63.7630   33.0060   48.0840 C   0  0  0  0  0  0  0  0  0  0  0  0
   62.8150   33.2090   49.0890 C   0  0  0  0  0  0  0  0  0  0  0  0
   61.5340   33.7050   48.7680 C   0  0  0  0  0  0  0  0  0  0  0  0
   60.5550   33.9290   49.7490 O   0  0  0  0  0  0  0  0  0  0  0  0
   59.4160   33.1000   49.9570 C   0  0  0  0  0  0  0  0  0  0  0  0
   58.7490   31.8180   46.7040 C   0  0  0  0  0  0  0  0  0  0  0  0
   59.2450   30.5640   47.0200 C   0  0  0  0  0  0  0  0  0  0  0  0
   59.8860   30.4100   48.0950 O   0  0  0  0  0  0  0  0  0  0  0  0
   59.0250   29.4910   46.1480 C   0  0  0  0  0  0  0  0  0  0  0  0
   59.5140   28.2060   46.4590 C   0  0  0  0  0  0  0  0  0  0  0  0
   59.2690   27.1320   45.6090 C   0  0  0  0  0  0  0  0  0  0  0  0
   58.5300   27.3190   44.4460 C   0  0  0  0  0  0  0  0  0  0  0  0
   58.0390   28.5830   44.1160 C   0  0  0  0  0  0  0  0  0  0  0  0
   58.2860   29.7070   44.9490 C   0  0  0  0  0  0  0  0  0  0  0  0
   58.5131   32.6953   42.9066 H   0  0  0  0  0  0  0  0  0  0  0  0
   58.4003   31.3208   41.7557 H   0  0  0  0  0  0  0  0  0  0  0  0
   57.1373   32.5981   41.7557 H   0  0  0  0  0  0  0  0  0  0  0  0
   56.1169   31.7867   43.6801 H   0  0  0  0  0  0  0  0  0  0  0  0
   56.7486   30.2492   42.9733 H   0  0  0  0  0  0  0  0  0  0  0  0
   59.8433   33.6020   44.7177 H   0  0  0  0  0  0  0  0  0  0  0  0
   59.0467   35.0554   43.9709 H   0  0  0  0  0  0  0  0  0  0  0  0
   60.5241   35.8477   45.6930 H   0  0  0  0  0  0  0  0  0  0  0  0
   58.8356   36.0189   46.2896 H   0  0  0  0  0  0  0  0  0  0  0  0
   61.9390   34.0085   45.3771 H   0  0  0  0  0  0  0  0  0  0  0  0
   64.1974   33.1323   45.9670 H   0  0  0  0  0  0  0  0  0  0  0  0
   64.7603   32.6189   48.3402 H   0  0  0  0  0  0  0  0  0  0  0  0
   63.0681   32.9813   50.1350 H   0  0  0  0  0  0  0  0  0  0  0  0
   59.2452   32.9757   51.0365 H   0  0  0  0  0  0  0  0  0  0  0  0
   58.5330   33.5681   49.4976 H   0  0  0  0  0  0  0  0  0  0  0  0
   59.5900   32.1158   49.4976 H   0  0  0  0  0  0  0  0  0  0  0  0
   58.9010   32.6566   47.3994 H   0  0  0  0  0  0  0  0  0  0  0  0
   60.0938   28.0511   47.3809 H   0  0  0  0  0  0  0  0  0  0  0  0
   59.6602   26.1343   45.8572 H   0  0  0  0  0  0  0  0  0  0  0  0
   58.3311   26.4650   43.7818 H   0  0  0  0  0  0  0  0  0  0  0  0
   57.4508   28.7111   43.1953 H   0  0  0  0  0  0  0  0  0  0  0  0
  1  2  1  0
  2  3  1  0
  3  4  1  0
  4  5  1  0
  5  6  1  0
  6  7  1  0
  7  8  1  0
  8  9  1  0
  9 10  2  0
 10 11  1  0
 11 12  2  0
 12 13  1  0
 13 14  2  0
 14 15  1  0
 15 16  1  0
  4 17  2  0
 17 18  1  0
 18 19  2  0
 18 20  1  0
 20 21  2  0
 21 22  1  0
 22 23  2  0
 23 24  1  0
 24 25  2  0
 25  3  1  0
 14  9  1  0
 25 20  1  0
  1 26  1  0
  1 27  1  0
  1 28  1  0
  2 29  1  0
  2 30  1  0
  6 31  1  0
  6 32  1  0
  7 33  1  0
  7 34  1  0
 10 35  1  0
 11 36  1  0
 12 37  1  0
 13 38  1  0
 16 39  1  0
 16 40  1  0
 16 41  1  0
 17 42  1  0
 21 43  1  0
 22 44  1  0
 23 45  1  0
 24 46  1  0
M  END
>  <UniqueID>  (11) 
11

>  <SMILES>  (11) 
CCn1c(SCCOc2ccccc2OC)cc(=O)c2ccccc21

>  <Energy>  (11) 
51.78300730142168

>  <Genealogy>  (11) 
CCn1c(SCCOc2ccccc2OC)cc(=O)c2ccccc21 (3D coordinates assigned)
CCn1c(SCCOc2ccccc2OC)cc(=O)c2ccccc21 (optimized conformer: 51.78300730142168 kcal/mol)

>  <smiles>  (11) 
CCn1c(SCCOc2ccccc2OC)cc(=O)c2ccccc21

>  <score_type>  (11) 
oracle

>  <origin>  (11) 
adg

>  <m_score__min__energy>  (11) 
-8.5700000000000003

>  <m_primary>  (11) 
energy

$$$$
11:0
     RDKit          3D

 41 43  0  0  0  0  0  0  0  0999 V2000
   60.3440   29.7560   48.8800 C   0  0  0  0  0  0  0  0  0  0  0  0
   61.2940   30.5400   47.9730 C   0  0  0  0  0  0  0  0  0  0  0  0
   60.8960   31.9520   47.8210 N   0  0  0  0  0  0  0  0  0  0  0  0
   61.9280   32.9040   48.2940 C   0  0  0  0  0  0  0  0  0  0  0  0
   61.3050   34.2310   48.7780 C   0  0  0  0  0  0  0  0  0  0  0  0
   59.8490   34.2800   48.5530 N   0  0  0  0  0  0  0  0  0  0  0  0
   59.4950   34.9560   47.2970 C   0  0  0  0  0  0  0  0  0  0  0  0
   58.9940   33.9620   46.2950 C   0  0  0  0  0  0  0  0  0  0  0  0
   58.6370   34.2490   44.9820 C   0  0  0  0  0  0  0  0  0  0  0  0
   58.2330   33.0380   44.4690 C   0  0  0  0  0  0  0  0  0  0  0  0
   57.7630   32.6990   43.2040 C   0  0  0  0  0  0  0  0  0  0  0  0
   57.4170   31.3570   42.9650 C   0  0  0  0  0  0  0  0  0  0  0  0
   57.5490   30.3870   43.9900 C   0  0  0  0  0  0  0  0  0  0  0  0
   57.2050   29.0470   43.7590 C   0  0  0  0  0  0  0  0  0  0  0  0
   57.3400   28.1000   44.7810 C   0  0  0  0  0  0  0  0  0  0  0  0
   57.8150   28.4810   46.0390 C   0  0  0  0  0  0  0  0  0  0  0  0
   58.1620   29.8120   46.2890 C   0  0  0  0  0  0  0  0  0  0  0  0
   58.0330   30.7690   45.2730 C   0  0  0  0  0  0  0  0  0  0  0  0
   58.3640   32.1120   45.4700 C   0  0  0  0  0  0  0  0  0  0  0  0
   58.8220   32.6800   46.5600 O   0  0  0  0  0  0  0  0  0  0  0  0
   60.5906   29.9595   49.9325 H   0  0  0  0  0  0  0  0  0  0  0  0
   59.3075   30.0651   48.6799 H   0  0  0  0  0  0  0  0  0  0  0  0
   60.4508   28.6796   48.6799 H   0  0  0  0  0  0  0  0  0  0  0  0
   62.3047   30.5034   48.4056 H   0  0  0  0  0  0  0  0  0  0  0  0
   61.2625   30.0756   46.9763 H   0  0  0  0  0  0  0  0  0  0  0  0
   59.9760   32.1130   48.2940 H   0  0  0  0  0  0  0  0  0  0  0  0
   60.7420   32.1200   46.7990 H   0  0  0  0  0  0  0  0  0  0  0  0
   62.4805   32.4452   49.1272 H   0  0  0  0  0  0  0  0  0  0  0  0
   62.5983   33.1283   47.4512 H   0  0  0  0  0  0  0  0  0  0  0  0
   61.5005   34.3416   49.8548 H   0  0  0  0  0  0  0  0  0  0  0  0
   61.7625   35.0480   48.2008 H   0  0  0  0  0  0  0  0  0  0  0  0
   59.4610   33.3080   48.5340 H   0  0  0  0  0  0  0  0  0  0  0  0
   58.7091   35.6999   47.4943 H   0  0  0  0  0  0  0  0  0  0  0  0
   60.3900   35.4515   46.8928 H   0  0  0  0  0  0  0  0  0  0  0  0
   58.6701   35.2222   44.4703 H   0  0  0  0  0  0  0  0  0  0  0  0
   57.6650   33.4583   42.4142 H   0  0  0  0  0  0  0  0  0  0  0  0
   57.0412   31.0580   41.9754 H   0  0  0  0  0  0  0  0  0  0  0  0
   56.8282   28.7395   42.7723 H   0  0  0  0  0  0  0  0  0  0  0  0
   57.0707   27.0502   44.5929 H   0  0  0  0  0  0  0  0  0  0  0  0
   57.9163   27.7299   46.8363 H   0  0  0  0  0  0  0  0  0  0  0  0
   58.5353   30.1075   47.2806 H   0  0  0  0  0  0  0  0  0  0  0  0
  1  2  1  0
  2  3  1  0
  3  4  1  0
  4  5  1  0
  5  6  1  0
  6  7  1  0
  7  8  1  0
  8  9  2  0
  9 10  1  0
 10 11  2  0
 11 12  1  0
 12 13  2  0
 13 14  1  0
 14 15  2  0
 15 16  1  0
 16 17  2  0
 17 18  1  0
 18 19  2  0
 19 20  1  0
 20  8  1  0
 19 10  1  0
 18 13  1  0
  1 21  1  0
  1 22  1  0
  1 23  1  0
  2 24  1  0
  2 25  1  0
  3 26  1  0
  3 27  1  0
  4 28  1  0
  4 29  1  0
  5 30  1  0
  5 31  1  0
  6 32  1  0
  7 33  1  0
  7 34  1  0
  9 35  1  0
 11 36  1  0
 12 37  1  0
 14 38  1  0
 15 39  1  0
 16 40  1  0
 17 41  1  0
M  CHG  1   3   1
M  END
>  <UniqueID>  (12) 
12

>  <SMILES>  (12) 
CC[NH2+]CCNCc1cc2ccc3ccccc3c2o1

>  <Energy>  (12) 
77.30802049784765

>  <Genealogy>  (12) 
CC[NH2+]CCNCc1cc2ccc3ccccc3c2o1 (protonated)
CC[NH2+]CCNCc1cc2ccc3ccccc3c2o1 (3D coordinates assigned)
CC[NH2+]CCNCc1cc2ccc3ccccc3c2o1 (optimized conformer: 77.30802049784765 kcal/mol)

>  <smiles>  (12) 
CCNCCNCc1cc2ccc3ccccc3c2o1

>  <score_type>  (12) 
oracle

>  <origin>  (12) 
adg

>  <m_score__min__energy>  (12) 
-5.1600000000000001

>  <m_primary>  (12) 
energy

$$$$
12:0
     RDKit          3D

 37 39  0  0  0  0  0  0  0  0999 V2000
   62.0530   33.9670   46.3900 C   0  0  0  0  0  0  0  0  0  0  0  0
   60.6160   33.8350   46.6370 N   0  0  0  0  0  0  0  0  0  0  0  0
   59.6960   34.4300   45.6540 C   0  0  0  0  0  0  0  0  0  0  0  0
   58.2520   33.9300   45.7940 C   0  0  0  0  0  0  0  0  0  0  0  0
   58.2040   32.4220   45.8180 C   0  0  0  0  0  0  0  0  0  0  0  0
   57.7100   31.7210   44.7050 C   0  0  0  0  0  0  0  0  0  0  0  0
   57.6450   30.3260   44.7190 C   0  0  0  0  0  0  0  0  0  0  0  0
   57.0240   29.4670   43.3200 S   0  0  0  0  0  0  0  0  0  0  0  0
   57.7900   27.8740   43.1260 C   0  0  0  0  0  0  0  0  0  0  0  0
   55.3470   29.3500   43.3740 O   0  0  0  0  0  0  0  0  0  0  0  0
   58.0780   29.6190   45.8420 C   0  0  0  0  0  0  0  0  0  0  0  0
   58.5820   30.3020   46.9500 C   0  0  0  0  0  0  0  0  0  0  0  0
   58.6570   31.7060   46.9510 C   0  0  0  0  0  0  0  0  0  0  0  0
   59.2280   32.4160   48.1260 C   0  0  0  0  0  0  0  0  0  0  0  0
   58.8370   32.0490   49.4260 C   0  0  0  0  0  0  0  0  0  0  0  0
   59.3620   32.7090   50.5380 C   0  0  0  0  0  0  0  0  0  0  0  0
   58.9730   32.3490   51.7870 F   0  0  0  0  0  0  0  0  0  0  0  0
   60.2840   33.7420   50.3670 C   0  0  0  0  0  0  0  0  0  0  0  0
   60.6850   34.1170   49.0850 C   0  0  0  0  0  0  0  0  0  0  0  0
   60.1620   33.4650   47.9550 C   0  0  0  0  0  0  0  0  0  0  0  0
   62.5871   34.0161   47.3504 H   0  0  0  0  0  0  0  0  0  0  0  0
   62.4079   33.0977   45.8170 H   0  0  0  0  0  0  0  0  0  0  0  0
   62.2436   34.8864   45.8170 H   0  0  0  0  0  0  0  0  0  0  0  0
   59.7018   35.5220   45.7867 H   0  0  0  0  0  0  0  0  0  0  0  0
   60.0487   34.1319   44.6556 H   0  0  0  0  0  0  0  0  0  0  0  0
   57.8255   34.3188   46.7304 H   0  0  0  0  0  0  0  0  0  0  0  0
   57.6715   34.2863   44.9302 H   0  0  0  0  0  0  0  0  0  0  0  0
   57.3722   32.2747   43.8166 H   0  0  0  0  0  0  0  0  0  0  0  0
   57.9970   27.4436   44.1169 H   0  0  0  0  0  0  0  0  0  0  0  0
   57.1140   27.2073   42.5705 H   0  0  0  0  0  0  0  0  0  0  0  0
   58.7329   27.9857   42.5705 H   0  0  0  0  0  0  0  0  0  0  0  0
   55.1020   28.8370   42.5640 H   0  0  0  0  0  0  0  0  0  0  0  0
   58.0219   28.5205   45.8538 H   0  0  0  0  0  0  0  0  0  0  0  0
   58.9234   29.7370   47.8299 H   0  0  0  0  0  0  0  0  0  0  0  0
   58.1111   31.2347   49.5676 H   0  0  0  0  0  0  0  0  0  0  0  0
   60.6954   34.2616   51.2449 H   0  0  0  0  0  0  0  0  0  0  0  0
   61.4160   34.9290   48.9572 H   0  0  0  0  0  0  0  0  0  0  0  0
  1  2  1  0
  2  3  1  0
  3  4  1  0
  4  5  1  0
  5  6  2  0
  6  7  1  0
  7  8  1  0
  8  9  1  0
  8 10  1  1
  7 11  2  0
 11 12  1  0
 12 13  2  0
 13 14  1  0
 14 15  2  0
 15 16  1  0
 16 17  1  0
 16 18  2  0
 18 19  1  0
 19 20  2  0
 20  2  1  0
 13  5  1  0
 20 14  1  0
  1 21  1  0
  1 22  1  0
  1 23  1  0
  3 24  1  0
  3 25  1  0
  4 26  1  0
  4 27  1  0
  6 28  1  0
  9 29  1  0
  9 30  1  0
  9 31  1  0
 10 32  1  0
 11 33  1  0
 12 34  1  0
 15 35  1  0
 18 36  1  0
 19 37  1  0
M  CHG  1   8   1
M  END
>  <UniqueID>  (13) 
13

>  <SMILES>  (13) 
CN1CCc2cc([S@@+](C)O)ccc2-c2cc(F)ccc21

>  <Energy>  (13) 
47.70777266020445

>  <Genealogy>  (13) 
CN1CCc2cc([S+](C)O)ccc2-c2cc(F)ccc21 (protonated)
CN1CCc2cc([S@@+](C)O)ccc2-c2cc(F)ccc21 (chirality)
CN1CCc2cc([S@@+](C)O)ccc2-c2cc(F)ccc21 (3D coordinates assigned)
CN1CCc2cc([S@@+](C)O)ccc2-c2cc(F)ccc21 (nonaromatic ring conformer: 47.70777266020445 kcal/mol)

>  <smiles>  (13) 
CN1CCc2cc([S+](C)[O-])ccc2-c2cc(F)ccc21

>  <score_type>  (13) 
oracle

>  <origin>  (13) 
adg

>  <m_score__min__energy>  (13) 
-4.54

>  <m_primary>  (13) 
energy

$$$$
13:0
     RDKit          3D

 47 49  0  0  0  0  0  0  0  0999 V2000
   57.0180   29.7320   43.5770 C   0  0  0  0  0  0  0  0  0  0  0  0
   57.8630   30.1270   44.7260 N   0  0  0  0  0  0  0  0  0  0  0  0
   58.0100   31.4630   45.0480 C   0  0  0  0  0  0  0  0  0  0  0  0
   57.6300   32.4940   44.1500 C   0  0  0  0  0  0  0  0  0  0  0  0
   57.7600   33.8370   44.4980 C   0  0  0  0  0  0  0  0  0  0  0  0
   58.2880   34.1920   45.7330 C   0  0  0  0  0  0  0  0  0  0  0  0
   58.7050   33.2050   46.6230 C   0  0  0  0  0  0  0  0  0  0  0  0
   58.5770   31.8380   46.2960 C   0  0  0  0  0  0  0  0  0  0  0  0
   59.0380   30.8410   47.1750 C   0  0  0  0  0  0  0  0  0  0  0  0
   59.5420   31.1960   48.4750 N   0  0  0  0  0  0  0  0  0  0  0  0
   60.8950   31.7220   48.6610 C   0  0  0  0  0  0  0  0  0  0  0  0
   61.6560   31.7590   47.3290 C   0  0  0  0  0  0  0  0  0  0  0  0
   63.1770   31.5850   47.5230 C   0  0  0  0  0  0  0  0  0  0  0  0
   63.9050   32.8750   47.4680 N   0  0  0  0  0  0  0  0  0  0  0  0
   63.2230   33.8450   46.5900 C   0  0  0  0  0  0  0  0  0  0  0  0
   64.0320   33.4380   48.8250 C   0  0  0  0  0  0  0  0  0  0  0  0
   59.0570   29.5000   46.7470 C   0  0  0  0  0  0  0  0  0  0  0  0
   59.6120   28.4870   47.5590 C   0  0  0  0  0  0  0  0  0  0  0  0
   59.6520   27.1650   47.1210 C   0  0  0  0  0  0  0  0  0  0  0  0
   59.1560   26.8320   45.8660 C   0  0  0  0  0  0  0  0  0  0  0  0
   59.2300   25.5510   45.4300 F   0  0  0  0  0  0  0  0  0  0  0  0
   58.5870   27.8130   45.0550 C   0  0  0  0  0  0  0  0  0  0  0  0
   58.4870   29.1590   45.4910 C   0  0  0  0  0  0  0  0  0  0  0  0
   56.0792   29.2932   43.9460 H   0  0  0  0  0  0  0  0  0  0  0  0
   56.7930   30.6183   42.9655 H   0  0  0  0  0  0  0  0  0  0  0  0
   57.5537   28.9910   42.9655 H   0  0  0  0  0  0  0  0  0  0  0  0
   57.2258   32.2284   43.1620 H   0  0  0  0  0  0  0  0  0  0  0  0
   57.4434   34.6190   43.7922 H   0  0  0  0  0  0  0  0  0  0  0  0
   58.3768   35.2533   46.0082 H   0  0  0  0  0  0  0  0  0  0  0  0
   59.1389   33.4942   47.5915 H   0  0  0  0  0  0  0  0  0  0  0  0
   58.8700   31.2750   49.2710 H   0  0  0  0  0  0  0  0  0  0  0  0
   60.8321   32.7419   49.0683 H   0  0  0  0  0  0  0  0  0  0  0  0
   61.4357   31.0632   49.3565 H   0  0  0  0  0  0  0  0  0  0  0  0
   61.2854   30.9468   46.6864 H   0  0  0  0  0  0  0  0  0  0  0  0
   61.4842   32.7431   46.8685 H   0  0  0  0  0  0  0  0  0  0  0  0
   63.3571   31.1193   48.5031 H   0  0  0  0  0  0  0  0  0  0  0  0
   63.5497   30.9543   46.7024 H   0  0  0  0  0  0  0  0  0  0  0  0
   64.8740   32.7140   47.1020 H   0  0  0  0  0  0  0  0  0  0  0  0
   62.6986   34.5909   47.2053 H   0  0  0  0  0  0  0  0  0  0  0  0
   63.9657   34.3502   45.9551 H   0  0  0  0  0  0  0  0  0  0  0  0
   62.4963   33.3171   45.9551 H   0  0  0  0  0  0  0  0  0  0  0  0
   63.8536   32.6470   49.5683 H   0  0  0  0  0  0  0  0  0  0  0  0
   65.0447   33.8458   48.9595 H   0  0  0  0  0  0  0  0  0  0  0  0
   63.2924   34.2411   48.9595 H   0  0  0  0  0  0  0  0  0  0  0  0
   60.0174   28.7445   48.5486 H   0  0  0  0  0  0  0  0  0  0  0  0
   60.0765   26.3841   47.7690 H   0  0  0  0  0  0  0  0  0  0  0  0
   58.2089   27.5382   44.0592 H   0  0  0  0  0  0  0  0  0  0  0  0
  1  2  1  0
  2  3  2  0
  3  4  1  0
  4  5  2  0
  5  6  1  0
  6  7  2  0
  7  8  1  0
  8  9  2  0
  9 10  1  0
 10 11  1  0
 11 12  1  0
 12 13  1  0
 13 14  1  0
 14 15  1  0
 14 16  1  0
  9 17  1  0
 17 18  2  0
 18 19  1  0
 19 20  2  0
 20 21  1  0
 20 22  1  0
 22 23  2  0
 23  2  1  0
  8  3  1  0
 23 17  1  0
  1 24  1  0
  1 25  1  0
  1 26  1  0
  4 27  1  0
  5 28  1  0
  6 29  1  0
  7 30  1  0
 10 31  1  0
 11 32  1  0
 11 33  1  0
 12 34  1  0
 12 35  1  0
 13 36  1  0
 13 37  1  0
 14 38  1  0
 15 39  1  0
 15 40  1  0
 15 41  1  0
 16 42  1  0
 16 43  1  0
 16 44  1  0
 18 45  1  0
 19 46  1  0
 22 47  1  0
M  CHG  2   2   1  14   1
M  END
>  <UniqueID>  (14) 
14

>  <SMILES>  (14) 
C[n+]1c2ccccc2c(NCCC[NH+](C)C)c2ccc(F)cc21

>  <Energy>  (14) 
71.67437069157238

>  <Genealogy>  (14) 
C[n+]1c2ccccc2c(NCCC[NH+](C)C)c2ccc(F)cc21 (protonated)
C[n+]1c2ccccc2c(NCCC[NH+](C)C)c2ccc(F)cc21 (3D coordinates assigned)
C[n+]1c2ccccc2c(NCCC[NH+](C)C)c2ccc(F)cc21 (optimized conformer: 71.67437069157238 kcal/mol)

>  <smiles>  (14) 
CN(C)CCCNc1c2ccccc2[n+](C)c2cc(F)ccc12

>  <score_type>  (14) 
oracle

>  <origin>  (14) 
adg

>  <m_score__min__energy>  (14) 
-4.4400000000000004

>  <m_primary>  (14) 
energy

$$$$
14:0
     RDKit          3D

 55 57  0  0  0  0  0  0  0  0999 V2000
   59.6490   33.5750   50.4330 C   0  0  0  0  0  0  0  0  0  0  0  0
   61.0710   33.1840   50.8750 C   0  0  0  0  0  0  0  0  0  0  0  0
   61.9640   32.7320   49.7730 N   0  0  0  0  0  0  0  0  0  0  0  0
   63.2510   33.4770   49.7870 C   0  0  0  0  0  0  0  0  0  0  0  0
   64.1710   33.0890   48.6210 C   0  0  0  0  0  0  0  0  0  0  0  0
   62.1940   31.2620   49.7830 C   0  0  0  0  0  0  0  0  0  0  0  0
   60.9020   30.4370   50.0270 C   0  0  0  0  0  0  0  0  0  0  0  0
   59.8600   30.5690   48.9040 C   0  0  0  0  0  0  0  0  0  0  0  0
   60.4800   30.9590   47.6350 N   0  0  0  0  0  0  0  0  0  0  0  0
   59.7460   30.9730   46.3970 C   0  0  0  0  0  0  0  0  0  0  0  0
   59.4170   29.7480   45.7870 C   0  0  0  0  0  0  0  0  0  0  0  0
   59.9670   28.5350   46.2580 C   0  0  0  0  0  0  0  0  0  0  0  0
   59.5880   27.3160   45.7050 C   0  0  0  0  0  0  0  0  0  0  0  0
   58.6460   27.2790   44.6850 C   0  0  0  0  0  0  0  0  0  0  0  0
   58.0900   28.4620   44.2000 C   0  0  0  0  0  0  0  0  0  0  0  0
   58.4820   29.7240   44.7190 C   0  0  0  0  0  0  0  0  0  0  0  0
   57.9400   30.9020   44.2440 N   0  0  0  0  0  0  0  0  0  0  0  0
   57.1470   30.9000   42.9940 C   0  0  0  0  0  0  0  0  0  0  0  0
   58.1640   32.0900   44.9150 C   0  0  0  0  0  0  0  0  0  0  0  0
   57.3840   33.2420   44.6540 C   0  0  0  0  0  0  0  0  0  0  0  0
   57.6670   34.4570   45.2680 C   0  0  0  0  0  0  0  0  0  0  0  0
   58.7590   34.5720   46.1160 C   0  0  0  0  0  0  0  0  0  0  0  0
   59.5450   33.4530   46.4210 C   0  0  0  0  0  0  0  0  0  0  0  0
   60.7670   33.6600   47.1480 N   0  0  0  0  0  0  0  0  0  0  0  0
   60.8530   34.5870   47.9810 O   0  0  0  0  0  0  0  0  0  0  0  0
   61.9130   33.0110   46.7520 O   0  0  0  0  0  0  0  0  0  0  0  0
   59.1750   32.1730   45.9130 C   0  0  0  0  0  0  0  0  0  0  0  0
   59.0233   33.7471   51.3212 H   0  0  0  0  0  0  0  0  0  0  0  0
   59.6920   34.4947   49.8310 H   0  0  0  0  0  0  0  0  0  0  0  0
   59.2158   32.7626   49.8310 H   0  0  0  0  0  0  0  0  0  0  0  0
   61.5338   34.0597   51.3534 H   0  0  0  0  0  0  0  0  0  0  0  0
   60.9596   32.3268   51.5553 H   0  0  0  0  0  0  0  0  0  0  0  0
   61.4680   32.9710   48.8820 H   0  0  0  0  0  0  0  0  0  0  0  0
   63.0354   34.5537   49.7223 H   0  0  0  0  0  0  0  0  0  0  0  0
   63.7727   33.2229   50.7215 H   0  0  0  0  0  0  0  0  0  0  0  0
   65.1166   32.6902   49.0171 H   0  0  0  0  0  0  0  0  0  0  0  0
   63.6788   32.3218   48.0052 H   0  0  0  0  0  0  0  0  0  0  0  0
   64.3768   33.9769   48.0052 H   0  0  0  0  0  0  0  0  0  0  0  0
   62.6165   30.9687   48.8106 H   0  0  0  0  0  0  0  0  0  0  0  0
   62.8789   31.0464   50.6163 H   0  0  0  0  0  0  0  0  0  0  0  0
   61.1799   29.3767   50.1194 H   0  0  0  0  0  0  0  0  0  0  0  0
   60.4379   30.8320   50.9427 H   0  0  0  0  0  0  0  0  0  0  0  0
   59.3538   29.6014   48.7713 H   0  0  0  0  0  0  0  0  0  0  0  0
   59.1427   31.3520   49.1910 H   0  0  0  0  0  0  0  0  0  0  0  0
   61.5140   31.1070   47.6120 H   0  0  0  0  0  0  0  0  0  0  0  0
   60.7052   28.5546   47.0733 H   0  0  0  0  0  0  0  0  0  0  0  0
   60.0344   26.3814   46.0756 H   0  0  0  0  0  0  0  0  0  0  0  0
   58.3376   26.3131   44.2584 H   0  0  0  0  0  0  0  0  0  0  0  0
   57.3347   28.4168   43.4016 H   0  0  0  0  0  0  0  0  0  0  0  0
   56.0749   30.8973   43.2400 H   0  0  0  0  0  0  0  0  0  0  0  0
   57.3862   31.7988   42.4066 H   0  0  0  0  0  0  0  0  0  0  0  0
   57.3907   30.0025   42.4066 H   0  0  0  0  0  0  0  0  0  0  0  0
   56.5390   33.1748   43.9530 H   0  0  0  0  0  0  0  0  0  0  0  0
   57.0234   35.3293   45.0809 H   0  0  0  0  0  0  0  0  0  0  0  0
   59.0098   35.5500   46.5526 H   0  0  0  0  0  0  0  0  0  0  0  0
  1  2  1  0
  2  3  1  0
  3  4  1  0
  4  5  1  0
  3  6  1  0
  6  7  1  0
  7  8  1  0
  8  9  1  0
  9 10  1  0
 10 11  2  0
 11 12  1  0
 12 13  2  0
 13 14  1  0
 14 15  2  0
 15 16  1  0
 16 17  2  0
 17 18  1  0
 17 19  1  0
 19 20  2  0
 20 21  1  0
 21 22  2  0
 22 23  1  0
 23 24  1  0
 24 25  2  0
 24 26  1  0
 23 27  2  0
 27 10  1  0
 16 11  1  0
 27 19  1  0
  1 28  1  0
  1 29  1  0
  1 30  1  0
  2 31  1  0
  2 32  1  0
  3 33  1  0
  4 34  1  0
  4 35  1  0
  5 36  1  0
  5 37  1  0
  5 38  1  0
  6 39  1  0
  6 40  1  0
  7 41  1  0
  7 42  1  0
  8 43  1  0
  8 44  1  0
  9 45  1  0
 12 46  1  0
 13 47  1  0
 14 48  1  0
 15 49  1  0
 18 50  1  0
 18 51  1  0
 18 52  1  0
 20 53  1  0
 21 54  1  0
 22 55  1  0
M  CHG  4   3   1  17   1  24   1  26  -1
M  END
>  <UniqueID>  (15) 
15

>  <SMILES>  (15) 
CC[NH+](CC)CCCNc1c2ccccc2[n+](C)c2cccc([N+](=O)[O-])c12

>  <Energy>  (15) 
93.76476686706026

>  <Genealogy>  (15) 
CC[NH+](CC)CCCNc1c2ccccc2[n+](C)c2cccc([N+](=O)[O-])c12 (protonated)
CC[NH+](CC)CCCNc1c2ccccc2[n+](C)c2cccc([N+](=O)[O-])c12 (3D coordinates assigned)
CC[NH+](CC)CCCNc1c2ccccc2[n+](C)c2cccc([N+](=O)[O-])c12 (optimized conformer: 93.76476686706026 kcal/mol)

>  <smiles>  (15) 
CCN(CC)CCCNc1c2ccccc2[n+](C)c2cccc([N+](=O)[O-])c12

>  <score_type>  (15) 
oracle

>  <origin>  (15) 
adg

>  <m_score__min__energy>  (15) 
-4.8099999999999996

>  <m_primary>  (15) 
energy

$$$$
15:0
     RDKit          3D

 25 26  0  0  0  0  0  0  0  0999 V2000
   58.0960   28.2690   44.6020 C   0  0  0  0  0  0  0  0  0  0  0  0
   56.7330   28.4650   45.2570 C   0  0  0  0  0  0  0  0  0  0  0  0
   56.1540   29.7080   44.8600 O   0  0  0  0  0  0  0  0  0  0  0  0
   56.7720   30.6800   44.0540 C   0  0  0  0  0  0  0  0  0  0  0  0
   56.7700   30.6130   42.6460 C   0  0  0  0  0  0  0  0  0  0  0  0
   57.3940   31.6110   41.8910 C   0  0  0  0  0  0  0  0  0  0  0  0
   58.0170   32.6870   42.5260 C   0  0  0  0  0  0  0  0  0  0  0  0
   58.0250   32.7650   43.9230 C   0  0  0  0  0  0  0  0  0  0  0  0
   57.4070   31.7590   44.6860 C   0  0  0  0  0  0  0  0  0  0  0  0
   57.4080   31.8500   46.0830 O   0  0  0  0  0  0  0  0  0  0  0  0
   58.2970   32.7030   46.8110 C   0  0  0  0  0  0  0  0  0  0  0  0
   58.6630   33.9250   46.0190 C   0  0  0  0  0  0  0  0  0  0  0  0
   59.0760   34.9580   46.6080 O   0  0  0  0  0  0  0  0  0  0  0  0
   58.6160   33.8850   44.5900 N   0  0  0  0  0  0  0  0  0  0  0  0
   58.8647   28.1585   45.3810 H   0  0  0  0  0  0  0  0  0  0  0  0
   58.0754   27.3646   43.9762 H   0  0  0  0  0  0  0  0  0  0  0  0
   58.3311   29.1426   43.9762 H   0  0  0  0  0  0  0  0  0  0  0  0
   56.0663   27.6438   44.9551 H   0  0  0  0  0  0  0  0  0  0  0  0
   56.8640   28.4698   46.3492 H   0  0  0  0  0  0  0  0  0  0  0  0
   56.2752   29.7716   42.1387 H   0  0  0  0  0  0  0  0  0  0  0  0
   57.3940   31.5481   40.7928 H   0  0  0  0  0  0  0  0  0  0  0  0
   58.5014   33.4732   41.9283 H   0  0  0  0  0  0  0  0  0  0  0  0
   57.8066   33.0163   47.7445 H   0  0  0  0  0  0  0  0  0  0  0  0
   59.2186   32.1404   47.0210 H   0  0  0  0  0  0  0  0  0  0  0  0
   58.9900   34.6910   44.0380 H   0  0  0  0  0  0  0  0  0  0  0  0
  1  2  1  0
  2  3  1  0
  3  4  1  0
  4  5  2  0
  5  6  1  0
  6  7  2  0
  7  8  1  0
  8  9  2  0
  9 10  1  0
 10 11  1  0
 11 12  1  0
 12 13  2  0
 12 14  1  0
  9  4  1  0
 14  8  1  0
  1 15  1  0
  1 16  1  0
  1 17  1  0
  2 18  1  0
  2 19  1  0
  5 20  1  0
  6 21  1  0
  7 22  1  0
 11 23  1  0
 11 24  1  0
 14 25  1  0
M  END
>  <UniqueID>  (16) 
16

>  <SMILES>  (16) 
CCOc1cccc2c1OCC(=O)N2

>  <Energy>  (16) 
24.310077653544003

>  <Genealogy>  (16) 
CCOc1cccc2c1OCC(=O)N2 (3D coordinates assigned)
CCOc1cccc2c1OCC(=O)N2 (nonaromatic ring conformer: 24.310077653544003 kcal/mol)

>  <smiles>  (16) 
CCOc1cccc2c1OCC(=O)N2

>  <score_type>  (16) 
oracle

>  <origin>  (16) 
adg

>  <m_score__min__energy>  (16) 
-5.3600000000000003

>  <m_primary>  (16) 
energy

$$$$
16:0
     RDKit          3D

 48 50  0  0  0  0  0  0  0  0999 V2000
   56.0150   19.7890   45.0790 C   0  0  0  0  0  0  0  0  0  0  0  0
   57.2750   20.4700   45.6210 C   0  0  0  0  0  0  0  0  0  0  0  0
   58.0780   21.1000   44.5570 N   0  0  0  0  0  0  0  0  0  0  0  0
   57.2380   21.6530   43.4790 C   0  0  0  0  0  0  0  0  0  0  0  0
   56.7490   23.0700   43.8070 C   0  0  0  0  0  0  0  0  0  0  0  0
   57.7400   23.7850   44.6250 N   0  0  0  0  0  0  0  0  0  0  0  0
   57.4010   23.7370   46.0570 C   0  0  0  0  0  0  0  0  0  0  0  0
   56.6480   25.0000   46.4660 C   0  0  0  0  0  0  0  0  0  0  0  0
   56.9070   26.0480   45.5350 O   0  0  0  0  0  0  0  0  0  0  0  0
   57.6630   27.1950   45.8160 C   0  0  0  0  0  0  0  0  0  0  0  0
   58.8710   27.1440   46.5310 C   0  0  0  0  0  0  0  0  0  0  0  0
   59.5870   28.3140   46.7870 C   0  0  0  0  0  0  0  0  0  0  0  0
   59.1100   29.5570   46.3370 C   0  0  0  0  0  0  0  0  0  0  0  0
   57.8980   29.6160   45.6190 C   0  0  0  0  0  0  0  0  0  0  0  0
   57.1850   28.4300   45.3650 C   0  0  0  0  0  0  0  0  0  0  0  0
   57.3840   30.9200   45.1390 C   0  0  0  0  0  0  0  0  0  0  0  0
   56.2990   30.9730   44.4970 O   0  0  0  0  0  0  0  0  0  0  0  0
   58.1420   32.1640   45.4120 C   0  0  0  0  0  0  0  0  0  0  0  0
   57.6650   33.4080   44.9600 C   0  0  0  0  0  0  0  0  0  0  0  0
   58.3820   34.5780   45.2190 C   0  0  0  0  0  0  0  0  0  0  0  0
   59.5820   34.5200   45.9290 C   0  0  0  0  0  0  0  0  0  0  0  0
   60.0680   33.2930   46.3840 C   0  0  0  0  0  0  0  0  0  0  0  0
   59.3560   32.1050   46.1300 C   0  0  0  0  0  0  0  0  0  0  0  0
   59.8700   30.8020   46.6090 C   0  0  0  0  0  0  0  0  0  0  0  0
   60.9550   30.7490   47.2520 O   0  0  0  0  0  0  0  0  0  0  0  0
   55.3904   19.4514   45.9192 H   0  0  0  0  0  0  0  0  0  0  0  0
   55.4477   20.5033   44.4642 H   0  0  0  0  0  0  0  0  0  0  0  0
   56.3018   18.9231   44.4642 H   0  0  0  0  0  0  0  0  0  0  0  0
   56.9750   21.2446   46.3421 H   0  0  0  0  0  0  0  0  0  0  0  0
   57.8962   19.6956   46.0946 H   0  0  0  0  0  0  0  0  0  0  0  0
   58.6740   21.8530   44.9710 H   0  0  0  0  0  0  0  0  0  0  0  0
   58.7070   20.3640   44.1570 H   0  0  0  0  0  0  0  0  0  0  0  0
   57.8266   21.6856   42.5503 H   0  0  0  0  0  0  0  0  0  0  0  0
   56.3564   21.0049   43.3661 H   0  0  0  0  0  0  0  0  0  0  0  0
   56.5881   23.6226   42.8696 H   0  0  0  0  0  0  0  0  0  0  0  0
   55.8087   22.9976   44.3733 H   0  0  0  0  0  0  0  0  0  0  0  0
   57.7290   24.7890   44.3290 H   0  0  0  0  0  0  0  0  0  0  0  0
   56.7681   22.8584   46.2508 H   0  0  0  0  0  0  0  0  0  0  0  0
   58.3298   23.6690   46.6424 H   0  0  0  0  0  0  0  0  0  0  0  0
   55.5685   24.7896   46.4859 H   0  0  0  0  0  0  0  0  0  0  0  0
   56.9867   25.3136   47.4645 H   0  0  0  0  0  0  0  0  0  0  0  0
   59.2542   26.1776   46.8906 H   0  0  0  0  0  0  0  0  0  0  0  0
   60.5331   28.2630   47.3459 H   0  0  0  0  0  0  0  0  0  0  0  0
   56.2395   28.4744   44.8046 H   0  0  0  0  0  0  0  0  0  0  0  0
   56.7205   33.4594   44.3985 H   0  0  0  0  0  0  0  0  0  0  0  0
   58.0005   35.5464   44.8630 H   0  0  0  0  0  0  0  0  0  0  0  0
   60.1459   35.4427   46.1305 H   0  0  0  0  0  0  0  0  0  0  0  0
   61.0135   33.2539   46.9447 H   0  0  0  0  0  0  0  0  0  0  0  0
  1  2  1  0
  2  3  1  0
  3  4  1  0
  4  5  1  0
  5  6  1  0
  6  7  1  0
  7  8  1  0
  8  9  1  0
  9 10  1  0
 10 11  2  0
 11 12  1  0
 12 13  2  0
 13 14  1  0
 14 15  2  0
 14 16  1  0
 16 17  2  0
 16 18  1  0
 18 19  2  0
 19 20  1  0
 20 21  2  0
 21 22  1  0
 22 23  2  0
 23 24  1  0
 24 25  2  0
 15 10  1  0
 23 18  1  0
 24 13  1  0
  1 26  1  0
  1 27  1  0
  1 28  1  0
  2 29  1  0
  2 30  1  0
  3 31  1  0
  3 32  1  0
  4 33  1  0
  4 34  1  0
  5 35  1  0
  5 36  1  0
  6 37  1  0
  7 38  1  0
  7 39  1  0
  8 40  1  0
  8 41  1  0
 11 42  1  0
 12 43  1  0
 15 44  1  0
 19 45  1  0
 20 46  1  0
 21 47  1  0
 22 48  1  0
M  CHG  1   3   1
M  END
>  <UniqueID>  (17) 
17

>  <SMILES>  (17) 
CC[NH2+]CCNCCOc1ccc2c(c1)C(=O)c1ccccc1C2=O

>  <Energy>  (17) 
48.62647761871146

>  <Genealogy>  (17) 
CC[NH2+]CCNCCOc1ccc2c(c1)C(=O)c1ccccc1C2=O (protonated)
CC[NH2+]CCNCCOc1ccc2c(c1)C(=O)c1ccccc1C2=O (3D coordinates assigned)
CC[NH2+]CCNCCOc1ccc2c(c1)C(=O)c1ccccc1C2=O (nonaromatic ring conformer: 48.62647761871146 kcal/mol)

>  <smiles>  (17) 
CCNCCNCCOc1ccc2c(c1)C(=O)c1ccccc1C2=O

>  <score_type>  (17) 
oracle

>  <origin>  (17) 
adg

>  <m_score__min__energy>  (17) 
-6.0800000000000001

>  <m_primary>  (17) 
energy

$$$$
17:0
     RDKit          3D

 40 42  0  0  0  0  0  0  0  0999 V2000
   57.7990   32.2750   42.5500 C   0  0  0  0  0  0  0  0  0  0  0  0
   57.7710   31.7380   43.9840 C   0  0  2  0  0  0  0  0  0  0  0  0
   56.4330   31.1860   44.2780 N   0  0  0  0  0  0  0  0  0  0  0  0
   56.3900   29.7180   44.1880 C   0  0  0  0  0  0  0  0  0  0  0  0
   57.4400   29.0890   45.0670 C   0  0  0  0  0  0  0  0  0  0  0  0
   57.7570   29.5370   46.3470 C   0  0  0  0  0  0  0  0  0  0  0  0
   58.7380   28.6830   46.7960 C   0  0  0  0  0  0  0  0  0  0  0  0
   59.4010   28.6430   48.0200 C   0  0  0  0  0  0  0  0  0  0  0  0
   60.3560   27.6300   48.2190 C   0  0  0  0  0  0  0  0  0  0  0  0
   61.0230   27.5540   49.3960 F   0  0  0  0  0  0  0  0  0  0  0  0
   60.6180   26.6880   47.2010 C   0  0  0  0  0  0  0  0  0  0  0  0
   59.9310   26.7510   45.9750 C   0  0  0  0  0  0  0  0  0  0  0  0
   58.9920   27.7740   45.7980 C   0  0  0  0  0  0  0  0  0  0  0  0
   58.2180   28.0280   44.7200 N   0  0  0  0  0  0  0  0  0  0  0  0
   58.1610   27.2680   43.4700 C   0  0  0  0  0  0  0  0  0  0  0  0
   58.1820   32.8190   44.9730 C   0  0  0  0  0  0  0  0  0  0  0  0
   58.9800   33.8950   44.5420 C   0  0  0  0  0  0  0  0  0  0  0  0
   59.3800   34.8850   45.4440 C   0  0  0  0  0  0  0  0  0  0  0  0
   58.9870   34.8150   46.7820 C   0  0  0  0  0  0  0  0  0  0  0  0
   58.1940   33.7530   47.2210 C   0  0  0  0  0  0  0  0  0  0  0  0
   57.7920   32.7580   46.3250 C   0  0  0  0  0  0  0  0  0  0  0  0
   57.8563   33.3733   42.5708 H   0  0  0  0  0  0  0  0  0  0  0  0
   58.6773   31.8719   42.0246 H   0  0  0  0  0  0  0  0  0  0  0  0
   56.8835   31.9655   42.0246 H   0  0  0  0  0  0  0  0  0  0  0  0
   58.5029   30.9234   44.0875 H   0  0  0  0  0  0  0  0  0  0  0  0
   56.1380   31.4660   45.2430 H   0  0  0  0  0  0  0  0  0  0  0  0
   55.3974   29.3675   44.5072 H   0  0  0  0  0  0  0  0  0  0  0  0
   56.5866   29.4262   43.1458 H   0  0  0  0  0  0  0  0  0  0  0  0
   57.3174   30.3905   46.8839 H   0  0  0  0  0  0  0  0  0  0  0  0
   59.1845   29.3808   48.8067 H   0  0  0  0  0  0  0  0  0  0  0  0
   61.3654   25.8983   47.3676 H   0  0  0  0  0  0  0  0  0  0  0  0
   60.1260   26.0177   45.1786 H   0  0  0  0  0  0  0  0  0  0  0  0
   58.0805   26.1947   43.6968 H   0  0  0  0  0  0  0  0  0  0  0  0
   57.2842   27.5863   42.8870 H   0  0  0  0  0  0  0  0  0  0  0  0
   59.0755   27.4520   42.8870 H   0  0  0  0  0  0  0  0  0  0  0  0
   59.2909   33.9574   43.4887 H   0  0  0  0  0  0  0  0  0  0  0  0
   60.0059   35.7212   45.0990 H   0  0  0  0  0  0  0  0  0  0  0  0
   59.3019   35.5960   47.4897 H   0  0  0  0  0  0  0  0  0  0  0  0
   57.8846   33.6990   48.2752 H   0  0  0  0  0  0  0  0  0  0  0  0
   57.1681   31.9235   46.6776 H   0  0  0  0  0  0  0  0  0  0  0  0
  1  2  1  0
  2  3  1  0
  3  4  1  0
  4  5  1  0
  5  6  2  0
  6  7  1  0
  7  8  2  0
  8  9  1  0
  9 10  1  0
  9 11  2  0
 11 12  1  0
 12 13  2  0
 13 14  1  0
 14 15  1  0
  2 16  1  0
 16 17  2  0
 17 18  1  0
 18 19  2  0
 19 20  1  0
 20 21  2  0
 14  5  1  0
 21 16  1  0
 13  7  1  0
  1 22  1  0
  1 23  1  0
  1 24  1  0
  2 25  1  6
  3 26  1  0
  4 27  1  0
  4 28  1  0
  6 29  1  0
  8 30  1  0
 11 31  1  0
 12 32  1  0
 15 33  1  0
 15 34  1  0
 15 35  1  0
 17 36  1  0
 18 37  1  0
 19 38  1  0
 20 39  1  0
 21 40  1  0
M  END
>  <UniqueID>  (18) 
18

>  <SMILES>  (18) 
C[C@H](NCc1cc2cc(F)ccc2n1C)c1ccccc1

>  <Energy>  (18) 
74.40371817663512

>  <Genealogy>  (18) 
C[C@H](NCc1cc2cc(F)ccc2n1C)c1ccccc1 (chirality)
C[C@H](NCc1cc2cc(F)ccc2n1C)c1ccccc1 (3D coordinates assigned)
C[C@H](NCc1cc2cc(F)ccc2n1C)c1ccccc1 (optimized conformer: 74.40371817663512 kcal/mol)

>  <smiles>  (18) 
CC(NCc1cc2cc(F)ccc2n1C)c1ccccc1

>  <score_type>  (18) 
oracle

>  <origin>  (18) 
adg

>  <m_score__min__energy>  (18) 
-7.3700000000000001

>  <m_primary>  (18) 
energy

$$$$
18:0
     RDKit          3D

 53 55  0  0  0  0  0  0  0  0999 V2000
   59.7090   28.2370   44.4950 C   0  0  0  0  0  0  0  0  0  0  0  0
   58.2740   27.7250   44.3320 C   0  0  0  0  0  0  0  0  0  0  0  0
   57.5250   28.4800   43.3020 N   0  0  0  0  0  0  0  0  0  0  0  0
   56.5930   29.4710   43.8740 C   0  0  0  0  0  0  0  0  0  0  0  0
   57.3150   30.6810   44.4150 C   0  0  0  0  0  0  0  0  0  0  0  0
   57.8760   30.6500   45.7020 C   0  0  0  0  0  0  0  0  0  0  0  0
   58.5130   31.7810   46.2210 C   0  0  0  0  0  0  0  0  0  0  0  0
   58.6020   32.9610   45.4570 C   0  0  0  0  0  0  0  0  0  0  0  0
   59.2370   34.1170   45.9320 O   0  0  0  0  0  0  0  0  0  0  0  0
   59.3620   34.4550   47.3120 C   0  0  0  0  0  0  0  0  0  0  0  0
   60.6670   33.9230   47.8410 C   0  0  0  0  0  0  0  0  0  0  0  0
   61.8260   34.0110   47.0500 C   0  0  0  0  0  0  0  0  0  0  0  0
   63.0480   33.5320   47.5300 C   0  0  0  0  0  0  0  0  0  0  0  0
   63.1240   32.9550   48.8010 C   0  0  0  0  0  0  0  0  0  0  0  0
   64.6610   32.3700   49.4100 Cl  0  0  0  0  0  0  0  0  0  0  0  0
   61.9740   32.8440   49.5890 C   0  0  0  0  0  0  0  0  0  0  0  0
   60.7430   33.3160   49.1150 C   0  0  0  0  0  0  0  0  0  0  0  0
   59.5770   33.1770   49.9400 N   0  0  0  0  0  0  0  0  0  0  0  0
   59.5390   33.8440   51.2460 C   0  0  0  0  0  0  0  0  0  0  0  0
   58.2710   33.4670   52.0250 C   0  0  0  0  0  0  0  0  0  0  0  0
   58.0720   31.9410   52.0440 C   0  0  0  0  0  0  0  0  0  0  0  0
   58.1780   31.2830   50.6460 C   0  0  0  0  0  0  0  0  0  0  0  0
   58.4920   32.2830   49.5240 C   0  0  0  0  0  0  0  0  0  0  0  0
   58.0430   32.9880   44.1750 C   0  0  0  0  0  0  0  0  0  0  0  0
   57.4020   31.8590   43.6550 C   0  0  0  0  0  0  0  0  0  0  0  0
   59.9485   28.3224   45.5652 H   0  0  0  0  0  0  0  0  0  0  0  0
   60.4062   27.5321   44.0184 H   0  0  0  0  0  0  0  0  0  0  0  0
   59.8025   29.2240   44.0184 H   0  0  0  0  0  0  0  0  0  0  0  0
   58.3070   26.6649   44.0403 H   0  0  0  0  0  0  0  0  0  0  0  0
   57.7560   27.8595   45.2930 H   0  0  0  0  0  0  0  0  0  0  0  0
   56.9500   27.7970   42.7510 H   0  0  0  0  0  0  0  0  0  0  0  0
   58.1710   28.9420   42.6210 H   0  0  0  0  0  0  0  0  0  0  0  0
   55.8946   29.7960   43.0888 H   0  0  0  0  0  0  0  0  0  0  0  0
   56.0594   28.9928   44.7087 H   0  0  0  0  0  0  0  0  0  0  0  0
   57.8139   29.7317   46.3044 H   0  0  0  0  0  0  0  0  0  0  0  0
   58.9470   31.7493   47.2313 H   0  0  0  0  0  0  0  0  0  0  0  0
   59.3387   35.5489   47.4255 H   0  0  0  0  0  0  0  0  0  0  0  0
   58.5286   34.0108   47.8760 H   0  0  0  0  0  0  0  0  0  0  0  0
   61.7706   34.4596   46.0472 H   0  0  0  0  0  0  0  0  0  0  0  0
   63.9512   33.6091   46.9069 H   0  0  0  0  0  0  0  0  0  0  0  0
   62.0363   32.3837   50.5861 H   0  0  0  0  0  0  0  0  0  0  0  0
   60.4215   33.5419   51.8290 H   0  0  0  0  0  0  0  0  0  0  0  0
   59.5365   34.9317   51.0818 H   0  0  0  0  0  0  0  0  0  0  0  0
   58.3617   33.8313   53.0589 H   0  0  0  0  0  0  0  0  0  0  0  0
   57.4039   33.9286   51.5299 H   0  0  0  0  0  0  0  0  0  0  0  0
   58.8400   31.4985   52.6955 H   0  0  0  0  0  0  0  0  0  0  0  0
   57.0522   31.7539   52.4114 H   0  0  0  0  0  0  0  0  0  0  0  0
   58.9784   30.5290   50.6752 H   0  0  0  0  0  0  0  0  0  0  0  0
   57.1970   30.8393   50.4206 H   0  0  0  0  0  0  0  0  0  0  0  0
   58.7980   31.7338   48.6214 H   0  0  0  0  0  0  0  0  0  0  0  0
   57.5934   32.8802   49.3099 H   0  0  0  0  0  0  0  0  0  0  0  0
   58.1081   33.9049   43.5708 H   0  0  0  0  0  0  0  0  0  0  0  0
   56.9641   31.8937   42.6465 H   0  0  0  0  0  0  0  0  0  0  0  0
  1  2  1  0
  2  3  1  0
  3  4  1  0
  4  5  1  0
  5  6  2  0
  6  7  1  0
  7  8  2  0
  8  9  1  0
  9 10  1  0
 10 11  1  0
 11 12  2  0
 12 13  1  0
 13 14  2  0
 14 15  1  0
 14 16  1  0
 16 17  2  0
 17 18  1  0
 18 19  1  0
 19 20  1  0
 20 21  1  0
 21 22  1  0
 22 23  1  0
  8 24  1  0
 24 25  2  0
 25  5  1  0
 17 11  1  0
 23 18  1  0
  1 26  1  0
  1 27  1  0
  1 28  1  0
  2 29  1  0
  2 30  1  0
  3 31  1  0
  3 32  1  0
  4 33  1  0
  4 34  1  0
  6 35  1  0
  7 36  1  0
 10 37  1  0
 10 38  1  0
 12 39  1  0
 13 40  1  0
 16 41  1  0
 19 42  1  0
 19 43  1  0
 20 44  1  0
 20 45  1  0
 21 46  1  0
 21 47  1  0
 22 48  1  0
 22 49  1  0
 23 50  1  0
 23 51  1  0
 24 52  1  0
 25 53  1  0
M  CHG  1   3   1
M  END
>  <UniqueID>  (19) 
19

>  <SMILES>  (19) 
CC[NH2+]Cc1ccc(OCc2ccc(Cl)cc2N2CCCCC2)cc1

>  <Energy>  (19) 
57.67353476789633

>  <Genealogy>  (19) 
CC[NH2+]Cc1ccc(OCc2ccc(Cl)cc2N2CCCCC2)cc1 (protonated)
CC[NH2+]Cc1ccc(OCc2ccc(Cl)cc2N2CCCCC2)cc1 (3D coordinates assigned)
CC[NH2+]Cc1ccc(OCc2ccc(Cl)cc2N2CCCCC2)cc1 (nonaromatic ring conformer: 57.67353476789633 kcal/mol)

>  <smiles>  (19) 
CCNCc1ccc(OCc2ccc(Cl)cc2N2CCCCC2)cc1

>  <score_type>  (19) 
oracle

>  <origin>  (19) 
adg

>  <m_score__min__energy>  (19) 
-6.5099999999999998

>  <m_primary>  (19) 
energy

$$$$
19:0
     RDKit          3D

 50 52  0  0  0  0  0  0  0  0999 V2000
   57.4050   31.5690   42.6030 C   0  0  0  0  0  0  0  0  0  0  0  0
   57.6870   31.6920   44.0960 C   0  0  0  0  0  0  0  0  0  0  0  0
   56.7560   30.8480   44.8490 N   0  0  0  0  0  0  0  0  0  0  0  0
   56.9010   29.4370   44.4680 C   0  0  0  0  0  0  0  0  0  0  0  0
   57.9270   28.7400   45.3830 C   0  0  0  0  0  0  0  0  0  0  0  0
   58.3940   29.5410   46.4600 O   0  0  0  0  0  0  0  0  0  0  0  0
   59.7650   29.3390   46.7690 C   0  0  0  0  0  0  0  0  0  0  0  0
   60.0370   29.1650   48.2740 C   0  0  0  0  0  0  0  0  0  0  0  0
   58.9100   29.7790   49.1130 C   0  0  0  0  0  0  0  0  0  0  0  0
   59.3190   31.0850   49.6260 N   0  0  0  0  0  0  0  0  0  0  0  0
   60.2250   31.9030   48.8670 C   0  0  0  0  0  0  0  0  0  0  0  0
   59.7840   32.7430   47.8240 C   0  0  0  0  0  0  0  0  0  0  0  0
   58.4090   32.9140   47.5690 C   0  0  0  0  0  0  0  0  0  0  0  0
   57.9740   33.7650   46.5560 C   0  0  0  0  0  0  0  0  0  0  0  0
   58.8970   34.4750   45.7960 C   0  0  0  0  0  0  0  0  0  0  0  0
   60.2650   34.3360   46.0350 C   0  0  0  0  0  0  0  0  0  0  0  0
   60.7460   33.4590   47.0380 C   0  0  0  0  0  0  0  0  0  0  0  0
   62.1040   33.3000   47.2790 N   0  0  0  0  0  0  0  0  0  0  0  0
   63.1080   33.9080   46.3820 C   0  0  0  0  0  0  0  0  0  0  0  0
   62.5050   32.5660   48.3710 C   0  0  0  0  0  0  0  0  0  0  0  0
   63.8260   32.4050   48.8400 C   0  0  0  0  0  0  0  0  0  0  0  0
   63.9200   31.5710   49.9490 C   0  0  0  0  0  0  0  0  0  0  0  0
   62.3770   31.0410   50.3660 S   0  0  0  0  0  0  0  0  0  0  0  0
   61.5840   31.8760   49.1420 C   0  0  0  0  0  0  0  0  0  0  0  0
   56.4061   31.1333   42.4532 H   0  0  0  0  0  0  0  0  0  0  0  0
   57.4436   32.5657   42.1392 H   0  0  0  0  0  0  0  0  0  0  0  0
   58.1618   30.9192   42.1392 H   0  0  0  0  0  0  0  0  0  0  0  0
   58.7187   31.3698   44.3003 H   0  0  0  0  0  0  0  0  0  0  0  0
   57.5575   32.7399   44.4045 H   0  0  0  0  0  0  0  0  0  0  0  0
   56.9940   30.9330   45.8670 H   0  0  0  0  0  0  0  0  0  0  0  0
   55.9279   28.9332   44.5637 H   0  0  0  0  0  0  0  0  0  0  0  0
   57.2528   29.3811   43.4273 H   0  0  0  0  0  0  0  0  0  0  0  0
   57.4565   27.8390   45.8034 H   0  0  0  0  0  0  0  0  0  0  0  0
   58.8030   28.5147   44.7571 H   0  0  0  0  0  0  0  0  0  0  0  0
   60.1100   28.4348   46.2462 H   0  0  0  0  0  0  0  0  0  0  0  0
   60.3055   30.2406   46.4451 H   0  0  0  0  0  0  0  0  0  0  0  0
   60.1123   28.0919   48.5038 H   0  0  0  0  0  0  0  0  0  0  0  0
   60.9770   29.6801   48.5211 H   0  0  0  0  0  0  0  0  0  0  0  0
   58.0139   29.8988   48.4863 H   0  0  0  0  0  0  0  0  0  0  0  0
   58.6885   29.1131   49.9601 H   0  0  0  0  0  0  0  0  0  0  0  0
   59.2880   31.2190   50.6610 H   0  0  0  0  0  0  0  0  0  0  0  0
   57.6711   32.3695   48.1765 H   0  0  0  0  0  0  0  0  0  0  0  0
   56.8979   33.8757   46.3567 H   0  0  0  0  0  0  0  0  0  0  0  0
   58.5468   35.1504   45.0015 H   0  0  0  0  0  0  0  0  0  0  0  0
   60.9810   34.9167   45.4350 H   0  0  0  0  0  0  0  0  0  0  0  0
   63.8959   34.3851   46.9834 H   0  0  0  0  0  0  0  0  0  0  0  0
   63.5531   33.1276   45.7473 H   0  0  0  0  0  0  0  0  0  0  0  0
   62.6226   34.6641   45.7473 H   0  0  0  0  0  0  0  0  0  0  0  0
   64.6959   32.8913   48.3743 H   0  0  0  0  0  0  0  0  0  0  0  0
   64.8510   31.3014   50.4692 H   0  0  0  0  0  0  0  0  0  0  0  0
  1  2  1  0
  2  3  1  0
  3  4  1  0
  4  5  1  0
  5  6  1  0
  6  7  1  0
  7  8  1  0
  8  9  1  0
  9 10  1  0
 10 11  1  0
 11 12  2  0
 12 13  1  0
 13 14  2  0
 14 15  1  0
 15 16  2  0
 16 17  1  0
 17 18  2  0
 18 19  1  0
 18 20  1  0
 20 21  1  0
 21 22  2  0
 22 23  1  0
 23 24  1  0
 24 11  1  0
 17 12  1  0
 24 20  2  0
  1 25  1  0
  1 26  1  0
  1 27  1  0
  2 28  1  0
  2 29  1  0
  3 30  1  0
  4 31  1  0
  4 32  1  0
  5 33  1  0
  5 34  1  0
  7 35  1  0
  7 36  1  0
  8 37  1  0
  8 38  1  0
  9 39  1  0
  9 40  1  0
 10 41  1  0
 13 42  1  0
 14 43  1  0
 15 44  1  0
 16 45  1  0
 19 46  1  0
 19 47  1  0
 19 48  1  0
 21 49  1  0
 22 50  1  0
M  CHG  1  18   1
M  END
>  <UniqueID>  (20) 
20

>  <SMILES>  (20) 
CCNCCOCCCNc1c2ccccc2[n+](C)c2ccsc12

>  <Energy>  (20) 
93.59312535530997

>  <Genealogy>  (20) 
CCNCCOCCCNc1c2ccccc2[n+](C)c2ccsc12 (3D coordinates assigned)
CCNCCOCCCNc1c2ccccc2[n+](C)c2ccsc12 (optimized conformer: 93.59312535530997 kcal/mol)

>  <smiles>  (20) 
CCNCCOCCCNc1c2ccccc2[n+](C)c2ccsc12

>  <score_type>  (20) 
oracle

>  <origin>  (20) 
adg

>  <m_score__min__energy>  (20) 
-5.9699999999999998

>  <m_primary>  (20) 
energy

$$$$
20:0
     RDKit          3D

 70 73  0  0  0  0  0  0  0  0999 V2000
   57.3120   31.9490   51.6180 C   0  0  0  0  0  0  0  0  0  0  0  0
   58.2900   31.7610   50.4490 C   0  0  0  0  0  0  0  0  0  0  0  0
   58.9270   30.4240   50.4080 N   0  0  0  0  0  0  0  0  0  0  0  0
   58.8900   29.7460   51.7170 C   0  0  0  0  0  0  0  0  0  0  0  0
   60.2910   30.4610   49.8360 C   0  0  0  0  0  0  0  0  0  0  0  0
   60.2950   29.9520   48.3830 C   0  0  0  0  0  0  0  0  0  0  0  0
   58.9310   29.7980   47.8730 N   0  0  0  0  0  0  0  0  0  0  0  0
   58.6030   30.0700   46.4980 C   0  0  0  0  0  0  0  0  0  0  0  0
   58.3430   29.0130   45.6060 C   0  0  0  0  0  0  0  0  0  0  0  0
   58.4780   27.6670   46.0100 C   0  0  0  0  0  0  0  0  0  0  0  0
   58.2520   26.6270   45.1140 C   0  0  0  0  0  0  0  0  0  0  0  0
   57.9040   26.9050   43.7990 C   0  0  0  0  0  0  0  0  0  0  0  0
   57.7480   28.2250   43.3790 C   0  0  0  0  0  0  0  0  0  0  0  0
   57.9260   29.3060   44.2790 C   0  0  0  0  0  0  0  0  0  0  0  0
   57.7180   30.6170   43.8900 N   0  0  0  0  0  0  0  0  0  0  0  0
   57.0140   30.9090   42.6220 C   0  0  0  0  0  0  0  0  0  0  0  0
   58.1620   31.6530   44.6900 C   0  0  0  0  0  0  0  0  0  0  0  0
   58.2300   32.9850   44.2120 C   0  0  0  0  0  0  0  0  0  0  0  0
   58.6550   34.0270   45.0330 C   0  0  0  0  0  0  0  0  0  0  0  0
   59.0530   33.7760   46.3490 C   0  0  0  0  0  0  0  0  0  0  0  0
   59.5060   34.8570   47.1960 N   0  0  0  0  0  0  0  0  0  0  0  0
   59.2750   34.5720   48.6240 C   0  0  0  0  0  0  0  0  0  0  0  0
   60.4680   33.8460   49.2780 C   0  0  0  0  0  0  0  0  0  0  0  0
   61.7400   34.1750   48.5940 N   0  0  0  0  0  0  0  0  0  0  0  0
   62.1560   33.0940   47.6590 C   0  0  0  0  0  0  0  0  0  0  0  0
   63.6710   33.0730   47.4180 C   0  0  0  0  0  0  0  0  0  0  0  0
   64.4320   32.8180   48.7320 C   0  0  0  0  0  0  0  0  0  0  0  0
   63.6990   33.3890   49.9580 C   0  0  0  0  0  0  0  0  0  0  0  0
   62.7960   34.5660   49.5680 C   0  0  0  0  0  0  0  0  0  0  0  0
   59.0310   32.4610   46.8310 C   0  0  0  0  0  0  0  0  0  0  0  0
   58.5890   31.3950   46.0190 C   0  0  0  0  0  0  0  0  0  0  0  0
   57.8537   31.8449   52.5697 H   0  0  0  0  0  0  0  0  0  0  0  0
   56.8604   32.9504   51.5608 H   0  0  0  0  0  0  0  0  0  0  0  0
   56.5213   31.1864   51.5608 H   0  0  0  0  0  0  0  0  0  0  0  0
   57.7389   31.9110   49.5089 H   0  0  0  0  0  0  0  0  0  0  0  0
   59.0974   32.4951   50.5871 H   0  0  0  0  0  0  0  0  0  0  0  0
   58.9310   30.4967   52.5200 H   0  0  0  0  0  0  0  0  0  0  0  0
   57.9589   29.1667   51.8037 H   0  0  0  0  0  0  0  0  0  0  0  0
   59.7525   29.0689   51.8037 H   0  0  0  0  0  0  0  0  0  0  0  0
   60.6609   31.4968   49.8551 H   0  0  0  0  0  0  0  0  0  0  0  0
   60.9406   29.8081   50.4374 H   0  0  0  0  0  0  0  0  0  0  0  0
   60.8351   30.6729   47.7516 H   0  0  0  0  0  0  0  0  0  0  0  0
   60.7892   28.9696   48.3590 H   0  0  0  0  0  0  0  0  0  0  0  0
   58.1580   29.6850   48.5670 H   0  0  0  0  0  0  0  0  0  0  0  0
   58.7656   27.4376   47.0467 H   0  0  0  0  0  0  0  0  0  0  0  0
   58.3491   25.5834   45.4478 H   0  0  0  0  0  0  0  0  0  0  0  0
   57.7509   26.0811   43.0864 H   0  0  0  0  0  0  0  0  0  0  0  0
   57.4823   28.4314   42.3317 H   0  0  0  0  0  0  0  0  0  0  0  0
   56.0185   31.3219   42.8420 H   0  0  0  0  0  0  0  0  0  0  0  0
   57.5941   31.6407   42.0406 H   0  0  0  0  0  0  0  0  0  0  0  0
   56.9059   29.9815   42.0406 H   0  0  0  0  0  0  0  0  0  0  0  0
   57.9416   33.2005   43.1726 H   0  0  0  0  0  0  0  0  0  0  0  0
   58.6775   35.0551   44.6426 H   0  0  0  0  0  0  0  0  0  0  0  0
   60.5210   35.0580   47.0330 H   0  0  0  0  0  0  0  0  0  0  0  0
   58.9780   35.7230   46.9380 H   0  0  0  0  0  0  0  0  0  0  0  0
   59.1074   35.5226   49.1515 H   0  0  0  0  0  0  0  0  0  0  0  0
   58.3987   33.9111   48.6971 H   0  0  0  0  0  0  0  0  0  0  0  0
   60.5389   34.1515   50.3323 H   0  0  0  0  0  0  0  0  0  0  0  0
   60.3010   32.7618   49.1969 H   0  0  0  0  0  0  0  0  0  0  0  0
   61.8533   32.1253   48.0834 H   0  0  0  0  0  0  0  0  0  0  0  0
   61.6674   33.2837   46.6919 H   0  0  0  0  0  0  0  0  0  0  0  0
   63.9108   32.2734   46.7017 H   0  0  0  0  0  0  0  0  0  0  0  0
   63.9772   34.0509   47.0182 H   0  0  0  0  0  0  0  0  0  0  0  0
   64.5507   31.7327   48.8659 H   0  0  0  0  0  0  0  0  0  0  0  0
   65.4052   33.3254   48.6583 H   0  0  0  0  0  0  0  0  0  0  0  0
   63.0818   32.5972   50.4076 H   0  0  0  0  0  0  0  0  0  0  0  0
   64.4506   33.7503   50.6753 H   0  0  0  0  0  0  0  0  0  0  0  0
   62.3121   34.9555   50.4758 H   0  0  0  0  0  0  0  0  0  0  0  0
   63.4279   35.3280   49.0884 H   0  0  0  0  0  0  0  0  0  0  0  0
   59.3637   32.2560   47.8592 H   0  0  0  0  0  0  0  0  0  0  0  0
  1  2  1  0
  2  3  1  0
  3  4  1  0
  3  5  1  0
  5  6  1  0
  6  7  1  0
  7  8  1  0
  8  9  2  0
  9 10  1  0
 10 11  2  0
 11 12  1  0
 12 13  2  0
 13 14  1  0
 14 15  2  0
 15 16  1  0
 15 17  1  0
 17 18  2  0
 18 19  1  0
 19 20  2  0
 20 21  1  0
 21 22  1  0
 22 23  1  0
 23 24  1  0
 24 25  1  0
 25 26  1  0
 26 27  1  0
 27 28  1  0
 28 29  1  0
 20 30  1  0
 30 31  2  0
 31  8  1  0
 14  9  1  0
 31 17  1  0
 29 24  1  0
  1 32  1  0
  1 33  1  0
  1 34  1  0
  2 35  1  0
  2 36  1  0
  4 37  1  0
  4 38  1  0
  4 39  1  0
  5 40  1  0
  5 41  1  0
  6 42  1  0
  6 43  1  0
  7 44  1  0
 10 45  1  0
 11 46  1  0
 12 47  1  0
 13 48  1  0
 16 49  1  0
 16 50  1  0
 16 51  1  0
 18 52  1  0
 19 53  1  0
 21 54  1  0
 21 55  1  0
 22 56  1  0
 22 57  1  0
 23 58  1  0
 23 59  1  0
 25 60  1  0
 25 61  1  0
 26 62  1  0
 26 63  1  0
 27 64  1  0
 27 65  1  0
 28 66  1  0
 28 67  1  0
 29 68  1  0
 29 69  1  0
 30 70  1  0
M  CHG  2  15   1  21   1
M  END
>  <UniqueID>  (21) 
21

>  <SMILES>  (21) 
CCN(C)CCNc1c2ccccc2[n+](C)c2ccc([NH2+]CCN3CCCCC3)cc12

>  <Energy>  (21) 
107.60861059723129

>  <Genealogy>  (21) 
CCN(C)CCNc1c2ccccc2[n+](C)c2ccc([NH2+]CCN3CCCCC3)cc12 (protonated)
CCN(C)CCNc1c2ccccc2[n+](C)c2ccc([NH2+]CCN3CCCCC3)cc12 (3D coordinates assigned)
CCN(C)CCNc1c2ccccc2[n+](C)c2ccc([NH2+]CCN3CCCCC3)cc12 (nonaromatic ring conformer: 107.60861059723129 kcal/mol)

>  <smiles>  (21) 
CCN(C)CCNc1c2ccccc2[n+](C)c2ccc(NCCN3CCCCC3)cc12

>  <score_type>  (21) 
oracle

>  <origin>  (21) 
adg

>  <m_score__min__energy>  (21) 
-5.9699999999999998

>  <m_primary>  (21) 
energy

$$$$
21:0
     RDKit          3D

 63 62  0  0  0  0  0  0  0  0999 V2000
   59.2379   30.0048   49.3859 H   0  0  0  0  0  0  0  0  0  0  0  0
   59.5570   30.8460   48.7530 C   0  0  0  0  0  0  0  0  0  0  0  0
   59.7610   30.6130   47.4370 C   0  0  0  0  0  0  0  0  0  0  0  0
   61.1410   30.6800   46.8260 C   0  0  0  0  0  0  0  0  0  0  0  0
   61.8949   30.7166   47.6262 H   0  0  0  0  0  0  0  0  0  0  0  0
   61.3100   29.7890   46.2035 H   0  0  0  0  0  0  0  0  0  0  0  0
   61.2229   31.5832   46.2035 H   0  0  0  0  0  0  0  0  0  0  0  0
   58.5760   30.2950   46.5510 C   0  0  0  0  0  0  0  0  0  0  0  0
   57.7189   30.0179   47.1823 H   0  0  0  0  0  0  0  0  0  0  0  0
   58.3395   31.1849   45.9492 H   0  0  0  0  0  0  0  0  0  0  0  0
   58.8960   29.1330   45.6010 C   0  0  0  0  0  0  0  0  0  0  0  0
   59.9269   29.2461   45.2343 H   0  0  0  0  0  0  0  0  0  0  0  0
   58.7762   28.1922   46.1582 H   0  0  0  0  0  0  0  0  0  0  0  0
   57.9580   29.1020   44.4200 C   0  0  0  0  0  0  0  0  0  0  0  0
   57.8622   28.1470   43.8826 H   0  0  0  0  0  0  0  0  0  0  0  0
   57.2230   30.1430   43.9610 C   0  0  0  0  0  0  0  0  0  0  0  0
   55.7210   30.0330   44.0380 C   0  0  0  0  0  0  0  0  0  0  0  0
   55.4086   30.0101   45.0925 H   0  0  0  0  0  0  0  0  0  0  0  0
   55.2638   30.9001   43.5389 H   0  0  0  0  0  0  0  0  0  0  0  0
   55.3950   29.1086   43.5389 H   0  0  0  0  0  0  0  0  0  0  0  0
   57.8220   31.4130   43.3830 C   0  0  0  0  0  0  0  0  0  0  0  0
   58.9185   31.3257   43.3842 H   0  0  0  0  0  0  0  0  0  0  0  0
   57.4450   31.5413   42.3576 H   0  0  0  0  0  0  0  0  0  0  0  0
   57.4160   32.6430   44.2090 C   0  0  0  0  0  0  0  0  0  0  0  0
   56.8463   33.3324   43.5685 H   0  0  0  0  0  0  0  0  0  0  0  0
   56.8039   32.3041   45.0578 H   0  0  0  0  0  0  0  0  0  0  0  0
   58.6250   33.3630   44.7520 C   0  0  0  0  0  0  0  0  0  0  0  0
   59.5264   33.3902   44.1221 H   0  0  0  0  0  0  0  0  0  0  0  0
   58.6840   33.9780   45.9560 C   0  0  0  0  0  0  0  0  0  0  0  0
   57.7690   33.5330   47.0680 C   0  0  0  0  0  0  0  0  0  0  0  0
   58.2345   33.7594   48.0386 H   0  0  0  0  0  0  0  0  0  0  0  0
   56.8096   34.0651   46.9885 H   0  0  0  0  0  0  0  0  0  0  0  0
   57.5952   32.4497   46.9885 H   0  0  0  0  0  0  0  0  0  0  0  0
   59.6620   35.0900   46.2460 C   0  0  0  0  0  0  0  0  0  0  0  0
   59.7680   35.2105   47.3342 H   0  0  0  0  0  0  0  0  0  0  0  0
   60.6399   34.8419   45.8076 H   0  0  0  0  0  0  0  0  0  0  0  0
   59.2910   36.0282   45.8076 H   0  0  0  0  0  0  0  0  0  0  0  0
   59.7420   32.1910   49.4000 C   0  0  0  0  0  0  0  0  0  0  0  0
   60.2149   32.0641   50.3850 H   0  0  0  0  0  0  0  0  0  0  0  0
   58.7643   32.6786   49.5280 H   0  0  0  0  0  0  0  0  0  0  0  0
   60.5670   32.9880   48.5790 O   0  0  0  0  0  0  0  0  0  0  0  0
   61.0840   34.0710   49.3230 C   0  0  0  0  0  0  0  0  0  0  0  0
   60.7986   33.9598   50.3795 H   0  0  0  0  0  0  0  0  0  0  0  0
   60.6756   35.0141   48.9308 H   0  0  0  0  0  0  0  0  0  0  0  0
   62.6150   34.0870   49.2050 C   0  0  0  0  0  0  0  0  0  0  0  0
   63.0430   34.2876   50.1983 H   0  0  0  0  0  0  0  0  0  0  0  0
   62.8856   34.8701   48.4814 H   0  0  0  0  0  0  0  0  0  0  0  0
   63.1630   32.7980   48.7010 N   0  0  0  0  0  0  0  0  0  0  0  0
   62.3360   32.1700   48.5510 H   0  0  0  0  0  0  0  0  0  0  0  0
   63.7460   32.9250   47.3390 C   0  0  0  0  0  0  0  0  0  0  0  0
   63.7862   31.9217   46.8898 H   0  0  0  0  0  0  0  0  0  0  0  0
   64.7370   33.3841   47.4696 H   0  0  0  0  0  0  0  0  0  0  0  0
   62.9710   33.8410   46.3880 C   0  0  0  0  0  0  0  0  0  0  0  0
   62.3693   34.5522   46.9730 H   0  0  0  0  0  0  0  0  0  0  0  0
   63.6791   34.3946   45.7539 H   0  0  0  0  0  0  0  0  0  0  0  0
   62.3078   33.2344   45.7539 H   0  0  0  0  0  0  0  0  0  0  0  0
   64.0460   32.0590   49.6540 C   0  0  0  0  0  0  0  0  0  0  0  0
   63.5286   32.0095   50.6235 H   0  0  0  0  0  0  0  0  0  0  0  0
   64.2276   31.0777   49.1914 H   0  0  0  0  0  0  0  0  0  0  0  0
   65.4370   32.6700   49.8930 C   0  0  0  0  0  0  0  0  0  0  0  0
   65.6211   32.7509   50.9745 H   0  0  0  0  0  0  0  0  0  0  0  0
   66.2036   32.0258   49.4377 H   0  0  0  0  0  0  0  0  0  0  0  0
   65.4812   33.6704   49.4377 H   0  0  0  0  0  0  0  0  0  0  0  0
  1  2  1  0
  2  3  2  3
  3  4  1  0
  4  5  1  0
  4  6  1  0
  4  7  1  0
  3  8  1  0
  8  9  1  0
  8 10  1  0
  8 11  1  0
 11 12  1  0
 11 13  1  0
 11 14  1  0
 14 15  1  0
 14 16  2  0
 16 17  1  0
 17 18  1  0
 17 19  1  0
 17 20  1  0
 16 21  1  0
 21 22  1  0
 21 23  1  0
 21 24  1  0
 24 25  1  0
 24 26  1  0
 24 27  1  0
 27 28  1  0
 27 29  2  3
 29 30  1  0
 30 31  1  0
 30 32  1  0
 30 33  1  0
 29 34  1  0
 34 35  1  0
 34 36  1  0
 34 37  1  0
  2 38  1  0
 38 39  1  0
 38 40  1  0
 38 41  1  0
 41 42  1  0
 42 43  1  0
 42 44  1  0
 42 45  1  0
 45 46  1  0
 45 47  1  0
 45 48  1  0
 48 49  1  0
 48 50  1  0
 50 51  1  0
 50 52  1  0
 50 53  1  0
 53 54  1  0
 53 55  1  0
 53 56  1  0
 48 57  1  0
 57 58  1  0
 57 59  1  0
 57 60  1  0
 60 61  1  0
 60 62  1  0
 60 63  1  0
M  CHG  1  48   1
M  END
>  <UniqueID>  (22) 
22

>  <SMILES>  (22) 
CC[NH+](CC)CCOCC=C(C)CC/C=C(/C)CCC=C(C)C

>  <Energy>  (22) 
49.16901703024808

>  <Genealogy>  (22) 
CC[NH+](CC)CCOCC=C(C)CCC=C(C)CCC=C(C)C (protonated)
CC[NH+](CC)CCOCC=C(C)CC/C=C(/C)CCC=C(C)C (cis-trans isomerization)
CC[NH+](CC)CCOCC=C(C)CC/C=C(/C)CCC=C(C)C (3D coordinates assigned)
CC[NH+](CC)CCOCC=C(C)CC/C=C(/C)CCC=C(C)C (optimized conformer: 49.16901703024808 kcal/mol)

>  <smiles>  (22) 
CCN(CC)CCOCC=C(C)CCC=C(C)CCC=C(C)C

>  <score_type>  (22) 
oracle

>  <origin>  (22) 
adg

>  <m_score__min__energy>  (22) 
-5.0099999999999998

>  <m_primary>  (22) 
energy

$$$$
22:0
     RDKit          3D

 72 74  0  0  0  0  0  0  0  0999 V2000
   58.6890   33.9260   52.4430 C   0  0  0  0  0  0  0  0  0  0  0  0
   59.3130   32.5420   52.2310 C   0  0  0  0  0  0  0  0  0  0  0  0
   58.4360   31.6470   51.4250 N   0  0  0  0  0  0  0  0  0  0  0  0
   56.9940   31.9210   51.6840 C   0  0  0  0  0  0  0  0  0  0  0  0
   56.2130   30.6630   52.0830 C   0  0  0  0  0  0  0  0  0  0  0  0
   58.7840   30.2140   51.6320 C   0  0  0  0  0  0  0  0  0  0  0  0
   59.2390   29.4690   50.3490 C   0  0  0  0  0  0  0  0  0  0  0  0
   59.7070   30.4060   49.3220 N   0  0  0  0  0  0  0  0  0  0  0  0
   59.3160   30.2640   47.9460 C   0  0  0  0  0  0  0  0  0  0  0  0
   59.4890   29.0270   47.3020 C   0  0  0  0  0  0  0  0  0  0  0  0
   60.3060   28.0230   47.8670 C   0  0  0  0  0  0  0  0  0  0  0  0
   60.4770   26.8000   47.2250 C   0  0  0  0  0  0  0  0  0  0  0  0
   59.8530   26.5610   46.0050 C   0  0  0  0  0  0  0  0  0  0  0  0
   59.0530   27.5430   45.4220 C   0  0  0  0  0  0  0  0  0  0  0  0
   58.8470   28.7920   46.0610 C   0  0  0  0  0  0  0  0  0  0  0  0
   58.0570   29.7740   45.5010 N   0  0  0  0  0  0  0  0  0  0  0  0
   57.1280   29.4340   44.4010 C   0  0  0  0  0  0  0  0  0  0  0  0
   58.1300   31.0720   45.9740 C   0  0  0  0  0  0  0  0  0  0  0  0
   57.6240   32.1540   45.2160 C   0  0  0  0  0  0  0  0  0  0  0  0
   57.6500   33.4590   45.7070 C   0  0  0  0  0  0  0  0  0  0  0  0
   57.1360   34.5930   44.8680 C   0  0  0  0  0  0  0  0  0  0  0  0
   58.2260   33.7170   46.9480 C   0  0  0  0  0  0  0  0  0  0  0  0
   58.7610   32.6800   47.7260 C   0  0  0  0  0  0  0  0  0  0  0  0
   59.3290   32.9650   48.9790 O   0  0  0  0  0  0  0  0  0  0  0  0
   60.3450   33.9350   49.2310 C   0  0  0  0  0  0  0  0  0  0  0  0
   61.7860   33.3660   49.1930 C   0  0  0  0  0  0  0  0  0  0  0  0
   62.3670   33.0780   47.8410 N   0  0  0  0  0  0  0  0  0  0  0  0
   62.3230   31.6250   47.5510 C   0  0  0  0  0  0  0  0  0  0  0  0
   61.6800   33.8270   46.7620 C   0  0  0  0  0  0  0  0  0  0  0  0
   63.7930   33.4900   47.8520 C   0  0  0  0  0  0  0  0  0  0  0  0
   58.7340   31.3430   47.2360 C   0  0  0  0  0  0  0  0  0  0  0  0
   58.5987   34.1263   53.5208 H   0  0  0  0  0  0  0  0  0  0  0  0
   59.3290   34.6916   51.9801 H   0  0  0  0  0  0  0  0  0  0  0  0
   57.6915   33.9533   51.9801 H   0  0  0  0  0  0  0  0  0  0  0  0
   60.2729   32.6626   51.7075 H   0  0  0  0  0  0  0  0  0  0  0  0
   59.4514   32.0789   53.2191 H   0  0  0  0  0  0  0  0  0  0  0  0
   58.6270   31.8420   50.4120 H   0  0  0  0  0  0  0  0  0  0  0  0
   56.9166   32.6560   52.4987 H   0  0  0  0  0  0  0  0  0  0  0  0
   56.5557   32.3007   50.7493 H   0  0  0  0  0  0  0  0  0  0  0  0
   56.1686   30.5915   53.1798 H   0  0  0  0  0  0  0  0  0  0  0  0
   55.1920   30.7213   51.6777 H   0  0  0  0  0  0  0  0  0  0  0  0
   56.7182   29.7739   51.6777 H   0  0  0  0  0  0  0  0  0  0  0  0
   59.6006   30.1618   52.3672 H   0  0  0  0  0  0  0  0  0  0  0  0
   57.8646   29.7155   51.9730 H   0  0  0  0  0  0  0  0  0  0  0  0
   60.0584   28.7817   50.6061 H   0  0  0  0  0  0  0  0  0  0  0  0
   58.3773   28.9167   49.9461 H   0  0  0  0  0  0  0  0  0  0  0  0
   60.4070   31.1390   49.5810 H   0  0  0  0  0  0  0  0  0  0  0  0
   60.8129   28.2097   48.8252 H   0  0  0  0  0  0  0  0  0  0  0  0
   61.1059   26.0221   47.6826 H   0  0  0  0  0  0  0  0  0  0  0  0
   59.9911   25.5943   45.4986 H   0  0  0  0  0  0  0  0  0  0  0  0
   58.5743   27.3458   44.4515 H   0  0  0  0  0  0  0  0  0  0  0  0
   56.1736   29.0847   44.8219 H   0  0  0  0  0  0  0  0  0  0  0  0
   56.9511   30.3257   43.7816 H   0  0  0  0  0  0  0  0  0  0  0  0
   57.5685   28.6388   43.7816 H   0  0  0  0  0  0  0  0  0  0  0  0
   57.2013   31.9620   44.2188 H   0  0  0  0  0  0  0  0  0  0  0  0
   56.7712   35.3978   45.5231 H   0  0  0  0  0  0  0  0  0  0  0  0
   57.9481   34.9768   44.2331 H   0  0  0  0  0  0  0  0  0  0  0  0
   56.3121   34.2352   44.2331 H   0  0  0  0  0  0  0  0  0  0  0  0
   58.2620   34.7501   47.3241 H   0  0  0  0  0  0  0  0  0  0  0  0
   60.2652   34.7247   48.4695 H   0  0  0  0  0  0  0  0  0  0  0  0
   60.1790   34.3107   50.2514 H   0  0  0  0  0  0  0  0  0  0  0  0
   62.4440   34.0947   49.6889 H   0  0  0  0  0  0  0  0  0  0  0  0
   61.7207   32.3874   49.6911 H   0  0  0  0  0  0  0  0  0  0  0  0
   62.3060   31.0628   48.4963 H   0  0  0  0  0  0  0  0  0  0  0  0
   61.4175   31.3942   46.9707 H   0  0  0  0  0  0  0  0  0  0  0  0
   63.2129   31.3398   46.9707 H   0  0  0  0  0  0  0  0  0  0  0  0
   60.9998   34.5686   47.2062 H   0  0  0  0  0  0  0  0  0  0  0  0
   62.4271   34.3412   46.1395 H   0  0  0  0  0  0  0  0  0  0  0  0
   61.1033   33.1270   46.1395 H   0  0  0  0  0  0  0  0  0  0  0  0
   64.1379   33.5896   48.8918 H   0  0  0  0  0  0  0  0  0  0  0  0
   64.3982   32.7300   47.3362 H   0  0  0  0  0  0  0  0  0  0  0  0
   63.8996   34.4557   47.3362 H   0  0  0  0  0  0  0  0  0  0  0  0
  1  2  1  0
  2  3  1  0
  3  4  1  0
  4  5  1  0
  3  6  1  0
  6  7  1  0
  7  8  1  0
  8  9  1  0
  9 10  2  0
 10 11  1  0
 11 12  2  0
 12 13  1  0
 13 14  2  0
 14 15  1  0
 15 16  2  0
 16 17  1  0
 16 18  1  0
 18 19  2  0
 19 20  1  0
 20 21  1  0
 20 22  2  0
 22 23  1  0
 23 24  1  0
 24 25  1  0
 25 26  1  0
 26 27  1  0
 27 28  1  0
 27 29  1  0
 27 30  1  0
 23 31  2  0
 31  9  1  0
 15 10  1  0
 31 18  1  0
  1 32  1  0
  1 33  1  0
  1 34  1  0
  2 35  1  0
  2 36  1  0
  3 37  1  0
  4 38  1  0
  4 39  1  0
  5 40  1  0
  5 41  1  0
  5 42  1  0
  6 43  1  0
  6 44  1  0
  7 45  1  0
  7 46  1  0
  8 47  1  0
 11 48  1  0
 12 49  1  0
 13 50  1  0
 14 51  1  0
 17 52  1  0
 17 53  1  0
 17 54  1  0
 19 55  1  0
 21 56  1  0
 21 57  1  0
 21 58  1  0
 22 59  1  0
 25 60  1  0
 25 61  1  0
 26 62  1  0
 26 63  1  0
 28 64  1  0
 28 65  1  0
 28 66  1  0
 29 67  1  0
 29 68  1  0
 29 69  1  0
 30 70  1  0
 30 71  1  0
 30 72  1  0
M  CHG  3   3   1  16   1  27   1
M  END
>  <UniqueID>  (23) 
23

>  <SMILES>  (23) 
CC[NH+](CC)CCNc1c2ccccc2[n+](C)c2cc(C)cc(OCC[N+](C)(C)C)c12

>  <Energy>  (23) 
112.78408884416466

>  <Genealogy>  (23) 
CC[NH+](CC)CCNc1c2ccccc2[n+](C)c2cc(C)cc(OCC[N+](C)(C)C)c12 (protonated)
CC[NH+](CC)CCNc1c2ccccc2[n+](C)c2cc(C)cc(OCC[N+](C)(C)C)c12 (3D coordinates assigned)
CC[NH+](CC)CCNc1c2ccccc2[n+](C)c2cc(C)cc(OCC[N+](C)(C)C)c12 (optimized conformer: 112.78408884416466 kcal/mol)

>  <smiles>  (23) 
CCN(CC)CCNc1c2ccccc2[n+](C)c2cc(C)cc(OCC[N+](C)(C)C)c12

>  <score_type>  (23) 
oracle

>  <origin>  (23) 
adg

>  <m_score__min__energy>  (23) 
-3.1499999999999999

>  <m_primary>  (23) 
energy

$$$$
23:0
     RDKit          3D

 58 61  0  0  0  0  0  0  0  0999 V2000
   63.0790   33.8160   46.9620 C   0  0  0  0  0  0  0  0  0  0  0  0
   63.7630   32.6370   47.6630 C   0  0  0  0  0  0  0  0  0  0  0  0
   63.2930   32.4350   49.0570 N   0  0  1  0  0  0  0  0  0  0  0  0
   63.8670   33.4670   49.9390 C   0  0  0  0  0  0  0  0  0  0  0  0
   61.8160   32.3490   49.2080 C   0  0  0  0  0  0  0  0  0  0  0  0
   61.1840   31.0570   48.6500 C   0  0  0  0  0  0  0  0  0  0  0  0
   61.1850   31.0700   47.1850 N   0  0  0  0  0  0  0  0  0  0  0  0
   59.9810   30.8730   46.4230 C   0  0  0  0  0  0  0  0  0  0  0  0
   59.5880   29.5730   46.0600 C   0  0  0  0  0  0  0  0  0  0  0  0
   58.4640   29.3970   45.2170 C   0  0  0  0  0  0  0  0  0  0  0  0
   57.6980   30.4800   44.8320 N   0  0  0  0  0  0  0  0  0  0  0  0
   56.4100   30.2630   44.1370 C   0  0  0  0  0  0  0  0  0  0  0  0
   58.1030   31.7640   45.1400 C   0  0  0  0  0  0  0  0  0  0  0  0
   57.4210   32.9020   44.6360 C   0  0  0  0  0  0  0  0  0  0  0  0
   57.7910   34.1910   45.0160 C   0  0  0  0  0  0  0  0  0  0  0  0
   58.8390   34.3820   45.9080 C   0  0  0  0  0  0  0  0  0  0  0  0
   59.5510   33.2870   46.3930 C   0  0  0  0  0  0  0  0  0  0  0  0
   59.2260   31.9760   45.9830 C   0  0  0  0  0  0  0  0  0  0  0  0
   58.1390   28.0080   44.7660 C   0  0  0  0  0  0  0  0  0  0  0  0
   58.0930   27.7310   43.3900 C   0  0  0  0  0  0  0  0  0  0  0  0
   57.8620   26.4280   42.9560 C   0  0  0  0  0  0  0  0  0  0  0  0
   57.7010   25.4070   43.8880 C   0  0  0  0  0  0  0  0  0  0  0  0
   57.7740   25.7030   45.2490 C   0  0  0  0  0  0  0  0  0  0  0  0
   57.9870   26.9850   45.6760 N   0  0  0  0  0  0  0  0  0  0  0  0
   58.0820   27.2570   47.1200 C   0  0  0  0  0  0  0  0  0  0  0  0
   59.5430   27.5100   47.5480 C   0  0  0  0  0  0  0  0  0  0  0  0
   60.3580   28.3530   46.5500 C   0  0  0  0  0  0  0  0  0  0  0  0
   62.6774   34.5083   47.7166 H   0  0  0  0  0  0  0  0  0  0  0  0
   63.8112   34.3436   46.3332 H   0  0  0  0  0  0  0  0  0  0  0  0
   62.2575   33.4422   46.3332 H   0  0  0  0  0  0  0  0  0  0  0  0
   63.5581   31.7216   47.0885 H   0  0  0  0  0  0  0  0  0  0  0  0
   64.8386   32.8626   47.7093 H   0  0  0  0  0  0  0  0  0  0  0  0
   63.6800   31.5180   49.3840 H   0  0  0  0  0  0  0  0  0  0  0  0
   63.7081   33.1814   50.9893 H   0  0  0  0  0  0  0  0  0  0  0  0
   64.9455   33.5583   49.7430 H   0  0  0  0  0  0  0  0  0  0  0  0
   63.3757   34.4315   49.7430 H   0  0  0  0  0  0  0  0  0  0  0  0
   61.5771   32.4118   50.2799 H   0  0  0  0  0  0  0  0  0  0  0  0
   61.3953   33.1787   48.6210 H   0  0  0  0  0  0  0  0  0  0  0  0
   61.7620   30.1905   49.0037 H   0  0  0  0  0  0  0  0  0  0  0  0
   60.1439   30.9918   49.0020 H   0  0  0  0  0  0  0  0  0  0  0  0
   62.0660   31.3160   46.6800 H   0  0  0  0  0  0  0  0  0  0  0  0
   55.6104   30.1283   44.8803 H   0  0  0  0  0  0  0  0  0  0  0  0
   56.1818   31.1354   43.5070 H   0  0  0  0  0  0  0  0  0  0  0  0
   56.4802   29.3640   43.5070 H   0  0  0  0  0  0  0  0  0  0  0  0
   56.5860   32.7644   43.9333 H   0  0  0  0  0  0  0  0  0  0  0  0
   57.2520   35.0591   44.6087 H   0  0  0  0  0  0  0  0  0  0  0  0
   59.1068   35.3986   46.2316 H   0  0  0  0  0  0  0  0  0  0  0  0
   60.3757   33.4459   47.1034 H   0  0  0  0  0  0  0  0  0  0  0  0
   58.2387   28.5394   42.6584 H   0  0  0  0  0  0  0  0  0  0  0  0
   57.8070   26.2065   41.8799 H   0  0  0  0  0  0  0  0  0  0  0  0
   57.5177   24.3751   43.5540 H   0  0  0  0  0  0  0  0  0  0  0  0
   57.6589   24.8961   45.9877 H   0  0  0  0  0  0  0  0  0  0  0  0
   57.4799   28.1464   47.3575 H   0  0  0  0  0  0  0  0  0  0  0  0
   57.7081   26.3773   47.6643 H   0  0  0  0  0  0  0  0  0  0  0  0
   59.5330   28.0347   48.5147 H   0  0  0  0  0  0  0  0  0  0  0  0
   60.0309   26.5256   47.6013 H   0  0  0  0  0  0  0  0  0  0  0  0
   61.2807   28.6918   47.0438 H   0  0  0  0  0  0  0  0  0  0  0  0
   60.5785   27.7211   45.6770 H   0  0  0  0  0  0  0  0  0  0  0  0
  1  2  1  0
  2  3  1  0
  3  4  1  0
  3  5  1  0
  5  6  1  0
  6  7  1  0
  7  8  1  0
  8  9  2  0
  9 10  1  0
 10 11  2  0
 11 12  1  0
 11 13  1  0
 13 14  2  0
 14 15  1  0
 15 16  2  0
 16 17  1  0
 17 18  2  0
 10 19  1  0
 19 20  2  0
 20 21  1  0
 21 22  2  0
 22 23  1  0
 23 24  2  0
 24 25  1  0
 25 26  1  0
 26 27  1  0
 18  8  1  0
 24 19  1  0
 27  9  1  0
 18 13  1  0
  1 28  1  0
  1 29  1  0
  1 30  1  0
  2 31  1  0
  2 32  1  0
  3 33  1  1
  4 34  1  0
  4 35  1  0
  4 36  1  0
  5 37  1  0
  5 38  1  0
  6 39  1  0
  6 40  1  0
  7 41  1  0
 12 42  1  0
 12 43  1  0
 12 44  1  0
 14 45  1  0
 15 46  1  0
 16 47  1  0
 17 48  1  0
 20 49  1  0
 21 50  1  0
 22 51  1  0
 23 52  1  0
 25 53  1  0
 25 54  1  0
 26 55  1  0
 26 56  1  0
 27 57  1  0
 27 58  1  0
M  CHG  3   3   1  11   1  24   1
M  END
>  <UniqueID>  (24) 
24

>  <SMILES>  (24) 
CC[N@@H+](C)CCNc1c2c([n+](C)c3ccccc13)-c1cccc[n+]1CCC2

>  <Energy>  (24) 
94.00562221023561

>  <Genealogy>  (24) 
CC[NH+](C)CCNc1c2c([n+](C)c3ccccc13)-c1cccc[n+]1CCC2 (protonated)
CC[N@@H+](C)CCNc1c2c([n+](C)c3ccccc13)-c1cccc[n+]1CCC2 (chirality)
CC[N@@H+](C)CCNc1c2c([n+](C)c3ccccc13)-c1cccc[n+]1CCC2 (3D coordinates assigned)
CC[N@@H+](C)CCNc1c2c([n+](C)c3ccccc13)-c1cccc[n+]1CCC2 (nonaromatic ring conformer: 94.00562221023561 kcal/mol)

>  <smiles>  (24) 
CCN(C)CCNc1c2c([n+](C)c3ccccc13)-c1cccc[n+]1CCC2

>  <score_type>  (24) 
oracle

>  <origin>  (24) 
adg

>  <m_score__min__energy>  (24) 
-2.2999999999999998

>  <m_primary>  (24) 
energy

$$$$
24:0
     RDKit          3D

 63 64  0  0  0  0  0  0  0  0999 V2000
   59.1056   28.9674   43.1371 H   0  0  0  0  0  0  0  0  0  0  0  0
   58.8800   28.5280   44.1200 C   0  0  0  0  0  0  0  0  0  0  0  0
   59.8410   28.2770   44.9580 N   0  0  0  0  0  0  0  0  0  0  0  0
   59.8770   28.5870   46.3650 C   0  0  0  0  0  0  0  0  0  0  0  0
   60.1700   27.5460   47.2590 C   0  0  0  0  0  0  0  0  0  0  0  0
   60.4250   26.2680   46.7350 O   0  0  0  0  0  0  0  0  0  0  0  0
   59.4620   25.4600   46.0680 C   0  0  0  0  0  0  0  0  0  0  0  0
   58.8415   24.9394   46.8123 H   0  0  0  0  0  0  0  0  0  0  0  0
   58.8228   26.0961   45.4381 H   0  0  0  0  0  0  0  0  0  0  0  0
   59.9774   24.7200   45.4381 H   0  0  0  0  0  0  0  0  0  0  0  0
   60.1940   27.8020   48.6410 C   0  0  0  0  0  0  0  0  0  0  0  0
   60.4264   26.9862   49.3413 H   0  0  0  0  0  0  0  0  0  0  0  0
   59.9260   29.0810   49.1350 C   0  0  0  0  0  0  0  0  0  0  0  0
   59.9270   29.2900   50.4730 N   0  0  0  0  0  0  0  0  0  0  0  0
   59.6600   30.5030   51.0110 C   0  0  0  0  0  0  0  0  0  0  0  0
   59.6726   30.6275   52.1039 H   0  0  0  0  0  0  0  0  0  0  0  0
   59.3680   31.6010   50.1930 C   0  0  0  0  0  0  0  0  0  0  0  0
   59.1170   32.8480   50.8730 C   0  0  0  0  0  0  0  0  0  0  0  0
   58.9070   33.8420   51.4300 N   0  0  0  0  0  0  0  0  0  0  0  0
   59.3580   31.4330   48.7750 C   0  0  0  0  0  0  0  0  0  0  0  0
   59.0780   32.3850   47.9200 N   0  0  0  0  0  0  0  0  0  0  0  0
   59.9070   33.1320   46.9750 C   0  0  0  0  0  0  0  0  0  0  0  0
   60.7029   32.4733   46.5973 H   0  0  0  0  0  0  0  0  0  0  0  0
   59.2678   33.4801   46.1502 H   0  0  0  0  0  0  0  0  0  0  0  0
   60.5490   34.3620   47.6480 C   0  0  0  0  0  0  0  0  0  0  0  0
   61.4687   34.6186   47.1018 H   0  0  0  0  0  0  0  0  0  0  0  0
   59.8082   35.1746   47.6166 H   0  0  0  0  0  0  0  0  0  0  0  0
   60.8930   34.1380   49.0660 N   0  0  0  0  0  0  0  0  0  0  0  0
   60.1890   34.6320   49.6620 H   0  0  0  0  0  0  0  0  0  0  0  0
   60.8030   33.1170   49.2810 H   0  0  0  0  0  0  0  0  0  0  0  0
   62.2490   34.5760   49.4580 C   0  0  0  0  0  0  0  0  0  0  0  0
   62.5377   35.4228   48.8180 H   0  0  0  0  0  0  0  0  0  0  0  0
   62.2008   34.8477   50.5228 H   0  0  0  0  0  0  0  0  0  0  0  0
   63.3250   33.4780   49.3250 C   0  0  0  0  0  0  0  0  0  0  0  0
   64.0785   33.8052   48.5934 H   0  0  0  0  0  0  0  0  0  0  0  0
   63.7764   33.3211   50.3158 H   0  0  0  0  0  0  0  0  0  0  0  0
   62.7480   32.1920   48.8750 N   0  0  0  0  0  0  0  0  0  0  0  0
   62.9930   31.1470   49.8830 C   0  0  0  0  0  0  0  0  0  0  0  0
   62.8920   31.5780   50.8900 H   0  0  0  0  0  0  0  0  0  0  0  0
   62.2606   30.3362   49.7560 H   0  0  0  0  0  0  0  0  0  0  0  0
   64.0095   30.7462   49.7560 H   0  0  0  0  0  0  0  0  0  0  0  0
   63.3250   31.7760   47.5850 C   0  0  0  0  0  0  0  0  0  0  0  0
   64.2053   31.1413   47.7647 H   0  0  0  0  0  0  0  0  0  0  0  0
   62.5750   31.2095   47.0135 H   0  0  0  0  0  0  0  0  0  0  0  0
   63.6255   32.6666   47.0135 H   0  0  0  0  0  0  0  0  0  0  0  0
   59.6460   30.1440   48.2500 C   0  0  0  0  0  0  0  0  0  0  0  0
   59.6320   29.8840   46.8620 C   0  0  0  0  0  0  0  0  0  0  0  0
   59.4271   30.7045   46.1586 H   0  0  0  0  0  0  0  0  0  0  0  0
   57.4640   28.2170   44.4970 C   0  0  0  0  0  0  0  0  0  0  0  0
   56.8669   28.1031   43.5802 H   0  0  0  0  0  0  0  0  0  0  0  0
   57.4600   27.2876   45.0853 H   0  0  0  0  0  0  0  0  0  0  0  0
   56.8520   29.3320   45.3550 C   0  0  0  0  0  0  0  0  0  0  0  0
   55.9827   28.9322   45.8976 H   0  0  0  0  0  0  0  0  0  0  0  0
   57.6159   29.6901   46.0609 H   0  0  0  0  0  0  0  0  0  0  0  0
   56.4160   30.4710   44.5140 N   0  0  0  0  0  0  0  0  0  0  0  0
   57.3860   31.5770   44.5760 C   0  0  0  0  0  0  0  0  0  0  0  0
   57.5988   31.8196   45.6276 H   0  0  0  0  0  0  0  0  0  0  0  0
   58.3172   31.2766   44.0734 H   0  0  0  0  0  0  0  0  0  0  0  0
   56.9667   32.4610   44.0734 H   0  0  0  0  0  0  0  0  0  0  0  0
   56.2470   30.0420   43.1160 C   0  0  0  0  0  0  0  0  0  0  0  0
   55.8439   29.0188   43.0926 H   0  0  0  0  0  0  0  0  0  0  0  0
   55.5498   30.7225   42.6054 H   0  0  0  0  0  0  0  0  0  0  0  0
   57.2210   30.0641   42.6054 H   0  0  0  0  0  0  0  0  0  0  0  0
  1  2  1  0
  2  3  2  0
  3  4  1  0
  4  5  2  0
  5  6  1  0
  6  7  1  0
  7  8  1  0
  7  9  1  0
  7 10  1  0
  5 11  1  0
 11 12  1  0
 11 13  2  0
 13 14  1  0
 14 15  1  0
 15 16  1  0
 15 17  2  0
 17 18  1  0
 18 19  3  0
 17 20  1  0
 20 21  2  0
 21 22  1  0
 22 23  1  0
 22 24  1  0
 22 25  1  0
 25 26  1  0
 25 27  1  0
 25 28  1  0
 28 29  1  0
 28 30  1  0
 28 31  1  0
 31 32  1  0
 31 33  1  0
 31 34  1  0
 34 35  1  0
 34 36  1  0
 34 37  1  0
 37 38  1  0
 38 39  1  0
 38 40  1  0
 38 41  1  0
 37 42  1  0
 42 43  1  0
 42 44  1  0
 42 45  1  0
 20 46  1  0
 46 47  2  0
 47 48  1  0
  2 49  1  0
 49 50  1  0
 49 51  1  0
 49 52  1  0
 52 53  1  0
 52 54  1  0
 52 55  1  0
 55 56  1  0
 56 57  1  0
 56 58  1  0
 56 59  1  0
 55 60  1  0
 60 61  1  0
 60 62  1  0
 60 63  1  0
 47  4  1  0
 46 13  1  0
M  CHG  2  14  -1  28   1
M  END
>  <UniqueID>  (25) 
25

>  <SMILES>  (25) 
COc1cc2[n-]cc(C#N)/c(=N\CC[NH2+]CCN(C)C)c2cc1/N=C/CCN(C)C

>  <Energy>  (25) 
73.78999410205914

>  <Genealogy>  (25) 
COc1cc2[n-]cc(C#N)c(=NCC[NH2+]CCN(C)C)c2cc1N=CCCN(C)C (protonated)
COc1cc2[n-]cc(C#N)/c(=N\CC[NH2+]CCN(C)C)c2cc1/N=C/CCN(C)C (cis-trans isomerization)
COc1cc2[n-]cc(C#N)/c(=N\CC[NH2+]CCN(C)C)c2cc1/N=C/CCN(C)C (3D coordinates assigned)
COc1cc2[n-]cc(C#N)/c(=N\CC[NH2+]CCN(C)C)c2cc1/N=C/CCN(C)C (optimized conformer: 73.78999410205914 kcal/mol)

>  <smiles>  (25) 
COc1cc2[nH]cc(C#N)c(=NCCNCCN(C)C)c2cc1N=CCCN(C)C

>  <score_type>  (25) 
oracle

>  <origin>  (25) 
adg

>  <m_score__min__energy>  (25) 
-4.9800000000000004

>  <m_primary>  (25) 
energy

$$$$
25:0
     RDKit          3D

 51 53  0  0  0  0  0  0  0  0999 V2000
   57.2500   31.4210   51.9530 C   0  0  0  0  0  0  0  0  0  0  0  0
   58.3870   31.2950   50.9230 C   0  0  0  0  0  0  0  0  0  0  0  0
   59.7700   31.3220   51.4850 N   0  0  0  0  0  0  0  0  0  0  0  0
   60.5010   32.5850   51.2120 C   0  0  0  0  0  0  0  0  0  0  0  0
   59.6110   33.6900   50.6260 C   0  0  0  0  0  0  0  0  0  0  0  0
   60.5420   30.0740   51.2130 C   0  0  0  0  0  0  0  0  0  0  0  0
   59.8350   28.9910   50.3680 C   0  0  0  0  0  0  0  0  0  0  0  0
   60.5890   28.6190   49.1670 N   0  0  0  0  0  0  0  0  0  0  0  0
   60.1060   28.7740   47.8110 C   0  0  0  0  0  0  0  0  0  0  0  0
   60.0280   27.6620   46.9620 C   0  0  0  0  0  0  0  0  0  0  0  0
   59.6090   27.8110   45.6520 C   0  0  0  0  0  0  0  0  0  0  0  0
   59.1880   29.0550   45.2020 C   0  0  0  0  0  0  0  0  0  0  0  0
   59.1330   30.1410   46.0410 N   0  0  0  0  0  0  0  0  0  0  0  0
   59.7000   30.0420   47.3040 C   0  0  0  0  0  0  0  0  0  0  0  0
   59.9340   31.2140   48.0430 C   0  0  0  0  0  0  0  0  0  0  0  0
   59.6560   32.4540   47.4930 C   0  0  0  0  0  0  0  0  0  0  0  0
   59.0270   32.5540   46.2480 C   0  0  0  0  0  0  0  0  0  0  0  0
   58.7340   33.8170   45.6770 C   0  0  0  0  0  0  0  0  0  0  0  0
   59.2560   35.0380   46.2270 N   0  0  0  0  0  0  0  0  0  0  0  0
   59.1340   35.2780   47.4460 O   0  0  0  0  0  0  0  0  0  0  0  0
   59.6730   36.0480   45.3900 O   0  0  0  0  0  0  0  0  0  0  0  0
   57.9410   33.8780   44.5270 C   0  0  0  0  0  0  0  0  0  0  0  0
   57.4030   32.7220   43.9760 C   0  0  0  0  0  0  0  0  0  0  0  0
   57.6880   31.4640   44.5200 C   0  0  0  0  0  0  0  0  0  0  0  0
   56.8720   30.3580   44.1020 N   0  0  0  0  0  0  0  0  0  0  0  0
   55.9920   29.9060   44.8650 O   0  0  0  0  0  0  0  0  0  0  0  0
   56.8940   29.9400   42.7910 O   0  0  0  0  0  0  0  0  0  0  0  0
   58.6260   31.3560   45.5960 C   0  0  0  0  0  0  0  0  0  0  0  0
   57.6689   31.3746   52.9691 H   0  0  0  0  0  0  0  0  0  0  0  0
   56.7332   32.3819   51.8130 H   0  0  0  0  0  0  0  0  0  0  0  0
   56.5354   30.5965   51.8130 H   0  0  0  0  0  0  0  0  0  0  0  0
   58.2567   30.3420   50.3894 H   0  0  0  0  0  0  0  0  0  0  0  0
   58.3071   32.1806   50.2755 H   0  0  0  0  0  0  0  0  0  0  0  0
   59.6260   31.3090   52.5250 H   0  0  0  0  0  0  0  0  0  0  0  0
   60.9328   32.9490   52.1560 H   0  0  0  0  0  0  0  0  0  0  0  0
   61.2729   32.3578   50.4620 H   0  0  0  0  0  0  0  0  0  0  0  0
   59.1501   34.2623   51.4446 H   0  0  0  0  0  0  0  0  0  0  0  0
   60.2221   34.3632   50.0068 H   0  0  0  0  0  0  0  0  0  0  0  0
   58.8231   33.2364   50.0068 H   0  0  0  0  0  0  0  0  0  0  0  0
   61.4632   30.3604   50.6845 H   0  0  0  0  0  0  0  0  0  0  0  0
   60.7023   29.6127   52.1986 H   0  0  0  0  0  0  0  0  0  0  0  0
   59.7008   28.0935   50.9897 H   0  0  0  0  0  0  0  0  0  0  0  0
   58.8728   29.4084   50.0364 H   0  0  0  0  0  0  0  0  0  0  0  0
   61.5820   28.3390   49.3230 H   0  0  0  0  0  0  0  0  0  0  0  0
   60.3013   26.6655   47.3391 H   0  0  0  0  0  0  0  0  0  0  0  0
   59.6094   26.9478   44.9701 H   0  0  0  0  0  0  0  0  0  0  0  0
   58.8917   29.1736   44.1493 H   0  0  0  0  0  0  0  0  0  0  0  0
   60.3399   31.1461   49.0631 H   0  0  0  0  0  0  0  0  0  0  0  0
   59.9321   33.3677   48.0397 H   0  0  0  0  0  0  0  0  0  0  0  0
   57.7413   34.8509   44.0541 H   0  0  0  0  0  0  0  0  0  0  0  0
   56.7431   32.7961   43.0990 H   0  0  0  0  0  0  0  0  0  0  0  0
  1  2  1  0
  2  3  1  0
  3  4  1  0
  4  5  1  0
  3  6  1  0
  6  7  1  0
  7  8  1  0
  8  9  1  0
  9 10  2  0
 10 11  1  0
 11 12  2  0
 12 13  1  0
 13 14  2  0
 14 15  1  0
 15 16  2  0
 16 17  1  0
 17 18  2  0
 18 19  1  0
 19 20  2  0
 19 21  1  0
 18 22  1  0
 22 23  2  0
 23 24  1  0
 24 25  1  0
 25 26  2  0
 25 27  1  0
 24 28  2  0
 14  9  1  0
 28 17  1  0
 28 13  1  0
  1 29  1  0
  1 30  1  0
  1 31  1  0
  2 32  1  0
  2 33  1  0
  3 34  1  0
  4 35  1  0
  4 36  1  0
  5 37  1  0
  5 38  1  0
  5 39  1  0
  6 40  1  0
  6 41  1  0
  7 42  1  0
  7 43  1  0
  8 44  1  0
 10 45  1  0
 11 46  1  0
 12 47  1  0
 15 48  1  0
 16 49  1  0
 22 50  1  0
 23 51  1  0
M  CHG  6   3   1  13   1  19   1  21  -1  25   1  27  -1
M  END
>  <UniqueID>  (26) 
26

>  <SMILES>  (26) 
CC[NH+](CC)CCNc1ccc[n+]2c1ccc1c([N+](=O)[O-])ccc([N+](=O)[O-])c12

>  <Energy>  (26) 
98.75891366007976

>  <Genealogy>  (26) 
CC[NH+](CC)CCNc1ccc[n+]2c1ccc1c([N+](=O)[O-])ccc([N+](=O)[O-])c12 (protonated)
CC[NH+](CC)CCNc1ccc[n+]2c1ccc1c([N+](=O)[O-])ccc([N+](=O)[O-])c12 (3D coordinates assigned)
CC[NH+](CC)CCNc1ccc[n+]2c1ccc1c([N+](=O)[O-])ccc([N+](=O)[O-])c12 (optimized conformer: 98.75891366007976 kcal/mol)

>  <smiles>  (26) 
CCN(CC)CCNc1ccc[n+]2c1ccc1c([N+](=O)[O-])ccc([N+](=O)[O-])c12

>  <score_type>  (26) 
oracle

>  <origin>  (26) 
adg

>  <m_score__min__energy>  (26) 
-4.9699999999999998

>  <m_primary>  (26) 
energy

$$$$
26:0
     RDKit          3D

 39 38  0  0  0  0  0  0  0  0999 V2000
   59.3260   34.2000   46.5940 C   0  0  0  0  0  0  0  0  0  0  0  0
   58.5540   33.2780   47.5300 C   0  0  0  0  0  0  0  0  0  0  0  0
   58.5910   31.9020   47.0200 N   0  0  0  0  0  0  0  0  0  0  0  0
   59.2630   30.9890   47.9620 C   0  0  0  0  0  0  0  0  0  0  0  0
   60.5020   30.3720   47.3060 C   0  0  0  0  0  0  0  0  0  0  0  0
   60.1350   29.4480   46.1350 C   0  0  0  0  0  0  0  0  0  0  0  0
   58.9190   29.9240   45.4550 N   0  0  0  0  0  0  0  0  0  0  0  0
   58.5180   29.0410   44.3380 C   0  0  0  0  0  0  0  0  0  0  0  0
   56.9870   29.0170   44.1150 C   0  0  2  0  0  0  0  0  0  0  0  0
   56.4730   30.4400   43.8570 C   0  0  0  0  0  0  0  0  0  0  0  0
   56.9170   31.3070   44.8870 O   0  0  0  0  0  0  0  0  0  0  0  0
   57.3880   32.5220   44.3470 C   0  0  0  0  0  0  0  0  0  0  0  0
   56.3500   28.5080   45.2760 O   0  0  0  0  0  0  0  0  0  0  0  0
   57.0220   27.3650   45.7590 C   0  0  0  0  0  0  0  0  0  0  0  0
   59.9207   34.9103   47.1872 H   0  0  0  0  0  0  0  0  0  0  0  0
   59.9959   33.6011   45.9596 H   0  0  0  0  0  0  0  0  0  0  0  0
   58.6187   34.7542   45.9596 H   0  0  0  0  0  0  0  0  0  0  0  0
   59.0107   33.3085   48.5302 H   0  0  0  0  0  0  0  0  0  0  0  0
   57.5083   33.6144   47.5878 H   0  0  0  0  0  0  0  0  0  0  0  0
   57.6040   31.5790   46.8900 H   0  0  0  0  0  0  0  0  0  0  0  0
   59.5673   31.5503   48.8578 H   0  0  0  0  0  0  0  0  0  0  0  0
   58.5665   30.1849   48.2419 H   0  0  0  0  0  0  0  0  0  0  0  0
   61.1454   31.1816   46.9310 H   0  0  0  0  0  0  0  0  0  0  0  0
   61.0221   29.7683   48.0643 H   0  0  0  0  0  0  0  0  0  0  0  0
   60.9669   29.4298   45.4155 H   0  0  0  0  0  0  0  0  0  0  0  0
   59.9468   28.4381   46.5282 H   0  0  0  0  0  0  0  0  0  0  0  0
   58.1390   29.9370   46.1540 H   0  0  0  0  0  0  0  0  0  0  0  0
   59.0580   30.9050   45.1150 H   0  0  0  0  0  0  0  0  0  0  0  0
   59.0022   29.3972   43.4167 H   0  0  0  0  0  0  0  0  0  0  0  0
   58.8323   28.0184   44.5939 H   0  0  0  0  0  0  0  0  0  0  0  0
   56.7625   28.3792   43.2473 H   0  0  0  0  0  0  0  0  0  0  0  0
   56.8563   30.7965   42.8895 H   0  0  0  0  0  0  0  0  0  0  0  0
   55.3732   30.4306   43.8403 H   0  0  0  0  0  0  0  0  0  0  0  0
   57.6539   33.2080   45.1647 H   0  0  0  0  0  0  0  0  0  0  0  0
   58.2761   32.3281   43.7276 H   0  0  0  0  0  0  0  0  0  0  0  0
   56.6013   32.9774   43.7276 H   0  0  0  0  0  0  0  0  0  0  0  0
   57.0167   27.3740   46.8589 H   0  0  0  0  0  0  0  0  0  0  0  0
   56.5123   26.4598   45.3973 H   0  0  0  0  0  0  0  0  0  0  0  0
   58.0608   27.3702   45.3973 H   0  0  0  0  0  0  0  0  0  0  0  0
  1  2  1  0
  2  3  1  0
  3  4  1  0
  4  5  1  0
  5  6  1  0
  6  7  1  0
  7  8  1  0
  8  9  1  0
  9 10  1  0
 10 11  1  0
 11 12  1  0
  9 13  1  0
 13 14  1  0
  1 15  1  0
  1 16  1  0
  1 17  1  0
  2 18  1  0
  2 19  1  0
  3 20  1  0
  4 21  1  0
  4 22  1  0
  5 23  1  0
  5 24  1  0
  6 25  1  0
  6 26  1  0
  7 27  1  0
  7 28  1  0
  8 29  1  0
  8 30  1  0
  9 31  1  6
 10 32  1  0
 10 33  1  0
 12 34  1  0
 12 35  1  0
 12 36  1  0
 14 37  1  0
 14 38  1  0
 14 39  1  0
M  CHG  1   7   1
M  END
>  <UniqueID>  (27) 
27

>  <SMILES>  (27) 
CCNCCC[NH2+]C[C@H](COC)OC

>  <Energy>  (27) 
30.048728527306988

>  <Genealogy>  (27) 
CCNCCC[NH2+]CC(COC)OC (protonated)
CCNCCC[NH2+]C[C@H](COC)OC (chirality)
CCNCCC[NH2+]C[C@H](COC)OC (3D coordinates assigned)
CCNCCC[NH2+]C[C@H](COC)OC (optimized conformer: 30.048728527306988 kcal/mol)

>  <smiles>  (27) 
CCNCCCNCC(COC)OC

>  <score_type>  (27) 
oracle

>  <origin>  (27) 
adg

>  <m_score__min__energy>  (27) 
-2.0299999999999998

>  <m_primary>  (27) 
energy

$$$$
27:0
     RDKit          3D

 41 43  0  0  0  0  0  0  0  0999 V2000
   54.2420   24.9030   45.6430 C   0  0  0  0  0  0  0  0  0  0  0  0
   54.7880   26.1700   45.9960 O   0  0  0  0  0  0  0  0  0  0  0  0
   56.1600   26.4550   46.0520 C   0  0  0  0  0  0  0  0  0  0  0  0
   57.0210   25.4730   46.5540 C   0  0  0  0  0  0  0  0  0  0  0  0
   58.3940   25.7080   46.6350 C   0  0  0  0  0  0  0  0  0  0  0  0
   58.9230   26.9280   46.2100 C   0  0  0  0  0  0  0  0  0  0  0  0
   58.0800   27.9280   45.6900 C   0  0  0  0  0  0  0  0  0  0  0  0
   58.6450   29.2660   45.2430 C   0  0  2  0  0  0  0  0  0  0  0  0
   59.7280   29.7780   46.2200 C   0  0  0  0  0  0  0  0  0  0  0  0
   59.2280   30.9120   47.1370 C   0  0  0  0  0  0  0  0  0  0  0  0
   59.0950   32.3060   46.5380 C   0  0  0  0  0  0  0  0  0  0  0  0
   59.5620   33.3820   47.3170 C   0  0  0  0  0  0  0  0  0  0  0  0
   59.4210   34.7000   46.8780 C   0  0  0  0  0  0  0  0  0  0  0  0
   58.8000   34.9690   45.6610 C   0  0  0  0  0  0  0  0  0  0  0  0
   58.3190   33.9210   44.8770 C   0  0  0  0  0  0  0  0  0  0  0  0
   58.4600   32.5880   45.3010 C   0  0  0  0  0  0  0  0  0  0  0  0
   57.9660   31.5390   44.4580 N   0  0  0  0  0  0  0  0  0  0  0  0
   58.1280   31.6340   43.0070 C   0  0  0  0  0  0  0  0  0  0  0  0
   57.4940   30.2860   45.0570 C   0  0  0  0  0  0  0  0  0  0  0  0
   56.6950   27.6860   45.6230 C   0  0  0  0  0  0  0  0  0  0  0  0
   53.9997   24.3407   46.5568 H   0  0  0  0  0  0  0  0  0  0  0  0
   53.3275   25.0503   45.0498 H   0  0  0  0  0  0  0  0  0  0  0  0
   54.9771   24.3394   45.0498 H   0  0  0  0  0  0  0  0  0  0  0  0
   56.6122   24.5078   46.8875 H   0  0  0  0  0  0  0  0  0  0  0  0
   59.0612   24.9301   47.0347 H   0  0  0  0  0  0  0  0  0  0  0  0
   60.0056   27.1089   46.2820 H   0  0  0  0  0  0  0  0  0  0  0  0
   59.1441   29.1344   44.2716 H   0  0  0  0  0  0  0  0  0  0  0  0
   60.0569   28.9380   46.8495 H   0  0  0  0  0  0  0  0  0  0  0  0
   60.5506   30.1851   45.6137 H   0  0  0  0  0  0  0  0  0  0  0  0
   58.2351   30.6190   47.5088 H   0  0  0  0  0  0  0  0  0  0  0  0
   60.0116   31.0140   47.9022 H   0  0  0  0  0  0  0  0  0  0  0  0
   60.0446   33.1815   48.2849 H   0  0  0  0  0  0  0  0  0  0  0  0
   59.8013   35.5276   47.4948 H   0  0  0  0  0  0  0  0  0  0  0  0
   58.6889   36.0083   45.3181 H   0  0  0  0  0  0  0  0  0  0  0  0
   57.8250   34.1391   43.9186 H   0  0  0  0  0  0  0  0  0  0  0  0
   59.0558   32.1781   42.7765 H   0  0  0  0  0  0  0  0  0  0  0  0
   58.1793   30.6229   42.5768 H   0  0  0  0  0  0  0  0  0  0  0  0
   57.2707   32.1724   42.5768 H   0  0  0  0  0  0  0  0  0  0  0  0
   57.0514   30.5060   46.0397 H   0  0  0  0  0  0  0  0  0  0  0  0
   56.7509   29.8420   44.3783 H   0  0  0  0  0  0  0  0  0  0  0  0
   56.0240   28.4651   45.2321 H   0  0  0  0  0  0  0  0  0  0  0  0
  1  2  1  0
  2  3  1  0
  3  4  2  0
  4  5  1  0
  5  6  2  0
  6  7  1  0
  7  8  1  0
  8  9  1  0
  9 10  1  0
 10 11  1  0
 11 12  2  0
 12 13  1  0
 13 14  2  0
 14 15  1  0
 15 16  2  0
 16 17  1  0
 17 18  1  0
 17 19  1  0
  7 20  2  0
 20  3  1  0
 19  8  1  0
 16 11  1  0
  1 21  1  0
  1 22  1  0
  1 23  1  0
  4 24  1  0
  5 25  1  0
  6 26  1  0
  8 27  1  6
  9 28  1  0
  9 29  1  0
 10 30  1  0
 10 31  1  0
 12 32  1  0
 13 33  1  0
 14 34  1  0
 15 35  1  0
 18 36  1  0
 18 37  1  0
 18 38  1  0
 19 39  1  0
 19 40  1  0
 20 41  1  0
M  END
>  <UniqueID>  (28) 
28

>  <SMILES>  (28) 
COc1cccc([C@@H]2CCc3ccccc3N(C)C2)c1

>  <Energy>  (28) 
54.793185773249014

>  <Genealogy>  (28) 
COc1cccc([C@@H]2CCc3ccccc3N(C)C2)c1 (chirality)
COc1cccc([C@@H]2CCc3ccccc3N(C)C2)c1 (3D coordinates assigned)
COc1cccc([C@@H]2CCc3ccccc3N(C)C2)c1 (nonaromatic ring conformer: 54.793185773249014 kcal/mol)

>  <smiles>  (28) 
COc1cccc(C2CCc3ccccc3N(C)C2)c1

>  <score_type>  (28) 
oracle

>  <origin>  (28) 
adg

>  <m_score__min__energy>  (28) 
-5.9500000000000002

>  <m_primary>  (28) 
energy

$$$$
