0:0
     RDKit          3D

 29 30  0  0  0  0  0  0  0  0999 V2000
   57.0380   32.3130   44.4740 F   0  0  0  0  0  0  0  0  0  0  0  0
   57.4530   31.0230   44.4870 C   0  0  0  0  0  0  0  0  0  0  0  0
   56.9480   30.1160   43.5500 C   0  0  0  0  0  0  0  0  0  0  0  0
   57.3750   28.7840   43.5610 C   0  0  0  0  0  0  0  0  0  0  0  0
   58.3130   28.3490   44.5130 C   0  0  0  0  0  0  0  0  0  0  0  0
   58.7620   26.9080   44.5340 C   0  0  0  0  0  0  0  0  0  0  0  0
   57.7880   26.0090   43.8910 N   0  0  0  0  0  0  0  0  0  0  0  0
   57.2320   25.0120   44.8180 C   0  0  0  0  0  0  0  0  0  0  0  0
   57.2120   23.6460   44.1860 C   0  0  0  0  0  0  0  0  0  0  0  0
   56.2630   23.3230   43.2080 C   0  0  0  0  0  0  0  0  0  0  0  0
   56.2650   22.0910   42.6390 N   0  0  0  0  0  0  0  0  0  0  0  0
   57.1800   21.1540   43.0020 C   0  0  0  0  0  0  0  0  0  0  0  0
   58.1120   21.4430   43.9490 N   0  0  0  0  0  0  0  0  0  0  0  0
   58.1450   22.6650   44.5440 C   0  0  0  0  0  0  0  0  0  0  0  0
   58.8180   29.2670   45.4500 C   0  0  0  0  0  0  0  0  0  0  0  0
   58.3890   30.5980   45.4350 C   0  0  0  0  0  0  0  0  0  0  0  0
   56.2134   30.4507   42.8027 H   0  0  0  0  0  0  0  0  0  0  0  0
   56.9751   28.0743   42.8218 H   0  0  0  0  0  0  0  0  0  0  0  0
   59.7214   26.8287   44.0018 H   0  0  0  0  0  0  0  0  0  0  0  0
   58.8593   26.6014   45.5859 H   0  0  0  0  0  0  0  0  0  0  0  0
   57.0010   26.5760   43.4990 H   0  0  0  0  0  0  0  0  0  0  0  0
   57.8512   24.9798   45.7266 H   0  0  0  0  0  0  0  0  0  0  0  0
   56.2001   25.2999   45.0674 H   0  0  0  0  0  0  0  0  0  0  0  0
   55.5151   24.0688   42.9007 H   0  0  0  0  0  0  0  0  0  0  0  0
   57.1666   20.1608   42.5293 H   0  0  0  0  0  0  0  0  0  0  0  0
   58.8120   20.7180   44.2210 H   0  0  0  0  0  0  0  0  0  0  0  0
   58.9058   22.8835   45.3078 H   0  0  0  0  0  0  0  0  0  0  0  0
   59.5537   28.9371   46.1982 H   0  0  0  0  0  0  0  0  0  0  0  0
   58.7886   31.3119   46.1703 H   0  0  0  0  0  0  0  0  0  0  0  0
  1  2  1  0
  2  3  2  0
  3  4  1  0
  4  5  2  0
  5  6  1  0
  6  7  1  0
  7  8  1  0
  8  9  1  0
  9 10  2  0
 10 11  1  0
 11 12  2  0
 12 13  1  0
 13 14  2  0
  5 15  1  0
 15 16  2  0
 16  2  1  0
 14  9  1  0
  3 17  1  0
  4 18  1  0
  6 19  1  0
  6 20  1  0
  7 21  1  0
  8 22  1  0
  8 23  1  0
 10 24  1  0
 12 25  1  0
 13 26  1  0
 14 27  1  0
 15 28  1  0
 16 29  1  0
M  CHG  1  13   1
M  END
>  <UniqueID>  (1) 
1

>  <SMILES>  (1) 
Fc1ccc(CNCc2cnc[nH+]c2)cc1

>  <Energy>  (1) 
29.6316220515734

>  <Genealogy>  (1) 
Fc1ccc(CNCc2cnc[nH+]c2)cc1 (protonated)
Fc1ccc(CNCc2cnc[nH+]c2)cc1 (3D coordinates assigned)
Fc1ccc(CNCc2cnc[nH+]c2)cc1 (optimized conformer: 29.6316220515734 kcal/mol)

>  <smiles>  (1) 
Fc1ccc(CNCc2cncnc2)cc1

>  <score_type>  (1) 
oracle

>  <origin>  (1) 
adg

>  <m_score__min__energy>  (1) 
-4.6200000000000001

>  <m_primary>  (1) 
energy

$$$$
1:0
     RDKit          3D

 52 53  0  0  0  0  0  0  0  0999 V2000
   59.9240   32.5070   49.8920 C   0  0  0  0  0  0  0  0  0  0  0  0
   59.7460   33.9250   49.3210 C   0  0  0  0  0  0  0  0  0  0  0  0
   60.8080   34.3880   48.3830 N   0  0  0  0  0  0  0  0  0  0  0  0
   62.0510   33.5720   48.4430 C   0  0  0  0  0  0  0  0  0  0  0  0
   63.0350   33.8010   47.2930 C   0  0  0  0  0  0  0  0  0  0  0  0
   60.3630   34.6450   46.9870 C   0  0  0  0  0  0  0  0  0  0  0  0
   59.5000   33.5270   46.4380 C   0  0  0  0  0  0  0  0  0  0  0  0
   58.2390   33.8110   45.8860 C   0  0  0  0  0  0  0  0  0  0  0  0
   57.4480   32.7850   45.3620 C   0  0  0  0  0  0  0  0  0  0  0  0
   57.9130   31.4610   45.3560 C   0  0  0  0  0  0  0  0  0  0  0  0
   57.0630   30.3790   44.8140 C   0  0  0  0  0  0  0  0  0  0  0  0
   55.8780   30.6430   44.4740 O   0  0  0  0  0  0  0  0  0  0  0  0
   57.5590   29.0310   44.6690 N   0  0  0  0  0  0  0  0  0  0  0  0
   57.4260   28.3230   43.3890 C   0  0  0  0  0  0  0  0  0  0  0  0
   58.3590   27.1060   43.3280 C   0  0  0  0  0  0  0  0  0  0  0  0
   57.7440   25.8080   43.8820 C   0  0  0  0  0  0  0  0  0  0  0  0
   57.7490   25.7900   45.3690 N   0  0  0  0  0  0  0  0  0  0  0  0
   57.1370   24.5460   45.8650 C   0  0  0  0  0  0  0  0  0  0  0  0
   57.0280   26.9590   45.9300 C   0  0  0  0  0  0  0  0  0  0  0  0
   57.8750   28.2380   45.8610 C   0  0  0  0  0  0  0  0  0  0  0  0
   59.1750   31.1770   45.9010 C   0  0  0  0  0  0  0  0  0  0  0  0
   59.9670   32.2030   46.4230 C   0  0  0  0  0  0  0  0  0  0  0  0
   59.9185   32.5510   50.9911 H   0  0  0  0  0  0  0  0  0  0  0  0
   59.0992   31.8664   49.5465 H   0  0  0  0  0  0  0  0  0  0  0  0
   60.8815   32.0901   49.5465 H   0  0  0  0  0  0  0  0  0  0  0  0
   58.7863   33.9540   48.7841 H   0  0  0  0  0  0  0  0  0  0  0  0
   59.7974   34.6025   50.1861 H   0  0  0  0  0  0  0  0  0  0  0  0
   61.1170   35.3140   48.7670 H   0  0  0  0  0  0  0  0  0  0  0  0
   62.5676   33.8070   49.3853 H   0  0  0  0  0  0  0  0  0  0  0  0
   61.7317   32.5220   48.3681 H   0  0  0  0  0  0  0  0  0  0  0  0
   64.0296   34.0325   47.7020 H   0  0  0  0  0  0  0  0  0  0  0  0
   63.0949   32.8928   46.6753 H   0  0  0  0  0  0  0  0  0  0  0  0
   62.6877   34.6423   46.6753 H   0  0  0  0  0  0  0  0  0  0  0  0
   59.7835   35.5798   46.9679 H   0  0  0  0  0  0  0  0  0  0  0  0
   61.2620   34.7135   46.3569 H   0  0  0  0  0  0  0  0  0  0  0  0
   57.8722   34.8479   45.8663 H   0  0  0  0  0  0  0  0  0  0  0  0
   56.4542   33.0168   44.9515 H   0  0  0  0  0  0  0  0  0  0  0  0
   56.3860   27.9839   43.2730 H   0  0  0  0  0  0  0  0  0  0  0  0
   57.7016   29.0139   42.5787 H   0  0  0  0  0  0  0  0  0  0  0  0
   58.6345   26.9354   42.2768 H   0  0  0  0  0  0  0  0  0  0  0  0
   59.2251   27.3408   43.9642 H   0  0  0  0  0  0  0  0  0  0  0  0
   56.7059   25.7254   43.5277 H   0  0  0  0  0  0  0  0  0  0  0  0
   58.3496   24.9615   43.5260 H   0  0  0  0  0  0  0  0  0  0  0  0
   57.1388   24.5497   46.9650 H   0  0  0  0  0  0  0  0  0  0  0  0
   56.1016   24.4760   45.5003 H   0  0  0  0  0  0  0  0  0  0  0  0
   57.7134   23.6830   45.5003 H   0  0  0  0  0  0  0  0  0  0  0  0
   56.1015   27.1142   45.3577 H   0  0  0  0  0  0  0  0  0  0  0  0
   56.8091   26.7504   46.9876 H   0  0  0  0  0  0  0  0  0  0  0  0
   57.6777   28.8455   46.7565 H   0  0  0  0  0  0  0  0  0  0  0  0
   58.9345   27.9467   45.8095 H   0  0  0  0  0  0  0  0  0  0  0  0
   59.5427   30.1404   45.9173 H   0  0  0  0  0  0  0  0  0  0  0  0
   60.9643   31.9716   46.8254 H   0  0  0  0  0  0  0  0  0  0  0  0
  1  2  1  0
  2  3  1  0
  3  4  1  0
  4  5  1  0
  3  6  1  0
  6  7  1  0
  7  8  2  0
  8  9  1  0
  9 10  2  0
 10 11  1  0
 11 12  2  0
 11 13  1  0
 13 14  1  0
 14 15  1  0
 15 16  1  0
 16 17  1  0
 17 18  1  0
 17 19  1  0
 19 20  1  0
 10 21  1  0
 21 22  2  0
 22  7  1  0
 20 13  1  0
  1 23  1  0
  1 24  1  0
  1 25  1  0
  2 26  1  0
  2 27  1  0
  3 28  1  0
  4 29  1  0
  4 30  1  0
  5 31  1  0
  5 32  1  0
  5 33  1  0
  6 34  1  0
  6 35  1  0
  8 36  1  0
  9 37  1  0
 14 38  1  0
 14 39  1  0
 15 40  1  0
 15 41  1  0
 16 42  1  0
 16 43  1  0
 18 44  1  0
 18 45  1  0
 18 46  1  0
 19 47  1  0
 19 48  1  0
 20 49  1  0
 20 50  1  0
 21 51  1  0
 22 52  1  0
M  CHG  1   3   1
M  END
>  <UniqueID>  (2) 
2

>  <SMILES>  (2) 
CC[NH+](CC)Cc1ccc(C(=O)N2CCCN(C)CC2)cc1

>  <Energy>  (2) 
67.80312548433716

>  <Genealogy>  (2) 
CC[NH+](CC)Cc1ccc(C(=O)N2CCCN(C)CC2)cc1 (protonated)
CC[NH+](CC)Cc1ccc(C(=O)N2CCCN(C)CC2)cc1 (3D coordinates assigned)
CC[NH+](CC)Cc1ccc(C(=O)N2CCCN(C)CC2)cc1 (nonaromatic ring conformer: 67.80312548433716 kcal/mol)

>  <smiles>  (2) 
CCN(CC)Cc1ccc(C(=O)N2CCCN(C)CC2)cc1

>  <score_type>  (2) 
oracle

>  <origin>  (2) 
adg

>  <m_score__min__energy>  (2) 
-4.2300000000000004

>  <m_primary>  (2) 
energy

$$$$
2:0
     RDKit          3D

 36 36  0  0  0  0  0  0  0  0999 V2000
   56.2720   29.5210   42.4490 C   0  0  0  0  0  0  0  0  0  0  0  0
   56.5000   29.8510   43.8880 C   0  0  0  0  0  0  0  0  0  0  0  0
   55.5580   30.3440   44.5670 O   0  0  0  0  0  0  0  0  0  0  0  0
   57.7960   29.6550   44.4770 N   0  0  0  0  0  0  0  0  0  0  0  0
   58.0990   30.0720   45.8520 C   0  0  1  0  0  0  0  0  0  0  0  0
   59.1970   29.1840   46.4710 C   0  0  0  0  0  0  0  0  0  0  0  0
   59.7510   28.2400   45.4690 N   0  0  0  0  0  0  0  0  0  0  0  0
   60.0220   26.9210   46.0640 C   0  0  0  0  0  0  0  0  0  0  0  0
   60.9830   28.7700   44.8580 C   0  0  0  0  0  0  0  0  0  0  0  0
   58.4750   31.5410   45.9040 C   0  0  0  0  0  0  0  0  0  0  0  0
   59.6490   31.9370   46.5670 C   0  0  0  0  0  0  0  0  0  0  0  0
   60.0260   33.2840   46.5980 C   0  0  0  0  0  0  0  0  0  0  0  0
   59.2470   34.2530   45.9480 C   0  0  0  0  0  0  0  0  0  0  0  0
   59.6460   35.6990   46.0130 C   0  0  0  0  0  0  0  0  0  0  0  0
   58.0800   33.8610   45.2750 C   0  0  0  0  0  0  0  0  0  0  0  0
   57.6980   32.5170   45.2500 C   0  0  0  0  0  0  0  0  0  0  0  0
   55.6482   28.6181   42.3743 H   0  0  0  0  0  0  0  0  0  0  0  0
   55.7610   30.3615   41.9566 H   0  0  0  0  0  0  0  0  0  0  0  0
   57.2389   29.3404   41.9566 H   0  0  0  0  0  0  0  0  0  0  0  0
   58.5700   29.3000   43.8680 H   0  0  0  0  0  0  0  0  0  0  0  0
   57.1892   29.9413   46.4564 H   0  0  0  0  0  0  0  0  0  0  0  0
   60.0079   29.8253   46.8467 H   0  0  0  0  0  0  0  0  0  0  0  0
   58.7526   28.6008   47.2910 H   0  0  0  0  0  0  0  0  0  0  0  0
   60.0051   27.0031   47.1608 H   0  0  0  0  0  0  0  0  0  0  0  0
   59.2519   26.2064   45.7379 H   0  0  0  0  0  0  0  0  0  0  0  0
   61.0114   26.5679   45.7379 H   0  0  0  0  0  0  0  0  0  0  0  0
   61.6845   29.0718   45.6498 H   0  0  0  0  0  0  0  0  0  0  0  0
   61.4470   27.9919   44.2341 H   0  0  0  0  0  0  0  0  0  0  0  0
   60.7371   29.6419   44.2341 H   0  0  0  0  0  0  0  0  0  0  0  0
   60.2759   31.1827   47.0651 H   0  0  0  0  0  0  0  0  0  0  0  0
   60.9378   33.5848   47.1347 H   0  0  0  0  0  0  0  0  0  0  0  0
   59.7315   36.0088   47.0650 H   0  0  0  0  0  0  0  0  0  0  0  0
   60.6152   35.8349   45.5108 H   0  0  0  0  0  0  0  0  0  0  0  0
   58.8836   36.3127   45.5108 H   0  0  0  0  0  0  0  0  0  0  0  0
   57.4629   34.6151   44.7647 H   0  0  0  0  0  0  0  0  0  0  0  0
   56.7838   32.2191   44.7157 H   0  0  0  0  0  0  0  0  0  0  0  0
  1  2  1  0
  2  3  2  0
  2  4  1  0
  4  5  1  0
  5  6  1  0
  6  7  1  0
  7  8  1  0
  7  9  1  0
  5 10  1  0
 10 11  2  0
 11 12  1  0
 12 13  2  0
 13 14  1  0
 13 15  1  0
 15 16  2  0
 16 10  1  0
  1 17  1  0
  1 18  1  0
  1 19  1  0
  4 20  1  0
  5 21  1  1
  6 22  1  0
  6 23  1  0
  8 24  1  0
  8 25  1  0
  8 26  1  0
  9 27  1  0
  9 28  1  0
  9 29  1  0
 11 30  1  0
 12 31  1  0
 14 32  1  0
 14 33  1  0
 14 34  1  0
 15 35  1  0
 16 36  1  0
M  END
>  <UniqueID>  (3) 
3

>  <SMILES>  (3) 
CC(=O)N[C@@H](CN(C)C)c1ccc(C)cc1

>  <Energy>  (3) 
30.641149442641545

>  <Genealogy>  (3) 
CC(=O)N[C@@H](CN(C)C)c1ccc(C)cc1 (chirality)
CC(=O)N[C@@H](CN(C)C)c1ccc(C)cc1 (3D coordinates assigned)
CC(=O)N[C@@H](CN(C)C)c1ccc(C)cc1 (optimized conformer: 30.641149442641545 kcal/mol)

>  <smiles>  (3) 
CC(=O)NC(CN(C)C)c1ccc(C)cc1

>  <score_type>  (3) 
oracle

>  <origin>  (3) 
adg

>  <m_score__min__energy>  (3) 
-5.8200000000000003

>  <m_primary>  (3) 
energy

$$$$
3:0
     RDKit          3D

 43 45  0  0  0  0  0  0  0  0999 V2000
   57.0530   21.0960   42.9850 C   0  0  0  0  0  0  0  0  0  0  0  0
   55.9190   21.8590   43.3840 O   0  0  0  0  0  0  0  0  0  0  0  0
   55.9880   23.0950   44.0450 C   0  0  0  0  0  0  0  0  0  0  0  0
   54.9780   23.5420   44.9170 C   0  0  0  0  0  0  0  0  0  0  0  0
   55.0940   24.7800   45.5540 C   0  0  0  0  0  0  0  0  0  0  0  0
   56.2220   25.5840   45.3460 C   0  0  0  0  0  0  0  0  0  0  0  0
   56.2900   26.8540   46.0100 N   0  0  0  0  0  0  0  0  0  0  0  0
   57.4620   27.6480   46.2340 C   0  0  0  0  0  0  0  0  0  0  0  0
   57.9110   27.8260   47.3980 O   0  0  0  0  0  0  0  0  0  0  0  0
   58.0990   28.3580   45.0830 C   0  0  0  0  0  0  0  0  0  0  0  0
   58.1980   29.7880   45.3670 N   0  0  0  0  0  0  0  0  0  0  0  0
   58.8620   30.2750   46.4130 N   0  0  0  0  0  0  0  0  0  0  0  0
   58.6410   31.6020   46.4270 C   0  0  0  0  0  0  0  0  0  0  0  0
   59.1290   32.5350   47.3390 C   0  0  0  0  0  0  0  0  0  0  0  0
   58.7520   33.8810   47.1640 C   0  0  0  0  0  0  0  0  0  0  0  0
   57.9070   34.2560   46.0950 C   0  0  0  0  0  0  0  0  0  0  0  0
   57.4270   33.2910   45.1910 C   0  0  0  0  0  0  0  0  0  0  0  0
   57.8170   31.9690   45.3940 C   0  0  0  0  0  0  0  0  0  0  0  0
   57.5510   30.7950   44.7270 C   0  0  0  0  0  0  0  0  0  0  0  0
   56.6650   30.6310   43.6090 N   0  0  0  0  0  0  0  0  0  0  0  0
   55.4910   29.7690   43.7200 C   0  0  0  0  0  0  0  0  0  0  0  0
   57.0170   31.1850   42.3030 C   0  0  0  0  0  0  0  0  0  0  0  0
   57.2200   25.1480   44.4570 C   0  0  0  0  0  0  0  0  0  0  0  0
   57.1020   23.9100   43.8200 C   0  0  0  0  0  0  0  0  0  0  0  0
   57.5861   20.7373   43.8778 H   0  0  0  0  0  0  0  0  0  0  0  0
   56.7231   20.2355   42.3845 H   0  0  0  0  0  0  0  0  0  0  0  0
   57.7258   21.7258   42.3845 H   0  0  0  0  0  0  0  0  0  0  0  0
   54.0933   22.9139   45.0979 H   0  0  0  0  0  0  0  0  0  0  0  0
   54.2933   25.1261   46.2241 H   0  0  0  0  0  0  0  0  0  0  0  0
   59.1067   27.9496   44.9164 H   0  0  0  0  0  0  0  0  0  0  0  0
   57.4822   28.2116   44.1840 H   0  0  0  0  0  0  0  0  0  0  0  0
   59.7861   32.2312   48.1672 H   0  0  0  0  0  0  0  0  0  0  0  0
   59.1180   34.6459   47.8647 H   0  0  0  0  0  0  0  0  0  0  0  0
   57.6224   35.3110   45.9688 H   0  0  0  0  0  0  0  0  0  0  0  0
   56.7684   33.5697   44.3552 H   0  0  0  0  0  0  0  0  0  0  0  0
   55.2598   29.5993   44.7820 H   0  0  0  0  0  0  0  0  0  0  0  0
   54.6330   30.2533   43.2308 H   0  0  0  0  0  0  0  0  0  0  0  0
   55.6961   28.8053   43.2308 H   0  0  0  0  0  0  0  0  0  0  0  0
   57.6022   32.1061   42.4411 H   0  0  0  0  0  0  0  0  0  0  0  0
   57.6149   30.4513   41.7425 H   0  0  0  0  0  0  0  0  0  0  0  0
   56.0988   31.4146   41.7425 H   0  0  0  0  0  0  0  0  0  0  0  0
   58.0965   25.7835   44.2623 H   0  0  0  0  0  0  0  0  0  0  0  0
   57.8935   23.5729   43.1345 H   0  0  0  0  0  0  0  0  0  0  0  0
  1  2  1  0
  2  3  1  0
  3  4  2  0
  4  5  1  0
  5  6  2  0
  6  7  1  0
  7  8  1  0
  8  9  2  0
  8 10  1  0
 10 11  1  0
 11 12  1  0
 12 13  2  0
 13 14  1  0
 14 15  2  0
 15 16  1  0
 16 17  2  0
 17 18  1  0
 18 19  2  0
 19 20  1  0
 20 21  1  0
 20 22  1  0
  6 23  1  0
 23 24  2  0
 24  3  1  0
 19 11  1  0
 18 13  1  0
  1 25  1  0
  1 26  1  0
  1 27  1  0
  4 28  1  0
  5 29  1  0
 10 30  1  0
 10 31  1  0
 14 32  1  0
 15 33  1  0
 16 34  1  0
 17 35  1  0
 21 36  1  0
 21 37  1  0
 21 38  1  0
 22 39  1  0
 22 40  1  0
 22 41  1  0
 23 42  1  0
 24 43  1  0
M  CHG  1   7  -1
M  END
>  <UniqueID>  (4) 
4

>  <SMILES>  (4) 
COc1ccc([N-]C(=O)Cn2nc3ccccc3c2N(C)C)cc1

>  <Energy>  (4) 
87.4145461264464

>  <Genealogy>  (4) 
COc1ccc([N-]C(=O)Cn2nc3ccccc3c2N(C)C)cc1 (protonated)
COc1ccc([N-]C(=O)Cn2nc3ccccc3c2N(C)C)cc1 (3D coordinates assigned)
COc1ccc([N-]C(=O)Cn2nc3ccccc3c2N(C)C)cc1 (optimized conformer: 87.4145461264464 kcal/mol)

>  <smiles>  (4) 
COc1ccc(NC(=O)Cn2nc3ccccc3c2N(C)C)cc1

>  <score_type>  (4) 
oracle

>  <origin>  (4) 
adg

>  <m_score__min__energy>  (4) 
-9.8399999999999999

>  <m_primary>  (4) 
energy

$$$$
4:0
     RDKit          3D

 31 33  0  0  0  0  0  0  0  0999 V2000
   57.7490   24.8530   45.7810 C   0  0  0  0  0  0  0  0  0  0  0  0
   57.9730   25.3170   44.4830 C   0  0  0  0  0  0  0  0  0  0  0  0
   57.7710   26.6670   44.1770 C   0  0  0  0  0  0  0  0  0  0  0  0
   57.3410   27.5670   45.1690 C   0  0  0  0  0  0  0  0  0  0  0  0
   57.1320   28.9910   44.8250 C   0  0  0  0  0  0  0  0  0  0  0  0
   58.0820   29.9060   44.4090 C   0  0  0  0  0  0  0  0  0  0  0  0
   57.3580   31.0650   44.2310 C   0  0  0  0  0  0  0  0  0  0  0  0
   57.8910   32.3620   43.7100 C   0  0  0  0  0  0  0  0  0  0  0  0
   58.3610   33.1940   44.8240 N   0  0  0  0  0  0  0  0  0  0  0  0
   57.9180   32.9410   46.0940 C   0  0  0  0  0  0  0  0  0  0  0  0
   58.3310   33.7430   47.1610 C   0  0  0  0  0  0  0  0  0  0  0  0
   59.1920   34.8110   46.9220 C   0  0  0  0  0  0  0  0  0  0  0  0
   59.6280   35.0710   45.6240 C   0  0  0  0  0  0  0  0  0  0  0  0
   59.1960   34.2500   44.5790 C   0  0  0  0  0  0  0  0  0  0  0  0
   56.0600   30.8410   44.5050 N   0  0  0  0  0  0  0  0  0  0  0  0
   55.9630   29.5930   44.8640 O   0  0  0  0  0  0  0  0  0  0  0  0
   57.1180   27.0870   46.4740 C   0  0  0  0  0  0  0  0  0  0  0  0
   57.3230   25.7370   46.7750 C   0  0  0  0  0  0  0  0  0  0  0  0
   57.9081   23.7913   46.0206 H   0  0  0  0  0  0  0  0  0  0  0  0
   58.3085   24.6204   43.7006 H   0  0  0  0  0  0  0  0  0  0  0  0
   57.9497   27.0274   43.1532 H   0  0  0  0  0  0  0  0  0  0  0  0
   59.1596   29.7465   44.2564 H   0  0  0  0  0  0  0  0  0  0  0  0
   58.7284   32.1631   43.0250 H   0  0  0  0  0  0  0  0  0  0  0  0
   57.0901   32.8932   43.1748 H   0  0  0  0  0  0  0  0  0  0  0  0
   57.2321   32.1005   46.2760 H   0  0  0  0  0  0  0  0  0  0  0  0
   57.9788   33.5324   48.1816 H   0  0  0  0  0  0  0  0  0  0  0  0
   59.5268   35.4471   47.7546 H   0  0  0  0  0  0  0  0  0  0  0  0
   60.3055   35.9142   45.4241 H   0  0  0  0  0  0  0  0  0  0  0  0
   59.5299   34.4543   43.5510 H   0  0  0  0  0  0  0  0  0  0  0  0
   56.7807   27.7778   47.2608 H   0  0  0  0  0  0  0  0  0  0  0  0
   57.1483   25.3702   47.7972 H   0  0  0  0  0  0  0  0  0  0  0  0
  1  2  2  0
  2  3  1  0
  3  4  2  0
  4  5  1  0
  5  6  2  0
  6  7  1  0
  7  8  1  0
  8  9  1  0
  9 10  2  0
 10 11  1  0
 11 12  2  0
 12 13  1  0
 13 14  2  0
  7 15  2  0
 15 16  1  0
  4 17  1  0
 17 18  2  0
 18  1  1  0
 16  5  1  0
 14  9  1  0
  1 19  1  0
  2 20  1  0
  3 21  1  0
  6 22  1  0
  8 23  1  0
  8 24  1  0
 10 25  1  0
 11 26  1  0
 12 27  1  0
 13 28  1  0
 14 29  1  0
 17 30  1  0
 18 31  1  0
M  CHG  1   9   1
M  END
>  <UniqueID>  (5) 
5

>  <SMILES>  (5) 
c1ccc(-c2cc(C[n+]3ccccc3)no2)cc1

>  <Energy>  (5) 
64.03069113465921

>  <Genealogy>  (5) 
c1ccc(-c2cc(C[n+]3ccccc3)no2)cc1 (3D coordinates assigned)
c1ccc(-c2cc(C[n+]3ccccc3)no2)cc1 (optimized conformer: 64.03069113465921 kcal/mol)

>  <smiles>  (5) 
c1ccc(-c2cc(C[n+]3ccccc3)no2)cc1

>  <score_type>  (5) 
oracle

>  <origin>  (5) 
adg

>  <m_score__min__energy>  (5) 
-6.1600000000000001

>  <m_primary>  (5) 
energy

$$$$
5:0
     RDKit          3D

 44 47  0  0  0  0  0  0  0  0999 V2000
   56.8590   31.5800   51.8520 C   0  0  0  0  0  0  0  0  0  0  0  0
   58.0410   31.8400   50.9040 C   0  0  1  0  0  0  0  0  0  0  0  0
   59.1670   32.5800   51.6330 C   0  0  0  0  0  0  0  0  0  0  0  0
   60.2500   33.0350   50.6570 C   0  0  0  0  0  0  0  0  0  0  0  0
   60.7120   31.9400   49.6500 C   0  0  2  0  0  0  0  0  0  0  0  0
   61.4970   32.5790   48.5190 C   0  0  0  0  0  0  0  0  0  0  0  0
   62.9020   32.4720   48.5030 C   0  0  0  0  0  0  0  0  0  0  0  0
   63.6530   33.0970   47.5070 C   0  0  0  0  0  0  0  0  0  0  0  0
   63.0170   33.8420   46.5150 C   0  0  0  0  0  0  0  0  0  0  0  0
   61.6270   33.9640   46.5170 C   0  0  0  0  0  0  0  0  0  0  0  0
   60.8570   33.3520   47.5220 C   0  0  0  0  0  0  0  0  0  0  0  0
   59.3550   33.4210   47.4390 C   0  0  0  0  0  0  0  0  0  0  0  0
   58.8350   32.0970   46.9690 C   0  0  0  0  0  0  0  0  0  0  0  0
   58.2270   31.9850   45.6900 C   0  0  0  0  0  0  0  0  0  0  0  0
   57.9900   33.4700   44.4920 Br  0  0  0  0  0  0  0  0  0  0  0  0
   57.7800   30.7460   45.2300 C   0  0  0  0  0  0  0  0  0  0  0  0
   57.9360   29.6090   46.0090 C   0  0  0  0  0  0  0  0  0  0  0  0
   58.5440   29.6970   47.2570 C   0  0  0  0  0  0  0  0  0  0  0  0
   59.0070   30.9300   47.7710 C   0  0  0  0  0  0  0  0  0  0  0  0
   59.6520   30.8710   49.1750 C   0  0  2  0  0  0  0  0  0  0  0  0
   58.5870   30.5410   50.2680 C   0  0  1  0  0  0  0  0  0  0  0  0
   59.1660   29.6520   51.2880 N   0  0  0  0  0  0  0  0  0  0  0  0
   57.2017   31.6554   52.8945 H   0  0  0  0  0  0  0  0  0  0  0  0
   56.0718   32.3265   51.6699 H   0  0  0  0  0  0  0  0  0  0  0  0
   56.4577   30.5721   51.6699 H   0  0  0  0  0  0  0  0  0  0  0  0
   57.6584   32.4706   50.0879 H   0  0  0  0  0  0  0  0  0  0  0  0
   58.7477   33.4614   52.1403 H   0  0  0  0  0  0  0  0  0  0  0  0
   59.6210   31.8928   52.3621 H   0  0  0  0  0  0  0  0  0  0  0  0
   59.8587   33.8874   50.0823 H   0  0  0  0  0  0  0  0  0  0  0  0
   61.1301   33.2938   51.2640 H   0  0  0  0  0  0  0  0  0  0  0  0
   61.3732   31.2848   50.2361 H   0  0  0  0  0  0  0  0  0  0  0  0
   63.4122   31.8894   49.2842 H   0  0  0  0  0  0  0  0  0  0  0  0
   64.7489   33.0018   47.5045 H   0  0  0  0  0  0  0  0  0  0  0  0
   63.6111   34.3337   45.7306 H   0  0  0  0  0  0  0  0  0  0  0  0
   61.1293   34.5438   45.7257 H   0  0  0  0  0  0  0  0  0  0  0  0
   58.9402   33.6496   48.4318 H   0  0  0  0  0  0  0  0  0  0  0  0
   59.0560   34.2109   46.7343 H   0  0  0  0  0  0  0  0  0  0  0  0
   57.3006   30.6703   44.2429 H   0  0  0  0  0  0  0  0  0  0  0  0
   57.5785   28.6366   45.6394 H   0  0  0  0  0  0  0  0  0  0  0  0
   58.6676   28.7846   47.8589 H   0  0  0  0  0  0  0  0  0  0  0  0
   60.3569   30.0405   49.0219 H   0  0  0  0  0  0  0  0  0  0  0  0
   57.7427   30.0179   49.7953 H   0  0  0  0  0  0  0  0  0  0  0  0
   60.2010   29.6130   51.1550 H   0  0  0  0  0  0  0  0  0  0  0  0
   59.0400   30.0920   52.2270 H   0  0  0  0  0  0  0  0  0  0  0  0
  1  2  1  0
  2  3  1  0
  3  4  1  0
  4  5  1  0
  5  6  1  0
  6  7  2  0
  7  8  1  0
  8  9  2  0
  9 10  1  0
 10 11  2  0
 11 12  1  0
 12 13  1  0
 13 14  2  0
 14 15  1  0
 14 16  1  0
 16 17  2  0
 17 18  1  0
 18 19  2  0
 19 20  1  0
 20 21  1  0
 21 22  1  0
 21  2  1  0
 20  5  1  0
 11  6  1  0
 19 13  1  0
  1 23  1  0
  1 24  1  0
  1 25  1  0
  2 26  1  6
  3 27  1  0
  3 28  1  0
  4 29  1  0
  4 30  1  0
  5 31  1  1
  7 32  1  0
  8 33  1  0
  9 34  1  0
 10 35  1  0
 12 36  1  0
 12 37  1  0
 16 38  1  0
 17 39  1  0
 18 40  1  0
 20 41  1  6
 21 42  1  6
 22 43  1  0
 22 44  1  0
M  END
>  <UniqueID>  (6) 
6

>  <SMILES>  (6) 
C[C@H]1CC[C@@H]2c3ccccc3Cc3c(Br)cccc3C2C1N

>  <Energy>  (6) 
72.75017571323117

>  <Genealogy>  (6) 
C[C@H]1CC[C@@H]2c3ccccc3Cc3c(Br)cccc3C2C1N (chirality)
C[C@H]1CC[C@@H]2c3ccccc3Cc3c(Br)cccc3C2C1N (3D coordinates assigned)
C[C@H]1CC[C@@H]2c3ccccc3Cc3c(Br)cccc3C2C1N (nonaromatic ring conformer: 72.75017571323117 kcal/mol)

>  <smiles>  (6) 
CC1CCC2c3ccccc3Cc3c(Br)cccc3C2C1N

>  <score_type>  (6) 
oracle

>  <origin>  (6) 
adg

>  <m_score__min__energy>  (6) 
-7.8300000000000001

>  <m_primary>  (6) 
energy

$$$$
6:0
     RDKit          3D

 44 47  0  0  0  0  0  0  0  0999 V2000
   63.2140   32.7150   47.4280 C   0  0  0  0  0  0  0  0  0  0  0  0
   62.1530   31.8060   47.1600 O   0  0  0  0  0  0  0  0  0  0  0  0
   60.7870   32.1210   47.2490 C   0  0  0  0  0  0  0  0  0  0  0  0
   60.1900   33.0580   46.3820 C   0  0  0  0  0  0  0  0  0  0  0  0
   58.8150   33.3300   46.4580 C   0  0  0  0  0  0  0  0  0  0  0  0
   58.1900   34.3140   45.5050 C   0  0  0  0  0  0  0  0  0  0  0  0
   57.4620   33.6100   44.4410 N   0  0  0  0  0  0  0  0  0  0  0  0
   58.2560   32.5000   43.8990 C   0  0  0  0  0  0  0  0  0  0  0  0
   57.5880   31.2000   44.2170 C   0  0  0  0  0  0  0  0  0  0  0  0
   56.2700   31.0750   44.4960 N   0  0  0  0  0  0  0  0  0  0  0  0
   56.0840   29.8460   44.9700 N   0  0  0  0  0  0  0  0  0  0  0  0
   57.2900   29.2490   44.9270 C   0  0  0  0  0  0  0  0  0  0  0  0
   58.2270   30.0480   44.4710 N   0  0  0  0  0  0  0  0  0  0  0  0
   59.5520   29.6980   44.9230 C   0  0  0  0  0  0  0  0  0  0  0  0
   59.3320   28.3510   45.6580 C   0  0  0  0  0  0  0  0  0  0  0  0
   57.7980   28.1280   45.7380 C   0  0  0  0  0  0  0  0  0  0  0  0
   58.0310   32.6560   47.4010 C   0  0  0  0  0  0  0  0  0  0  0  0
   58.6140   31.7330   48.2690 C   0  0  0  0  0  0  0  0  0  0  0  0
   59.9920   31.4640   48.2130 C   0  0  0  0  0  0  0  0  0  0  0  0
   60.5690   30.5150   49.1300 N   0  0  0  0  0  0  0  0  0  0  0  0
   60.2370   29.2210   49.2870 C   0  0  0  0  0  0  0  0  0  0  0  0
   61.0710   28.6800   50.2390 C   0  0  0  0  0  0  0  0  0  0  0  0
   61.9280   29.6240   50.6780 N   0  0  0  0  0  0  0  0  0  0  0  0
   61.5970   30.7280   49.9770 C   0  0  0  0  0  0  0  0  0  0  0  0
   63.3391   32.8222   48.5156 H   0  0  0  0  0  0  0  0  0  0  0  0
   64.1460   32.3308   46.9878 H   0  0  0  0  0  0  0  0  0  0  0  0
   62.9773   33.6949   46.9878 H   0  0  0  0  0  0  0  0  0  0  0  0
   60.8080   33.5817   45.6379 H   0  0  0  0  0  0  0  0  0  0  0  0
   57.4899   34.9579   46.0574 H   0  0  0  0  0  0  0  0  0  0  0  0
   58.9857   34.9215   45.0491 H   0  0  0  0  0  0  0  0  0  0  0  0
   56.5970   33.2040   44.8690 H   0  0  0  0  0  0  0  0  0  0  0  0
   58.3412   32.6100   42.8078 H   0  0  0  0  0  0  0  0  0  0  0  0
   59.2587   32.5145   44.3511 H   0  0  0  0  0  0  0  0  0  0  0  0
   60.2392   29.5757   44.0728 H   0  0  0  0  0  0  0  0  0  0  0  0
   60.0070   30.4688   45.5625 H   0  0  0  0  0  0  0  0  0  0  0  0
   59.8048   27.5318   45.0965 H   0  0  0  0  0  0  0  0  0  0  0  0
   59.7803   28.3720   46.6623 H   0  0  0  0  0  0  0  0  0  0  0  0
   57.5108   27.1581   45.3058 H   0  0  0  0  0  0  0  0  0  0  0  0
   57.4032   28.1048   46.7645 H   0  0  0  0  0  0  0  0  0  0  0  0
   56.9506   32.8549   47.4579 H   0  0  0  0  0  0  0  0  0  0  0  0
   57.9876   31.2094   49.0062 H   0  0  0  0  0  0  0  0  0  0  0  0
   59.4389   28.6885   48.7489 H   0  0  0  0  0  0  0  0  0  0  0  0
   61.0427   27.6373   50.5882 H   0  0  0  0  0  0  0  0  0  0  0  0
   62.1091   31.6956   50.0843 H   0  0  0  0  0  0  0  0  0  0  0  0
  1  2  1  0
  2  3  1  0
  3  4  2  0
  4  5  1  0
  5  6  1  0
  6  7  1  0
  7  8  1  0
  8  9  1  0
  9 10  2  0
 10 11  1  0
 11 12  2  0
 12 13  1  0
 13 14  1  0
 14 15  1  0
 15 16  1  0
  5 17  2  0
 17 18  1  0
 18 19  2  0
 19 20  1  0
 20 21  1  0
 21 22  2  0
 22 23  1  0
 23 24  2  0
 19  3  1  0
 24 20  1  0
 13  9  1  0
 16 12  1  0
  1 25  1  0
  1 26  1  0
  1 27  1  0
  4 28  1  0
  6 29  1  0
  6 30  1  0
  7 31  1  0
  8 32  1  0
  8 33  1  0
 14 34  1  0
 14 35  1  0
 15 36  1  0
 15 37  1  0
 16 38  1  0
 16 39  1  0
 17 40  1  0
 18 41  1  0
 21 42  1  0
 22 43  1  0
 24 44  1  0
M  END
>  <UniqueID>  (7) 
7

>  <SMILES>  (7) 
COc1cc(CNCc2nnc3n2CCC3)ccc1-n1ccnc1

>  <Energy>  (7) 
134.73672608140092

>  <Genealogy>  (7) 
COc1cc(CNCc2nnc3n2CCC3)ccc1-n1ccnc1 (3D coordinates assigned)
COc1cc(CNCc2nnc3n2CCC3)ccc1-n1ccnc1 (nonaromatic ring conformer: 134.73672608140092 kcal/mol)

>  <smiles>  (7) 
COc1cc(CNCc2nnc3n2CCC3)ccc1-n1ccnc1

>  <score_type>  (7) 
oracle

>  <origin>  (7) 
adg

>  <m_score__min__energy>  (7) 
-7.1699999999999999

>  <m_primary>  (7) 
energy

$$$$
7:0
     RDKit          3D

 36 38  0  0  0  0  0  0  0  0999 V2000
   60.0118   29.5810   46.8127 H   0  0  0  0  0  0  0  0  0  0  0  0
   59.1600   28.9050   46.6470 C   0  0  0  0  0  0  0  0  0  0  0  0
   59.1720   27.6520   47.1680 N   0  0  0  0  0  0  0  0  0  0  0  0
   58.1300   26.8000   46.9940 C   0  0  0  0  0  0  0  0  0  0  0  0
   58.1673   25.7850   47.4164 H   0  0  0  0  0  0  0  0  0  0  0  0
   57.0000   27.2260   46.2680 C   0  0  0  0  0  0  0  0  0  0  0  0
   55.9660   26.4620   46.0520 N   0  0  0  0  0  0  0  0  0  0  0  0
   55.9470   25.1740   45.4170 C   0  0  0  0  0  0  0  0  0  0  0  0
   54.8740   24.2860   45.6000 C   0  0  0  0  0  0  0  0  0  0  0  0
   54.0494   24.5559   46.2762 H   0  0  0  0  0  0  0  0  0  0  0  0
   54.8490   23.0610   44.9270 C   0  0  0  0  0  0  0  0  0  0  0  0
   54.0149   22.3627   45.0906 H   0  0  0  0  0  0  0  0  0  0  0  0
   55.8870   22.7180   44.0410 C   0  0  0  0  0  0  0  0  0  0  0  0
   55.9110   21.5000   43.3450 O   0  0  0  0  0  0  0  0  0  0  0  0
   56.2680   20.2490   43.9240 C   0  0  0  0  0  0  0  0  0  0  0  0
   56.2442   20.3324   45.0206 H   0  0  0  0  0  0  0  0  0  0  0  0
   55.5541   19.4777   43.5993 H   0  0  0  0  0  0  0  0  0  0  0  0
   57.2815   19.9706   43.5993 H   0  0  0  0  0  0  0  0  0  0  0  0
   56.9360   23.6220   43.8360 C   0  0  0  0  0  0  0  0  0  0  0  0
   57.7480   23.3665   43.1393 H   0  0  0  0  0  0  0  0  0  0  0  0
   56.9600   24.8460   44.5090 C   0  0  0  0  0  0  0  0  0  0  0  0
   57.7797   25.5559   44.3241 H   0  0  0  0  0  0  0  0  0  0  0  0
   57.0090   28.4760   45.7340 N   0  0  0  0  0  0  0  0  0  0  0  0
   58.0540   29.3340   45.8950 C   0  0  0  0  0  0  0  0  0  0  0  0
   57.9860   30.6910   45.2930 C   0  0  0  0  0  0  0  0  0  0  0  0
   58.0930   31.8510   46.0860 C   0  0  0  0  0  0  0  0  0  0  0  0
   58.2230   31.7586   47.1744 H   0  0  0  0  0  0  0  0  0  0  0  0
   58.0350   33.1180   45.4990 C   0  0  0  0  0  0  0  0  0  0  0  0
   58.1143   34.0171   46.1277 H   0  0  0  0  0  0  0  0  0  0  0  0
   57.8770   33.2470   44.1190 C   0  0  0  0  0  0  0  0  0  0  0  0
   57.8278   34.2465   43.6624 H   0  0  0  0  0  0  0  0  0  0  0  0
   57.7810   32.1050   43.3150 C   0  0  0  0  0  0  0  0  0  0  0  0
   57.6230   32.2370   41.8910 C   0  0  0  0  0  0  0  0  0  0  0  0
   57.4950   32.3420   40.7450 N   0  0  0  0  0  0  0  0  0  0  0  0
   57.8400   30.8330   43.9000 C   0  0  0  0  0  0  0  0  0  0  0  0
   57.7716   29.9374   43.2650 H   0  0  0  0  0  0  0  0  0  0  0  0
  1  2  1  0
  2  3  1  0
  3  4  2  0
  4  5  1  0
  4  6  1  0
  6  7  2  0
  7  8  1  0
  8  9  2  0
  9 10  1  0
  9 11  1  0
 11 12  1  0
 11 13  2  0
 13 14  1  0
 14 15  1  0
 15 16  1  0
 15 17  1  0
 15 18  1  0
 13 19  1  0
 19 20  1  0
 19 21  2  0
 21 22  1  0
  6 23  1  0
 23 24  1  0
 24 25  1  0
 25 26  2  0
 26 27  1  0
 26 28  1  0
 28 29  1  0
 28 30  2  0
 30 31  1  0
 30 32  1  0
 32 33  1  0
 33 34  3  0
 32 35  2  0
 35 36  1  0
 24  2  2  0
 35 25  1  0
 21  8  1  0
M  CHG  1  23  -1
M  END
>  <UniqueID>  (8) 
8

>  <SMILES>  (8) 
COc1ccc(/N=c2\cncc(-c3cccc(C#N)c3)[n-]2)cc1

>  <Energy>  (8) 
52.736080442572984

>  <Genealogy>  (8) 
COc1ccc(N=c2cncc(-c3cccc(C#N)c3)[n-]2)cc1 (protonated)
COc1ccc(/N=c2\cncc(-c3cccc(C#N)c3)[n-]2)cc1 (cis-trans isomerization)
COc1ccc(/N=c2\cncc(-c3cccc(C#N)c3)[n-]2)cc1 (3D coordinates assigned)
COc1ccc(/N=c2\cncc(-c3cccc(C#N)c3)[n-]2)cc1 (optimized conformer: 52.736080442572984 kcal/mol)

>  <smiles>  (8) 
COc1ccc(N=c2cncc(-c3cccc(C#N)c3)[nH]2)cc1

>  <score_type>  (8) 
oracle

>  <origin>  (8) 
adg

>  <m_score__min__energy>  (8) 
-9.5500000000000007

>  <m_primary>  (8) 
energy

$$$$
8:0
     RDKit          3D

 51 53  0  0  0  0  0  0  0  0999 V2000
   55.5640   30.0510   43.7570 C   0  0  0  0  0  0  0  0  0  0  0  0
   56.9810   30.3080   44.0400 N   0  0  0  0  0  0  0  0  0  0  0  0
   57.5890   31.5530   43.5520 C   0  0  0  0  0  0  0  0  0  0  0  0
   57.7690   29.3500   44.7940 C   0  0  0  0  0  0  0  0  0  0  0  0
   58.1700   28.1280   44.2150 C   0  0  0  0  0  0  0  0  0  0  0  0
   58.9290   27.2080   44.9410 C   0  0  0  0  0  0  0  0  0  0  0  0
   59.3030   27.4880   46.2550 C   0  0  0  0  0  0  0  0  0  0  0  0
   58.9220   28.6960   46.8550 C   0  0  0  0  0  0  0  0  0  0  0  0
   59.3290   29.0090   48.2800 C   0  0  0  0  0  0  0  0  0  0  0  0
   60.7430   29.4470   48.3750 N   0  0  0  0  0  0  0  0  0  0  0  0
   61.0360   30.1020   49.6830 C   0  0  0  0  0  0  0  0  0  0  0  0
   61.0430   31.6330   49.5810 C   0  0  0  0  0  0  0  0  0  0  0  0
   62.0880   32.0980   48.6460 N   0  0  0  0  0  0  0  0  0  0  0  0
   61.7590   33.7360   48.1320 S   0  0  0  0  0  0  0  0  0  0  0  0
   62.8780   34.2120   47.2480 O   0  0  0  0  0  0  0  0  0  0  0  0
   61.7040   34.6370   49.3350 O   0  0  0  0  0  0  0  0  0  0  0  0
   60.2340   33.8480   47.2500 C   0  0  0  0  0  0  0  0  0  0  0  0
   59.0580   33.3190   47.8020 C   0  0  0  0  0  0  0  0  0  0  0  0
   57.8460   33.4290   47.1140 C   0  0  0  0  0  0  0  0  0  0  0  0
   57.8020   34.0640   45.8690 C   0  0  0  0  0  0  0  0  0  0  0  0
   56.6260   34.1710   45.2030 F   0  0  0  0  0  0  0  0  0  0  0  0
   58.9720   34.5860   45.3100 C   0  0  0  0  0  0  0  0  0  0  0  0
   60.1850   34.4770   45.9970 C   0  0  0  0  0  0  0  0  0  0  0  0
   62.3000   31.1950   47.4910 C   0  0  0  0  0  0  0  0  0  0  0  0
   61.0760   30.3090   47.2100 C   0  0  0  0  0  0  0  0  0  0  0  0
   58.1540   29.6180   46.1240 C   0  0  0  0  0  0  0  0  0  0  0  0
   55.0132   29.9511   44.7039 H   0  0  0  0  0  0  0  0  0  0  0  0
   55.1481   30.8884   43.1775 H   0  0  0  0  0  0  0  0  0  0  0  0
   55.4687   29.1209   43.1775 H   0  0  0  0  0  0  0  0  0  0  0  0
   57.8920   32.1733   44.4084 H   0  0  0  0  0  0  0  0  0  0  0  0
   58.4722   31.3148   42.9411 H   0  0  0  0  0  0  0  0  0  0  0  0
   56.8581   32.1031   42.9411 H   0  0  0  0  0  0  0  0  0  0  0  0
   57.8813   27.8970   43.1790 H   0  0  0  0  0  0  0  0  0  0  0  0
   59.2330   26.2591   44.4749 H   0  0  0  0  0  0  0  0  0  0  0  0
   59.8991   26.7582   46.8225 H   0  0  0  0  0  0  0  0  0  0  0  0
   58.6828   29.8117   48.6649 H   0  0  0  0  0  0  0  0  0  0  0  0
   59.2198   28.0887   48.8725 H   0  0  0  0  0  0  0  0  0  0  0  0
   61.3550   28.5990   48.3040 H   0  0  0  0  0  0  0  0  0  0  0  0
   60.2675   29.7997   50.4096 H   0  0  0  0  0  0  0  0  0  0  0  0
   62.0391   29.7821   50.0014 H   0  0  0  0  0  0  0  0  0  0  0  0
   60.0610   31.9737   49.2209 H   0  0  0  0  0  0  0  0  0  0  0  0
   61.2546   32.0490   50.5771 H   0  0  0  0  0  0  0  0  0  0  0  0
   59.0895   32.8158   48.7797 H   0  0  0  0  0  0  0  0  0  0  0  0
   56.9259   33.0155   47.5526 H   0  0  0  0  0  0  0  0  0  0  0  0
   58.9385   35.0828   44.3291 H   0  0  0  0  0  0  0  0  0  0  0  0
   61.1046   34.8861   45.5532 H   0  0  0  0  0  0  0  0  0  0  0  0
   62.5076   31.8045   46.5991 H   0  0  0  0  0  0  0  0  0  0  0  0
   63.1454   30.5338   47.7319 H   0  0  0  0  0  0  0  0  0  0  0  0
   60.2134   30.9534   46.9850 H   0  0  0  0  0  0  0  0  0  0  0  0
   61.3132   29.6565   46.3568 H   0  0  0  0  0  0  0  0  0  0  0  0
   57.8484   30.5633   46.5963 H   0  0  0  0  0  0  0  0  0  0  0  0
  1  2  1  0
  2  3  1  0
  2  4  1  0
  4  5  2  0
  5  6  1  0
  6  7  2  0
  7  8  1  0
  8  9  1  0
  9 10  1  0
 10 11  1  0
 11 12  1  0
 12 13  1  0
 13 14  1  0
 14 15  2  0
 14 16  2  0
 14 17  1  0
 17 18  2  0
 18 19  1  0
 19 20  2  0
 20 21  1  0
 20 22  1  0
 22 23  2  0
 13 24  1  0
 24 25  1  0
  8 26  2  0
 26  4  1  0
 25 10  1  0
 23 17  1  0
  1 27  1  0
  1 28  1  0
  1 29  1  0
  3 30  1  0
  3 31  1  0
  3 32  1  0
  5 33  1  0
  6 34  1  0
  7 35  1  0
  9 36  1  0
  9 37  1  0
 10 38  1  0
 11 39  1  0
 11 40  1  0
 12 41  1  0
 12 42  1  0
 18 43  1  0
 19 44  1  0
 22 45  1  0
 23 46  1  0
 24 47  1  0
 24 48  1  0
 25 49  1  0
 25 50  1  0
 26 51  1  0
M  CHG  1  10   1
M  END
>  <UniqueID>  (9) 
9

>  <SMILES>  (9) 
CN(C)c1cccc(C[NH+]2CCN(S(=O)(=O)c3ccc(F)cc3)CC2)c1

>  <Energy>  (9) 
64.6805644438004

>  <Genealogy>  (9) 
CN(C)c1cccc(C[NH+]2CCN(S(=O)(=O)c3ccc(F)cc3)CC2)c1 (protonated)
CN(C)c1cccc(C[NH+]2CCN(S(=O)(=O)c3ccc(F)cc3)CC2)c1 (3D coordinates assigned)
CN(C)c1cccc(C[NH+]2CCN(S(=O)(=O)c3ccc(F)cc3)CC2)c1 (nonaromatic ring conformer: 64.6805644438004 kcal/mol)

>  <smiles>  (9) 
CN(C)c1cccc(CN2CCN(S(=O)(=O)c3ccc(F)cc3)CC2)c1

>  <score_type>  (9) 
oracle

>  <origin>  (9) 
adg

>  <m_score__min__energy>  (9) 
-6.5599999999999996

>  <m_primary>  (9) 
energy

$$$$
9:0
     RDKit          3D

 49 52  0  0  0  0  0  0  0  0999 V2000
   56.3100   31.6880   44.8160 O   0  0  0  0  0  0  0  0  0  0  0  0
   57.3880   32.2500   45.1540 C   0  0  0  0  0  0  0  0  0  0  0  0
   57.4120   33.7310   45.3920 C   0  0  0  0  0  0  0  0  0  0  0  0
   59.0800   34.4230   45.1140 S   0  0  0  0  0  0  0  0  0  0  0  0
   59.6960   33.9850   46.7410 C   0  0  0  0  0  0  0  0  0  0  0  0
   58.9410   33.8380   47.8960 C   0  0  0  0  0  0  0  0  0  0  0  0
   59.7470   33.5460   48.9440 N   0  0  0  0  0  0  0  0  0  0  0  0
   59.3080   33.3570   50.3270 C   0  0  0  0  0  0  0  0  0  0  0  0
   58.6070   32.0400   50.5210 C   0  0  0  0  0  0  0  0  0  0  0  0
   57.4520   32.0290   51.0270 O   0  0  0  0  0  0  0  0  0  0  0  0
   59.1830   30.7720   50.0380 C   0  0  0  0  0  0  0  0  0  0  0  0
   59.1890   30.4520   48.6700 C   0  0  0  0  0  0  0  0  0  0  0  0
   59.8170   29.2860   48.2230 C   0  0  0  0  0  0  0  0  0  0  0  0
   60.4320   28.4260   49.1370 C   0  0  0  0  0  0  0  0  0  0  0  0
   60.4250   28.7340   50.4990 C   0  0  0  0  0  0  0  0  0  0  0  0
   59.8120   29.9090   50.9480 C   0  0  0  0  0  0  0  0  0  0  0  0
   61.0090   33.5370   48.4620 C   0  0  0  0  0  0  0  0  0  0  0  0
   62.2010   33.3170   49.1590 C   0  0  0  0  0  0  0  0  0  0  0  0
   63.4050   33.3530   48.4330 C   0  0  0  0  0  0  0  0  0  0  0  0
   63.3990   33.6090   47.0450 C   0  0  0  0  0  0  0  0  0  0  0  0
   62.1860   33.8350   46.3670 C   0  0  0  0  0  0  0  0  0  0  0  0
   61.0080   33.7890   47.1110 C   0  0  0  0  0  0  0  0  0  0  0  0
   58.6090   31.4970   45.2100 N   0  0  0  0  0  0  0  0  0  0  0  0
   58.6580   30.0630   45.2710 C   0  0  0  0  0  0  0  0  0  0  0  0
   59.8110   29.3530   44.8910 C   0  0  0  0  0  0  0  0  0  0  0  0
   59.8160   27.9550   44.9020 C   0  0  0  0  0  0  0  0  0  0  0  0
   58.6710   27.2550   45.2880 C   0  0  0  0  0  0  0  0  0  0  0  0
   57.5170   27.9500   45.6550 C   0  0  0  0  0  0  0  0  0  0  0  0
   57.5070   29.3490   45.6400 C   0  0  0  0  0  0  0  0  0  0  0  0
   56.7040   34.2158   44.7037 H   0  0  0  0  0  0  0  0  0  0  0  0
   57.1290   33.9185   46.4383 H   0  0  0  0  0  0  0  0  0  0  0  0
   57.8475   33.9433   47.9520 H   0  0  0  0  0  0  0  0  0  0  0  0
   60.1876   33.3916   50.9866 H   0  0  0  0  0  0  0  0  0  0  0  0
   58.5963   34.1597   50.5702 H   0  0  0  0  0  0  0  0  0  0  0  0
   58.6979   31.1213   47.9483 H   0  0  0  0  0  0  0  0  0  0  0  0
   59.8272   29.0448   47.1498 H   0  0  0  0  0  0  0  0  0  0  0  0
   60.9215   27.5065   48.7835 H   0  0  0  0  0  0  0  0  0  0  0  0
   60.9016   28.0527   51.2192 H   0  0  0  0  0  0  0  0  0  0  0  0
   59.8233   30.1573   52.0196 H   0  0  0  0  0  0  0  0  0  0  0  0
   62.1972   33.1218   50.2415 H   0  0  0  0  0  0  0  0  0  0  0  0
   64.3597   33.1801   48.9514 H   0  0  0  0  0  0  0  0  0  0  0  0
   64.3481   33.6321   46.4894 H   0  0  0  0  0  0  0  0  0  0  0  0
   62.1684   34.0409   45.2866 H   0  0  0  0  0  0  0  0  0  0  0  0
   59.5100   32.0210   45.1360 H   0  0  0  0  0  0  0  0  0  0  0  0
   60.7140   29.9007   44.5834 H   0  0  0  0  0  0  0  0  0  0  0  0
   60.7223   27.4062   44.6064 H   0  0  0  0  0  0  0  0  0  0  0  0
   58.6782   26.1551   45.3029 H   0  0  0  0  0  0  0  0  0  0  0  0
   56.6150   27.3972   45.9562 H   0  0  0  0  0  0  0  0  0  0  0  0
   56.5922   29.8925   45.9189 H   0  0  0  0  0  0  0  0  0  0  0  0
  1  2  2  0
  2  3  1  0
  3  4  1  0
  4  5  1  0
  5  6  2  0
  6  7  1  0
  7  8  1  0
  8  9  1  0
  9 10  2  0
  9 11  1  0
 11 12  2  0
 12 13  1  0
 13 14  2  0
 14 15  1  0
 15 16  2  0
  7 17  1  0
 17 18  2  0
 18 19  1  0
 19 20  2  0
 20 21  1  0
 21 22  2  0
  2 23  1  0
 23 24  1  0
 24 25  2  0
 25 26  1  0
 26 27  2  0
 27 28  1  0
 28 29  2  0
 22  5  1  0
 29 24  1  0
 16 11  1  0
 22 17  1  0
  3 30  1  0
  3 31  1  0
  6 32  1  0
  8 33  1  0
  8 34  1  0
 12 35  1  0
 13 36  1  0
 14 37  1  0
 15 38  1  0
 16 39  1  0
 18 40  1  0
 19 41  1  0
 20 42  1  0
 21 43  1  0
 23 44  1  0
 25 45  1  0
 26 46  1  0
 27 47  1  0
 28 48  1  0
 29 49  1  0
M  END
>  <UniqueID>  (10) 
10

>  <SMILES>  (10) 
O=C(CSc1cn(CC(=O)c2ccccc2)c2ccccc12)Nc1ccccc1

>  <Energy>  (10) 
85.32847280501785

>  <Genealogy>  (10) 
O=C(CSc1cn(CC(=O)c2ccccc2)c2ccccc12)Nc1ccccc1 (3D coordinates assigned)
O=C(CSc1cn(CC(=O)c2ccccc2)c2ccccc12)Nc1ccccc1 (optimized conformer: 85.32847280501785 kcal/mol)

>  <smiles>  (10) 
O=C(CSc1cn(CC(=O)c2ccccc2)c2ccccc12)Nc1ccccc1

>  <score_type>  (10) 
oracle

>  <origin>  (10) 
adg

>  <m_score__min__energy>  (10) 
-9.3300000000000001

>  <m_primary>  (10) 
energy

$$$$
10:0
     RDKit          3D

 33 35  0  0  1  0  0  0  0  0999 V2000
   57.2120   22.3930   47.5920 O   0  0  0  0  0  0  0  0  0  0  0  0
   57.3480   23.4440   46.6810 C   0  0  0  0  0  0  0  0  0  0  0  0
   57.4440   24.7380   47.1420 C   0  0  0  0  0  0  0  0  0  0  0  0
   57.5800   25.8330   46.3060 C   0  0  0  0  0  0  0  0  0  0  0  0
   57.6190   25.5980   44.9310 C   0  0  0  0  0  0  0  0  0  0  0  0
   57.7560   26.6630   44.0310 N   0  0  0  0  0  0  0  0  0  0  0  0
   57.9270   27.8830   44.3890 C   0  0  0  0  0  0  0  0  0  0  0  0
   59.1820   28.3650   44.6430 C   0  0  0  0  0  0  0  0  0  0  0  0
   59.2990   29.6860   45.0250 C   0  0  0  0  0  0  0  0  0  0  0  0
   58.1720   30.4700   45.1380 C   0  0  0  0  0  0  0  0  0  0  0  0
   58.2010   31.8700   45.5340 C   0  0  0  0  0  0  0  0  0  0  0  0
   57.8500   32.8190   44.5960 C   0  0  0  0  0  0  0  0  0  0  0  0
   57.8480   34.1810   44.8840 C   0  0  0  0  0  0  0  0  0  0  0  0
   58.2110   34.5900   46.1530 C   0  0  0  0  0  0  0  0  0  0  0  0
   58.5630   33.6590   47.1030 C   0  0  0  0  0  0  0  0  0  0  0  0
   58.5590   32.2980   46.7940 C   0  0  0  0  0  0  0  0  0  0  0  0
   56.9790   29.9110   44.8690 N   0  0  0  0  0  0  0  0  0  0  0  0
   56.8280   28.6500   44.5010 N   0  0  0  0  0  0  0  0  0  0  0  0
   57.5240   24.3020   44.4710 C   0  0  0  0  0  0  0  0  0  0  0  0
   57.3880   23.2100   45.3040 C   0  0  0  0  0  0  0  0  0  0  0  0
   57.7720   21.5520   47.5130 H   0  0  0  0  0  0  0  0  0  0  0  0
   57.4110   24.9101   48.2280 H   0  0  0  0  0  0  0  0  0  0  0  0
   57.6547   26.8528   46.7115 H   0  0  0  0  0  0  0  0  0  0  0  0
   60.0684   27.7209   44.5460 H   0  0  0  0  0  0  0  0  0  0  0  0
   60.2903   30.1120   45.2388 H   0  0  0  0  0  0  0  0  0  0  0  0
   57.5622   32.4884   43.5871 H   0  0  0  0  0  0  0  0  0  0  0  0
   57.5633   34.9165   44.1172 H   0  0  0  0  0  0  0  0  0  0  0  0
   58.2186   35.6610   46.4040 H   0  0  0  0  0  0  0  0  0  0  0  0
   58.8494   33.9895   48.1124 H   0  0  0  0  0  0  0  0  0  0  0  0
   58.8433   31.5625   47.5609 H   0  0  0  0  0  0  0  0  0  0  0  0
   55.8920   28.2740   44.3070 H   0  0  0  0  0  0  0  0  0  0  0  0
   57.5583   24.1294   43.3852 H   0  0  0  0  0  0  0  0  0  0  0  0
   57.3137   22.1904   44.8978 H   0  0  0  0  0  0  0  0  0  0  0  0
  1  2  1  0
  2  3  2  0
  3  4  1  0
  4  5  2  0
  5  6  1  0
  6  7  2  0
  7  8  1  0
  8  9  2  0
  9 10  1  0
 10 11  1  0
 11 12  2  0
 12 13  1  0
 13 14  2  0
 14 15  1  0
 15 16  2  0
 10 17  2  0
 17 18  1  0
  5 19  1  0
 19 20  2  0
 20  2  1  0
 18  7  1  0
 16 11  1  0
  1 21  1  0
  3 22  1  0
  4 23  1  0
  8 24  1  0
  9 25  1  0
 12 26  1  0
 13 27  1  0
 14 28  1  0
 15 29  1  0
 16 30  1  0
 18 31  1  0
 19 32  1  0
 20 33  1  0
M  END
>  <smiles>  (11) 
Oc1ccc(N=c2ccc(-c3ccccc3)n[nH]2)cc1

>  <score_type>  (11) 
oracle

>  <origin>  (11) 
adg

>  <m_score__min__energy>  (11) 
-8.1799999999999997

>  <m_primary>  (11) 
energy

$$$$
11:0
     RDKit          3D

 47 48  0  0  0  0  0  0  0  0999 V2000
   57.5080   28.2680   43.5540 C   0  0  0  0  0  0  0  0  0  0  0  0
   56.5070   29.6140   44.1560 S   0  0  0  0  0  0  0  0  0  0  0  0
   55.0600   29.3410   43.8610 O   0  0  0  0  0  0  0  0  0  0  0  0
   56.6850   29.6910   45.6470 O   0  0  0  0  0  0  0  0  0  0  0  0
   57.0150   31.1850   43.4540 C   0  0  0  0  0  0  0  0  0  0  0  0
   58.2900   31.7880   44.0850 C   0  0  0  0  0  0  0  0  0  0  0  0
   58.3720   31.6790   45.5820 N   0  0  1  0  0  0  0  0  0  0  0  0
   59.7360   31.2200   45.9900 C   0  0  0  0  0  0  0  0  0  0  0  0
   59.7550   29.9570   46.8970 C   0  0  1  0  0  0  0  0  0  0  0  0
   60.9340   29.9970   47.8690 C   0  0  0  0  0  0  0  0  0  0  0  0
   60.3140   30.4670   49.1460 C   0  0  0  0  0  0  0  0  0  0  0  0
   58.8760   30.0170   49.0080 C   0  0  0  0  0  0  0  0  0  0  0  0
   58.5570   29.8860   47.6420 O   0  0  0  0  0  0  0  0  0  0  0  0
   57.9500   32.9900   46.2230 C   0  0  0  0  0  0  0  0  0  0  0  0
   57.7770   34.2100   45.2620 C   0  0  0  0  0  0  0  0  0  0  0  0
   59.1330   34.8230   44.8990 C   0  0  0  0  0  0  0  0  0  0  0  0
   59.8710   35.3590   46.1460 C   0  0  0  0  0  0  0  0  0  0  0  0
   59.2710   34.8630   47.4750 C   0  0  0  0  0  0  0  0  0  0  0  0
   58.9130   33.3720   47.4020 C   0  0  0  0  0  0  0  0  0  0  0  0
   57.9230   27.7100   44.4063 H   0  0  0  0  0  0  0  0  0  0  0  0
   56.8887   27.5957   42.9421 H   0  0  0  0  0  0  0  0  0  0  0  0
   58.3301   28.6676   42.9421 H   0  0  0  0  0  0  0  0  0  0  0  0
   57.2005   31.0371   42.3799 H   0  0  0  0  0  0  0  0  0  0  0  0
   56.2002   31.8956   43.6567 H   0  0  0  0  0  0  0  0  0  0  0  0
   59.1604   31.2691   43.6571 H   0  0  0  0  0  0  0  0  0  0  0  0
   58.2662   32.8637   43.8565 H   0  0  0  0  0  0  0  0  0  0  0  0
   57.7180   30.9370   45.9100 H   0  0  0  0  0  0  0  0  0  0  0  0
   60.3083   30.9949   45.0780 H   0  0  0  0  0  0  0  0  0  0  0  0
   60.1718   32.0356   46.5858 H   0  0  0  0  0  0  0  0  0  0  0  0
   59.8546   29.0747   46.2476 H   0  0  0  0  0  0  0  0  0  0  0  0
   61.3776   28.9979   47.9911 H   0  0  0  0  0  0  0  0  0  0  0  0
   61.7528   30.6458   47.5247 H   0  0  0  0  0  0  0  0  0  0  0  0
   60.7945   29.9960   50.0162 H   0  0  0  0  0  0  0  0  0  0  0  0
   60.4171   31.5503   49.3065 H   0  0  0  0  0  0  0  0  0  0  0  0
   58.7448   29.0473   49.5104 H   0  0  0  0  0  0  0  0  0  0  0  0
   58.2115   30.7611   49.4714 H   0  0  0  0  0  0  0  0  0  0  0  0
   56.9359   32.7807   46.5942 H   0  0  0  0  0  0  0  0  0  0  0  0
   57.2767   33.8742   44.3417 H   0  0  0  0  0  0  0  0  0  0  0  0
   57.1737   34.9746   45.7733 H   0  0  0  0  0  0  0  0  0  0  0  0
   59.7555   34.0528   44.4202 H   0  0  0  0  0  0  0  0  0  0  0  0
   58.9556   35.6674   44.2167 H   0  0  0  0  0  0  0  0  0  0  0  0
   60.9209   35.0348   46.0954 H   0  0  0  0  0  0  0  0  0  0  0  0
   59.7718   36.4545   46.1349 H   0  0  0  0  0  0  0  0  0  0  0  0
   60.0055   35.0164   48.2794 H   0  0  0  0  0  0  0  0  0  0  0  0
   58.3511   35.4320   47.6750 H   0  0  0  0  0  0  0  0  0  0  0  0
   59.8453   32.8004   47.2829 H   0  0  0  0  0  0  0  0  0  0  0  0
   58.3775   33.1333   48.3327 H   0  0  0  0  0  0  0  0  0  0  0  0
  1  2  1  0
  2  3  2  0
  2  4  2  0
  2  5  1  0
  5  6  1  0
  6  7  1  0
  7  8  1  0
  8  9  1  0
  9 10  1  0
 10 11  1  0
 11 12  1  0
 12 13  1  0
  7 14  1  0
 14 15  1  0
 15 16  1  0
 16 17  1  0
 17 18  1  0
 18 19  1  0
 13  9  1  0
 19 14  1  0
  1 20  1  0
  1 21  1  0
  1 22  1  0
  5 23  1  0
  5 24  1  0
  6 25  1  0
  6 26  1  0
  7 27  1  1
  8 28  1  0
  8 29  1  0
  9 30  1  6
 10 31  1  0
 10 32  1  0
 11 33  1  0
 11 34  1  0
 12 35  1  0
 12 36  1  0
 14 37  1  0
 15 38  1  0
 15 39  1  0
 16 40  1  0
 16 41  1  0
 17 42  1  0
 17 43  1  0
 18 44  1  0
 18 45  1  0
 19 46  1  0
 19 47  1  0
M  CHG  1   7   1
M  END
>  <UniqueID>  (12) 
11

>  <SMILES>  (12) 
CS(=O)(=O)CC[N@@H+](C[C@H]1CCCO1)C1CCCCC1

>  <Energy>  (12) 
61.15869975647443

>  <Genealogy>  (12) 
CS(=O)(=O)CC[NH+](CC1CCCO1)C1CCCCC1 (protonated)
CS(=O)(=O)CC[N@@H+](C[C@H]1CCCO1)C1CCCCC1 (chirality)
CS(=O)(=O)CC[N@@H+](C[C@H]1CCCO1)C1CCCCC1 (3D coordinates assigned)
CS(=O)(=O)CC[N@@H+](C[C@H]1CCCO1)C1CCCCC1 (nonaromatic ring conformer: 61.15869975647443 kcal/mol)

>  <smiles>  (12) 
CS(=O)(=O)CCN(CC1CCCO1)C1CCCCC1

>  <score_type>  (12) 
oracle

>  <origin>  (12) 
adg

>  <m_score__min__energy>  (12) 
-5.4199999999999999

>  <m_primary>  (12) 
energy

$$$$
12:0
     RDKit          3D

 33 35  0  0  0  0  0  0  0  0999 V2000
   56.5941   31.9365   43.0647 H   0  0  0  0  0  0  0  0  0  0  0  0
   57.0180   31.5170   43.9890 C   0  0  0  0  0  0  0  0  0  0  0  0
   56.9210   30.1460   44.2390 C   0  0  0  0  0  0  0  0  0  0  0  0
   56.4269   29.4923   43.5051 H   0  0  0  0  0  0  0  0  0  0  0  0
   57.4480   29.5940   45.4180 C   0  0  0  0  0  0  0  0  0  0  0  0
   57.3450   28.1760   45.6530 N   0  0  0  0  0  0  0  0  0  0  0  0
   56.1990   27.5010   45.6150 N   0  0  0  0  0  0  0  0  0  0  0  0
   56.4330   26.2260   45.8910 N   0  0  0  0  0  0  0  0  0  0  0  0
   55.5270   25.2130   45.9560 C   0  0  0  0  0  0  0  0  0  0  0  0
   54.2680   25.4560   45.7200 N   0  0  0  0  0  0  0  0  0  0  0  0
   53.2720   24.4730   45.3030 C   0  0  0  0  0  0  0  0  0  0  0  0
   52.8111   24.0181   46.1922 H   0  0  0  0  0  0  0  0  0  0  0  0
   52.4964   24.9694   44.7013 H   0  0  0  0  0  0  0  0  0  0  0  0
   53.7582   23.6909   44.7013 H   0  0  0  0  0  0  0  0  0  0  0  0
   56.0150   23.9250   46.2840 C   0  0  0  0  0  0  0  0  0  0  0  0
   55.3233   23.0721   46.3474 H   0  0  0  0  0  0  0  0  0  0  0  0
   57.3910   23.7400   46.5290 C   0  0  0  0  0  0  0  0  0  0  0  0
   57.7706   22.7393   46.7832 H   0  0  0  0  0  0  0  0  0  0  0  0
   58.2800   24.8230   46.4510 C   0  0  0  0  0  0  0  0  0  0  0  0
   59.3555   24.6962   46.6437 H   0  0  0  0  0  0  0  0  0  0  0  0
   57.7450   26.0630   46.1200 C   0  0  0  0  0  0  0  0  0  0  0  0
   58.3260   27.2970   45.9750 C   0  0  0  0  0  0  0  0  0  0  0  0
   59.5410   27.5800   46.1520 O   0  0  0  0  0  0  0  0  0  0  0  0
   58.0970   30.4420   46.3340 C   0  0  0  0  0  0  0  0  0  0  0  0
   58.5306   30.0233   47.2542 H   0  0  0  0  0  0  0  0  0  0  0  0
   58.1940   31.8120   46.0820 C   0  0  0  0  0  0  0  0  0  0  0  0
   58.6992   32.4644   46.8095 H   0  0  0  0  0  0  0  0  0  0  0  0
   57.6560   32.3640   44.9150 C   0  0  0  0  0  0  0  0  0  0  0  0
   57.7790   33.7460   44.7110 O   0  0  0  0  0  0  0  0  0  0  0  0
   58.8310   34.5470   45.2390 C   0  0  0  0  0  0  0  0  0  0  0  0
   58.7959   34.5203   46.3381 H   0  0  0  0  0  0  0  0  0  0  0  0
   59.7990   34.1552   44.8934 H   0  0  0  0  0  0  0  0  0  0  0  0
   58.7108   35.5844   44.8934 H   0  0  0  0  0  0  0  0  0  0  0  0
  1  2  1  0
  2  3  2  0
  3  4  1  0
  3  5  1  0
  5  6  1  0
  6  7  1  0
  7  8  1  0
  8  9  1  0
  9 10  2  0
 10 11  1  0
 11 12  1  0
 11 13  1  0
 11 14  1  0
  9 15  1  0
 15 16  1  0
 15 17  2  0
 17 18  1  0
 17 19  1  0
 19 20  1  0
 19 21  2  0
 21 22  1  0
 22 23  2  0
  5 24  2  0
 24 25  1  0
 24 26  1  0
 26 27  1  0
 26 28  2  0
 28 29  1  0
 29 30  1  0
 30 31  1  0
 30 32  1  0
 30 33  1  0
 28  2  1  0
 22  6  1  0
 21  8  1  0
M  CHG  1   7  -1
M  END
>  <UniqueID>  (13) 
12

>  <SMILES>  (13) 
C/N=c1\cccc2c(=O)n(-c3ccc(OC)cc3)[n-]n12

>  <Energy>  (13) 
85.17328380884739

>  <Genealogy>  (13) 
CN=c1cccc2c(=O)n(-c3ccc(OC)cc3)[n-]n12 (protonated)
C/N=c1\cccc2c(=O)n(-c3ccc(OC)cc3)[n-]n12 (cis-trans isomerization)
C/N=c1\cccc2c(=O)n(-c3ccc(OC)cc3)[n-]n12 (3D coordinates assigned)
C/N=c1\cccc2c(=O)n(-c3ccc(OC)cc3)[n-]n12 (optimized conformer: 85.17328380884739 kcal/mol)

>  <smiles>  (13) 
CN=c1cccc2c(=O)n(-c3ccc(OC)cc3)[nH]n12

>  <score_type>  (13) 
oracle

>  <origin>  (13) 
adg

>  <m_score__min__energy>  (13) 
-7.5099999999999998

>  <m_primary>  (13) 
energy

$$$$
13:0
     RDKit          3D

 46 49  0  0  0  0  0  0  0  0999 V2000
   63.9510   33.8140   49.9230 C   0  0  0  0  0  0  0  0  0  0  0  0
   64.1030   33.1830   48.6870 C   0  0  0  0  0  0  0  0  0  0  0  0
   62.9920   32.9750   47.8640 C   0  0  0  0  0  0  0  0  0  0  0  0
   61.7130   33.4010   48.2710 C   0  0  0  0  0  0  0  0  0  0  0  0
   60.5300   33.1800   47.4010 C   0  0  0  0  0  0  0  0  0  0  0  0
   59.5590   32.2260   47.7470 C   0  0  0  0  0  0  0  0  0  0  0  0
   58.4530   32.0070   46.9200 C   0  0  0  0  0  0  0  0  0  0  0  0
   58.3060   32.7230   45.7220 C   0  0  0  0  0  0  0  0  0  0  0  0
   57.1280   32.4580   44.8160 C   0  0  0  0  0  0  0  0  0  0  0  0
   57.2660   31.2220   44.0140 N   0  0  0  0  0  0  0  0  0  0  0  0
   56.0210   30.4680   43.7560 C   0  0  0  0  0  0  0  0  0  0  0  0
   55.7400   29.3520   44.7850 C   0  0  0  0  0  0  0  0  0  0  0  0
   57.0140   28.7950   45.4520 C   0  0  0  0  0  0  0  0  0  0  0  0
   56.8220   27.3630   45.8790 C   0  0  0  0  0  0  0  0  0  0  0  0
   57.8100   26.4500   46.1720 C   0  0  0  0  0  0  0  0  0  0  0  0
   57.2400   25.2730   46.4780 N   0  0  0  0  0  0  0  0  0  0  0  0
   55.9160   25.5080   46.3590 C   0  0  0  0  0  0  0  0  0  0  0  0
   55.6200   26.7720   45.9900 N   0  0  0  0  0  0  0  0  0  0  0  0
   58.2230   28.9420   44.5250 C   0  0  0  0  0  0  0  0  0  0  0  0
   58.4960   30.4280   44.2510 C   0  0  0  0  0  0  0  0  0  0  0  0
   59.2580   33.7020   45.3930 C   0  0  0  0  0  0  0  0  0  0  0  0
   60.3620   33.9220   46.2190 C   0  0  0  0  0  0  0  0  0  0  0  0
   61.5740   34.0370   49.5200 C   0  0  0  0  0  0  0  0  0  0  0  0
   62.6880   34.2400   50.3390 C   0  0  0  0  0  0  0  0  0  0  0  0
   64.8263   33.9756   50.5693 H   0  0  0  0  0  0  0  0  0  0  0  0
   65.0987   32.8488   48.3600 H   0  0  0  0  0  0  0  0  0  0  0  0
   63.1179   32.4753   46.8922 H   0  0  0  0  0  0  0  0  0  0  0  0
   59.6694   31.6468   48.6756 H   0  0  0  0  0  0  0  0  0  0  0  0
   57.6922   31.2677   47.2107 H   0  0  0  0  0  0  0  0  0  0  0  0
   56.2241   32.3711   45.4368 H   0  0  0  0  0  0  0  0  0  0  0  0
   57.0690   33.2979   44.1081 H   0  0  0  0  0  0  0  0  0  0  0  0
   55.1783   31.1748   43.7731 H   0  0  0  0  0  0  0  0  0  0  0  0
   56.1417   29.9777   42.7787 H   0  0  0  0  0  0  0  0  0  0  0  0
   55.0856   29.7589   45.5699 H   0  0  0  0  0  0  0  0  0  0  0  0
   55.2702   28.5201   44.2398 H   0  0  0  0  0  0  0  0  0  0  0  0
   57.2104   29.3871   46.3580 H   0  0  0  0  0  0  0  0  0  0  0  0
   58.8912   26.6519   46.1578 H   0  0  0  0  0  0  0  0  0  0  0  0
   55.1499   24.7409   46.5454 H   0  0  0  0  0  0  0  0  0  0  0  0
   59.1055   28.4914   45.0027 H   0  0  0  0  0  0  0  0  0  0  0  0
   58.0130   28.4316   43.5735 H   0  0  0  0  0  0  0  0  0  0  0  0
   59.0216   30.8513   45.1197 H   0  0  0  0  0  0  0  0  0  0  0  0
   59.0979   30.4821   43.3319 H   0  0  0  0  0  0  0  0  0  0  0  0
   59.1329   34.2996   44.4780 H   0  0  0  0  0  0  0  0  0  0  0  0
   61.1069   34.6827   45.9423 H   0  0  0  0  0  0  0  0  0  0  0  0
   60.5820   34.3762   49.8530 H   0  0  0  0  0  0  0  0  0  0  0  0
   62.5696   34.7364   51.3134 H   0  0  0  0  0  0  0  0  0  0  0  0
  1  2  2  0
  2  3  1  0
  3  4  2  0
  4  5  1  0
  5  6  2  0
  6  7  1  0
  7  8  2  0
  8  9  1  0
  9 10  1  0
 10 11  1  0
 11 12  1  0
 12 13  1  0
 13 14  1  0
 14 15  2  0
 15 16  1  0
 16 17  1  0
 17 18  2  0
 13 19  1  0
 19 20  1  0
  8 21  1  0
 21 22  2  0
  4 23  1  0
 23 24  2  0
 24  1  1  0
 22  5  1  0
 20 10  1  0
 18 14  1  0
  1 25  1  0
  2 26  1  0
  3 27  1  0
  6 28  1  0
  7 29  1  0
  9 30  1  0
  9 31  1  0
 11 32  1  0
 11 33  1  0
 12 34  1  0
 12 35  1  0
 13 36  1  0
 15 37  1  0
 17 38  1  0
 19 39  1  0
 19 40  1  0
 20 41  1  0
 20 42  1  0
 21 43  1  0
 22 44  1  0
 23 45  1  0
 24 46  1  0
M  CHG  1  16  -1
M  END
>  <UniqueID>  (14) 
13

>  <SMILES>  (14) 
c1ccc(-c2ccc(CN3CCC(c4c[n-]cn4)CC3)cc2)cc1

>  <Energy>  (14) 
93.75612779113044

>  <Genealogy>  (14) 
c1ccc(-c2ccc(CN3CCC(c4c[n-]cn4)CC3)cc2)cc1 (protonated)
c1ccc(-c2ccc(CN3CCC(c4c[n-]cn4)CC3)cc2)cc1 (3D coordinates assigned)
c1ccc(-c2ccc(CN3CCC(c4c[n-]cn4)CC3)cc2)cc1 (nonaromatic ring conformer: 93.75612779113044 kcal/mol)

>  <smiles>  (14) 
c1ccc(-c2ccc(CN3CCC(c4c[nH]cn4)CC3)cc2)cc1

>  <score_type>  (14) 
oracle

>  <origin>  (14) 
adg

>  <m_score__min__energy>  (14) 
-10.210000000000001

>  <m_primary>  (14) 
energy

$$$$
14:0
     RDKit          3D

 31 31  0  0  0  0  0  0  0  0999 V2000
   57.8860   32.0140   45.7760 C   0  0  0  0  0  0  0  0  0  0  0  0
   58.2160   30.5900   45.8420 N   0  0  0  0  0  0  0  0  0  0  0  0
   58.8850   30.0890   47.0440 C   0  0  0  0  0  0  0  0  0  0  0  0
   57.5010   29.6770   44.9870 C   0  0  0  0  0  0  0  0  0  0  0  0
   56.2500   29.7920   44.8860 O   0  0  0  0  0  0  0  0  0  0  0  0
   58.1950   28.6020   44.1640 C   0  0  2  0  0  0  0  0  0  0  0  0
   57.3980   28.1520   43.0150 N   0  0  0  0  0  0  0  0  0  0  0  0
   58.6240   27.4080   45.0520 C   0  0  0  0  0  0  0  0  0  0  0  0
   57.6240   26.2760   45.0570 C   0  0  0  0  0  0  0  0  0  0  0  0
   56.5570   26.2770   45.9710 C   0  0  0  0  0  0  0  0  0  0  0  0
   55.6190   25.2400   45.9630 C   0  0  0  0  0  0  0  0  0  0  0  0
   55.7420   24.1920   45.0470 C   0  0  0  0  0  0  0  0  0  0  0  0
   54.8310   23.1880   45.0400 F   0  0  0  0  0  0  0  0  0  0  0  0
   56.8040   24.1790   44.1380 C   0  0  0  0  0  0  0  0  0  0  0  0
   57.7430   25.2150   44.1440 C   0  0  0  0  0  0  0  0  0  0  0  0
   57.7927   32.4164   46.7955 H   0  0  0  0  0  0  0  0  0  0  0  0
   58.6835   32.5508   45.2414 H   0  0  0  0  0  0  0  0  0  0  0  0
   56.9336   32.1453   45.2414 H   0  0  0  0  0  0  0  0  0  0  0  0
   58.3710   30.4739   47.9371 H   0  0  0  0  0  0  0  0  0  0  0  0
   58.8550   28.9894   47.0490 H   0  0  0  0  0  0  0  0  0  0  0  0
   59.9317   30.4272   47.0490 H   0  0  0  0  0  0  0  0  0  0  0  0
   59.1005   29.0672   43.7472 H   0  0  0  0  0  0  0  0  0  0  0  0
   57.4040   27.1090   42.9350 H   0  0  0  0  0  0  0  0  0  0  0  0
   57.7820   28.5610   42.1310 H   0  0  0  0  0  0  0  0  0  0  0  0
   56.4170   28.4990   43.1080 H   0  0  0  0  0  0  0  0  0  0  0  0
   59.5847   27.0233   44.6791 H   0  0  0  0  0  0  0  0  0  0  0  0
   58.6986   27.7806   46.0843 H   0  0  0  0  0  0  0  0  0  0  0  0
   56.4590   27.0978   46.6967 H   0  0  0  0  0  0  0  0  0  0  0  0
   54.7835   25.2492   46.6785 H   0  0  0  0  0  0  0  0  0  0  0  0
   56.9010   23.3533   43.4177 H   0  0  0  0  0  0  0  0  0  0  0  0
   58.5795   25.1991   43.4299 H   0  0  0  0  0  0  0  0  0  0  0  0
  1  2  1  0
  2  3  1  0
  2  4  1  0
  4  5  2  0
  4  6  1  0
  6  7  1  0
  6  8  1  0
  8  9  1  0
  9 10  2  0
 10 11  1  0
 11 12  2  0
 12 13  1  0
 12 14  1  0
 14 15  2  0
 15  9  1  0
  1 16  1  0
  1 17  1  0
  1 18  1  0
  3 19  1  0
  3 20  1  0
  3 21  1  0
  6 22  1  6
  7 23  1  0
  7 24  1  0
  7 25  1  0
  8 26  1  0
  8 27  1  0
 10 28  1  0
 11 29  1  0
 14 30  1  0
 15 31  1  0
M  CHG  1   7   1
M  END
>  <UniqueID>  (15) 
14

>  <SMILES>  (15) 
CN(C)C(=O)[C@H]([NH3+])Cc1ccc(F)cc1

>  <Energy>  (15) 
31.76871464617148

>  <Genealogy>  (15) 
CN(C)C(=O)C([NH3+])Cc1ccc(F)cc1 (protonated)
CN(C)C(=O)[C@H]([NH3+])Cc1ccc(F)cc1 (chirality)
CN(C)C(=O)[C@H]([NH3+])Cc1ccc(F)cc1 (3D coordinates assigned)
CN(C)C(=O)[C@H]([NH3+])Cc1ccc(F)cc1 (optimized conformer: 31.76871464617148 kcal/mol)

>  <smiles>  (15) 
CN(C)C(=O)C(N)Cc1ccc(F)cc1

>  <score_type>  (15) 
oracle

>  <origin>  (15) 
adg

>  <m_score__min__energy>  (15) 
-4.3799999999999999

>  <m_primary>  (15) 
energy

$$$$
15:0
     RDKit          3D

 65 69  0  0  0  0  0  0  0  0999 V2000
   57.1260   25.7060   47.1510 S   0  0  0  0  0  0  0  0  0  0  0  0
   57.1460   27.1360   46.3500 C   0  0  0  0  0  0  0  0  0  0  0  0
   56.0850   27.5900   45.6210 N   0  0  0  0  0  0  0  0  0  0  0  0
   56.5590   28.7460   45.1070 C   0  0  0  0  0  0  0  0  0  0  0  0
   55.9170   29.6630   44.2770 C   0  0  0  0  0  0  0  0  0  0  0  0
   56.6490   30.8070   43.8780 C   0  0  0  0  0  0  0  0  0  0  0  0
   57.9880   30.9960   44.3140 C   0  0  0  0  0  0  0  0  0  0  0  0
   58.5940   30.0440   45.1600 C   0  0  0  0  0  0  0  0  0  0  0  0
   57.8360   28.9470   45.5100 C   0  0  0  0  0  0  0  0  0  0  0  0
   58.2220   27.9630   46.3090 N   0  0  0  0  0  0  0  0  0  0  0  0
   59.5810   27.8140   46.8210 C   0  0  0  0  0  0  0  0  0  0  0  0
   60.3110   29.1950   46.8890 C   0  0  2  0  0  0  0  0  0  0  0  0
   60.1170   29.9110   48.1830 N   0  0  0  0  0  0  0  0  0  0  0  0
   60.7140   29.2450   49.3730 C   0  0  0  0  0  0  0  0  0  0  0  0
   61.4580   30.1910   50.3470 C   0  0  0  0  0  0  0  0  0  0  0  0
   62.5800   30.9710   49.6530 C   0  0  0  0  0  0  0  0  0  0  0  0
   62.0230   32.0810   48.8450 N   0  0  0  0  0  0  0  0  0  0  0  0
   62.2230   33.3900   49.4980 C   0  0  0  0  0  0  0  0  0  0  0  0
   63.7090   33.8230   49.4630 C   0  0  0  0  0  0  0  0  0  0  0  0
   64.4680   33.1400   48.4790 O   0  0  0  0  0  0  0  0  0  0  0  0
   63.7360   33.0480   47.2760 C   0  0  0  0  0  0  0  0  0  0  0  0
   62.5370   32.0950   47.4530 C   0  0  0  0  0  0  0  0  0  0  0  0
   58.8310   30.6160   48.3930 C   0  0  0  0  0  0  0  0  0  0  0  0
   59.0560   32.1240   48.5590 C   0  0  0  0  0  0  0  0  0  0  0  0
   58.9320   32.8160   47.2570 N   0  0  0  0  0  0  0  0  0  0  0  0
   59.7720   34.0270   47.2210 C   0  0  0  0  0  0  0  0  0  0  0  0
   59.5490   34.8070   45.9070 C   0  0  0  0  0  0  0  0  0  0  0  0
   58.7070   34.0960   45.0200 O   0  0  0  0  0  0  0  0  0  0  0  0
   57.4350   33.9130   45.6140 C   0  0  0  0  0  0  0  0  0  0  0  0
   57.5300   33.1740   46.9630 C   0  0  0  0  0  0  0  0  0  0  0  0
   60.0130   30.1330   45.6660 C   0  0  0  0  0  0  0  0  0  0  0  0
   54.8806   29.5039   43.9445 H   0  0  0  0  0  0  0  0  0  0  0  0
   56.1772   31.5559   43.2249 H   0  0  0  0  0  0  0  0  0  0  0  0
   58.5516   31.8841   43.9920 H   0  0  0  0  0  0  0  0  0  0  0  0
   59.5390   27.3797   47.8307 H   0  0  0  0  0  0  0  0  0  0  0  0
   60.1408   27.1558   46.1402 H   0  0  0  0  0  0  0  0  0  0  0  0
   61.3773   28.9317   46.8280 H   0  0  0  0  0  0  0  0  0  0  0  0
   59.9042   28.7503   49.9294 H   0  0  0  0  0  0  0  0  0  0  0  0
   61.4694   28.5448   48.9870 H   0  0  0  0  0  0  0  0  0  0  0  0
   60.7358   30.9070   50.7663 H   0  0  0  0  0  0  0  0  0  0  0  0
   61.9136   29.5736   51.1352 H   0  0  0  0  0  0  0  0  0  0  0  0
   63.2578   31.3835   50.4148 H   0  0  0  0  0  0  0  0  0  0  0  0
   63.1264   30.2875   48.9864 H   0  0  0  0  0  0  0  0  0  0  0  0
   61.6185   34.1458   48.9752 H   0  0  0  0  0  0  0  0  0  0  0  0
   61.9154   33.3002   50.5503 H   0  0  0  0  0  0  0  0  0  0  0  0
   63.7537   34.9017   49.2523 H   0  0  0  0  0  0  0  0  0  0  0  0
   64.1446   33.5742   50.4420 H   0  0  0  0  0  0  0  0  0  0  0  0
   63.3683   34.0465   46.9973 H   0  0  0  0  0  0  0  0  0  0  0  0
   64.3927   32.6552   46.4858 H   0  0  0  0  0  0  0  0  0  0  0  0
   61.7278   32.4176   46.7814 H   0  0  0  0  0  0  0  0  0  0  0  0
   62.8802   31.0778   47.2132 H   0  0  0  0  0  0  0  0  0  0  0  0
   58.1788   30.4424   47.5244 H   0  0  0  0  0  0  0  0  0  0  0  0
   58.3618   30.2271   49.3088 H   0  0  0  0  0  0  0  0  0  0  0  0
   58.3058   32.5269   49.2553 H   0  0  0  0  0  0  0  0  0  0  0  0
   60.0694   32.2898   48.9534 H   0  0  0  0  0  0  0  0  0  0  0  0
   59.5116   34.6725   48.0728 H   0  0  0  0  0  0  0  0  0  0  0  0
   60.8286   33.7264   47.2789 H   0  0  0  0  0  0  0  0  0  0  0  0
   59.0849   35.7765   46.1409 H   0  0  0  0  0  0  0  0  0  0  0  0
   60.5246   34.9482   45.4190 H   0  0  0  0  0  0  0  0  0  0  0  0
   56.9754   34.8984   45.7803 H   0  0  0  0  0  0  0  0  0  0  0  0
   56.8262   33.3005   44.9326 H   0  0  0  0  0  0  0  0  0  0  0  0
   57.1477   33.8269   47.7615 H   0  0  0  0  0  0  0  0  0  0  0  0
   56.9309   32.2531   46.9080 H   0  0  0  0  0  0  0  0  0  0  0  0
   60.2078   31.1719   45.9705 H   0  0  0  0  0  0  0  0  0  0  0  0
   60.6666   29.8047   44.8444 H   0  0  0  0  0  0  0  0  0  0  0  0
  1  2  2  0
  2  3  1  0
  3  4  1  0
  4  5  2  0
  5  6  1  0
  6  7  2  0
  7  8  1  0
  8  9  2  0
  9 10  1  0
 10 11  1  0
 11 12  1  0
 12 13  1  0
 13 14  1  0
 14 15  1  0
 15 16  1  0
 16 17  1  0
 17 18  1  0
 18 19  1  0
 19 20  1  0
 20 21  1  0
 21 22  1  0
 13 23  1  0
 23 24  1  0
 24 25  1  0
 25 26  1  0
 26 27  1  0
 27 28  1  0
 28 29  1  0
 29 30  1  0
 12 31  1  0
 10  2  1  0
 22 17  1  0
 30 25  1  0
  9  4  1  0
 31  8  1  0
  5 32  1  0
  6 33  1  0
  7 34  1  0
 11 35  1  0
 11 36  1  0
 12 37  1  6
 14 38  1  0
 14 39  1  0
 15 40  1  0
 15 41  1  0
 16 42  1  0
 16 43  1  0
 18 44  1  0
 18 45  1  0
 19 46  1  0
 19 47  1  0
 21 48  1  0
 21 49  1  0
 22 50  1  0
 22 51  1  0
 23 52  1  0
 23 53  1  0
 24 54  1  0
 24 55  1  0
 26 56  1  0
 26 57  1  0
 27 58  1  0
 27 59  1  0
 29 60  1  0
 29 61  1  0
 30 62  1  0
 30 63  1  0
 31 64  1  0
 31 65  1  0
M  CHG  1   3  -1
M  END
>  <UniqueID>  (16) 
15

>  <SMILES>  (16) 
S=c1[n-]c2cccc3c2n1C[C@H](N(CCCN1CCOCC1)CCN1CCOCC1)C3

>  <Energy>  (16) 
143.0573718960266

>  <Genealogy>  (16) 
S=c1[n-]c2cccc3c2n1CC(N(CCCN1CCOCC1)CCN1CCOCC1)C3 (protonated)
S=c1[n-]c2cccc3c2n1C[C@H](N(CCCN1CCOCC1)CCN1CCOCC1)C3 (chirality)
S=c1[n-]c2cccc3c2n1C[C@H](N(CCCN1CCOCC1)CCN1CCOCC1)C3 (3D coordinates assigned)
S=c1[n-]c2cccc3c2n1C[C@H](N(CCCN1CCOCC1)CCN1CCOCC1)C3 (nonaromatic ring conformer: 143.0573718960266 kcal/mol)

>  <smiles>  (16) 
S=c1[nH]c2cccc3c2n1CC(N(CCCN1CCOCC1)CCN1CCOCC1)C3

>  <score_type>  (16) 
oracle

>  <origin>  (16) 
adg

>  <m_score__min__energy>  (16) 
-10.41

>  <m_primary>  (16) 
energy

$$$$
16:0
     RDKit          3D

 37 38  0  0  0  0  0  0  0  0999 V2000
   58.3530   27.0550   44.7510 C   0  0  0  0  0  0  0  0  0  0  0  0
   57.7700   27.7310   43.5150 C   0  0  0  0  0  0  0  0  0  0  0  0
   57.6300   29.1700   43.7320 N   0  0  0  0  0  0  0  0  0  0  0  0
   56.4830   29.7440   44.3800 C   0  0  0  0  0  0  0  0  0  0  0  0
   55.6220   28.9990   44.9170 O   0  0  0  0  0  0  0  0  0  0  0  0
   56.3280   31.1640   44.4790 N   0  0  0  0  0  0  0  0  0  0  0  0
   57.2960   32.0810   45.0050 C   0  0  0  0  0  0  0  0  0  0  0  0
   57.5620   33.3120   44.3820 C   0  0  0  0  0  0  0  0  0  0  0  0
   58.4910   34.1960   44.9360 C   0  0  0  0  0  0  0  0  0  0  0  0
   59.1530   33.8730   46.1320 C   0  0  0  0  0  0  0  0  0  0  0  0
   60.1700   34.8200   46.7110 C   0  0  0  0  0  0  0  0  0  0  0  0
   60.7280   34.2740   47.9960 C   0  0  0  0  0  0  0  0  0  0  0  0
   59.9330   34.2540   49.0990 N   0  0  0  0  0  0  0  0  0  0  0  0
   60.3820   33.8050   50.3010 C   0  0  0  0  0  0  0  0  0  0  0  0
   59.4740   33.8030   51.4890 C   0  0  0  0  0  0  0  0  0  0  0  0
   61.7020   33.3600   50.4110 C   0  0  0  0  0  0  0  0  0  0  0  0
   62.5070   33.3860   49.3180 N   0  0  0  0  0  0  0  0  0  0  0  0
   62.0620   33.8310   48.1150 C   0  0  0  0  0  0  0  0  0  0  0  0
   63.1760   33.8350   46.7560 Cl  0  0  0  0  0  0  0  0  0  0  0  0
   58.8650   32.6550   46.7680 C   0  0  0  0  0  0  0  0  0  0  0  0
   57.9350   31.7720   46.2120 C   0  0  0  0  0  0  0  0  0  0  0  0
   57.9441   27.5291   45.6555 H   0  0  0  0  0  0  0  0  0  0  0  0
   58.0876   25.9875   44.7446 H   0  0  0  0  0  0  0  0  0  0  0  0
   59.4479   27.1607   44.7446 H   0  0  0  0  0  0  0  0  0  0  0  0
   58.4391   27.5581   42.6592 H   0  0  0  0  0  0  0  0  0  0  0  0
   56.7761   27.3048   43.3139 H   0  0  0  0  0  0  0  0  0  0  0  0
   58.3980   29.7930   43.4000 H   0  0  0  0  0  0  0  0  0  0  0  0
   57.0364   33.5808   43.4539 H   0  0  0  0  0  0  0  0  0  0  0  0
   58.7053   35.1504   44.4328 H   0  0  0  0  0  0  0  0  0  0  0  0
   60.9893   34.9562   45.9898 H   0  0  0  0  0  0  0  0  0  0  0  0
   59.6813   35.7837   46.9170 H   0  0  0  0  0  0  0  0  0  0  0  0
   60.0753   33.8043   52.4101 H   0  0  0  0  0  0  0  0  0  0  0  0
   58.8374   34.6997   51.4654 H   0  0  0  0  0  0  0  0  0  0  0  0
   58.8413   32.9035   51.4654 H   0  0  0  0  0  0  0  0  0  0  0  0
   62.0853   32.9921   51.3742 H   0  0  0  0  0  0  0  0  0  0  0  0
   59.3735   32.3944   47.7080 H   0  0  0  0  0  0  0  0  0  0  0  0
   57.7034   30.8276   46.7263 H   0  0  0  0  0  0  0  0  0  0  0  0
  1  2  1  0
  2  3  1  0
  3  4  1  0
  4  5  2  0
  4  6  1  0
  6  7  1  0
  7  8  2  0
  8  9  1  0
  9 10  2  0
 10 11  1  0
 11 12  1  0
 12 13  2  0
 13 14  1  0
 14 15  1  0
 14 16  2  0
 16 17  1  0
 17 18  2  0
 18 19  1  0
 10 20  1  0
 20 21  2  0
 21  7  1  0
 18 12  1  0
  1 22  1  0
  1 23  1  0
  1 24  1  0
  2 25  1  0
  2 26  1  0
  3 27  1  0
  8 28  1  0
  9 29  1  0
 11 30  1  0
 11 31  1  0
 15 32  1  0
 15 33  1  0
 15 34  1  0
 16 35  1  0
 20 36  1  0
 21 37  1  0
M  CHG  1   6  -1
M  END
>  <UniqueID>  (17) 
16

>  <SMILES>  (17) 
CCNC(=O)[N-]c1ccc(Cc2nc(C)cnc2Cl)cc1

>  <Energy>  (17) 
36.352672349312186

>  <Genealogy>  (17) 
CCNC(=O)[N-]c1ccc(Cc2nc(C)cnc2Cl)cc1 (protonated)
CCNC(=O)[N-]c1ccc(Cc2nc(C)cnc2Cl)cc1 (3D coordinates assigned)
CCNC(=O)[N-]c1ccc(Cc2nc(C)cnc2Cl)cc1 (optimized conformer: 36.352672349312186 kcal/mol)

>  <smiles>  (17) 
CCNC(=O)Nc1ccc(Cc2nc(C)cnc2Cl)cc1

>  <score_type>  (17) 
oracle

>  <origin>  (17) 
adg

>  <m_score__min__energy>  (17) 
-9.5399999999999991

>  <m_primary>  (17) 
energy

$$$$
17:0
     RDKit          3D

 45 49  0  0  0  0  0  0  0  0999 V2000
   54.4060   29.9300   53.1900 C   0  0  0  0  0  0  0  0  0  0  0  0
   55.7450   30.2470   53.5550 O   0  0  0  0  0  0  0  0  0  0  0  0
   56.7600   30.5680   52.6420 C   0  0  0  0  0  0  0  0  0  0  0  0
   57.7830   29.6630   52.3000 C   0  0  0  0  0  0  0  0  0  0  0  0
   58.7710   30.0310   51.3820 C   0  0  0  0  0  0  0  0  0  0  0  0
   58.7500   31.3020   50.7850 C   0  0  0  0  0  0  0  0  0  0  0  0
   59.8020   31.7050   49.8240 C   0  0  0  0  0  0  0  0  0  0  0  0
   60.9940   32.2050   50.2770 N   0  0  0  0  0  0  0  0  0  0  0  0
   61.9930   32.5790   49.4150 C   0  0  0  0  0  0  0  0  0  0  0  0
   63.2120   33.0800   49.8960 C   0  0  0  0  0  0  0  0  0  0  0  0
   64.2170   33.4570   49.0000 C   0  0  0  0  0  0  0  0  0  0  0  0
   64.0150   33.3380   47.6210 C   0  0  0  0  0  0  0  0  0  0  0  0
   62.8060   32.8400   47.1260 C   0  0  0  0  0  0  0  0  0  0  0  0
   61.7930   32.4570   48.0180 C   0  0  0  0  0  0  0  0  0  0  0  0
   60.5980   31.9700   47.5920 N   0  0  0  0  0  0  0  0  0  0  0  0
   60.2050   31.8130   46.3390 N   0  0  0  0  0  0  0  0  0  0  0  0
   58.9380   31.3360   46.3770 C   0  0  0  0  0  0  0  0  0  0  0  0
   58.1420   31.0370   45.1620 C   0  0  0  0  0  0  0  0  0  0  0  0
   58.1430   31.9400   44.0830 C   0  0  0  0  0  0  0  0  0  0  0  0
   57.3970   31.6710   42.9320 C   0  0  0  0  0  0  0  0  0  0  0  0
   56.6430   30.4990   42.8420 C   0  0  0  0  0  0  0  0  0  0  0  0
   56.6340   29.5940   43.9060 C   0  0  0  0  0  0  0  0  0  0  0  0
   57.3780   29.8570   45.0600 C   0  0  0  0  0  0  0  0  0  0  0  0
   58.5260   31.1940   47.7020 C   0  0  0  0  0  0  0  0  0  0  0  0
   59.6220   31.6030   48.4360 C   0  0  0  0  0  0  0  0  0  0  0  0
   57.7370   32.2070   51.1380 C   0  0  0  0  0  0  0  0  0  0  0  0
   56.7490   31.8390   52.0560 C   0  0  0  0  0  0  0  0  0  0  0  0
   53.8024   29.7871   54.0984 H   0  0  0  0  0  0  0  0  0  0  0  0
   53.9836   30.7530   52.5948 H   0  0  0  0  0  0  0  0  0  0  0  0
   54.3974   29.0050   52.5948 H   0  0  0  0  0  0  0  0  0  0  0  0
   57.8049   28.6626   52.7569 H   0  0  0  0  0  0  0  0  0  0  0  0
   59.5703   29.3202   51.1255 H   0  0  0  0  0  0  0  0  0  0  0  0
   61.1540   32.2860   51.3080 H   0  0  0  0  0  0  0  0  0  0  0  0
   63.3773   33.1763   50.9792 H   0  0  0  0  0  0  0  0  0  0  0  0
   65.1713   33.8491   49.3815 H   0  0  0  0  0  0  0  0  0  0  0  0
   64.8107   33.6375   46.9231 H   0  0  0  0  0  0  0  0  0  0  0  0
   62.6495   32.7488   46.0410 H   0  0  0  0  0  0  0  0  0  0  0  0
   58.7354   32.8647   44.1457 H   0  0  0  0  0  0  0  0  0  0  0  0
   57.4038   32.3844   42.0948 H   0  0  0  0  0  0  0  0  0  0  0  0
   56.0573   30.2889   41.9349 H   0  0  0  0  0  0  0  0  0  0  0  0
   56.0395   28.6712   43.8356 H   0  0  0  0  0  0  0  0  0  0  0  0
   57.3671   29.1389   45.8932 H   0  0  0  0  0  0  0  0  0  0  0  0
   57.5542   30.8389   48.0754 H   0  0  0  0  0  0  0  0  0  0  0  0
   57.7204   33.2114   50.6898 H   0  0  0  0  0  0  0  0  0  0  0  0
   55.9562   32.5544   52.3200 H   0  0  0  0  0  0  0  0  0  0  0  0
  1  2  1  0
  2  3  1  0
  3  4  2  0
  4  5  1  0
  5  6  2  0
  6  7  1  0
  7  8  2  0
  8  9  1  0
  9 10  2  0
 10 11  1  0
 11 12  2  0
 12 13  1  0
 13 14  2  0
 14 15  1  0
 15 16  1  0
 16 17  2  0
 17 18  1  0
 18 19  2  0
 19 20  1  0
 20 21  2  0
 21 22  1  0
 22 23  2  0
 17 24  1  0
 24 25  2  0
  6 26  1  0
 26 27  2  0
 27  3  1  0
 25  7  1  0
 14  9  1  0
 25 15  1  0
 23 18  1  0
  1 28  1  0
  1 29  1  0
  1 30  1  0
  4 31  1  0
  5 32  1  0
  8 33  1  0
 10 34  1  0
 11 35  1  0
 12 36  1  0
 13 37  1  0
 19 38  1  0
 20 39  1  0
 21 40  1  0
 22 41  1  0
 23 42  1  0
 24 43  1  0
 26 44  1  0
 27 45  1  0
M  CHG  1   8   1
M  END
>  <UniqueID>  (18) 
17

>  <SMILES>  (18) 
COc1ccc(-c2[nH+]c3ccccc3n3nc(-c4ccccc4)cc23)cc1

>  <Energy>  (18) 
97.75025352619109

>  <Genealogy>  (18) 
COc1ccc(-c2[nH+]c3ccccc3n3nc(-c4ccccc4)cc23)cc1 (protonated)
COc1ccc(-c2[nH+]c3ccccc3n3nc(-c4ccccc4)cc23)cc1 (3D coordinates assigned)
COc1ccc(-c2[nH+]c3ccccc3n3nc(-c4ccccc4)cc23)cc1 (optimized conformer: 97.75025352619109 kcal/mol)

>  <smiles>  (18) 
COc1ccc(-c2nc3ccccc3n3nc(-c4ccccc4)cc23)cc1

>  <score_type>  (18) 
oracle

>  <origin>  (18) 
adg

>  <m_score__min__energy>  (18) 
-6.2000000000000002

>  <m_primary>  (18) 
energy

$$$$
18:0
     RDKit          3D

 45 46  0  0  0  0  0  0  0  0999 V2000
   60.8870   30.0670   48.0880 C   0  0  0  0  0  0  0  0  0  0  0  0
   60.8040   30.4000   46.6020 C   0  0  0  0  0  0  0  0  0  0  0  0
   59.7090   29.5850   45.9090 C   0  0  0  0  0  0  0  0  0  0  0  0
   58.5920   29.3690   46.8360 N   0  0  0  0  0  0  0  0  0  0  0  0
   57.5260   28.5900   46.1940 C   0  0  0  0  0  0  0  0  0  0  0  0
   57.5990   28.7740   44.6700 C   0  0  0  0  0  0  0  0  0  0  0  0
   56.4770   29.6680   44.0830 C   0  0  1  0  0  0  0  0  0  0  0  0
   56.3030   29.3510   42.5890 C   0  0  0  0  0  0  0  0  0  0  0  0
   55.2880   29.3420   44.7170 F   0  0  0  0  0  0  0  0  0  0  0  0
   56.7190   31.1910   44.2800 C   0  0  0  0  0  0  0  0  0  0  0  0
   57.4050   31.5050   45.5400 N   0  0  0  0  0  0  0  0  0  0  0  0
   58.1270   32.7290   45.7800 C   0  0  0  0  0  0  0  0  0  0  0  0
   58.2840   33.6350   44.7180 C   0  0  0  0  0  0  0  0  0  0  0  0
   59.0410   34.7980   44.8770 C   0  0  0  0  0  0  0  0  0  0  0  0
   59.6340   35.0900   46.1060 C   0  0  0  0  0  0  0  0  0  0  0  0
   59.4490   34.2270   47.1940 C   0  0  0  0  0  0  0  0  0  0  0  0
   60.0100   34.5180   48.4440 C   0  0  0  0  0  0  0  0  0  0  0  0
   59.7830   33.6640   49.5230 C   0  0  0  0  0  0  0  0  0  0  0  0
   58.9910   32.5280   49.3450 C   0  0  0  0  0  0  0  0  0  0  0  0
   58.4610   32.2510   48.1240 N   0  0  0  0  0  0  0  0  0  0  0  0
   58.6770   33.0490   47.0410 C   0  0  0  0  0  0  0  0  0  0  0  0
   60.6626   30.9674   48.6786 H   0  0  0  0  0  0  0  0  0  0  0  0
   60.1577   29.2795   48.3286 H   0  0  0  0  0  0  0  0  0  0  0  0
   61.9006   29.7139   48.3286 H   0  0  0  0  0  0  0  0  0  0  0  0
   60.5806   31.4709   46.4868 H   0  0  0  0  0  0  0  0  0  0  0  0
   61.7690   30.1511   46.1363 H   0  0  0  0  0  0  0  0  0  0  0  0
   59.3499   30.1322   45.0249 H   0  0  0  0  0  0  0  0  0  0  0  0
   60.1192   28.6123   45.5997 H   0  0  0  0  0  0  0  0  0  0  0  0
   58.1980   30.3030   47.0980 H   0  0  0  0  0  0  0  0  0  0  0  0
   57.6514   27.5254   46.4406 H   0  0  0  0  0  0  0  0  0  0  0  0
   56.5485   28.9397   46.5577 H   0  0  0  0  0  0  0  0  0  0  0  0
   58.5687   29.2314   44.4239 H   0  0  0  0  0  0  0  0  0  0  0  0
   57.4730   27.7760   44.2249 H   0  0  0  0  0  0  0  0  0  0  0  0
   55.7765   28.3918   42.4766 H   0  0  0  0  0  0  0  0  0  0  0  0
   55.7167   30.1494   42.1106 H   0  0  0  0  0  0  0  0  0  0  0  0
   57.2913   29.2850   42.1106 H   0  0  0  0  0  0  0  0  0  0  0  0
   57.3335   31.5591   43.4452 H   0  0  0  0  0  0  0  0  0  0  0  0
   55.7338   31.6793   44.3113 H   0  0  0  0  0  0  0  0  0  0  0  0
   57.1110   30.9520   46.3770 H   0  0  0  0  0  0  0  0  0  0  0  0
   57.8052   33.4261   43.7499 H   0  0  0  0  0  0  0  0  0  0  0  0
   59.1704   35.4871   44.0294 H   0  0  0  0  0  0  0  0  0  0  0  0
   60.2460   35.9968   46.2204 H   0  0  0  0  0  0  0  0  0  0  0  0
   60.6284   35.4183   48.5744 H   0  0  0  0  0  0  0  0  0  0  0  0
   60.2244   33.8836   50.5063 H   0  0  0  0  0  0  0  0  0  0  0  0
   58.7956   31.8562   50.1938 H   0  0  0  0  0  0  0  0  0  0  0  0
  1  2  1  0
  2  3  1  0
  3  4  1  0
  4  5  1  0
  5  6  1  0
  6  7  1  0
  7  8  1  0
  7  9  1  1
  7 10  1  0
 10 11  1  0
 11 12  1  0
 12 13  2  0
 13 14  1  0
 14 15  2  0
 15 16  1  0
 16 17  2  0
 17 18  1  0
 18 19  2  0
 19 20  1  0
 20 21  2  0
 21 12  1  0
 21 16  1  0
  1 22  1  0
  1 23  1  0
  1 24  1  0
  2 25  1  0
  2 26  1  0
  3 27  1  0
  3 28  1  0
  4 29  1  0
  5 30  1  0
  5 31  1  0
  6 32  1  0
  6 33  1  0
  8 34  1  0
  8 35  1  0
  8 36  1  0
 10 37  1  0
 10 38  1  0
 11 39  1  0
 13 40  1  0
 14 41  1  0
 15 42  1  0
 17 43  1  0
 18 44  1  0
 19 45  1  0
M  END
>  <UniqueID>  (19) 
18

>  <SMILES>  (19) 
CCCNCC[C@@](C)(F)CNc1cccc2cccnc12

>  <Energy>  (19) 
38.624367655174034

>  <Genealogy>  (19) 
CCCNCC[C@@](C)(F)CNc1cccc2cccnc12 (chirality)
CCCNCC[C@@](C)(F)CNc1cccc2cccnc12 (3D coordinates assigned)
CCCNCC[C@@](C)(F)CNc1cccc2cccnc12 (optimized conformer: 38.624367655174034 kcal/mol)

>  <smiles>  (19) 
CCCNCCC(C)(F)CNc1cccc2cccnc12

>  <score_type>  (19) 
oracle

>  <origin>  (19) 
adg

>  <m_score__min__energy>  (19) 
-6.4400000000000004

>  <m_primary>  (19) 
energy

$$$$
19:0
     RDKit          3D

 34 36  0  0  0  0  0  0  0  0999 V2000
   57.1550   32.9520   44.9270 C   0  0  0  0  0  0  0  0  0  0  0  0
   57.9250   34.1100   44.8680 C   0  0  0  0  0  0  0  0  0  0  0  0
   58.7160   34.0740   45.9960 C   0  0  0  0  0  0  0  0  0  0  0  0
   59.6840   34.9620   46.4520 C   0  0  0  0  0  0  0  0  0  0  0  0
   60.3420   34.6540   47.6560 C   0  0  0  0  0  0  0  0  0  0  0  0
   60.0060   33.4850   48.3890 C   0  0  0  0  0  0  0  0  0  0  0  0
   60.7460   33.1480   49.6620 C   0  0  0  0  0  0  0  0  0  0  0  0
   62.1130   32.5970   49.4730 N   0  0  0  0  0  0  0  0  0  0  0  0
   62.1820   31.3970   48.6010 C   0  0  0  0  0  0  0  0  0  0  0  0
   62.4860   31.7140   47.1260 C   0  0  0  0  0  0  0  0  0  0  0  0
   63.6620   32.5740   47.0000 N   0  0  0  0  0  0  0  0  0  0  0  0
   63.4230   33.8400   47.6930 C   0  0  0  0  0  0  0  0  0  0  0  0
   63.1580   33.6160   49.1920 C   0  0  0  0  0  0  0  0  0  0  0  0
   59.0390   32.5920   47.8720 C   0  0  0  0  0  0  0  0  0  0  0  0
   58.4060   32.9280   46.6770 C   0  0  0  0  0  0  0  0  0  0  0  0
   57.4540   32.2330   46.0350 N   0  0  0  0  0  0  0  0  0  0  0  0
   56.4058   32.6606   44.1761 H   0  0  0  0  0  0  0  0  0  0  0  0
   57.9062   34.8864   44.0890 H   0  0  0  0  0  0  0  0  0  0  0  0
   59.9271   35.8754   45.8894 H   0  0  0  0  0  0  0  0  0  0  0  0
   61.1261   35.3263   48.0344 H   0  0  0  0  0  0  0  0  0  0  0  0
   60.8295   34.0672   50.2604 H   0  0  0  0  0  0  0  0  0  0  0  0
   60.1628   32.3550   50.1529 H   0  0  0  0  0  0  0  0  0  0  0  0
   62.3540   32.2370   50.4300 H   0  0  0  0  0  0  0  0  0  0  0  0
   62.9738   30.7361   48.9834 H   0  0  0  0  0  0  0  0  0  0  0  0
   61.1885   30.9255   48.6278 H   0  0  0  0  0  0  0  0  0  0  0  0
   62.6709   30.7727   46.5877 H   0  0  0  0  0  0  0  0  0  0  0  0
   61.6212   32.2427   46.6986 H   0  0  0  0  0  0  0  0  0  0  0  0
   64.4870   32.0960   47.4340 H   0  0  0  0  0  0  0  0  0  0  0  0
   64.3074   34.4839   47.5779 H   0  0  0  0  0  0  0  0  0  0  0  0
   62.5350   34.3153   47.2509 H   0  0  0  0  0  0  0  0  0  0  0  0
   64.0961   33.2895   49.6646 H   0  0  0  0  0  0  0  0  0  0  0  0
   62.7908   34.5703   49.5975 H   0  0  0  0  0  0  0  0  0  0  0  0
   58.7933   31.6580   48.3986 H   0  0  0  0  0  0  0  0  0  0  0  0
   57.0290   31.3250   46.3260 H   0  0  0  0  0  0  0  0  0  0  0  0
  1  2  2  0
  2  3  1  0
  3  4  2  0
  4  5  1  0
  5  6  2  0
  6  7  1  0
  7  8  1  0
  8  9  1  0
  9 10  1  0
 10 11  1  0
 11 12  1  0
 12 13  1  0
  6 14  1  0
 14 15  2  0
 15 16  1  0
 16  1  1  0
 15  3  1  0
 13  8  1  0
  1 17  1  0
  2 18  1  0
  4 19  1  0
  5 20  1  0
  7 21  1  0
  7 22  1  0
  8 23  1  0
  9 24  1  0
  9 25  1  0
 10 26  1  0
 10 27  1  0
 11 28  1  0
 12 29  1  0
 12 30  1  0
 13 31  1  0
 13 32  1  0
 14 33  1  0
 16 34  1  0
M  CHG  1   8   1
M  END
>  <UniqueID>  (20) 
19

>  <SMILES>  (20) 
c1cc2ccc(C[NH+]3CCNCC3)cc2[nH]1

>  <Energy>  (20) 
76.88771986597547

>  <Genealogy>  (20) 
c1cc2ccc(C[NH+]3CCNCC3)cc2[nH]1 (protonated)
c1cc2ccc(C[NH+]3CCNCC3)cc2[nH]1 (3D coordinates assigned)
c1cc2ccc(C[NH+]3CCNCC3)cc2[nH]1 (nonaromatic ring conformer: 76.88771986597547 kcal/mol)

>  <smiles>  (20) 
c1cc2ccc(CN3CCNCC3)cc2[nH]1

>  <score_type>  (20) 
oracle

>  <origin>  (20) 
adg

>  <m_score__min__energy>  (20) 
-5.04

>  <m_primary>  (20) 
energy

$$$$
20:0
     RDKit          3D

 45 47  0  0  0  0  0  0  0  0999 V2000
   61.6040   33.1160   51.2530 C   0  0  0  0  0  0  0  0  0  0  0  0
   61.1760   32.3950   50.1020 O   0  0  0  0  0  0  0  0  0  0  0  0
   60.6610   32.9900   48.9390 C   0  0  0  0  0  0  0  0  0  0  0  0
   59.3280   32.8030   48.5310 C   0  0  0  0  0  0  0  0  0  0  0  0
   58.8460   33.3960   47.3550 C   0  0  0  0  0  0  0  0  0  0  0  0
   59.7110   34.1730   46.5680 C   0  0  0  0  0  0  0  0  0  0  0  0
   61.0310   34.3900   46.9900 C   0  0  0  0  0  0  0  0  0  0  0  0
   61.5150   33.7910   48.1680 C   0  0  0  0  0  0  0  0  0  0  0  0
   62.8390   33.9640   48.6020 O   0  0  0  0  0  0  0  0  0  0  0  0
   63.9200   33.1030   48.2560 C   0  0  0  0  0  0  0  0  0  0  0  0
   59.2290   34.8010   45.2870 C   0  0  0  0  0  0  0  0  0  0  0  0
   58.1110   34.0580   44.6670 N   0  0  1  0  0  0  0  0  0  0  0  0
   58.5140   32.8860   43.8410 C   0  0  0  0  0  0  0  0  0  0  0  0
   57.8530   31.5740   44.2060 C   0  0  0  0  0  0  0  0  0  0  0  0
   58.4510   30.7060   45.1360 C   0  0  0  0  0  0  0  0  0  0  0  0
   57.8240   29.5110   45.4950 C   0  0  0  0  0  0  0  0  0  0  0  0
   56.6060   29.1490   44.9050 C   0  0  0  0  0  0  0  0  0  0  0  0
   55.9570   27.9320   45.2830 N   0  0  0  0  0  0  0  0  0  0  0  0
   56.0340   29.9820   43.9350 C   0  0  0  0  0  0  0  0  0  0  0  0
   56.6600   31.1790   43.5770 C   0  0  0  0  0  0  0  0  0  0  0  0
   57.0030   33.8050   45.6190 C   0  0  0  0  0  0  0  0  0  0  0  0
   57.4260   33.1280   46.9370 C   0  0  0  0  0  0  0  0  0  0  0  0
   61.2863   32.5808   52.1600 H   0  0  0  0  0  0  0  0  0  0  0  0
   62.7005   33.2036   51.2440 H   0  0  0  0  0  0  0  0  0  0  0  0
   61.1558   34.1205   51.2440 H   0  0  0  0  0  0  0  0  0  0  0  0
   58.6549   32.1837   49.1421 H   0  0  0  0  0  0  0  0  0  0  0  0
   61.6942   35.0346   46.3945 H   0  0  0  0  0  0  0  0  0  0  0  0
   64.3952   32.7245   49.1730 H   0  0  0  0  0  0  0  0  0  0  0  0
   63.5402   32.2573   47.6639 H   0  0  0  0  0  0  0  0  0  0  0  0
   64.6593   33.6624   47.6639 H   0  0  0  0  0  0  0  0  0  0  0  0
   58.8923   35.8256   45.5034 H   0  0  0  0  0  0  0  0  0  0  0  0
   60.0686   34.7875   44.5764 H   0  0  0  0  0  0  0  0  0  0  0  0
   57.7060   34.7260   43.9660 H   0  0  0  0  0  0  0  0  0  0  0  0
   58.2677   33.1095   42.7925 H   0  0  0  0  0  0  0  0  0  0  0  0
   59.5895   32.7435   44.0229 H   0  0  0  0  0  0  0  0  0  0  0  0
   59.4202   30.9701   45.5843 H   0  0  0  0  0  0  0  0  0  0  0  0
   58.2879   28.8518   46.2435 H   0  0  0  0  0  0  0  0  0  0  0  0
   55.1450   27.9410   45.9410 H   0  0  0  0  0  0  0  0  0  0  0  0
   56.2800   27.0140   44.9040 H   0  0  0  0  0  0  0  0  0  0  0  0
   55.0884   29.6928   43.4532 H   0  0  0  0  0  0  0  0  0  0  0  0
   56.2161   31.8161   42.7979 H   0  0  0  0  0  0  0  0  0  0  0  0
   56.5356   34.7700   45.8645 H   0  0  0  0  0  0  0  0  0  0  0  0
   56.3173   33.1060   45.1177 H   0  0  0  0  0  0  0  0  0  0  0  0
   56.7603   33.4874   47.7356 H   0  0  0  0  0  0  0  0  0  0  0  0
   57.3522   32.0438   46.7665 H   0  0  0  0  0  0  0  0  0  0  0  0
  1  2  1  0
  2  3  1  0
  3  4  2  0
  4  5  1  0
  5  6  2  0
  6  7  1  0
  7  8  2  0
  8  9  1  0
  9 10  1  0
  6 11  1  0
 11 12  1  0
 12 13  1  0
 13 14  1  0
 14 15  2  0
 15 16  1  0
 16 17  2  0
 17 18  1  0
 17 19  1  0
 19 20  2  0
 12 21  1  0
 21 22  1  0
  8  3  1  0
 20 14  1  0
 22  5  1  0
  1 23  1  0
  1 24  1  0
  1 25  1  0
  4 26  1  0
  7 27  1  0
 10 28  1  0
 10 29  1  0
 10 30  1  0
 11 31  1  0
 11 32  1  0
 12 33  1  6
 13 34  1  0
 13 35  1  0
 15 36  1  0
 16 37  1  0
 18 38  1  0
 18 39  1  0
 19 40  1  0
 20 41  1  0
 21 42  1  0
 21 43  1  0
 22 44  1  0
 22 45  1  0
M  CHG  1  12   1
M  END
>  <UniqueID>  (21) 
20

>  <SMILES>  (21) 
COc1cc2c(cc1OC)C[N@@H+](Cc1ccc(N)cc1)CC2

>  <Energy>  (21) 
54.50009354992769

>  <Genealogy>  (21) 
COc1cc2c(cc1OC)C[NH+](Cc1ccc(N)cc1)CC2 (protonated)
COc1cc2c(cc1OC)C[N@@H+](Cc1ccc(N)cc1)CC2 (chirality)
COc1cc2c(cc1OC)C[N@@H+](Cc1ccc(N)cc1)CC2 (3D coordinates assigned)
COc1cc2c(cc1OC)C[N@@H+](Cc1ccc(N)cc1)CC2 (nonaromatic ring conformer: 54.50009354992769 kcal/mol)

>  <smiles>  (21) 
COc1cc2c(cc1OC)CN(Cc1ccc(N)cc1)CC2

>  <score_type>  (21) 
oracle

>  <origin>  (21) 
adg

>  <m_score__min__energy>  (21) 
-5.9699999999999998

>  <m_primary>  (21) 
energy

$$$$
21:0
     RDKit          3D

 38 40  0  0  0  0  0  0  0  0999 V2000
   64.2951   33.1296   47.5502 H   0  0  0  0  0  0  0  0  0  0  0  0
   63.2150   32.9370   47.4710 C   0  0  0  0  0  0  0  0  0  0  0  0
   62.3790   33.8870   46.8830 C   0  0  0  0  0  0  0  0  0  0  0  0
   62.8038   34.8220   46.4889 H   0  0  0  0  0  0  0  0  0  0  0  0
   61.0010   33.6540   46.7930 C   0  0  0  0  0  0  0  0  0  0  0  0
   59.9740   34.8760   46.0580 Cl  0  0  0  0  0  0  0  0  0  0  0  0
   60.4520   32.4670   47.3080 C   0  0  0  0  0  0  0  0  0  0  0  0
   59.0350   32.2520   47.2230 N   0  0  0  0  0  0  0  0  0  0  0  0
   58.4540   31.6640   46.2220 C   0  0  0  0  0  0  0  0  0  0  0  0
   58.6440   30.3570   45.9100 N   0  0  0  0  0  0  0  0  0  0  0  0
   57.9030   30.0170   44.8270 C   0  0  0  0  0  0  0  0  0  0  0  0
   57.8480   28.7530   44.2350 C   0  0  0  0  0  0  0  0  0  0  0  0
   58.6280   27.6530   44.7470 N   0  0  0  0  0  0  0  0  0  0  0  0
   60.0220   27.8720   45.1600 C   0  0  0  0  0  0  0  0  0  0  0  0
   60.1618   28.9332   45.4137 H   0  0  0  0  0  0  0  0  0  0  0  0
   60.6870   27.5891   44.3307 H   0  0  0  0  0  0  0  0  0  0  0  0
   60.3600   27.0170   46.3760 C   0  0  0  0  0  0  0  0  0  0  0  0
   60.1372   27.5807   47.2939 H   0  0  0  0  0  0  0  0  0  0  0  0
   59.7581   26.0965   46.3557 H   0  0  0  0  0  0  0  0  0  0  0  0
   61.4286   26.7569   46.3557 H   0  0  0  0  0  0  0  0  0  0  0  0
   58.0010   26.3390   44.9540 C   0  0  0  0  0  0  0  0  0  0  0  0
   57.5901   25.9839   43.9974 H   0  0  0  0  0  0  0  0  0  0  0  0
   58.7670   25.6456   45.3313 H   0  0  0  0  0  0  0  0  0  0  0  0
   56.8730   26.4150   45.9820 C   0  0  0  0  0  0  0  0  0  0  0  0
   57.2985   26.3863   46.9960 H   0  0  0  0  0  0  0  0  0  0  0  0
   56.3146   27.3528   45.8450 H   0  0  0  0  0  0  0  0  0  0  0  0
   56.1939   25.5606   45.8450 H   0  0  0  0  0  0  0  0  0  0  0  0
   57.0240   28.5850   43.1550 N   0  0  0  0  0  0  0  0  0  0  0  0
   56.9740   27.6620   42.6700 H   0  0  0  0  0  0  0  0  0  0  0  0
   56.2710   29.6170   42.6620 C   0  0  0  0  0  0  0  0  0  0  0  0
   55.6186   29.4492   41.7924 H   0  0  0  0  0  0  0  0  0  0  0  0
   56.3230   30.8510   43.2400 N   0  0  0  0  0  0  0  0  0  0  0  0
   57.1340   31.0330   44.3070 C   0  0  0  0  0  0  0  0  0  0  0  0
   57.3550   32.4420   45.1930 S   0  0  0  0  0  0  0  0  0  0  0  0
   61.3080   31.4950   47.8740 C   0  0  0  0  0  0  0  0  0  0  0  0
   60.6970   29.9420   48.4320 Cl  0  0  0  0  0  0  0  0  0  0  0  0
   62.6820   31.7420   47.9590 C   0  0  0  0  0  0  0  0  0  0  0  0
   63.3460   30.9914   48.4124 H   0  0  0  0  0  0  0  0  0  0  0  0
  1  2  1  0
  2  3  2  0
  3  4  1  0
  3  5  1  0
  5  6  1  0
  5  7  2  0
  7  8  1  0
  8  9  2  0
  9 10  1  0
 10 11  1  0
 11 12  2  0
 12 13  1  0
 13 14  1  0
 14 15  1  0
 14 16  1  0
 14 17  1  0
 17 18  1  0
 17 19  1  0
 17 20  1  0
 13 21  1  0
 21 22  1  0
 21 23  1  0
 21 24  1  0
 24 25  1  0
 24 26  1  0
 24 27  1  0
 12 28  1  0
 28 29  1  0
 28 30  2  0
 30 31  1  0
 30 32  1  0
 32 33  2  0
 33 34  1  0
  7 35  1  0
 35 36  1  0
 35 37  2  0
 37 38  1  0
 37  2  1  0
 34  9  1  0
 33 11  1  0
M  CHG  2  10  -1  28   1
M  END
>  <UniqueID>  (22) 
21

>  <SMILES>  (22) 
CCN(CC)c1[nH+]cnc2s/c(=N/c3c(Cl)cccc3Cl)[n-]c12

>  <Energy>  (22) 
81.50864326662945

>  <Genealogy>  (22) 
CCN(CC)c1[nH+]cnc2sc(=Nc3c(Cl)cccc3Cl)[n-]c12 (protonated)
CCN(CC)c1[nH+]cnc2s/c(=N/c3c(Cl)cccc3Cl)[n-]c12 (cis-trans isomerization)
CCN(CC)c1[nH+]cnc2s/c(=N/c3c(Cl)cccc3Cl)[n-]c12 (3D coordinates assigned)
CCN(CC)c1[nH+]cnc2s/c(=N/c3c(Cl)cccc3Cl)[n-]c12 (optimized conformer: 81.50864326662945 kcal/mol)

>  <smiles>  (22) 
CCN(CC)c1ncnc2sc(=Nc3c(Cl)cccc3Cl)[nH]c12

>  <score_type>  (22) 
oracle

>  <origin>  (22) 
adg

>  <m_score__min__energy>  (22) 
-6.9400000000000004

>  <m_primary>  (22) 
energy

$$$$
22:0
     RDKit          3D

 30 32  0  0  0  0  0  0  0  0999 V2000
   58.1080   32.3590   41.5000 C   0  0  0  0  0  0  0  0  0  0  0  0
   57.5060   32.1510   42.7730 O   0  0  0  0  0  0  0  0  0  0  0  0
   58.0620   32.5530   43.9990 C   0  0  0  0  0  0  0  0  0  0  0  0
   58.7880   33.7580   44.1120 C   0  0  0  0  0  0  0  0  0  0  0  0
   59.3350   34.1450   45.3360 C   0  0  0  0  0  0  0  0  0  0  0  0
   59.1690   33.3420   46.4600 C   0  0  0  0  0  0  0  0  0  0  0  0
   58.4560   32.1470   46.3680 C   0  0  0  0  0  0  0  0  0  0  0  0
   57.8940   31.7360   45.1450 C   0  0  0  0  0  0  0  0  0  0  0  0
   57.1410   30.4560   45.0910 C   0  0  0  0  0  0  0  0  0  0  0  0
   55.9150   30.3140   44.5460 N   0  0  0  0  0  0  0  0  0  0  0  0
   55.6170   29.0600   44.7000 O   0  0  0  0  0  0  0  0  0  0  0  0
   56.6000   28.4480   45.3080 C   0  0  0  0  0  0  0  0  0  0  0  0
   56.6000   27.0220   45.6430 C   0  0  0  0  0  0  0  0  0  0  0  0
   57.6250   26.1290   45.4060 C   0  0  0  0  0  0  0  0  0  0  0  0
   57.1310   24.9420   45.9000 C   0  0  0  0  0  0  0  0  0  0  0  0
   57.8420   23.6310   45.9220 C   0  0  0  0  0  0  0  0  0  0  0  0
   55.9270   25.1450   46.3820 O   0  0  0  0  0  0  0  0  0  0  0  0
   55.5720   26.3910   46.2430 N   0  0  0  0  0  0  0  0  0  0  0  0
   57.6130   29.2900   45.5870 N   0  0  0  0  0  0  0  0  0  0  0  0
   59.1397   32.7155   41.6361 H   0  0  0  0  0  0  0  0  0  0  0  0
   58.1181   31.4122   40.9401 H   0  0  0  0  0  0  0  0  0  0  0  0
   57.5315   33.1100   40.9401 H   0  0  0  0  0  0  0  0  0  0  0  0
   58.9238   34.3977   43.2275 H   0  0  0  0  0  0  0  0  0  0  0  0
   59.8985   35.0866   45.4124 H   0  0  0  0  0  0  0  0  0  0  0  0
   59.6011   33.6504   47.4234 H   0  0  0  0  0  0  0  0  0  0  0  0
   58.3314   31.5182   47.2619 H   0  0  0  0  0  0  0  0  0  0  0  0
   58.6011   26.3193   44.9359 H   0  0  0  0  0  0  0  0  0  0  0  0
   58.0095   23.3222   46.9644 H   0  0  0  0  0  0  0  0  0  0  0  0
   57.2309   22.8738   45.4089 H   0  0  0  0  0  0  0  0  0  0  0  0
   58.8099   23.7302   45.4089 H   0  0  0  0  0  0  0  0  0  0  0  0
  1  2  1  0
  2  3  1  0
  3  4  2  0
  4  5  1  0
  5  6  2  0
  6  7  1  0
  7  8  2  0
  8  9  1  0
  9 10  2  0
 10 11  1  0
 11 12  1  0
 12 13  1  0
 13 14  1  0
 14 15  2  0
 15 16  1  0
 15 17  1  0
 17 18  1  0
 12 19  2  0
  8  3  1  0
 19  9  1  0
 18 13  2  0
  1 20  1  0
  1 21  1  0
  1 22  1  0
  4 23  1  0
  5 24  1  0
  6 25  1  0
  7 26  1  0
 14 27  1  0
 16 28  1  0
 16 29  1  0
 16 30  1  0
M  END
>  <UniqueID>  (23) 
22

>  <SMILES>  (23) 
COc1ccccc1-c1noc(-c2cc(C)on2)n1

>  <Energy>  (23) 
94.94128580513166

>  <Genealogy>  (23) 
COc1ccccc1-c1noc(-c2cc(C)on2)n1 (3D coordinates assigned)
COc1ccccc1-c1noc(-c2cc(C)on2)n1 (optimized conformer: 94.94128580513166 kcal/mol)

>  <smiles>  (23) 
COc1ccccc1-c1noc(-c2cc(C)on2)n1

>  <score_type>  (23) 
oracle

>  <origin>  (23) 
adg

>  <m_score__min__energy>  (23) 
-7.3799999999999999

>  <m_primary>  (23) 
energy

$$$$
23:0
     RDKit          3D

 46 49  0  0  0  0  0  0  0  0999 V2000
   56.7590   21.4160   43.0230 C   0  0  0  0  0  0  0  0  0  0  0  0
   55.9050   22.4510   43.4990 O   0  0  0  0  0  0  0  0  0  0  0  0
   56.3560   23.6730   44.0200 C   0  0  0  0  0  0  0  0  0  0  0  0
   57.3450   24.4460   43.3850 C   0  0  0  0  0  0  0  0  0  0  0  0
   57.7610   25.6590   43.9420 C   0  0  0  0  0  0  0  0  0  0  0  0
   57.1960   26.1250   45.1440 C   0  0  0  0  0  0  0  0  0  0  0  0
   57.6150   27.3730   45.7360 N   0  0  0  0  0  0  0  0  0  0  0  0
   58.1580   27.5550   46.9590 C   0  0  0  0  0  0  0  0  0  0  0  0
   58.4400   28.8960   47.1190 C   0  0  0  0  0  0  0  0  0  0  0  0
   59.1540   29.4910   48.2600 C   0  0  0  0  0  0  0  0  0  0  0  0
   58.5290   29.8000   49.3090 O   0  0  0  0  0  0  0  0  0  0  0  0
   60.5560   29.7560   48.1550 N   0  0  0  0  0  0  0  0  0  0  0  0
   61.1800   30.3300   46.9670 C   0  0  0  0  0  0  0  0  0  0  0  0
   61.9300   31.5830   47.3290 C   0  0  0  0  0  0  0  0  0  0  0  0
   61.2580   32.7020   47.8400 C   0  0  0  0  0  0  0  0  0  0  0  0
   61.9770   33.8410   48.2040 C   0  0  0  0  0  0  0  0  0  0  0  0
   63.3660   33.8490   48.0560 C   0  0  0  0  0  0  0  0  0  0  0  0
   64.0080   32.7550   47.5650 N   0  0  0  0  0  0  0  0  0  0  0  0
   63.3260   31.6330   47.2060 C   0  0  0  0  0  0  0  0  0  0  0  0
   58.0200   29.4900   45.9350 C   0  0  0  0  0  0  0  0  0  0  0  0
   58.0130   30.9200   45.5850 C   0  0  0  0  0  0  0  0  0  0  0  0
   58.1410   31.9930   46.4620 C   0  0  0  0  0  0  0  0  0  0  0  0
   58.0100   33.2380   45.8340 C   0  0  0  0  0  0  0  0  0  0  0  0
   57.7620   33.1520   44.4700 C   0  0  0  0  0  0  0  0  0  0  0  0
   57.6980   31.5250   44.0490 S   0  0  0  0  0  0  0  0  0  0  0  0
   57.5330   28.5400   45.1130 N   0  0  0  0  0  0  0  0  0  0  0  0
   56.2140   25.3430   45.7770 C   0  0  0  0  0  0  0  0  0  0  0  0
   55.7990   24.1320   45.2180 C   0  0  0  0  0  0  0  0  0  0  0  0
   57.1996   20.8820   43.8778 H   0  0  0  0  0  0  0  0  0  0  0  0
   56.1758   20.7116   42.4117 H   0  0  0  0  0  0  0  0  0  0  0  0
   57.5614   21.8548   42.4117 H   0  0  0  0  0  0  0  0  0  0  0  0
   57.7938   24.0939   42.4445 H   0  0  0  0  0  0  0  0  0  0  0  0
   58.5361   26.2540   43.4368 H   0  0  0  0  0  0  0  0  0  0  0  0
   58.3442   26.7663   47.7029 H   0  0  0  0  0  0  0  0  0  0  0  0
   61.8798   29.5995   46.5350 H   0  0  0  0  0  0  0  0  0  0  0  0
   60.3977   30.5785   46.2347 H   0  0  0  0  0  0  0  0  0  0  0  0
   60.1641   32.6822   47.9540 H   0  0  0  0  0  0  0  0  0  0  0  0
   61.4555   34.7234   48.6033 H   0  0  0  0  0  0  0  0  0  0  0  0
   63.9423   34.7427   48.3374 H   0  0  0  0  0  0  0  0  0  0  0  0
   65.0470   32.7760   47.4640 H   0  0  0  0  0  0  0  0  0  0  0  0
   63.8727   30.7611   46.8175 H   0  0  0  0  0  0  0  0  0  0  0  0
   58.3264   31.8751   47.5398 H   0  0  0  0  0  0  0  0  0  0  0  0
   58.0955   34.1944   46.3707 H   0  0  0  0  0  0  0  0  0  0  0  0
   57.6302   34.0014   43.7836 H   0  0  0  0  0  0  0  0  0  0  0  0
   55.7682   25.6881   46.7215 H   0  0  0  0  0  0  0  0  0  0  0  0
   55.0272   23.5340   45.7246 H   0  0  0  0  0  0  0  0  0  0  0  0
  1  2  1  0
  2  3  1  0
  3  4  2  0
  4  5  1  0
  5  6  2  0
  6  7  1  0
  7  8  1  0
  8  9  2  0
  9 10  1  0
 10 11  2  0
 10 12  1  0
 12 13  1  0
 13 14  1  0
 14 15  2  0
 15 16  1  0
 16 17  2  0
 17 18  1  0
 18 19  2  0
  9 20  1  0
 20 21  1  0
 21 22  2  0
 22 23  1  0
 23 24  2  0
 24 25  1  0
 20 26  2  0
  6 27  1  0
 27 28  2  0
 28  3  1  0
 26  7  1  0
 19 14  1  0
 25 21  1  0
  1 29  1  0
  1 30  1  0
  1 31  1  0
  4 32  1  0
  5 33  1  0
  8 34  1  0
 13 35  1  0
 13 36  1  0
 15 37  1  0
 16 38  1  0
 17 39  1  0
 18 40  1  0
 19 41  1  0
 22 42  1  0
 23 43  1  0
 24 44  1  0
 27 45  1  0
 28 46  1  0
M  CHG  2  12  -1  18   1
M  END
>  <UniqueID>  (24) 
23

>  <SMILES>  (24) 
COc1ccc(-n2cc(C(=O)[N-]Cc3ccc[nH+]c3)c(-c3cccs3)n2)cc1

>  <Energy>  (24) 
109.75035507724881

>  <Genealogy>  (24) 
COc1ccc(-n2cc(C(=O)[N-]Cc3ccc[nH+]c3)c(-c3cccs3)n2)cc1 (protonated)
COc1ccc(-n2cc(C(=O)[N-]Cc3ccc[nH+]c3)c(-c3cccs3)n2)cc1 (3D coordinates assigned)
COc1ccc(-n2cc(C(=O)[N-]Cc3ccc[nH+]c3)c(-c3cccs3)n2)cc1 (optimized conformer: 109.75035507724881 kcal/mol)

>  <smiles>  (24) 
COc1ccc(-n2cc(C(=O)NCc3cccnc3)c(-c3cccs3)n2)cc1

>  <score_type>  (24) 
oracle

>  <origin>  (24) 
adg

>  <m_score__min__energy>  (24) 
-7.8799999999999999

>  <m_primary>  (24) 
energy

$$$$
24:0
     RDKit          3D

 36 38  0  0  1  0  0  0  0  0999 V2000
   55.0920   26.2740   45.9930 N   0  0  0  0  0  0  0  0  0  0  0  0
   56.0470   25.4480   45.2920 C   0  0  0  0  0  0  0  0  0  0  0  0
   57.4230   26.1280   45.2440 C   0  0  0  0  0  0  0  0  0  0  0  0
   57.2970   27.3290   46.0200 N   0  0  0  0  0  0  0  0  0  0  0  0
   57.0180   28.4800   45.5490 C   0  0  0  0  0  0  0  0  0  0  0  0
   55.8300   28.7600   44.9430 N   0  0  0  0  0  0  0  0  0  0  0  0
   55.5500   29.9800   44.4510 C   0  0  0  0  0  0  0  0  0  0  0  0
   56.4890   30.9220   44.5780 N   0  0  0  0  0  0  0  0  0  0  0  0
   57.6750   30.7070   45.1640 C   0  0  0  0  0  0  0  0  0  0  0  0
   57.9790   29.4730   45.6710 C   0  0  0  0  0  0  0  0  0  0  0  0
   59.2000   29.4970   46.1960 N   0  0  0  0  0  0  0  0  0  0  0  0
   59.6650   30.7190   46.0270 N   0  0  0  0  0  0  0  0  0  0  0  0
   58.7540   31.4750   45.4000 N   0  0  0  0  0  0  0  0  0  0  0  0
   58.9820   32.8530   45.0910 C   0  0  0  0  0  0  0  0  0  0  0  0
   58.1100   33.8370   45.7850 C   0  0  2  0  0  0  0  0  0  0  0  0
   58.8980   34.9860   46.3290 C   0  0  0  0  0  0  0  0  0  0  0  0
   59.5710   34.3430   47.5340 C   0  0  0  0  0  0  0  0  0  0  0  0
   58.6730   33.1730   47.8340 C   0  0  0  0  0  0  0  0  0  0  0  0
   57.5950   33.2580   46.9600 O   0  0  0  0  0  0  0  0  0  0  0  0
   55.5190   26.8660   46.7140 H   0  0  0  0  0  0  0  0  0  0  0  0
   54.3700   26.7100   45.4030 H   0  0  0  0  0  0  0  0  0  0  0  0
   56.1394   24.4829   45.8117 H   0  0  0  0  0  0  0  0  0  0  0  0
   55.6926   25.2952   44.2619 H   0  0  0  0  0  0  0  0  0  0  0  0
   58.1899   25.4703   45.6791 H   0  0  0  0  0  0  0  0  0  0  0  0
   57.7293   26.3460   44.2102 H   0  0  0  0  0  0  0  0  0  0  0  0
   55.1550   27.9690   44.8860 H   0  0  0  0  0  0  0  0  0  0  0  0
   54.5871   30.1936   43.9639 H   0  0  0  0  0  0  0  0  0  0  0  0
   60.0247   33.0868   45.3518 H   0  0  0  0  0  0  0  0  0  0  0  0
   58.7471   32.9563   44.0214 H   0  0  0  0  0  0  0  0  0  0  0  0
   57.3554   34.1449   45.0463 H   0  0  0  0  0  0  0  0  0  0  0  0
   59.6381   35.3477   45.6000 H   0  0  0  0  0  0  0  0  0  0  0  0
   58.2932   35.8724   46.5708 H   0  0  0  0  0  0  0  0  0  0  0  0
   60.5891   34.0077   47.2869 H   0  0  0  0  0  0  0  0  0  0  0  0
   59.6888   35.0303   48.3847 H   0  0  0  0  0  0  0  0  0  0  0  0
   59.2153   32.2292   47.6754 H   0  0  0  0  0  0  0  0  0  0  0  0
   58.3346   33.1940   48.8805 H   0  0  0  0  0  0  0  0  0  0  0  0
  1  2  1  0
  2  3  1  0
  3  4  1  0
  4  5  2  0
  5  6  1  0
  6  7  1  0
  7  8  2  0
  8  9  1  0
  9 10  2  0
 10 11  1  0
 11 12  2  0
 12 13  1  0
 13 14  1  0
 14 15  1  0
 15 16  1  0
 16 17  1  0
 17 18  1  0
 18 19  1  0
 10  5  1  0
 19 15  1  0
 13  9  1  0
  1 20  1  0
  1 21  1  0
  2 22  1  0
  2 23  1  0
  3 24  1  0
  3 25  1  0
  6 26  1  0
  7 27  1  0
 14 28  1  0
 14 29  1  0
 15 30  1  6
 16 31  1  0
 16 32  1  0
 17 33  1  0
 17 34  1  0
 18 35  1  0
 18 36  1  0
M  END
>  <smiles>  (25) 
NCCN=c1[nH]cnc2c1nnn2CC1CCCO1

>  <score_type>  (25) 
oracle

>  <origin>  (25) 
adg

>  <m_score__min__energy>  (25) 
-7.7999999999999998

>  <m_primary>  (25) 
energy

$$$$
25:0
     RDKit          3D

 25 25  0  0  0  0  0  0  0  0999 V2000
   57.4230   32.2830   41.3720 C   0  0  0  0  0  0  0  0  0  0  0  0
   57.3010   31.5830   42.6050 O   0  0  0  0  0  0  0  0  0  0  0  0
   57.7270   32.0780   43.8490 C   0  0  0  0  0  0  0  0  0  0  0  0
   57.7770   33.4600   44.1200 C   0  0  0  0  0  0  0  0  0  0  0  0
   58.1910   33.9210   45.3710 C   0  0  0  0  0  0  0  0  0  0  0  0
   58.5550   33.0160   46.3680 C   0  0  0  0  0  0  0  0  0  0  0  0
   59.0630   33.6000   47.9430 Cl  0  0  0  0  0  0  0  0  0  0  0  0
   58.5110   31.6430   46.1130 C   0  0  0  0  0  0  0  0  0  0  0  0
   58.1120   31.1630   44.8540 C   0  0  0  0  0  0  0  0  0  0  0  0
   58.0430   29.6760   44.6140 C   0  0  0  0  0  0  0  0  0  0  0  0
   56.6530   29.2750   44.1020 C   0  0  0  0  0  0  0  0  0  0  0  0
   56.6380   29.1910   42.6420 N   0  0  0  0  0  0  0  0  0  0  0  0
   57.6087   33.3486   41.5721 H   0  0  0  0  0  0  0  0  0  0  0  0
   58.2621   31.8665   40.7954 H   0  0  0  0  0  0  0  0  0  0  0  0
   56.4925   32.1750   40.7954 H   0  0  0  0  0  0  0  0  0  0  0  0
   57.4879   34.1804   43.3406 H   0  0  0  0  0  0  0  0  0  0  0  0
   58.2303   35.0019   45.5712 H   0  0  0  0  0  0  0  0  0  0  0  0
   58.7910   30.9320   46.9042 H   0  0  0  0  0  0  0  0  0  0  0  0
   58.7987   29.3952   43.8656 H   0  0  0  0  0  0  0  0  0  0  0  0
   58.2351   29.1545   45.5633 H   0  0  0  0  0  0  0  0  0  0  0  0
   56.3838   28.2945   44.5218 H   0  0  0  0  0  0  0  0  0  0  0  0
   55.9285   30.0404   44.4171 H   0  0  0  0  0  0  0  0  0  0  0  0
   56.4180   28.2140   42.3400 H   0  0  0  0  0  0  0  0  0  0  0  0
   57.5800   29.4550   42.2740 H   0  0  0  0  0  0  0  0  0  0  0  0
   55.9250   29.8510   42.2520 H   0  0  0  0  0  0  0  0  0  0  0  0
  1  2  1  0
  2  3  1  0
  3  4  2  0
  4  5  1  0
  5  6  2  0
  6  7  1  0
  6  8  1  0
  8  9  2  0
  9 10  1  0
 10 11  1  0
 11 12  1  0
  9  3  1  0
  1 13  1  0
  1 14  1  0
  1 15  1  0
  4 16  1  0
  5 17  1  0
  8 18  1  0
 10 19  1  0
 10 20  1  0
 11 21  1  0
 11 22  1  0
 12 23  1  0
 12 24  1  0
 12 25  1  0
M  CHG  1  12   1
M  END
>  <UniqueID>  (26) 
24

>  <SMILES>  (26) 
COc1ccc(Cl)cc1CC[NH3+]

>  <Energy>  (26) 
18.84945267192403

>  <Genealogy>  (26) 
COc1ccc(Cl)cc1CC[NH3+] (protonated)
COc1ccc(Cl)cc1CC[NH3+] (3D coordinates assigned)
COc1ccc(Cl)cc1CC[NH3+] (optimized conformer: 18.84945267192403 kcal/mol)

>  <smiles>  (26) 
COc1ccc(Cl)cc1CCN

>  <score_type>  (26) 
oracle

>  <origin>  (26) 
adg

>  <m_score__min__energy>  (26) 
-3.3799999999999999

>  <m_primary>  (26) 
energy

$$$$
26:0
     RDKit          3D

 32 34  0  0  0  0  0  0  0  0999 V2000
   55.4990   29.7210   43.3750 C   0  0  0  0  0  0  0  0  0  0  0  0
   56.5560   30.1840   44.3290 C   0  0  0  0  0  0  0  0  0  0  0  0
   56.8000   31.4920   44.5530 N   0  0  0  0  0  0  0  0  0  0  0  0
   57.8250   31.4990   45.4330 C   0  0  0  0  0  0  0  0  0  0  0  0
   58.4380   32.7400   45.9690 C   0  0  0  0  0  0  0  0  0  0  0  0
   58.7740   33.7900   45.0940 C   0  0  0  0  0  0  0  0  0  0  0  0
   59.3520   34.9650   45.5820 C   0  0  0  0  0  0  0  0  0  0  0  0
   59.6020   35.1070   46.9480 C   0  0  0  0  0  0  0  0  0  0  0  0
   59.2740   34.0740   47.8290 C   0  0  0  0  0  0  0  0  0  0  0  0
   58.6960   32.8960   47.3450 C   0  0  0  0  0  0  0  0  0  0  0  0
   58.1830   30.1960   45.7290 C   0  0  0  0  0  0  0  0  0  0  0  0
   57.3720   29.3730   45.0410 N   0  0  0  0  0  0  0  0  0  0  0  0
   57.4120   27.9350   45.0690 C   0  0  0  0  0  0  0  0  0  0  0  0
   57.0470   27.2440   46.2370 C   0  0  0  0  0  0  0  0  0  0  0  0
   57.0710   25.8460   46.2680 C   0  0  0  0  0  0  0  0  0  0  0  0
   57.4500   25.1270   45.1310 C   0  0  0  0  0  0  0  0  0  0  0  0
   57.4710   23.7720   45.1610 F   0  0  0  0  0  0  0  0  0  0  0  0
   57.7980   25.8050   43.9600 C   0  0  0  0  0  0  0  0  0  0  0  0
   57.7760   27.2030   43.9260 C   0  0  0  0  0  0  0  0  0  0  0  0
   54.6349   29.3425   43.9407 H   0  0  0  0  0  0  0  0  0  0  0  0
   55.1824   30.5629   42.7417 H   0  0  0  0  0  0  0  0  0  0  0  0
   55.9031   28.9175   42.7417 H   0  0  0  0  0  0  0  0  0  0  0  0
   58.5799   33.6848   44.0164 H   0  0  0  0  0  0  0  0  0  0  0  0
   59.6103   35.7791   44.8888 H   0  0  0  0  0  0  0  0  0  0  0  0
   60.0573   36.0324   47.3306 H   0  0  0  0  0  0  0  0  0  0  0  0
   59.4706   34.1872   48.9054 H   0  0  0  0  0  0  0  0  0  0  0  0
   58.4411   32.0856   48.0438 H   0  0  0  0  0  0  0  0  0  0  0  0
   58.9906   29.8869   46.4089 H   0  0  0  0  0  0  0  0  0  0  0  0
   56.7407   27.8058   47.1318 H   0  0  0  0  0  0  0  0  0  0  0  0
   56.7913   25.3119   47.1880 H   0  0  0  0  0  0  0  0  0  0  0  0
   58.0897   25.2384   43.0634 H   0  0  0  0  0  0  0  0  0  0  0  0
   58.0450   27.7322   42.9999 H   0  0  0  0  0  0  0  0  0  0  0  0
  1  2  1  0
  2  3  2  0
  3  4  1  0
  4  5  1  0
  5  6  2  0
  6  7  1  0
  7  8  2  0
  8  9  1  0
  9 10  2  0
  4 11  2  0
 11 12  1  0
 12 13  1  0
 13 14  2  0
 14 15  1  0
 15 16  2  0
 16 17  1  0
 16 18  1  0
 18 19  2  0
 12  2  1  0
 19 13  1  0
 10  5  1  0
  1 20  1  0
  1 21  1  0
  1 22  1  0
  6 23  1  0
  7 24  1  0
  8 25  1  0
  9 26  1  0
 10 27  1  0
 11 28  1  0
 14 29  1  0
 15 30  1  0
 18 31  1  0
 19 32  1  0
M  END
>  <UniqueID>  (27) 
25

>  <SMILES>  (27) 
Cc1nc(-c2ccccc2)cn1-c1ccc(F)cc1

>  <Energy>  (27) 
69.98416120610213

>  <Genealogy>  (27) 
Cc1nc(-c2ccccc2)cn1-c1ccc(F)cc1 (3D coordinates assigned)
Cc1nc(-c2ccccc2)cn1-c1ccc(F)cc1 (optimized conformer: 69.98416120610213 kcal/mol)

>  <smiles>  (27) 
Cc1nc(-c2ccccc2)cn1-c1ccc(F)cc1

>  <score_type>  (27) 
oracle

>  <origin>  (27) 
adg

>  <m_score__min__energy>  (27) 
-6.8799999999999999

>  <m_primary>  (27) 
energy

$$$$
27:0
     RDKit          3D

 34 35  0  0  0  0  0  0  0  0999 V2000
   59.0420   26.0000   46.2630 C   0  0  0  0  0  0  0  0  0  0  0  0
   58.3210   27.0730   45.9020 C   0  0  0  0  0  0  0  0  0  0  0  0
   56.9250   27.1640   45.8390 C   0  0  0  0  0  0  0  0  0  0  0  0
   55.9000   26.1540   46.1920 C   0  0  0  0  0  0  0  0  0  0  0  0
   54.7490   26.2330   45.6820 O   0  0  0  0  0  0  0  0  0  0  0  0
   56.1880   25.1330   47.1010 O   0  0  0  0  0  0  0  0  0  0  0  0
   56.2530   23.7620   46.7230 C   0  0  0  0  0  0  0  0  0  0  0  0
   56.6540   28.4410   45.3780 C   0  0  0  0  0  0  0  0  0  0  0  0
   55.3820   28.9680   45.1750 O   0  0  0  0  0  0  0  0  0  0  0  0
   57.7890   29.1370   45.1690 N   0  0  0  0  0  0  0  0  0  0  0  0
   57.8510   30.4960   44.7060 C   0  0  0  0  0  0  0  0  0  0  0  0
   57.6050   30.7800   43.3540 C   0  0  0  0  0  0  0  0  0  0  0  0
   57.6590   32.0950   42.8890 C   0  0  0  0  0  0  0  0  0  0  0  0
   57.9510   33.1370   43.7700 C   0  0  0  0  0  0  0  0  0  0  0  0
   58.1850   32.8690   45.1210 C   0  0  0  0  0  0  0  0  0  0  0  0
   58.1290   31.5460   45.6040 C   0  0  0  0  0  0  0  0  0  0  0  0
   58.3340   31.2390   46.9590 O   0  0  0  0  0  0  0  0  0  0  0  0
   58.5130   32.2080   47.9870 C   0  0  0  0  0  0  0  0  0  0  0  0
   58.8190   28.3110   45.4780 C   0  0  0  0  0  0  0  0  0  0  0  0
   60.1130   28.6490   45.3450 C   0  0  0  0  0  0  0  0  0  0  0  0
   60.1407   26.0535   46.2725 H   0  0  0  0  0  0  0  0  0  0  0  0
   58.5342   25.0672   46.5493 H   0  0  0  0  0  0  0  0  0  0  0  0
   56.2828   23.1338   47.6255 H   0  0  0  0  0  0  0  0  0  0  0  0
   55.3661   23.5039   46.1257 H   0  0  0  0  0  0  0  0  0  0  0  0
   57.1604   23.5890   46.1257 H   0  0  0  0  0  0  0  0  0  0  0  0
   57.3685   29.9624   42.6572 H   0  0  0  0  0  0  0  0  0  0  0  0
   57.4711   32.3102   41.8267 H   0  0  0  0  0  0  0  0  0  0  0  0
   57.9970   34.1718   43.3999 H   0  0  0  0  0  0  0  0  0  0  0  0
   58.4140   33.6944   45.8111 H   0  0  0  0  0  0  0  0  0  0  0  0
   58.4231   31.7213   48.9694 H   0  0  0  0  0  0  0  0  0  0  0  0
   59.5103   32.6625   47.8929 H   0  0  0  0  0  0  0  0  0  0  0  0
   57.7439   32.9888   47.8929 H   0  0  0  0  0  0  0  0  0  0  0  0
   60.9000   27.9293   45.6147 H   0  0  0  0  0  0  0  0  0  0  0  0
   60.3851   29.6453   44.9665 H   0  0  0  0  0  0  0  0  0  0  0  0
  1  2  2  0
  2  3  1  0
  3  4  1  0
  4  5  2  0
  4  6  1  0
  6  7  1  0
  3  8  2  0
  8  9  1  0
  8 10  1  0
 10 11  1  0
 11 12  2  0
 12 13  1  0
 13 14  2  0
 14 15  1  0
 15 16  2  0
 16 17  1  0
 17 18  1  0
 10 19  1  0
 19 20  2  0
 19  2  1  0
 16 11  1  0
  1 21  1  0
  1 22  1  0
  7 23  1  0
  7 24  1  0
  7 25  1  0
 12 26  1  0
 13 27  1  0
 14 28  1  0
 15 29  1  0
 18 30  1  0
 18 31  1  0
 18 32  1  0
 20 33  1  0
 20 34  1  0
M  CHG  1   9  -1
M  END
>  <UniqueID>  (28) 
26

>  <SMILES>  (28) 
C=c1c(C(=O)OC)c([O-])n(-c2ccccc2OC)c1=C

>  <Energy>  (28) 
71.98698659293572

>  <Genealogy>  (28) 
C=c1c(C(=O)OC)c([O-])n(-c2ccccc2OC)c1=C (protonated)
C=c1c(C(=O)OC)c([O-])n(-c2ccccc2OC)c1=C (3D coordinates assigned)
C=c1c(C(=O)OC)c([O-])n(-c2ccccc2OC)c1=C (optimized conformer: 71.98698659293572 kcal/mol)

>  <smiles>  (28) 
C=c1c(C(=O)OC)c(O)n(-c2ccccc2OC)c1=C

>  <score_type>  (28) 
oracle

>  <origin>  (28) 
adg

>  <m_score__min__energy>  (28) 
-10.35

>  <m_primary>  (28) 
energy

$$$$
28:0
     RDKit          3D

 39 40  0  0  0  0  0  0  0  0999 V2000
   63.4480   31.7730   47.1680 C   0  0  0  0  0  0  0  0  0  0  0  0
   63.4160   33.0070   48.0610 C   0  0  0  0  0  0  0  0  0  0  0  0
   62.0460   33.4960   48.2030 N   0  0  0  0  0  0  0  0  0  0  0  0
   61.3850   33.7200   49.3570 C   0  0  0  0  0  0  0  0  0  0  0  0
   60.1360   34.2340   49.0540 C   0  0  0  0  0  0  0  0  0  0  0  0
   60.0350   34.3480   47.7130 N   0  0  0  0  0  0  0  0  0  0  0  0
   58.8600   34.7810   46.9610 C   0  0  0  0  0  0  0  0  0  0  0  0
   58.1840   33.5930   46.3520 C   0  0  0  0  0  0  0  0  0  0  0  0
   56.9510   33.4160   46.5470 O   0  0  0  0  0  0  0  0  0  0  0  0
   58.9410   32.6640   45.5600 N   0  0  0  0  0  0  0  0  0  0  0  0
   58.4740   31.3560   45.1880 C   0  0  0  0  0  0  0  0  0  0  0  0
   59.2060   30.2280   45.5850 C   0  0  0  0  0  0  0  0  0  0  0  0
   58.7540   28.9380   45.2750 C   0  0  0  0  0  0  0  0  0  0  0  0
   59.5690   27.7390   45.6670 C   0  0  0  0  0  0  0  0  0  0  0  0
   57.5710   28.7770   44.5420 C   0  0  0  0  0  0  0  0  0  0  0  0
   56.8240   29.8950   44.1430 C   0  0  0  0  0  0  0  0  0  0  0  0
   55.5220   29.7150   43.4210 C   0  0  0  0  0  0  0  0  0  0  0  0
   57.2650   31.1810   44.4910 C   0  0  0  0  0  0  0  0  0  0  0  0
   61.2050   33.8890   47.2280 C   0  0  0  0  0  0  0  0  0  0  0  0
   61.4810   33.8330   45.9990 O   0  0  0  0  0  0  0  0  0  0  0  0
   63.4715   30.8684   47.7934 H   0  0  0  0  0  0  0  0  0  0  0  0
   62.5500   31.7566   46.5329 H   0  0  0  0  0  0  0  0  0  0  0  0
   64.3457   31.8031   46.5329 H   0  0  0  0  0  0  0  0  0  0  0  0
   63.8130   32.7470   49.0534 H   0  0  0  0  0  0  0  0  0  0  0  0
   64.0314   33.7955   47.6032 H   0  0  0  0  0  0  0  0  0  0  0  0
   61.7728   33.5269   50.3681 H   0  0  0  0  0  0  0  0  0  0  0  0
   59.3575   34.5039   49.7828 H   0  0  0  0  0  0  0  0  0  0  0  0
   58.1603   35.2921   47.6386 H   0  0  0  0  0  0  0  0  0  0  0  0
   59.1724   35.4707   46.1630 H   0  0  0  0  0  0  0  0  0  0  0  0
   59.8600   32.9860   45.1790 H   0  0  0  0  0  0  0  0  0  0  0  0
   60.1440   30.3567   46.1451 H   0  0  0  0  0  0  0  0  0  0  0  0
   59.6158   27.6701   46.7638 H   0  0  0  0  0  0  0  0  0  0  0  0
   59.1013   26.8294   45.2621 H   0  0  0  0  0  0  0  0  0  0  0  0
   60.5869   27.8392   45.2621 H   0  0  0  0  0  0  0  0  0  0  0  0
   57.2256   27.7667   44.2775 H   0  0  0  0  0  0  0  0  0  0  0  0
   54.7091   29.6026   44.1535 H   0  0  0  0  0  0  0  0  0  0  0  0
   55.3280   30.5949   42.7900 H   0  0  0  0  0  0  0  0  0  0  0  0
   55.5740   28.8155   42.7900 H   0  0  0  0  0  0  0  0  0  0  0  0
   56.6608   32.0584   44.2167 H   0  0  0  0  0  0  0  0  0  0  0  0
  1  2  1  0
  2  3  1  0
  3  4  1  0
  4  5  2  0
  5  6  1  0
  6  7  1  0
  7  8  1  0
  8  9  2  0
  8 10  1  0
 10 11  1  0
 11 12  2  0
 12 13  1  0
 13 14  1  0
 13 15  2  0
 15 16  1  0
 16 17  1  0
 16 18  2  0
  6 19  1  0
 19 20  2  0
 19  3  1  0
 18 11  1  0
  1 21  1  0
  1 22  1  0
  1 23  1  0
  2 24  1  0
  2 25  1  0
  4 26  1  0
  5 27  1  0
  7 28  1  0
  7 29  1  0
 10 30  1  0
 12 31  1  0
 14 32  1  0
 14 33  1  0
 14 34  1  0
 15 35  1  0
 17 36  1  0
 17 37  1  0
 17 38  1  0
 18 39  1  0
M  END
>  <UniqueID>  (29) 
27

>  <SMILES>  (29) 
CCn1ccn(CC(=O)Nc2cc(C)cc(C)c2)c1=O

>  <Energy>  (29) 
67.15336792500901

>  <Genealogy>  (29) 
CCn1ccn(CC(=O)Nc2cc(C)cc(C)c2)c1=O (3D coordinates assigned)
CCn1ccn(CC(=O)Nc2cc(C)cc(C)c2)c1=O (optimized conformer: 67.15336792500901 kcal/mol)

>  <smiles>  (29) 
CCn1ccn(CC(=O)Nc2cc(C)cc(C)c2)c1=O

>  <score_type>  (29) 
oracle

>  <origin>  (29) 
adg

>  <m_score__min__energy>  (29) 
-6.1900000000000004

>  <m_primary>  (29) 
energy

$$$$
29:0
     RDKit          3D

 33 34  0  0  0  0  0  0  0  0999 V2000
   57.8556   24.5042   46.7536 H   0  0  0  0  0  0  0  0  0  0  0  0
   57.5210   25.4910   46.4010 C   0  0  0  0  0  0  0  0  0  0  0  0
   58.4940   26.8490   46.1930 S   0  0  0  0  0  0  0  0  0  0  0  0
   57.2210   27.8140   45.6480 C   0  0  0  0  0  0  0  0  0  0  0  0
   57.2790   29.0760   45.3340 N   0  0  0  0  0  0  0  0  0  0  0  0
   56.3220   29.8380   44.5810 C   0  0  0  0  0  0  0  0  0  0  0  0
   55.1210   29.4600   44.5790 O   0  0  0  0  0  0  0  0  0  0  0  0
   56.7130   31.0430   43.7680 C   0  0  0  0  0  0  0  0  0  0  0  0
   56.8524   30.7428   42.7190 H   0  0  0  0  0  0  0  0  0  0  0  0
   55.9161   31.7976   43.8425 H   0  0  0  0  0  0  0  0  0  0  0  0
   57.9650   31.6200   44.2770 N   0  0  0  0  0  0  0  0  0  0  0  0
   58.3340   31.0180   45.0510 H   0  0  0  0  0  0  0  0  0  0  0  0
   57.7850   33.0010   44.7670 C   0  0  0  0  0  0  0  0  0  0  0  0
   56.9599   33.4792   44.2188 H   0  0  0  0  0  0  0  0  0  0  0  0
   59.0870   33.7930   44.5020 C   0  0  0  0  0  0  0  0  0  0  0  0
   59.9491   33.1330   44.6783 H   0  0  0  0  0  0  0  0  0  0  0  0
   59.0708   34.1457   43.4602 H   0  0  0  0  0  0  0  0  0  0  0  0
   59.1980   35.0130   45.4210 C   0  0  0  0  0  0  0  0  0  0  0  0
   60.1134   35.5680   45.1681 H   0  0  0  0  0  0  0  0  0  0  0  0
   58.3051   35.6378   45.2717 H   0  0  0  0  0  0  0  0  0  0  0  0
   59.2560   34.6030   46.9070 C   0  0  0  0  0  0  0  0  0  0  0  0
   60.3117   34.5122   47.2025 H   0  0  0  0  0  0  0  0  0  0  0  0
   58.7290   35.3810   47.4788 H   0  0  0  0  0  0  0  0  0  0  0  0
   58.5500   33.2660   47.2020 C   0  0  0  0  0  0  0  0  0  0  0  0
   59.2702   32.4452   47.0695 H   0  0  0  0  0  0  0  0  0  0  0  0
   58.1743   33.2962   48.2354 H   0  0  0  0  0  0  0  0  0  0  0  0
   57.3580   33.0380   46.2650 C   0  0  0  0  0  0  0  0  0  0  0  0
   56.8839   32.0792   46.5219 H   0  0  0  0  0  0  0  0  0  0  0  0
   56.6600   33.8779   46.3963 H   0  0  0  0  0  0  0  0  0  0  0  0
   56.0630   27.1210   45.6390 N   0  0  0  0  0  0  0  0  0  0  0  0
   55.1420   27.5260   45.3530 H   0  0  0  0  0  0  0  0  0  0  0  0
   56.2200   25.8350   46.0490 C   0  0  0  0  0  0  0  0  0  0  0  0
   55.3839   25.1220   46.0986 H   0  0  0  0  0  0  0  0  0  0  0  0
  1  2  1  0
  2  3  1  0
  3  4  1  0
  4  5  2  0
  5  6  1  0
  6  7  2  0
  6  8  1  0
  8  9  1  0
  8 10  1  0
  8 11  1  0
 11 12  1  0
 11 13  1  0
 13 14  1  0
 13 15  1  0
 15 16  1  0
 15 17  1  0
 15 18  1  0
 18 19  1  0
 18 20  1  0
 18 21  1  0
 21 22  1  0
 21 23  1  0
 21 24  1  0
 24 25  1  0
 24 26  1  0
 24 27  1  0
 27 28  1  0
 27 29  1  0
  4 30  1  0
 30 31  1  0
 30 32  1  0
 32 33  1  0
 32  2  2  0
 27 13  1  0
M  END
>  <UniqueID>  (30) 
28

>  <SMILES>  (30) 
O=C(CNC1CCCCC1)/N=c1/[nH]ccs1

>  <Energy>  (30) 
69.98277266307464

>  <Genealogy>  (30) 
O=C(CNC1CCCCC1)/N=c1/[nH]ccs1 (cis-trans isomerization)
O=C(CNC1CCCCC1)/N=c1/[nH]ccs1 (3D coordinates assigned)
O=C(CNC1CCCCC1)/N=c1/[nH]ccs1 (nonaromatic ring conformer: 69.98277266307464 kcal/mol)

>  <smiles>  (30) 
O=C(CNC1CCCCC1)N=c1[nH]ccs1

>  <score_type>  (30) 
oracle

>  <origin>  (30) 
adg

>  <m_score__min__energy>  (30) 
-6.7300000000000004

>  <m_primary>  (30) 
energy

$$$$
30:0
     RDKit          3D

 59 62  0  0  1  0  0  0  0  0999 V2000
   56.9920   20.8450   42.6230 C   0  0  0  0  0  0  0  0  0  0  0  0
   56.2310   21.9970   42.9250 O   0  0  0  0  0  0  0  0  0  0  0  0
   56.5970   22.9350   43.8640 C   0  0  0  0  0  0  0  0  0  0  0  0
   56.8600   24.2640   43.5130 C   0  0  0  0  0  0  0  0  0  0  0  0
   57.2270   25.1630   44.5190 C   0  0  0  0  0  0  0  0  0  0  0  0
   57.4920   26.4600   44.2270 N   0  0  0  0  0  0  0  0  0  0  0  0
   57.8510   27.3510   45.1860 C   0  0  0  0  0  0  0  0  0  0  0  0
   58.1090   28.6770   44.7920 N   0  0  0  0  0  0  0  0  0  0  0  0
   57.0590   29.3770   44.0660 C   0  0  0  0  0  0  0  0  0  0  0  0
   57.4790   30.7980   43.7430 C   0  0  0  0  0  0  0  0  0  0  0  0
   58.0990   31.4170   44.8980 N   0  0  0  0  0  0  0  0  0  0  0  0
   57.7340   32.7930   45.1330 C   0  0  0  0  0  0  0  0  0  0  0  0
   56.5180   32.9700   45.2410 O   0  0  0  0  0  0  0  0  0  0  0  0
   58.8140   33.7330   45.2080 C   0  0  0  0  0  0  0  0  0  0  0  0
   59.2140   34.4120   46.2280 C   0  0  0  0  0  0  0  0  0  0  0  0
   60.3580   34.2120   47.0620 C   0  0  0  0  0  0  0  0  0  0  0  0
   60.4740   34.2110   48.4140 C   0  0  0  0  0  0  0  0  0  0  0  0
   61.6490   33.8500   49.0920 C   0  0  0  0  0  0  0  0  0  0  0  0
   62.7750   33.4700   48.4010 C   0  0  0  0  0  0  0  0  0  0  0  0
   62.6760   33.4680   47.0230 C   0  0  0  0  0  0  0  0  0  0  0  0
   61.5270   33.8200   46.3650 C   0  0  0  0  0  0  0  0  0  0  0  0
   59.0130   30.6930   45.7460 C   0  0  0  0  0  0  0  0  0  0  0  0
   59.3310   29.3970   45.0470 C   0  0  1  0  0  0  0  0  0  0  0  0
   60.2980   28.6190   45.9200 C   0  0  0  0  0  0  0  0  0  0  0  0
   57.9290   26.8820   46.4330 N   0  0  0  0  0  0  0  0  0  0  0  0
   57.6780   25.6070   46.7810 C   0  0  0  0  0  0  0  0  0  0  0  0
   57.7680   25.1970   48.0050 N   0  0  0  0  0  0  0  0  0  0  0  0
   57.3160   24.7100   45.8130 C   0  0  0  0  0  0  0  0  0  0  0  0
   57.0620   23.4050   46.1820 C   0  0  0  0  0  0  0  0  0  0  0  0
   56.7010   22.5300   45.1780 C   0  0  0  0  0  0  0  0  0  0  0  0
   56.4420   21.2130   45.5300 O   0  0  0  0  0  0  0  0  0  0  0  0
   57.4580   20.3490   45.9470 C   0  0  0  0  0  0  0  0  0  0  0  0
   57.3116   20.3612   43.5578 H   0  0  0  0  0  0  0  0  0  0  0  0
   56.3790   20.1435   42.0381 H   0  0  0  0  0  0  0  0  0  0  0  0
   57.8778   21.1336   42.0381 H   0  0  0  0  0  0  0  0  0  0  0  0
   56.7796   24.5946   42.4669 H   0  0  0  0  0  0  0  0  0  0  0  0
   57.3990   26.7190   43.2190 H   0  0  0  0  0  0  0  0  0  0  0  0
   56.8508   28.8411   43.1282 H   0  0  0  0  0  0  0  0  0  0  0  0
   56.1586   29.4116   44.6970 H   0  0  0  0  0  0  0  0  0  0  0  0
   58.1977   30.7831   42.9104 H   0  0  0  0  0  0  0  0  0  0  0  0
   56.5876   31.3784   43.4628 H   0  0  0  0  0  0  0  0  0  0  0  0
   59.3733   33.8957   44.2749 H   0  0  0  0  0  0  0  0  0  0  0  0
   58.5824   35.2717   46.4963 H   0  0  0  0  0  0  0  0  0  0  0  0
   59.5997   34.5093   49.0112 H   0  0  0  0  0  0  0  0  0  0  0  0
   61.6690   33.8715   50.1916 H   0  0  0  0  0  0  0  0  0  0  0  0
   63.7034   33.1834   48.9167 H   0  0  0  0  0  0  0  0  0  0  0  0
   63.5544   33.1721   46.4307 H   0  0  0  0  0  0  0  0  0  0  0  0
   61.5120   33.7976   45.2653 H   0  0  0  0  0  0  0  0  0  0  0  0
   59.9330   31.2772   45.8952 H   0  0  0  0  0  0  0  0  0  0  0  0
   58.5672   30.5065   46.7342 H   0  0  0  0  0  0  0  0  0  0  0  0
   59.8084   29.5691   44.0710 H   0  0  0  0  0  0  0  0  0  0  0  0
   60.0668   28.8050   46.9792 H   0  0  0  0  0  0  0  0  0  0  0  0
   60.2011   27.5442   45.7068 H   0  0  0  0  0  0  0  0  0  0  0  0
   61.3271   28.9438   45.7068 H   0  0  0  0  0  0  0  0  0  0  0  0
   58.5580   25.5170   48.6160 H   0  0  0  0  0  0  0  0  0  0  0  0
   57.1436   23.0771   47.2288 H   0  0  0  0  0  0  0  0  0  0  0  0
   57.4888   20.3228   47.0463 H   0  0  0  0  0  0  0  0  0  0  0  0
   57.2606   19.3378   45.5615 H   0  0  0  0  0  0  0  0  0  0  0  0
   58.4243   20.7062   45.5615 H   0  0  0  0  0  0  0  0  0  0  0  0
  1  2  1  0
  2  3  1  0
  3  4  2  0
  4  5  1  0
  5  6  1  0
  6  7  1  0
  7  8  1  0
  8  9  1  0
  9 10  1  0
 10 11  1  0
 11 12  1  0
 12 13  2  0
 12 14  1  0
 14 15  2  0
 15 16  1  0
 16 17  2  0
 17 18  1  0
 18 19  2  0
 19 20  1  0
 20 21  2  0
 11 22  1  0
 22 23  1  0
 23 24  1  0
  7 25  2  0
 25 26  1  0
 26 27  2  3
 26 28  1  0
 28 29  1  0
 29 30  2  0
 30 31  1  0
 31 32  1  0
 30  3  1  0
 28  5  2  0
 23  8  1  0
 21 16  1  0
  1 33  1  0
  1 34  1  0
  1 35  1  0
  4 36  1  0
  6 37  1  0
  9 38  1  0
  9 39  1  0
 10 40  1  0
 10 41  1  0
 14 42  1  0
 15 43  1  0
 17 44  1  0
 18 45  1  0
 19 46  1  0
 20 47  1  0
 21 48  1  0
 22 49  1  0
 22 50  1  0
 23 51  1  6
 24 52  1  0
 24 53  1  0
 24 54  1  0
 27 55  1  0
 29 56  1  0
 32 57  1  0
 32 58  1  0
 32 59  1  0
M  END
>  <smiles>  (31) 
COc1cc2[nH]c(N3CCN(C(=O)C=Cc4ccccc4)CC3C)nc(=N)c2cc1OC

>  <score_type>  (31) 
oracle

>  <origin>  (31) 
adg

>  <m_score__min__energy>  (31) 
-8.8399999999999999

>  <m_primary>  (31) 
energy

$$$$
31:0
     RDKit          3D

 41 43  0  0  0  0  0  0  0  0999 V2000
   56.3440   29.9570   43.4810 C   0  0  0  0  0  0  0  0  0  0  0  0
   56.2660   30.8950   44.5490 O   0  0  0  0  0  0  0  0  0  0  0  0
   57.0820   32.0300   44.6670 C   0  0  0  0  0  0  0  0  0  0  0  0
   56.8770   32.8880   45.7530 C   0  0  0  0  0  0  0  0  0  0  0  0
   57.6850   34.0140   45.9300 C   0  0  0  0  0  0  0  0  0  0  0  0
   58.7120   34.2990   45.0190 C   0  0  0  0  0  0  0  0  0  0  0  0
   59.6350   35.4680   45.2580 C   0  0  0  0  0  0  0  0  0  0  0  0
   59.9850   35.6530   46.6820 N   0  0  0  0  0  0  0  0  0  0  0  0
   60.2150   34.4360   47.4990 C   0  0  2  0  0  0  0  0  0  0  0  0
   59.6730   34.5580   48.9510 C   0  0  0  0  0  0  0  0  0  0  0  0
   60.1220   33.3690   49.8260 C   0  0  0  0  0  0  0  0  0  0  0  0
   61.6580   33.3050   49.9420 C   0  0  0  0  0  0  0  0  0  0  0  0
   62.2830   33.4290   48.5830 C   0  0  0  0  0  0  0  0  0  0  0  0
   61.6520   33.9810   47.4990 C   0  0  0  0  0  0  0  0  0  0  0  0
   62.5450   33.8340   46.4520 C   0  0  0  0  0  0  0  0  0  0  0  0
   63.6840   33.2780   46.9210 N   0  0  0  0  0  0  0  0  0  0  0  0
   63.5230   33.0520   48.2170 N   0  0  0  0  0  0  0  0  0  0  0  0
   64.5310   32.4280   49.0640 C   0  0  0  0  0  0  0  0  0  0  0  0
   58.8980   33.4610   43.9090 C   0  0  0  0  0  0  0  0  0  0  0  0
   58.0960   32.3290   43.7360 C   0  0  0  0  0  0  0  0  0  0  0  0
   56.4286   28.9400   43.8916 H   0  0  0  0  0  0  0  0  0  0  0  0
   55.4368   30.0287   42.8631 H   0  0  0  0  0  0  0  0  0  0  0  0
   57.2269   30.1775   42.8631 H   0  0  0  0  0  0  0  0  0  0  0  0
   56.0734   32.6744   46.4731 H   0  0  0  0  0  0  0  0  0  0  0  0
   57.5146   34.6803   46.7885 H   0  0  0  0  0  0  0  0  0  0  0  0
   60.5618   35.3035   44.6889 H   0  0  0  0  0  0  0  0  0  0  0  0
   59.1046   36.3748   44.9317 H   0  0  0  0  0  0  0  0  0  0  0  0
   59.2620   36.2550   47.1430 H   0  0  0  0  0  0  0  0  0  0  0  0
   59.6260   33.6543   46.9969 H   0  0  0  0  0  0  0  0  0  0  0  0
   60.0498   35.4909   49.3956 H   0  0  0  0  0  0  0  0  0  0  0  0
   58.5738   34.5590   48.9093 H   0  0  0  0  0  0  0  0  0  0  0  0
   59.6914   33.4821   50.8319 H   0  0  0  0  0  0  0  0  0  0  0  0
   59.7713   32.4395   49.3538 H   0  0  0  0  0  0  0  0  0  0  0  0
   62.0094   34.1288   50.5807 H   0  0  0  0  0  0  0  0  0  0  0  0
   61.9460   32.3399   50.3842 H   0  0  0  0  0  0  0  0  0  0  0  0
   62.3580   34.1229   45.4072 H   0  0  0  0  0  0  0  0  0  0  0  0
   64.2720   32.5883   50.1210 H   0  0  0  0  0  0  0  0  0  0  0  0
   64.5682   31.3486   48.8552 H   0  0  0  0  0  0  0  0  0  0  0  0
   65.5137   32.8760   48.8552 H   0  0  0  0  0  0  0  0  0  0  0  0
   59.6791   33.6960   43.1710 H   0  0  0  0  0  0  0  0  0  0  0  0
   58.2573   31.6698   42.8703 H   0  0  0  0  0  0  0  0  0  0  0  0
  1  2  1  0
  2  3  1  0
  3  4  2  0
  4  5  1  0
  5  6  2  0
  6  7  1  0
  7  8  1  0
  8  9  1  0
  9 10  1  0
 10 11  1  0
 11 12  1  0
 12 13  1  0
 13 14  2  0
 14 15  1  0
 15 16  2  0
 16 17  1  0
 17 18  1  0
  6 19  1  0
 19 20  2  0
 20  3  1  0
 14  9  1  0
 17 13  1  0
  1 21  1  0
  1 22  1  0
  1 23  1  0
  4 24  1  0
  5 25  1  0
  7 26  1  0
  7 27  1  0
  8 28  1  0
  9 29  1  6
 10 30  1  0
 10 31  1  0
 11 32  1  0
 11 33  1  0
 12 34  1  0
 12 35  1  0
 15 36  1  0
 18 37  1  0
 18 38  1  0
 18 39  1  0
 19 40  1  0
 20 41  1  0
M  END
>  <UniqueID>  (32) 
29

>  <SMILES>  (32) 
COc1ccc(CN[C@@H]2CCCc3c2cnn3C)cc1

>  <Energy>  (32) 
74.8772766250539

>  <Genealogy>  (32) 
COc1ccc(CN[C@@H]2CCCc3c2cnn3C)cc1 (chirality)
COc1ccc(CN[C@@H]2CCCc3c2cnn3C)cc1 (3D coordinates assigned)
COc1ccc(CN[C@@H]2CCCc3c2cnn3C)cc1 (nonaromatic ring conformer: 74.8772766250539 kcal/mol)

>  <smiles>  (32) 
COc1ccc(CNC2CCCc3c2cnn3C)cc1

>  <score_type>  (32) 
oracle

>  <origin>  (32) 
adg

>  <m_score__min__energy>  (32) 
-7.2699999999999996

>  <m_primary>  (32) 
energy

$$$$
32:0
     RDKit          3D

 37 38  0  0  0  0  0  0  0  0999 V2000
   61.1136   29.8319   49.8942 H   0  0  0  0  0  0  0  0  0  0  0  0
   60.3360   30.1890   49.2030 C   0  0  0  0  0  0  0  0  0  0  0  0
   60.1260   29.4670   47.9340 C   0  0  0  0  0  0  0  0  0  0  0  0
   59.7440   30.0870   46.9030 O   0  0  0  0  0  0  0  0  0  0  0  0
   60.3600   28.0520   47.8760 N   0  0  0  0  0  0  0  0  0  0  0  0
   60.7150   27.5590   48.7270 H   0  0  0  0  0  0  0  0  0  0  0  0
   60.1260   27.2670   46.6660 C   0  0  0  0  0  0  0  0  0  0  0  0
   60.5177   27.8150   45.7964 H   0  0  0  0  0  0  0  0  0  0  0  0
   60.6385   26.2985   46.7627 H   0  0  0  0  0  0  0  0  0  0  0  0
   58.6520   27.0250   46.4780 C   0  0  0  0  0  0  0  0  0  0  0  0
   57.8700   27.9650   45.7890 C   0  0  0  0  0  0  0  0  0  0  0  0
   58.3331   28.8846   45.4018 H   0  0  0  0  0  0  0  0  0  0  0  0
   56.5050   27.7370   45.5930 C   0  0  0  0  0  0  0  0  0  0  0  0
   55.8957   28.4784   45.0553 H   0  0  0  0  0  0  0  0  0  0  0  0
   55.9130   26.5670   46.0800 C   0  0  0  0  0  0  0  0  0  0  0  0
   54.5550   26.3410   45.8840 O   0  0  0  0  0  0  0  0  0  0  0  0
   56.6880   25.6240   46.7620 C   0  0  0  0  0  0  0  0  0  0  0  0
   56.2228   24.7030   47.1432 H   0  0  0  0  0  0  0  0  0  0  0  0
   58.0530   25.8500   46.9600 C   0  0  0  0  0  0  0  0  0  0  0  0
   58.6600   25.1050   47.4952 H   0  0  0  0  0  0  0  0  0  0  0  0
   59.6140   31.2630   49.5430 C   0  0  0  0  0  0  0  0  0  0  0  0
   59.0560   31.2455   50.4908 H   0  0  0  0  0  0  0  0  0  0  0  0
   59.5360   32.4750   48.6940 C   0  0  0  0  0  0  0  0  0  0  0  0
   58.6240   32.5280   47.6220 C   0  0  0  0  0  0  0  0  0  0  0  0
   57.9051   31.7080   47.4779 H   0  0  0  0  0  0  0  0  0  0  0  0
   58.6230   33.6110   46.7400 C   0  0  0  0  0  0  0  0  0  0  0  0
   57.3860   33.6610   45.2860 Br  0  0  0  0  0  0  0  0  0  0  0  0
   59.5440   34.6470   46.9060 C   0  0  0  0  0  0  0  0  0  0  0  0
   59.5514   35.4937   46.2038 H   0  0  0  0  0  0  0  0  0  0  0  0
   60.4550   34.6090   47.9620 C   0  0  0  0  0  0  0  0  0  0  0  0
   61.1870   35.4217   48.0791 H   0  0  0  0  0  0  0  0  0  0  0  0
   60.4470   33.5460   48.8750 C   0  0  0  0  0  0  0  0  0  0  0  0
   61.3580   33.5970   49.9410 O   0  0  0  0  0  0  0  0  0  0  0  0
   62.7500   33.8670   49.7860 C   0  0  0  0  0  0  0  0  0  0  0  0
   63.3292   33.2037   50.4453 H   0  0  0  0  0  0  0  0  0  0  0  0
   62.9880   35.1900   50.1070 F   0  0  0  0  0  0  0  0  0  0  0  0
   63.1200   33.6540   48.4710 F   0  0  0  0  0  0  0  0  0  0  0  0
  1  2  1  0
  2  3  1  0
  3  4  2  0
  3  5  1  0
  5  6  1  0
  5  7  1  0
  7  8  1  0
  7  9  1  0
  7 10  1  0
 10 11  2  0
 11 12  1  0
 11 13  1  0
 13 14  1  0
 13 15  2  0
 15 16  1  0
 15 17  1  0
 17 18  1  0
 17 19  2  0
 19 20  1  0
  2 21  2  0
 21 22  1  0
 21 23  1  0
 23 24  2  0
 24 25  1  0
 24 26  1  0
 26 27  1  0
 26 28  2  0
 28 29  1  0
 28 30  1  0
 30 31  1  0
 30 32  2  0
 32 33  1  0
 33 34  1  0
 34 35  1  0
 34 36  1  0
 34 37  1  0
 19 10  1  0
 32 23  1  0
M  CHG  1  16  -1
M  END
>  <UniqueID>  (33) 
30

>  <SMILES>  (33) 
O=C(/C=C/c1cc(Br)ccc1OC(F)F)NCc1ccc([O-])cc1

>  <Energy>  (33) 
44.2128000569945

>  <Genealogy>  (33) 
O=C(C=Cc1cc(Br)ccc1OC(F)F)NCc1ccc([O-])cc1 (protonated)
O=C(/C=C/c1cc(Br)ccc1OC(F)F)NCc1ccc([O-])cc1 (cis-trans isomerization)
O=C(/C=C/c1cc(Br)ccc1OC(F)F)NCc1ccc([O-])cc1 (3D coordinates assigned)
O=C(/C=C/c1cc(Br)ccc1OC(F)F)NCc1ccc([O-])cc1 (optimized conformer: 44.2128000569945 kcal/mol)

>  <smiles>  (33) 
O=C(C=Cc1cc(Br)ccc1OC(F)F)NCc1ccc(O)cc1

>  <score_type>  (33) 
oracle

>  <origin>  (33) 
adg

>  <m_score__min__energy>  (33) 
-10.6

>  <m_primary>  (33) 
energy

$$$$
33:0
     RDKit          3D

 40 41  0  0  0  0  0  0  0  0999 V2000
   57.4030   31.9820   41.5610 C   0  0  0  0  0  0  0  0  0  0  0  0
   58.0960   32.4830   42.8230 C   0  0  0  0  0  0  0  0  0  0  0  0
   57.4490   31.9510   44.0310 N   0  0  0  0  0  0  0  0  0  0  0  0
   57.0300   32.8820   45.0930 C   0  0  0  0  0  0  0  0  0  0  0  0
   57.8630   34.1740   45.0890 C   0  0  0  0  0  0  0  0  0  0  0  0
   58.9890   34.1160   46.0870 C   0  0  0  0  0  0  0  0  0  0  0  0
   60.3100   33.9190   45.6510 C   0  0  0  0  0  0  0  0  0  0  0  0
   61.3530   33.8270   46.5780 C   0  0  0  0  0  0  0  0  0  0  0  0
   61.0850   33.9290   47.9460 C   0  0  0  0  0  0  0  0  0  0  0  0
   59.7740   34.1250   48.3890 C   0  0  0  0  0  0  0  0  0  0  0  0
   58.7290   34.2180   47.4650 C   0  0  0  0  0  0  0  0  0  0  0  0
   57.1230   30.5460   44.1210 C   0  0  0  0  0  0  0  0  0  0  0  0
   55.5460   30.0800   44.1550 S   0  0  0  0  0  0  0  0  0  0  0  0
   58.1570   29.5530   43.9930 N   0  0  0  0  0  0  0  0  0  0  0  0
   58.1400   28.2800   44.6630 C   0  0  0  0  0  0  0  0  0  0  0  0
   58.0590   27.1020   43.9030 C   0  0  0  0  0  0  0  0  0  0  0  0
   58.0670   25.8530   44.5300 C   0  0  0  0  0  0  0  0  0  0  0  0
   58.1690   25.7670   45.9210 C   0  0  0  0  0  0  0  0  0  0  0  0
   58.1780   24.5540   46.5270 F   0  0  0  0  0  0  0  0  0  0  0  0
   58.2720   26.9320   46.6850 C   0  0  0  0  0  0  0  0  0  0  0  0
   58.2660   28.1830   46.0620 C   0  0  0  0  0  0  0  0  0  0  0  0
   56.5405   31.3585   41.8392 H   0  0  0  0  0  0  0  0  0  0  0  0
   57.0580   32.8409   40.9666 H   0  0  0  0  0  0  0  0  0  0  0  0
   58.1104   31.3851   40.9666 H   0  0  0  0  0  0  0  0  0  0  0  0
   59.1475   32.1602   42.8073 H   0  0  0  0  0  0  0  0  0  0  0  0
   58.0278   33.5806   42.8457 H   0  0  0  0  0  0  0  0  0  0  0  0
   55.9719   33.1413   44.9406 H   0  0  0  0  0  0  0  0  0  0  0  0
   57.1823   32.3830   46.0614 H   0  0  0  0  0  0  0  0  0  0  0  0
   58.2851   34.3225   44.0841 H   0  0  0  0  0  0  0  0  0  0  0  0
   57.2020   35.0081   45.3672 H   0  0  0  0  0  0  0  0  0  0  0  0
   60.5249   33.8367   44.5753 H   0  0  0  0  0  0  0  0  0  0  0  0
   62.3853   33.6742   46.2302 H   0  0  0  0  0  0  0  0  0  0  0  0
   61.9062   33.8550   48.6742 H   0  0  0  0  0  0  0  0  0  0  0  0
   59.5642   34.2062   49.4658 H   0  0  0  0  0  0  0  0  0  0  0  0
   57.6985   34.3717   47.8177 H   0  0  0  0  0  0  0  0  0  0  0  0
   58.9710   29.7560   43.3740 H   0  0  0  0  0  0  0  0  0  0  0  0
   57.9888   27.1627   42.8069 H   0  0  0  0  0  0  0  0  0  0  0  0
   57.9929   24.9358   43.9273 H   0  0  0  0  0  0  0  0  0  0  0  0
   58.3580   26.8645   47.7796 H   0  0  0  0  0  0  0  0  0  0  0  0
   58.3602   29.0964   46.6676 H   0  0  0  0  0  0  0  0  0  0  0  0
  1  2  1  0
  2  3  1  0
  3  4  1  0
  4  5  1  0
  5  6  1  0
  6  7  2  0
  7  8  1  0
  8  9  2  0
  9 10  1  0
 10 11  2  0
  3 12  1  0
 12 13  2  0
 12 14  1  0
 14 15  1  0
 15 16  2  0
 16 17  1  0
 17 18  2  0
 18 19  1  0
 18 20  1  0
 20 21  2  0
 11  6  1  0
 21 15  1  0
  1 22  1  0
  1 23  1  0
  1 24  1  0
  2 25  1  0
  2 26  1  0
  4 27  1  0
  4 28  1  0
  5 29  1  0
  5 30  1  0
  7 31  1  0
  8 32  1  0
  9 33  1  0
 10 34  1  0
 11 35  1  0
 14 36  1  0
 16 37  1  0
 17 38  1  0
 20 39  1  0
 21 40  1  0
M  END
>  <UniqueID>  (34) 
31

>  <SMILES>  (34) 
CCN(CCc1ccccc1)C(=S)Nc1ccc(F)cc1

>  <Energy>  (34) 
39.580284747953066

>  <Genealogy>  (34) 
CCN(CCc1ccccc1)C(=S)Nc1ccc(F)cc1 (3D coordinates assigned)
CCN(CCc1ccccc1)C(=S)Nc1ccc(F)cc1 (optimized conformer: 39.580284747953066 kcal/mol)

>  <smiles>  (34) 
CCN(CCc1ccccc1)C(=S)Nc1ccc(F)cc1

>  <score_type>  (34) 
oracle

>  <origin>  (34) 
adg

>  <m_score__min__energy>  (34) 
-7.1600000000000001

>  <m_primary>  (34) 
energy

$$$$
34:0
     RDKit          3D

 53 55  0  0  0  0  0  0  0  0999 V2000
   60.6450   29.1460   46.5590 C   0  0  0  0  0  0  0  0  0  0  0  0
   59.2350   29.1220   45.9600 C   0  0  2  0  0  0  0  0  0  0  0  0
   58.6320   27.7130   46.0660 C   0  0  0  0  0  0  0  0  0  0  0  0
   57.2690   27.6630   45.3790 C   0  0  0  0  0  0  0  0  0  0  0  0
   57.4010   28.1080   43.9170 C   0  0  0  0  0  0  0  0  0  0  0  0
   57.9530   29.4750   43.7960 N   0  0  1  0  0  0  0  0  0  0  0  0
   56.9830   30.4950   44.1850 C   0  0  0  0  0  0  0  0  0  0  0  0
   55.8970   30.1870   44.6550 O   0  0  0  0  0  0  0  0  0  0  0  0
   57.2760   31.9650   43.9820 C   0  0  0  0  0  0  0  0  0  0  0  0
   58.4210   32.3970   44.8080 N   0  0  0  0  0  0  0  0  0  0  0  0
   58.1670   32.2090   46.2600 C   0  0  0  0  0  0  0  0  0  0  0  0
   57.7830   33.5210   46.9650 C   0  0  0  0  0  0  0  0  0  0  0  0
   58.8230   34.5720   46.8130 N   0  0  0  0  0  0  0  0  0  0  0  0
   59.6920   34.6780   48.0040 C   0  0  0  0  0  0  0  0  0  0  0  0
   60.5780   33.4570   48.1230 C   0  0  0  0  0  0  0  0  0  0  0  0
   61.7880   33.4220   47.4010 C   0  0  0  0  0  0  0  0  0  0  0  0
   62.1480   34.4640   46.6080 F   0  0  0  0  0  0  0  0  0  0  0  0
   62.6360   32.3150   47.4920 C   0  0  0  0  0  0  0  0  0  0  0  0
   62.2910   31.2320   48.3010 C   0  0  0  0  0  0  0  0  0  0  0  0
   61.0960   31.2510   49.0210 C   0  0  0  0  0  0  0  0  0  0  0  0
   60.2360   32.3520   48.9410 C   0  0  0  0  0  0  0  0  0  0  0  0
   58.7470   32.3000   49.8820 Cl  0  0  0  0  0  0  0  0  0  0  0  0
   59.6380   34.4190   45.5850 C   0  0  0  0  0  0  0  0  0  0  0  0
   58.8280   33.7760   44.4540 C   0  0  0  0  0  0  0  0  0  0  0  0
   59.2650   29.5980   44.4840 C   0  0  0  0  0  0  0  0  0  0  0  0
   60.5770   29.1448   47.6569 H   0  0  0  0  0  0  0  0  0  0  0  0
   61.2004   28.2572   46.2251 H   0  0  0  0  0  0  0  0  0  0  0  0
   61.1698   30.0532   46.2251 H   0  0  0  0  0  0  0  0  0  0  0  0
   58.5987   29.8136   46.5317 H   0  0  0  0  0  0  0  0  0  0  0  0
   59.3080   26.9924   45.5826 H   0  0  0  0  0  0  0  0  0  0  0  0
   58.5050   27.4588   47.1287 H   0  0  0  0  0  0  0  0  0  0  0  0
   56.8817   26.6340   45.4129 H   0  0  0  0  0  0  0  0  0  0  0  0
   56.5768   28.3399   45.9011 H   0  0  0  0  0  0  0  0  0  0  0  0
   58.0690   27.4087   43.3929 H   0  0  0  0  0  0  0  0  0  0  0  0
   56.3947   28.1099   43.4727 H   0  0  0  0  0  0  0  0  0  0  0  0
   58.1520   29.6290   42.7800 H   0  0  0  0  0  0  0  0  0  0  0  0
   57.5106   32.1417   42.9219 H   0  0  0  0  0  0  0  0  0  0  0  0
   56.3898   32.5430   44.2830 H   0  0  0  0  0  0  0  0  0  0  0  0
   57.3454   31.4882   46.3841 H   0  0  0  0  0  0  0  0  0  0  0  0
   59.0980   31.8434   46.7178 H   0  0  0  0  0  0  0  0  0  0  0  0
   56.8412   33.8911   46.5337 H   0  0  0  0  0  0  0  0  0  0  0  0
   57.6780   33.3062   48.0387 H   0  0  0  0  0  0  0  0  0  0  0  0
   60.3220   35.5752   47.9139 H   0  0  0  0  0  0  0  0  0  0  0  0
   59.0595   34.7478   48.9012 H   0  0  0  0  0  0  0  0  0  0  0  0
   63.5780   32.2975   46.9243 H   0  0  0  0  0  0  0  0  0  0  0  0
   62.9614   30.3627   48.3713 H   0  0  0  0  0  0  0  0  0  0  0  0
   60.8279   30.3940   49.6563 H   0  0  0  0  0  0  0  0  0  0  0  0
   59.9836   35.4110   45.2587 H   0  0  0  0  0  0  0  0  0  0  0  0
   60.4919   33.7649   45.8150 H   0  0  0  0  0  0  0  0  0  0  0  0
   57.9276   34.3800   44.2685 H   0  0  0  0  0  0  0  0  0  0  0  0
   59.4576   33.7343   43.5530 H   0  0  0  0  0  0  0  0  0  0  0  0
   60.0031   28.9925   43.9376 H   0  0  0  0  0  0  0  0  0  0  0  0
   59.5274   30.6662   44.4931 H   0  0  0  0  0  0  0  0  0  0  0  0
  1  2  1  0
  2  3  1  0
  3  4  1  0
  4  5  1  0
  5  6  1  0
  6  7  1  0
  7  8  2  0
  7  9  1  0
  9 10  1  0
 10 11  1  0
 11 12  1  0
 12 13  1  0
 13 14  1  0
 14 15  1  0
 15 16  2  0
 16 17  1  0
 16 18  1  0
 18 19  2  0
 19 20  1  0
 20 21  2  0
 21 22  1  0
 13 23  1  0
 23 24  1  0
  6 25  1  0
 25  2  1  0
 24 10  1  0
 21 15  1  0
  1 26  1  0
  1 27  1  0
  1 28  1  0
  2 29  1  1
  3 30  1  0
  3 31  1  0
  4 32  1  0
  4 33  1  0
  5 34  1  0
  5 35  1  0
  6 36  1  6
  9 37  1  0
  9 38  1  0
 11 39  1  0
 11 40  1  0
 12 41  1  0
 12 42  1  0
 14 43  1  0
 14 44  1  0
 18 45  1  0
 19 46  1  0
 20 47  1  0
 23 48  1  0
 23 49  1  0
 24 50  1  0
 24 51  1  0
 25 52  1  0
 25 53  1  0
M  CHG  1   6   1
M  END
>  <UniqueID>  (35) 
32

>  <SMILES>  (35) 
C[C@@H]1CCC[N@@H+](C(=O)CN2CCN(Cc3c(F)cccc3Cl)CC2)C1

>  <Energy>  (35) 
68.79406623527223

>  <Genealogy>  (35) 
CC1CCC[NH+](C(=O)CN2CCN(Cc3c(F)cccc3Cl)CC2)C1 (protonated)
C[C@@H]1CCC[N@@H+](C(=O)CN2CCN(Cc3c(F)cccc3Cl)CC2)C1 (chirality)
C[C@@H]1CCC[N@@H+](C(=O)CN2CCN(Cc3c(F)cccc3Cl)CC2)C1 (3D coordinates assigned)
C[C@@H]1CCC[N@@H+](C(=O)CN2CCN(Cc3c(F)cccc3Cl)CC2)C1 (nonaromatic ring conformer: 68.79406623527223 kcal/mol)

>  <smiles>  (35) 
CC1CCCN(C(=O)CN2CCN(Cc3c(F)cccc3Cl)CC2)C1

>  <score_type>  (35) 
oracle

>  <origin>  (35) 
adg

>  <m_score__min__energy>  (35) 
-7.25

>  <m_primary>  (35) 
energy

$$$$
35:0
     RDKit          3D

 36 37  0  0  0  0  0  0  0  0999 V2000
   64.3400   33.8510   51.2440 C   0  0  0  0  0  0  0  0  0  0  0  0
   64.4530   33.8380   49.8240 O   0  0  0  0  0  0  0  0  0  0  0  0
   63.3630   33.7410   48.9450 C   0  0  0  0  0  0  0  0  0  0  0  0
   62.0830   34.0110   49.4400 C   0  0  0  0  0  0  0  0  0  0  0  0
   60.9660   33.9280   48.6050 C   0  0  0  0  0  0  0  0  0  0  0  0
   61.1090   33.5720   47.2530 C   0  0  0  0  0  0  0  0  0  0  0  0
   59.9230   33.4840   46.3640 C   0  0  0  0  0  0  0  0  0  0  0  0
   59.4280   34.6310   45.7180 C   0  0  0  0  0  0  0  0  0  0  0  0
   58.3150   34.5440   44.8780 C   0  0  0  0  0  0  0  0  0  0  0  0
   57.6790   33.3180   44.6770 C   0  0  0  0  0  0  0  0  0  0  0  0
   58.1450   32.1650   45.3270 C   0  0  0  0  0  0  0  0  0  0  0  0
   57.4910   30.8590   45.1020 C   0  0  0  0  0  0  0  0  0  0  0  0
   56.2660   30.8380   44.7980 O   0  0  0  0  0  0  0  0  0  0  0  0
   58.2160   29.6170   45.2090 N   0  0  0  0  0  0  0  0  0  0  0  0
   57.4800   28.3870   45.5110 C   0  0  0  0  0  0  0  0  0  0  0  0
   59.6410   29.5570   44.8660 C   0  0  0  0  0  0  0  0  0  0  0  0
   59.2760   32.2520   46.1550 C   0  0  0  0  0  0  0  0  0  0  0  0
   62.3970   33.3010   46.7550 C   0  0  0  0  0  0  0  0  0  0  0  0
   63.5140   33.3840   47.5920 C   0  0  0  0  0  0  0  0  0  0  0  0
   65.3379   33.7362   51.6923 H   0  0  0  0  0  0  0  0  0  0  0  0
   63.9001   34.8057   51.5681 H   0  0  0  0  0  0  0  0  0  0  0  0
   63.6948   33.0212   51.5681 H   0  0  0  0  0  0  0  0  0  0  0  0
   61.9547   34.2911   50.4960 H   0  0  0  0  0  0  0  0  0  0  0  0
   59.9659   34.1432   49.0093 H   0  0  0  0  0  0  0  0  0  0  0  0
   59.9200   35.6022   45.8750 H   0  0  0  0  0  0  0  0  0  0  0  0
   57.9383   35.4456   44.3729 H   0  0  0  0  0  0  0  0  0  0  0  0
   56.8092   33.2554   44.0065 H   0  0  0  0  0  0  0  0  0  0  0  0
   57.4056   28.2626   46.6014 H   0  0  0  0  0  0  0  0  0  0  0  0
   56.4702   28.4485   45.0792 H   0  0  0  0  0  0  0  0  0  0  0  0
   58.0116   27.5262   45.0792 H   0  0  0  0  0  0  0  0  0  0  0  0
   60.2395   29.5318   45.7886 H   0  0  0  0  0  0  0  0  0  0  0  0
   59.8383   28.6498   44.2761 H   0  0  0  0  0  0  0  0  0  0  0  0
   59.9138   30.4445   44.2761 H   0  0  0  0  0  0  0  0  0  0  0  0
   59.6608   31.3461   46.6461 H   0  0  0  0  0  0  0  0  0  0  0  0
   62.5261   33.0217   45.6989 H   0  0  0  0  0  0  0  0  0  0  0  0
   64.5156   33.1692   47.1911 H   0  0  0  0  0  0  0  0  0  0  0  0
  1  2  1  0
  2  3  1  0
  3  4  2  0
  4  5  1  0
  5  6  2  0
  6  7  1  0
  7  8  2  0
  8  9  1  0
  9 10  2  0
 10 11  1  0
 11 12  1  0
 12 13  2  0
 12 14  1  0
 14 15  1  0
 14 16  1  0
 11 17  2  0
  6 18  1  0
 18 19  2  0
 19  3  1  0
 17  7  1  0
  1 20  1  0
  1 21  1  0
  1 22  1  0
  4 23  1  0
  5 24  1  0
  8 25  1  0
  9 26  1  0
 10 27  1  0
 15 28  1  0
 15 29  1  0
 15 30  1  0
 16 31  1  0
 16 32  1  0
 16 33  1  0
 17 34  1  0
 18 35  1  0
 19 36  1  0
M  END
>  <UniqueID>  (36) 
33

>  <SMILES>  (36) 
COc1ccc(-c2cccc(C(=O)N(C)C)c2)cc1

>  <Energy>  (36) 
43.960894120520784

>  <Genealogy>  (36) 
COc1ccc(-c2cccc(C(=O)N(C)C)c2)cc1 (3D coordinates assigned)
COc1ccc(-c2cccc(C(=O)N(C)C)c2)cc1 (optimized conformer: 43.960894120520784 kcal/mol)

>  <smiles>  (36) 
COc1ccc(-c2cccc(C(=O)N(C)C)c2)cc1

>  <score_type>  (36) 
oracle

>  <origin>  (36) 
adg

>  <m_score__min__energy>  (36) 
-7.0199999999999996

>  <m_primary>  (36) 
energy

$$$$
36:0
     RDKit          3D

 36 38  0  0  0  0  0  0  0  0999 V2000
   55.1610   24.5120   46.6190 O   0  0  0  0  0  0  0  0  0  0  0  0
   55.7020   25.4390   45.9610 C   0  0  0  0  0  0  0  0  0  0  0  0
   55.1470   26.7130   45.9830 O   0  0  0  0  0  0  0  0  0  0  0  0
   56.9160   25.1670   45.1350 C   0  0  0  0  0  0  0  0  0  0  0  0
   58.4300   25.4200   46.1210 S   0  0  0  0  0  0  0  0  0  0  0  0
   58.3750   27.2100   46.0170 C   0  0  0  0  0  0  0  0  0  0  0  0
   59.2550   27.9550   46.7300 N   0  0  0  0  0  0  0  0  0  0  0  0
   59.2440   29.3110   46.6670 C   0  0  0  0  0  0  0  0  0  0  0  0
   60.2900   30.0530   47.4060 C   0  0  0  0  0  0  0  0  0  0  0  0
   60.3820   29.9240   48.8020 C   0  0  0  0  0  0  0  0  0  0  0  0
   61.3730   30.6110   49.5100 C   0  0  0  0  0  0  0  0  0  0  0  0
   62.2880   31.4210   48.8300 C   0  0  0  0  0  0  0  0  0  0  0  0
   63.5300   32.2810   49.7210 Cl  0  0  0  0  0  0  0  0  0  0  0  0
   62.2180   31.5370   47.4390 C   0  0  0  0  0  0  0  0  0  0  0  0
   61.2280   30.8520   46.7270 C   0  0  0  0  0  0  0  0  0  0  0  0
   58.2680   29.9430   45.8620 C   0  0  0  0  0  0  0  0  0  0  0  0
   58.0970   31.4110   45.7900 C   0  0  0  0  0  0  0  0  0  0  0  0
   57.9360   32.0610   44.5520 C   0  0  0  0  0  0  0  0  0  0  0  0
   57.7890   33.4510   44.5000 C   0  0  0  0  0  0  0  0  0  0  0  0
   57.8150   34.2030   45.6770 C   0  0  0  0  0  0  0  0  0  0  0  0
   57.9960   33.5680   46.9080 C   0  0  0  0  0  0  0  0  0  0  0  0
   58.1440   32.1790   46.9660 C   0  0  0  0  0  0  0  0  0  0  0  0
   57.4140   29.1570   45.1540 N   0  0  0  0  0  0  0  0  0  0  0  0
   57.4640   27.8280   45.2220 N   0  0  0  0  0  0  0  0  0  0  0  0
   56.8857   24.1267   44.7787 H   0  0  0  0  0  0  0  0  0  0  0  0
   56.9278   25.8603   44.2811 H   0  0  0  0  0  0  0  0  0  0  0  0
   59.6713   29.2797   49.3404 H   0  0  0  0  0  0  0  0  0  0  0  0
   61.4330   30.5141   50.6041 H   0  0  0  0  0  0  0  0  0  0  0  0
   62.9426   32.1680   46.9034 H   0  0  0  0  0  0  0  0  0  0  0  0
   61.1826   30.9384   45.6313 H   0  0  0  0  0  0  0  0  0  0  0  0
   57.9257   31.4737   43.6220 H   0  0  0  0  0  0  0  0  0  0  0  0
   57.6527   33.9528   43.5307 H   0  0  0  0  0  0  0  0  0  0  0  0
   57.6929   35.2954   45.6344 H   0  0  0  0  0  0  0  0  0  0  0  0
   58.0221   34.1620   47.8335 H   0  0  0  0  0  0  0  0  0  0  0  0
   58.2980   31.6849   47.9367 H   0  0  0  0  0  0  0  0  0  0  0  0
   56.7870   27.2610   44.6640 H   0  0  0  0  0  0  0  0  0  0  0  0
  1  2  2  0
  2  3  1  0
  2  4  1  0
  4  5  1  0
  5  6  1  0
  6  7  2  0
  7  8  1  0
  8  9  1  0
  9 10  2  0
 10 11  1  0
 11 12  2  0
 12 13  1  0
 12 14  1  0
 14 15  2  0
  8 16  2  0
 16 17  1  0
 17 18  2  0
 18 19  1  0
 19 20  2  0
 20 21  1  0
 21 22  2  0
 16 23  1  0
 23 24  2  0
 24  6  1  0
 15  9  1  0
 22 17  1  0
  4 25  1  0
  4 26  1  0
 10 27  1  0
 11 28  1  0
 14 29  1  0
 15 30  1  0
 18 31  1  0
 19 32  1  0
 20 33  1  0
 21 34  1  0
 22 35  1  0
 24 36  1  0
M  CHG  2   3  -1  24   1
M  END
>  <UniqueID>  (37) 
34

>  <SMILES>  (37) 
O=C([O-])CSc1nc(-c2ccc(Cl)cc2)c(-c2ccccc2)n[nH+]1

>  <Energy>  (37) 
46.11162159190796

>  <Genealogy>  (37) 
O=C([O-])CSc1nc(-c2ccc(Cl)cc2)c(-c2ccccc2)n[nH+]1 (protonated)
O=C([O-])CSc1nc(-c2ccc(Cl)cc2)c(-c2ccccc2)n[nH+]1 (3D coordinates assigned)
O=C([O-])CSc1nc(-c2ccc(Cl)cc2)c(-c2ccccc2)n[nH+]1 (optimized conformer: 46.11162159190796 kcal/mol)

>  <smiles>  (37) 
O=C(O)CSc1nnc(-c2ccccc2)c(-c2ccc(Cl)cc2)n1

>  <score_type>  (37) 
oracle

>  <origin>  (37) 
adg

>  <m_score__min__energy>  (37) 
-9.8300000000000001

>  <m_primary>  (37) 
energy

$$$$
37:0
     RDKit          3D

 40 41  0  0  0  0  0  0  0  0999 V2000
   57.0950   25.0840   44.2030 C   0  0  0  0  0  0  0  0  0  0  0  0
   55.9390   24.7670   45.1430 C   0  0  0  0  0  0  0  0  0  0  0  0
   55.5690   25.9220   45.8930 O   0  0  0  0  0  0  0  0  0  0  0  0
   56.3270   27.0980   45.9140 C   0  0  0  0  0  0  0  0  0  0  0  0
   55.9070   28.1750   45.2540 O   0  0  0  0  0  0  0  0  0  0  0  0
   56.5780   29.3200   45.2310 C   0  0  0  0  0  0  0  0  0  0  0  0
   56.1050   30.2910   44.5800 O   0  0  0  0  0  0  0  0  0  0  0  0
   57.7950   29.4430   45.9250 C   0  0  0  0  0  0  0  0  0  0  0  0
   58.5320   30.6420   45.9200 C   0  0  0  0  0  0  0  0  0  0  0  0
   59.7500   30.7260   46.6020 C   0  0  0  0  0  0  0  0  0  0  0  0
   60.6700   32.2770   46.6060 S   0  0  0  0  0  0  0  0  0  0  0  0
   59.3820   33.4530   47.0640 N   0  0  0  0  0  0  0  0  0  0  0  0
   59.8520   34.2530   48.2210 C   0  0  0  0  0  0  0  0  0  0  0  0
   59.6400   33.5720   49.5790 C   0  0  0  0  0  0  0  0  0  0  0  0
   58.8150   34.2590   45.9530 C   0  0  0  0  0  0  0  0  0  0  0  0
   57.4000   33.8220   45.5590 C   0  0  0  0  0  0  0  0  0  0  0  0
   60.2170   29.6280   47.3280 C   0  0  0  0  0  0  0  0  0  0  0  0
   59.4960   28.4330   47.3440 C   0  0  0  0  0  0  0  0  0  0  0  0
   58.2810   28.3220   46.6400 C   0  0  0  0  0  0  0  0  0  0  0  0
   57.5310   27.1320   46.6310 C   0  0  0  0  0  0  0  0  0  0  0  0
   58.0540   25.6830   47.4930 Cl  0  0  0  0  0  0  0  0  0  0  0  0
   57.9904   25.3295   44.7928 H   0  0  0  0  0  0  0  0  0  0  0  0
   57.3022   24.2095   43.5687 H   0  0  0  0  0  0  0  0  0  0  0  0
   56.8271   25.9418   43.5687 H   0  0  0  0  0  0  0  0  0  0  0  0
   55.0754   24.4281   44.5520 H   0  0  0  0  0  0  0  0  0  0  0  0
   56.2564   23.9783   45.8410 H   0  0  0  0  0  0  0  0  0  0  0  0
   58.1479   31.5179   45.3766 H   0  0  0  0  0  0  0  0  0  0  0  0
   58.6040   32.8520   47.4230 H   0  0  0  0  0  0  0  0  0  0  0  0
   60.9278   34.4447   48.0946 H   0  0  0  0  0  0  0  0  0  0  0  0
   59.2550   35.1768   48.2321 H   0  0  0  0  0  0  0  0  0  0  0  0
   59.8622   34.2859   50.3858 H   0  0  0  0  0  0  0  0  0  0  0  0
   58.5953   33.2378   49.6625 H   0  0  0  0  0  0  0  0  0  0  0  0
   60.3104   32.7039   49.6625 H   0  0  0  0  0  0  0  0  0  0  0  0
   58.7822   35.3131   46.2657 H   0  0  0  0  0  0  0  0  0  0  0  0
   59.4617   34.1114   45.0755 H   0  0  0  0  0  0  0  0  0  0  0  0
   56.8067   33.6388   46.4670 H   0  0  0  0  0  0  0  0  0  0  0  0
   56.9238   34.6149   44.9636 H   0  0  0  0  0  0  0  0  0  0  0  0
   57.4538   32.8986   44.9636 H   0  0  0  0  0  0  0  0  0  0  0  0
   61.1590   29.7055   47.8907 H   0  0  0  0  0  0  0  0  0  0  0  0
   59.8794   27.5716   47.9105 H   0  0  0  0  0  0  0  0  0  0  0  0
  1  2  1  0
  2  3  1  0
  3  4  1  0
  4  5  1  0
  5  6  1  0
  6  7  2  0
  6  8  1  0
  8  9  2  0
  9 10  1  0
 10 11  1  0
 11 12  1  0
 12 13  1  0
 13 14  1  0
 12 15  1  0
 15 16  1  0
 10 17  2  0
 17 18  1  0
 18 19  2  0
 19 20  1  0
 20 21  1  0
 20  4  2  0
 19  8  1  0
  1 22  1  0
  1 23  1  0
  1 24  1  0
  2 25  1  0
  2 26  1  0
  9 27  1  0
 12 28  1  0
 13 29  1  0
 13 30  1  0
 14 31  1  0
 14 32  1  0
 14 33  1  0
 15 34  1  0
 15 35  1  0
 16 36  1  0
 16 37  1  0
 16 38  1  0
 17 39  1  0
 18 40  1  0
M  CHG  1  12   1
M  END
>  <UniqueID>  (38) 
35

>  <SMILES>  (38) 
CCOc1oc(=O)c2cc(S[NH+](CC)CC)ccc2c1Cl

>  <Energy>  (38) 
48.736921109581935

>  <Genealogy>  (38) 
CCOc1oc(=O)c2cc(S[NH+](CC)CC)ccc2c1Cl (protonated)
CCOc1oc(=O)c2cc(S[NH+](CC)CC)ccc2c1Cl (3D coordinates assigned)
CCOc1oc(=O)c2cc(S[NH+](CC)CC)ccc2c1Cl (optimized conformer: 48.736921109581935 kcal/mol)

>  <smiles>  (38) 
CCOc1oc(=O)c2cc(SN(CC)CC)ccc2c1Cl

>  <score_type>  (38) 
oracle

>  <origin>  (38) 
adg

>  <m_score__min__energy>  (38) 
-5.3600000000000003

>  <m_primary>  (38) 
energy

$$$$
38:0
     RDKit          3D

 26 27  0  0  0  0  0  0  0  0999 V2000
   55.1480   29.2270   44.5090 O   0  0  0  0  0  0  0  0  0  0  0  0
   56.4110   29.9810   44.2030 S   0  0  0  0  0  0  0  0  0  0  0  0
   56.5770   30.0750   42.7120 O   0  0  0  0  0  0  0  0  0  0  0  0
   56.2910   31.5800   44.8620 N   0  0  0  0  0  0  0  0  0  0  0  0
   57.4030   32.4150   45.2160 C   0  0  0  0  0  0  0  0  0  0  0  0
   57.7970   32.6060   46.5550 C   0  0  0  0  0  0  0  0  0  0  0  0
   58.8800   33.4380   46.8600 C   0  0  0  0  0  0  0  0  0  0  0  0
   59.3530   33.6690   48.5350 Cl  0  0  0  0  0  0  0  0  0  0  0  0
   59.5800   34.0790   45.8330 C   0  0  0  0  0  0  0  0  0  0  0  0
   60.6320   34.8880   46.1190 F   0  0  0  0  0  0  0  0  0  0  0  0
   59.1970   33.8890   44.5020 C   0  0  0  0  0  0  0  0  0  0  0  0
   58.1140   33.0610   44.1950 C   0  0  0  0  0  0  0  0  0  0  0  0
   57.7510   32.8880   42.8990 F   0  0  0  0  0  0  0  0  0  0  0  0
   57.7710   29.1290   44.9270 C   0  0  0  0  0  0  0  0  0  0  0  0
   59.0870   29.4980   44.6130 C   0  0  0  0  0  0  0  0  0  0  0  0
   60.1640   28.8250   45.2010 C   0  0  0  0  0  0  0  0  0  0  0  0
   59.9310   27.7810   46.1000 C   0  0  0  0  0  0  0  0  0  0  0  0
   60.9740   27.1290   46.6700 F   0  0  0  0  0  0  0  0  0  0  0  0
   58.6200   27.4070   46.4110 C   0  0  0  0  0  0  0  0  0  0  0  0
   57.5420   28.0770   45.8260 C   0  0  0  0  0  0  0  0  0  0  0  0
   57.2510   32.0990   47.3642 H   0  0  0  0  0  0  0  0  0  0  0  0
   59.7493   34.3923   43.6947 H   0  0  0  0  0  0  0  0  0  0  0  0
   59.2730   30.3177   43.9034 H   0  0  0  0  0  0  0  0  0  0  0  0
   61.1953   29.1183   44.9551 H   0  0  0  0  0  0  0  0  0  0  0  0
   58.4368   26.5839   47.1174 H   0  0  0  0  0  0  0  0  0  0  0  0
   56.5120   27.7787   46.0711 H   0  0  0  0  0  0  0  0  0  0  0  0
  1  2  2  0
  2  3  2  0
  2  4  1  0
  4  5  1  0
  5  6  2  0
  6  7  1  0
  7  8  1  0
  7  9  2  0
  9 10  1  0
  9 11  1  0
 11 12  2  0
 12 13  1  0
  2 14  1  0
 14 15  2  0
 15 16  1  0
 16 17  2  0
 17 18  1  0
 17 19  1  0
 19 20  2  0
 12  5  1  0
 20 14  1  0
  6 21  1  0
 11 22  1  0
 15 23  1  0
 16 24  1  0
 19 25  1  0
 20 26  1  0
M  CHG  1   4  -1
M  END
>  <UniqueID>  (39) 
36

>  <SMILES>  (39) 
O=S(=O)([N-]c1cc(Cl)c(F)cc1F)c1ccc(F)cc1

>  <Energy>  (39) 
30.209747751356694

>  <Genealogy>  (39) 
O=S(=O)([N-]c1cc(Cl)c(F)cc1F)c1ccc(F)cc1 (protonated)
O=S(=O)([N-]c1cc(Cl)c(F)cc1F)c1ccc(F)cc1 (3D coordinates assigned)
O=S(=O)([N-]c1cc(Cl)c(F)cc1F)c1ccc(F)cc1 (optimized conformer: 30.209747751356694 kcal/mol)

>  <smiles>  (39) 
O=S(=O)(Nc1cc(Cl)c(F)cc1F)c1ccc(F)cc1

>  <score_type>  (39) 
oracle

>  <origin>  (39) 
adg

>  <m_score__min__energy>  (39) 
-8.5

>  <m_primary>  (39) 
energy

$$$$
39:0
     RDKit          3D

 28 30  0  0  0  0  0  0  0  0999 V2000
   55.2650   29.8970   44.4740 O   0  0  0  0  0  0  0  0  0  0  0  0
   56.5650   29.6850   43.7510 S   0  0  0  0  0  0  0  0  0  0  0  0
   56.2830   29.1060   42.3940 O   0  0  0  0  0  0  0  0  0  0  0  0
   57.6020   28.5780   44.6450 C   0  0  0  0  0  0  0  0  0  0  0  0
   58.9960   28.7000   44.5490 C   0  0  0  0  0  0  0  0  0  0  0  0
   59.8280   27.8330   45.2640 C   0  0  0  0  0  0  0  0  0  0  0  0
   59.2730   26.8420   46.0770 C   0  0  0  0  0  0  0  0  0  0  0  0
   57.8840   26.7150   46.1740 C   0  0  0  0  0  0  0  0  0  0  0  0
   57.0480   27.5790   45.4600 C   0  0  0  0  0  0  0  0  0  0  0  0
   57.3750   31.2350   43.5830 C   0  0  0  0  0  0  0  0  0  0  0  0
   57.7230   31.8810   42.4040 C   0  0  0  0  0  0  0  0  0  0  0  0
   58.3570   33.0420   42.6930 N   0  0  0  0  0  0  0  0  0  0  0  0
   58.4120   33.1320   44.0120 N   0  0  0  0  0  0  0  0  0  0  0  0
   58.9720   34.1410   44.7250 C   0  0  0  0  0  0  0  0  0  0  0  0
   58.9420   34.0610   46.1270 C   0  0  0  0  0  0  0  0  0  0  0  0
   59.6510   35.3360   47.1000 Cl  0  0  0  0  0  0  0  0  0  0  0  0
   58.3390   32.9470   46.7450 C   0  0  0  0  0  0  0  0  0  0  0  0
   57.7720   31.9260   45.9670 C   0  0  0  0  0  0  0  0  0  0  0  0
   57.8320   32.0640   44.5800 C   0  0  0  0  0  0  0  0  0  0  0  0
   59.4358   29.4796   43.9097 H   0  0  0  0  0  0  0  0  0  0  0  0
   60.9208   27.9315   45.1862 H   0  0  0  0  0  0  0  0  0  0  0  0
   59.9284   26.1618   46.6407 H   0  0  0  0  0  0  0  0  0  0  0  0
   57.4478   25.9335   46.8135 H   0  0  0  0  0  0  0  0  0  0  0  0
   55.9556   27.4755   45.5372 H   0  0  0  0  0  0  0  0  0  0  0  0
   57.5154   31.5069   41.3906 H   0  0  0  0  0  0  0  0  0  0  0  0
   59.4374   34.9994   44.2185 H   0  0  0  0  0  0  0  0  0  0  0  0
   58.3127   32.8776   47.8425 H   0  0  0  0  0  0  0  0  0  0  0  0
   57.2980   31.0497   46.4333 H   0  0  0  0  0  0  0  0  0  0  0  0
  1  2  2  0
  2  3  2  0
  2  4  1  0
  4  5  2  0
  5  6  1  0
  6  7  2  0
  7  8  1  0
  8  9  2  0
  2 10  1  0
 10 11  1  0
 11 12  2  0
 12 13  1  0
 13 14  1  0
 14 15  2  0
 15 16  1  0
 15 17  1  0
 17 18  2  0
 18 19  1  0
  9  4  1  0
 19 10  2  0
 19 13  1  0
  5 20  1  0
  6 21  1  0
  7 22  1  0
  8 23  1  0
  9 24  1  0
 11 25  1  0
 14 26  1  0
 17 27  1  0
 18 28  1  0
M  END
>  <UniqueID>  (40) 
37

>  <SMILES>  (40) 
O=S(=O)(c1ccccc1)c1cnn2cc(Cl)ccc12

>  <Energy>  (40) 
68.01414835813983

>  <Genealogy>  (40) 
O=S(=O)(c1ccccc1)c1cnn2cc(Cl)ccc12 (3D coordinates assigned)
O=S(=O)(c1ccccc1)c1cnn2cc(Cl)ccc12 (optimized conformer: 68.01414835813983 kcal/mol)

>  <smiles>  (40) 
O=S(=O)(c1ccccc1)c1cnn2cc(Cl)ccc12

>  <score_type>  (40) 
oracle

>  <origin>  (40) 
adg

>  <m_score__min__energy>  (40) 
-7.7599999999999998

>  <m_primary>  (40) 
energy

$$$$
40:0
     RDKit          3D

 36 37  0  0  0  0  0  0  0  0999 V2000
   58.6466   35.6478   45.1090 H   0  0  0  0  0  0  0  0  0  0  0  0
   58.5670   34.5860   45.3850 C   0  0  0  0  0  0  0  0  0  0  0  0
   57.9990   33.6770   44.4970 C   0  0  0  0  0  0  0  0  0  0  0  0
   57.6218   34.0221   43.5231 H   0  0  0  0  0  0  0  0  0  0  0  0
   57.9080   32.3280   44.8420 C   0  0  0  0  0  0  0  0  0  0  0  0
   57.4292   31.6232   44.1462 H   0  0  0  0  0  0  0  0  0  0  0  0
   58.4200   31.8520   46.0690 C   0  0  0  0  0  0  0  0  0  0  0  0
   58.9620   32.7930   46.9780 C   0  0  0  0  0  0  0  0  0  0  0  0
   59.0350   34.1510   46.6240 C   0  0  0  0  0  0  0  0  0  0  0  0
   59.4649   34.8766   47.3302 H   0  0  0  0  0  0  0  0  0  0  0  0
   59.4350   32.3700   48.3380 C   0  0  0  0  0  0  0  0  0  0  0  0
   58.5654   32.1635   48.9792 H   0  0  0  0  0  0  0  0  0  0  0  0
   60.0382   33.1768   48.7798 H   0  0  0  0  0  0  0  0  0  0  0  0
   60.2820   31.1190   48.2210 C   0  0  0  0  0  0  0  0  0  0  0  0
   60.7928   30.9361   49.1779 H   0  0  0  0  0  0  0  0  0  0  0  0
   61.0217   31.2621   47.4195 H   0  0  0  0  0  0  0  0  0  0  0  0
   59.2400   29.6850   47.8140 S   0  0  0  0  0  0  0  0  0  0  0  0
   58.2200   30.3830   46.4420 C   0  0  2  0  0  0  0  0  0  0  0  0
   57.1932   30.4363   46.8331 H   0  0  0  0  0  0  0  0  0  0  0  0
   58.3090   29.4310   45.2450 C   0  0  0  0  0  0  0  0  0  0  0  0
   59.3740   29.2950   44.5200 N   0  0  0  0  0  0  0  0  0  0  0  0
   60.5820   28.5910   44.8900 C   0  0  0  0  0  0  0  0  0  0  0  0
   60.6590   28.5461   45.9864 H   0  0  0  0  0  0  0  0  0  0  0  0
   60.5506   27.5697   44.4825 H   0  0  0  0  0  0  0  0  0  0  0  0
   61.4551   29.1217   44.4825 H   0  0  0  0  0  0  0  0  0  0  0  0
   57.1190   28.5660   44.9010 C   0  0  1  0  0  0  0  0  0  0  0  0
   57.1394   28.3026   43.8332 H   0  0  0  0  0  0  0  0  0  0  0  0
   57.1730   26.9330   45.9570 Br  0  0  0  0  0  0  0  0  0  0  0  0
   55.9380   29.2870   45.2010 O   0  0  0  0  0  0  0  0  0  0  0  0
   55.5320   30.0920   44.1100 C   0  0  0  0  0  0  0  0  0  0  0  0
   55.7351   31.1477   44.3427 H   0  0  0  0  0  0  0  0  0  0  0  0
   54.4557   29.9443   43.9375 H   0  0  0  0  0  0  0  0  0  0  0  0
   56.2950   29.6990   42.8490 C   0  0  0  0  0  0  0  0  0  0  0  0
   57.2406   29.2119   43.1294 H   0  0  0  0  0  0  0  0  0  0  0  0
   55.6861   29.0024   42.2541 H   0  0  0  0  0  0  0  0  0  0  0  0
   56.5086   30.5993   42.2541 H   0  0  0  0  0  0  0  0  0  0  0  0
  1  2  1  0
  2  3  2  0
  3  4  1  0
  3  5  1  0
  5  6  1  0
  5  7  2  0
  7  8  1  0
  8  9  2  0
  9 10  1  0
  8 11  1  0
 11 12  1  0
 11 13  1  0
 11 14  1  0
 14 15  1  0
 14 16  1  0
 14 17  1  0
 17 18  1  0
 18 19  1  1
 18 20  1  0
 20 21  2  0
 21 22  1  0
 22 23  1  0
 22 24  1  0
 22 25  1  0
 20 26  1  0
 26 27  1  6
 26 28  1  0
 26 29  1  0
 29 30  1  0
 30 31  1  0
 30 32  1  0
 30 33  1  0
 33 34  1  0
 33 35  1  0
 33 36  1  0
  9  2  1  0
 18  7  1  0
M  END
>  <UniqueID>  (41) 
38

>  <SMILES>  (41) 
CCO[C@H](Br)/C(=N/C)[C@H]1SCCc2ccccc21

>  <Energy>  (41) 
41.09519596431907

>  <Genealogy>  (41) 
CCO[C@H](Br)C(=NC)[C@H]1SCCc2ccccc21 (chirality)
CCO[C@H](Br)/C(=N/C)[C@H]1SCCc2ccccc21 (cis-trans isomerization)
CCO[C@H](Br)/C(=N/C)[C@H]1SCCc2ccccc21 (3D coordinates assigned)
CCO[C@H](Br)/C(=N/C)[C@H]1SCCc2ccccc21 (nonaromatic ring conformer: 41.09519596431907 kcal/mol)

>  <smiles>  (41) 
CCOC(Br)C(=NC)C1SCCc2ccccc21

>  <score_type>  (41) 
oracle

>  <origin>  (41) 
adg

>  <m_score__min__energy>  (41) 
-6.7999999999999998

>  <m_primary>  (41) 
energy

$$$$
41:0
     RDKit          3D

 53 56  0  0  0  0  0  0  0  0999 V2000
   66.5960   32.6030   50.1370 C   0  0  0  0  0  0  0  0  0  0  0  0
   65.5200   33.4550   49.7620 O   0  0  0  0  0  0  0  0  0  0  0  0
   64.3610   32.9810   49.1420 C   0  0  0  0  0  0  0  0  0  0  0  0
   63.4160   32.2810   49.8960 C   0  0  0  0  0  0  0  0  0  0  0  0
   62.2570   31.8080   49.2780 C   0  0  0  0  0  0  0  0  0  0  0  0
   62.0430   32.0450   47.9140 C   0  0  0  0  0  0  0  0  0  0  0  0
   60.8320   31.5280   47.2360 C   0  0  0  0  0  0  0  0  0  0  0  0
   60.6050   30.1480   47.2530 C   0  0  0  0  0  0  0  0  0  0  0  0
   59.4520   29.6130   46.6650 C   0  0  0  0  0  0  0  0  0  0  0  0
   59.2130   28.1150   46.6970 C   0  0  0  0  0  0  0  0  0  0  0  0
   60.4660   27.3470   46.2500 C   0  0  0  0  0  0  0  0  0  0  0  0
   60.2410   25.8270   46.3640 C   0  0  0  0  0  0  0  0  0  0  0  0
   58.8880   25.3780   45.9370 N   0  0  0  0  0  0  0  0  0  0  0  0
   58.0800   24.8830   47.0660 C   0  0  0  0  0  0  0  0  0  0  0  0
   58.1530   26.3720   45.1280 C   0  0  0  0  0  0  0  0  0  0  0  0
   57.9750   27.7200   45.8550 C   0  0  0  0  0  0  0  0  0  0  0  0
   58.5490   30.4470   46.0720 N   0  0  0  0  0  0  0  0  0  0  0  0
   58.7350   31.8000   46.0150 C   0  0  0  0  0  0  0  0  0  0  0  0
   57.7820   32.6250   45.3770 C   0  0  0  0  0  0  0  0  0  0  0  0
   56.6310   32.0390   44.8220 O   0  0  0  0  0  0  0  0  0  0  0  0
   56.6360   31.0870   43.7640 C   0  0  0  0  0  0  0  0  0  0  0  0
   58.0050   34.0130   45.3070 C   0  0  0  0  0  0  0  0  0  0  0  0
   59.1580   34.5730   45.8540 C   0  0  0  0  0  0  0  0  0  0  0  0
   60.1010   33.7660   46.4870 C   0  0  0  0  0  0  0  0  0  0  0  0
   59.8980   32.3760   46.5930 C   0  0  0  0  0  0  0  0  0  0  0  0
   63.0220   32.7410   47.1890 C   0  0  0  0  0  0  0  0  0  0  0  0
   64.1430   33.1910   47.8120 N   0  0  0  0  0  0  0  0  0  0  0  0
   66.6590   32.5531   51.2341 H   0  0  0  0  0  0  0  0  0  0  0  0
   66.4229   31.5945   49.7334 H   0  0  0  0  0  0  0  0  0  0  0  0
   67.5380   33.0027   49.7334 H   0  0  0  0  0  0  0  0  0  0  0  0
   63.5839   32.1038   50.9686 H   0  0  0  0  0  0  0  0  0  0  0  0
   61.5114   31.2489   49.8624 H   0  0  0  0  0  0  0  0  0  0  0  0
   61.3361   29.4792   47.7308 H   0  0  0  0  0  0  0  0  0  0  0  0
   59.0016   27.8323   47.7388 H   0  0  0  0  0  0  0  0  0  0  0  0
   60.6917   27.6014   45.2039 H   0  0  0  0  0  0  0  0  0  0  0  0
   61.3062   27.6305   46.9009 H   0  0  0  0  0  0  0  0  0  0  0  0
   60.9875   25.3195   45.7354 H   0  0  0  0  0  0  0  0  0  0  0  0
   60.3376   25.5717   47.4296 H   0  0  0  0  0  0  0  0  0  0  0  0
   58.5564   25.1748   48.0136 H   0  0  0  0  0  0  0  0  0  0  0  0
   57.0711   25.3182   47.0135 H   0  0  0  0  0  0  0  0  0  0  0  0
   58.0095   23.7865   47.0135 H   0  0  0  0  0  0  0  0  0  0  0  0
   58.7093   26.5465   44.1952 H   0  0  0  0  0  0  0  0  0  0  0  0
   57.1496   25.9649   44.9346 H   0  0  0  0  0  0  0  0  0  0  0  0
   57.7961   28.5035   45.1040 H   0  0  0  0  0  0  0  0  0  0  0  0
   57.1248   27.6147   46.5450 H   0  0  0  0  0  0  0  0  0  0  0  0
   57.6910   30.0270   45.6490 H   0  0  0  0  0  0  0  0  0  0  0  0
   56.6413   30.0708   44.1851 H   0  0  0  0  0  0  0  0  0  0  0  0
   55.7371   31.2225   43.1446 H   0  0  0  0  0  0  0  0  0  0  0  0
   57.5334   31.2319   43.1446 H   0  0  0  0  0  0  0  0  0  0  0  0
   57.2634   34.6608   44.8167 H   0  0  0  0  0  0  0  0  0  0  0  0
   59.3245   35.6582   45.7856 H   0  0  0  0  0  0  0  0  0  0  0  0
   61.0115   34.2179   46.9074 H   0  0  0  0  0  0  0  0  0  0  0  0
   62.8819   32.9230   46.1132 H   0  0  0  0  0  0  0  0  0  0  0  0
  1  2  1  0
  2  3  1  0
  3  4  2  0
  4  5  1  0
  5  6  2  0
  6  7  1  0
  7  8  2  0
  8  9  1  0
  9 10  1  0
 10 11  1  0
 11 12  1  0
 12 13  1  0
 13 14  1  0
 13 15  1  0
 15 16  1  0
  9 17  2  0
 17 18  1  0
 18 19  2  0
 19 20  1  0
 20 21  1  0
 19 22  1  0
 22 23  2  0
 23 24  1  0
 24 25  2  0
  6 26  1  0
 26 27  2  0
 27  3  1  0
 25  7  1  0
 16 10  1  0
 25 18  1  0
  1 28  1  0
  1 29  1  0
  1 30  1  0
  4 31  1  0
  5 32  1  0
  8 33  1  0
 10 34  1  0
 11 35  1  0
 11 36  1  0
 12 37  1  0
 12 38  1  0
 14 39  1  0
 14 40  1  0
 14 41  1  0
 15 42  1  0
 15 43  1  0
 16 44  1  0
 16 45  1  0
 17 46  1  0
 21 47  1  0
 21 48  1  0
 21 49  1  0
 22 50  1  0
 23 51  1  0
 24 52  1  0
 26 53  1  0
M  CHG  1  17   1
M  END
>  <UniqueID>  (42) 
39

>  <SMILES>  (42) 
COc1ccc(-c2cc(C3CCN(C)CC3)[nH+]c3c(OC)cccc23)cn1

>  <Energy>  (42) 
75.71747742880541

>  <Genealogy>  (42) 
COc1ccc(-c2cc(C3CCN(C)CC3)[nH+]c3c(OC)cccc23)cn1 (protonated)
COc1ccc(-c2cc(C3CCN(C)CC3)[nH+]c3c(OC)cccc23)cn1 (3D coordinates assigned)
COc1ccc(-c2cc(C3CCN(C)CC3)[nH+]c3c(OC)cccc23)cn1 (nonaromatic ring conformer: 75.71747742880541 kcal/mol)

>  <smiles>  (42) 
COc1ccc(-c2cc(C3CCN(C)CC3)nc3c(OC)cccc23)cn1

>  <score_type>  (42) 
oracle

>  <origin>  (42) 
adg

>  <m_score__min__energy>  (42) 
-6.2400000000000002

>  <m_primary>  (42) 
energy

$$$$
42:0
     RDKit          3D

 52 55  0  0  0  0  0  0  0  0999 V2000
   64.2940   32.0290   49.5050 C   0  0  0  0  0  0  0  0  0  0  0  0
   63.5790   32.4800   48.2740 C   0  0  0  0  0  0  0  0  0  0  0  0
   64.1470   33.1020   47.2290 N   0  0  0  0  0  0  0  0  0  0  0  0
   63.2000   33.3270   46.3660 O   0  0  0  0  0  0  0  0  0  0  0  0
   62.0330   32.8990   46.7620 N   0  0  0  0  0  0  0  0  0  0  0  0
   62.2400   32.3480   47.9750 C   0  0  0  0  0  0  0  0  0  0  0  0
   61.1620   31.7410   48.8230 C   0  0  0  0  0  0  0  0  0  0  0  0
   60.2180   32.7790   49.2910 N   0  0  0  0  0  0  0  0  0  0  0  0
   59.9170   32.5910   50.7210 C   0  0  0  0  0  0  0  0  0  0  0  0
   58.9650   32.7340   48.5090 C   0  0  0  0  0  0  0  0  0  0  0  0
   59.0970   33.5550   47.2430 C   0  0  0  0  0  0  0  0  0  0  0  0
   59.4350   34.9150   47.3690 C   0  0  0  0  0  0  0  0  0  0  0  0
   59.6340   35.7080   46.2380 C   0  0  0  0  0  0  0  0  0  0  0  0
   59.5060   35.1540   44.9650 C   0  0  0  0  0  0  0  0  0  0  0  0
   59.1710   33.8080   44.8180 C   0  0  0  0  0  0  0  0  0  0  0  0
   58.9540   32.9980   45.9450 C   0  0  0  0  0  0  0  0  0  0  0  0
   58.5920   31.5820   45.7300 C   0  0  0  0  0  0  0  0  0  0  0  0
   57.4790   31.2520   44.9450 C   0  0  0  0  0  0  0  0  0  0  0  0
   57.1340   29.9140   44.7390 C   0  0  0  0  0  0  0  0  0  0  0  0
   57.8900   28.8820   45.3270 C   0  0  0  0  0  0  0  0  0  0  0  0
   57.5270   27.4600   45.1040 C   0  0  0  0  0  0  0  0  0  0  0  0
   58.0340   26.7570   43.9940 C   0  0  0  0  0  0  0  0  0  0  0  0
   57.6920   25.4180   43.7870 C   0  0  0  0  0  0  0  0  0  0  0  0
   56.8410   24.7650   44.6810 C   0  0  0  0  0  0  0  0  0  0  0  0
   56.3310   25.4510   45.7850 C   0  0  0  0  0  0  0  0  0  0  0  0
   56.6700   26.7910   45.9980 C   0  0  0  0  0  0  0  0  0  0  0  0
   58.9950   29.2210   46.1290 C   0  0  0  0  0  0  0  0  0  0  0  0
   59.3390   30.5600   46.3320 C   0  0  0  0  0  0  0  0  0  0  0  0
   63.7465   32.3744   50.3943 H   0  0  0  0  0  0  0  0  0  0  0  0
   64.3519   30.9306   49.5137 H   0  0  0  0  0  0  0  0  0  0  0  0
   65.3103   32.4499   49.5137 H   0  0  0  0  0  0  0  0  0  0  0  0
   65.1500   33.3640   47.1120 H   0  0  0  0  0  0  0  0  0  0  0  0
   60.6131   30.9948   48.2297 H   0  0  0  0  0  0  0  0  0  0  0  0
   61.6271   31.2652   49.6990 H   0  0  0  0  0  0  0  0  0  0  0  0
   60.6958   33.0774   51.3267 H   0  0  0  0  0  0  0  0  0  0  0  0
   58.9394   33.0394   50.9520 H   0  0  0  0  0  0  0  0  0  0  0  0
   59.8910   31.5158   50.9520 H   0  0  0  0  0  0  0  0  0  0  0  0
   58.7430   31.6903   48.2416 H   0  0  0  0  0  0  0  0  0  0  0  0
   58.1508   33.1518   49.1194 H   0  0  0  0  0  0  0  0  0  0  0  0
   59.5436   35.3581   48.3700 H   0  0  0  0  0  0  0  0  0  0  0  0
   59.8921   36.7713   46.3510 H   0  0  0  0  0  0  0  0  0  0  0  0
   59.6695   35.7795   44.0750 H   0  0  0  0  0  0  0  0  0  0  0  0
   59.0759   33.3769   43.8105 H   0  0  0  0  0  0  0  0  0  0  0  0
   56.8744   32.0499   44.4891 H   0  0  0  0  0  0  0  0  0  0  0  0
   56.2649   29.6648   44.1125 H   0  0  0  0  0  0  0  0  0  0  0  0
   58.7039   27.2655   43.2850 H   0  0  0  0  0  0  0  0  0  0  0  0
   58.0941   24.8771   42.9177 H   0  0  0  0  0  0  0  0  0  0  0  0
   56.5727   23.7111   44.5156 H   0  0  0  0  0  0  0  0  0  0  0  0
   55.6608   24.9361   46.4891 H   0  0  0  0  0  0  0  0  0  0  0  0
   56.2644   27.3255   46.8696 H   0  0  0  0  0  0  0  0  0  0  0  0
   59.5925   28.4263   46.5996 H   0  0  0  0  0  0  0  0  0  0  0  0
   60.2004   30.8134   46.9675 H   0  0  0  0  0  0  0  0  0  0  0  0
  1  2  1  0
  2  3  2  0
  3  4  1  0
  4  5  1  0
  5  6  2  0
  6  7  1  0
  7  8  1  0
  8  9  1  0
  8 10  1  0
 10 11  1  0
 11 12  2  0
 12 13  1  0
 13 14  2  0
 14 15  1  0
 15 16  2  0
 16 17  1  0
 17 18  2  0
 18 19  1  0
 19 20  2  0
 20 21  1  0
 21 22  2  0
 22 23  1  0
 23 24  2  0
 24 25  1  0
 25 26  2  0
 20 27  1  0
 27 28  2  0
  6  2  1  0
 16 11  1  0
 28 17  1  0
 26 21  1  0
  1 29  1  0
  1 30  1  0
  1 31  1  0
  3 32  1  0
  7 33  1  0
  7 34  1  0
  9 35  1  0
  9 36  1  0
  9 37  1  0
 10 38  1  0
 10 39  1  0
 12 40  1  0
 13 41  1  0
 14 42  1  0
 15 43  1  0
 18 44  1  0
 19 45  1  0
 22 46  1  0
 23 47  1  0
 24 48  1  0
 25 49  1  0
 26 50  1  0
 27 51  1  0
 28 52  1  0
M  CHG  1   3   1
M  END
>  <UniqueID>  (43) 
40

>  <SMILES>  (43) 
Cc1[nH+]onc1CN(C)Cc1ccccc1-c1ccc(-c2ccccc2)cc1

>  <Energy>  (43) 
103.5875266483114

>  <Genealogy>  (43) 
Cc1[nH+]onc1CN(C)Cc1ccccc1-c1ccc(-c2ccccc2)cc1 (protonated)
Cc1[nH+]onc1CN(C)Cc1ccccc1-c1ccc(-c2ccccc2)cc1 (3D coordinates assigned)
Cc1[nH+]onc1CN(C)Cc1ccccc1-c1ccc(-c2ccccc2)cc1 (optimized conformer: 103.5875266483114 kcal/mol)

>  <smiles>  (43) 
Cc1nonc1CN(C)Cc1ccccc1-c1ccc(-c2ccccc2)cc1

>  <score_type>  (43) 
oracle

>  <origin>  (43) 
adg

>  <m_score__min__energy>  (43) 
-8.75

>  <m_primary>  (43) 
energy

$$$$
43:0
     RDKit          3D

 34 36  0  0  1  0  0  0  0  0999 V2000
   57.1740   22.0190   45.9200 C   0  0  0  0  0  0  0  0  0  0  0  0
   57.5550   23.4560   45.9470 C   0  0  0  0  0  0  0  0  0  0  0  0
   58.8020   23.9180   46.0230 N   0  0  0  0  0  0  0  0  0  0  0  0
   58.8430   25.3070   46.0330 C   0  0  0  0  0  0  0  0  0  0  0  0
   60.1420   25.9200   46.3270 C   0  0  0  0  0  0  0  0  0  0  0  0
   57.5720   25.6440   45.9490 N   0  0  0  0  0  0  0  0  0  0  0  0
   56.9790   26.8200   45.9650 C   0  0  0  0  0  0  0  0  0  0  0  0
   57.5670   27.8550   45.5900 N   0  0  0  0  0  0  0  0  0  0  0  0
   57.5140   29.1520   46.1190 C   0  0  0  0  0  0  0  0  0  0  0  0
   57.3670   29.9890   44.8190 C   0  0  0  0  0  0  0  0  0  0  0  0
   56.6050   29.3880   43.8720 C   0  0  0  0  0  0  0  0  0  0  0  0
   56.4500   30.0790   42.6710 C   0  0  0  0  0  0  0  0  0  0  0  0
   57.0510   31.3060   42.4840 C   0  0  0  0  0  0  0  0  0  0  0  0
   57.8190   31.8930   43.4680 C   0  0  0  0  0  0  0  0  0  0  0  0
   57.9810   31.2040   44.6810 C   0  0  0  0  0  0  0  0  0  0  0  0
   55.5990   26.9570   45.9660 N   0  0  0  0  0  0  0  0  0  0  0  0
   54.8270   25.8670   45.9340 N   0  0  0  0  0  0  0  0  0  0  0  0
   55.3830   24.6410   45.8980 C   0  0  0  0  0  0  0  0  0  0  0  0
   56.7550   24.5560   45.9050 C   0  0  0  0  0  0  0  0  0  0  0  0
   57.0752   21.6464   46.9503 H   0  0  0  0  0  0  0  0  0  0  0  0
   56.2143   21.9039   45.3949 H   0  0  0  0  0  0  0  0  0  0  0  0
   57.9506   21.4436   45.3949 H   0  0  0  0  0  0  0  0  0  0  0  0
   60.2788   25.9846   47.4166 H   0  0  0  0  0  0  0  0  0  0  0  0
   60.9442   25.3054   45.8925 H   0  0  0  0  0  0  0  0  0  0  0  0
   60.1776   26.9299   45.8925 H   0  0  0  0  0  0  0  0  0  0  0  0
   56.6484   29.2828   46.7850 H   0  0  0  0  0  0  0  0  0  0  0  0
   58.3779   29.4259   46.7425 H   0  0  0  0  0  0  0  0  0  0  0  0
   56.1346   28.4083   44.0421 H   0  0  0  0  0  0  0  0  0  0  0  0
   55.8426   29.6413   41.8651 H   0  0  0  0  0  0  0  0  0  0  0  0
   56.9145   31.8296   41.5263 H   0  0  0  0  0  0  0  0  0  0  0  0
   58.2913   32.8733   43.3071 H   0  0  0  0  0  0  0  0  0  0  0  0
   58.5842   31.6289   45.4968 H   0  0  0  0  0  0  0  0  0  0  0  0
   55.1430   27.8700   45.9940 H   0  0  0  0  0  0  0  0  0  0  0  0
   54.7588   23.7359   45.8641 H   0  0  0  0  0  0  0  0  0  0  0  0
  1  2  1  0
  2  3  1  0
  3  4  2  0
  4  5  1  0
  4  6  1  0
  6  7  1  0
  7  8  2  0
  8  9  1  0
  9 10  1  0
 10 11  2  0
 11 12  1  0
 12 13  2  0
 13 14  1  0
 14 15  2  0
  7 16  1  0
 16 17  1  0
 17 18  2  0
 18 19  1  0
 19  2  2  0
 19  6  1  0
 15 10  1  0
  1 20  1  0
  1 21  1  0
  1 22  1  0
  5 23  1  0
  5 24  1  0
  5 25  1  0
  9 26  1  0
  9 27  1  0
 11 28  1  0
 12 29  1  0
 13 30  1  0
 14 31  1  0
 15 32  1  0
 16 33  1  0
 18 34  1  0
M  END
>  <smiles>  (44) 
Cc1nc(C)n2c(=NCc3ccccc3)[nH]ncc12

>  <score_type>  (44) 
oracle

>  <origin>  (44) 
adg

>  <m_score__min__energy>  (44) 
-6.7699999999999996

>  <m_primary>  (44) 
energy

$$$$
44:0
     RDKit          3D

 53 56  0  0  1  0  0  0  0  0999 V2000
   57.0720   25.7700   44.7560 N   0  0  0  0  0  0  0  0  0  0  0  0
   56.7370   26.8010   45.6640 C   0  0  0  0  0  0  0  0  0  0  0  0
   55.6980   26.6800   46.3610 O   0  0  0  0  0  0  0  0  0  0  0  0
   57.5390   28.0020   45.8310 C   0  0  0  0  0  0  0  0  0  0  0  0
   58.5070   28.0760   46.7960 C   0  0  0  0  0  0  0  0  0  0  0  0
   59.3020   29.1580   47.0370 C   0  0  0  0  0  0  0  0  0  0  0  0
   59.0830   30.2740   46.2070 C   0  0  0  0  0  0  0  0  0  0  0  0
   58.1180   30.2050   45.2440 C   0  0  0  0  0  0  0  0  0  0  0  0
   57.8930   31.2760   44.4240 C   0  0  0  0  0  0  0  0  0  0  0  0
   58.4340   32.3830   44.5400 N   0  0  0  0  0  0  0  0  0  0  0  0
   58.2170   33.4160   45.4050 C   0  0  0  0  0  0  0  0  0  0  0  0
   57.3360   34.3300   45.1520 O   0  0  0  0  0  0  0  0  0  0  0  0
   59.0090   33.5230   46.6690 C   0  0  0  0  0  0  0  0  0  0  0  0
   60.2760   34.0660   46.5920 C   0  0  0  0  0  0  0  0  0  0  0  0
   61.0720   34.2150   47.7140 C   0  0  0  0  0  0  0  0  0  0  0  0
   60.5570   33.8010   48.9240 C   0  0  0  0  0  0  0  0  0  0  0  0
   59.2730   33.2500   48.9940 C   0  0  0  0  0  0  0  0  0  0  0  0
   58.8470   32.8550   50.2930 N   0  0  0  0  0  0  0  0  0  0  0  0
   58.4470   31.5550   50.6420 C   0  0  0  0  0  0  0  0  0  0  0  0
   58.4830   30.6870   49.6950 O   0  0  0  0  0  0  0  0  0  0  0  0
   58.0050   31.1800   52.0130 C   0  0  0  0  0  0  0  0  0  0  0  0
   57.8680   29.7020   52.1470 C   0  0  0  0  0  0  0  0  0  0  0  0
   56.8580   29.2210   53.1270 C   0  0  0  0  0  0  0  0  0  0  0  0
   55.6610   29.9940   53.2290 N   0  0  0  0  0  0  0  0  0  0  0  0
   55.5970   30.8820   52.0820 C   0  0  0  0  0  0  0  0  0  0  0  0
   56.6950   31.9070   52.2660 C   0  0  0  0  0  0  0  0  0  0  0  0
   58.5050   33.1130   47.8700 C   0  0  0  0  0  0  0  0  0  0  0  0
   56.9240   31.1660   43.4560 N   0  0  0  0  0  0  0  0  0  0  0  0
   56.1900   30.0610   43.2830 C   0  0  0  0  0  0  0  0  0  0  0  0
   56.4000   29.0130   44.0840 N   0  0  0  0  0  0  0  0  0  0  0  0
   57.3450   29.0940   45.0400 C   0  0  0  0  0  0  0  0  0  0  0  0
   57.4100   24.8200   45.0350 H   0  0  0  0  0  0  0  0  0  0  0  0
   56.9710   25.9880   43.7380 H   0  0  0  0  0  0  0  0  0  0  0  0
   58.6562   27.1894   47.4297 H   0  0  0  0  0  0  0  0  0  0  0  0
   60.0653   29.1586   47.8291 H   0  0  0  0  0  0  0  0  0  0  0  0
   59.6811   31.1886   46.3328 H   0  0  0  0  0  0  0  0  0  0  0  0
   60.6625   34.3884   45.6139 H   0  0  0  0  0  0  0  0  0  0  0  0
   62.0804   34.6486   47.6430 H   0  0  0  0  0  0  0  0  0  0  0  0
   61.1587   33.9044   49.8390 H   0  0  0  0  0  0  0  0  0  0  0  0
   58.8290   33.5860   51.0390 H   0  0  0  0  0  0  0  0  0  0  0  0
   58.7498   31.4762   52.7663 H   0  0  0  0  0  0  0  0  0  0  0  0
   57.5958   29.2996   51.1601 H   0  0  0  0  0  0  0  0  0  0  0  0
   58.8380   29.3505   52.5284 H   0  0  0  0  0  0  0  0  0  0  0  0
   56.5735   28.1977   52.8410 H   0  0  0  0  0  0  0  0  0  0  0  0
   57.3429   29.2974   54.1114 H   0  0  0  0  0  0  0  0  0  0  0  0
   55.7170   30.6060   54.0730 H   0  0  0  0  0  0  0  0  0  0  0  0
   55.7591   30.3148   51.1536 H   0  0  0  0  0  0  0  0  0  0  0  0
   54.6116   31.3654   52.0095 H   0  0  0  0  0  0  0  0  0  0  0  0
   56.5715   32.7304   51.5471 H   0  0  0  0  0  0  0  0  0  0  0  0
   56.6689   32.3435   53.2753 H   0  0  0  0  0  0  0  0  0  0  0  0
   57.4962   32.6789   47.9329 H   0  0  0  0  0  0  0  0  0  0  0  0
   56.7220   31.9600   42.8050 H   0  0  0  0  0  0  0  0  0  0  0  0
   55.4255   30.0162   42.4934 H   0  0  0  0  0  0  0  0  0  0  0  0
  1  2  1  0
  2  3  2  0
  2  4  1  0
  4  5  2  0
  5  6  1  0
  6  7  2  0
  7  8  1  0
  8  9  1  0
  9 10  2  0
 10 11  1  0
 11 12  2  0
 11 13  1  0
 13 14  2  0
 14 15  1  0
 15 16  2  0
 16 17  1  0
 17 18  1  0
 18 19  1  0
 19 20  2  0
 19 21  1  0
 21 22  1  0
 22 23  1  0
 23 24  1  0
 24 25  1  0
 25 26  1  0
 17 27  2  0
  9 28  1  0
 28 29  1  0
 29 30  2  0
 30 31  1  0
 31  4  1  0
 31  8  2  0
 27 13  1  0
 26 21  1  0
  1 32  1  0
  1 33  1  0
  5 34  1  0
  6 35  1  0
  7 36  1  0
 14 37  1  0
 15 38  1  0
 16 39  1  0
 18 40  1  0
 21 41  1  0
 22 42  1  0
 22 43  1  0
 23 44  1  0
 23 45  1  0
 24 46  1  0
 25 47  1  0
 25 48  1  0
 26 49  1  0
 26 50  1  0
 27 51  1  0
 28 52  1  0
 29 53  1  0
M  END
>  <smiles>  (45) 
NC(=O)c1cccc2c(=NC(=O)c3cccc(NC(=O)C4CCNCC4)c3)[nH]cnc12

>  <score_type>  (45) 
oracle

>  <origin>  (45) 
adg

>  <m_score__min__energy>  (45) 
-9.5199999999999996

>  <m_primary>  (45) 
energy

$$$$
45:0
     RDKit          3D

 26 27  0  0  1  0  0  0  0  0999 V2000
   56.7560   23.9040   47.2100 C   0  0  0  0  0  0  0  0  0  0  0  0
   56.5700   25.2520   46.6120 C   0  0  0  0  0  0  0  0  0  0  0  0
   55.4580   25.8290   46.1250 N   0  0  0  0  0  0  0  0  0  0  0  0
   55.7690   27.0560   45.6890 N   0  0  0  0  0  0  0  0  0  0  0  0
   57.0890   27.2740   45.8940 C   0  0  0  0  0  0  0  0  0  0  0  0
   58.0510   28.7320   45.5080 S   0  0  0  0  0  0  0  0  0  0  0  0
   57.2780   29.6350   44.2470 C   0  0  0  0  0  0  0  0  0  0  0  0
   57.2670   31.0500   44.0710 C   0  0  0  0  0  0  0  0  0  0  0  0
   56.9630   32.0430   44.8180 C   0  0  0  0  0  0  0  0  0  0  0  0
   57.8450   32.9690   45.4780 C   0  0  0  0  0  0  0  0  0  0  0  0
   58.0900   33.1350   46.8040 C   0  0  0  0  0  0  0  0  0  0  0  0
   58.9200   34.0470   47.2420 C   0  0  0  0  0  0  0  0  0  0  0  0
   59.6070   34.9070   46.3750 C   0  0  0  0  0  0  0  0  0  0  0  0
   58.9150   34.2550   44.7590 S   0  0  0  0  0  0  0  0  0  0  0  0
   57.5690   26.1410   46.4690 N   0  0  0  0  0  0  0  0  0  0  0  0
   56.7449   23.9848   48.3070 H   0  0  0  0  0  0  0  0  0  0  0  0
   55.9407   23.2420   46.8828 H   0  0  0  0  0  0  0  0  0  0  0  0
   57.7201   23.4876   46.8828 H   0  0  0  0  0  0  0  0  0  0  0  0
   55.1470   27.7660   45.2570 H   0  0  0  0  0  0  0  0  0  0  0  0
   57.7084   29.2399   43.3150 H   0  0  0  0  0  0  0  0  0  0  0  0
   56.2311   29.4936   44.5537 H   0  0  0  0  0  0  0  0  0  0  0  0
   57.5935   31.3569   43.0664 H   0  0  0  0  0  0  0  0  0  0  0  0
   55.8875   32.2109   44.9765 H   0  0  0  0  0  0  0  0  0  0  0  0
   57.5771   32.4855   47.5286 H   0  0  0  0  0  0  0  0  0  0  0  0
   59.0836   34.1415   48.3257 H   0  0  0  0  0  0  0  0  0  0  0  0
   60.3273   35.7130   46.5788 H   0  0  0  0  0  0  0  0  0  0  0  0
  1  2  1  0
  2  3  2  0
  3  4  1  0
  4  5  1  0
  5  6  1  0
  6  7  1  0
  7  8  1  0
  8  9  2  0
  9 10  1  0
 10 11  2  0
 11 12  1  0
 12 13  2  0
 13 14  1  0
  5 15  2  0
 15  2  1  0
 14 10  1  0
  1 16  1  0
  1 17  1  0
  1 18  1  0
  4 19  1  0
  7 20  1  0
  7 21  1  0
  8 22  1  0
  9 23  1  0
 11 24  1  0
 12 25  1  0
 13 26  1  0
M  END
>  <smiles>  (46) 
Cc1n[nH]c(SCC=Cc2cccs2)n1

>  <score_type>  (46) 
oracle

>  <origin>  (46) 
adg

>  <m_score__min__energy>  (46) 
-6.4900000000000002

>  <m_primary>  (46) 
energy

$$$$
46:0
     RDKit          3D

 28 30  0  0  0  0  0  0  0  0999 V2000
   60.6780   27.9850   47.5280 N   0  0  0  0  0  0  0  0  0  0  0  0
   59.4210   27.6770   46.9130 C   0  0  0  0  0  0  0  0  0  0  0  0
   58.9770   26.3470   46.8690 C   0  0  0  0  0  0  0  0  0  0  0  0
   57.7540   26.0240   46.2730 C   0  0  0  0  0  0  0  0  0  0  0  0
   57.2160   24.3550   46.2280 Cl  0  0  0  0  0  0  0  0  0  0  0  0
   56.9590   27.0290   45.7120 C   0  0  0  0  0  0  0  0  0  0  0  0
   57.3900   28.3660   45.7490 C   0  0  0  0  0  0  0  0  0  0  0  0
   56.6360   29.4180   45.2040 C   0  0  0  0  0  0  0  0  0  0  0  0
   55.5250   29.1980   44.6520 O   0  0  0  0  0  0  0  0  0  0  0  0
   57.0920   30.6640   45.2660 O   0  0  0  0  0  0  0  0  0  0  0  0
   58.2570   30.9720   45.8340 C   0  0  0  0  0  0  0  0  0  0  0  0
   58.7120   32.3800   45.8730 C   0  0  0  0  0  0  0  0  0  0  0  0
   58.4030   33.2690   44.8260 C   0  0  0  0  0  0  0  0  0  0  0  0
   58.8380   34.5980   44.8720 C   0  0  0  0  0  0  0  0  0  0  0  0
   59.5850   35.0530   45.9600 C   0  0  0  0  0  0  0  0  0  0  0  0
   60.0040   36.3430   45.9990 F   0  0  0  0  0  0  0  0  0  0  0  0
   59.8980   34.1820   47.0060 C   0  0  0  0  0  0  0  0  0  0  0  0
   60.6230   34.6230   48.0640 F   0  0  0  0  0  0  0  0  0  0  0  0
   59.4650   32.8520   46.9650 C   0  0  0  0  0  0  0  0  0  0  0  0
   59.0230   29.9870   46.3750 N   0  0  0  0  0  0  0  0  0  0  0  0
   58.6210   28.6910   46.3490 C   0  0  0  0  0  0  0  0  0  0  0  0
   61.2750   27.2400   47.9510 H   0  0  0  0  0  0  0  0  0  0  0  0
   61.0240   28.9690   47.5690 H   0  0  0  0  0  0  0  0  0  0  0  0
   59.5967   25.5509   47.3074 H   0  0  0  0  0  0  0  0  0  0  0  0
   55.9977   26.7730   45.2425 H   0  0  0  0  0  0  0  0  0  0  0  0
   57.8154   32.9162   43.9656 H   0  0  0  0  0  0  0  0  0  0  0  0
   58.5910   35.2854   44.0495 H   0  0  0  0  0  0  0  0  0  0  0  0
   59.7146   32.1706   47.7916 H   0  0  0  0  0  0  0  0  0  0  0  0
  1  2  1  0
  2  3  2  0
  3  4  1  0
  4  5  1  0
  4  6  2  0
  6  7  1  0
  7  8  1  0
  8  9  2  0
  8 10  1  0
 10 11  1  0
 11 12  1  0
 12 13  2  0
 13 14  1  0
 14 15  2  0
 15 16  1  0
 15 17  1  0
 17 18  1  0
 17 19  2  0
 11 20  2  0
 20 21  1  0
 21  2  1  0
 21  7  2  0
 19 12  1  0
  1 22  1  0
  1 23  1  0
  3 24  1  0
  6 25  1  0
 13 26  1  0
 14 27  1  0
 19 28  1  0
M  END
>  <UniqueID>  (47) 
41

>  <SMILES>  (47) 
Nc1cc(Cl)cc2c(=O)oc(-c3ccc(F)c(F)c3)nc12

>  <Energy>  (47) 
36.94236490350451

>  <Genealogy>  (47) 
Nc1cc(Cl)cc2c(=O)oc(-c3ccc(F)c(F)c3)nc12 (3D coordinates assigned)
Nc1cc(Cl)cc2c(=O)oc(-c3ccc(F)c(F)c3)nc12 (optimized conformer: 36.94236490350451 kcal/mol)

>  <smiles>  (47) 
Nc1cc(Cl)cc2c(=O)oc(-c3ccc(F)c(F)c3)nc12

>  <score_type>  (47) 
oracle

>  <origin>  (47) 
adg

>  <m_score__min__energy>  (47) 
-6.6699999999999999

>  <m_primary>  (47) 
energy

$$$$
47:0
     RDKit          3D

 50 52  0  0  0  0  0  0  0  0999 V2000
   56.4897   33.9789   44.8136 H   0  0  0  0  0  0  0  0  0  0  0  0
   57.2410   33.3710   45.3390 C   0  0  0  0  0  0  0  0  0  0  0  0
   57.2460   31.9770   45.1870 C   0  0  0  0  0  0  0  0  0  0  0  0
   56.2810   31.3040   44.4230 O   0  0  0  0  0  0  0  0  0  0  0  0
   56.5740   30.4740   43.3040 C   0  0  0  0  0  0  0  0  0  0  0  0
   56.9208   29.4916   43.6570 H   0  0  0  0  0  0  0  0  0  0  0  0
   55.6669   30.3456   42.6952 H   0  0  0  0  0  0  0  0  0  0  0  0
   57.3607   30.9435   42.6952 H   0  0  0  0  0  0  0  0  0  0  0  0
   58.2360   31.2180   45.8220 C   0  0  0  0  0  0  0  0  0  0  0  0
   58.2192   30.1229   45.7196 H   0  0  0  0  0  0  0  0  0  0  0  0
   59.2590   31.8230   46.5930 C   0  0  0  0  0  0  0  0  0  0  0  0
   60.3310   31.1120   47.2340 C   0  0  0  0  0  0  0  0  0  0  0  0
   60.6790   29.8760   46.9690 N   0  0  0  0  0  0  0  0  0  0  0  0
   60.6040   29.0560   45.7630 C   0  0  0  0  0  0  0  0  0  0  0  0
   59.8174   29.4497   45.1024 H   0  0  0  0  0  0  0  0  0  0  0  0
   61.5735   29.0848   45.2442 H   0  0  0  0  0  0  0  0  0  0  0  0
   60.2740   27.6040   46.1390 C   0  0  0  0  0  0  0  0  0  0  0  0
   61.0422   26.9421   45.7127 H   0  0  0  0  0  0  0  0  0  0  0  0
   60.2545   27.5302   47.2363 H   0  0  0  0  0  0  0  0  0  0  0  0
   58.9620   27.1970   45.6310 N   0  0  0  0  0  0  0  0  0  0  0  0
   58.8610   27.0520   44.6010 H   0  0  0  0  0  0  0  0  0  0  0  0
   57.7910   27.1590   46.4610 C   0  0  0  0  0  0  0  0  0  0  0  0
   57.9050   27.0430   47.7100 O   0  0  0  0  0  0  0  0  0  0  0  0
   56.4560   27.3070   45.8630 C   0  0  0  0  0  0  0  0  0  0  0  0
   56.1620   28.3520   45.2220 O   0  0  0  0  0  0  0  0  0  0  0  0
   55.4760   26.2850   46.0500 N   0  0  0  0  0  0  0  0  0  0  0  0
   55.9340   24.5930   46.2860 S   0  0  0  0  0  0  0  0  0  0  0  0
   55.8460   24.2100   44.5030 C   0  0  0  0  0  0  0  0  0  0  0  0
   55.5412   23.1611   44.3725 H   0  0  0  0  0  0  0  0  0  0  0  0
   55.1119   24.8794   44.0309 H   0  0  0  0  0  0  0  0  0  0  0  0
   57.2060   24.4240   43.8430 C   0  0  0  0  0  0  0  0  0  0  0  0
   57.9988   24.0855   44.5263 H   0  0  0  0  0  0  0  0  0  0  0  0
   57.2455   23.8474   42.9070 H   0  0  0  0  0  0  0  0  0  0  0  0
   57.4020   25.8380   43.5400 N   0  0  0  0  0  0  0  0  0  0  0  0
   56.7640   26.3910   44.1560 H   0  0  0  0  0  0  0  0  0  0  0  0
   57.0750   26.0000   42.5600 H   0  0  0  0  0  0  0  0  0  0  0  0
   61.1620   31.8170   48.1450 C   0  0  0  0  0  0  0  0  0  0  0  0
   62.2140   31.1800   48.8440 C   0  0  0  0  0  0  0  0  0  0  0  0
   62.3676   30.0970   48.7274 H   0  0  0  0  0  0  0  0  0  0  0  0
   63.0600   31.9120   49.6810 C   0  0  0  0  0  0  0  0  0  0  0  0
   63.8730   31.4030   50.2195 H   0  0  0  0  0  0  0  0  0  0  0  0
   62.8770   33.2860   49.8360 C   0  0  0  0  0  0  0  0  0  0  0  0
   63.9510   34.2030   50.8770 Cl  0  0  0  0  0  0  0  0  0  0  0  0
   61.8430   33.9330   49.1560 C   0  0  0  0  0  0  0  0  0  0  0  0
   61.6974   35.0160   49.2823 H   0  0  0  0  0  0  0  0  0  0  0  0
   60.9910   33.2080   48.3140 C   0  0  0  0  0  0  0  0  0  0  0  0
   60.0230   33.8620   47.6340 N   0  0  0  0  0  0  0  0  0  0  0  0
   59.1690   33.2280   46.7960 C   0  0  0  0  0  0  0  0  0  0  0  0
   58.1860   33.9850   46.1540 C   0  0  0  0  0  0  0  0  0  0  0  0
   58.1592   35.0757   46.2942 H   0  0  0  0  0  0  0  0  0  0  0  0
  1  2  1  0
  2  3  2  0
  3  4  1  0
  4  5  1  0
  5  6  1  0
  5  7  1  0
  5  8  1  0
  3  9  1  0
  9 10  1  0
  9 11  2  0
 11 12  1  0
 12 13  2  0
 13 14  1  0
 14 15  1  0
 14 16  1  0
 14 17  1  0
 17 18  1  0
 17 19  1  0
 17 20  1  0
 20 21  1  0
 20 22  1  0
 22 23  2  0
 22 24  1  0
 24 25  2  0
 24 26  1  0
 26 27  1  0
 27 28  1  0
 28 29  1  0
 28 30  1  0
 28 31  1  0
 31 32  1  0
 31 33  1  0
 31 34  1  0
 34 35  1  0
 34 36  1  0
 12 37  1  0
 37 38  2  0
 38 39  1  0
 38 40  1  0
 40 41  1  0
 40 42  2  0
 42 43  1  0
 42 44  1  0
 44 45  1  0
 44 46  2  0
 46 47  1  0
 47 48  1  0
 48 49  2  0
 49 50  1  0
 49  2  1  0
 48 11  1  0
 46 37  1  0
M  CHG  2  26  -1  47  -1
M  END
>  <UniqueID>  (48) 
42

>  <SMILES>  (48) 
COc1ccc2[n-]c3cc(Cl)ccc3/c(=N/CCNC(=O)C(=O)[N-]SCCN)c2c1

>  <Energy>  (48) 
59.5053524914547

>  <Genealogy>  (48) 
COc1ccc2[n-]c3cc(Cl)ccc3c(=NCCNC(=O)C(=O)[N-]SCCN)c2c1 (protonated)
COc1ccc2[n-]c3cc(Cl)ccc3/c(=N/CCNC(=O)C(=O)[N-]SCCN)c2c1 (cis-trans isomerization)
COc1ccc2[n-]c3cc(Cl)ccc3/c(=N/CCNC(=O)C(=O)[N-]SCCN)c2c1 (3D coordinates assigned)
COc1ccc2[n-]c3cc(Cl)ccc3/c(=N/CCNC(=O)C(=O)[N-]SCCN)c2c1 (optimized conformer: 59.5053524914547 kcal/mol)

>  <smiles>  (48) 
COc1ccc2[nH]c3cc(Cl)ccc3c(=NCCNC(=O)C(=O)NSCCN)c2c1

>  <score_type>  (48) 
oracle

>  <origin>  (48) 
adg

>  <m_score__min__energy>  (48) 
-10.33

>  <m_primary>  (48) 
energy

$$$$
48:0
     RDKit          3D

 35 37  0  0  0  0  0  0  0  0999 V2000
   59.2670   34.7720   46.9290 C   0  0  0  0  0  0  0  0  0  0  0  0
   59.2900   34.5810   45.4160 C   0  0  0  0  0  0  0  0  0  0  0  0
   57.8920   34.2640   44.8770 C   0  0  0  0  0  0  0  0  0  0  0  0
   57.7120   32.7860   44.7280 C   0  0  0  0  0  0  0  0  0  0  0  0
   57.5630   32.1600   43.5400 N   0  0  0  0  0  0  0  0  0  0  0  0
   57.4840   30.8090   43.6650 C   0  0  0  0  0  0  0  0  0  0  0  0
   57.5870   30.3470   44.9750 C   0  0  0  0  0  0  0  0  0  0  0  0
   57.5460   28.9420   45.4040 C   0  0  0  0  0  0  0  0  0  0  0  0
   56.3370   28.2970   45.5160 N   0  0  0  0  0  0  0  0  0  0  0  0
   56.2560   26.9920   45.9090 C   0  0  0  0  0  0  0  0  0  0  0  0
   55.1390   26.4200   45.9980 O   0  0  0  0  0  0  0  0  0  0  0  0
   57.4450   26.3290   46.2000 C   0  0  0  0  0  0  0  0  0  0  0  0
   58.6240   26.9860   46.0840 C   0  0  0  0  0  0  0  0  0  0  0  0
   58.7090   28.2780   45.6890 N   0  0  0  0  0  0  0  0  0  0  0  0
   59.6030   26.0800   46.4170 C   0  0  0  0  0  0  0  0  0  0  0  0
   61.0800   26.2940   46.3720 C   0  0  0  0  0  0  0  0  0  0  0  0
   59.0040   24.8970   46.7070 N   0  0  0  0  0  0  0  0  0  0  0  0
   57.6880   25.0590   46.5830 N   0  0  0  0  0  0  0  0  0  0  0  0
   56.7130   23.9980   46.8040 C   0  0  0  0  0  0  0  0  0  0  0  0
   57.7830   31.6770   45.9920 S   0  0  0  0  0  0  0  0  0  0  0  0
   59.3845   33.7965   47.4235 H   0  0  0  0  0  0  0  0  0  0  0  0
   60.0917   35.4360   47.2273 H   0  0  0  0  0  0  0  0  0  0  0  0
   58.3083   35.2212   47.2273 H   0  0  0  0  0  0  0  0  0  0  0  0
   59.6561   35.5043   44.9432 H   0  0  0  0  0  0  0  0  0  0  0  0
   59.9539   33.7359   45.1814 H   0  0  0  0  0  0  0  0  0  0  0  0
   57.1373   34.6521   45.5769 H   0  0  0  0  0  0  0  0  0  0  0  0
   57.7739   34.7385   43.8917 H   0  0  0  0  0  0  0  0  0  0  0  0
   57.5180   32.6560   42.6210 H   0  0  0  0  0  0  0  0  0  0  0  0
   57.3500   30.1372   42.8044 H   0  0  0  0  0  0  0  0  0  0  0  0
   61.4736   26.3510   47.3976 H   0  0  0  0  0  0  0  0  0  0  0  0
   61.5560   25.4554   45.8426 H   0  0  0  0  0  0  0  0  0  0  0  0
   61.2985   27.2332   45.8426 H   0  0  0  0  0  0  0  0  0  0  0  0
   56.5742   23.8469   47.8847 H   0  0  0  0  0  0  0  0  0  0  0  0
   55.7533   24.2810   46.3470 H   0  0  0  0  0  0  0  0  0  0  0  0
   57.0759   23.0655   46.3470 H   0  0  0  0  0  0  0  0  0  0  0  0
  1  2  1  0
  2  3  1  0
  3  4  1  0
  4  5  2  0
  5  6  1  0
  6  7  2  0
  7  8  1  0
  8  9  2  0
  9 10  1  0
 10 11  2  0
 10 12  1  0
 12 13  2  0
 13 14  1  0
 13 15  1  0
 15 16  1  0
 15 17  2  0
 17 18  1  0
 18 19  1  0
  7 20  1  0
 20  4  1  0
 14  8  1  0
 18 12  1  0
  1 21  1  0
  1 22  1  0
  1 23  1  0
  2 24  1  0
  2 25  1  0
  3 26  1  0
  3 27  1  0
  5 28  1  0
  6 29  1  0
 16 30  1  0
 16 31  1  0
 16 32  1  0
 19 33  1  0
 19 34  1  0
 19 35  1  0
M  CHG  2   5   1  14  -1
M  END
>  <UniqueID>  (49) 
43

>  <SMILES>  (49) 
CCCc1[nH+]cc(-c2nc(=O)c3c([n-]2)c(C)nn3C)s1

>  <Energy>  (49) 
101.36569230595235

>  <Genealogy>  (49) 
CCCc1[nH+]cc(-c2nc(=O)c3c([n-]2)c(C)nn3C)s1 (protonated)
CCCc1[nH+]cc(-c2nc(=O)c3c([n-]2)c(C)nn3C)s1 (3D coordinates assigned)
CCCc1[nH+]cc(-c2nc(=O)c3c([n-]2)c(C)nn3C)s1 (optimized conformer: 101.36569230595235 kcal/mol)

>  <smiles>  (49) 
CCCc1ncc(-c2nc(=O)c3c([nH]2)c(C)nn3C)s1

>  <score_type>  (49) 
oracle

>  <origin>  (49) 
adg

>  <m_score__min__energy>  (49) 
-6.7800000000000002

>  <m_primary>  (49) 
energy

$$$$
49:0
     RDKit          3D

 38 41  0  0  0  0  0  0  0  0999 V2000
   56.6090   31.7580   44.8700 O   0  0  0  0  0  0  0  0  0  0  0  0
   57.7100   31.4920   45.4220 C   0  0  0  0  0  0  0  0  0  0  0  0
   58.2690   30.1170   45.3530 C   0  0  0  0  0  0  0  0  0  0  0  0
   57.9340   29.2430   44.3090 C   0  0  0  0  0  0  0  0  0  0  0  0
   58.5790   28.0080   44.1960 C   0  0  0  0  0  0  0  0  0  0  0  0
   58.1360   26.8280   42.7610 Br  0  0  0  0  0  0  0  0  0  0  0  0
   59.5680   27.6450   45.1180 C   0  0  0  0  0  0  0  0  0  0  0  0
   59.8960   28.5010   46.1730 C   0  0  0  0  0  0  0  0  0  0  0  0
   59.2300   29.7330   46.3150 C   0  0  0  0  0  0  0  0  0  0  0  0
   59.4110   30.6720   47.4960 C   0  0  1  0  0  0  0  0  0  0  0  0
   60.2830   30.1560   48.6790 C   0  0  0  0  0  0  0  0  0  0  0  0
   60.0070   30.8870   49.9830 C   0  0  0  0  0  0  0  0  0  0  0  0
   58.7180   31.3800   50.2560 C   0  0  0  0  0  0  0  0  0  0  0  0
   58.4380   32.0260   51.4620 C   0  0  0  0  0  0  0  0  0  0  0  0
   59.4470   32.2160   52.4050 C   0  0  0  0  0  0  0  0  0  0  0  0
   59.0940   33.0330   53.9170 Cl  0  0  0  0  0  0  0  0  0  0  0  0
   60.7460   31.7840   52.1320 C   0  0  0  0  0  0  0  0  0  0  0  0
   61.0380   31.1350   50.9260 C   0  0  0  0  0  0  0  0  0  0  0  0
   62.7210   30.7150   50.6130 Cl  0  0  0  0  0  0  0  0  0  0  0  0
   59.5730   32.0990   46.9570 C   0  0  0  0  0  0  0  0  0  0  0  0
   60.6670   32.9710   47.1830 C   0  0  0  0  0  0  0  0  0  0  0  0
   62.2880   32.4160   47.5640 Cl  0  0  0  0  0  0  0  0  0  0  0  0
   60.5440   34.3250   46.8590 C   0  0  0  0  0  0  0  0  0  0  0  0
   59.4020   34.8030   46.2210 C   0  0  0  0  0  0  0  0  0  0  0  0
   58.4120   33.9180   45.7930 C   0  0  0  0  0  0  0  0  0  0  0  0
   57.1030   34.5750   44.8160 Cl  0  0  0  0  0  0  0  0  0  0  0  0
   58.5230   32.5440   46.1070 C   0  0  0  0  0  0  0  0  0  0  0  0
   57.1631   29.5294   43.5784 H   0  0  0  0  0  0  0  0  0  0  0  0
   60.0891   26.6821   45.0117 H   0  0  0  0  0  0  0  0  0  0  0  0
   60.6755   28.2117   46.8932 H   0  0  0  0  0  0  0  0  0  0  0  0
   58.4998   30.7036   48.1115 H   0  0  0  0  0  0  0  0  0  0  0  0
   60.0759   29.0858   48.8264 H   0  0  0  0  0  0  0  0  0  0  0  0
   61.3355   30.3380   48.4160 H   0  0  0  0  0  0  0  0  0  0  0  0
   57.9199   31.2549   49.5094 H   0  0  0  0  0  0  0  0  0  0  0  0
   57.4191   32.3857   51.6683 H   0  0  0  0  0  0  0  0  0  0  0  0
   61.5450   31.9544   52.8686 H   0  0  0  0  0  0  0  0  0  0  0  0
   61.3580   35.0207   47.1107 H   0  0  0  0  0  0  0  0  0  0  0  0
   59.2800   35.8833   46.0538 H   0  0  0  0  0  0  0  0  0  0  0  0
  1  2  2  0
  2  3  1  0
  3  4  2  0
  4  5  1  0
  5  6  1  0
  5  7  2  0
  7  8  1  0
  8  9  2  0
  9 10  1  0
 10 11  1  0
 11 12  1  0
 12 13  2  0
 13 14  1  0
 14 15  2  0
 15 16  1  0
 15 17  1  0
 17 18  2  0
 18 19  1  0
 10 20  1  0
 20 21  2  0
 21 22  1  0
 21 23  1  0
 23 24  2  0
 24 25  1  0
 25 26  1  0
 25 27  2  0
 27  2  1  0
  9  3  1  0
 18 12  1  0
 27 20  1  0
  4 28  1  0
  7 29  1  0
  8 30  1  0
 10 31  1  1
 11 32  1  0
 11 33  1  0
 13 34  1  0
 14 35  1  0
 17 36  1  0
 23 37  1  0
 24 38  1  0
M  END
>  <UniqueID>  (50) 
44

>  <SMILES>  (50) 
O=C1c2cc(Br)ccc2[C@@H](Cc2ccc(Cl)cc2Cl)c2c(Cl)ccc(Cl)c21

>  <Energy>  (50) 
82.818103758225

>  <Genealogy>  (50) 
O=C1c2cc(Br)ccc2[C@@H](Cc2ccc(Cl)cc2Cl)c2c(Cl)ccc(Cl)c21 (chirality)
O=C1c2cc(Br)ccc2[C@@H](Cc2ccc(Cl)cc2Cl)c2c(Cl)ccc(Cl)c21 (3D coordinates assigned)
O=C1c2cc(Br)ccc2[C@@H](Cc2ccc(Cl)cc2Cl)c2c(Cl)ccc(Cl)c21 (nonaromatic ring conformer: 82.818103758225 kcal/mol)

>  <smiles>  (50) 
O=C1c2cc(Br)ccc2C(Cc2ccc(Cl)cc2Cl)c2c(Cl)ccc(Cl)c21

>  <score_type>  (50) 
oracle

>  <origin>  (50) 
adg

>  <m_score__min__energy>  (50) 
-9.4299999999999997

>  <m_primary>  (50) 
energy

$$$$
