0:0
     RDKit          3D

 68 70  0  0  0  0  0  0  0  0999 V2000
   63.4170   33.4880   46.7970 C   0  0  0  0  0  0  0  0  0  0  0  0
   63.1230   32.0390   47.1690 C   0  0  0  0  0  0  0  0  0  0  0  0
   62.4480   31.9750   48.4120 O   0  0  0  0  0  0  0  0  0  0  0  0
   63.3730   32.0200   49.4820 C   0  0  0  0  0  0  0  0  0  0  0  0
   63.3160   33.3960   50.1480 C   0  0  0  0  0  0  0  0  0  0  0  0
   61.9230   34.0260   50.0360 C   0  0  0  0  0  0  0  0  0  0  0  0
   60.8990   33.0430   50.4130 N   0  0  0  0  0  0  0  0  0  0  0  0
   59.6540   33.7000   50.8400 C   0  0  0  0  0  0  0  0  0  0  0  0
   58.4810   32.7170   50.8400 C   0  0  0  0  0  0  0  0  0  0  0  0
   58.9020   31.4540   50.3530 O   0  0  0  0  0  0  0  0  0  0  0  0
   58.9490   30.4840   51.3840 C   0  0  0  0  0  0  0  0  0  0  0  0
   59.9190   29.3520   51.0300 C   0  0  0  0  0  0  0  0  0  0  0  0
   59.5750   28.7710   49.7860 O   0  0  0  0  0  0  0  0  0  0  0  0
   60.7290   28.5520   49.0040 C   0  0  0  0  0  0  0  0  0  0  0  0
   60.8490   29.6720   47.9660 C   0  0  0  0  0  0  0  0  0  0  0  0
   59.8570   30.7450   48.1760 N   0  0  0  0  0  0  0  0  0  0  0  0
   59.2890   31.2190   46.9190 C   0  0  0  0  0  0  0  0  0  0  0  0
   59.4080   32.5900   46.5550 C   0  0  0  0  0  0  0  0  0  0  0  0
   60.0810   33.5270   47.3820 C   0  0  0  0  0  0  0  0  0  0  0  0
   60.1230   34.8800   47.0550 C   0  0  0  0  0  0  0  0  0  0  0  0
   59.4930   35.3380   45.9090 C   0  0  0  0  0  0  0  0  0  0  0  0
   58.8540   34.4410   45.0590 C   0  0  0  0  0  0  0  0  0  0  0  0
   58.8380   33.0480   45.3330 C   0  0  0  0  0  0  0  0  0  0  0  0
   58.2780   32.1530   44.4480 N   0  0  0  0  0  0  0  0  0  0  0  0
   57.9950   32.5720   43.0550 C   0  0  0  0  0  0  0  0  0  0  0  0
   58.0220   30.8560   44.8390 C   0  0  0  0  0  0  0  0  0  0  0  0
   57.2030   30.0040   44.0520 C   0  0  0  0  0  0  0  0  0  0  0  0
   57.0080   28.6710   44.3920 C   0  0  0  0  0  0  0  0  0  0  0  0
   57.6110   28.1480   45.5250 C   0  0  0  0  0  0  0  0  0  0  0  0
   57.3720   26.3040   45.9650 Br  0  0  0  0  0  0  0  0  0  0  0  0
   58.3780   28.9700   46.3500 C   0  0  0  0  0  0  0  0  0  0  0  0
   58.5680   30.3450   46.0530 C   0  0  0  0  0  0  0  0  0  0  0  0
   63.5380   34.0845   47.7133 H   0  0  0  0  0  0  0  0  0  0  0  0
   64.3428   33.5339   46.2047 H   0  0  0  0  0  0  0  0  0  0  0  0
   62.5823   33.8911   46.2047 H   0  0  0  0  0  0  0  0  0  0  0  0
   62.4919   31.5859   46.3903 H   0  0  0  0  0  0  0  0  0  0  0  0
   64.0738   31.4921   47.2511 H   0  0  0  0  0  0  0  0  0  0  0  0
   63.1183   31.2448   50.2197 H   0  0  0  0  0  0  0  0  0  0  0  0
   64.3878   31.8407   49.0971 H   0  0  0  0  0  0  0  0  0  0  0  0
   63.5730   33.2874   51.2120 H   0  0  0  0  0  0  0  0  0  0  0  0
   64.0312   34.0545   49.6334 H   0  0  0  0  0  0  0  0  0  0  0  0
   61.8602   34.8944   50.7082 H   0  0  0  0  0  0  0  0  0  0  0  0
   61.7527   34.3469   48.9977 H   0  0  0  0  0  0  0  0  0  0  0  0
   60.6780   32.4760   49.5600 H   0  0  0  0  0  0  0  0  0  0  0  0
   59.7887   34.0978   51.8567 H   0  0  0  0  0  0  0  0  0  0  0  0
   59.4282   34.5115   50.1326 H   0  0  0  0  0  0  0  0  0  0  0  0
   58.1022   32.6030   51.8664 H   0  0  0  0  0  0  0  0  0  0  0  0
   57.6855   33.1067   50.1878 H   0  0  0  0  0  0  0  0  0  0  0  0
   59.2823   30.9651   52.3154 H   0  0  0  0  0  0  0  0  0  0  0  0
   57.9431   30.0569   51.5090 H   0  0  0  0  0  0  0  0  0  0  0  0
   60.9401   29.7567   50.9698 H   0  0  0  0  0  0  0  0  0  0  0  0
   59.8611   28.5788   51.8103 H   0  0  0  0  0  0  0  0  0  0  0  0
   61.6184   28.5524   49.6512 H   0  0  0  0  0  0  0  0  0  0  0  0
   60.6532   27.5801   48.4944 H   0  0  0  0  0  0  0  0  0  0  0  0
   61.8576   30.1063   48.0304 H   0  0  0  0  0  0  0  0  0  0  0  0
   60.6611   29.2318   46.9756 H   0  0  0  0  0  0  0  0  0  0  0  0
   59.1420   30.4440   48.8690 H   0  0  0  0  0  0  0  0  0  0  0  0
   60.3120   31.5370   48.6810 H   0  0  0  0  0  0  0  0  0  0  0  0
   60.5788   33.1778   48.2986 H   0  0  0  0  0  0  0  0  0  0  0  0
   60.6572   35.5863   47.7075 H   0  0  0  0  0  0  0  0  0  0  0  0
   59.4981   36.4119   45.6711 H   0  0  0  0  0  0  0  0  0  0  0  0
   58.3511   34.8186   44.1565 H   0  0  0  0  0  0  0  0  0  0  0  0
   57.3793   33.4835   43.0642 H   0  0  0  0  0  0  0  0  0  0  0  0
   58.9421   32.7744   42.5334 H   0  0  0  0  0  0  0  0  0  0  0  0
   57.4535   31.7690   42.5334 H   0  0  0  0  0  0  0  0  0  0  0  0
   56.7125   30.4078   43.1541 H   0  0  0  0  0  0  0  0  0  0  0  0
   56.3744   28.0301   43.7613 H   0  0  0  0  0  0  0  0  0  0  0  0
   58.8456   28.5439   47.2499 H   0  0  0  0  0  0  0  0  0  0  0  0
  1  2  1  0
  2  3  1  0
  3  4  1  0
  4  5  1  0
  5  6  1  0
  6  7  1  0
  7  8  1  0
  8  9  1  0
  9 10  1  0
 10 11  1  0
 11 12  1  0
 12 13  1  0
 13 14  1  0
 14 15  1  0
 15 16  1  0
 16 17  1  0
 17 18  2  0
 18 19  1  0
 19 20  2  0
 20 21  1  0
 21 22  2  0
 22 23  1  0
 23 24  2  0
 24 25  1  0
 24 26  1  0
 26 27  2  0
 27 28  1  0
 28 29  2  0
 29 30  1  0
 29 31  1  0
 31 32  2  0
 32 17  1  0
 23 18  1  0
 32 26  1  0
  1 33  1  0
  1 34  1  0
  1 35  1  0
  2 36  1  0
  2 37  1  0
  4 38  1  0
  4 39  1  0
  5 40  1  0
  5 41  1  0
  6 42  1  0
  6 43  1  0
  7 44  1  0
  8 45  1  0
  8 46  1  0
  9 47  1  0
  9 48  1  0
 11 49  1  0
 11 50  1  0
 12 51  1  0
 12 52  1  0
 14 53  1  0
 14 54  1  0
 15 55  1  0
 15 56  1  0
 16 57  1  0
 16 58  1  0
 19 59  1  0
 20 60  1  0
 21 61  1  0
 22 62  1  0
 25 63  1  0
 25 64  1  0
 25 65  1  0
 27 66  1  0
 28 67  1  0
 31 68  1  0
M  CHG  2  16   1  24   1
M  END
>  <UniqueID>  (1) 
1

>  <SMILES>  (1) 
CCOCCCNCCOCCOCC[NH2+]c1c2ccccc2[n+](C)c2ccc(Br)cc12

>  <Energy>  (1) 
93.50428242817013

>  <Genealogy>  (1) 
CCOCCCNCCOCCOCC[NH2+]c1c2ccccc2[n+](C)c2ccc(Br)cc12 (protonated)
CCOCCCNCCOCCOCC[NH2+]c1c2ccccc2[n+](C)c2ccc(Br)cc12 (3D coordinates assigned)
CCOCCCNCCOCCOCC[NH2+]c1c2ccccc2[n+](C)c2ccc(Br)cc12 (optimized conformer: 93.50428242817013 kcal/mol)

>  <smiles>  (1) 
CCOCCCNCCOCCOCCNc1c2ccccc2[n+](C)c2ccc(Br)cc12

>  <score_type>  (1) 
oracle

>  <origin>  (1) 
adg

>  <m_score__min__energy>  (1) 
-4.2699999999999996

>  <m_primary>  (1) 
energy

$$$$
1:0
     RDKit          3D

 64 65  0  0  0  0  0  0  0  0999 V2000
   57.6530   26.2210   44.9100 C   0  0  0  0  0  0  0  0  0  0  0  0
   56.6430   26.6330   45.9750 C   0  0  0  0  0  0  0  0  0  0  0  0
   55.9420   27.8130   45.5820 O   0  0  0  0  0  0  0  0  0  0  0  0
   56.5340   28.9870   45.0860 C   0  0  0  0  0  0  0  0  0  0  0  0
   57.6960   29.4540   45.7100 C   0  0  0  0  0  0  0  0  0  0  0  0
   58.3190   30.6240   45.2720 C   0  0  0  0  0  0  0  0  0  0  0  0
   57.7760   31.3610   44.2080 C   0  0  0  0  0  0  0  0  0  0  0  0
   58.4230   32.6550   43.7660 C   0  0  0  0  0  0  0  0  0  0  0  0
   58.0320   33.8540   44.5590 N   0  0  0  0  0  0  0  0  0  0  0  0
   59.1810   34.6550   45.0550 C   0  0  0  0  0  0  0  0  0  0  0  0
   59.7490   34.1890   46.4170 C   0  0  0  0  0  0  0  0  0  0  0  0
   58.9490   33.0940   46.9870 N   0  0  0  0  0  0  0  0  0  0  0  0
   59.4790   32.5740   48.2670 C   0  0  0  0  0  0  0  0  0  0  0  0
   60.7670   31.7400   48.1360 C   0  0  0  0  0  0  0  0  0  0  0  0
   61.5470   31.8690   49.3100 O   0  0  0  0  0  0  0  0  0  0  0  0
   61.3940   33.1490   49.9000 C   0  0  0  0  0  0  0  0  0  0  0  0
   62.1870   34.2120   49.1260 C   0  0  0  0  0  0  0  0  0  0  0  0
   63.5850   33.7770   48.8970 N   0  0  0  0  0  0  0  0  0  0  0  0
   64.1420   33.0320   50.0470 C   0  0  0  0  0  0  0  0  0  0  0  0
   65.6190   32.7220   49.8130 C   0  0  0  0  0  0  0  0  0  0  0  0
   63.7900   33.0780   47.6060 C   0  0  0  0  0  0  0  0  0  0  0  0
   63.2210   33.8200   46.3860 C   0  0  0  0  0  0  0  0  0  0  0  0
   57.5270   33.4460   47.0190 C   0  0  0  0  0  0  0  0  0  0  0  0
   56.9840   33.5940   45.5850 C   0  0  0  0  0  0  0  0  0  0  0  0
   56.6260   30.8800   43.5600 C   0  0  0  0  0  0  0  0  0  0  0  0
   56.0040   29.7090   44.0000 C   0  0  0  0  0  0  0  0  0  0  0  0
   58.5668   25.8483   45.3959 H   0  0  0  0  0  0  0  0  0  0  0  0
   57.2213   25.4271   44.2828 H   0  0  0  0  0  0  0  0  0  0  0  0
   57.8997   27.0903   44.2828 H   0  0  0  0  0  0  0  0  0  0  0  0
   55.9205   25.8166   46.1213 H   0  0  0  0  0  0  0  0  0  0  0  0
   57.1831   26.8399   46.9107 H   0  0  0  0  0  0  0  0  0  0  0  0
   58.1231   28.8934   46.5545 H   0  0  0  0  0  0  0  0  0  0  0  0
   59.2403   30.9701   45.7633 H   0  0  0  0  0  0  0  0  0  0  0  0
   59.5138   32.5354   43.8426 H   0  0  0  0  0  0  0  0  0  0  0  0
   58.0765   32.8381   42.7382 H   0  0  0  0  0  0  0  0  0  0  0  0
   57.5680   34.4720   43.8500 H   0  0  0  0  0  0  0  0  0  0  0  0
   59.9873   34.5975   44.3089 H   0  0  0  0  0  0  0  0  0  0  0  0
   58.8065   35.6782   45.2063 H   0  0  0  0  0  0  0  0  0  0  0  0
   60.7821   33.8398   46.2731 H   0  0  0  0  0  0  0  0  0  0  0  0
   59.7173   35.0394   47.1140 H   0  0  0  0  0  0  0  0  0  0  0  0
   59.6902   33.4305   48.9241 H   0  0  0  0  0  0  0  0  0  0  0  0
   58.7103   31.8991   48.6715 H   0  0  0  0  0  0  0  0  0  0  0  0
   60.5030   30.6824   47.9881 H   0  0  0  0  0  0  0  0  0  0  0  0
   61.3470   32.1030   47.2747 H   0  0  0  0  0  0  0  0  0  0  0  0
   60.3283   33.4217   49.8957 H   0  0  0  0  0  0  0  0  0  0  0  0
   61.7779   33.1074   50.9300 H   0  0  0  0  0  0  0  0  0  0  0  0
   61.7014   34.3849   48.1543 H   0  0  0  0  0  0  0  0  0  0  0  0
   62.2032   35.1366   49.7217 H   0  0  0  0  0  0  0  0  0  0  0  0
   64.0388   33.6403   50.9577 H   0  0  0  0  0  0  0  0  0  0  0  0
   63.5918   32.0864   50.1609 H   0  0  0  0  0  0  0  0  0  0  0  0
   66.1291   32.6149   50.7817 H   0  0  0  0  0  0  0  0  0  0  0  0
   65.7114   31.7849   49.2444 H   0  0  0  0  0  0  0  0  0  0  0  0
   66.0803   33.5429   49.2444 H   0  0  0  0  0  0  0  0  0  0  0  0
   64.8714   32.9450   47.4545 H   0  0  0  0  0  0  0  0  0  0  0  0
   63.2467   32.1240   47.6753 H   0  0  0  0  0  0  0  0  0  0  0  0
   62.5844   34.6502   46.7259 H   0  0  0  0  0  0  0  0  0  0  0  0
   64.0484   34.2169   45.7795 H   0  0  0  0  0  0  0  0  0  0  0  0
   62.6230   33.1239   45.7795 H   0  0  0  0  0  0  0  0  0  0  0  0
   56.9682   32.6542   47.5394 H   0  0  0  0  0  0  0  0  0  0  0  0
   57.4054   34.4018   47.5497 H   0  0  0  0  0  0  0  0  0  0  0  0
   56.4614   32.6641   45.3163 H   0  0  0  0  0  0  0  0  0  0  0  0
   56.3197   34.4708   45.5875 H   0  0  0  0  0  0  0  0  0  0  0  0
   56.2128   31.4288   42.7009 H   0  0  0  0  0  0  0  0  0  0  0  0
   55.0953   29.3493   43.4952 H   0  0  0  0  0  0  0  0  0  0  0  0
  1  2  1  0
  2  3  1  0
  3  4  1  0
  4  5  2  0
  5  6  1  0
  6  7  2  0
  7  8  1  0
  8  9  1  0
  9 10  1  0
 10 11  1  0
 11 12  1  0
 12 13  1  0
 13 14  1  0
 14 15  1  0
 15 16  1  0
 16 17  1  0
 17 18  1  0
 18 19  1  0
 19 20  1  0
 18 21  1  0
 21 22  1  0
 12 23  1  0
 23 24  1  0
  7 25  1  0
 25 26  2  0
 26  4  1  0
 24  9  1  0
  1 27  1  0
  1 28  1  0
  1 29  1  0
  2 30  1  0
  2 31  1  0
  5 32  1  0
  6 33  1  0
  8 34  1  0
  8 35  1  0
  9 36  1  0
 10 37  1  0
 10 38  1  0
 11 39  1  0
 11 40  1  0
 13 41  1  0
 13 42  1  0
 14 43  1  0
 14 44  1  0
 16 45  1  0
 16 46  1  0
 17 47  1  0
 17 48  1  0
 19 49  1  0
 19 50  1  0
 20 51  1  0
 20 52  1  0
 20 53  1  0
 21 54  1  0
 21 55  1  0
 22 56  1  0
 22 57  1  0
 22 58  1  0
 23 59  1  0
 23 60  1  0
 24 61  1  0
 24 62  1  0
 25 63  1  0
 26 64  1  0
M  CHG  1   9   1
M  END
>  <UniqueID>  (2) 
2

>  <SMILES>  (2) 
CCOc1ccc(C[NH+]2CCN(CCOCCN(CC)CC)CC2)cc1

>  <Energy>  (2) 
79.56732787224107

>  <Genealogy>  (2) 
CCOc1ccc(C[NH+]2CCN(CCOCCN(CC)CC)CC2)cc1 (protonated)
CCOc1ccc(C[NH+]2CCN(CCOCCN(CC)CC)CC2)cc1 (3D coordinates assigned)
CCOc1ccc(C[NH+]2CCN(CCOCCN(CC)CC)CC2)cc1 (nonaromatic ring conformer: 79.56732787224107 kcal/mol)

>  <smiles>  (2) 
CCOc1ccc(CN2CCN(CCOCCN(CC)CC)CC2)cc1

>  <score_type>  (2) 
oracle

>  <origin>  (2) 
adg

>  <m_score__min__energy>  (2) 
-5.5499999999999998

>  <m_primary>  (2) 
energy

$$$$
2:0
     RDKit          3D

 69 71  0  0  0  0  0  0  0  0999 V2000
   58.1760   33.7210   52.3610 C   0  0  0  0  0  0  0  0  0  0  0  0
   59.5280   33.5990   51.6530 C   0  0  0  0  0  0  0  0  0  0  0  0
   59.5740   32.4670   50.7110 N   0  0  0  0  0  0  0  0  0  0  0  0
   58.2350   31.9430   50.4090 C   0  0  0  0  0  0  0  0  0  0  0  0
   58.1910   30.4330   50.6540 C   0  0  0  0  0  0  0  0  0  0  0  0
   59.3100   30.0120   51.4160 O   0  0  0  0  0  0  0  0  0  0  0  0
   60.0500   29.0120   50.7390 C   0  0  0  0  0  0  0  0  0  0  0  0
   61.5400   29.0710   51.1110 C   0  0  0  0  0  0  0  0  0  0  0  0
   62.0340   30.4540   51.2060 N   0  0  0  0  0  0  0  0  0  0  0  0
   62.9950   30.8480   50.1570 C   0  0  0  0  0  0  0  0  0  0  0  0
   62.6160   32.1220   49.3730 C   0  0  0  0  0  0  0  0  0  0  0  0
   61.8190   31.8320   48.0910 C   0  0  0  0  0  0  0  0  0  0  0  0
   60.3800   31.7060   48.3850 N   0  0  0  0  0  0  0  0  0  0  0  0
   59.6470   31.2740   47.2020 C   0  0  0  0  0  0  0  0  0  0  0  0
   59.0280   32.2300   46.3570 C   0  0  0  0  0  0  0  0  0  0  0  0
   58.2040   31.7960   45.2840 C   0  0  0  0  0  0  0  0  0  0  0  0
   58.1510   30.4520   44.9430 N   0  0  0  0  0  0  0  0  0  0  0  0
   57.3940   30.0260   43.7320 C   0  0  0  0  0  0  0  0  0  0  0  0
   55.9300   29.7440   44.0740 C   0  0  0  0  0  0  0  0  0  0  0  0
   58.8530   29.5120   45.6840 C   0  0  0  0  0  0  0  0  0  0  0  0
   58.8790   28.1360   45.3160 C   0  0  0  0  0  0  0  0  0  0  0  0
   59.5470   27.1870   46.0840 C   0  0  0  0  0  0  0  0  0  0  0  0
   60.2190   27.5710   47.2330 C   0  0  0  0  0  0  0  0  0  0  0  0
   60.2420   28.9080   47.6110 C   0  0  0  0  0  0  0  0  0  0  0  0
   59.5770   29.9030   46.8470 C   0  0  0  0  0  0  0  0  0  0  0  0
   57.4050   32.8290   44.4750 C   0  0  0  0  0  0  0  0  0  0  0  0
   57.4620   34.2670   44.9910 C   0  0  0  0  0  0  0  0  0  0  0  0
   58.8600   34.6040   45.4650 C   0  0  0  0  0  0  0  0  0  0  0  0
   59.2010   33.7170   46.6520 C   0  0  0  0  0  0  0  0  0  0  0  0
   58.3299   33.7071   53.4501 H   0  0  0  0  0  0  0  0  0  0  0  0
   57.6941   34.6663   52.0708 H   0  0  0  0  0  0  0  0  0  0  0  0
   57.5327   32.8773   52.0708 H   0  0  0  0  0  0  0  0  0  0  0  0
   59.7195   34.5284   51.0966 H   0  0  0  0  0  0  0  0  0  0  0  0
   60.2930   33.4226   52.4235 H   0  0  0  0  0  0  0  0  0  0  0  0
   60.1600   31.7000   51.1200 H   0  0  0  0  0  0  0  0  0  0  0  0
   57.4965   32.4379   51.0568 H   0  0  0  0  0  0  0  0  0  0  0  0
   58.0013   32.1423   49.3528 H   0  0  0  0  0  0  0  0  0  0  0  0
   57.2691   30.1832   51.1996 H   0  0  0  0  0  0  0  0  0  0  0  0
   58.2134   29.9182   49.6822 H   0  0  0  0  0  0  0  0  0  0  0  0
   59.6512   28.0241   51.0130 H   0  0  0  0  0  0  0  0  0  0  0  0
   59.9556   29.1836   49.6566 H   0  0  0  0  0  0  0  0  0  0  0  0
   61.6825   28.5762   52.0831 H   0  0  0  0  0  0  0  0  0  0  0  0
   62.1071   28.5632   50.3169 H   0  0  0  0  0  0  0  0  0  0  0  0
   61.2200   31.1100   51.1940 H   0  0  0  0  0  0  0  0  0  0  0  0
   63.9711   31.0186   50.6346 H   0  0  0  0  0  0  0  0  0  0  0  0
   63.0056   30.0272   49.4247 H   0  0  0  0  0  0  0  0  0  0  0  0
   62.0066   32.7650   50.0251 H   0  0  0  0  0  0  0  0  0  0  0  0
   63.5544   32.6096   49.0702 H   0  0  0  0  0  0  0  0  0  0  0  0
   61.9704   32.6561   47.3783 H   0  0  0  0  0  0  0  0  0  0  0  0
   62.1750   30.8837   47.6621 H   0  0  0  0  0  0  0  0  0  0  0  0
   60.2240   31.0480   49.1800 H   0  0  0  0  0  0  0  0  0  0  0  0
   60.0110   32.6130   48.7460 H   0  0  0  0  0  0  0  0  0  0  0  0
   57.4401   30.8262   42.9786 H   0  0  0  0  0  0  0  0  0  0  0  0
   57.8474   29.1032   43.3410 H   0  0  0  0  0  0  0  0  0  0  0  0
   55.8068   29.7203   45.1668 H   0  0  0  0  0  0  0  0  0  0  0  0
   55.2953   30.5364   43.6506 H   0  0  0  0  0  0  0  0  0  0  0  0
   55.6351   28.7725   43.6506 H   0  0  0  0  0  0  0  0  0  0  0  0
   58.3579   27.8156   44.4018 H   0  0  0  0  0  0  0  0  0  0  0  0
   59.5414   26.1304   45.7783 H   0  0  0  0  0  0  0  0  0  0  0  0
   60.7345   26.8173   47.8463 H   0  0  0  0  0  0  0  0  0  0  0  0
   60.7865   29.2015   48.5206 H   0  0  0  0  0  0  0  0  0  0  0  0
   57.7925   32.8243   43.4455 H   0  0  0  0  0  0  0  0  0  0  0  0
   56.3516   32.5234   44.5581 H   0  0  0  0  0  0  0  0  0  0  0  0
   57.1789   34.9543   44.1801 H   0  0  0  0  0  0  0  0  0  0  0  0
   56.7649   34.3704   45.8356 H   0  0  0  0  0  0  0  0  0  0  0  0
   59.5792   34.4263   44.6518 H   0  0  0  0  0  0  0  0  0  0  0  0
   58.9095   35.6620   45.7621 H   0  0  0  0  0  0  0  0  0  0  0  0
   60.2484   33.8983   46.9350 H   0  0  0  0  0  0  0  0  0  0  0  0
   58.5047   33.9736   47.4640 H   0  0  0  0  0  0  0  0  0  0  0  0
  1  2  1  0
  2  3  1  0
  3  4  1  0
  4  5  1  0
  5  6  1  0
  6  7  1  0
  7  8  1  0
  8  9  1  0
  9 10  1  0
 10 11  1  0
 11 12  1  0
 12 13  1  0
 13 14  1  0
 14 15  2  0
 15 16  1  0
 16 17  2  0
 17 18  1  0
 18 19  1  0
 17 20  1  0
 20 21  2  0
 21 22  1  0
 22 23  2  0
 23 24  1  0
 24 25  2  0
 16 26  1  0
 26 27  1  0
 27 28  1  0
 28 29  1  0
 25 14  1  0
 29 15  1  0
 25 20  1  0
  1 30  1  0
  1 31  1  0
  1 32  1  0
  2 33  1  0
  2 34  1  0
  3 35  1  0
  4 36  1  0
  4 37  1  0
  5 38  1  0
  5 39  1  0
  7 40  1  0
  7 41  1  0
  8 42  1  0
  8 43  1  0
  9 44  1  0
 10 45  1  0
 10 46  1  0
 11 47  1  0
 11 48  1  0
 12 49  1  0
 12 50  1  0
 13 51  1  0
 13 52  1  0
 18 53  1  0
 18 54  1  0
 19 55  1  0
 19 56  1  0
 19 57  1  0
 21 58  1  0
 22 59  1  0
 23 60  1  0
 24 61  1  0
 26 62  1  0
 26 63  1  0
 27 64  1  0
 27 65  1  0
 28 66  1  0
 28 67  1  0
 29 68  1  0
 29 69  1  0
M  CHG  2  13   1  17   1
M  END
>  <UniqueID>  (3) 
3

>  <SMILES>  (3) 
CCNCCOCCNCCC[NH2+]c1c2c([n+](CC)c3ccccc13)CCCC2

>  <Energy>  (3) 
87.80178638763175

>  <Genealogy>  (3) 
CCNCCOCCNCCC[NH2+]c1c2c([n+](CC)c3ccccc13)CCCC2 (protonated)
CCNCCOCCNCCC[NH2+]c1c2c([n+](CC)c3ccccc13)CCCC2 (3D coordinates assigned)
CCNCCOCCNCCC[NH2+]c1c2c([n+](CC)c3ccccc13)CCCC2 (nonaromatic ring conformer: 87.80178638763175 kcal/mol)

>  <smiles>  (3) 
CCNCCOCCNCCCNc1c2c([n+](CC)c3ccccc13)CCCC2

>  <score_type>  (3) 
oracle

>  <origin>  (3) 
adg

>  <m_score__min__energy>  (3) 
-3.75

>  <m_primary>  (3) 
energy

$$$$
3:0
     RDKit          3D

 40 42  0  0  0  0  0  0  0  0999 V2000
   63.0790   33.8650   46.3940 C   0  0  0  0  0  0  0  0  0  0  0  0
   63.7400   32.9080   47.3820 C   0  0  0  0  0  0  0  0  0  0  0  0
   62.7220   32.1930   48.1810 N   0  0  0  0  0  0  0  0  0  0  0  0
   61.8440   33.1090   48.9450 C   0  0  0  0  0  0  0  0  0  0  0  0
   62.6070   34.1930   49.7200 C   0  0  0  0  0  0  0  0  0  0  0  0
   61.9680   31.1750   47.4090 C   0  0  0  0  0  0  0  0  0  0  0  0
   60.8480   30.5940   48.2790 C   0  0  0  0  0  0  0  0  0  0  0  0
   59.7810   30.0320   47.4500 N   0  0  0  0  0  0  0  0  0  0  0  0
   59.4880   28.7360   47.5080 N   0  0  0  0  0  0  0  0  0  0  0  0
   58.4330   28.4890   46.7070 C   0  0  0  0  0  0  0  0  0  0  0  0
   58.0500   29.6760   46.1340 C   0  0  0  0  0  0  0  0  0  0  0  0
   57.0190   29.9770   45.2550 C   0  0  0  0  0  0  0  0  0  0  0  0
   56.2420   29.0800   44.8320 O   0  0  0  0  0  0  0  0  0  0  0  0
   56.8630   31.2400   44.8660 O   0  0  0  0  0  0  0  0  0  0  0  0
   57.6560   32.2330   45.2830 C   0  0  0  0  0  0  0  0  0  0  0  0
   57.4130   33.5290   44.8170 C   0  0  0  0  0  0  0  0  0  0  0  0
   58.2210   34.5880   45.2270 C   0  0  0  0  0  0  0  0  0  0  0  0
   59.2780   34.3610   46.1070 C   0  0  0  0  0  0  0  0  0  0  0  0
   59.5400   33.0740   46.5860 C   0  0  0  0  0  0  0  0  0  0  0  0
   58.7350   31.9860   46.1890 C   0  0  0  0  0  0  0  0  0  0  0  0
   58.9000   30.6400   46.6060 C   0  0  0  0  0  0  0  0  0  0  0  0
   62.5386   34.6474   46.9470 H   0  0  0  0  0  0  0  0  0  0  0  0
   63.8500   34.3291   45.7614 H   0  0  0  0  0  0  0  0  0  0  0  0
   62.3720   33.3083   45.7614 H   0  0  0  0  0  0  0  0  0  0  0  0
   64.3424   32.1747   46.8258 H   0  0  0  0  0  0  0  0  0  0  0  0
   64.3783   33.4898   48.0632 H   0  0  0  0  0  0  0  0  0  0  0  0
   61.1600   33.6032   48.2394 H   0  0  0  0  0  0  0  0  0  0  0  0
   61.3112   32.4977   49.6882 H   0  0  0  0  0  0  0  0  0  0  0  0
   62.4879   34.0238   50.8004 H   0  0  0  0  0  0  0  0  0  0  0  0
   63.6743   34.1489   49.4574 H   0  0  0  0  0  0  0  0  0  0  0  0
   62.2054   35.1828   49.4574 H   0  0  0  0  0  0  0  0  0  0  0  0
   61.5310   31.6435   46.5148 H   0  0  0  0  0  0  0  0  0  0  0  0
   62.6507   30.3675   47.1059 H   0  0  0  0  0  0  0  0  0  0  0  0
   61.2631   29.8008   48.9182 H   0  0  0  0  0  0  0  0  0  0  0  0
   60.4261   31.4021   48.8946 H   0  0  0  0  0  0  0  0  0  0  0  0
   57.9618   27.5089   46.5415 H   0  0  0  0  0  0  0  0  0  0  0  0
   56.5796   33.7135   44.1231 H   0  0  0  0  0  0  0  0  0  0  0  0
   58.0243   35.6046   44.8556 H   0  0  0  0  0  0  0  0  0  0  0  0
   59.9112   35.2015   46.4272 H   0  0  0  0  0  0  0  0  0  0  0  0
   60.3796   32.9088   47.2772 H   0  0  0  0  0  0  0  0  0  0  0  0
  1  2  1  0
  2  3  1  0
  3  4  1  0
  4  5  1  0
  3  6  1  0
  6  7  1  0
  7  8  1  0
  8  9  1  0
  9 10  2  0
 10 11  1  0
 11 12  1  0
 12 13  2  0
 12 14  1  0
 14 15  1  0
 15 16  2  0
 16 17  1  0
 17 18  2  0
 18 19  1  0
 19 20  2  0
 20 21  1  0
 21  8  1  0
 21 11  2  0
 20 15  1  0
  1 22  1  0
  1 23  1  0
  1 24  1  0
  2 25  1  0
  2 26  1  0
  4 27  1  0
  4 28  1  0
  5 29  1  0
  5 30  1  0
  5 31  1  0
  6 32  1  0
  6 33  1  0
  7 34  1  0
  7 35  1  0
 10 36  1  0
 16 37  1  0
 17 38  1  0
 18 39  1  0
 19 40  1  0
M  END
>  <UniqueID>  (4) 
4

>  <SMILES>  (4) 
CCN(CC)CCn1ncc2c(=O)oc3ccccc3c21

>  <Energy>  (4) 
91.0003499559838

>  <Genealogy>  (4) 
CCN(CC)CCn1ncc2c(=O)oc3ccccc3c21 (3D coordinates assigned)
CCN(CC)CCn1ncc2c(=O)oc3ccccc3c21 (optimized conformer: 91.0003499559838 kcal/mol)

>  <smiles>  (4) 
CCN(CC)CCn1ncc2c(=O)oc3ccccc3c21

>  <score_type>  (4) 
oracle

>  <origin>  (4) 
adg

>  <m_score__min__energy>  (4) 
-6.7000000000000002

>  <m_primary>  (4) 
energy

$$$$
4:0
     RDKit          3D

 32 34  0  0  0  0  0  0  0  0999 V2000
   59.3860   29.2230   44.5150 C   0  0  0  0  0  0  0  0  0  0  0  0
   57.9340   29.3620   44.6040 N   0  0  0  0  0  0  0  0  0  0  0  0
   57.1850   30.4320   44.2630 C   0  0  0  0  0  0  0  0  0  0  0  0
   57.8180   31.9610   43.5670 S   0  0  0  0  0  0  0  0  0  0  0  0
   57.2700   33.0110   44.9620 C   0  0  0  0  0  0  0  0  0  0  0  0
   58.4500   33.5110   45.7590 C   0  0  0  0  0  0  0  0  0  0  0  0
   58.9410   34.8020   45.4950 C   0  0  0  0  0  0  0  0  0  0  0  0
   60.0010   35.3250   46.2390 C   0  0  0  0  0  0  0  0  0  0  0  0
   60.5850   34.5680   47.2540 C   0  0  0  0  0  0  0  0  0  0  0  0
   60.1130   33.2820   47.5260 C   0  0  0  0  0  0  0  0  0  0  0  0
   59.0510   32.7450   46.7860 C   0  0  0  0  0  0  0  0  0  0  0  0
   58.5190   31.1140   47.1820 Cl  0  0  0  0  0  0  0  0  0  0  0  0
   55.8760   30.2130   44.4830 N   0  0  0  0  0  0  0  0  0  0  0  0
   55.7700   28.9860   44.9680 N   0  0  0  0  0  0  0  0  0  0  0  0
   57.0140   28.4750   45.0500 C   0  0  0  0  0  0  0  0  0  0  0  0
   57.2690   27.0980   45.5200 C   0  0  0  0  0  0  0  0  0  0  0  0
   58.4970   26.4650   45.7060 C   0  0  0  0  0  0  0  0  0  0  0  0
   58.3790   25.1610   46.2010 C   0  0  0  0  0  0  0  0  0  0  0  0
   57.0690   24.7600   46.4210 C   0  0  0  0  0  0  0  0  0  0  0  0
   56.0580   26.0330   46.0000 S   0  0  0  0  0  0  0  0  0  0  0  0
   59.8132   29.1821   45.5278 H   0  0  0  0  0  0  0  0  0  0  0  0
   59.6333   28.2971   43.9751 H   0  0  0  0  0  0  0  0  0  0  0  0
   59.8045   30.0852   43.9751 H   0  0  0  0  0  0  0  0  0  0  0  0
   56.7122   33.8726   44.5662 H   0  0  0  0  0  0  0  0  0  0  0  0
   56.6303   32.4086   45.6237 H   0  0  0  0  0  0  0  0  0  0  0  0
   58.4862   35.4053   44.6955 H   0  0  0  0  0  0  0  0  0  0  0  0
   60.3760   36.3365   46.0238 H   0  0  0  0  0  0  0  0  0  0  0  0
   61.4175   34.9837   47.8405 H   0  0  0  0  0  0  0  0  0  0  0  0
   60.5777   32.6870   48.3260 H   0  0  0  0  0  0  0  0  0  0  0  0
   59.4630   26.9429   45.4856 H   0  0  0  0  0  0  0  0  0  0  0  0
   59.2459   24.5131   46.3977 H   0  0  0  0  0  0  0  0  0  0  0  0
   56.7488   23.7798   46.8041 H   0  0  0  0  0  0  0  0  0  0  0  0
  1  2  1  0
  2  3  1  0
  3  4  1  0
  4  5  1  0
  5  6  1  0
  6  7  2  0
  7  8  1  0
  8  9  2  0
  9 10  1  0
 10 11  2  0
 11 12  1  0
  3 13  2  0
 13 14  1  0
 14 15  2  0
 15 16  1  0
 16 17  2  0
 17 18  1  0
 18 19  2  0
 19 20  1  0
 15  2  1  0
 20 16  1  0
 11  6  1  0
  1 21  1  0
  1 22  1  0
  1 23  1  0
  5 24  1  0
  5 25  1  0
  7 26  1  0
  8 27  1  0
  9 28  1  0
 10 29  1  0
 17 30  1  0
 18 31  1  0
 19 32  1  0
M  END
>  <UniqueID>  (5) 
5

>  <SMILES>  (5) 
Cn1c(SCc2ccccc2Cl)nnc1-c1cccs1

>  <Energy>  (5) 
93.02854290909043

>  <Genealogy>  (5) 
Cn1c(SCc2ccccc2Cl)nnc1-c1cccs1 (3D coordinates assigned)
Cn1c(SCc2ccccc2Cl)nnc1-c1cccs1 (optimized conformer: 93.02854290909043 kcal/mol)

>  <smiles>  (5) 
Cn1c(SCc2ccccc2Cl)nnc1-c1cccs1

>  <score_type>  (5) 
oracle

>  <origin>  (5) 
adg

>  <m_score__min__energy>  (5) 
-7.8700000000000001

>  <m_primary>  (5) 
energy

$$$$
5:0
     RDKit          3D

 48 50  0  0  0  0  0  0  0  0999 V2000
   56.5810   21.2439   43.5940 H   0  0  0  0  0  0  0  0  0  0  0  0
   56.3560   22.1970   44.0950 C   0  0  0  0  0  0  0  0  0  0  0  0
   57.0160   23.3650   43.7050 C   0  0  0  0  0  0  0  0  0  0  0  0
   57.7548   23.3325   42.8907 H   0  0  0  0  0  0  0  0  0  0  0  0
   56.7390   24.5750   44.3480 C   0  0  0  0  0  0  0  0  0  0  0  0
   57.2490   25.4946   44.0252 H   0  0  0  0  0  0  0  0  0  0  0  0
   55.8160   24.6240   45.4010 C   0  0  0  0  0  0  0  0  0  0  0  0
   55.5350   25.8950   46.0140 N   0  0  0  0  0  0  0  0  0  0  0  0
   56.2620   26.9710   45.9510 C   0  0  0  0  0  0  0  0  0  0  0  0
   55.8550   28.0610   45.2460 N   0  0  0  0  0  0  0  0  0  0  0  0
   56.6160   29.1830   45.2120 C   0  0  0  0  0  0  0  0  0  0  0  0
   56.2100   30.2090   44.5270 N   0  0  0  0  0  0  0  0  0  0  0  0
   57.0340   30.9200   43.5530 C   0  0  0  0  0  0  0  0  0  0  0  0
   57.5491   30.1926   42.9084 H   0  0  0  0  0  0  0  0  0  0  0  0
   56.3944   31.5688   42.9366 H   0  0  0  0  0  0  0  0  0  0  0  0
   58.0740   31.7780   44.2890 C   0  0  0  0  0  0  0  0  0  0  0  0
   59.0534   31.2827   44.2146 H   0  0  0  0  0  0  0  0  0  0  0  0
   58.0790   32.7699   43.8135 H   0  0  0  0  0  0  0  0  0  0  0  0
   57.7500   31.9750   45.7280 N   0  0  0  0  0  0  0  0  0  0  0  0
   57.0530   31.2390   45.9950 H   0  0  0  0  0  0  0  0  0  0  0  0
   57.1010   33.2930   45.9620 C   0  0  0  0  0  0  0  0  0  0  0  0
   56.5578   33.5843   45.0509 H   0  0  0  0  0  0  0  0  0  0  0  0
   56.4239   33.1816   46.8217 H   0  0  0  0  0  0  0  0  0  0  0  0
   58.1160   34.4050   46.3090 C   0  0  0  0  0  0  0  0  0  0  0  0
   57.7663   35.3572   45.8836 H   0  0  0  0  0  0  0  0  0  0  0  0
   58.1953   34.4792   47.4036 H   0  0  0  0  0  0  0  0  0  0  0  0
   59.3910   34.1050   45.7840 O   0  0  0  0  0  0  0  0  0  0  0  0
   59.9370   32.9750   46.4420 C   0  0  0  0  0  0  0  0  0  0  0  0
   60.7871   32.6035   45.8510 H   0  0  0  0  0  0  0  0  0  0  0  0
   60.2425   33.2990   47.4478 H   0  0  0  0  0  0  0  0  0  0  0  0
   58.9210   31.8220   46.6200 C   0  0  0  0  0  0  0  0  0  0  0  0
   59.4206   30.8693   46.3905 H   0  0  0  0  0  0  0  0  0  0  0  0
   58.5622   31.8416   47.6596 H   0  0  0  0  0  0  0  0  0  0  0  0
   57.7900   29.2200   45.8980 N   0  0  0  0  0  0  0  0  0  0  0  0
   58.1990   28.1430   46.6150 C   0  0  0  0  0  0  0  0  0  0  0  0
   59.3240   28.2000   47.2640 N   0  0  0  0  0  0  0  0  0  0  0  0
   60.5390   28.8550   46.7800 C   0  0  0  0  0  0  0  0  0  0  0  0
   61.4088   28.4389   47.3095 H   0  0  0  0  0  0  0  0  0  0  0  0
   60.4574   29.9355   46.9695 H   0  0  0  0  0  0  0  0  0  0  0  0
   60.7120   28.6320   45.2800 C   0  0  0  0  0  0  0  0  0  0  0  0
   61.3783   27.7731   45.1114 H   0  0  0  0  0  0  0  0  0  0  0  0
   59.7316   28.4305   44.8238 H   0  0  0  0  0  0  0  0  0  0  0  0
   61.1508   29.5316   44.8238 H   0  0  0  0  0  0  0  0  0  0  0  0
   57.4300   27.0220   46.6390 N   0  0  0  0  0  0  0  0  0  0  0  0
   55.1300   23.4490   45.7690 C   0  0  0  0  0  0  0  0  0  0  0  0
   54.3732   23.4826   46.5665 H   0  0  0  0  0  0  0  0  0  0  0  0
   55.4090   22.2410   45.1230 C   0  0  0  0  0  0  0  0  0  0  0  0
   54.8825   21.3232   45.4240 H   0  0  0  0  0  0  0  0  0  0  0  0
  1  2  1  0
  2  3  2  0
  3  4  1  0
  3  5  1  0
  5  6  1  0
  5  7  2  0
  7  8  1  0
  8  9  2  0
  9 10  1  0
 10 11  1  0
 11 12  2  3
 12 13  1  0
 13 14  1  0
 13 15  1  0
 13 16  1  0
 16 17  1  0
 16 18  1  0
 16 19  1  0
 19 20  1  0
 19 21  1  0
 21 22  1  0
 21 23  1  0
 21 24  1  0
 24 25  1  0
 24 26  1  0
 24 27  1  0
 27 28  1  0
 28 29  1  0
 28 30  1  0
 28 31  1  0
 31 32  1  0
 31 33  1  0
 11 34  1  0
 34 35  1  0
 35 36  2  0
 36 37  1  0
 37 38  1  0
 37 39  1  0
 37 40  1  0
 40 41  1  0
 40 42  1  0
 40 43  1  0
 35 44  1  0
  7 45  1  0
 45 46  1  0
 45 47  2  0
 47 48  1  0
 47  2  1  0
 44  9  1  0
 31 19  1  0
M  CHG  4  10  -1  19   1  34  -1  44  -1
M  END
>  <UniqueID>  (6) 
6

>  <SMILES>  (6) 
CC/N=c1/[n-]c(=NCC[NH+]2CCOCC2)[n-]/c(=N\c2ccccc2)[n-]1

>  <Energy>  (6) 
64.4497882155611

>  <Genealogy>  (6) 
CCN=c1[n-]c(=NCC[NH+]2CCOCC2)[n-]c(=Nc2ccccc2)[n-]1 (protonated)
CC/N=c1/[n-]c(=NCC[NH+]2CCOCC2)[n-]/c(=N\c2ccccc2)[n-]1 (cis-trans isomerization)
CC/N=c1/[n-]c(=NCC[NH+]2CCOCC2)[n-]/c(=N\c2ccccc2)[n-]1 (3D coordinates assigned)
CC/N=c1/[n-]c(=NCC[NH+]2CCOCC2)[n-]/c(=N\c2ccccc2)[n-]1 (nonaromatic ring conformer: 64.4497882155611 kcal/mol)

>  <smiles>  (6) 
CCN=c1[nH]c(=NCCN2CCOCC2)[nH]c(=Nc2ccccc2)[nH]1

>  <score_type>  (6) 
oracle

>  <origin>  (6) 
adg

>  <m_score__min__energy>  (6) 
-10.94

>  <m_primary>  (6) 
energy

$$$$
6:0
     RDKit          3D

 62 65  0  0  0  0  0  0  0  0999 V2000
   58.4700   28.8180   44.1200 C   0  0  0  0  0  0  0  0  0  0  0  0
   57.7100   30.1160   44.4780 C   0  0  0  0  0  0  0  0  0  0  0  0
   56.1970   29.7980   44.4510 C   0  0  0  0  0  0  0  0  0  0  0  0
   58.0450   31.1750   43.3890 C   0  0  0  0  0  0  0  0  0  0  0  0
   57.5960   32.5910   43.7720 C   0  0  0  0  0  0  0  0  0  0  0  0
   58.1080   33.0720   45.1850 C   0  0  2  0  0  0  0  0  0  0  0  0
   56.8480   33.4560   46.0160 C   0  0  0  0  0  0  0  0  0  0  0  0
   59.0340   34.3390   45.0240 C   0  0  0  0  0  0  0  0  0  0  0  0
   60.3270   34.3340   45.8840 C   0  0  0  0  0  0  0  0  0  0  0  0
   60.1350   33.7830   47.3370 C   0  0  1  0  0  0  0  0  0  0  0  0
   59.2800   34.8340   48.0980 C   0  0  0  0  0  0  0  0  0  0  0  0
   59.4100   32.4330   47.2850 C   0  0  0  0  0  0  0  0  0  0  0  0
   59.4690   31.6240   48.3690 C   0  0  0  0  0  0  0  0  0  0  0  0
   60.1030   32.0380   49.6760 C   0  0  0  0  0  0  0  0  0  0  0  0
   61.3380   33.0170   49.5680 C   0  0  1  0  0  0  0  0  0  0  0  0
   61.0900   34.2070   50.5570 C   0  0  0  0  0  0  0  0  0  0  0  0
   62.6340   32.3000   50.1210 C   0  0  2  0  0  0  0  0  0  0  0  0
   63.6380   33.2040   50.5310 O   0  0  0  0  0  0  0  0  0  0  0  0
   63.2200   31.2840   49.1470 C   0  0  0  0  0  0  0  0  0  0  0  0
   63.6410   31.9770   47.8670 C   0  0  0  0  0  0  0  0  0  0  0  0
   62.4380   32.6110   47.1830 C   0  0  0  0  0  0  0  0  0  0  0  0
   61.5310   33.5460   48.0680 C   0  0  1  0  0  0  0  0  0  0  0  0
   58.9030   31.9370   45.9170 C   0  0  1  0  0  0  0  0  0  0  0  0
   58.1260   30.5950   45.9140 C   0  0  0  0  0  0  0  0  0  0  0  0
   58.7716   28.3030   45.0440 H   0  0  0  0  0  0  0  0  0  0  0  0
   57.8145   28.1600   43.5306 H   0  0  0  0  0  0  0  0  0  0  0  0
   59.3646   29.0676   43.5306 H   0  0  0  0  0  0  0  0  0  0  0  0
   55.8205   29.7189   45.4815 H   0  0  0  0  0  0  0  0  0  0  0  0
   55.6624   30.6034   43.9261 H   0  0  0  0  0  0  0  0  0  0  0  0
   56.0318   28.8455   43.9261 H   0  0  0  0  0  0  0  0  0  0  0  0
   59.1336   31.1831   43.2310 H   0  0  0  0  0  0  0  0  0  0  0  0
   57.4998   30.8924   42.4764 H   0  0  0  0  0  0  0  0  0  0  0  0
   57.9741   33.2903   43.0117 H   0  0  0  0  0  0  0  0  0  0  0  0
   56.4974   32.5710   43.8239 H   0  0  0  0  0  0  0  0  0  0  0  0
   57.0807   33.3851   47.0888 H   0  0  0  0  0  0  0  0  0  0  0  0
   56.5485   34.4862   45.7731 H   0  0  0  0  0  0  0  0  0  0  0  0
   56.0249   32.7679   45.7731 H   0  0  0  0  0  0  0  0  0  0  0  0
   59.3300   34.4106   43.9670 H   0  0  0  0  0  0  0  0  0  0  0  0
   58.4396   35.1949   45.3762 H   0  0  0  0  0  0  0  0  0  0  0  0
   61.0761   33.7094   45.3754 H   0  0  0  0  0  0  0  0  0  0  0  0
   60.6410   35.3834   45.9850 H   0  0  0  0  0  0  0  0  0  0  0  0
   59.3988   34.6880   49.1818 H   0  0  0  0  0  0  0  0  0  0  0  0
   59.6147   35.8458   47.8255 H   0  0  0  0  0  0  0  0  0  0  0  0
   58.2213   34.7122   47.8255 H   0  0  0  0  0  0  0  0  0  0  0  0
   59.0342   30.6164   48.2943 H   0  0  0  0  0  0  0  0  0  0  0  0
   59.3312   32.5356   50.2815 H   0  0  0  0  0  0  0  0  0  0  0  0
   60.4969   31.1121   50.1205 H   0  0  0  0  0  0  0  0  0  0  0  0
   61.1655   33.8447   51.5929 H   0  0  0  0  0  0  0  0  0  0  0  0
   61.8445   34.9891   50.3862 H   0  0  0  0  0  0  0  0  0  0  0  0
   60.0860   34.6226   50.3862 H   0  0  0  0  0  0  0  0  0  0  0  0
   62.2829   31.7558   51.0101 H   0  0  0  0  0  0  0  0  0  0  0  0
   64.0410   32.8700   51.3730 H   0  0  0  0  0  0  0  0  0  0  0  0
   64.0962   30.8027   49.6059 H   0  0  0  0  0  0  0  0  0  0  0  0
   62.4578   30.5260   48.9136 H   0  0  0  0  0  0  0  0  0  0  0  0
   64.3765   32.7597   48.1043 H   0  0  0  0  0  0  0  0  0  0  0  0
   64.0842   31.2328   47.1890 H   0  0  0  0  0  0  0  0  0  0  0  0
   62.8119   33.2106   46.3400 H   0  0  0  0  0  0  0  0  0  0  0  0
   61.7913   31.7683   46.8972 H   0  0  0  0  0  0  0  0  0  0  0  0
   62.0532   34.5085   48.1729 H   0  0  0  0  0  0  0  0  0  0  0  0
   59.8163   31.6941   45.3540 H   0  0  0  0  0  0  0  0  0  0  0  0
   58.7639   29.8222   46.3677 H   0  0  0  0  0  0  0  0  0  0  0  0
   57.1984   30.7567   46.4827 H   0  0  0  0  0  0  0  0  0  0  0  0
  1  2  1  0
  2  3  1  0
  2  4  1  0
  4  5  1  0
  5  6  1  0
  6  7  1  1
  6  8  1  0
  8  9  1  0
  9 10  1  0
 10 11  1  1
 10 12  1  0
 12 13  2  0
 13 14  1  0
 14 15  1  0
 15 16  1  1
 15 17  1  0
 17 18  1  0
 17 19  1  0
 19 20  1  0
 20 21  1  0
 21 22  1  0
 12 23  1  0
 23 24  1  0
 24  2  1  0
 23  6  1  0
 22 10  1  0
 22 15  1  0
  1 25  1  0
  1 26  1  0
  1 27  1  0
  3 28  1  0
  3 29  1  0
  3 30  1  0
  4 31  1  0
  4 32  1  0
  5 33  1  0
  5 34  1  0
  7 35  1  0
  7 36  1  0
  7 37  1  0
  8 38  1  0
  8 39  1  0
  9 40  1  0
  9 41  1  0
 11 42  1  0
 11 43  1  0
 11 44  1  0
 13 45  1  0
 14 46  1  0
 14 47  1  0
 16 48  1  0
 16 49  1  0
 16 50  1  0
 17 51  1  1
 18 52  1  0
 19 53  1  0
 19 54  1  0
 20 55  1  0
 20 56  1  0
 21 57  1  0
 21 58  1  0
 22 59  1  1
 23 60  1  6
 24 61  1  0
 24 62  1  0
M  END
>  <UniqueID>  (7) 
7

>  <SMILES>  (7) 
CC1(C)CC[C@]2(C)CC[C@@]3(C)C(=CCC4(C)C(O)CCCC43)C2C1

>  <Energy>  (7) 
110.15807456615399

>  <Genealogy>  (7) 
CC1(C)CC[C@]2(C)CC[C@@]3(C)C(=CCC4(C)C(O)CCCC43)C2C1 (chirality)
CC1(C)CC[C@]2(C)CC[C@@]3(C)C(=CCC4(C)C(O)CCCC43)C2C1 (3D coordinates assigned)
CC1(C)CC[C@]2(C)CC[C@@]3(C)C(=CCC4(C)C(O)CCCC43)C2C1 (nonaromatic ring conformer: 110.15807456615399 kcal/mol)

>  <smiles>  (7) 
CC1(C)CCC2(C)CCC3(C)C(=CCC4(C)C(O)CCCC34)C2C1

>  <score_type>  (7) 
oracle

>  <origin>  (7) 
adg

>  <m_score__min__energy>  (7) 
-9.2400000000000002

>  <m_primary>  (7) 
energy

$$$$
7:0
     RDKit          3D

 57 60  0  0  0  0  0  0  0  0999 V2000
   56.3380   31.1850   51.7490 C   0  0  0  0  0  0  0  0  0  0  0  0
   57.7580   30.6580   51.9260 C   0  0  0  0  0  0  0  0  0  0  0  0
   58.1420   29.8520   50.7580 N   0  0  0  0  0  0  0  0  0  0  0  0
   59.5080   29.3250   50.8920 C   0  0  0  0  0  0  0  0  0  0  0  0
   60.4520   30.0370   49.9120 C   0  0  0  0  0  0  0  0  0  0  0  0
   60.3470   29.4720   48.4890 C   0  0  0  0  0  0  0  0  0  0  0  0
   58.9580   29.4340   48.0290 N   0  0  0  0  0  0  0  0  0  0  0  0
   58.5980   29.7830   46.6840 C   0  0  0  0  0  0  0  0  0  0  0  0
   58.3230   28.7970   45.7040 C   0  0  0  0  0  0  0  0  0  0  0  0
   58.4770   27.4260   45.9960 C   0  0  0  0  0  0  0  0  0  0  0  0
   58.2310   26.4590   45.0260 C   0  0  0  0  0  0  0  0  0  0  0  0
   57.8490   26.8350   43.7430 C   0  0  0  0  0  0  0  0  0  0  0  0
   57.7070   28.1830   43.4170 C   0  0  0  0  0  0  0  0  0  0  0  0
   57.9280   29.1970   44.3820 C   0  0  0  0  0  0  0  0  0  0  0  0
   57.7950   30.5400   44.0650 N   0  0  0  0  0  0  0  0  0  0  0  0
   57.2880   30.9740   42.7490 C   0  0  0  0  0  0  0  0  0  0  0  0
   58.1690   31.4690   45.0010 C   0  0  0  0  0  0  0  0  0  0  0  0
   58.2260   32.8130   44.8240 N   0  0  0  0  0  0  0  0  0  0  0  0
   58.6320   33.3060   46.0090 C   0  0  0  0  0  0  0  0  0  0  0  0
   58.8480   34.6460   46.3220 C   0  0  0  0  0  0  0  0  0  0  0  0
   59.2770   34.9610   47.6200 C   0  0  0  0  0  0  0  0  0  0  0  0
   59.4840   33.9490   48.5840 C   0  0  0  0  0  0  0  0  0  0  0  0
   59.8980   34.3410   49.8680 O   0  0  0  0  0  0  0  0  0  0  0  0
   59.9640   33.4920   51.0130 C   0  0  0  0  0  0  0  0  0  0  0  0
   58.8890   33.8620   52.0280 C   0  0  0  0  0  0  0  0  0  0  0  0
   59.2610   32.5940   48.2340 C   0  0  0  0  0  0  0  0  0  0  0  0
   58.8360   32.3060   46.9350 C   0  0  0  0  0  0  0  0  0  0  0  0
   58.5510   31.1170   46.2810 C   0  0  0  0  0  0  0  0  0  0  0  0
   55.8837   31.3536   52.7365 H   0  0  0  0  0  0  0  0  0  0  0  0
   56.3655   32.1328   51.1914 H   0  0  0  0  0  0  0  0  0  0  0  0
   55.7405   30.4487   51.1914 H   0  0  0  0  0  0  0  0  0  0  0  0
   58.4515   31.5057   52.0281 H   0  0  0  0  0  0  0  0  0  0  0  0
   57.8016   30.0310   52.8287 H   0  0  0  0  0  0  0  0  0  0  0  0
   58.1240   30.4850   49.9230 H   0  0  0  0  0  0  0  0  0  0  0  0
   59.8613   29.4896   51.9206 H   0  0  0  0  0  0  0  0  0  0  0  0
   59.5005   28.2489   50.6640 H   0  0  0  0  0  0  0  0  0  0  0  0
   60.1960   31.1065   49.8879 H   0  0  0  0  0  0  0  0  0  0  0  0
   61.4827   29.8788   50.2621 H   0  0  0  0  0  0  0  0  0  0  0  0
   60.9320   30.1075   47.8079 H   0  0  0  0  0  0  0  0  0  0  0  0
   60.7369   28.4434   48.4960 H   0  0  0  0  0  0  0  0  0  0  0  0
   58.1950   29.1920   48.7000 H   0  0  0  0  0  0  0  0  0  0  0  0
   58.7954   27.1172   47.0026 H   0  0  0  0  0  0  0  0  0  0  0  0
   58.3392   25.3931   45.2752 H   0  0  0  0  0  0  0  0  0  0  0  0
   57.6578   26.0648   42.9813 H   0  0  0  0  0  0  0  0  0  0  0  0
   57.4185   28.4643   42.3934 H   0  0  0  0  0  0  0  0  0  0  0  0
   56.4593   31.6833   42.8911 H   0  0  0  0  0  0  0  0  0  0  0  0
   58.0974   31.4634   42.1874 H   0  0  0  0  0  0  0  0  0  0  0  0
   56.9293   30.0988   42.1874 H   0  0  0  0  0  0  0  0  0  0  0  0
   58.0420   33.3740   43.9640 H   0  0  0  0  0  0  0  0  0  0  0  0
   58.6868   35.4349   45.5726 H   0  0  0  0  0  0  0  0  0  0  0  0
   59.4550   36.0120   47.8914 H   0  0  0  0  0  0  0  0  0  0  0  0
   59.8167   32.4488   50.6967 H   0  0  0  0  0  0  0  0  0  0  0  0
   60.9499   33.6151   51.4851 H   0  0  0  0  0  0  0  0  0  0  0  0
   59.2835   33.7262   53.0458 H   0  0  0  0  0  0  0  0  0  0  0  0
   58.5961   34.9127   51.8854 H   0  0  0  0  0  0  0  0  0  0  0  0
   58.0115   33.2142   51.8854 H   0  0  0  0  0  0  0  0  0  0  0  0
   59.4187   31.7891   48.9670 H   0  0  0  0  0  0  0  0  0  0  0  0
  1  2  1  0
  2  3  1  0
  3  4  1  0
  4  5  1  0
  5  6  1  0
  6  7  1  0
  7  8  1  0
  8  9  2  0
  9 10  1  0
 10 11  2  0
 11 12  1  0
 12 13  2  0
 13 14  1  0
 14 15  2  0
 15 16  1  0
 15 17  1  0
 17 18  1  0
 18 19  1  0
 19 20  2  0
 20 21  1  0
 21 22  2  0
 22 23  1  0
 23 24  1  0
 24 25  1  0
 22 26  1  0
 26 27  2  0
 27 28  1  0
 28  8  1  0
 14  9  1  0
 28 17  2  0
 27 19  1  0
  1 29  1  0
  1 30  1  0
  1 31  1  0
  2 32  1  0
  2 33  1  0
  3 34  1  0
  4 35  1  0
  4 36  1  0
  5 37  1  0
  5 38  1  0
  6 39  1  0
  6 40  1  0
  7 41  1  0
 10 42  1  0
 11 43  1  0
 12 44  1  0
 13 45  1  0
 16 46  1  0
 16 47  1  0
 16 48  1  0
 18 49  1  0
 20 50  1  0
 21 51  1  0
 24 52  1  0
 24 53  1  0
 25 54  1  0
 25 55  1  0
 25 56  1  0
 26 57  1  0
M  CHG  1  15   1
M  END
>  <UniqueID>  (8) 
8

>  <SMILES>  (8) 
CCNCCCNc1c2ccccc2[n+](C)c2[nH]c3ccc(OCC)cc3c12

>  <Energy>  (8) 
107.26268238209377

>  <Genealogy>  (8) 
CCNCCCNc1c2ccccc2[n+](C)c2[nH]c3ccc(OCC)cc3c12 (3D coordinates assigned)
CCNCCCNc1c2ccccc2[n+](C)c2[nH]c3ccc(OCC)cc3c12 (optimized conformer: 107.26268238209377 kcal/mol)

>  <smiles>  (8) 
CCNCCCNc1c2ccccc2[n+](C)c2[nH]c3ccc(OCC)cc3c12

>  <score_type>  (8) 
oracle

>  <origin>  (8) 
adg

>  <m_score__min__energy>  (8) 
-5.8499999999999996

>  <m_primary>  (8) 
energy

$$$$
8:0
     RDKit          3D

 47 48  0  0  0  0  0  0  0  0999 V2000
   63.7520   33.9910   47.6040 C   0  0  0  0  0  0  0  0  0  0  0  0
   63.5100   32.7210   46.8040 C   0  0  0  0  0  0  0  0  0  0  0  0
   62.8810   31.7650   47.6330 O   0  0  0  0  0  0  0  0  0  0  0  0
   63.4080   31.8210   48.9450 C   0  0  0  0  0  0  0  0  0  0  0  0
   62.2940   31.6840   49.9860 C   0  0  0  0  0  0  0  0  0  0  0  0
   61.0260   31.8300   49.3690 O   0  0  0  0  0  0  0  0  0  0  0  0
   60.0140   31.1510   50.0900 C   0  0  0  0  0  0  0  0  0  0  0  0
   60.1040   29.6350   49.8800 C   0  0  0  0  0  0  0  0  0  0  0  0
   59.8380   29.2450   48.4210 C   0  0  0  0  0  0  0  0  0  0  0  0
   60.2270   30.3300   47.5180 N   0  0  0  0  0  0  0  0  0  0  0  0
   59.2960   31.0290   46.6690 C   0  0  0  0  0  0  0  0  0  0  0  0
   58.2700   30.3170   46.0220 C   0  0  0  0  0  0  0  0  0  0  0  0
   57.3770   30.9640   45.1500 C   0  0  0  0  0  0  0  0  0  0  0  0
   56.3430   30.2830   44.4910 O   0  0  0  0  0  0  0  0  0  0  0  0
   56.4150   29.8130   43.1480 C   0  0  0  0  0  0  0  0  0  0  0  0
   57.5140   32.3340   44.9210 C   0  0  0  0  0  0  0  0  0  0  0  0
   58.5230   33.0660   45.5590 C   0  0  0  0  0  0  0  0  0  0  0  0
   58.6480   34.4430   45.3360 C   0  0  0  0  0  0  0  0  0  0  0  0
   59.6390   35.1660   45.9950 C   0  0  0  0  0  0  0  0  0  0  0  0
   60.4910   34.5110   46.8810 C   0  0  0  0  0  0  0  0  0  0  0  0
   60.3680   33.1720   47.0940 N   0  0  0  0  0  0  0  0  0  0  0  0
   59.4200   32.4230   46.4470 C   0  0  0  0  0  0  0  0  0  0  0  0
   63.7082   33.7612   48.6788 H   0  0  0  0  0  0  0  0  0  0  0  0
   64.7437   34.3972   47.3560 H   0  0  0  0  0  0  0  0  0  0  0  0
   62.9792   34.7334   47.3560 H   0  0  0  0  0  0  0  0  0  0  0  0
   62.8624   32.9454   45.9436 H   0  0  0  0  0  0  0  0  0  0  0  0
   64.4692   32.3231   46.4413 H   0  0  0  0  0  0  0  0  0  0  0  0
   64.1292   31.0013   49.0790 H   0  0  0  0  0  0  0  0  0  0  0  0
   63.9025   32.7936   49.0845 H   0  0  0  0  0  0  0  0  0  0  0  0
   62.3568   30.6918   50.4568 H   0  0  0  0  0  0  0  0  0  0  0  0
   62.4153   32.4693   50.7467 H   0  0  0  0  0  0  0  0  0  0  0  0
   60.1275   31.3719   51.1616 H   0  0  0  0  0  0  0  0  0  0  0  0
   59.0355   31.4953   49.7239 H   0  0  0  0  0  0  0  0  0  0  0  0
   61.1120   29.2959   50.1610 H   0  0  0  0  0  0  0  0  0  0  0  0
   59.3368   29.1570   50.5068 H   0  0  0  0  0  0  0  0  0  0  0  0
   60.4201   28.3444   48.1757 H   0  0  0  0  0  0  0  0  0  0  0  0
   58.7628   29.0489   48.2969 H   0  0  0  0  0  0  0  0  0  0  0  0
   61.2340   30.6070   47.5060 H   0  0  0  0  0  0  0  0  0  0  0  0
   58.1646   29.2368   46.2011 H   0  0  0  0  0  0  0  0  0  0  0  0
   56.5816   28.7257   43.1485 H   0  0  0  0  0  0  0  0  0  0  0  0
   55.4717   30.0392   42.6293 H   0  0  0  0  0  0  0  0  0  0  0  0
   57.2473   30.3112   42.6293 H   0  0  0  0  0  0  0  0  0  0  0  0
   56.8231   32.8433   44.2331 H   0  0  0  0  0  0  0  0  0  0  0  0
   57.9643   34.9527   44.6412 H   0  0  0  0  0  0  0  0  0  0  0  0
   59.7481   36.2460   45.8172 H   0  0  0  0  0  0  0  0  0  0  0  0
   61.2686   35.0795   47.4123 H   0  0  0  0  0  0  0  0  0  0  0  0
   61.0170   32.7430   47.7900 H   0  0  0  0  0  0  0  0  0  0  0  0
  1  2  1  0
  2  3  1  0
  3  4  1  0
  4  5  1  0
  5  6  1  0
  6  7  1  0
  7  8  1  0
  8  9  1  0
  9 10  1  0
 10 11  1  0
 11 12  2  0
 12 13  1  0
 13 14  1  0
 14 15  1  0
 13 16  2  0
 16 17  1  0
 17 18  2  0
 18 19  1  0
 19 20  2  0
 20 21  1  0
 21 22  2  0
 22 11  1  0
 22 17  1  0
  1 23  1  0
  1 24  1  0
  1 25  1  0
  2 26  1  0
  2 27  1  0
  4 28  1  0
  4 29  1  0
  5 30  1  0
  5 31  1  0
  7 32  1  0
  7 33  1  0
  8 34  1  0
  8 35  1  0
  9 36  1  0
  9 37  1  0
 10 38  1  0
 12 39  1  0
 15 40  1  0
 15 41  1  0
 15 42  1  0
 16 43  1  0
 18 44  1  0
 19 45  1  0
 20 46  1  0
 21 47  1  0
M  CHG  1  21   1
M  END
>  <UniqueID>  (9) 
9

>  <SMILES>  (9) 
CCOCCOCCCNc1cc(OC)cc2ccc[nH+]c12

>  <Energy>  (9) 
49.05035478309162

>  <Genealogy>  (9) 
CCOCCOCCCNc1cc(OC)cc2ccc[nH+]c12 (protonated)
CCOCCOCCCNc1cc(OC)cc2ccc[nH+]c12 (3D coordinates assigned)
CCOCCOCCCNc1cc(OC)cc2ccc[nH+]c12 (optimized conformer: 49.05035478309162 kcal/mol)

>  <smiles>  (9) 
CCOCCOCCCNc1cc(OC)cc2cccnc12

>  <score_type>  (9) 
oracle

>  <origin>  (9) 
adg

>  <m_score__min__energy>  (9) 
-3.7799999999999998

>  <m_primary>  (9) 
energy

$$$$
9:0
     RDKit          3D

 59 61  0  0  0  0  0  0  0  0999 V2000
   59.7030   34.9440   46.3670 C   0  0  0  0  0  0  0  0  0  0  0  0
   58.5060   34.2530   47.0060 C   0  0  0  0  0  0  0  0  0  0  0  0
   58.0400   33.2390   46.1400 O   0  0  0  0  0  0  0  0  0  0  0  0
   57.4930   33.8040   44.9640 C   0  0  0  0  0  0  0  0  0  0  0  0
   58.0540   33.0840   43.7270 C   0  0  0  0  0  0  0  0  0  0  0  0
   58.2640   31.6450   43.9550 N   0  0  0  0  0  0  0  0  0  0  0  0
   57.0490   30.8570   43.7120 C   0  0  0  0  0  0  0  0  0  0  0  0
   56.9560   29.7290   44.7520 C   0  0  0  0  0  0  0  0  0  0  0  0
   57.5070   30.1260   46.0590 N   0  0  0  0  0  0  0  0  0  0  0  0
   58.5250   29.1910   46.5630 C   0  0  0  0  0  0  0  0  0  0  0  0
   59.5800   29.9210   47.4080 C   0  0  0  0  0  0  0  0  0  0  0  0
   59.3490   31.3750   47.4230 N   0  0  0  0  0  0  0  0  0  0  0  0
   60.0830   31.9950   48.5170 C   0  0  0  0  0  0  0  0  0  0  0  0
   61.4170   32.4460   48.3310 C   0  0  0  0  0  0  0  0  0  0  0  0
   62.1270   32.2000   47.1290 C   0  0  0  0  0  0  0  0  0  0  0  0
   63.3970   32.7300   46.9210 C   0  0  0  0  0  0  0  0  0  0  0  0
   63.9900   33.5170   47.8970 C   0  0  0  0  0  0  0  0  0  0  0  0
   63.3400   33.7330   49.1080 C   0  0  0  0  0  0  0  0  0  0  0  0
   62.0700   33.1590   49.3760 C   0  0  0  0  0  0  0  0  0  0  0  0
   61.4700   33.2930   50.6130 N   0  0  0  0  0  0  0  0  0  0  0  0
   62.2670   33.7630   51.7710 C   0  0  0  0  0  0  0  0  0  0  0  0
   60.1480   32.9350   50.7870 C   0  0  0  0  0  0  0  0  0  0  0  0
   59.4400   33.2830   51.9670 C   0  0  0  0  0  0  0  0  0  0  0  0
   58.1420   32.8340   52.1890 C   0  0  0  0  0  0  0  0  0  0  0  0
   57.5120   32.0350   51.2470 C   0  0  0  0  0  0  0  0  0  0  0  0
   58.1540   31.7260   50.0520 C   0  0  0  0  0  0  0  0  0  0  0  0
   59.4570   32.2130   49.7740 C   0  0  0  0  0  0  0  0  0  0  0  0
   60.3682   35.3280   47.1545 H   0  0  0  0  0  0  0  0  0  0  0  0
   60.2518   34.2238   45.7425 H   0  0  0  0  0  0  0  0  0  0  0  0
   59.3537   35.7794   45.7425 H   0  0  0  0  0  0  0  0  0  0  0  0
   58.8070   33.8078   47.9658 H   0  0  0  0  0  0  0  0  0  0  0  0
   57.7054   34.9866   47.1817 H   0  0  0  0  0  0  0  0  0  0  0  0
   56.3984   33.6969   44.9831 H   0  0  0  0  0  0  0  0  0  0  0  0
   57.7619   34.8695   44.9155 H   0  0  0  0  0  0  0  0  0  0  0  0
   57.3451   33.2089   42.8952 H   0  0  0  0  0  0  0  0  0  0  0  0
   59.0326   33.5307   43.4974 H   0  0  0  0  0  0  0  0  0  0  0  0
   58.5830   31.4890   44.9410 H   0  0  0  0  0  0  0  0  0  0  0  0
   56.1663   31.5079   43.7966 H   0  0  0  0  0  0  0  0  0  0  0  0
   57.0880   30.4233   42.7019 H   0  0  0  0  0  0  0  0  0  0  0  0
   55.8988   29.4547   44.8825 H   0  0  0  0  0  0  0  0  0  0  0  0
   57.5489   28.8800   44.3810 H   0  0  0  0  0  0  0  0  0  0  0  0
   57.9250   31.0840   45.9930 H   0  0  0  0  0  0  0  0  0  0  0  0
   58.0343   28.4267   47.1836 H   0  0  0  0  0  0  0  0  0  0  0  0
   59.0285   28.7270   45.7021 H   0  0  0  0  0  0  0  0  0  0  0  0
   59.5364   29.5417   48.4396 H   0  0  0  0  0  0  0  0  0  0  0  0
   60.5682   29.7336   46.9628 H   0  0  0  0  0  0  0  0  0  0  0  0
   59.6080   31.7950   46.5040 H   0  0  0  0  0  0  0  0  0  0  0  0
   58.3310   31.5910   47.4960 H   0  0  0  0  0  0  0  0  0  0  0  0
   61.6660   31.5791   46.3467 H   0  0  0  0  0  0  0  0  0  0  0  0
   63.9310   32.5245   45.9815 H   0  0  0  0  0  0  0  0  0  0  0  0
   64.9751   33.9708   47.7135 H   0  0  0  0  0  0  0  0  0  0  0  0
   63.8199   34.3611   49.8729 H   0  0  0  0  0  0  0  0  0  0  0  0
   61.7662   33.4677   52.7048 H   0  0  0  0  0  0  0  0  0  0  0  0
   63.2693   33.3114   51.7338 H   0  0  0  0  0  0  0  0  0  0  0  0
   62.3569   34.8587   51.7338 H   0  0  0  0  0  0  0  0  0  0  0  0
   59.9268   33.9198   52.7203 H   0  0  0  0  0  0  0  0  0  0  0  0
   57.6148   33.1133   53.1131 H   0  0  0  0  0  0  0  0  0  0  0  0
   56.5028   31.6447   51.4449 H   0  0  0  0  0  0  0  0  0  0  0  0
   57.6430   31.0939   49.3109 H   0  0  0  0  0  0  0  0  0  0  0  0
  1  2  1  0
  2  3  1  0
  3  4  1  0
  4  5  1  0
  5  6  1  0
  6  7  1  0
  7  8  1  0
  8  9  1  0
  9 10  1  0
 10 11  1  0
 11 12  1  0
 12 13  1  0
 13 14  2  0
 14 15  1  0
 15 16  2  0
 16 17  1  0
 17 18  2  0
 18 19  1  0
 19 20  2  0
 20 21  1  0
 20 22  1  0
 22 23  2  0
 23 24  1  0
 24 25  2  0
 25 26  1  0
 26 27  2  0
 27 13  1  0
 19 14  1  0
 27 22  1  0
  1 28  1  0
  1 29  1  0
  1 30  1  0
  2 31  1  0
  2 32  1  0
  4 33  1  0
  4 34  1  0
  5 35  1  0
  5 36  1  0
  6 37  1  0
  7 38  1  0
  7 39  1  0
  8 40  1  0
  8 41  1  0
  9 42  1  0
 10 43  1  0
 10 44  1  0
 11 45  1  0
 11 46  1  0
 12 47  1  0
 12 48  1  0
 15 49  1  0
 16 50  1  0
 17 51  1  0
 18 52  1  0
 21 53  1  0
 21 54  1  0
 21 55  1  0
 23 56  1  0
 24 57  1  0
 25 58  1  0
 26 59  1  0
M  CHG  2  12   1  20   1
M  END
>  <UniqueID>  (10) 
10

>  <SMILES>  (10) 
CCOCCNCCNCC[NH2+]c1c2ccccc2[n+](C)c2ccccc12

>  <Energy>  (10) 
84.36166272733837

>  <Genealogy>  (10) 
CCOCCNCCNCC[NH2+]c1c2ccccc2[n+](C)c2ccccc12 (protonated)
CCOCCNCCNCC[NH2+]c1c2ccccc2[n+](C)c2ccccc12 (3D coordinates assigned)
CCOCCNCCNCC[NH2+]c1c2ccccc2[n+](C)c2ccccc12 (optimized conformer: 84.36166272733837 kcal/mol)

>  <smiles>  (10) 
CCOCCNCCNCCNc1c2ccccc2[n+](C)c2ccccc12

>  <score_type>  (10) 
oracle

>  <origin>  (10) 
adg

>  <m_score__min__energy>  (10) 
-3.8100000000000001

>  <m_primary>  (10) 
energy

$$$$
10:0
     RDKit          3D

 31 32  0  0  0  0  0  0  0  0999 V2000
   56.6540   30.5950   42.8640 C   0  0  0  0  0  0  0  0  0  0  0  0
   55.5600   29.7130   43.4600 C   0  0  0  0  0  0  0  0  0  0  0  0
   55.7590   29.5470   44.8500 O   0  0  0  0  0  0  0  0  0  0  0  0
   56.9180   28.7800   45.1270 C   0  0  0  0  0  0  0  0  0  0  0  0
   58.0640   29.6970   45.5600 C   0  0  0  0  0  0  0  0  0  0  0  0
   57.5680   30.9360   46.0700 O   0  0  0  0  0  0  0  0  0  0  0  0
   58.1190   32.2070   45.8220 C   0  0  0  0  0  0  0  0  0  0  0  0
   57.4060   33.2130   45.1430 C   0  0  0  0  0  0  0  0  0  0  0  0
   57.9990   34.4560   44.9210 C   0  0  0  0  0  0  0  0  0  0  0  0
   59.2600   34.7030   45.3580 N   0  0  0  0  0  0  0  0  0  0  0  0
   59.9840   33.7600   46.0180 C   0  0  0  0  0  0  0  0  0  0  0  0
   61.2830   34.0560   46.4480 C   0  0  0  0  0  0  0  0  0  0  0  0
   62.0340   33.0900   47.1250 C   0  0  0  0  0  0  0  0  0  0  0  0
   63.6620   33.4630   47.6610 Cl  0  0  0  0  0  0  0  0  0  0  0  0
   61.4910   31.8250   47.3730 C   0  0  0  0  0  0  0  0  0  0  0  0
   60.1940   31.5200   46.9480 C   0  0  0  0  0  0  0  0  0  0  0  0
   59.4260   32.4840   46.2680 C   0  0  0  0  0  0  0  0  0  0  0  0
   57.2320   31.0610   43.6756 H   0  0  0  0  0  0  0  0  0  0  0  0
   57.3229   29.9806   42.2434 H   0  0  0  0  0  0  0  0  0  0  0  0
   56.1955   31.3790   42.2434 H   0  0  0  0  0  0  0  0  0  0  0  0
   54.5813   30.1848   43.2884 H   0  0  0  0  0  0  0  0  0  0  0  0
   55.5959   28.7261   42.9755 H   0  0  0  0  0  0  0  0  0  0  0  0
   56.6977   28.0666   45.9348 H   0  0  0  0  0  0  0  0  0  0  0  0
   57.2156   28.2361   44.2184 H   0  0  0  0  0  0  0  0  0  0  0  0
   58.6493   29.1945   46.3442 H   0  0  0  0  0  0  0  0  0  0  0  0
   58.6930   29.9076   44.6825 H   0  0  0  0  0  0  0  0  0  0  0  0
   56.3830   33.0193   44.7881 H   0  0  0  0  0  0  0  0  0  0  0  0
   57.4413   35.2406   44.3886 H   0  0  0  0  0  0  0  0  0  0  0  0
   61.7133   35.0494   46.2531 H   0  0  0  0  0  0  0  0  0  0  0  0
   62.0861   31.0675   47.9041 H   0  0  0  0  0  0  0  0  0  0  0  0
   59.7725   30.5234   47.1458 H   0  0  0  0  0  0  0  0  0  0  0  0
  1  2  1  0
  2  3  1  0
  3  4  1  0
  4  5  1  0
  5  6  1  0
  6  7  1  0
  7  8  2  0
  8  9  1  0
  9 10  2  0
 10 11  1  0
 11 12  2  0
 12 13  1  0
 13 14  1  0
 13 15  2  0
 15 16  1  0
 16 17  2  0
 17  7  1  0
 17 11  1  0
  1 18  1  0
  1 19  1  0
  1 20  1  0
  2 21  1  0
  2 22  1  0
  4 23  1  0
  4 24  1  0
  5 25  1  0
  5 26  1  0
  8 27  1  0
  9 28  1  0
 12 29  1  0
 15 30  1  0
 16 31  1  0
M  END
>  <UniqueID>  (11) 
11

>  <SMILES>  (11) 
CCOCCOc1ccnc2cc(Cl)ccc12

>  <Energy>  (11) 
34.041434952657866

>  <Genealogy>  (11) 
CCOCCOc1ccnc2cc(Cl)ccc12 (3D coordinates assigned)
CCOCCOc1ccnc2cc(Cl)ccc12 (optimized conformer: 34.041434952657866 kcal/mol)

>  <smiles>  (11) 
CCOCCOc1ccnc2cc(Cl)ccc12

>  <score_type>  (11) 
oracle

>  <origin>  (11) 
adg

>  <m_score__min__energy>  (11) 
-6.4699999999999998

>  <m_primary>  (11) 
energy

$$$$
11:0
     RDKit          3D

 70 73  0  0  0  0  0  0  0  0999 V2000
   63.1790   33.9870   46.3410 C   0  0  0  0  0  0  0  0  0  0  0  0
   62.4440   33.3140   47.4290 N   0  0  0  0  0  0  0  0  0  0  0  0
   63.1270   32.8670   48.5460 C   0  0  0  0  0  0  0  0  0  0  0  0
   64.5150   33.1230   48.7250 C   0  0  0  0  0  0  0  0  0  0  0  0
   65.2070   32.6260   49.8290 C   0  0  0  0  0  0  0  0  0  0  0  0
   64.5450   31.8730   50.7870 C   0  0  0  0  0  0  0  0  0  0  0  0
   63.1790   31.6490   50.6740 C   0  0  0  0  0  0  0  0  0  0  0  0
   62.4490   32.1570   49.5770 C   0  0  0  0  0  0  0  0  0  0  0  0
   61.0460   31.9880   49.4900 C   0  0  0  0  0  0  0  0  0  0  0  0
   60.2590   31.7840   50.7000 N   0  0  0  0  0  0  0  0  0  0  0  0
   59.8440   33.0720   51.2910 C   0  0  0  0  0  0  0  0  0  0  0  0
   58.3470   33.0610   51.6420 C   0  0  0  0  0  0  0  0  0  0  0  0
   57.6350   32.0430   50.8710 N   0  0  0  0  0  0  0  0  0  0  0  0
   60.4160   32.2510   48.2540 C   0  0  0  0  0  0  0  0  0  0  0  0
   59.1430   31.7080   47.9150 C   0  0  0  0  0  0  0  0  0  0  0  0
   58.6630   30.5600   48.5690 O   0  0  0  0  0  0  0  0  0  0  0  0
   59.3580   29.3130   48.5840 C   0  0  0  0  0  0  0  0  0  0  0  0
   58.6400   28.2350   47.7490 C   0  0  0  0  0  0  0  0  0  0  0  0
   59.4820   27.5480   46.7110 N   0  0  0  0  0  0  0  0  0  0  0  0
   60.7040   26.9930   47.3490 C   0  0  0  0  0  0  0  0  0  0  0  0
   59.8960   28.5720   45.6860 C   0  0  0  0  0  0  0  0  0  0  0  0
   59.6310   28.1430   44.2310 C   0  0  0  0  0  0  0  0  0  0  0  0
   58.2050   27.7610   43.9970 N   0  0  0  0  0  0  0  0  0  0  0  0
   58.1290   27.0580   42.6940 C   0  0  0  0  0  0  0  0  0  0  0  0
   57.3730   28.9890   43.9090 C   0  0  0  0  0  0  0  0  0  0  0  0
   57.6720   26.8670   45.0820 C   0  0  0  0  0  0  0  0  0  0  0  0
   58.7570   26.4100   46.0660 C   0  0  0  0  0  0  0  0  0  0  0  0
   58.4460   32.2290   46.8170 C   0  0  0  0  0  0  0  0  0  0  0  0
   59.0030   33.2390   46.0410 C   0  0  0  0  0  0  0  0  0  0  0  0
   60.3030   33.6630   46.2820 C   0  0  0  0  0  0  0  0  0  0  0  0
   61.0760   33.0880   47.3190 C   0  0  0  0  0  0  0  0  0  0  0  0
   63.9257   34.6707   46.7711 H   0  0  0  0  0  0  0  0  0  0  0  0
   63.6862   33.2336   45.7204 H   0  0  0  0  0  0  0  0  0  0  0  0
   62.4731   34.5584   45.7204 H   0  0  0  0  0  0  0  0  0  0  0  0
   65.0530   33.7249   47.9778 H   0  0  0  0  0  0  0  0  0  0  0  0
   66.2818   32.8320   49.9403 H   0  0  0  0  0  0  0  0  0  0  0  0
   65.1023   31.4527   51.6372 H   0  0  0  0  0  0  0  0  0  0  0  0
   62.6586   31.0679   51.4496 H   0  0  0  0  0  0  0  0  0  0  0  0
   60.7860   31.1920   51.3880 H   0  0  0  0  0  0  0  0  0  0  0  0
   59.3770   31.2950   50.4940 H   0  0  0  0  0  0  0  0  0  0  0  0
   60.4267   33.2520   52.2065 H   0  0  0  0  0  0  0  0  0  0  0  0
   60.0254   33.8695   50.5554 H   0  0  0  0  0  0  0  0  0  0  0  0
   58.2307   32.8465   52.7146 H   0  0  0  0  0  0  0  0  0  0  0  0
   57.9227   34.0460   51.3975 H   0  0  0  0  0  0  0  0  0  0  0  0
   56.6200   32.2930   50.8830 H   0  0  0  0  0  0  0  0  0  0  0  0
   57.9540   32.1090   49.8800 H   0  0  0  0  0  0  0  0  0  0  0  0
   60.3671   29.4651   48.1733 H   0  0  0  0  0  0  0  0  0  0  0  0
   59.3978   28.9617   49.6256 H   0  0  0  0  0  0  0  0  0  0  0  0
   58.2626   27.4673   48.4405 H   0  0  0  0  0  0  0  0  0  0  0  0
   57.8498   28.7619   47.1940 H   0  0  0  0  0  0  0  0  0  0  0  0
   60.6001   27.0402   48.4431 H   0  0  0  0  0  0  0  0  0  0  0  0
   60.8368   25.9462   47.0381 H   0  0  0  0  0  0  0  0  0  0  0  0
   61.5796   27.5818   47.0381 H   0  0  0  0  0  0  0  0  0  0  0  0
   59.3390   29.5005   45.8799 H   0  0  0  0  0  0  0  0  0  0  0  0
   60.9836   28.7021   45.7868 H   0  0  0  0  0  0  0  0  0  0  0  0
   59.8857   28.9802   43.5645 H   0  0  0  0  0  0  0  0  0  0  0  0
   60.2518   27.2585   44.0252 H   0  0  0  0  0  0  0  0  0  0  0  0
   58.0122   25.9779   42.8664 H   0  0  0  0  0  0  0  0  0  0  0  0
   57.2662   27.4338   42.1244 H   0  0  0  0  0  0  0  0  0  0  0  0
   59.0521   27.2407   42.1244 H   0  0  0  0  0  0  0  0  0  0  0  0
   57.1332   29.3429   44.9226 H   0  0  0  0  0  0  0  0  0  0  0  0
   57.9285   29.7704   43.3696 H   0  0  0  0  0  0  0  0  0  0  0  0
   56.4414   28.7628   43.3696 H   0  0  0  0  0  0  0  0  0  0  0  0
   56.8997   27.4157   45.6411 H   0  0  0  0  0  0  0  0  0  0  0  0
   57.2652   25.9669   44.5979 H   0  0  0  0  0  0  0  0  0  0  0  0
   58.2831   25.8056   46.8535 H   0  0  0  0  0  0  0  0  0  0  0  0
   59.4973   25.8327   45.4926 H   0  0  0  0  0  0  0  0  0  0  0  0
   57.4497   31.8356   46.5669 H   0  0  0  0  0  0  0  0  0  0  0  0
   58.4138   33.7023   45.2359 H   0  0  0  0  0  0  0  0  0  0  0  0
   60.7385   34.4573   45.6580 H   0  0  0  0  0  0  0  0  0  0  0  0
  1  2  1  0
  2  3  2  0
  3  4  1  0
  4  5  2  0
  5  6  1  0
  6  7  2  0
  7  8  1  0
  8  9  2  0
  9 10  1  0
 10 11  1  0
 11 12  1  0
 12 13  1  0
  9 14  1  0
 14 15  2  0
 15 16  1  0
 16 17  1  0
 17 18  1  0
 18 19  1  0
 19 20  1  0
 19 21  1  0
 21 22  1  0
 22 23  1  0
 23 24  1  0
 23 25  1  0
 23 26  1  0
 26 27  1  0
 15 28  1  0
 28 29  2  0
 29 30  1  0
 30 31  2  0
 31  2  1  0
  8  3  1  0
 31 14  1  0
 27 19  1  0
  1 32  1  0
  1 33  1  0
  1 34  1  0
  4 35  1  0
  5 36  1  0
  6 37  1  0
  7 38  1  0
 10 39  1  0
 10 40  1  0
 11 41  1  0
 11 42  1  0
 12 43  1  0
 12 44  1  0
 13 45  1  0
 13 46  1  0
 17 47  1  0
 17 48  1  0
 18 49  1  0
 18 50  1  0
 20 51  1  0
 20 52  1  0
 20 53  1  0
 21 54  1  0
 21 55  1  0
 22 56  1  0
 22 57  1  0
 24 58  1  0
 24 59  1  0
 24 60  1  0
 25 61  1  0
 25 62  1  0
 25 63  1  0
 26 64  1  0
 26 65  1  0
 27 66  1  0
 27 67  1  0
 28 68  1  0
 29 69  1  0
 30 70  1  0
M  CHG  4   2   1  10   1  19   1  23   1
M  END
>  <UniqueID>  (12) 
12

>  <SMILES>  (12) 
C[n+]1c2ccccc2c([NH2+]CCN)c2c(OCC[N+]3(C)CC[N+](C)(C)CC3)cccc21

>  <Energy>  (12) 
148.19197206629295

>  <Genealogy>  (12) 
C[n+]1c2ccccc2c([NH2+]CCN)c2c(OCC[N+]3(C)CC[N+](C)(C)CC3)cccc21 (protonated)
C[n+]1c2ccccc2c([NH2+]CCN)c2c(OCC[N+]3(C)CC[N+](C)(C)CC3)cccc21 (3D coordinates assigned)
C[n+]1c2ccccc2c([NH2+]CCN)c2c(OCC[N+]3(C)CC[N+](C)(C)CC3)cccc21 (nonaromatic ring conformer: 148.19197206629295 kcal/mol)

>  <smiles>  (12) 
C[n+]1c2ccccc2c(NCCN)c2c(OCC[N+]3(C)CC[N+](C)(C)CC3)cccc21

>  <score_type>  (12) 
oracle

>  <origin>  (12) 
adg

>  <m_score__min__energy>  (12) 
-1.4199999999999999

>  <m_primary>  (12) 
energy

$$$$
12:0
     RDKit          3D

 42 44  0  0  0  0  0  0  0  0999 V2000
   57.7580   34.0160   45.6790 C   0  0  0  0  0  0  0  0  0  0  0  0
   57.4990   32.8500   44.7870 C   0  0  0  0  0  0  0  0  0  0  0  0
   58.1060   32.6170   43.5690 C   0  0  0  0  0  0  0  0  0  0  0  0
   57.5880   31.4200   43.1170 C   0  0  0  0  0  0  0  0  0  0  0  0
   56.7020   31.0040   44.0930 C   0  0  0  0  0  0  0  0  0  0  0  0
   55.9290   29.7230   44.0880 C   0  0  0  0  0  0  0  0  0  0  0  0
   56.2630   28.9170   45.2600 N   0  0  0  0  0  0  0  0  0  0  0  0
   57.5860   28.5010   45.6260 C   0  0  0  0  0  0  0  0  0  0  0  0
   57.9650   27.3380   45.3310 O   0  0  0  0  0  0  0  0  0  0  0  0
   58.5200   29.4090   46.3140 C   0  0  0  0  0  0  0  0  0  0  0  0
   58.1350   30.4270   47.1660 C   0  0  0  0  0  0  0  0  0  0  0  0
   59.2920   31.0890   47.5300 C   0  0  0  0  0  0  0  0  0  0  0  0
   60.3380   30.4550   46.8720 C   0  0  0  0  0  0  0  0  0  0  0  0
   59.8620   29.4190   46.1410 N   0  0  0  0  0  0  0  0  0  0  0  0
   60.6370   28.5770   45.2270 C   0  0  0  0  0  0  0  0  0  0  0  0
   61.7740   30.9050   46.9020 C   0  0  0  0  0  0  0  0  0  0  0  0
   61.9090   32.4070   47.2100 C   0  0  0  0  0  0  0  0  0  0  0  0
   61.8540   32.7810   48.7070 C   0  0  0  0  0  0  0  0  0  0  0  0
   60.5320   32.3830   49.3910 C   0  0  0  0  0  0  0  0  0  0  0  0
   59.3330   32.3060   48.4220 C   0  0  0  0  0  0  0  0  0  0  0  0
   56.6670   31.8770   45.0730 O   0  0  0  0  0  0  0  0  0  0  0  0
   57.6871   33.6970   46.7293 H   0  0  0  0  0  0  0  0  0  0  0  0
   58.7658   34.4109   45.4829 H   0  0  0  0  0  0  0  0  0  0  0  0
   57.0122   34.8004   45.4829 H   0  0  0  0  0  0  0  0  0  0  0  0
   58.8480   33.2529   43.0639 H   0  0  0  0  0  0  0  0  0  0  0  0
   57.8300   30.9044   42.1759 H   0  0  0  0  0  0  0  0  0  0  0  0
   54.8528   29.9500   44.1000 H   0  0  0  0  0  0  0  0  0  0  0  0
   56.1878   29.1558   43.1817 H   0  0  0  0  0  0  0  0  0  0  0  0
   57.1107   30.6633   47.4900 H   0  0  0  0  0  0  0  0  0  0  0  0
   61.2693   27.8900   45.8085 H   0  0  0  0  0  0  0  0  0  0  0  0
   59.9510   27.9961   44.5930 H   0  0  0  0  0  0  0  0  0  0  0  0
   61.2727   29.2125   44.5930 H   0  0  0  0  0  0  0  0  0  0  0  0
   62.3071   30.3355   47.6776 H   0  0  0  0  0  0  0  0  0  0  0  0
   62.2038   30.7258   45.9054 H   0  0  0  0  0  0  0  0  0  0  0  0
   62.8739   32.7508   46.8090 H   0  0  0  0  0  0  0  0  0  0  0  0
   61.0395   32.8927   46.7429 H   0  0  0  0  0  0  0  0  0  0  0  0
   62.6807   32.2717   49.2239 H   0  0  0  0  0  0  0  0  0  0  0  0
   61.9345   33.8762   48.7704 H   0  0  0  0  0  0  0  0  0  0  0  0
   60.6656   31.3960   49.8579 H   0  0  0  0  0  0  0  0  0  0  0  0
   60.3014   33.1668   50.1275 H   0  0  0  0  0  0  0  0  0  0  0  0
   58.4114   32.3166   49.0225 H   0  0  0  0  0  0  0  0  0  0  0  0
   59.4349   33.1695   47.7482 H   0  0  0  0  0  0  0  0  0  0  0  0
  1  2  1  0
  2  3  2  0
  3  4  1  0
  4  5  2  0
  5  6  1  0
  6  7  1  0
  7  8  1  0
  8  9  2  0
  8 10  1  0
 10 11  2  0
 11 12  1  0
 12 13  2  0
 13 14  1  0
 14 15  1  0
 13 16  1  0
 16 17  1  0
 17 18  1  0
 18 19  1  0
 19 20  1  0
  5 21  1  0
 21  2  1  0
 14 10  1  0
 20 12  1  0
  1 22  1  0
  1 23  1  0
  1 24  1  0
  3 25  1  0
  4 26  1  0
  6 27  1  0
  6 28  1  0
 11 29  1  0
 15 30  1  0
 15 31  1  0
 15 32  1  0
 16 33  1  0
 16 34  1  0
 17 35  1  0
 17 36  1  0
 18 37  1  0
 18 38  1  0
 19 39  1  0
 19 40  1  0
 20 41  1  0
 20 42  1  0
M  CHG  1   7  -1
M  END
>  <UniqueID>  (13) 
13

>  <SMILES>  (13) 
Cc1ccc(C[N-]C(=O)c2cc3c(n2C)CCCCC3)o1

>  <Energy>  (13) 
97.71186849680511

>  <Genealogy>  (13) 
Cc1ccc(C[N-]C(=O)c2cc3c(n2C)CCCCC3)o1 (protonated)
Cc1ccc(C[N-]C(=O)c2cc3c(n2C)CCCCC3)o1 (3D coordinates assigned)
Cc1ccc(C[N-]C(=O)c2cc3c(n2C)CCCCC3)o1 (nonaromatic ring conformer: 97.71186849680511 kcal/mol)

>  <smiles>  (13) 
Cc1ccc(CNC(=O)c2cc3c(n2C)CCCCC3)o1

>  <score_type>  (13) 
oracle

>  <origin>  (13) 
adg

>  <m_score__min__energy>  (13) 
-7.71

>  <m_primary>  (13) 
energy

$$$$
13:0
     RDKit          3D

 70 72  0  0  0  0  0  0  0  0999 V2000
   63.1370   32.9850   47.4980 C   0  0  0  0  0  0  0  0  0  0  0  0
   62.6410   32.6290   48.8990 C   0  0  0  0  0  0  0  0  0  0  0  0
   61.3940   33.4480   49.3200 C   0  0  0  0  0  0  0  0  0  0  0  0
   60.7900   33.0000   50.6010 N   0  0  0  0  0  0  0  0  0  0  0  0
   61.7610   32.6480   51.6790 C   0  0  0  0  0  0  0  0  0  0  0  0
   61.7340   31.1830   52.1760 C   0  0  0  0  0  0  0  0  0  0  0  0
   62.5180   30.2320   51.2680 C   0  0  0  0  0  0  0  0  0  0  0  0
   59.6560   33.8500   51.0690 C   0  0  0  0  0  0  0  0  0  0  0  0
   58.6890   33.2200   52.1140 C   0  0  0  0  0  0  0  0  0  0  0  0
   57.8570   31.9870   51.6700 C   0  0  0  0  0  0  0  0  0  0  0  0
   58.6060   30.9220   50.9780 N   0  0  0  0  0  0  0  0  0  0  0  0
   58.5420   30.9770   49.5100 C   0  0  0  0  0  0  0  0  0  0  0  0
   58.9710   29.6420   48.8820 C   0  0  0  0  0  0  0  0  0  0  0  0
   60.4740   29.6160   48.5720 C   0  0  0  0  0  0  0  0  0  0  0  0
   60.7630   30.3120   47.3170 N   0  0  0  0  0  0  0  0  0  0  0  0
   59.7810   30.4580   46.2750 C   0  0  0  0  0  0  0  0  0  0  0  0
   59.2830   29.3300   45.5990 C   0  0  0  0  0  0  0  0  0  0  0  0
   59.8020   28.0420   45.8560 C   0  0  0  0  0  0  0  0  0  0  0  0
   59.2530   26.9180   45.2450 C   0  0  0  0  0  0  0  0  0  0  0  0
   58.1820   27.0560   44.3690 C   0  0  0  0  0  0  0  0  0  0  0  0
   57.6840   28.3220   44.0640 C   0  0  0  0  0  0  0  0  0  0  0  0
   58.2560   29.4910   44.6300 C   0  0  0  0  0  0  0  0  0  0  0  0
   57.8360   30.7590   44.2650 N   0  0  0  0  0  0  0  0  0  0  0  0
   56.9810   30.9370   43.0690 C   0  0  0  0  0  0  0  0  0  0  0  0
   58.2490   31.8620   44.9900 C   0  0  0  0  0  0  0  0  0  0  0  0
   57.6670   33.1430   44.7990 C   0  0  0  0  0  0  0  0  0  0  0  0
   58.1360   34.2580   45.4920 C   0  0  0  0  0  0  0  0  0  0  0  0
   59.1780   34.1290   46.4020 C   0  0  0  0  0  0  0  0  0  0  0  0
   59.7380   32.8790   46.6470 C   0  0  0  0  0  0  0  0  0  0  0  0
   59.2680   31.7310   45.9720 C   0  0  0  0  0  0  0  0  0  0  0  0
   64.0284   33.6248   47.5762 H   0  0  0  0  0  0  0  0  0  0  0  0
   63.3935   32.0636   46.9547 H   0  0  0  0  0  0  0  0  0  0  0  0
   62.3461   33.5229   46.9547 H   0  0  0  0  0  0  0  0  0  0  0  0
   62.3829   31.5599   48.9195 H   0  0  0  0  0  0  0  0  0  0  0  0
   63.4485   32.8670   49.6070 H   0  0  0  0  0  0  0  0  0  0  0  0
   61.6902   34.5021   49.4256 H   0  0  0  0  0  0  0  0  0  0  0  0
   60.6344   33.3019   48.5379 H   0  0  0  0  0  0  0  0  0  0  0  0
   60.3320   32.0840   50.3740 H   0  0  0  0  0  0  0  0  0  0  0  0
   62.7725   32.8542   51.2990 H   0  0  0  0  0  0  0  0  0  0  0  0
   61.4683   33.2570   52.5470 H   0  0  0  0  0  0  0  0  0  0  0  0
   62.1718   31.1462   53.1845 H   0  0  0  0  0  0  0  0  0  0  0  0
   60.6848   30.8525   52.1732 H   0  0  0  0  0  0  0  0  0  0  0  0
   63.0971   29.5296   51.8855 H   0  0  0  0  0  0  0  0  0  0  0  0
   61.8171   29.6702   50.6330 H   0  0  0  0  0  0  0  0  0  0  0  0
   63.2032   30.8129   50.6330 H   0  0  0  0  0  0  0  0  0  0  0  0
   60.0845   34.7583   51.5178 H   0  0  0  0  0  0  0  0  0  0  0  0
   59.0391   34.0233   50.1749 H   0  0  0  0  0  0  0  0  0  0  0  0
   59.2941   32.9143   52.9803 H   0  0  0  0  0  0  0  0  0  0  0  0
   57.9433   34.0037   52.3132 H   0  0  0  0  0  0  0  0  0  0  0  0
   57.3987   31.5480   52.5685 H   0  0  0  0  0  0  0  0  0  0  0  0
   57.1303   32.3659   50.9362 H   0  0  0  0  0  0  0  0  0  0  0  0
   58.3210   29.9790   51.3280 H   0  0  0  0  0  0  0  0  0  0  0  0
   57.5093   31.2012   49.2045 H   0  0  0  0  0  0  0  0  0  0  0  0
   59.2300   31.7615   49.1617 H   0  0  0  0  0  0  0  0  0  0  0  0
   58.7377   28.8272   49.5832 H   0  0  0  0  0  0  0  0  0  0  0  0
   58.4241   29.5173   47.9358 H   0  0  0  0  0  0  0  0  0  0  0  0
   61.0187   30.1092   49.3905 H   0  0  0  0  0  0  0  0  0  0  0  0
   60.7933   28.5680   48.4731 H   0  0  0  0  0  0  0  0  0  0  0  0
   61.6840   30.7950   47.2080 H   0  0  0  0  0  0  0  0  0  0  0  0
   60.6499   27.9255   46.5470 H   0  0  0  0  0  0  0  0  0  0  0  0
   59.6665   25.9206   45.4552 H   0  0  0  0  0  0  0  0  0  0  0  0
   57.7263   26.1636   43.9153 H   0  0  0  0  0  0  0  0  0  0  0  0
   56.8334   28.4164   43.3730 H   0  0  0  0  0  0  0  0  0  0  0  0
   55.9493   31.1518   43.3845 H   0  0  0  0  0  0  0  0  0  0  0  0
   57.3624   31.7750   42.4671 H   0  0  0  0  0  0  0  0  0  0  0  0
   56.9962   30.0164   42.4671 H   0  0  0  0  0  0  0  0  0  0  0  0
   56.8319   33.2575   44.0922 H   0  0  0  0  0  0  0  0  0  0  0  0
   57.6795   35.2435   45.3177 H   0  0  0  0  0  0  0  0  0  0  0  0
   59.5605   35.0155   46.9290 H   0  0  0  0  0  0  0  0  0  0  0  0
   60.5568   32.7838   47.3754 H   0  0  0  0  0  0  0  0  0  0  0  0
  1  2  1  0
  2  3  1  0
  3  4  1  0
  4  5  1  0
  5  6  1  0
  6  7  1  0
  4  8  1  0
  8  9  1  0
  9 10  1  0
 10 11  1  0
 11 12  1  0
 12 13  1  0
 13 14  1  0
 14 15  1  0
 15 16  1  0
 16 17  2  0
 17 18  1  0
 18 19  2  0
 19 20  1  0
 20 21  2  0
 21 22  1  0
 22 23  2  0
 23 24  1  0
 23 25  1  0
 25 26  2  0
 26 27  1  0
 27 28  2  0
 28 29  1  0
 29 30  2  0
 30 16  1  0
 22 17  1  0
 30 25  1  0
  1 31  1  0
  1 32  1  0
  1 33  1  0
  2 34  1  0
  2 35  1  0
  3 36  1  0
  3 37  1  0
  4 38  1  0
  5 39  1  0
  5 40  1  0
  6 41  1  0
  6 42  1  0
  7 43  1  0
  7 44  1  0
  7 45  1  0
  8 46  1  0
  8 47  1  0
  9 48  1  0
  9 49  1  0
 10 50  1  0
 10 51  1  0
 11 52  1  0
 12 53  1  0
 12 54  1  0
 13 55  1  0
 13 56  1  0
 14 57  1  0
 14 58  1  0
 15 59  1  0
 18 60  1  0
 19 61  1  0
 20 62  1  0
 21 63  1  0
 24 64  1  0
 24 65  1  0
 24 66  1  0
 26 67  1  0
 27 68  1  0
 28 69  1  0
 29 70  1  0
M  CHG  2   4   1  23   1
M  END
>  <UniqueID>  (14) 
14

>  <SMILES>  (14) 
CCC[NH+](CCC)CCCNCCCNc1c2ccccc2[n+](C)c2ccccc12

>  <Energy>  (14) 
109.22222065276131

>  <Genealogy>  (14) 
CCC[NH+](CCC)CCCNCCCNc1c2ccccc2[n+](C)c2ccccc12 (protonated)
CCC[NH+](CCC)CCCNCCCNc1c2ccccc2[n+](C)c2ccccc12 (3D coordinates assigned)
CCC[NH+](CCC)CCCNCCCNc1c2ccccc2[n+](C)c2ccccc12 (optimized conformer: 109.22222065276131 kcal/mol)

>  <smiles>  (14) 
CCCN(CCC)CCCNCCCNc1c2ccccc2[n+](C)c2ccccc12

>  <score_type>  (14) 
oracle

>  <origin>  (14) 
adg

>  <m_score__min__energy>  (14) 
-4.2999999999999998

>  <m_primary>  (14) 
energy

$$$$
14:0
     RDKit          3D

 52 54  0  0  0  0  0  0  0  0999 V2000
   57.7740   33.0210   52.4960 C   0  0  0  0  0  0  0  0  0  0  0  0
   57.6950   32.1800   51.2200 C   0  0  0  0  0  0  0  0  0  0  0  0
   57.2690   30.7400   51.5190 C   0  0  0  0  0  0  0  0  0  0  0  0
   58.1200   29.8200   50.8610 O   0  0  0  0  0  0  0  0  0  0  0  0
   59.3750   29.7510   51.5000 C   0  0  0  0  0  0  0  0  0  0  0  0
   60.3830   29.1060   50.5590 C   0  0  0  0  0  0  0  0  0  0  0  0
   59.7110   28.1910   49.7240 O   0  0  0  0  0  0  0  0  0  0  0  0
   60.5100   27.8970   48.5980 C   0  0  0  0  0  0  0  0  0  0  0  0
   60.0160   28.7080   47.4000 C   0  0  0  0  0  0  0  0  0  0  0  0
   58.9580   29.6420   47.7910 N   0  0  0  0  0  0  0  0  0  0  0  0
   58.6730   30.8320   47.0340 C   0  0  0  0  0  0  0  0  0  0  0  0
   58.0600   30.7430   45.7720 C   0  0  0  0  0  0  0  0  0  0  0  0
   57.6250   29.5000   45.2640 C   0  0  0  0  0  0  0  0  0  0  0  0
   57.0930   29.4020   43.9800 C   0  0  0  0  0  0  0  0  0  0  0  0
   56.9850   30.5370   43.1820 C   0  0  0  0  0  0  0  0  0  0  0  0
   57.3620   31.7820   43.6820 C   0  0  0  0  0  0  0  0  0  0  0  0
   57.8580   31.9210   45.0050 C   0  0  0  0  0  0  0  0  0  0  0  0
   58.1480   33.1600   45.5460 N   0  0  0  0  0  0  0  0  0  0  0  0
   57.6750   34.3900   44.8700 C   0  0  0  0  0  0  0  0  0  0  0  0
   58.8410   33.2520   46.7390 C   0  0  0  0  0  0  0  0  0  0  0  0
   59.3660   34.4850   47.2040 C   0  0  0  0  0  0  0  0  0  0  0  0
   60.0240   34.5730   48.4280 C   0  0  0  0  0  0  0  0  0  0  0  0
   60.1970   33.4390   49.2140 C   0  0  0  0  0  0  0  0  0  0  0  0
   61.0610   33.5520   50.7350 Cl  0  0  0  0  0  0  0  0  0  0  0  0
   59.7210   32.2070   48.7710 C   0  0  0  0  0  0  0  0  0  0  0  0
   59.0680   32.0910   47.5250 C   0  0  0  0  0  0  0  0  0  0  0  0
   57.7121   32.3615   53.3742 H   0  0  0  0  0  0  0  0  0  0  0  0
   58.7276   33.5690   52.5155 H   0  0  0  0  0  0  0  0  0  0  0  0
   56.9392   33.7370   52.5155 H   0  0  0  0  0  0  0  0  0  0  0  0
   56.9618   32.6347   50.5377 H   0  0  0  0  0  0  0  0  0  0  0  0
   58.6949   32.1548   50.7623 H   0  0  0  0  0  0  0  0  0  0  0  0
   57.3195   30.5663   52.6040 H   0  0  0  0  0  0  0  0  0  0  0  0
   56.2409   30.5927   51.1565 H   0  0  0  0  0  0  0  0  0  0  0  0
   59.7115   30.7655   51.7598 H   0  0  0  0  0  0  0  0  0  0  0  0
   59.2894   29.1497   52.4171 H   0  0  0  0  0  0  0  0  0  0  0  0
   60.8631   29.8820   49.9447 H   0  0  0  0  0  0  0  0  0  0  0  0
   61.1528   28.5802   51.1428 H   0  0  0  0  0  0  0  0  0  0  0  0
   61.5567   28.1589   48.8121 H   0  0  0  0  0  0  0  0  0  0  0  0
   60.4414   26.8234   48.3687 H   0  0  0  0  0  0  0  0  0  0  0  0
   60.8588   29.2764   46.9798 H   0  0  0  0  0  0  0  0  0  0  0  0
   59.6065   28.0114   46.6536 H   0  0  0  0  0  0  0  0  0  0  0  0
   58.5260   29.5370   48.7360 H   0  0  0  0  0  0  0  0  0  0  0  0
   57.7069   28.5985   45.8889 H   0  0  0  0  0  0  0  0  0  0  0  0
   56.7581   28.4268   43.5968 H   0  0  0  0  0  0  0  0  0  0  0  0
   56.6013   30.4513   42.1546 H   0  0  0  0  0  0  0  0  0  0  0  0
   57.2738   32.6716   43.0411 H   0  0  0  0  0  0  0  0  0  0  0  0
   57.3880   35.1363   45.6254 H   0  0  0  0  0  0  0  0  0  0  0  0
   58.4811   34.7960   44.2413 H   0  0  0  0  0  0  0  0  0  0  0  0
   56.8046   34.1512   44.2413 H   0  0  0  0  0  0  0  0  0  0  0  0
   59.2512   35.3880   46.5864 H   0  0  0  0  0  0  0  0  0  0  0  0
   60.4085   35.5436   48.7746 H   0  0  0  0  0  0  0  0  0  0  0  0
   59.8556   31.3143   49.3995 H   0  0  0  0  0  0  0  0  0  0  0  0
  1  2  1  0
  2  3  1  0
  3  4  1  0
  4  5  1  0
  5  6  1  0
  6  7  1  0
  7  8  1  0
  8  9  1  0
  9 10  1  0
 10 11  1  0
 11 12  2  0
 12 13  1  0
 13 14  2  0
 14 15  1  0
 15 16  2  0
 16 17  1  0
 17 18  2  0
 18 19  1  0
 18 20  1  0
 20 21  2  0
 21 22  1  0
 22 23  2  0
 23 24  1  0
 23 25  1  0
 25 26  2  0
 26 11  1  0
 17 12  1  0
 26 20  1  0
  1 27  1  0
  1 28  1  0
  1 29  1  0
  2 30  1  0
  2 31  1  0
  3 32  1  0
  3 33  1  0
  5 34  1  0
  5 35  1  0
  6 36  1  0
  6 37  1  0
  8 38  1  0
  8 39  1  0
  9 40  1  0
  9 41  1  0
 10 42  1  0
 13 43  1  0
 14 44  1  0
 15 45  1  0
 16 46  1  0
 19 47  1  0
 19 48  1  0
 19 49  1  0
 21 50  1  0
 22 51  1  0
 25 52  1  0
M  CHG  1  18   1
M  END
>  <UniqueID>  (15) 
15

>  <SMILES>  (15) 
CCCOCCOCCNc1c2ccccc2[n+](C)c2ccc(Cl)cc12

>  <Energy>  (15) 
69.72612912743513

>  <Genealogy>  (15) 
CCCOCCOCCNc1c2ccccc2[n+](C)c2ccc(Cl)cc12 (3D coordinates assigned)
CCCOCCOCCNc1c2ccccc2[n+](C)c2ccc(Cl)cc12 (optimized conformer: 69.72612912743513 kcal/mol)

>  <smiles>  (15) 
CCCOCCOCCNc1c2ccccc2[n+](C)c2ccc(Cl)cc12

>  <score_type>  (15) 
oracle

>  <origin>  (15) 
adg

>  <m_score__min__energy>  (15) 
-5.4900000000000002

>  <m_primary>  (15) 
energy

$$$$
15:0
     RDKit          3D

 49 51  0  0  0  0  0  0  0  0999 V2000
   63.0520   33.8410   46.3480 C   0  0  0  0  0  0  0  0  0  0  0  0
   63.1810   33.5500   47.8390 C   0  0  0  0  0  0  0  0  0  0  0  0
   62.1270   34.1710   48.5530 O   0  0  0  0  0  0  0  0  0  0  0  0
   61.9000   33.5310   49.7980 C   0  0  0  0  0  0  0  0  0  0  0  0
   60.4520   33.7250   50.2420 C   0  0  0  0  0  0  0  0  0  0  0  0
   59.7770   32.4870   50.1930 O   0  0  0  0  0  0  0  0  0  0  0  0
   60.6810   31.4310   49.9210 C   0  0  0  0  0  0  0  0  0  0  0  0
   60.1430   30.5590   48.7870 C   0  0  0  0  0  0  0  0  0  0  0  0
   58.8740   31.0840   48.2830 N   0  0  0  0  0  0  0  0  0  0  0  0
   58.7080   31.3460   46.8800 C   0  0  0  0  0  0  0  0  0  0  0  0
   58.8520   32.6520   46.3800 C   0  0  0  0  0  0  0  0  0  0  0  0
   59.2060   33.7180   47.2330 C   0  0  0  0  0  0  0  0  0  0  0  0
   59.4060   35.0000   46.7250 C   0  0  0  0  0  0  0  0  0  0  0  0
   59.2730   35.2380   45.3630 C   0  0  0  0  0  0  0  0  0  0  0  0
   58.9150   34.2010   44.5010 C   0  0  0  0  0  0  0  0  0  0  0  0
   58.6640   32.8940   44.9900 C   0  0  0  0  0  0  0  0  0  0  0  0
   58.2670   31.8670   44.1550 N   0  0  0  0  0  0  0  0  0  0  0  0
   57.7920   32.1620   42.7860 C   0  0  0  0  0  0  0  0  0  0  0  0
   58.2760   30.5630   44.6080 C   0  0  0  0  0  0  0  0  0  0  0  0
   58.1260   29.5040   43.7430 N   0  0  0  0  0  0  0  0  0  0  0  0
   58.0540   28.2170   44.1780 C   0  0  0  0  0  0  0  0  0  0  0  0
   58.1470   27.9280   45.5340 C   0  0  0  0  0  0  0  0  0  0  0  0
   58.3500   28.9630   46.4380 C   0  0  0  0  0  0  0  0  0  0  0  0
   58.4480   30.2920   45.9890 C   0  0  0  0  0  0  0  0  0  0  0  0
   62.6099   34.8382   46.2059 H   0  0  0  0  0  0  0  0  0  0  0  0
   64.0476   33.8114   45.8811 H   0  0  0  0  0  0  0  0  0  0  0  0
   62.4054   33.0834   45.8811 H   0  0  0  0  0  0  0  0  0  0  0  0
   63.1387   32.4629   48.0018 H   0  0  0  0  0  0  0  0  0  0  0  0
   64.1411   33.9474   48.1999 H   0  0  0  0  0  0  0  0  0  0  0  0
   62.1062   32.4554   49.6952 H   0  0  0  0  0  0  0  0  0  0  0  0
   62.5663   33.9740   50.5528 H   0  0  0  0  0  0  0  0  0  0  0  0
   60.4325   34.1131   51.2711 H   0  0  0  0  0  0  0  0  0  0  0  0
   59.9549   34.4414   49.5714 H   0  0  0  0  0  0  0  0  0  0  0  0
   61.6539   31.8515   49.6266 H   0  0  0  0  0  0  0  0  0  0  0  0
   60.7979   30.8150   50.8248 H   0  0  0  0  0  0  0  0  0  0  0  0
   60.8764   30.5409   47.9674 H   0  0  0  0  0  0  0  0  0  0  0  0
   59.9747   29.5431   49.1738 H   0  0  0  0  0  0  0  0  0  0  0  0
   58.2760   31.6280   48.9450 H   0  0  0  0  0  0  0  0  0  0  0  0
   59.3255   33.5353   48.3111 H   0  0  0  0  0  0  0  0  0  0  0  0
   59.6696   35.8247   47.4035 H   0  0  0  0  0  0  0  0  0  0  0  0
   59.4505   36.2471   44.9628 H   0  0  0  0  0  0  0  0  0  0  0  0
   58.8259   34.4009   43.4230 H   0  0  0  0  0  0  0  0  0  0  0  0
   56.8586   32.7417   42.8387 H   0  0  0  0  0  0  0  0  0  0  0  0
   58.5559   32.7449   42.2505 H   0  0  0  0  0  0  0  0  0  0  0  0
   57.6082   31.2189   42.2505 H   0  0  0  0  0  0  0  0  0  0  0  0
   58.1030   29.6380   42.7090 H   0  0  0  0  0  0  0  0  0  0  0  0
   57.9215   27.4009   43.4525 H   0  0  0  0  0  0  0  0  0  0  0  0
   58.0607   26.8901   45.8880 H   0  0  0  0  0  0  0  0  0  0  0  0
   58.4346   28.7415   47.5121 H   0  0  0  0  0  0  0  0  0  0  0  0
  1  2  1  0
  2  3  1  0
  3  4  1  0
  4  5  1  0
  5  6  1  0
  6  7  1  0
  7  8  1  0
  8  9  1  0
  9 10  1  0
 10 11  2  0
 11 12  1  0
 12 13  2  0
 13 14  1  0
 14 15  2  0
 15 16  1  0
 16 17  2  0
 17 18  1  0
 17 19  1  0
 19 20  2  0
 20 21  1  0
 21 22  2  0
 22 23  1  0
 23 24  2  0
 24 10  1  0
 16 11  1  0
 24 19  1  0
  1 25  1  0
  1 26  1  0
  1 27  1  0
  2 28  1  0
  2 29  1  0
  4 30  1  0
  4 31  1  0
  5 32  1  0
  5 33  1  0
  7 34  1  0
  7 35  1  0
  8 36  1  0
  8 37  1  0
  9 38  1  0
 12 39  1  0
 13 40  1  0
 14 41  1  0
 15 42  1  0
 18 43  1  0
 18 44  1  0
 18 45  1  0
 20 46  1  0
 21 47  1  0
 22 48  1  0
 23 49  1  0
M  CHG  2  17   1  20   1
M  END
>  <UniqueID>  (16) 
16

>  <SMILES>  (16) 
CCOCCOCCNc1c2ccccc2[n+](C)c2[nH+]cccc12

>  <Energy>  (16) 
74.57849396269152

>  <Genealogy>  (16) 
CCOCCOCCNc1c2ccccc2[n+](C)c2[nH+]cccc12 (protonated)
CCOCCOCCNc1c2ccccc2[n+](C)c2[nH+]cccc12 (3D coordinates assigned)
CCOCCOCCNc1c2ccccc2[n+](C)c2[nH+]cccc12 (optimized conformer: 74.57849396269152 kcal/mol)

>  <smiles>  (16) 
CCOCCOCCNc1c2ccccc2[n+](C)c2ncccc12

>  <score_type>  (16) 
oracle

>  <origin>  (16) 
adg

>  <m_score__min__energy>  (16) 
-4.4900000000000002

>  <m_primary>  (16) 
energy

$$$$
16:0
     RDKit          3D

 60 62  0  0  0  0  0  0  0  0999 V2000
   56.3970   29.7190   43.7660 C   0  0  0  0  0  0  0  0  0  0  0  0
   56.5870   30.5650   44.8800 O   0  0  0  0  0  0  0  0  0  0  0  0
   57.4230   31.6530   44.5350 C   0  0  0  0  0  0  0  0  0  0  0  0
   57.0240   32.8990   45.3400 C   0  0  0  0  0  0  0  0  0  0  0  0
   58.1430   33.9550   45.3870 C   0  0  0  0  0  0  0  0  0  0  0  0
   58.6400   34.2810   46.8270 C   0  0  1  0  0  0  0  0  0  0  0  0
   58.6000   33.0140   47.6940 C   0  0  0  0  0  0  0  0  0  0  0  0
   60.0790   34.8610   46.8400 C   0  0  0  0  0  0  0  0  0  0  0  0
   61.1790   33.8710   47.2730 C   0  0  0  0  0  0  0  0  0  0  0  0
   62.4270   33.8420   46.3700 C   0  0  0  0  0  0  0  0  0  0  0  0
   63.7250   33.5690   47.1400 C   0  0  0  0  0  0  0  0  0  0  0  0
   63.7700   32.1780   47.5860 N   0  0  0  0  0  0  0  0  0  0  0  0
   62.9740   31.7170   48.6910 C   0  0  0  0  0  0  0  0  0  0  0  0
   63.2680   32.1290   50.0020 C   0  0  0  0  0  0  0  0  0  0  0  0
   64.2590   33.1040   50.2480 C   0  0  0  0  0  0  0  0  0  0  0  0
   64.5270   33.5350   51.5440 C   0  0  0  0  0  0  0  0  0  0  0  0
   63.8000   33.0230   52.6130 C   0  0  0  0  0  0  0  0  0  0  0  0
   62.8080   32.0680   52.3940 C   0  0  0  0  0  0  0  0  0  0  0  0
   62.5330   31.5820   51.0890 C   0  0  0  0  0  0  0  0  0  0  0  0
   61.5660   30.6220   50.8600 N   0  0  0  0  0  0  0  0  0  0  0  0
   61.0040   29.8540   51.9930 C   0  0  0  0  0  0  0  0  0  0  0  0
   61.1390   30.3670   49.5690 C   0  0  0  0  0  0  0  0  0  0  0  0
   59.9760   29.6010   49.3050 C   0  0  0  0  0  0  0  0  0  0  0  0
   59.5980   29.2910   47.9980 C   0  0  0  0  0  0  0  0  0  0  0  0
   60.3540   29.7500   46.9240 C   0  0  0  0  0  0  0  0  0  0  0  0
   59.8790   29.3460   45.2830 Cl  0  0  0  0  0  0  0  0  0  0  0  0
   61.4730   30.5490   47.1510 C   0  0  0  0  0  0  0  0  0  0  0  0
   61.8660   30.8830   48.4630 C   0  0  0  0  0  0  0  0  0  0  0  0
   56.1683   28.7007   44.1137 H   0  0  0  0  0  0  0  0  0  0  0  0
   55.5610   30.0953   43.1581 H   0  0  0  0  0  0  0  0  0  0  0  0
   57.3136   29.7017   43.1581 H   0  0  0  0  0  0  0  0  0  0  0  0
   58.4684   31.3942   44.7589 H   0  0  0  0  0  0  0  0  0  0  0  0
   57.3128   31.8664   43.4616 H   0  0  0  0  0  0  0  0  0  0  0  0
   56.1341   33.3488   44.8755 H   0  0  0  0  0  0  0  0  0  0  0  0
   56.8236   32.5789   46.3731 H   0  0  0  0  0  0  0  0  0  0  0  0
   58.9965   33.5822   44.8017 H   0  0  0  0  0  0  0  0  0  0  0  0
   57.7236   34.8846   44.9748 H   0  0  0  0  0  0  0  0  0  0  0  0
   57.9643   35.0473   47.2347 H   0  0  0  0  0  0  0  0  0  0  0  0
   58.6089   33.2967   48.7570 H   0  0  0  0  0  0  0  0  0  0  0  0
   57.6835   32.4472   47.4730 H   0  0  0  0  0  0  0  0  0  0  0  0
   59.4789   32.3906   47.4730 H   0  0  0  0  0  0  0  0  0  0  0  0
   60.3151   35.2097   45.8238 H   0  0  0  0  0  0  0  0  0  0  0  0
   60.0783   35.6657   47.5900 H   0  0  0  0  0  0  0  0  0  0  0  0
   61.5004   34.1425   48.2894 H   0  0  0  0  0  0  0  0  0  0  0  0
   60.7310   32.8685   47.2073 H   0  0  0  0  0  0  0  0  0  0  0  0
   62.2948   33.0515   45.6166 H   0  0  0  0  0  0  0  0  0  0  0  0
   62.5221   34.8378   45.9126 H   0  0  0  0  0  0  0  0  0  0  0  0
   64.5847   33.7669   46.4829 H   0  0  0  0  0  0  0  0  0  0  0  0
   63.7627   34.2273   48.0204 H   0  0  0  0  0  0  0  0  0  0  0  0
   64.4380   31.5160   47.1320 H   0  0  0  0  0  0  0  0  0  0  0  0
   64.8257   33.5278   49.4059 H   0  0  0  0  0  0  0  0  0  0  0  0
   65.3149   34.2815   51.7228 H   0  0  0  0  0  0  0  0  0  0  0  0
   64.0082   33.3726   53.6350 H   0  0  0  0  0  0  0  0  0  0  0  0
   62.2287   31.6847   53.2469 H   0  0  0  0  0  0  0  0  0  0  0  0
   61.3337   30.3045   52.9408 H   0  0  0  0  0  0  0  0  0  0  0  0
   59.9054   29.8736   51.9403 H   0  0  0  0  0  0  0  0  0  0  0  0
   61.3551   28.8129   51.9403 H   0  0  0  0  0  0  0  0  0  0  0  0
   59.3610   29.2449   50.1446 H   0  0  0  0  0  0  0  0  0  0  0  0
   58.7000   28.6822   47.8164 H   0  0  0  0  0  0  0  0  0  0  0  0
   62.0562   30.9233   46.2967 H   0  0  0  0  0  0  0  0  0  0  0  0
  1  2  1  0
  2  3  1  0
  3  4  1  0
  4  5  1  0
  5  6  1  0
  6  7  1  0
  6  8  1  0
  8  9  1  0
  9 10  1  0
 10 11  1  0
 11 12  1  0
 12 13  1  0
 13 14  2  0
 14 15  1  0
 15 16  2  0
 16 17  1  0
 17 18  2  0
 18 19  1  0
 19 20  2  0
 20 21  1  0
 20 22  1  0
 22 23  2  0
 23 24  1  0
 24 25  2  0
 25 26  1  0
 25 27  1  0
 27 28  2  0
 28 13  1  0
 19 14  1  0
 28 22  1  0
  1 29  1  0
  1 30  1  0
  1 31  1  0
  3 32  1  0
  3 33  1  0
  4 34  1  0
  4 35  1  0
  5 36  1  0
  5 37  1  0
  6 38  1  1
  7 39  1  0
  7 40  1  0
  7 41  1  0
  8 42  1  0
  8 43  1  0
  9 44  1  0
  9 45  1  0
 10 46  1  0
 10 47  1  0
 11 48  1  0
 11 49  1  0
 12 50  1  0
 15 51  1  0
 16 52  1  0
 17 53  1  0
 18 54  1  0
 21 55  1  0
 21 56  1  0
 21 57  1  0
 23 58  1  0
 24 59  1  0
 27 60  1  0
M  CHG  1  20   1
M  END
>  <UniqueID>  (17) 
17

>  <SMILES>  (17) 
COCCC[C@@H](C)CCCCNc1c2ccccc2[n+](C)c2ccc(Cl)cc12

>  <Energy>  (17) 
75.98308831252595

>  <Genealogy>  (17) 
COCCC[C@@H](C)CCCCNc1c2ccccc2[n+](C)c2ccc(Cl)cc12 (chirality)
COCCC[C@@H](C)CCCCNc1c2ccccc2[n+](C)c2ccc(Cl)cc12 (3D coordinates assigned)
COCCC[C@@H](C)CCCCNc1c2ccccc2[n+](C)c2ccc(Cl)cc12 (optimized conformer: 75.98308831252595 kcal/mol)

>  <smiles>  (17) 
COCCCC(C)CCCCNc1c2ccccc2[n+](C)c2ccc(Cl)cc12

>  <score_type>  (17) 
oracle

>  <origin>  (17) 
adg

>  <m_score__min__energy>  (17) 
-7.1299999999999999

>  <m_primary>  (17) 
energy

$$$$
17:0
     RDKit          3D

 42 43  0  0  0  0  0  0  0  0999 V2000
   56.3910   29.6970   42.8720 C   0  0  0  0  0  0  0  0  0  0  0  0
   55.9610   30.0280   44.2600 C   0  0  0  0  0  0  0  0  0  0  0  0
   55.1670   29.2610   44.8680 O   0  0  0  0  0  0  0  0  0  0  0  0
   56.4050   31.2440   44.8680 N   0  0  0  0  0  0  0  0  0  0  0  0
   57.3190   32.1850   44.2260 C   0  0  0  0  0  0  0  0  0  0  0  0
   58.6110   32.3580   45.0520 C   0  0  0  0  0  0  0  0  0  0  0  0
   58.4410   31.7080   46.4470 C   0  0  0  0  0  0  0  0  0  0  0  0
   59.3830   32.3520   47.4690 C   0  0  0  0  0  0  0  0  0  0  0  0
   59.0590   33.7830   47.6630 N   0  0  0  0  0  0  0  0  0  0  0  0
   60.0600   34.5300   48.4630 C   0  0  0  0  0  0  0  0  0  0  0  0
   61.4880   34.0220   48.3000 C   0  0  0  0  0  0  0  0  0  0  0  0
   62.0370   33.9440   47.0050 C   0  0  0  0  0  0  0  0  0  0  0  0
   63.3300   33.4600   46.8030 C   0  0  0  0  0  0  0  0  0  0  0  0
   64.1070   33.0690   47.8900 C   0  0  0  0  0  0  0  0  0  0  0  0
   63.6020   33.1740   49.1840 C   0  0  0  0  0  0  0  0  0  0  0  0
   62.2990   33.6540   49.4110 C   0  0  0  0  0  0  0  0  0  0  0  0
   61.8340   33.8240   50.8350 C   0  0  0  0  0  0  0  0  0  0  0  0
   58.5570   34.4930   46.4600 C   0  0  0  0  0  0  0  0  0  0  0  0
   59.0400   33.8460   45.1530 C   0  0  0  0  0  0  0  0  0  0  0  0
   57.2622   29.0264   42.9081 H   0  0  0  0  0  0  0  0  0  0  0  0
   55.5662   29.1984   42.3417 H   0  0  0  0  0  0  0  0  0  0  0  0
   56.6619   30.6219   42.3417 H   0  0  0  0  0  0  0  0  0  0  0  0
   57.5798   31.8069   43.2265 H   0  0  0  0  0  0  0  0  0  0  0  0
   56.8188   33.1619   44.1522 H   0  0  0  0  0  0  0  0  0  0  0  0
   59.4268   31.8386   44.5279 H   0  0  0  0  0  0  0  0  0  0  0  0
   57.4016   31.8406   46.7818 H   0  0  0  0  0  0  0  0  0  0  0  0
   58.6861   30.6385   46.3685 H   0  0  0  0  0  0  0  0  0  0  0  0
   59.2830   31.8273   48.4306 H   0  0  0  0  0  0  0  0  0  0  0  0
   60.4136   32.2746   47.0922 H   0  0  0  0  0  0  0  0  0  0  0  0
   60.0311   35.5856   48.1549 H   0  0  0  0  0  0  0  0  0  0  0  0
   59.7911   34.3899   49.5204 H   0  0  0  0  0  0  0  0  0  0  0  0
   61.4383   34.2691   46.1414 H   0  0  0  0  0  0  0  0  0  0  0  0
   63.7361   33.3873   45.7833 H   0  0  0  0  0  0  0  0  0  0  0  0
   65.1215   32.6764   47.7268 H   0  0  0  0  0  0  0  0  0  0  0  0
   64.2290   32.8783   50.0381 H   0  0  0  0  0  0  0  0  0  0  0  0
   62.6409   33.5290   51.5219 H   0  0  0  0  0  0  0  0  0  0  0  0
   61.5693   34.8771   51.0110 H   0  0  0  0  0  0  0  0  0  0  0  0
   60.9525   33.1900   51.0110 H   0  0  0  0  0  0  0  0  0  0  0  0
   57.4572   34.4795   46.4753 H   0  0  0  0  0  0  0  0  0  0  0  0
   58.9484   35.5206   46.4898 H   0  0  0  0  0  0  0  0  0  0  0  0
   58.6120   34.3981   44.3033 H   0  0  0  0  0  0  0  0  0  0  0  0
   60.1392   33.8861   45.1382 H   0  0  0  0  0  0  0  0  0  0  0  0
  1  2  1  0
  2  3  2  0
  2  4  1  0
  4  5  1  0
  5  6  1  0
  6  7  1  0
  7  8  1  0
  8  9  1  0
  9 10  1  0
 10 11  1  0
 11 12  2  0
 12 13  1  0
 13 14  2  0
 14 15  1  0
 15 16  2  0
 16 17  1  0
  9 18  1  0
 18 19  1  0
 19  6  1  0
 16 11  1  0
  1 20  1  0
  1 21  1  0
  1 22  1  0
  5 23  1  0
  5 24  1  0
  6 25  1  0
  7 26  1  0
  7 27  1  0
  8 28  1  0
  8 29  1  0
 10 30  1  0
 10 31  1  0
 12 32  1  0
 13 33  1  0
 14 34  1  0
 15 35  1  0
 17 36  1  0
 17 37  1  0
 17 38  1  0
 18 39  1  0
 18 40  1  0
 19 41  1  0
 19 42  1  0
M  CHG  1   4  -1
M  END
>  <UniqueID>  (18) 
18

>  <SMILES>  (18) 
CC(=O)[N-]CC1CCN(Cc2ccccc2C)CC1

>  <Energy>  (18) 
49.23312253774773

>  <Genealogy>  (18) 
CC(=O)[N-]CC1CCN(Cc2ccccc2C)CC1 (protonated)
CC(=O)[N-]CC1CCN(Cc2ccccc2C)CC1 (3D coordinates assigned)
CC(=O)[N-]CC1CCN(Cc2ccccc2C)CC1 (nonaromatic ring conformer: 49.23312253774773 kcal/mol)

>  <smiles>  (18) 
CC(=O)NCC1CCN(Cc2ccccc2C)CC1

>  <score_type>  (18) 
oracle

>  <origin>  (18) 
adg

>  <m_score__min__energy>  (18) 
-9.7599999999999998

>  <m_primary>  (18) 
energy

$$$$
18:0
     RDKit          3D

 59 62  0  0  0  0  0  0  0  0999 V2000
   57.5920   32.3530   51.7440 C   0  0  0  0  0  0  0  0  0  0  0  0
   57.0450   30.9590   52.0080 C   0  0  0  0  0  0  0  0  0  0  0  0
   57.7910   30.0060   51.2570 O   0  0  0  0  0  0  0  0  0  0  0  0
   59.1490   30.1410   50.9390 C   0  0  0  0  0  0  0  0  0  0  0  0
   60.1700   30.1590   51.9200 C   0  0  0  0  0  0  0  0  0  0  0  0
   61.5220   30.2980   51.5440 C   0  0  0  0  0  0  0  0  0  0  0  0
   61.8750   30.4210   50.1900 C   0  0  0  0  0  0  0  0  0  0  0  0
   60.8530   30.3990   49.2440 C   0  0  0  0  0  0  0  0  0  0  0  0
   59.5270   30.2630   49.5990 C   0  0  0  0  0  0  0  0  0  0  0  0
   58.6410   30.2820   48.3840 C   0  0  0  0  0  0  0  0  0  0  0  0
   59.5900   30.4100   47.2740 N   0  0  0  0  0  0  0  0  0  0  0  0
   59.2200   30.5590   45.8670 C   0  0  0  0  0  0  0  0  0  0  0  0
   57.7570   30.1440   45.6220 C   0  0  0  0  0  0  0  0  0  0  0  0
   57.0100   31.1140   44.8020 N   0  0  0  0  0  0  0  0  0  0  0  0
   57.7510   32.3620   44.5710 C   0  0  0  0  0  0  0  0  0  0  0  0
   57.3140   33.4260   45.5830 C   0  0  0  0  0  0  0  0  0  0  0  0
   58.3990   34.3750   45.8350 N   0  0  0  0  0  0  0  0  0  0  0  0
   59.4560   34.1840   46.7960 C   0  0  0  0  0  0  0  0  0  0  0  0
   59.2280   34.2610   48.1790 C   0  0  0  0  0  0  0  0  0  0  0  0
   60.2690   34.0730   49.0930 C   0  0  0  0  0  0  0  0  0  0  0  0
   59.9500   34.1650   50.4080 F   0  0  0  0  0  0  0  0  0  0  0  0
   61.5900   33.8030   48.6440 C   0  0  0  0  0  0  0  0  0  0  0  0
   61.8100   33.7360   47.2400 C   0  0  0  0  0  0  0  0  0  0  0  0
   63.0930   33.4780   46.7530 C   0  0  0  0  0  0  0  0  0  0  0  0
   64.1440   33.2880   47.6360 C   0  0  0  0  0  0  0  0  0  0  0  0
   63.9100   33.3550   49.0070 C   0  0  0  0  0  0  0  0  0  0  0  0
   62.6590   33.6070   49.5060 N   0  0  0  0  0  0  0  0  0  0  0  0
   62.5140   33.6560   50.9690 C   0  0  0  0  0  0  0  0  0  0  0  0
   60.7530   33.9270   46.3390 C   0  0  0  0  0  0  0  0  0  0  0  0
   60.9080   30.5030   47.8100 C   0  0  0  0  0  0  0  0  0  0  0  0
   61.9490   30.6730   47.1200 O   0  0  0  0  0  0  0  0  0  0  0  0
   57.7897   32.8568   52.7017 H   0  0  0  0  0  0  0  0  0  0  0  0
   58.5271   32.2773   51.1697 H   0  0  0  0  0  0  0  0  0  0  0  0
   56.8549   32.9334   51.1697 H   0  0  0  0  0  0  0  0  0  0  0  0
   57.1302   30.7287   53.0802 H   0  0  0  0  0  0  0  0  0  0  0  0
   55.9879   30.9169   51.7067 H   0  0  0  0  0  0  0  0  0  0  0  0
   59.9064   30.0638   52.9837 H   0  0  0  0  0  0  0  0  0  0  0  0
   62.3054   30.3102   52.3161 H   0  0  0  0  0  0  0  0  0  0  0  0
   62.9264   30.5313   49.8861 H   0  0  0  0  0  0  0  0  0  0  0  0
   58.0639   29.3491   48.3030 H   0  0  0  0  0  0  0  0  0  0  0  0
   57.8963   31.0912   48.4080 H   0  0  0  0  0  0  0  0  0  0  0  0
   59.3472   31.6114   45.5733 H   0  0  0  0  0  0  0  0  0  0  0  0
   59.8698   29.9044   45.2676 H   0  0  0  0  0  0  0  0  0  0  0  0
   57.7505   29.1720   45.1070 H   0  0  0  0  0  0  0  0  0  0  0  0
   57.2618   30.0941   46.6030 H   0  0  0  0  0  0  0  0  0  0  0  0
   56.0880   31.3280   45.2450 H   0  0  0  0  0  0  0  0  0  0  0  0
   58.8285   32.1722   44.6845 H   0  0  0  0  0  0  0  0  0  0  0  0
   57.5409   32.7236   43.5536 H   0  0  0  0  0  0  0  0  0  0  0  0
   56.4446   33.9689   45.1838 H   0  0  0  0  0  0  0  0  0  0  0  0
   57.0515   32.9289   46.5285 H   0  0  0  0  0  0  0  0  0  0  0  0
   58.3930   35.2580   45.2740 H   0  0  0  0  0  0  0  0  0  0  0  0
   58.2141   34.4726   48.5494 H   0  0  0  0  0  0  0  0  0  0  0  0
   63.2694   33.4256   45.6685 H   0  0  0  0  0  0  0  0  0  0  0  0
   65.1564   33.0856   47.2564 H   0  0  0  0  0  0  0  0  0  0  0  0
   64.7471   33.2024   49.7042 H   0  0  0  0  0  0  0  0  0  0  0  0
   63.4550   33.3380   51.4416 H   0  0  0  0  0  0  0  0  0  0  0  0
   62.2768   34.6842   51.2797 H   0  0  0  0  0  0  0  0  0  0  0  0
   61.7017   32.9824   51.2797 H   0  0  0  0  0  0  0  0  0  0  0  0
   60.9462   33.8740   45.2574 H   0  0  0  0  0  0  0  0  0  0  0  0
  1  2  1  0
  2  3  1  0
  3  4  1  0
  4  5  2  0
  5  6  1  0
  6  7  2  0
  7  8  1  0
  8  9  2  0
  9 10  1  0
 10 11  1  0
 11 12  1  0
 12 13  1  0
 13 14  1  0
 14 15  1  0
 15 16  1  0
 16 17  1  0
 17 18  1  0
 18 19  2  0
 19 20  1  0
 20 21  1  0
 20 22  2  0
 22 23  1  0
 23 24  1  0
 24 25  2  0
 25 26  1  0
 26 27  2  0
 27 28  1  0
 23 29  2  0
 11 30  1  0
 30 31  2  0
  9  4  1  0
 29 18  1  0
 30  8  1  0
 27 22  1  0
  1 32  1  0
  1 33  1  0
  1 34  1  0
  2 35  1  0
  2 36  1  0
  5 37  1  0
  6 38  1  0
  7 39  1  0
 10 40  1  0
 10 41  1  0
 12 42  1  0
 12 43  1  0
 13 44  1  0
 13 45  1  0
 14 46  1  0
 15 47  1  0
 15 48  1  0
 16 49  1  0
 16 50  1  0
 17 51  1  0
 19 52  1  0
 24 53  1  0
 25 54  1  0
 26 55  1  0
 28 56  1  0
 28 57  1  0
 28 58  1  0
 29 59  1  0
M  CHG  1  27   1
M  END
>  <UniqueID>  (19) 
19

>  <SMILES>  (19) 
CCOc1cccc2c1CN(CCNCCNc1cc(F)c3c(ccc[n+]3C)c1)C2=O

>  <Energy>  (19) 
86.34335538690262

>  <Genealogy>  (19) 
CCOc1cccc2c1CN(CCNCCNc1cc(F)c3c(ccc[n+]3C)c1)C2=O (3D coordinates assigned)
CCOc1cccc2c1CN(CCNCCNc1cc(F)c3c(ccc[n+]3C)c1)C2=O (nonaromatic ring conformer: 86.34335538690262 kcal/mol)

>  <smiles>  (19) 
CCOc1cccc2c1CN(CCNCCNc1cc(F)c3c(ccc[n+]3C)c1)C2=O

>  <score_type>  (19) 
oracle

>  <origin>  (19) 
adg

>  <m_score__min__energy>  (19) 
-6.9100000000000001

>  <m_primary>  (19) 
energy

$$$$
19:0
     RDKit          3D

 31 33  0  0  0  0  0  0  0  0999 V2000
   56.7320   29.1440   44.1320 C   0  0  0  0  0  0  0  0  0  0  0  0
   57.1870   30.5200   44.0000 N   0  0  0  0  0  0  0  0  0  0  0  0
   56.9790   31.4660   44.8990 N   0  0  0  0  0  0  0  0  0  0  0  0
   57.4970   32.5720   44.3250 C   0  0  0  0  0  0  0  0  0  0  0  0
   57.4500   33.9340   44.9390 C   0  0  0  0  0  0  0  0  0  0  0  0
   57.5050   33.8360   46.4640 C   0  0  0  0  0  0  0  0  0  0  0  0
   58.8670   33.5470   46.9050 N   0  0  0  0  0  0  0  0  0  0  0  0
   60.0350   34.3160   46.6040 C   0  0  0  0  0  0  0  0  0  0  0  0
   60.0130   35.4870   46.1430 O   0  0  0  0  0  0  0  0  0  0  0  0
   61.2340   33.5310   46.8780 C   0  0  0  0  0  0  0  0  0  0  0  0
   62.5830   33.8540   46.7440 C   0  0  0  0  0  0  0  0  0  0  0  0
   63.5330   32.8710   47.0750 C   0  0  0  0  0  0  0  0  0  0  0  0
   63.1170   31.5970   47.5220 C   0  0  0  0  0  0  0  0  0  0  0  0
   61.7500   31.2950   47.6440 C   0  0  0  0  0  0  0  0  0  0  0  0
   60.8280   32.2880   47.3150 C   0  0  0  0  0  0  0  0  0  0  0  0
   59.3700   32.2750   47.3200 C   0  0  0  0  0  0  0  0  0  0  0  0
   58.6460   31.2880   47.6160 O   0  0  0  0  0  0  0  0  0  0  0  0
   57.9780   32.3150   43.0900 N   0  0  0  0  0  0  0  0  0  0  0  0
   57.7680   31.0210   42.9250 N   0  0  0  0  0  0  0  0  0  0  0  0
   56.6469   28.8866   45.1981 H   0  0  0  0  0  0  0  0  0  0  0  0
   55.7499   29.0346   43.6489 H   0  0  0  0  0  0  0  0  0  0  0  0
   57.4553   28.4707   43.6489 H   0  0  0  0  0  0  0  0  0  0  0  0
   58.3090   34.5215   44.5828 H   0  0  0  0  0  0  0  0  0  0  0  0
   56.5089   34.4234   44.6476 H   0  0  0  0  0  0  0  0  0  0  0  0
   57.1771   34.7907   46.9010 H   0  0  0  0  0  0  0  0  0  0  0  0
   56.8420   33.0227   46.7942 H   0  0  0  0  0  0  0  0  0  0  0  0
   62.8954   34.8476   46.3901 H   0  0  0  0  0  0  0  0  0  0  0  0
   64.6061   33.0955   46.9853 H   0  0  0  0  0  0  0  0  0  0  0  0
   63.8690   30.8356   47.7765 H   0  0  0  0  0  0  0  0  0  0  0  0
   61.4172   30.3048   47.9887 H   0  0  0  0  0  0  0  0  0  0  0  0
   58.0100   30.4840   42.0620 H   0  0  0  0  0  0  0  0  0  0  0  0
  1  2  1  0
  2  3  1  0
  3  4  2  0
  4  5  1  0
  5  6  1  0
  6  7  1  0
  7  8  1  0
  8  9  2  0
  8 10  1  0
 10 11  2  0
 11 12  1  0
 12 13  2  0
 13 14  1  0
 14 15  2  0
 15 16  1  0
 16 17  2  0
  4 18  1  0
 18 19  2  0
 19  2  1  0
 16  7  1  0
 15 10  1  0
  1 20  1  0
  1 21  1  0
  1 22  1  0
  5 23  1  0
  5 24  1  0
  6 25  1  0
  6 26  1  0
 11 27  1  0
 12 28  1  0
 13 29  1  0
 14 30  1  0
 19 31  1  0
M  CHG  1  19   1
M  END
>  <UniqueID>  (20) 
20

>  <SMILES>  (20) 
Cn1nc(CCN2C(=O)c3ccccc3C2=O)n[nH+]1

>  <Energy>  (20) 
98.36584327337361

>  <Genealogy>  (20) 
Cn1nc(CCN2C(=O)c3ccccc3C2=O)n[nH+]1 (protonated)
Cn1nc(CCN2C(=O)c3ccccc3C2=O)n[nH+]1 (3D coordinates assigned)
Cn1nc(CCN2C(=O)c3ccccc3C2=O)n[nH+]1 (nonaromatic ring conformer: 98.36584327337361 kcal/mol)

>  <smiles>  (20) 
Cn1nnc(CCN2C(=O)c3ccccc3C2=O)n1

>  <score_type>  (20) 
oracle

>  <origin>  (20) 
adg

>  <m_score__min__energy>  (20) 
-6.4299999999999997

>  <m_primary>  (20) 
energy

$$$$
20:0
     RDKit          3D

 44 47  0  0  0  0  0  0  0  0999 V2000
   59.2940   34.8650   46.0680 C   0  0  0  0  0  0  0  0  0  0  0  0
   58.7130   33.7320   45.3630 N   0  0  0  0  0  0  0  0  0  0  0  0
   58.1590   32.6490   45.9380 C   0  0  0  0  0  0  0  0  0  0  0  0
   57.6990   31.8240   44.9320 C   0  0  0  0  0  0  0  0  0  0  0  0
   57.0670   30.4960   45.0410 C   0  0  0  0  0  0  0  0  0  0  0  0
   55.7950   30.2490   44.6450 N   0  0  0  0  0  0  0  0  0  0  0  0
   55.5130   28.9660   44.8460 N   0  0  0  0  0  0  0  0  0  0  0  0
   56.6080   28.3950   45.3760 C   0  0  0  0  0  0  0  0  0  0  0  0
   56.7670   27.0690   45.7590 C   0  0  0  0  0  0  0  0  0  0  0  0
   58.0000   26.6890   46.3160 C   0  0  0  0  0  0  0  0  0  0  0  0
   59.0420   27.6390   46.4910 C   0  0  0  0  0  0  0  0  0  0  0  0
   60.3500   27.2210   47.0450 C   0  0  0  0  0  0  0  0  0  0  0  0
   61.1480   26.5410   46.3430 O   0  0  0  0  0  0  0  0  0  0  0  0
   60.7240   27.6140   48.3710 N   0  0  0  0  0  0  0  0  0  0  0  0
   60.7000   28.9900   48.8500 C   0  0  0  0  0  0  0  0  0  0  0  0
   59.2960   29.3980   49.3230 C   0  0  0  0  0  0  0  0  0  0  0  0
   58.9410   30.8590   48.9900 C   0  0  0  0  0  0  0  0  0  0  0  0
   60.1580   31.6870   48.6720 C   0  0  0  0  0  0  0  0  0  0  0  0
   60.7070   32.5650   49.6180 C   0  0  0  0  0  0  0  0  0  0  0  0
   61.8070   33.2950   49.2950 N   0  0  0  0  0  0  0  0  0  0  0  0
   62.3850   33.1940   48.0690 C   0  0  0  0  0  0  0  0  0  0  0  0
   61.8420   32.3210   47.1250 C   0  0  0  0  0  0  0  0  0  0  0  0
   60.7460   31.5860   47.4490 N   0  0  0  0  0  0  0  0  0  0  0  0
   58.8310   28.9830   46.1030 C   0  0  0  0  0  0  0  0  0  0  0  0
   57.6060   29.3170   45.5250 C   0  0  0  0  0  0  0  0  0  0  0  0
   58.0200   32.4770   43.7550 C   0  0  0  0  0  0  0  0  0  0  0  0
   58.6280   33.6440   44.0450 N   0  0  0  0  0  0  0  0  0  0  0  0
   59.2111   34.7034   47.1529 H   0  0  0  0  0  0  0  0  0  0  0  0
   60.3542   34.9641   45.7920 H   0  0  0  0  0  0  0  0  0  0  0  0
   58.7558   35.7838   45.7920 H   0  0  0  0  0  0  0  0  0  0  0  0
   58.0858   32.4556   47.0184 H   0  0  0  0  0  0  0  0  0  0  0  0
   55.9536   26.3397   45.6303 H   0  0  0  0  0  0  0  0  0  0  0  0
   58.1603   25.6441   46.6200 H   0  0  0  0  0  0  0  0  0  0  0  0
   61.4027   29.0880   49.6906 H   0  0  0  0  0  0  0  0  0  0  0  0
   60.9890   29.6497   48.0185 H   0  0  0  0  0  0  0  0  0  0  0  0
   58.5595   28.7406   48.8378 H   0  0  0  0  0  0  0  0  0  0  0  0
   59.2806   29.3009   50.4186 H   0  0  0  0  0  0  0  0  0  0  0  0
   58.2690   30.8696   48.1192 H   0  0  0  0  0  0  0  0  0  0  0  0
   58.4590   31.2975   49.8762 H   0  0  0  0  0  0  0  0  0  0  0  0
   60.2506   32.6621   50.6141 H   0  0  0  0  0  0  0  0  0  0  0  0
   63.2729   33.7950   47.8229 H   0  0  0  0  0  0  0  0  0  0  0  0
   62.2971   32.2288   46.1278 H   0  0  0  0  0  0  0  0  0  0  0  0
   59.6113   29.7437   46.2529 H   0  0  0  0  0  0  0  0  0  0  0  0
   57.8116   32.1024   42.7420 H   0  0  0  0  0  0  0  0  0  0  0  0
  1  2  1  0
  2  3  1  0
  3  4  2  0
  4  5  1  0
  5  6  2  0
  6  7  1  0
  7  8  1  0
  8  9  2  0
  9 10  1  0
 10 11  2  0
 11 12  1  0
 12 13  2  0
 12 14  1  0
 14 15  1  0
 15 16  1  0
 16 17  1  0
 17 18  1  0
 18 19  2  0
 19 20  1  0
 20 21  2  0
 21 22  1  0
 22 23  2  0
 11 24  1  0
 24 25  2  0
  4 26  1  0
 26 27  2  0
 27  2  1  0
 25  5  1  0
 25  8  1  0
 23 18  1  0
  1 28  1  0
  1 29  1  0
  1 30  1  0
  3 31  1  0
  9 32  1  0
 10 33  1  0
 15 34  1  0
 15 35  1  0
 16 36  1  0
 16 37  1  0
 17 38  1  0
 17 39  1  0
 19 40  1  0
 21 41  1  0
 22 42  1  0
 24 43  1  0
 26 44  1  0
M  CHG  2   7  -1  14  -1
M  END
>  <UniqueID>  (21) 
21

>  <SMILES>  (21) 
Cn1cc(-c2n[n-]c3ccc(C(=O)[N-]CCCc4cnccn4)cc23)cn1

>  <Energy>  (21) 
110.32237276112667

>  <Genealogy>  (21) 
Cn1cc(-c2n[n-]c3ccc(C(=O)[N-]CCCc4cnccn4)cc23)cn1 (protonated)
Cn1cc(-c2n[n-]c3ccc(C(=O)[N-]CCCc4cnccn4)cc23)cn1 (3D coordinates assigned)
Cn1cc(-c2n[n-]c3ccc(C(=O)[N-]CCCc4cnccn4)cc23)cn1 (optimized conformer: 110.32237276112667 kcal/mol)

>  <smiles>  (21) 
Cn1cc(-c2n[nH]c3ccc(C(=O)NCCCc4cnccn4)cc23)cn1

>  <score_type>  (21) 
oracle

>  <origin>  (21) 
adg

>  <m_score__min__energy>  (21) 
-11.31

>  <m_primary>  (21) 
energy

$$$$
21:0
     RDKit          3D

 36 38  0  0  0  0  0  0  0  0999 V2000
   64.5170   33.0520   49.3530 C   0  0  0  0  0  0  0  0  0  0  0  0
   63.4560   33.6970   48.6570 O   0  0  0  0  0  0  0  0  0  0  0  0
   62.4170   33.0240   47.9980 C   0  0  0  0  0  0  0  0  0  0  0  0
   62.4420   31.6400   47.7670 C   0  0  0  0  0  0  0  0  0  0  0  0
   61.3830   31.0160   47.1040 C   0  0  0  0  0  0  0  0  0  0  0  0
   60.2910   31.7650   46.6210 C   0  0  0  0  0  0  0  0  0  0  0  0
   60.2470   33.1460   46.8920 C   0  0  0  0  0  0  0  0  0  0  0  0
   61.3150   33.7650   47.5660 C   0  0  0  0  0  0  0  0  0  0  0  0
   59.0730   33.9310   46.4700 C   0  0  0  0  0  0  0  0  0  0  0  0
   58.8980   35.0930   46.9300 O   0  0  0  0  0  0  0  0  0  0  0  0
   58.1340   33.3820   45.5240 N   0  0  0  0  0  0  0  0  0  0  0  0
   57.2050   34.3180   44.8740 C   0  0  0  0  0  0  0  0  0  0  0  0
   58.3430   32.0190   44.9850 C   0  0  2  0  0  0  0  0  0  0  0  0
   57.0000   31.3510   44.5760 C   0  0  0  0  0  0  0  0  0  0  0  0
   57.0610   29.8120   44.6100 C   0  0  0  0  0  0  0  0  0  0  0  0
   58.4070   29.3250   44.2930 N   0  0  0  0  0  0  0  0  0  0  0  0
   59.4040   29.7390   45.3010 C   0  0  0  0  0  0  0  0  0  0  0  0
   59.0750   31.0950   45.9950 C   0  0  1  0  0  0  0  0  0  0  0  0
   64.3570   33.1493   50.4369 H   0  0  0  0  0  0  0  0  0  0  0  0
   64.5404   31.9867   49.0800 H   0  0  0  0  0  0  0  0  0  0  0  0
   65.4735   33.5216   49.0800 H   0  0  0  0  0  0  0  0  0  0  0  0
   63.3002   31.0435   48.1099 H   0  0  0  0  0  0  0  0  0  0  0  0
   61.4013   29.9260   46.9569 H   0  0  0  0  0  0  0  0  0  0  0  0
   61.2818   34.8480   47.7555 H   0  0  0  0  0  0  0  0  0  0  0  0
   56.6503   34.8769   45.6421 H   0  0  0  0  0  0  0  0  0  0  0  0
   57.7723   35.0214   44.2468 H   0  0  0  0  0  0  0  0  0  0  0  0
   56.4973   33.7560   44.2468 H   0  0  0  0  0  0  0  0  0  0  0  0
   58.9756   32.1427   44.0936 H   0  0  0  0  0  0  0  0  0  0  0  0
   56.2154   31.6866   45.2701 H   0  0  0  0  0  0  0  0  0  0  0  0
   56.7849   31.6500   43.5395 H   0  0  0  0  0  0  0  0  0  0  0  0
   56.7818   29.4645   45.6156 H   0  0  0  0  0  0  0  0  0  0  0  0
   56.3634   29.4202   43.8552 H   0  0  0  0  0  0  0  0  0  0  0  0
   58.6860   29.7030   43.3570 H   0  0  0  0  0  0  0  0  0  0  0  0
   59.4592   28.9586   46.0743 H   0  0  0  0  0  0  0  0  0  0  0  0
   60.3574   29.8754   44.7697 H   0  0  0  0  0  0  0  0  0  0  0  0
   58.4074   30.8902   46.8449 H   0  0  0  0  0  0  0  0  0  0  0  0
  1  2  1  0
  2  3  1  0
  3  4  2  0
  4  5  1  0
  5  6  2  0
  6  7  1  0
  7  8  2  0
  7  9  1  0
  9 10  2  0
  9 11  1  0
 11 12  1  0
 11 13  1  0
 13 14  1  0
 14 15  1  0
 15 16  1  0
 16 17  1  0
 17 18  1  0
  8  3  1  0
 18 13  1  0
 18  6  1  0
  1 19  1  0
  1 20  1  0
  1 21  1  0
  4 22  1  0
  5 23  1  0
  8 24  1  0
 12 25  1  0
 12 26  1  0
 12 27  1  0
 13 28  1  6
 14 29  1  0
 14 30  1  0
 15 31  1  0
 15 32  1  0
 16 33  1  0
 17 34  1  0
 17 35  1  0
 18 36  1  1
M  END
>  <UniqueID>  (22) 
22

>  <SMILES>  (22) 
COc1ccc2c(c1)C(=O)N(C)[C@@H]1CCNC[C@@H]21

>  <Energy>  (22) 
50.16575326968605

>  <Genealogy>  (22) 
COc1ccc2c(c1)C(=O)N(C)[C@@H]1CCNC[C@@H]21 (chirality)
COc1ccc2c(c1)C(=O)N(C)[C@@H]1CCNC[C@@H]21 (3D coordinates assigned)
COc1ccc2c(c1)C(=O)N(C)[C@@H]1CCNC[C@@H]21 (nonaromatic ring conformer: 50.16575326968605 kcal/mol)

>  <smiles>  (22) 
COc1ccc2c(c1)C(=O)N(C)C1CCNCC21

>  <score_type>  (22) 
oracle

>  <origin>  (22) 
adg

>  <m_score__min__energy>  (22) 
-6.4199999999999999

>  <m_primary>  (22) 
energy

$$$$
22:0
     RDKit          3D

 51 52  0  0  0  0  0  0  0  0999 V2000
   64.8990   32.8120   49.5900 C   0  0  0  0  0  0  0  0  0  0  0  0
   64.1430   33.2250   48.3280 C   0  0  0  0  0  0  0  0  0  0  0  0
   63.0150   32.2520   47.8900 C   0  0  0  0  0  0  0  0  0  0  0  0
   61.6800   32.8430   47.5360 N   0  0  2  0  0  0  0  0  0  0  0  0
   61.7880   33.7740   46.3750 C   0  0  0  0  0  0  0  0  0  0  0  0
   60.3970   34.3540   46.0080 C   0  0  0  0  0  0  0  0  0  0  0  0
   59.3370   33.7470   46.8560 N   0  0  2  0  0  0  0  0  0  0  0  0
   57.9670   34.1960   46.4550 C   0  0  0  0  0  0  0  0  0  0  0  0
   57.3280   33.4290   45.2810 C   0  0  0  0  0  0  0  0  0  0  0  0
   58.2730   33.3370   44.2340 O   0  0  0  0  0  0  0  0  0  0  0  0
   57.8130   32.4670   43.2160 C   0  0  0  0  0  0  0  0  0  0  0  0
   57.7700   31.0270   43.7350 C   0  0  0  0  0  0  0  0  0  0  0  0
   56.5910   30.7930   44.4810 O   0  0  0  0  0  0  0  0  0  0  0  0
   56.2670   29.4190   44.4810 C   0  0  0  0  0  0  0  0  0  0  0  0
   57.4950   28.6170   44.0810 C   0  0  0  0  0  0  0  0  0  0  0  0
   59.6230   34.0550   48.2850 C   0  0  0  0  0  0  0  0  0  0  0  0
   61.0380   33.5520   48.6780 C   0  0  0  0  0  0  0  0  0  0  0  0
   59.3990   32.2680   46.6870 C   0  0  0  0  0  0  0  0  0  0  0  0
   60.7790   31.7280   47.1270 C   0  0  0  0  0  0  0  0  0  0  0  0
   64.3287   33.1235   50.4775 H   0  0  0  0  0  0  0  0  0  0  0  0
   65.0257   31.7194   49.6005 H   0  0  0  0  0  0  0  0  0  0  0  0
   65.8869   33.2958   49.6005 H   0  0  0  0  0  0  0  0  0  0  0  0
   63.6914   34.2117   48.5084 H   0  0  0  0  0  0  0  0  0  0  0  0
   64.8821   33.2250   47.5133 H   0  0  0  0  0  0  0  0  0  0  0  0
   63.3771   31.7061   47.0063 H   0  0  0  0  0  0  0  0  0  0  0  0
   62.8186   31.6361   48.7800 H   0  0  0  0  0  0  0  0  0  0  0  0
   62.4664   34.5997   46.6358 H   0  0  0  0  0  0  0  0  0  0  0  0
   62.1794   33.2180   45.5103 H   0  0  0  0  0  0  0  0  0  0  0  0
   60.4063   35.4427   46.1649 H   0  0  0  0  0  0  0  0  0  0  0  0
   60.1834   34.1235   44.9538 H   0  0  0  0  0  0  0  0  0  0  0  0
   57.3070   34.0877   47.3283 H   0  0  0  0  0  0  0  0  0  0  0  0
   58.0818   35.2334   46.1077 H   0  0  0  0  0  0  0  0  0  0  0  0
   57.0407   32.4196   45.6105 H   0  0  0  0  0  0  0  0  0  0  0  0
   56.4299   33.9589   44.9307 H   0  0  0  0  0  0  0  0  0  0  0  0
   56.8029   32.7722   42.9054 H   0  0  0  0  0  0  0  0  0  0  0  0
   58.5001   32.5206   42.3586 H   0  0  0  0  0  0  0  0  0  0  0  0
   57.7982   30.3353   42.8801 H   0  0  0  0  0  0  0  0  0  0  0  0
   58.6382   30.8642   44.3906 H   0  0  0  0  0  0  0  0  0  0  0  0
   55.9422   29.1174   45.4877 H   0  0  0  0  0  0  0  0  0  0  0  0
   55.4529   29.2308   43.7656 H   0  0  0  0  0  0  0  0  0  0  0  0
   58.0196   28.2744   44.9851 H   0  0  0  0  0  0  0  0  0  0  0  0
   57.1858   27.7462   43.4843 H   0  0  0  0  0  0  0  0  0  0  0  0
   58.1681   29.2502   43.4843 H   0  0  0  0  0  0  0  0  0  0  0  0
   59.5703   35.1430   48.4382 H   0  0  0  0  0  0  0  0  0  0  0  0
   58.8777   33.5464   48.9142 H   0  0  0  0  0  0  0  0  0  0  0  0
   61.6604   34.4124   48.9649 H   0  0  0  0  0  0  0  0  0  0  0  0
   60.9433   32.8519   49.5211 H   0  0  0  0  0  0  0  0  0  0  0  0
   58.6152   31.8007   47.3013 H   0  0  0  0  0  0  0  0  0  0  0  0
   59.2451   32.0254   45.6252 H   0  0  0  0  0  0  0  0  0  0  0  0
   60.6436   31.0437   47.9775 H   0  0  0  0  0  0  0  0  0  0  0  0
   61.2368   31.1992   46.2780 H   0  0  0  0  0  0  0  0  0  0  0  0
  1  2  1  0
  2  3  1  0
  4  3  1  1
  4  5  1  0
  5  6  1  0
  6  7  1  0
  7  8  1  6
  8  9  1  0
  9 10  1  0
 10 11  1  0
 11 12  1  0
 12 13  1  0
 13 14  1  0
 14 15  1  0
  7 16  1  0
 16 17  1  0
  7 18  1  0
 18 19  1  0
 17  4  1  0
 19  4  1  0
  1 20  1  0
  1 21  1  0
  1 22  1  0
  2 23  1  0
  2 24  1  0
  3 25  1  0
  3 26  1  0
  5 27  1  0
  5 28  1  0
  6 29  1  0
  6 30  1  0
  8 31  1  0
  8 32  1  0
  9 33  1  0
  9 34  1  0
 11 35  1  0
 11 36  1  0
 12 37  1  0
 12 38  1  0
 14 39  1  0
 14 40  1  0
 15 41  1  0
 15 42  1  0
 15 43  1  0
 16 44  1  0
 16 45  1  0
 17 46  1  0
 17 47  1  0
 18 48  1  0
 18 49  1  0
 19 50  1  0
 19 51  1  0
M  CHG  2   4   1   7   1
M  END
>  <UniqueID>  (23) 
23

>  <SMILES>  (23) 
CCC[N+]12CC[N+](CCOCCOCC)(CC1)CC2

>  <Energy>  (23) 
77.78656184591482

>  <Genealogy>  (23) 
CCC[N+]12CC[N+](CCOCCOCC)(CC1)CC2 (3D coordinates assigned)
CCC[N+]12CC[N+](CCOCCOCC)(CC1)CC2 (nonaromatic ring conformer: 77.78656184591482 kcal/mol)

>  <smiles>  (23) 
CCC[N+]12CC[N+](CCOCCOCC)(CC1)CC2

>  <score_type>  (23) 
oracle

>  <origin>  (23) 
adg

>  <m_score__min__energy>  (23) 
-3.1499999999999999

>  <m_primary>  (23) 
energy

$$$$
23:0
     RDKit          3D

 66 69  0  0  0  0  0  0  0  0999 V2000
   60.7040   27.3540   45.9640 C   0  0  0  0  0  0  0  0  0  0  0  0
   59.9020   26.9930   46.9680 C   0  0  0  0  0  0  0  0  0  0  0  0
   58.9220   27.9500   47.5960 C   0  0  0  0  0  0  0  0  0  0  0  0
   58.9170   29.2460   46.8980 N   0  0  0  0  0  0  0  0  0  0  0  0
   58.1620   29.5730   45.8040 C   0  0  0  0  0  0  0  0  0  0  0  0
   57.1820   28.8040   45.1230 C   0  0  0  0  0  0  0  0  0  0  0  0
   56.5920   27.2240   45.6260 Cl  0  0  0  0  0  0  0  0  0  0  0  0
   56.6130   29.3340   43.9520 C   0  0  0  0  0  0  0  0  0  0  0  0
   57.0250   30.5750   43.4490 C   0  0  0  0  0  0  0  0  0  0  0  0
   57.9920   31.3260   44.1210 C   0  0  0  0  0  0  0  0  0  0  0  0
   58.5160   30.8260   45.3220 C   0  0  0  0  0  0  0  0  0  0  0  0
   59.5090   31.3080   46.1640 C   0  0  0  0  0  0  0  0  0  0  0  0
   59.7580   30.3120   47.0910 C   0  0  0  0  0  0  0  0  0  0  0  0
   60.8010   30.4790   48.0280 C   0  0  0  0  0  0  0  0  0  0  0  0
   61.0340   29.5470   49.0880 N   0  0  0  0  0  0  0  0  0  0  0  0
   59.9780   29.2610   50.0610 C   0  0  0  0  0  0  0  0  0  0  0  0
   59.7470   30.4400   51.0200 C   0  0  0  0  0  0  0  0  0  0  0  0
   58.4420   31.1090   50.8010 N   0  0  0  0  0  0  0  0  0  0  0  0
   57.6440   31.3100   52.0350 C   0  0  0  0  0  0  0  0  0  0  0  0
   56.1970   30.8070   51.9350 C   0  0  0  0  0  0  0  0  0  0  0  0
   58.5810   32.3540   50.0040 C   0  0  0  0  0  0  0  0  0  0  0  0
   59.6260   33.2820   50.6360 C   0  0  0  0  0  0  0  0  0  0  0  0
   60.2760   34.2170   49.6090 C   0  0  0  0  0  0  0  0  0  0  0  0
   59.3120   34.5480   48.4740 C   0  0  0  0  0  0  0  0  0  0  0  0
   61.6280   31.6200   47.9040 C   0  0  0  0  0  0  0  0  0  0  0  0
   62.7740   31.7700   48.7100 C   0  0  0  0  0  0  0  0  0  0  0  0
   63.6010   32.8840   48.5760 C   0  0  0  0  0  0  0  0  0  0  0  0
   63.3100   33.8580   47.6280 C   0  0  0  0  0  0  0  0  0  0  0  0
   62.1850   33.7350   46.8130 C   0  0  0  0  0  0  0  0  0  0  0  0
   61.3080   32.6300   46.9440 C   0  0  0  0  0  0  0  0  0  0  0  0
   60.1750   32.5080   46.1610 N   0  0  0  0  0  0  0  0  0  0  0  0
   59.6400   33.6630   45.4180 C   0  0  0  0  0  0  0  0  0  0  0  0
   61.4063   26.6259   45.5320 H   0  0  0  0  0  0  0  0  0  0  0  0
   60.6626   28.3796   45.5685 H   0  0  0  0  0  0  0  0  0  0  0  0
   59.9583   25.9628   47.3496 H   0  0  0  0  0  0  0  0  0  0  0  0
   57.9136   27.5132   47.5476 H   0  0  0  0  0  0  0  0  0  0  0  0
   59.2233   28.1195   48.6403 H   0  0  0  0  0  0  0  0  0  0  0  0
   55.8332   28.7664   43.4231 H   0  0  0  0  0  0  0  0  0  0  0  0
   56.5837   30.9607   42.5181 H   0  0  0  0  0  0  0  0  0  0  0  0
   58.3355   32.2896   43.7167 H   0  0  0  0  0  0  0  0  0  0  0  0
   61.9950   29.1570   49.2060 H   0  0  0  0  0  0  0  0  0  0  0  0
   59.0428   29.0541   49.5202 H   0  0  0  0  0  0  0  0  0  0  0  0
   60.2914   28.3922   50.6584 H   0  0  0  0  0  0  0  0  0  0  0  0
   59.7810   30.0648   52.0535 H   0  0  0  0  0  0  0  0  0  0  0  0
   60.5366   31.1820   50.8303 H   0  0  0  0  0  0  0  0  0  0  0  0
   58.1398   30.7743   52.8580 H   0  0  0  0  0  0  0  0  0  0  0  0
   57.5913   32.3955   52.2052 H   0  0  0  0  0  0  0  0  0  0  0  0
   55.7876   30.6647   52.9460 H   0  0  0  0  0  0  0  0  0  0  0  0
   55.5884   31.5463   51.3937 H   0  0  0  0  0  0  0  0  0  0  0  0
   56.1782   29.8496   51.3937 H   0  0  0  0  0  0  0  0  0  0  0  0
   58.8963   32.0964   48.9821 H   0  0  0  0  0  0  0  0  0  0  0  0
   57.6112   32.8727   49.9820 H   0  0  0  0  0  0  0  0  0  0  0  0
   59.1351   33.8924   51.4083 H   0  0  0  0  0  0  0  0  0  0  0  0
   60.4191   32.6512   51.0639 H   0  0  0  0  0  0  0  0  0  0  0  0
   60.5728   35.1498   50.1108 H   0  0  0  0  0  0  0  0  0  0  0  0
   61.1535   33.7088   49.1827 H   0  0  0  0  0  0  0  0  0  0  0  0
   58.3505   34.8781   48.8941 H   0  0  0  0  0  0  0  0  0  0  0  0
   59.7369   35.3517   47.8547 H   0  0  0  0  0  0  0  0  0  0  0  0
   59.1535   33.6528   47.8547 H   0  0  0  0  0  0  0  0  0  0  0  0
   63.0191   30.9982   49.4544 H   0  0  0  0  0  0  0  0  0  0  0  0
   64.4852   32.9925   49.2214 H   0  0  0  0  0  0  0  0  0  0  0  0
   63.9708   34.7308   47.5200 H   0  0  0  0  0  0  0  0  0  0  0  0
   61.9756   34.5069   46.0578 H   0  0  0  0  0  0  0  0  0  0  0  0
   59.2872   34.4247   46.1288 H   0  0  0  0  0  0  0  0  0  0  0  0
   60.4317   34.0906   44.7853 H   0  0  0  0  0  0  0  0  0  0  0  0
   58.8018   33.3356   44.7853 H   0  0  0  0  0  0  0  0  0  0  0  0
  1  2  2  0
  2  3  1  0
  3  4  1  0
  4  5  1  0
  5  6  2  0
  6  7  1  0
  6  8  1  0
  8  9  2  0
  9 10  1  0
 10 11  2  0
 11 12  1  0
 12 13  2  0
 13 14  1  0
 14 15  1  0
 15 16  1  0
 16 17  1  0
 17 18  1  0
 18 19  1  0
 19 20  1  0
 18 21  1  0
 21 22  1  0
 22 23  1  0
 23 24  1  0
 14 25  2  0
 25 26  1  0
 26 27  2  0
 27 28  1  0
 28 29  2  0
 29 30  1  0
 30 31  2  0
 31 32  1  0
 13  4  1  0
 30 25  1  0
 11  5  1  0
 31 12  1  0
  1 33  1  0
  1 34  1  0
  2 35  1  0
  3 36  1  0
  3 37  1  0
  8 38  1  0
  9 39  1  0
 10 40  1  0
 15 41  1  0
 16 42  1  0
 16 43  1  0
 17 44  1  0
 17 45  1  0
 19 46  1  0
 19 47  1  0
 20 48  1  0
 20 49  1  0
 20 50  1  0
 21 51  1  0
 21 52  1  0
 22 53  1  0
 22 54  1  0
 23 55  1  0
 23 56  1  0
 24 57  1  0
 24 58  1  0
 24 59  1  0
 26 60  1  0
 27 61  1  0
 28 62  1  0
 29 63  1  0
 32 64  1  0
 32 65  1  0
 32 66  1  0
M  CHG  1  31   1
M  END
>  <UniqueID>  (24) 
24

>  <SMILES>  (24) 
C=CCn1c2c(Cl)cccc2c2c1c(NCCN(CC)CCCC)c1ccccc1[n+]2C

>  <Energy>  (24) 
133.05462084702557

>  <Genealogy>  (24) 
C=CCn1c2c(Cl)cccc2c2c1c(NCCN(CC)CCCC)c1ccccc1[n+]2C (3D coordinates assigned)
C=CCn1c2c(Cl)cccc2c2c1c(NCCN(CC)CCCC)c1ccccc1[n+]2C (optimized conformer: 133.05462084702557 kcal/mol)

>  <smiles>  (24) 
C=CCn1c2c(Cl)cccc2c2c1c(NCCN(CC)CCCC)c1ccccc1[n+]2C

>  <score_type>  (24) 
oracle

>  <origin>  (24) 
adg

>  <m_score__min__energy>  (24) 
-6.5199999999999996

>  <m_primary>  (24) 
energy

$$$$
