0:0
     RDKit          3D

 47 51  0  0  0  0  0  0  0  0999 V2000
   57.1310   23.0000   46.2480 C   0  0  0  0  0  0  0  0  0  0  0  0
   57.2530   24.4390   45.8390 C   0  0  0  0  0  0  0  0  0  0  0  0
   57.6920   24.7720   44.5500 C   0  0  0  0  0  0  0  0  0  0  0  0
   57.7700   26.1110   44.1540 C   0  0  0  0  0  0  0  0  0  0  0  0
   57.3940   27.1370   45.0390 C   0  0  0  0  0  0  0  0  0  0  0  0
   57.4790   28.5580   44.6250 C   0  0  0  0  0  0  0  0  0  0  0  0
   56.8460   29.0080   43.4490 C   0  0  0  0  0  0  0  0  0  0  0  0
   56.9340   30.3700   43.1040 C   0  0  0  0  0  0  0  0  0  0  0  0
   57.6320   31.2390   43.8880 N   0  0  0  0  0  0  0  0  0  0  0  0
   58.2450   30.7670   45.0010 C   0  0  0  0  0  0  0  0  0  0  0  0
   58.9920   31.4640   45.9270 C   0  0  0  0  0  0  0  0  0  0  0  0
   59.2260   32.9240   45.9680 C   0  0  0  0  0  0  0  0  0  0  0  0
   59.0070   33.7090   44.8240 C   0  0  0  0  0  0  0  0  0  0  0  0
   59.2200   35.0890   44.8640 C   0  0  0  0  0  0  0  0  0  0  0  0
   59.6460   35.6980   46.0480 C   0  0  0  0  0  0  0  0  0  0  0  0
   59.8530   37.0380   46.0850 F   0  0  0  0  0  0  0  0  0  0  0  0
   59.8570   34.9270   47.1930 C   0  0  0  0  0  0  0  0  0  0  0  0
   59.6440   33.5460   47.1570 C   0  0  0  0  0  0  0  0  0  0  0  0
   59.3560   30.4750   46.8540 C   0  0  0  0  0  0  0  0  0  0  0  0
   60.2180   30.6280   48.0440 C   0  0  0  0  0  0  0  0  0  0  0  0
   61.5320   31.0950   47.8970 C   0  0  0  0  0  0  0  0  0  0  0  0
   62.3400   31.2540   49.0260 C   0  0  0  0  0  0  0  0  0  0  0  0
   61.8500   30.9710   50.2630 N   0  0  0  0  0  0  0  0  0  0  0  0
   60.5720   30.5360   50.4370 C   0  0  0  0  0  0  0  0  0  0  0  0
   59.7320   30.3640   49.3340 C   0  0  0  0  0  0  0  0  0  0  0  0
   58.8360   29.2800   46.4790 N   0  0  0  0  0  0  0  0  0  0  0  0
   58.1610   29.4800   45.3590 N   0  0  0  0  0  0  0  0  0  0  0  0
   56.9460   26.7980   46.3260 C   0  0  0  0  0  0  0  0  0  0  0  0
   56.8670   25.4590   46.7200 C   0  0  0  0  0  0  0  0  0  0  0  0
   57.1251   22.9301   47.3458 H   0  0  0  0  0  0  0  0  0  0  0  0
   56.1943   22.5835   45.8490 H   0  0  0  0  0  0  0  0  0  0  0  0
   57.9842   22.4318   45.8490 H   0  0  0  0  0  0  0  0  0  0  0  0
   57.9766   23.9759   43.8463 H   0  0  0  0  0  0  0  0  0  0  0  0
   58.1274   26.3630   43.1447 H   0  0  0  0  0  0  0  0  0  0  0  0
   56.2912   28.3052   42.8100 H   0  0  0  0  0  0  0  0  0  0  0  0
   56.4353   30.7357   42.1943 H   0  0  0  0  0  0  0  0  0  0  0  0
   58.6660   33.2347   43.8919 H   0  0  0  0  0  0  0  0  0  0  0  0
   59.0523   35.6971   43.9629 H   0  0  0  0  0  0  0  0  0  0  0  0
   60.1913   35.4071   48.1245 H   0  0  0  0  0  0  0  0  0  0  0  0
   59.8042   32.9434   48.0632 H   0  0  0  0  0  0  0  0  0  0  0  0
   61.9248   31.3350   46.8979 H   0  0  0  0  0  0  0  0  0  0  0  0
   63.3751   31.6090   48.9141 H   0  0  0  0  0  0  0  0  0  0  0  0
   62.4660   31.0960   51.0980 H   0  0  0  0  0  0  0  0  0  0  0  0
   60.1995   30.3192   51.4491 H   0  0  0  0  0  0  0  0  0  0  0  0
   58.6956   30.0236   49.4757 H   0  0  0  0  0  0  0  0  0  0  0  0
   56.6550   27.5920   47.0294 H   0  0  0  0  0  0  0  0  0  0  0  0
   56.5005   25.2047   47.7255 H   0  0  0  0  0  0  0  0  0  0  0  0
  1  2  1  0
  2  3  2  0
  3  4  1  0
  4  5  2  0
  5  6  1  0
  6  7  2  0
  7  8  1  0
  8  9  2  0
  9 10  1  0
 10 11  2  0
 11 12  1  0
 12 13  2  0
 13 14  1  0
 14 15  2  0
 15 16  1  0
 15 17  1  0
 17 18  2  0
 11 19  1  0
 19 20  1  0
 20 21  2  0
 21 22  1  0
 22 23  2  0
 23 24  1  0
 24 25  2  0
 19 26  2  0
 26 27  1  0
  5 28  1  0
 28 29  2  0
 29  2  1  0
 27  6  1  0
 27 10  1  0
 18 12  1  0
 25 20  1  0
  1 30  1  0
  1 31  1  0
  1 32  1  0
  3 33  1  0
  4 34  1  0
  7 35  1  0
  8 36  1  0
 13 37  1  0
 14 38  1  0
 17 39  1  0
 18 40  1  0
 21 41  1  0
 22 42  1  0
 23 43  1  0
 24 44  1  0
 25 45  1  0
 28 46  1  0
 29 47  1  0
M  CHG  1  23   1
M  END
>  <UniqueID>  (1) 
1

>  <SMILES>  (1) 
Cc1ccc(-c2ccnc3c(-c4ccc(F)cc4)c(-c4cc[nH+]cc4)nn23)cc1

>  <Energy>  (1) 
103.99032825546102

>  <Genealogy>  (1) 
Cc1ccc(-c2ccnc3c(-c4ccc(F)cc4)c(-c4cc[nH+]cc4)nn23)cc1 (protonated)
Cc1ccc(-c2ccnc3c(-c4ccc(F)cc4)c(-c4cc[nH+]cc4)nn23)cc1 (3D coordinates assigned)
Cc1ccc(-c2ccnc3c(-c4ccc(F)cc4)c(-c4cc[nH+]cc4)nn23)cc1 (optimized conformer: 103.99032825546102 kcal/mol)

>  <smiles>  (1) 
Cc1ccc(-c2ccnc3c(-c4ccc(F)cc4)c(-c4ccncc4)nn23)cc1

>  <score_type>  (1) 
oracle

>  <origin>  (1) 
adg

>  <m_score__min__energy>  (1) 
-6.7599999999999998

>  <m_primary>  (1) 
energy

$$$$
1:0
     RDKit          3D

 38 41  0  0  0  0  0  0  0  0999 V2000
   56.9680   30.4740   52.3280 C   0  0  0  0  0  0  0  0  0  0  0  0
   57.7360   29.8310   51.3150 O   0  0  0  0  0  0  0  0  0  0  0  0
   58.6760   30.4820   50.5020 C   0  0  0  0  0  0  0  0  0  0  0  0
   58.5450   31.8310   50.1260 C   0  0  0  0  0  0  0  0  0  0  0  0
   59.5100   32.4320   49.3120 C   0  0  0  0  0  0  0  0  0  0  0  0
   60.6140   31.6980   48.8500 C   0  0  0  0  0  0  0  0  0  0  0  0
   61.6000   32.3410   48.0240 N   0  0  0  0  0  0  0  0  0  0  0  0
   62.8540   31.9320   47.9170 N   0  0  0  0  0  0  0  0  0  0  0  0
   63.5130   32.8020   47.1680 N   0  0  0  0  0  0  0  0  0  0  0  0
   62.7250   33.7980   46.7920 N   0  0  0  0  0  0  0  0  0  0  0  0
   61.5260   33.4960   47.3250 C   0  0  0  0  0  0  0  0  0  0  0  0
   60.1050   34.5920   47.2330 S   0  0  0  0  0  0  0  0  0  0  0  0
   59.6870   34.1610   45.5080 C   0  0  0  0  0  0  0  0  0  0  0  0
   59.0500   32.8050   45.4490 C   0  0  0  0  0  0  0  0  0  0  0  0
   57.7470   32.6420   44.9400 C   0  0  0  0  0  0  0  0  0  0  0  0
   57.1790   31.3620   44.9280 C   0  0  0  0  0  0  0  0  0  0  0  0
   56.0140   31.1900   44.4790 O   0  0  0  0  0  0  0  0  0  0  0  0
   57.9060   30.3150   45.4100 N   0  0  0  0  0  0  0  0  0  0  0  0
   57.5150   29.0120   45.4760 C   0  0  0  0  0  0  0  0  0  0  0  0
   58.4740   28.1600   46.0230 C   0  0  0  0  0  0  0  0  0  0  0  0
   59.8410   29.0700   46.4320 S   0  0  0  0  0  0  0  0  0  0  0  0
   59.1530   30.5010   45.8940 C   0  0  0  0  0  0  0  0  0  0  0  0
   59.7330   31.7240   45.9250 N   0  0  0  0  0  0  0  0  0  0  0  0
   60.7500   30.3570   49.2420 C   0  0  0  0  0  0  0  0  0  0  0  0
   59.7850   29.7560   50.0570 C   0  0  0  0  0  0  0  0  0  0  0  0
   57.3358   30.1661   53.3179 H   0  0  0  0  0  0  0  0  0  0  0  0
   57.0642   31.5649   52.2241 H   0  0  0  0  0  0  0  0  0  0  0  0
   55.9110   30.1876   52.2241 H   0  0  0  0  0  0  0  0  0  0  0  0
   57.6803   32.4153   50.4736 H   0  0  0  0  0  0  0  0  0  0  0  0
   59.4031   33.4901   49.0309 H   0  0  0  0  0  0  0  0  0  0  0  0
   64.5250   32.7240   46.9240 H   0  0  0  0  0  0  0  0  0  0  0  0
   58.9867   34.9084   45.1069 H   0  0  0  0  0  0  0  0  0  0  0  0
   60.6096   34.1487   44.9091 H   0  0  0  0  0  0  0  0  0  0  0  0
   57.1843   33.5065   44.5579 H   0  0  0  0  0  0  0  0  0  0  0  0
   56.5312   28.6631   45.1290 H   0  0  0  0  0  0  0  0  0  0  0  0
   58.3606   27.0751   46.1652 H   0  0  0  0  0  0  0  0  0  0  0  0
   61.6210   29.7751   48.9062 H   0  0  0  0  0  0  0  0  0  0  0  0
   59.8997   28.7021   50.3506 H   0  0  0  0  0  0  0  0  0  0  0  0
  1  2  1  0
  2  3  1  0
  3  4  2  0
  4  5  1  0
  5  6  2  0
  6  7  1  0
  7  8  1  0
  8  9  2  0
  9 10  1  0
 10 11  2  0
 11 12  1  0
 12 13  1  0
 13 14  1  0
 14 15  2  0
 15 16  1  0
 16 17  2  0
 16 18  1  0
 18 19  1  0
 19 20  2  0
 20 21  1  0
 21 22  1  0
 22 23  2  0
  6 24  1  0
 24 25  2  0
 25  3  1  0
 11  7  1  0
 23 14  1  0
 22 18  1  0
  1 26  1  0
  1 27  1  0
  1 28  1  0
  4 29  1  0
  5 30  1  0
  9 31  1  0
 13 32  1  0
 13 33  1  0
 15 34  1  0
 19 35  1  0
 20 36  1  0
 24 37  1  0
 25 38  1  0
M  CHG  1   9   1
M  END
>  <UniqueID>  (2) 
2

>  <SMILES>  (2) 
COc1ccc(-n2n[nH+]nc2SCc2cc(=O)n3ccsc3n2)cc1

>  <Energy>  (2) 
118.11784834609396

>  <Genealogy>  (2) 
COc1ccc(-n2n[nH+]nc2SCc2cc(=O)n3ccsc3n2)cc1 (protonated)
COc1ccc(-n2n[nH+]nc2SCc2cc(=O)n3ccsc3n2)cc1 (3D coordinates assigned)
COc1ccc(-n2n[nH+]nc2SCc2cc(=O)n3ccsc3n2)cc1 (optimized conformer: 118.11784834609396 kcal/mol)

>  <smiles>  (2) 
COc1ccc(-n2nnnc2SCc2cc(=O)n3ccsc3n2)cc1

>  <score_type>  (2) 
oracle

>  <origin>  (2) 
adg

>  <m_score__min__energy>  (2) 
-7.3700000000000001

>  <m_primary>  (2) 
energy

$$$$
2:0
     RDKit          3D

 48 51  0  0  0  0  0  0  0  0999 V2000
   56.2440   29.7300   42.6580 C   0  0  0  0  0  0  0  0  0  0  0  0
   55.1460   29.7120   43.7180 C   0  0  0  0  0  0  0  0  0  0  0  0
   55.6410   29.1560   44.9760 N   0  0  0  0  0  0  0  0  0  0  0  0
   56.9850   29.1850   45.4790 C   0  0  0  0  0  0  0  0  0  0  0  0
   57.5460   28.0870   45.7370 O   0  0  0  0  0  0  0  0  0  0  0  0
   57.7440   30.4340   45.7140 C   0  0  0  0  0  0  0  0  0  0  0  0
   57.6200   31.5900   44.9390 C   0  0  0  0  0  0  0  0  0  0  0  0
   58.3990   32.6510   45.4170 C   0  0  0  0  0  0  0  0  0  0  0  0
   58.4720   33.9310   44.8610 C   0  0  0  0  0  0  0  0  0  0  0  0
   59.2850   34.8940   45.4780 C   0  0  0  0  0  0  0  0  0  0  0  0
   60.0170   34.5730   46.6370 C   0  0  0  0  0  0  0  0  0  0  0  0
   59.9480   33.2810   47.1880 C   0  0  0  0  0  0  0  0  0  0  0  0
   60.6980   32.9510   48.3660 N   0  0  0  0  0  0  0  0  0  0  0  0
   60.6210   33.8190   49.5480 C   0  0  0  0  0  0  0  0  0  0  0  0
   62.0310   34.1590   50.0460 C   0  0  0  0  0  0  0  0  0  0  0  0
   62.9130   32.9790   50.0290 N   0  0  0  0  0  0  0  0  0  0  0  0
   64.3140   33.1410   50.3140 C   0  0  0  0  0  0  0  0  0  0  0  0
   64.7270   33.8560   51.4500 C   0  0  0  0  0  0  0  0  0  0  0  0
   66.0900   33.9920   51.7190 C   0  0  0  0  0  0  0  0  0  0  0  0
   67.0280   33.4170   50.8620 C   0  0  0  0  0  0  0  0  0  0  0  0
   66.5850   32.7080   49.7440 C   0  0  0  0  0  0  0  0  0  0  0  0
   65.2520   32.5810   49.4940 N   0  0  0  0  0  0  0  0  0  0  0  0
   62.3710   31.6650   49.6600 C   0  0  0  0  0  0  0  0  0  0  0  0
   61.5880   31.7810   48.3490 C   0  0  0  0  0  0  0  0  0  0  0  0
   59.1260   32.3420   46.5570 C   0  0  0  0  0  0  0  0  0  0  0  0
   58.7940   30.7570   47.0030 S   0  0  0  0  0  0  0  0  0  0  0  0
   57.2279   29.7461   43.1495 H   0  0  0  0  0  0  0  0  0  0  0  0
   56.1624   28.8304   42.0303 H   0  0  0  0  0  0  0  0  0  0  0  0
   56.1330   30.6264   42.0303 H   0  0  0  0  0  0  0  0  0  0  0  0
   54.7971   30.7406   43.8920 H   0  0  0  0  0  0  0  0  0  0  0  0
   54.3206   29.0809   43.3568 H   0  0  0  0  0  0  0  0  0  0  0  0
   56.9786   31.6593   44.0480 H   0  0  0  0  0  0  0  0  0  0  0  0
   57.9012   34.1797   43.9541 H   0  0  0  0  0  0  0  0  0  0  0  0
   59.3508   35.9066   45.0533 H   0  0  0  0  0  0  0  0  0  0  0  0
   60.6470   35.3378   47.1147 H   0  0  0  0  0  0  0  0  0  0  0  0
   60.0949   34.7481   49.2833 H   0  0  0  0  0  0  0  0  0  0  0  0
   60.0750   33.2934   50.3452 H   0  0  0  0  0  0  0  0  0  0  0  0
   62.4612   34.9353   49.3962 H   0  0  0  0  0  0  0  0  0  0  0  0
   61.9522   34.5139   51.0842 H   0  0  0  0  0  0  0  0  0  0  0  0
   63.9819   34.3056   52.1229 H   0  0  0  0  0  0  0  0  0  0  0  0
   66.4236   34.5517   52.6053 H   0  0  0  0  0  0  0  0  0  0  0  0
   68.1042   33.5209   51.0646 H   0  0  0  0  0  0  0  0  0  0  0  0
   67.3159   32.2497   49.0616 H   0  0  0  0  0  0  0  0  0  0  0  0
   64.9560   32.0570   48.6410 H   0  0  0  0  0  0  0  0  0  0  0  0
   63.1980   30.9513   49.5304 H   0  0  0  0  0  0  0  0  0  0  0  0
   61.6995   31.3106   50.4560 H   0  0  0  0  0  0  0  0  0  0  0  0
   62.2975   31.8814   47.5144 H   0  0  0  0  0  0  0  0  0  0  0  0
   60.9739   30.8765   48.2276 H   0  0  0  0  0  0  0  0  0  0  0  0
  1  2  1  0
  2  3  1  0
  3  4  1  0
  4  5  2  0
  4  6  1  0
  6  7  2  0
  7  8  1  0
  8  9  2  0
  9 10  1  0
 10 11  2  0
 11 12  1  0
 12 13  1  0
 13 14  1  0
 14 15  1  0
 15 16  1  0
 16 17  1  0
 17 18  2  0
 18 19  1  0
 19 20  2  0
 20 21  1  0
 21 22  2  0
 16 23  1  0
 23 24  1  0
 12 25  2  0
 25 26  1  0
 26  6  1  0
 25  8  1  0
 24 13  1  0
 22 17  1  0
  1 27  1  0
  1 28  1  0
  1 29  1  0
  2 30  1  0
  2 31  1  0
  7 32  1  0
  9 33  1  0
 10 34  1  0
 11 35  1  0
 14 36  1  0
 14 37  1  0
 15 38  1  0
 15 39  1  0
 18 40  1  0
 19 41  1  0
 20 42  1  0
 21 43  1  0
 22 44  1  0
 23 45  1  0
 23 46  1  0
 24 47  1  0
 24 48  1  0
M  CHG  2   3  -1  22   1
M  END
>  <UniqueID>  (3) 
3

>  <SMILES>  (3) 
CC[N-]C(=O)c1cc2cccc(N3CCN(c4cccc[nH+]4)CC3)c2s1

>  <Energy>  (3) 
91.06165446777884

>  <Genealogy>  (3) 
CC[N-]C(=O)c1cc2cccc(N3CCN(c4cccc[nH+]4)CC3)c2s1 (protonated)
CC[N-]C(=O)c1cc2cccc(N3CCN(c4cccc[nH+]4)CC3)c2s1 (3D coordinates assigned)
CC[N-]C(=O)c1cc2cccc(N3CCN(c4cccc[nH+]4)CC3)c2s1 (nonaromatic ring conformer: 91.06165446777884 kcal/mol)

>  <smiles>  (3) 
CCNC(=O)c1cc2cccc(N3CCN(c4ccccn4)CC3)c2s1

>  <score_type>  (3) 
oracle

>  <origin>  (3) 
adg

>  <m_score__min__energy>  (3) 
-9.3300000000000001

>  <m_primary>  (3) 
energy

$$$$
3:0
     RDKit          3D

 62 65  0  0  0  0  0  0  0  0999 V2000
   59.3360   35.2950   45.2770 C   0  0  0  0  0  0  0  0  0  0  0  0
   59.6650   35.4270   46.7590 C   0  0  0  0  0  0  0  0  0  0  0  0
   60.2980   34.1730   47.2450 N   0  0  0  0  0  0  0  0  0  0  0  0
   61.4350   33.7650   46.3890 C   0  0  0  0  0  0  0  0  0  0  0  0
   62.6860   33.5240   47.2350 C   0  0  0  0  0  0  0  0  0  0  0  0
   60.7230   34.2760   48.6600 C   0  0  0  0  0  0  0  0  0  0  0  0
   60.1800   33.1060   49.4970 C   0  0  0  0  0  0  0  0  0  0  0  0
   58.8630   32.6720   49.0020 N   0  0  0  0  0  0  0  0  0  0  0  0
   58.9910   31.5200   48.1240 C   0  0  0  0  0  0  0  0  0  0  0  0
   59.5590   30.3110   48.6020 C   0  0  0  0  0  0  0  0  0  0  0  0
   59.8270   30.1020   49.9780 C   0  0  0  0  0  0  0  0  0  0  0  0
   60.4040   28.9140   50.4240 C   0  0  0  0  0  0  0  0  0  0  0  0
   60.7220   27.9110   49.5200 C   0  0  0  0  0  0  0  0  0  0  0  0
   60.4650   28.0860   48.1630 C   0  0  0  0  0  0  0  0  0  0  0  0
   59.8840   29.2840   47.6760 C   0  0  0  0  0  0  0  0  0  0  0  0
   59.6380   29.4600   46.3320 N   0  0  0  0  0  0  0  0  0  0  0  0
   60.4000   28.6560   45.3530 C   0  0  0  0  0  0  0  0  0  0  0  0
   58.7870   30.4630   45.9140 C   0  0  0  0  0  0  0  0  0  0  0  0
   58.1550   30.4420   44.6310 C   0  0  0  0  0  0  0  0  0  0  0  0
   58.0950   29.2610   43.8170 N   0  0  0  0  0  0  0  0  0  0  0  0
   57.7190   27.9620   44.3140 C   0  0  0  0  0  0  0  0  0  0  0  0
   57.0110   27.8040   45.5240 C   0  0  0  0  0  0  0  0  0  0  0  0
   56.6660   26.5270   45.9770 C   0  0  0  0  0  0  0  0  0  0  0  0
   57.0140   25.4000   45.2290 C   0  0  0  0  0  0  0  0  0  0  0  0
   57.7060   25.5460   44.0260 C   0  0  0  0  0  0  0  0  0  0  0  0
   58.0560   26.8200   43.5710 C   0  0  0  0  0  0  0  0  0  0  0  0
   57.4620   31.5650   44.1730 C   0  0  0  0  0  0  0  0  0  0  0  0
   57.2910   32.6720   44.9900 C   0  0  0  0  0  0  0  0  0  0  0  0
   57.7830   32.6630   46.2900 C   0  0  0  0  0  0  0  0  0  0  0  0
   58.5220   31.5620   46.7830 C   0  0  0  0  0  0  0  0  0  0  0  0
   58.3207   34.8877   45.1617 H   0  0  0  0  0  0  0  0  0  0  0  0
   59.3904   36.2846   44.7998 H   0  0  0  0  0  0  0  0  0  0  0  0
   60.0593   34.6175   44.7998 H   0  0  0  0  0  0  0  0  0  0  0  0
   60.3589   36.2677   46.9061 H   0  0  0  0  0  0  0  0  0  0  0  0
   58.7385   35.6099   47.3231 H   0  0  0  0  0  0  0  0  0  0  0  0
   61.1734   32.8378   45.8581 H   0  0  0  0  0  0  0  0  0  0  0  0
   61.6435   34.5698   45.6687 H   0  0  0  0  0  0  0  0  0  0  0  0
   62.4226   33.5747   48.3018 H   0  0  0  0  0  0  0  0  0  0  0  0
   63.0977   32.5300   47.0059 H   0  0  0  0  0  0  0  0  0  0  0  0
   63.4375   34.2939   47.0059 H   0  0  0  0  0  0  0  0  0  0  0  0
   61.8221   34.2680   48.7048 H   0  0  0  0  0  0  0  0  0  0  0  0
   60.3216   35.2127   49.0741 H   0  0  0  0  0  0  0  0  0  0  0  0
   60.8835   32.2626   49.4358 H   0  0  0  0  0  0  0  0  0  0  0  0
   60.0707   33.4406   50.5391 H   0  0  0  0  0  0  0  0  0  0  0  0
   58.3810   33.4550   48.5070 H   0  0  0  0  0  0  0  0  0  0  0  0
   58.2240   32.4600   49.8030 H   0  0  0  0  0  0  0  0  0  0  0  0
   59.5760   30.8888   50.7046 H   0  0  0  0  0  0  0  0  0  0  0  0
   60.6077   28.7715   51.4955 H   0  0  0  0  0  0  0  0  0  0  0  0
   61.1781   26.9755   49.8761 H   0  0  0  0  0  0  0  0  0  0  0  0
   60.7170   27.2812   47.4567 H   0  0  0  0  0  0  0  0  0  0  0  0
   61.0614   27.9581   45.8873 H   0  0  0  0  0  0  0  0  0  0  0  0
   59.7009   28.0880   44.7216 H   0  0  0  0  0  0  0  0  0  0  0  0
   61.0047   29.3237   44.7216 H   0  0  0  0  0  0  0  0  0  0  0  0
   58.1520   29.3920   42.7800 H   0  0  0  0  0  0  0  0  0  0  0  0
   56.7293   28.6890   46.1134 H   0  0  0  0  0  0  0  0  0  0  0  0
   56.1194   26.4097   46.9244 H   0  0  0  0  0  0  0  0  0  0  0  0
   56.7424   24.3965   45.5885 H   0  0  0  0  0  0  0  0  0  0  0  0
   57.9760   24.6579   43.4357 H   0  0  0  0  0  0  0  0  0  0  0  0
   58.6008   26.9289   42.6216 H   0  0  0  0  0  0  0  0  0  0  0  0
   57.0478   31.5711   43.1540 H   0  0  0  0  0  0  0  0  0  0  0  0
   56.7648   33.5595   44.6086 H   0  0  0  0  0  0  0  0  0  0  0  0
   57.5947   33.5257   46.9459 H   0  0  0  0  0  0  0  0  0  0  0  0
  1  2  1  0
  2  3  1  0
  3  4  1  0
  4  5  1  0
  3  6  1  0
  6  7  1  0
  7  8  1  0
  8  9  1  0
  9 10  2  0
 10 11  1  0
 11 12  2  0
 12 13  1  0
 13 14  2  0
 14 15  1  0
 15 16  2  0
 16 17  1  0
 16 18  1  0
 18 19  2  0
 19 20  1  0
 20 21  1  0
 21 22  2  0
 22 23  1  0
 23 24  2  0
 24 25  1  0
 25 26  2  0
 19 27  1  0
 27 28  2  0
 28 29  1  0
 29 30  2  0
 30  9  1  0
 15 10  1  0
 30 18  1  0
 26 21  1  0
  1 31  1  0
  1 32  1  0
  1 33  1  0
  2 34  1  0
  2 35  1  0
  4 36  1  0
  4 37  1  0
  5 38  1  0
  5 39  1  0
  5 40  1  0
  6 41  1  0
  6 42  1  0
  7 43  1  0
  7 44  1  0
  8 45  1  0
  8 46  1  0
 11 47  1  0
 12 48  1  0
 13 49  1  0
 14 50  1  0
 17 51  1  0
 17 52  1  0
 17 53  1  0
 20 54  1  0
 22 55  1  0
 23 56  1  0
 24 57  1  0
 25 58  1  0
 26 59  1  0
 27 60  1  0
 28 61  1  0
 29 62  1  0
M  CHG  2   8   1  16   1
M  END
>  <UniqueID>  (4) 
4

>  <SMILES>  (4) 
CCN(CC)CC[NH2+]c1c2ccccc2[n+](C)c2c(Nc3ccccc3)cccc12

>  <Energy>  (4) 
102.5952681588914

>  <Genealogy>  (4) 
CCN(CC)CC[NH2+]c1c2ccccc2[n+](C)c2c(Nc3ccccc3)cccc12 (protonated)
CCN(CC)CC[NH2+]c1c2ccccc2[n+](C)c2c(Nc3ccccc3)cccc12 (3D coordinates assigned)
CCN(CC)CC[NH2+]c1c2ccccc2[n+](C)c2c(Nc3ccccc3)cccc12 (optimized conformer: 102.5952681588914 kcal/mol)

>  <smiles>  (4) 
CCN(CC)CCNc1c2ccccc2[n+](C)c2c(Nc3ccccc3)cccc12

>  <score_type>  (4) 
oracle

>  <origin>  (4) 
adg

>  <m_score__min__energy>  (4) 
-5.2599999999999998

>  <m_primary>  (4) 
energy

$$$$
4:0
     RDKit          3D

 31 33  0  0  0  0  0  0  0  0999 V2000
   55.1400   29.3360   44.8640 N   0  0  0  0  0  0  0  0  0  0  0  0
   56.7290   30.0010   44.7250 S   0  0  0  0  0  0  0  0  0  0  0  0
   56.6250   31.4690   44.4200 O   0  0  0  0  0  0  0  0  0  0  0  0
   57.4610   29.3040   43.6120 O   0  0  0  0  0  0  0  0  0  0  0  0
   57.5630   29.7730   46.2010 O   0  0  0  0  0  0  0  0  0  0  0  0
   58.7750   30.3920   46.5380 C   0  0  0  0  0  0  0  0  0  0  0  0
   59.9260   29.6000   46.5970 C   0  0  0  0  0  0  0  0  0  0  0  0
   61.1590   30.1630   46.9390 C   0  0  0  0  0  0  0  0  0  0  0  0
   61.2580   31.5310   47.2380 C   0  0  0  0  0  0  0  0  0  0  0  0
   60.1130   32.3340   47.1450 C   0  0  0  0  0  0  0  0  0  0  0  0
   58.8750   31.7670   46.8180 C   0  0  0  0  0  0  0  0  0  0  0  0
   60.2070   34.0750   47.5260 S   0  0  0  0  0  0  0  0  0  0  0  0
   60.4710   33.7050   49.2870 C   0  0  0  0  0  0  0  0  0  0  0  0
   61.9420   33.5790   49.6180 C   0  0  0  0  0  0  0  0  0  0  0  0
   62.3740   34.2040   50.8060 C   0  0  0  0  0  0  0  0  0  0  0  0
   63.7060   34.1490   51.2070 C   0  0  0  0  0  0  0  0  0  0  0  0
   64.6360   33.4620   50.4360 C   0  0  0  0  0  0  0  0  0  0  0  0
   64.2350   32.8180   49.2680 C   0  0  0  0  0  0  0  0  0  0  0  0
   62.8910   32.8450   48.8340 C   0  0  0  0  0  0  0  0  0  0  0  0
   62.5820   32.0990   47.5690 C   0  0  0  0  0  0  0  0  0  0  0  0
   63.5180   31.8730   46.7550 O   0  0  0  0  0  0  0  0  0  0  0  0
   55.1660   28.6520   45.6520 H   0  0  0  0  0  0  0  0  0  0  0  0
   59.8606   28.5251   46.3725 H   0  0  0  0  0  0  0  0  0  0  0  0
   62.0578   29.5297   46.9741 H   0  0  0  0  0  0  0  0  0  0  0  0
   57.9762   32.4000   46.7799 H   0  0  0  0  0  0  0  0  0  0  0  0
   60.0380   34.5164   49.8905 H   0  0  0  0  0  0  0  0  0  0  0  0
   59.9854   32.7440   49.5120 H   0  0  0  0  0  0  0  0  0  0  0  0
   61.6451   34.7450   51.4273 H   0  0  0  0  0  0  0  0  0  0  0  0
   64.0224   34.6493   52.1341 H   0  0  0  0  0  0  0  0  0  0  0  0
   65.6901   33.4268   50.7486 H   0  0  0  0  0  0  0  0  0  0  0  0
   64.9821   32.2759   48.6697 H   0  0  0  0  0  0  0  0  0  0  0  0
  1  2  1  0
  2  3  2  0
  2  4  2  0
  2  5  1  0
  5  6  1  0
  6  7  2  0
  7  8  1  0
  8  9  2  0
  9 10  1  0
 10 11  2  0
 10 12  1  0
 12 13  1  0
 13 14  1  0
 14 15  2  0
 15 16  1  0
 16 17  2  0
 17 18  1  0
 18 19  2  0
 19 20  1  0
 20 21  2  0
 11  6  1  0
 19 14  1  0
 20  9  1  0
  1 22  1  0
  7 23  1  0
  8 24  1  0
 11 25  1  0
 13 26  1  0
 13 27  1  0
 15 28  1  0
 16 29  1  0
 17 30  1  0
 18 31  1  0
M  CHG  1   1  -1
M  END
>  <UniqueID>  (5) 
5

>  <SMILES>  (5) 
[NH-]S(=O)(=O)Oc1ccc2c(c1)SCc1ccccc1C2=O

>  <Energy>  (5) 
48.09411494312958

>  <Genealogy>  (5) 
[NH-]S(=O)(=O)Oc1ccc2c(c1)SCc1ccccc1C2=O (protonated)
[NH-]S(=O)(=O)Oc1ccc2c(c1)SCc1ccccc1C2=O (3D coordinates assigned)
[NH-]S(=O)(=O)Oc1ccc2c(c1)SCc1ccccc1C2=O (nonaromatic ring conformer: 48.09411494312958 kcal/mol)

>  <smiles>  (5) 
NS(=O)(=O)Oc1ccc2c(c1)SCc1ccccc1C2=O

>  <score_type>  (5) 
oracle

>  <origin>  (5) 
adg

>  <m_score__min__energy>  (5) 
-10.710000000000001

>  <m_primary>  (5) 
energy

$$$$
5:0
     RDKit          3D

 47 49  0  0  0  0  0  0  0  0999 V2000
   64.9000   32.7570   49.6700 C   0  0  0  0  0  0  0  0  0  0  0  0
   63.6250   32.6660   49.0770 O   0  0  0  0  0  0  0  0  0  0  0  0
   63.7560   32.1930   47.7530 C   0  0  0  0  0  0  0  0  0  0  0  0
   63.6110   33.3550   46.7690 C   0  0  0  0  0  0  0  0  0  0  0  0
   62.2490   33.5480   46.3820 O   0  0  0  0  0  0  0  0  0  0  0  0
   61.1880   33.9010   47.2300 C   0  0  0  0  0  0  0  0  0  0  0  0
   61.3120   33.8460   48.5690 N   0  0  0  0  0  0  0  0  0  0  0  0
   60.1150   34.2100   49.0600 C   0  0  0  0  0  0  0  0  0  0  0  0
   59.2690   34.4740   48.0070 C   0  0  0  0  0  0  0  0  0  0  0  0
   59.9400   34.2850   46.8510 N   0  0  0  0  0  0  0  0  0  0  0  0
   59.3230   34.3140   45.5230 C   0  0  0  0  0  0  0  0  0  0  0  0
   58.0630   33.4300   45.4810 C   0  0  2  0  0  0  0  0  0  0  0  0
   58.3840   31.9580   45.8360 C   0  0  0  0  0  0  0  0  0  0  0  0
   57.3900   31.0850   45.1920 N   0  0  0  0  0  0  0  0  0  0  0  0
   57.5480   29.6800   45.6160 C   0  0  0  0  0  0  0  0  0  0  0  0
   58.3400   28.8910   44.5650 C   0  0  0  0  0  0  0  0  0  0  0  0
   59.8290   28.7870   44.8570 C   0  0  0  0  0  0  0  0  0  0  0  0
   58.9380   27.5670   45.0190 C   0  0  0  0  0  0  0  0  0  0  0  0
   57.4980   31.1970   43.7210 C   0  0  0  0  0  0  0  0  0  0  0  0
   57.8220   32.6390   43.2810 C   0  0  0  0  0  0  0  0  0  0  0  0
   57.3780   33.5780   44.2400 O   0  0  0  0  0  0  0  0  0  0  0  0
   64.7964   32.7496   50.7651 H   0  0  0  0  0  0  0  0  0  0  0  0
   65.5134   31.9003   49.3539 H   0  0  0  0  0  0  0  0  0  0  0  0
   65.3855   33.6921   49.3539 H   0  0  0  0  0  0  0  0  0  0  0  0
   64.7458   31.7298   47.6273 H   0  0  0  0  0  0  0  0  0  0  0  0
   62.9700   31.4496   47.5543 H   0  0  0  0  0  0  0  0  0  0  0  0
   63.9808   34.2749   47.2455 H   0  0  0  0  0  0  0  0  0  0  0  0
   64.1952   33.1182   45.8675 H   0  0  0  0  0  0  0  0  0  0  0  0
   62.1580   33.5700   49.1140 H   0  0  0  0  0  0  0  0  0  0  0  0
   59.8548   34.2845   50.1262 H   0  0  0  0  0  0  0  0  0  0  0  0
   58.2182   34.7876   48.0933 H   0  0  0  0  0  0  0  0  0  0  0  0
   59.0443   35.3496   45.2783 H   0  0  0  0  0  0  0  0  0  0  0  0
   60.0474   33.9269   44.7913 H   0  0  0  0  0  0  0  0  0  0  0  0
   57.3701   33.7771   46.2617 H   0  0  0  0  0  0  0  0  0  0  0  0
   59.3905   31.7018   45.4736 H   0  0  0  0  0  0  0  0  0  0  0  0
   58.3489   31.8215   46.9269 H   0  0  0  0  0  0  0  0  0  0  0  0
   58.0866   29.6489   46.5746 H   0  0  0  0  0  0  0  0  0  0  0  0
   56.5521   29.2264   45.7276 H   0  0  0  0  0  0  0  0  0  0  0  0
   57.7184   29.1990   43.7113 H   0  0  0  0  0  0  0  0  0  0  0  0
   60.5554   28.8316   44.0322 H   0  0  0  0  0  0  0  0  0  0  0  0
   60.5333   29.3270   45.5069 H   0  0  0  0  0  0  0  0  0  0  0  0
   59.0192   26.7288   44.3113 H   0  0  0  0  0  0  0  0  0  0  0  0
   58.7300   26.8585   45.8344 H   0  0  0  0  0  0  0  0  0  0  0  0
   58.2985   30.5290   43.3705 H   0  0  0  0  0  0  0  0  0  0  0  0
   56.5290   30.9146   43.2836 H   0  0  0  0  0  0  0  0  0  0  0  0
   58.9103   32.7403   43.1567 H   0  0  0  0  0  0  0  0  0  0  0  0
   57.3030   32.8385   42.3319 H   0  0  0  0  0  0  0  0  0  0  0  0
  1  2  1  0
  2  3  1  0
  3  4  1  0
  4  5  1  0
  5  6  1  0
  6  7  2  0
  7  8  1  0
  8  9  2  0
  9 10  1  0
 10 11  1  0
 11 12  1  0
 12 13  1  0
 13 14  1  0
 14 15  1  0
 15 16  1  0
 16 17  1  0
 17 18  1  0
 14 19  1  0
 19 20  1  0
 20 21  1  0
 10  6  1  0
 21 12  1  0
 18 16  1  0
  1 22  1  0
  1 23  1  0
  1 24  1  0
  3 25  1  0
  3 26  1  0
  4 27  1  0
  4 28  1  0
  7 29  1  0
  8 30  1  0
  9 31  1  0
 11 32  1  0
 11 33  1  0
 12 34  1  1
 13 35  1  0
 13 36  1  0
 15 37  1  0
 15 38  1  0
 16 39  1  0
 17 40  1  0
 17 41  1  0
 18 42  1  0
 18 43  1  0
 19 44  1  0
 19 45  1  0
 20 46  1  0
 20 47  1  0
M  CHG  1   7   1
M  END
>  <UniqueID>  (6) 
6

>  <SMILES>  (6) 
COCCOc1[nH+]ccn1C[C@@H]1CN(CC2CC2)CCO1

>  <Energy>  (6) 
352.2942013088771

>  <Genealogy>  (6) 
COCCOc1[nH+]ccn1CC1CN(CC2CC2)CCO1 (protonated)
COCCOc1[nH+]ccn1C[C@@H]1CN(CC2CC2)CCO1 (chirality)
COCCOc1[nH+]ccn1C[C@@H]1CN(CC2CC2)CCO1 (3D coordinates assigned)
COCCOc1[nH+]ccn1C[C@@H]1CN(CC2CC2)CCO1 (nonaromatic ring conformer: 352.2942013088771 kcal/mol)

>  <smiles>  (6) 
COCCOc1nccn1CC1CN(CC2CC2)CCO1

>  <score_type>  (6) 
oracle

>  <origin>  (6) 
adg

>  <m_score__min__energy>  (6) 
-5.79

>  <m_primary>  (6) 
energy

$$$$
6:0
     RDKit          3D

 31 31  0  0  0  0  0  0  0  0999 V2000
   57.1380   32.3450   40.8930 C   0  0  0  0  0  0  0  0  0  0  0  0
   58.1300   32.1580   42.0420 C   0  0  0  0  0  0  0  0  0  0  0  0
   57.4700   31.6110   43.3260 C   0  0  2  0  0  0  0  0  0  0  0  0
   57.4250   32.6710   44.4350 C   0  0  0  0  0  0  0  0  0  0  0  0
   58.2090   30.4380   43.8050 N   0  0  0  0  0  0  0  0  0  0  0  0
   57.6960   29.5710   44.8260 C   0  0  0  0  0  0  0  0  0  0  0  0
   56.4980   29.6800   45.2000 O   0  0  0  0  0  0  0  0  0  0  0  0
   58.5630   28.5450   45.4410 C   0  0  0  0  0  0  0  0  0  0  0  0
   59.4740   28.7500   46.4630 C   0  0  0  0  0  0  0  0  0  0  0  0
   59.8360   30.3510   47.4450 Br  0  0  0  0  0  0  0  0  0  0  0  0
   60.0090   27.5060   46.7230 C   0  0  0  0  0  0  0  0  0  0  0  0
   59.4510   26.5980   45.8980 N   0  0  0  0  0  0  0  0  0  0  0  0
   58.5820   27.2290   45.1230 N   0  0  0  0  0  0  0  0  0  0  0  0
   57.7830   26.5390   44.1110 C   0  0  0  0  0  0  0  0  0  0  0  0
   58.1520   27.0340   42.7160 C   0  0  0  0  0  0  0  0  0  0  0  0
   56.1346   32.5342   41.3020 H   0  0  0  0  0  0  0  0  0  0  0  0
   57.4494   33.2003   40.2753 H   0  0  0  0  0  0  0  0  0  0  0  0
   57.1166   31.4351   40.2753 H   0  0  0  0  0  0  0  0  0  0  0  0
   58.9097   31.4518   41.7205 H   0  0  0  0  0  0  0  0  0  0  0  0
   58.5459   33.1477   42.2819 H   0  0  0  0  0  0  0  0  0  0  0  0
   56.4362   31.3299   43.0768 H   0  0  0  0  0  0  0  0  0  0  0  0
   57.4460   32.1755   45.4169 H   0  0  0  0  0  0  0  0  0  0  0  0
   58.2957   33.3367   44.3415 H   0  0  0  0  0  0  0  0  0  0  0  0
   56.5010   33.2605   44.3415 H   0  0  0  0  0  0  0  0  0  0  0  0
   59.1210   30.1890   43.3560 H   0  0  0  0  0  0  0  0  0  0  0  0
   60.7721   27.2886   47.4848 H   0  0  0  0  0  0  0  0  0  0  0  0
   57.9731   25.4574   44.1742 H   0  0  0  0  0  0  0  0  0  0  0  0
   56.7183   26.7461   44.2938 H   0  0  0  0  0  0  0  0  0  0  0  0
   58.8075   27.9133   42.8004 H   0  0  0  0  0  0  0  0  0  0  0  0
   58.6774   26.2360   42.1708 H   0  0  0  0  0  0  0  0  0  0  0  0
   57.2372   27.3096   42.1708 H   0  0  0  0  0  0  0  0  0  0  0  0
  1  2  1  0
  2  3  1  0
  3  4  1  0
  3  5  1  0
  5  6  1  0
  6  7  2  0
  6  8  1  0
  8  9  2  0
  9 10  1  0
  9 11  1  0
 11 12  2  0
 12 13  1  0
 13 14  1  0
 14 15  1  0
 13  8  1  0
  1 16  1  0
  1 17  1  0
  1 18  1  0
  2 19  1  0
  2 20  1  0
  3 21  1  6
  4 22  1  0
  4 23  1  0
  4 24  1  0
  5 25  1  0
 11 26  1  0
 14 27  1  0
 14 28  1  0
 15 29  1  0
 15 30  1  0
 15 31  1  0
M  END
>  <UniqueID>  (7) 
7

>  <SMILES>  (7) 
CC[C@H](C)NC(=O)c1c(Br)cnn1CC

>  <Energy>  (7) 
52.167349904880766

>  <Genealogy>  (7) 
CC[C@H](C)NC(=O)c1c(Br)cnn1CC (chirality)
CC[C@H](C)NC(=O)c1c(Br)cnn1CC (3D coordinates assigned)
CC[C@H](C)NC(=O)c1c(Br)cnn1CC (optimized conformer: 52.167349904880766 kcal/mol)

>  <smiles>  (7) 
CCC(C)NC(=O)c1c(Br)cnn1CC

>  <score_type>  (7) 
oracle

>  <origin>  (7) 
adg

>  <m_score__min__energy>  (7) 
-5.5700000000000003

>  <m_primary>  (7) 
energy

$$$$
7:0
     RDKit          3D

 47 50  0  0  0  0  0  0  0  0999 V2000
   57.7830   29.4170   50.9780 O   0  0  0  0  0  0  0  0  0  0  0  0
   58.7600   30.1500   50.6630 C   0  0  0  0  0  0  0  0  0  0  0  0
   59.8120   29.6310   49.8400 N   0  0  0  0  0  0  0  0  0  0  0  0
   59.6380   28.9990   48.5620 C   0  0  0  0  0  0  0  0  0  0  0  0
   60.2140   27.7430   48.3470 C   0  0  0  0  0  0  0  0  0  0  0  0
   60.0530   27.0940   47.1220 C   0  0  0  0  0  0  0  0  0  0  0  0
   59.3020   27.6880   46.1050 C   0  0  0  0  0  0  0  0  0  0  0  0
   58.6910   28.9390   46.3080 C   0  0  0  0  0  0  0  0  0  0  0  0
   57.8780   29.5700   45.2350 C   0  0  0  0  0  0  0  0  0  0  0  0
   58.3060   30.6790   44.4810 C   0  0  0  0  0  0  0  0  0  0  0  0
   57.3860   31.1020   43.5320 C   0  0  0  0  0  0  0  0  0  0  0  0
   56.0410   30.1030   43.6270 S   0  0  0  0  0  0  0  0  0  0  0  0
   56.6080   29.1230   44.8680 C   0  0  0  0  0  0  0  0  0  0  0  0
   58.8580   29.5840   47.5480 C   0  0  0  0  0  0  0  0  0  0  0  0
   58.7790   31.5700   51.0780 C   0  0  0  0  0  0  0  0  0  0  0  0
   58.0820   31.9480   52.2400 C   0  0  0  0  0  0  0  0  0  0  0  0
   58.1430   33.2610   52.7090 C   0  0  0  0  0  0  0  0  0  0  0  0
   58.8950   34.2140   52.0240 C   0  0  0  0  0  0  0  0  0  0  0  0
   59.5770   33.8620   50.8580 C   0  0  0  0  0  0  0  0  0  0  0  0
   59.5180   32.5470   50.3630 C   0  0  0  0  0  0  0  0  0  0  0  0
   60.1380   32.2200   49.1050 N   0  0  0  0  0  0  0  0  0  0  0  0
   60.6220   33.2410   48.1740 C   0  0  0  0  0  0  0  0  0  0  0  0
   59.5770   33.5260   47.1300 C   0  0  0  0  0  0  0  0  0  0  0  0
   58.2520   33.1060   47.3280 C   0  0  0  0  0  0  0  0  0  0  0  0
   57.2650   33.4180   46.3880 C   0  0  0  0  0  0  0  0  0  0  0  0
   57.5930   34.1600   45.2490 C   0  0  0  0  0  0  0  0  0  0  0  0
   58.9070   34.5950   45.0520 C   0  0  0  0  0  0  0  0  0  0  0  0
   59.8960   34.2860   45.9910 C   0  0  0  0  0  0  0  0  0  0  0  0
   60.7970   27.2641   49.1475 H   0  0  0  0  0  0  0  0  0  0  0  0
   60.5191   26.1114   46.9568 H   0  0  0  0  0  0  0  0  0  0  0  0
   59.1875   27.1743   45.1391 H   0  0  0  0  0  0  0  0  0  0  0  0
   59.2809   31.1660   44.6304 H   0  0  0  0  0  0  0  0  0  0  0  0
   57.5159   31.9456   42.8381 H   0  0  0  0  0  0  0  0  0  0  0  0
   56.0701   28.2740   45.3150 H   0  0  0  0  0  0  0  0  0  0  0  0
   58.3736   30.5554   47.7259 H   0  0  0  0  0  0  0  0  0  0  0  0
   57.4837   31.2021   52.7837 H   0  0  0  0  0  0  0  0  0  0  0  0
   57.5967   33.5443   53.6208 H   0  0  0  0  0  0  0  0  0  0  0  0
   58.9511   35.2452   52.4029 H   0  0  0  0  0  0  0  0  0  0  0  0
   60.1661   34.6203   50.3213 H   0  0  0  0  0  0  0  0  0  0  0  0
   60.2380   31.2140   48.8410 H   0  0  0  0  0  0  0  0  0  0  0  0
   60.8427   34.1645   48.7294 H   0  0  0  0  0  0  0  0  0  0  0  0
   61.5338   32.8743   47.6799 H   0  0  0  0  0  0  0  0  0  0  0  0
   57.9892   32.5288   48.2268 H   0  0  0  0  0  0  0  0  0  0  0  0
   56.2301   33.0796   46.5445 H   0  0  0  0  0  0  0  0  0  0  0  0
   56.8169   34.4015   44.5078 H   0  0  0  0  0  0  0  0  0  0  0  0
   59.1632   35.1811   44.1571 H   0  0  0  0  0  0  0  0  0  0  0  0
   60.9267   34.6386   45.8381 H   0  0  0  0  0  0  0  0  0  0  0  0
  1  2  2  0
  2  3  1  0
  3  4  1  0
  4  5  2  0
  5  6  1  0
  6  7  2  0
  7  8  1  0
  8  9  1  0
  9 10  1  0
 10 11  2  0
 11 12  1  0
 12 13  1  0
  8 14  2  0
  2 15  1  0
 15 16  2  0
 16 17  1  0
 17 18  2  0
 18 19  1  0
 19 20  2  0
 20 21  1  0
 21 22  1  0
 22 23  1  0
 23 24  2  0
 24 25  1  0
 25 26  2  0
 26 27  1  0
 27 28  2  0
 14  4  1  0
 20 15  1  0
 28 23  1  0
 13  9  2  0
  5 29  1  0
  6 30  1  0
  7 31  1  0
 10 32  1  0
 11 33  1  0
 13 34  1  0
 14 35  1  0
 16 36  1  0
 17 37  1  0
 18 38  1  0
 19 39  1  0
 21 40  1  0
 22 41  1  0
 22 42  1  0
 24 43  1  0
 25 44  1  0
 26 45  1  0
 27 46  1  0
 28 47  1  0
M  CHG  1   3  -1
M  END
>  <UniqueID>  (8) 
8

>  <SMILES>  (8) 
O=C([N-]c1cccc(-c2ccsc2)c1)c1ccccc1NCc1ccccc1

>  <Energy>  (8) 
89.34510252973833

>  <Genealogy>  (8) 
O=C([N-]c1cccc(-c2ccsc2)c1)c1ccccc1NCc1ccccc1 (protonated)
O=C([N-]c1cccc(-c2ccsc2)c1)c1ccccc1NCc1ccccc1 (3D coordinates assigned)
O=C([N-]c1cccc(-c2ccsc2)c1)c1ccccc1NCc1ccccc1 (optimized conformer: 89.34510252973833 kcal/mol)

>  <smiles>  (8) 
O=C(Nc1cccc(-c2ccsc2)c1)c1ccccc1NCc1ccccc1

>  <score_type>  (8) 
oracle

>  <origin>  (8) 
adg

>  <m_score__min__energy>  (8) 
-10.92

>  <m_primary>  (8) 
energy

$$$$
8:0
     RDKit          3D

 45 47  0  0  0  0  0  0  0  0999 V2000
   56.1870   30.5930   52.0920 C   0  0  0  0  0  0  0  0  0  0  0  0
   57.3890   30.4620   51.2530 N   0  0  0  0  0  0  0  0  0  0  0  0
   57.8600   31.8000   50.8570 C   0  0  0  0  0  0  0  0  0  0  0  0
   58.4380   29.7140   51.9810 C   0  0  0  0  0  0  0  0  0  0  0  0
   59.8230   29.9240   51.3540 C   0  0  0  0  0  0  0  0  0  0  0  0
   59.9320   29.2110   50.0820 N   0  0  0  0  0  0  0  0  0  0  0  0
   60.1160   29.9130   48.8410 C   0  0  0  0  0  0  0  0  0  0  0  0
   61.2040   30.8000   48.6710 C   0  0  0  0  0  0  0  0  0  0  0  0
   62.1450   31.0420   49.6930 C   0  0  0  0  0  0  0  0  0  0  0  0
   63.2200   31.9060   49.4750 C   0  0  0  0  0  0  0  0  0  0  0  0
   63.3760   32.5430   48.2400 C   0  0  0  0  0  0  0  0  0  0  0  0
   64.4470   33.4060   48.0170 O   0  0  0  0  0  0  0  0  0  0  0  0
   62.4540   32.3110   47.2160 C   0  0  0  0  0  0  0  0  0  0  0  0
   61.3700   31.4420   47.4220 C   0  0  0  0  0  0  0  0  0  0  0  0
   60.4580   31.2020   46.3940 C   0  0  0  0  0  0  0  0  0  0  0  0
   59.3780   30.3400   46.6100 C   0  0  0  0  0  0  0  0  0  0  0  0
   58.4100   30.1130   45.5170 C   0  0  0  0  0  0  0  0  0  0  0  0
   58.3260   28.8410   44.9260 C   0  0  0  0  0  0  0  0  0  0  0  0
   57.4150   28.5990   43.8960 C   0  0  0  0  0  0  0  0  0  0  0  0
   56.5830   29.6250   43.4420 C   0  0  0  0  0  0  0  0  0  0  0  0
   56.6660   30.8980   44.0130 C   0  0  0  0  0  0  0  0  0  0  0  0
   57.5760   31.1500   45.0470 C   0  0  0  0  0  0  0  0  0  0  0  0
   57.6810   32.7830   45.6970 Cl  0  0  0  0  0  0  0  0  0  0  0  0
   59.2300   29.7150   47.8160 N   0  0  0  0  0  0  0  0  0  0  0  0
   58.1550   28.8750   48.0100 O   0  0  0  0  0  0  0  0  0  0  0  0
   56.4753   30.5616   53.1531 H   0  0  0  0  0  0  0  0  0  0  0  0
   55.6910   31.5505   51.8750 H   0  0  0  0  0  0  0  0  0  0  0  0
   55.4963   29.7648   51.8750 H   0  0  0  0  0  0  0  0  0  0  0  0
   58.0699   32.3962   51.7573 H   0  0  0  0  0  0  0  0  0  0  0  0
   58.7782   31.7034   50.2590 H   0  0  0  0  0  0  0  0  0  0  0  0
   57.0838   32.2998   50.2590 H   0  0  0  0  0  0  0  0  0  0  0  0
   58.4631   30.0598   53.0249 H   0  0  0  0  0  0  0  0  0  0  0  0
   58.1957   28.6424   51.9266 H   0  0  0  0  0  0  0  0  0  0  0  0
   59.9804   30.9986   51.1795 H   0  0  0  0  0  0  0  0  0  0  0  0
   60.5848   29.5319   52.0438 H   0  0  0  0  0  0  0  0  0  0  0  0
   59.6190   28.2140   50.0570 H   0  0  0  0  0  0  0  0  0  0  0  0
   62.0314   30.5467   50.6686 H   0  0  0  0  0  0  0  0  0  0  0  0
   63.9483   32.0866   50.2793 H   0  0  0  0  0  0  0  0  0  0  0  0
   65.2460   33.1260   47.4600 H   0  0  0  0  0  0  0  0  0  0  0  0
   62.5777   32.8112   46.2442 H   0  0  0  0  0  0  0  0  0  0  0  0
   60.5879   31.6893   45.4164 H   0  0  0  0  0  0  0  0  0  0  0  0
   58.9821   28.0308   45.2770 H   0  0  0  0  0  0  0  0  0  0  0  0
   57.3524   27.5992   43.4415 H   0  0  0  0  0  0  0  0  0  0  0  0
   55.8618   29.4309   42.6344 H   0  0  0  0  0  0  0  0  0  0  0  0
   56.0137   31.7053   43.6486 H   0  0  0  0  0  0  0  0  0  0  0  0
  1  2  1  0
  2  3  1  0
  2  4  1  0
  4  5  1  0
  5  6  1  0
  6  7  1  0
  7  8  2  0
  8  9  1  0
  9 10  2  0
 10 11  1  0
 11 12  1  0
 11 13  2  0
 13 14  1  0
 14 15  2  0
 15 16  1  0
 16 17  1  0
 17 18  2  0
 18 19  1  0
 19 20  2  0
 20 21  1  0
 21 22  2  0
 22 23  1  0
 16 24  2  0
 24 25  1  0
 24  7  1  0
 14  8  1  0
 22 17  1  0
  1 26  1  0
  1 27  1  0
  1 28  1  0
  3 29  1  0
  3 30  1  0
  3 31  1  0
  4 32  1  0
  4 33  1  0
  5 34  1  0
  5 35  1  0
  6 36  1  0
  9 37  1  0
 10 38  1  0
 12 39  1  0
 13 40  1  0
 15 41  1  0
 18 42  1  0
 19 43  1  0
 20 44  1  0
 21 45  1  0
M  CHG  2  24   1  25  -1
M  END
>  <UniqueID>  (9) 
9

>  <SMILES>  (9) 
CN(C)CCNc1c2ccc(O)cc2cc(-c2ccccc2Cl)[n+]1[O-]

>  <Energy>  (9) 
61.12979756924321

>  <Genealogy>  (9) 
CN(C)CCNc1c2ccc(O)cc2cc(-c2ccccc2Cl)[n+]1[O-] (3D coordinates assigned)
CN(C)CCNc1c2ccc(O)cc2cc(-c2ccccc2Cl)[n+]1[O-] (optimized conformer: 61.12979756924321 kcal/mol)

>  <smiles>  (9) 
CN(C)CCNc1c2ccc(O)cc2cc(-c2ccccc2Cl)[n+]1[O-]

>  <score_type>  (9) 
oracle

>  <origin>  (9) 
adg

>  <m_score__min__energy>  (9) 
-8.0600000000000005

>  <m_primary>  (9) 
energy

$$$$
9:0
     RDKit          3D

 39 42  0  0  0  0  0  0  0  0999 V2000
   60.2910   28.5570   50.5410 C   0  0  0  0  0  0  0  0  0  0  0  0
   60.0250   27.9750   49.1830 C   0  0  0  0  0  0  0  0  0  0  0  0
   60.7690   26.8770   48.7290 C   0  0  0  0  0  0  0  0  0  0  0  0
   60.5470   26.3580   47.4510 C   0  0  0  0  0  0  0  0  0  0  0  0
   59.5890   26.9370   46.6150 C   0  0  0  0  0  0  0  0  0  0  0  0
   58.8400   28.0410   47.0540 C   0  0  0  0  0  0  0  0  0  0  0  0
   57.8320   28.6690   46.1690 C   0  0  0  0  0  0  0  0  0  0  0  0
   57.7900   29.9430   45.7690 C   0  0  0  0  0  0  0  0  0  0  0  0
   58.8120   30.9790   46.0070 C   0  0  0  0  0  0  0  0  0  0  0  0
   60.0860   30.7780   46.5330 C   0  0  0  0  0  0  0  0  0  0  0  0
   60.7570   31.9520   46.5940 N   0  0  0  0  0  0  0  0  0  0  0  0
   62.1060   32.1490   47.1160 C   0  0  0  0  0  0  0  0  0  0  0  0
   59.9200   32.8950   46.1190 C   0  0  0  0  0  0  0  0  0  0  0  0
   60.1480   34.2700   46.0120 C   0  0  0  0  0  0  0  0  0  0  0  0
   59.1090   35.0740   45.5140 C   0  0  0  0  0  0  0  0  0  0  0  0
   57.8730   34.4990   45.1470 C   0  0  0  0  0  0  0  0  0  0  0  0
   57.6660   33.1130   45.2690 C   0  0  0  0  0  0  0  0  0  0  0  0
   58.7220   32.3350   45.7480 C   0  0  0  0  0  0  0  0  0  0  0  0
   56.6040   30.0930   44.9230 C   0  0  0  0  0  0  0  0  0  0  0  0
   56.2790   31.1460   44.3140 O   0  0  0  0  0  0  0  0  0  0  0  0
   55.8750   28.8780   44.8070 N   0  0  0  0  0  0  0  0  0  0  0  0
   56.6640   27.9960   45.5960 C   0  0  0  0  0  0  0  0  0  0  0  0
   56.3590   26.7890   45.7850 O   0  0  0  0  0  0  0  0  0  0  0  0
   59.0750   28.5660   48.3350 C   0  0  0  0  0  0  0  0  0  0  0  0
   59.9660   27.8459   51.3148 H   0  0  0  0  0  0  0  0  0  0  0  0
   61.3678   28.7524   50.6517 H   0  0  0  0  0  0  0  0  0  0  0  0
   59.7341   29.4991   50.6517 H   0  0  0  0  0  0  0  0  0  0  0  0
   61.5298   26.4228   49.3809 H   0  0  0  0  0  0  0  0  0  0  0  0
   61.1279   25.4914   47.1022 H   0  0  0  0  0  0  0  0  0  0  0  0
   59.4206   26.5264   45.6085 H   0  0  0  0  0  0  0  0  0  0  0  0
   60.4887   29.8056   46.8527 H   0  0  0  0  0  0  0  0  0  0  0  0
   62.0779   32.1449   48.2156 H   0  0  0  0  0  0  0  0  0  0  0  0
   62.7581   31.3366   46.7629 H   0  0  0  0  0  0  0  0  0  0  0  0
   62.4985   33.1140   46.7629 H   0  0  0  0  0  0  0  0  0  0  0  0
   61.1118   34.7093   46.3088 H   0  0  0  0  0  0  0  0  0  0  0  0
   59.2596   36.1586   45.4094 H   0  0  0  0  0  0  0  0  0  0  0  0
   57.0656   35.1397   44.7627 H   0  0  0  0  0  0  0  0  0  0  0  0
   56.7031   32.6567   44.9958 H   0  0  0  0  0  0  0  0  0  0  0  0
   58.5108   29.4464   48.6764 H   0  0  0  0  0  0  0  0  0  0  0  0
  1  2  1  0
  2  3  2  0
  3  4  1  0
  4  5  2  0
  5  6  1  0
  6  7  1  0
  7  8  2  0
  8  9  1  0
  9 10  2  0
 10 11  1  0
 11 12  1  0
 11 13  1  0
 13 14  2  0
 14 15  1  0
 15 16  2  0
 16 17  1  0
 17 18  2  0
  8 19  1  0
 19 20  2  0
 19 21  1  0
 21 22  1  0
 22 23  2  0
  6 24  2  0
 24  2  1  0
 22  7  1  0
 18  9  1  0
 18 13  1  0
  1 25  1  0
  1 26  1  0
  1 27  1  0
  3 28  1  0
  4 29  1  0
  5 30  1  0
 10 31  1  0
 12 32  1  0
 12 33  1  0
 12 34  1  0
 14 35  1  0
 15 36  1  0
 16 37  1  0
 17 38  1  0
 24 39  1  0
M  CHG  1  21  -1
M  END
>  <UniqueID>  (10) 
10

>  <SMILES>  (10) 
Cc1cccc(C2=C(c3cn(C)c4ccccc34)C(=O)[N-]C2=O)c1

>  <Energy>  (10) 
108.83350675723769

>  <Genealogy>  (10) 
Cc1cccc(C2=C(c3cn(C)c4ccccc34)C(=O)[N-]C2=O)c1 (protonated)
Cc1cccc(C2=C(c3cn(C)c4ccccc34)C(=O)[N-]C2=O)c1 (3D coordinates assigned)
Cc1cccc(C2=C(c3cn(C)c4ccccc34)C(=O)[N-]C2=O)c1 (nonaromatic ring conformer: 108.83350675723769 kcal/mol)

>  <smiles>  (10) 
Cc1cccc(C2=C(c3cn(C)c4ccccc34)C(=O)NC2=O)c1

>  <score_type>  (10) 
oracle

>  <origin>  (10) 
adg

>  <m_score__min__energy>  (10) 
-10.06

>  <m_primary>  (10) 
energy

$$$$
10:0
     RDKit          3D

 50 52  0  0  0  0  0  0  0  0999 V2000
   63.3660   33.6870   48.1250 C   0  0  0  0  0  0  0  0  0  0  0  0
   62.0690   34.0830   48.5650 O   0  0  0  0  0  0  0  0  0  0  0  0
   60.8920   33.9160   47.8170 C   0  0  0  0  0  0  0  0  0  0  0  0
   60.8700   34.0450   46.4120 C   0  0  0  0  0  0  0  0  0  0  0  0
   59.6780   33.8710   45.7040 C   0  0  0  0  0  0  0  0  0  0  0  0
   58.4870   33.5780   46.3860 C   0  0  0  0  0  0  0  0  0  0  0  0
   57.1980   33.3810   45.6350 C   0  0  0  0  0  0  0  0  0  0  0  0
   57.2340   32.1030   44.9120 N   0  0  0  0  0  0  0  0  0  0  0  0
   57.8580   32.2620   43.5910 C   0  0  0  0  0  0  0  0  0  0  0  0
   57.0850   31.4500   42.5450 C   0  0  0  0  0  0  0  0  0  0  0  0
   56.8870   29.9930   43.0010 C   0  0  0  0  0  0  0  0  0  0  0  0
   55.4600   29.7270   43.4960 C   0  0  0  0  0  0  0  0  0  0  0  0
   55.4740   29.2270   44.8730 N   0  0  0  0  0  0  0  0  0  0  0  0
   56.6460   28.7740   45.5720 C   0  0  0  0  0  0  0  0  0  0  0  0
   57.0440   27.4220   45.5600 C   0  0  0  0  0  0  0  0  0  0  0  0
   58.1820   27.0270   46.2710 C   0  0  0  0  0  0  0  0  0  0  0  0
   58.5370   25.8150   46.2470 O   0  0  0  0  0  0  0  0  0  0  0  0
   58.9120   27.9820   47.0070 C   0  0  0  0  0  0  0  0  0  0  0  0
   60.0630   27.6390   47.7430 C   0  0  0  0  0  0  0  0  0  0  0  0
   60.7480   28.6190   48.4740 C   0  0  0  0  0  0  0  0  0  0  0  0
   60.2980   29.9450   48.4730 C   0  0  0  0  0  0  0  0  0  0  0  0
   59.1620   30.3010   47.7430 C   0  0  0  0  0  0  0  0  0  0  0  0
   58.4650   29.3260   47.0100 C   0  0  0  0  0  0  0  0  0  0  0  0
   57.3590   29.6760   46.3040 N   0  0  0  0  0  0  0  0  0  0  0  0
   58.5090   33.4390   47.7830 C   0  0  0  0  0  0  0  0  0  0  0  0
   59.7030   33.6050   48.4940 C   0  0  0  0  0  0  0  0  0  0  0  0
   59.6950   33.3880   50.3980 Br  0  0  0  0  0  0  0  0  0  0  0  0
   64.0057   33.4917   48.9983 H   0  0  0  0  0  0  0  0  0  0  0  0
   63.2842   32.7729   47.5186 H   0  0  0  0  0  0  0  0  0  0  0  0
   63.8088   34.4909   47.5186 H   0  0  0  0  0  0  0  0  0  0  0  0
   61.7972   34.2841   45.8706 H   0  0  0  0  0  0  0  0  0  0  0  0
   59.6731   33.9640   44.6080 H   0  0  0  0  0  0  0  0  0  0  0  0
   56.3585   33.3750   46.3457 H   0  0  0  0  0  0  0  0  0  0  0  0
   57.0680   34.2023   44.9148 H   0  0  0  0  0  0  0  0  0  0  0  0
   57.8160   31.4300   45.4650 H   0  0  0  0  0  0  0  0  0  0  0  0
   57.8466   33.3250   43.3083 H   0  0  0  0  0  0  0  0  0  0  0  0
   58.8954   31.8990   43.6356 H   0  0  0  0  0  0  0  0  0  0  0  0
   56.0997   31.9133   42.3885 H   0  0  0  0  0  0  0  0  0  0  0  0
   57.6661   31.4451   41.6110 H   0  0  0  0  0  0  0  0  0  0  0  0
   57.0974   29.3251   42.1527 H   0  0  0  0  0  0  0  0  0  0  0  0
   57.5743   29.8063   43.8393 H   0  0  0  0  0  0  0  0  0  0  0  0
   54.8842   30.6635   43.4578 H   0  0  0  0  0  0  0  0  0  0  0  0
   54.9971   28.9675   42.8488 H   0  0  0  0  0  0  0  0  0  0  0  0
   54.5810   29.2900   45.4180 H   0  0  0  0  0  0  0  0  0  0  0  0
   56.4619   26.6802   44.9936 H   0  0  0  0  0  0  0  0  0  0  0  0
   60.4248   26.6002   47.7440 H   0  0  0  0  0  0  0  0  0  0  0  0
   61.6434   28.3453   49.0513 H   0  0  0  0  0  0  0  0  0  0  0  0
   60.8411   30.7087   49.0491 H   0  0  0  0  0  0  0  0  0  0  0  0
   58.8131   31.3442   47.7419 H   0  0  0  0  0  0  0  0  0  0  0  0
   57.5812   33.1979   48.3225 H   0  0  0  0  0  0  0  0  0  0  0  0
  1  2  1  0
  2  3  1  0
  3  4  2  0
  4  5  1  0
  5  6  2  0
  6  7  1  0
  7  8  1  0
  8  9  1  0
  9 10  1  0
 10 11  1  0
 11 12  1  0
 12 13  1  0
 13 14  1  0
 14 15  2  0
 15 16  1  0
 16 17  2  0
 16 18  1  0
 18 19  2  0
 19 20  1  0
 20 21  2  0
 21 22  1  0
 22 23  2  0
 23 24  1  0
  6 25  1  0
 25 26  2  0
 26 27  1  0
 26  3  1  0
 24 14  1  0
 23 18  1  0
  1 28  1  0
  1 29  1  0
  1 30  1  0
  4 31  1  0
  5 32  1  0
  7 33  1  0
  7 34  1  0
  8 35  1  0
  9 36  1  0
  9 37  1  0
 10 38  1  0
 10 39  1  0
 11 40  1  0
 11 41  1  0
 12 42  1  0
 12 43  1  0
 13 44  1  0
 15 45  1  0
 19 46  1  0
 20 47  1  0
 21 48  1  0
 22 49  1  0
 25 50  1  0
M  CHG  1  24  -1
M  END
>  <UniqueID>  (11) 
11

>  <SMILES>  (11) 
COc1ccc(CNCCCCNc2cc(=O)c3ccccc3[n-]2)cc1Br

>  <Energy>  (11) 
50.599085923593115

>  <Genealogy>  (11) 
COc1ccc(CNCCCCNc2cc(=O)c3ccccc3[n-]2)cc1Br (protonated)
COc1ccc(CNCCCCNc2cc(=O)c3ccccc3[n-]2)cc1Br (3D coordinates assigned)
COc1ccc(CNCCCCNc2cc(=O)c3ccccc3[n-]2)cc1Br (optimized conformer: 50.599085923593115 kcal/mol)

>  <smiles>  (11) 
COc1ccc(CNCCCCNc2cc(=O)c3ccccc3[nH]2)cc1Br

>  <score_type>  (11) 
oracle

>  <origin>  (11) 
adg

>  <m_score__min__energy>  (11) 
-10.32

>  <m_primary>  (11) 
energy

$$$$
11:0
     RDKit          3D

 45 47  0  0  0  0  0  0  0  0999 V2000
   55.6520   29.8940   43.6150 C   0  0  0  0  0  0  0  0  0  0  0  0
   56.2680   29.7410   44.8890 O   0  0  0  0  0  0  0  0  0  0  0  0
   57.5560   29.2180   45.0950 C   0  0  0  0  0  0  0  0  0  0  0  0
   57.9160   27.9340   44.6380 C   0  0  0  0  0  0  0  0  0  0  0  0
   59.2100   27.4480   44.8420 C   0  0  0  0  0  0  0  0  0  0  0  0
   60.1580   28.2340   45.4970 C   0  0  0  0  0  0  0  0  0  0  0  0
   59.8150   29.5070   45.9540 C   0  0  0  0  0  0  0  0  0  0  0  0
   58.5130   30.0020   45.7740 C   0  0  0  0  0  0  0  0  0  0  0  0
   58.1790   31.3940   46.2470 C   0  0  0  0  0  0  0  0  0  0  0  0
   57.6720   32.1880   45.1210 N   0  0  0  0  0  0  0  0  0  0  0  0
   57.1640   33.4930   45.5690 C   0  0  0  0  0  0  0  0  0  0  0  0
   58.1510   34.6040   45.1960 C   0  0  0  0  0  0  0  0  0  0  0  0
   59.5990   34.1170   45.3050 C   0  0  0  0  0  0  0  0  0  0  0  0
   60.0100   34.0660   46.7070 N   0  0  0  0  0  0  0  0  0  0  0  0
   59.2380   34.3830   47.7740 C   0  0  0  0  0  0  0  0  0  0  0  0
   59.9700   34.2880   48.9530 C   0  0  0  0  0  0  0  0  0  0  0  0
   61.2390   33.9100   48.5640 C   0  0  0  0  0  0  0  0  0  0  0  0
   62.3850   33.6850   49.3240 C   0  0  0  0  0  0  0  0  0  0  0  0
   63.5640   33.3230   48.6440 C   0  0  0  0  0  0  0  0  0  0  0  0
   64.7740   33.0820   49.3860 C   0  0  0  0  0  0  0  0  0  0  0  0
   65.7460   32.8880   49.9830 N   0  0  0  0  0  0  0  0  0  0  0  0
   63.5650   33.2000   47.2340 C   0  0  0  0  0  0  0  0  0  0  0  0
   62.3910   33.4350   46.4960 C   0  0  0  0  0  0  0  0  0  0  0  0
   61.2350   33.7880   47.1990 C   0  0  0  0  0  0  0  0  0  0  0  0
   54.5924   30.1572   43.7493 H   0  0  0  0  0  0  0  0  0  0  0  0
   56.1603   30.6932   43.0556 H   0  0  0  0  0  0  0  0  0  0  0  0
   55.7273   28.9499   43.0556 H   0  0  0  0  0  0  0  0  0  0  0  0
   57.1737   27.3109   44.1176 H   0  0  0  0  0  0  0  0  0  0  0  0
   59.4817   26.4435   44.4853 H   0  0  0  0  0  0  0  0  0  0  0  0
   61.1769   27.8500   45.6534 H   0  0  0  0  0  0  0  0  0  0  0  0
   60.5700   30.1275   46.4590 H   0  0  0  0  0  0  0  0  0  0  0  0
   57.4104   31.3394   47.0320 H   0  0  0  0  0  0  0  0  0  0  0  0
   59.0847   31.8698   46.6512 H   0  0  0  0  0  0  0  0  0  0  0  0
   56.8710   31.6610   44.7000 H   0  0  0  0  0  0  0  0  0  0  0  0
   56.1956   33.6907   45.0862 H   0  0  0  0  0  0  0  0  0  0  0  0
   57.0429   33.4739   46.6622 H   0  0  0  0  0  0  0  0  0  0  0  0
   57.9569   34.9242   44.1617 H   0  0  0  0  0  0  0  0  0  0  0  0
   58.0118   35.4428   45.8939 H   0  0  0  0  0  0  0  0  0  0  0  0
   59.6782   33.1114   44.8663 H   0  0  0  0  0  0  0  0  0  0  0  0
   60.2544   34.8153   44.7639 H   0  0  0  0  0  0  0  0  0  0  0  0
   58.1791   34.6750   47.7161 H   0  0  0  0  0  0  0  0  0  0  0  0
   59.6135   34.4744   49.9768 H   0  0  0  0  0  0  0  0  0  0  0  0
   62.3694   33.7868   50.4192 H   0  0  0  0  0  0  0  0  0  0  0  0
   64.4911   32.9185   46.7114 H   0  0  0  0  0  0  0  0  0  0  0  0
   62.3825   33.3439   45.3998 H   0  0  0  0  0  0  0  0  0  0  0  0
  1  2  1  0
  2  3  1  0
  3  4  2  0
  4  5  1  0
  5  6  2  0
  6  7  1  0
  7  8  2  0
  8  9  1  0
  9 10  1  0
 10 11  1  0
 11 12  1  0
 12 13  1  0
 13 14  1  0
 14 15  1  0
 15 16  2  0
 16 17  1  0
 17 18  2  0
 18 19  1  0
 19 20  1  0
 20 21  3  0
 19 22  2  0
 22 23  1  0
 23 24  2  0
  8  3  1  0
 24 14  1  0
 24 17  1  0
  1 25  1  0
  1 26  1  0
  1 27  1  0
  4 28  1  0
  5 29  1  0
  6 30  1  0
  7 31  1  0
  9 32  1  0
  9 33  1  0
 10 34  1  0
 11 35  1  0
 11 36  1  0
 12 37  1  0
 12 38  1  0
 13 39  1  0
 13 40  1  0
 15 41  1  0
 16 42  1  0
 18 43  1  0
 22 44  1  0
 23 45  1  0
M  END
>  <UniqueID>  (12) 
12

>  <SMILES>  (12) 
COc1ccccc1CNCCCn1ccc2cc(C#N)ccc21

>  <Energy>  (12) 
73.57069501733315

>  <Genealogy>  (12) 
COc1ccccc1CNCCCn1ccc2cc(C#N)ccc21 (3D coordinates assigned)
COc1ccccc1CNCCCn1ccc2cc(C#N)ccc21 (optimized conformer: 73.57069501733315 kcal/mol)

>  <smiles>  (12) 
COc1ccccc1CNCCCn1ccc2cc(C#N)ccc21

>  <score_type>  (12) 
oracle

>  <origin>  (12) 
adg

>  <m_score__min__energy>  (12) 
-8.0500000000000007

>  <m_primary>  (12) 
energy

$$$$
12:0
     RDKit          3D

 21 22  0  0  0  0  0  0  0  0999 V2000
   58.6670   34.0190   45.6680 Br  0  0  0  0  0  0  0  0  0  0  0  0
   57.9270   32.7370   44.4630 C   0  0  0  0  0  0  0  0  0  0  0  0
   58.2150   32.7220   43.1050 C   0  0  0  0  0  0  0  0  0  0  0  0
   57.3810   31.4380   42.4070 S   0  0  0  0  0  0  0  0  0  0  0  0
   56.6460   30.9070   43.8230 C   0  0  0  0  0  0  0  0  0  0  0  0
   55.7580   29.7070   43.9370 C   0  0  0  0  0  0  0  0  0  0  0  0
   55.9670   29.0330   45.2240 N   0  0  0  0  0  0  0  0  0  0  0  0
   57.3680   28.5910   45.3430 C   0  0  0  0  0  0  0  0  0  0  0  0
   57.8820   27.8540   44.1150 C   0  0  0  0  0  0  0  0  0  0  0  0
   57.5810   27.0840   45.3930 C   0  0  0  0  0  0  0  0  0  0  0  0
   57.0540   31.7220   44.8710 C   0  0  0  0  0  0  0  0  0  0  0  0
   58.8739   33.4270   42.5770 H   0  0  0  0  0  0  0  0  0  0  0  0
   54.7078   30.0254   43.8615 H   0  0  0  0  0  0  0  0  0  0  0  0
   56.0012   29.0061   43.1248 H   0  0  0  0  0  0  0  0  0  0  0  0
   55.7210   29.7140   45.9810 H   0  0  0  0  0  0  0  0  0  0  0  0
   57.7086   29.4365   45.9587 H   0  0  0  0  0  0  0  0  0  0  0  0
   57.2336   27.7333   43.2347 H   0  0  0  0  0  0  0  0  0  0  0  0
   58.7572   27.9561   43.4566 H   0  0  0  0  0  0  0  0  0  0  0  0
   56.7150   26.4072   45.4364 H   0  0  0  0  0  0  0  0  0  0  0  0
   58.1483   26.3995   46.0408 H   0  0  0  0  0  0  0  0  0  0  0  0
   56.7257   31.5843   45.9118 H   0  0  0  0  0  0  0  0  0  0  0  0
  1  2  1  0
  2  3  2  0
  3  4  1  0
  4  5  1  0
  5  6  1  0
  6  7  1  0
  7  8  1  0
  8  9  1  0
  9 10  1  0
  5 11  2  0
 11  2  1  0
 10  8  1  0
  3 12  1  0
  6 13  1  0
  6 14  1  0
  7 15  1  0
  8 16  1  0
  9 17  1  0
  9 18  1  0
 10 19  1  0
 10 20  1  0
 11 21  1  0
M  END
>  <UniqueID>  (13) 
13

>  <SMILES>  (13) 
Brc1csc(CNC2CC2)c1

>  <Energy>  (13) 
309.8972136052061

>  <Genealogy>  (13) 
Brc1csc(CNC2CC2)c1 (3D coordinates assigned)
Brc1csc(CNC2CC2)c1 (nonaromatic ring conformer: 309.8972136052061 kcal/mol)

>  <smiles>  (13) 
Brc1csc(CNC2CC2)c1

>  <score_type>  (13) 
oracle

>  <origin>  (13) 
adg

>  <m_score__min__energy>  (13) 
-5.6699999999999999

>  <m_primary>  (13) 
energy

$$$$
13:0
     RDKit          3D

 38 40  0  0  0  0  0  0  0  0999 V2000
   63.3870   33.8450   46.4010 C   0  0  0  0  0  0  0  0  0  0  0  0
   63.2200   33.0990   47.6580 N   0  0  0  0  0  0  0  0  0  0  0  0
   62.2480   33.7570   48.5450 C   0  0  0  0  0  0  0  0  0  0  0  0
   62.9520   31.6550   47.4610 C   0  0  0  0  0  0  0  0  0  0  0  0
   61.5660   31.1740   47.9340 C   0  0  0  0  0  0  0  0  0  0  0  0
   60.8050   30.6510   46.8040 N   0  0  0  0  0  0  0  0  0  0  0  0
   59.5830   30.8570   46.3750 C   0  0  0  0  0  0  0  0  0  0  0  0
   59.0330   32.1390   46.0250 C   0  0  0  0  0  0  0  0  0  0  0  0
   59.6020   33.3880   46.3760 C   0  0  0  0  0  0  0  0  0  0  0  0
   59.0320   34.5900   45.9470 C   0  0  0  0  0  0  0  0  0  0  0  0
   57.8640   34.5860   45.1920 C   0  0  0  0  0  0  0  0  0  0  0  0
   57.2380   33.3800   44.8950 C   0  0  0  0  0  0  0  0  0  0  0  0
   57.7940   32.1680   45.3230 C   0  0  0  0  0  0  0  0  0  0  0  0
   57.1070   31.0270   45.0820 N   0  0  0  0  0  0  0  0  0  0  0  0
   57.5480   29.8160   45.4920 C   0  0  0  0  0  0  0  0  0  0  0  0
   56.7700   28.6810   45.2350 C   0  0  0  0  0  0  0  0  0  0  0  0
   57.2100   27.4200   45.6360 C   0  0  0  0  0  0  0  0  0  0  0  0
   58.4330   27.2860   46.2930 C   0  0  0  0  0  0  0  0  0  0  0  0
   59.2210   28.4110   46.5510 C   0  0  0  0  0  0  0  0  0  0  0  0
   58.7890   29.6990   46.1560 C   0  0  0  0  0  0  0  0  0  0  0  0
   63.6222   34.8956   46.6266 H   0  0  0  0  0  0  0  0  0  0  0  0
   64.2083   33.4024   45.8183 H   0  0  0  0  0  0  0  0  0  0  0  0
   62.4554   33.7948   45.8183 H   0  0  0  0  0  0  0  0  0  0  0  0
   62.5235   33.5705   49.5935 H   0  0  0  0  0  0  0  0  0  0  0  0
   62.2504   34.8400   48.3524 H   0  0  0  0  0  0  0  0  0  0  0  0
   61.2434   33.3525   48.3524 H   0  0  0  0  0  0  0  0  0  0  0  0
   63.0397   31.4361   46.3866 H   0  0  0  0  0  0  0  0  0  0  0  0
   63.6880   31.1208   48.0799 H   0  0  0  0  0  0  0  0  0  0  0  0
   61.6929   30.3809   48.6856 H   0  0  0  0  0  0  0  0  0  0  0  0
   61.0210   32.0222   48.3739 H   0  0  0  0  0  0  0  0  0  0  0  0
   60.5092   33.4123   46.9977 H   0  0  0  0  0  0  0  0  0  0  0  0
   59.5104   35.5454   46.2083 H   0  0  0  0  0  0  0  0  0  0  0  0
   57.4368   35.5332   44.8310 H   0  0  0  0  0  0  0  0  0  0  0  0
   56.3001   33.3782   44.3202 H   0  0  0  0  0  0  0  0  0  0  0  0
   55.8067   28.7844   44.7141 H   0  0  0  0  0  0  0  0  0  0  0  0
   56.5931   26.5318   45.4344 H   0  0  0  0  0  0  0  0  0  0  0  0
   58.7787   26.2908   46.6094 H   0  0  0  0  0  0  0  0  0  0  0  0
   60.1860   28.2940   47.0659 H   0  0  0  0  0  0  0  0  0  0  0  0
  1  2  1  0
  2  3  1  0
  2  4  1  0
  4  5  1  0
  5  6  1  0
  6  7  2  3
  7  8  1  0
  8  9  2  0
  9 10  1  0
 10 11  2  0
 11 12  1  0
 12 13  2  0
 13 14  1  0
 14 15  1  0
 15 16  2  0
 16 17  1  0
 17 18  2  0
 18 19  1  0
 19 20  2  0
 20  7  1  0
 13  8  1  0
 20 15  1  0
  1 21  1  0
  1 22  1  0
  1 23  1  0
  3 24  1  0
  3 25  1  0
  3 26  1  0
  4 27  1  0
  4 28  1  0
  5 29  1  0
  5 30  1  0
  9 31  1  0
 10 32  1  0
 11 33  1  0
 12 34  1  0
 16 35  1  0
 17 36  1  0
 18 37  1  0
 19 38  1  0
M  CHG  1  14  -1
M  END
>  <UniqueID>  (14) 
14

>  <SMILES>  (14) 
CN(C)CCN=c1c2ccccc2[n-]c2ccccc12

>  <Energy>  (14) 
65.46838884063563

>  <Genealogy>  (14) 
CN(C)CCN=c1c2ccccc2[n-]c2ccccc12 (protonated)
CN(C)CCN=c1c2ccccc2[n-]c2ccccc12 (3D coordinates assigned)
CN(C)CCN=c1c2ccccc2[n-]c2ccccc12 (optimized conformer: 65.46838884063563 kcal/mol)

>  <smiles>  (14) 
CN(C)CCN=c1c2ccccc2[nH]c2ccccc12

>  <score_type>  (14) 
oracle

>  <origin>  (14) 
adg

>  <m_score__min__energy>  (14) 
-8.6300000000000008

>  <m_primary>  (14) 
energy

$$$$
14:0
     RDKit          3D

 59 62  0  0  0  0  0  0  0  0999 V2000
   51.9620   22.5740   46.4030 C   0  0  0  0  0  0  0  0  0  0  0  0
   52.3990   23.3500   45.1710 C   0  0  0  0  0  0  0  0  0  0  0  0
   53.7890   23.1440   44.9460 O   0  0  0  0  0  0  0  0  0  0  0  0
   54.7560   24.1210   45.2080 C   0  0  0  0  0  0  0  0  0  0  0  0
   54.4020   25.3190   45.7460 N   0  0  0  0  0  0  0  0  0  0  0  0
   55.3090   26.2630   45.9910 N   0  0  0  0  0  0  0  0  0  0  0  0
   56.6240   26.0640   45.7060 C   0  0  0  0  0  0  0  0  0  0  0  0
   57.6270   27.1200   45.9880 C   0  0  0  0  0  0  0  0  0  0  0  0
   57.4250   28.4380   45.5410 C   0  0  0  0  0  0  0  0  0  0  0  0
   58.3680   29.4340   45.8160 C   0  0  0  0  0  0  0  0  0  0  0  0
   59.5330   29.1260   46.5360 C   0  0  0  0  0  0  0  0  0  0  0  0
   60.4890   30.1030   46.8520 O   0  0  0  0  0  0  0  0  0  0  0  0
   60.2120   31.3680   47.3940 C   0  0  0  0  0  0  0  0  0  0  0  0
   60.5490   32.5500   46.7230 C   0  0  0  0  0  0  0  0  0  0  0  0
   60.2870   33.7860   47.3100 C   0  0  0  0  0  0  0  0  0  0  0  0
   59.6990   33.8560   48.5750 C   0  0  0  0  0  0  0  0  0  0  0  0
   59.3550   32.6820   49.2850 C   0  0  0  0  0  0  0  0  0  0  0  0
   58.7530   32.7470   50.6140 N   0  0  0  0  0  0  0  0  0  0  0  0
   57.7700   31.7190   51.0110 C   0  0  0  0  0  0  0  0  0  0  0  0
   57.1260   31.9970   52.3680 C   0  0  0  0  0  0  0  0  0  0  0  0
   58.0940   32.4330   53.2910 O   0  0  0  0  0  0  0  0  0  0  0  0
   58.4990   33.7320   52.9280 C   0  0  0  0  0  0  0  0  0  0  0  0
   59.2580   33.7350   51.5920 C   0  0  0  0  0  0  0  0  0  0  0  0
   59.6330   31.4370   48.6670 C   0  0  0  0  0  0  0  0  0  0  0  0
   59.7300   27.8210   46.9970 C   0  0  0  0  0  0  0  0  0  0  0  0
   58.7910   26.8240   46.7200 C   0  0  0  0  0  0  0  0  0  0  0  0
   57.0060   24.8770   45.1650 N   0  0  0  0  0  0  0  0  0  0  0  0
   56.1080   23.8870   44.9200 C   0  0  0  0  0  0  0  0  0  0  0  0
   56.5660   22.5970   44.2730 C   0  0  0  0  0  0  0  0  0  0  0  0
   56.2530   22.6230   42.7740 C   0  0  0  0  0  0  0  0  0  0  0  0
   58.0610   22.3520   44.5110 C   0  0  0  0  0  0  0  0  0  0  0  0
   52.2690   23.1192   47.3077 H   0  0  0  0  0  0  0  0  0  0  0  0
   50.8678   22.4614   46.3964 H   0  0  0  0  0  0  0  0  0  0  0  0
   52.4330   21.5799   46.3964 H   0  0  0  0  0  0  0  0  0  0  0  0
   51.8306   22.9996   44.2968 H   0  0  0  0  0  0  0  0  0  0  0  0
   52.2090   24.4221   45.3278 H   0  0  0  0  0  0  0  0  0  0  0  0
   56.5182   28.6877   44.9706 H   0  0  0  0  0  0  0  0  0  0  0  0
   58.1959   30.4627   45.4666 H   0  0  0  0  0  0  0  0  0  0  0  0
   61.0214   32.5025   45.7307 H   0  0  0  0  0  0  0  0  0  0  0  0
   60.5446   34.7116   46.7744 H   0  0  0  0  0  0  0  0  0  0  0  0
   59.5004   34.8394   49.0261 H   0  0  0  0  0  0  0  0  0  0  0  0
   56.9776   31.6798   50.2491 H   0  0  0  0  0  0  0  0  0  0  0  0
   58.3098   30.7642   51.0939 H   0  0  0  0  0  0  0  0  0  0  0  0
   56.3589   32.7768   52.2520 H   0  0  0  0  0  0  0  0  0  0  0  0
   56.6689   31.0692   52.7424 H   0  0  0  0  0  0  0  0  0  0  0  0
   57.6082   34.3705   52.8340 H   0  0  0  0  0  0  0  0  0  0  0  0
   59.1744   34.1126   53.7084 H   0  0  0  0  0  0  0  0  0  0  0  0
   59.1725   34.7375   51.1473 H   0  0  0  0  0  0  0  0  0  0  0  0
   60.2993   33.4597   51.8155 H   0  0  0  0  0  0  0  0  0  0  0  0
   59.3887   30.5055   49.1986 H   0  0  0  0  0  0  0  0  0  0  0  0
   60.6296   27.5776   47.5813 H   0  0  0  0  0  0  0  0  0  0  0  0
   58.9637   25.7982   47.0777 H   0  0  0  0  0  0  0  0  0  0  0  0
   56.0169   21.7649   44.7379 H   0  0  0  0  0  0  0  0  0  0  0  0
   55.1665   22.7132   42.6278 H   0  0  0  0  0  0  0  0  0  0  0  0
   56.7582   23.4823   42.3088 H   0  0  0  0  0  0  0  0  0  0  0  0
   56.6095   21.6921   42.3088 H   0  0  0  0  0  0  0  0  0  0  0  0
   58.2596   22.3195   45.5924 H   0  0  0  0  0  0  0  0  0  0  0  0
   58.3526   21.3941   44.0556 H   0  0  0  0  0  0  0  0  0  0  0  0
   58.6431   23.1667   44.0556 H   0  0  0  0  0  0  0  0  0  0  0  0
  1  2  1  0
  2  3  1  0
  3  4  1  0
  4  5  2  0
  5  6  1  0
  6  7  2  0
  7  8  1  0
  8  9  2  0
  9 10  1  0
 10 11  2  0
 11 12  1  0
 12 13  1  0
 13 14  2  0
 14 15  1  0
 15 16  2  0
 16 17  1  0
 17 18  1  0
 18 19  1  0
 19 20  1  0
 20 21  1  0
 21 22  1  0
 22 23  1  0
 17 24  2  0
 11 25  1  0
 25 26  2  0
  7 27  1  0
 27 28  2  0
 28 29  1  0
 29 30  1  0
 29 31  1  0
 28  4  1  0
 26  8  1  0
 24 13  1  0
 23 18  1  0
  1 32  1  0
  1 33  1  0
  1 34  1  0
  2 35  1  0
  2 36  1  0
  9 37  1  0
 10 38  1  0
 14 39  1  0
 15 40  1  0
 16 41  1  0
 19 42  1  0
 19 43  1  0
 20 44  1  0
 20 45  1  0
 22 46  1  0
 22 47  1  0
 23 48  1  0
 23 49  1  0
 24 50  1  0
 25 51  1  0
 26 52  1  0
 29 53  1  0
 30 54  1  0
 30 55  1  0
 30 56  1  0
 31 57  1  0
 31 58  1  0
 31 59  1  0
M  END
>  <UniqueID>  (15) 
15

>  <SMILES>  (15) 
CCOc1nnc(-c2ccc(Oc3cccc(N4CCOCC4)c3)cc2)nc1C(C)C

>  <Energy>  (15) 
70.66337652472652

>  <Genealogy>  (15) 
CCOc1nnc(-c2ccc(Oc3cccc(N4CCOCC4)c3)cc2)nc1C(C)C (3D coordinates assigned)
CCOc1nnc(-c2ccc(Oc3cccc(N4CCOCC4)c3)cc2)nc1C(C)C (nonaromatic ring conformer: 70.66337652472652 kcal/mol)

>  <smiles>  (15) 
CCOc1nnc(-c2ccc(Oc3cccc(N4CCOCC4)c3)cc2)nc1C(C)C

>  <score_type>  (15) 
oracle

>  <origin>  (15) 
adg

>  <m_score__min__energy>  (15) 
-8.1999999999999993

>  <m_primary>  (15) 
energy

$$$$
15:0
     RDKit          3D

 57 59  0  0  0  0  0  0  0  0999 V2000
   58.4890   21.8400   44.8910 C   0  0  0  0  0  0  0  0  0  0  0  0
   56.9590   21.9600   44.9710 C   0  0  0  0  0  0  0  0  0  0  0  0
   56.2790   21.9480   43.6540 N   0  0  0  0  0  0  0  0  0  0  0  0
   57.0190   21.2060   42.6230 C   0  0  0  0  0  0  0  0  0  0  0  0
   55.8570   23.2900   43.1970 C   0  0  0  0  0  0  0  0  0  0  0  0
   56.9770   24.3090   43.4210 C   0  0  0  0  0  0  0  0  0  0  0  0
   56.9510   24.8120   44.7600 O   0  0  0  0  0  0  0  0  0  0  0  0
   57.5630   25.9940   45.2080 C   0  0  0  0  0  0  0  0  0  0  0  0
   56.8610   26.7860   46.1460 C   0  0  0  0  0  0  0  0  0  0  0  0
   57.4160   27.9760   46.6500 C   0  0  0  0  0  0  0  0  0  0  0  0
   58.6810   28.3550   46.1910 C   0  0  0  0  0  0  0  0  0  0  0  0
   59.3590   27.5990   45.2720 C   0  0  0  0  0  0  0  0  0  0  0  0
   60.5540   28.2300   45.0080 C   0  0  0  0  0  0  0  0  0  0  0  0
   60.5480   29.3710   45.8000 C   0  0  0  0  0  0  0  0  0  0  0  0
   59.4050   29.4450   46.5250 N   0  0  0  0  0  0  0  0  0  0  0  0
   59.0490   30.5350   47.4390 C   0  0  0  0  0  0  0  0  0  0  0  0
   59.5820   31.8550   46.9230 C   0  0  0  0  0  0  0  0  0  0  0  0
   60.9190   32.1840   47.2150 C   0  0  0  0  0  0  0  0  0  0  0  0
   61.4740   33.3860   46.7790 C   0  0  0  0  0  0  0  0  0  0  0  0
   60.7070   34.2790   46.0350 C   0  0  0  0  0  0  0  0  0  0  0  0
   59.3850   33.9690   45.7190 C   0  0  0  0  0  0  0  0  0  0  0  0
   58.8040   32.7600   46.1460 C   0  0  0  0  0  0  0  0  0  0  0  0
   57.3680   32.4820   45.7590 C   0  0  0  0  0  0  0  0  0  0  0  0
   57.2860   31.9760   44.3900 N   0  0  0  0  0  0  0  0  0  0  0  0
   56.6610   30.7280   44.0630 C   0  0  0  0  0  0  0  0  0  0  0  0
   56.6290   30.2510   42.6480 C   0  0  0  0  0  0  0  0  0  0  0  0
   56.1690   30.0030   44.9700 O   0  0  0  0  0  0  0  0  0  0  0  0
   58.8350   26.4180   44.7510 C   0  0  0  0  0  0  0  0  0  0  0  0
   58.9079   21.8071   45.9076 H   0  0  0  0  0  0  0  0  0  0  0  0
   58.7569   20.9181   44.3541 H   0  0  0  0  0  0  0  0  0  0  0  0
   58.8974   22.7089   44.3541 H   0  0  0  0  0  0  0  0  0  0  0  0
   56.5773   21.1158   45.5640 H   0  0  0  0  0  0  0  0  0  0  0  0
   56.7420   22.9358   45.4299 H   0  0  0  0  0  0  0  0  0  0  0  0
   57.7172   20.5059   43.1051 H   0  0  0  0  0  0  0  0  0  0  0  0
   56.3108   20.6442   41.9962 H   0  0  0  0  0  0  0  0  0  0  0  0
   57.5827   21.9127   41.9962 H   0  0  0  0  0  0  0  0  0  0  0  0
   55.6150   23.2478   42.1248 H   0  0  0  0  0  0  0  0  0  0  0  0
   54.9729   23.6005   43.7732 H   0  0  0  0  0  0  0  0  0  0  0  0
   57.9470   23.8238   43.2376 H   0  0  0  0  0  0  0  0  0  0  0  0
   56.8301   25.1500   42.7274 H   0  0  0  0  0  0  0  0  0  0  0  0
   55.8652   26.4663   46.4868 H   0  0  0  0  0  0  0  0  0  0  0  0
   56.8715   28.5896   47.3828 H   0  0  0  0  0  0  0  0  0  0  0  0
   61.3445   27.9008   44.3175 H   0  0  0  0  0  0  0  0  0  0  0  0
   61.3595   30.1128   45.8342 H   0  0  0  0  0  0  0  0  0  0  0  0
   57.9538   30.5945   47.5222 H   0  0  0  0  0  0  0  0  0  0  0  0
   59.4937   30.3325   48.4245 H   0  0  0  0  0  0  0  0  0  0  0  0
   61.5352   31.4820   47.7960 H   0  0  0  0  0  0  0  0  0  0  0  0
   62.5187   33.6294   47.0228 H   0  0  0  0  0  0  0  0  0  0  0  0
   61.1446   35.2297   45.6964 H   0  0  0  0  0  0  0  0  0  0  0  0
   58.7878   34.6789   45.1279 H   0  0  0  0  0  0  0  0  0  0  0  0
   56.9484   31.7323   46.4459 H   0  0  0  0  0  0  0  0  0  0  0  0
   56.7987   33.4211   45.8216 H   0  0  0  0  0  0  0  0  0  0  0  0
   57.6490   32.5770   43.6160 H   0  0  0  0  0  0  0  0  0  0  0  0
   56.5554   29.1536   42.6326 H   0  0  0  0  0  0  0  0  0  0  0  0
   55.7579   30.6842   42.1346 H   0  0  0  0  0  0  0  0  0  0  0  0
   57.5502   30.5639   42.1346 H   0  0  0  0  0  0  0  0  0  0  0  0
   59.3930   25.8316   44.0062 H   0  0  0  0  0  0  0  0  0  0  0  0
  1  2  1  0
  2  3  1  0
  3  4  1  0
  3  5  1  0
  5  6  1  0
  6  7  1  0
  7  8  1  0
  8  9  2  0
  9 10  1  0
 10 11  2  0
 11 12  1  0
 12 13  1  0
 13 14  2  0
 14 15  1  0
 15 16  1  0
 16 17  1  0
 17 18  2  0
 18 19  1  0
 19 20  2  0
 20 21  1  0
 21 22  2  0
 22 23  1  0
 23 24  1  0
 24 25  1  0
 25 26  1  0
 25 27  2  0
 12 28  2  0
 28  8  1  0
 15 11  1  0
 22 17  1  0
  1 29  1  0
  1 30  1  0
  1 31  1  0
  2 32  1  0
  2 33  1  0
  4 34  1  0
  4 35  1  0
  4 36  1  0
  5 37  1  0
  5 38  1  0
  6 39  1  0
  6 40  1  0
  9 41  1  0
 10 42  1  0
 13 43  1  0
 14 44  1  0
 16 45  1  0
 16 46  1  0
 18 47  1  0
 19 48  1  0
 20 49  1  0
 21 50  1  0
 23 51  1  0
 23 52  1  0
 24 53  1  0
 26 54  1  0
 26 55  1  0
 26 56  1  0
 28 57  1  0
M  END
>  <UniqueID>  (16) 
16

>  <SMILES>  (16) 
CCN(C)CCOc1ccc2c(ccn2Cc2ccccc2CNC(C)=O)c1

>  <Energy>  (16) 
90.51610741527388

>  <Genealogy>  (16) 
CCN(C)CCOc1ccc2c(ccn2Cc2ccccc2CNC(C)=O)c1 (3D coordinates assigned)
CCN(C)CCOc1ccc2c(ccn2Cc2ccccc2CNC(C)=O)c1 (optimized conformer: 90.51610741527388 kcal/mol)

>  <smiles>  (16) 
CCN(C)CCOc1ccc2c(ccn2Cc2ccccc2CNC(C)=O)c1

>  <score_type>  (16) 
oracle

>  <origin>  (16) 
adg

>  <m_score__min__energy>  (16) 
-7.7999999999999998

>  <m_primary>  (16) 
energy

$$$$
16:0
     RDKit          3D

 51 52  0  0  0  0  0  0  0  0999 V2000
   65.7610   37.5830   52.7630 C   0  0  0  0  0  0  0  0  0  0  0  0
   65.6770   36.0700   52.5800 C   0  0  0  0  0  0  0  0  0  0  0  0
   64.5130   35.4360   53.3520 C   0  0  0  0  0  0  0  0  0  0  0  0
   64.1880   34.1440   52.8350 O   0  0  0  0  0  0  0  0  0  0  0  0
   64.0760   33.7880   51.4800 C   0  0  0  0  0  0  0  0  0  0  0  0
   62.9220   34.1850   50.7940 C   0  0  0  0  0  0  0  0  0  0  0  0
   62.7460   33.8640   49.4450 C   0  0  0  0  0  0  0  0  0  0  0  0
   63.7320   33.1410   48.7540 C   0  0  0  0  0  0  0  0  0  0  0  0
   63.5410   32.7840   47.3670 N   0  0  0  0  0  0  0  0  0  0  0  0
   62.3510   31.9340   47.1880 C   0  0  0  0  0  0  0  0  0  0  0  0
   61.1310   32.7440   46.8140 C   0  0  0  0  0  0  0  0  0  0  0  0
   61.2220   34.0010   46.8570 O   0  0  0  0  0  0  0  0  0  0  0  0
   59.8770   32.1250   46.4390 N   0  0  0  0  0  0  0  0  0  0  0  0
   59.7190   30.6610   46.4300 C   0  0  0  0  0  0  0  0  0  0  0  0
   58.2380   30.2570   46.3820 C   0  0  0  0  0  0  0  0  0  0  0  0
   57.4980   30.9310   45.2920 N   0  0  0  0  0  0  0  0  0  0  0  0
   57.1560   30.0820   44.1280 C   0  0  0  0  0  0  0  0  0  0  0  0
   55.6660   29.7170   44.0030 C   0  0  0  0  0  0  0  0  0  0  0  0
   55.1310   29.3510   45.2440 O   0  0  0  0  0  0  0  0  0  0  0  0
   57.9400   32.3000   44.9410 C   0  0  0  0  0  0  0  0  0  0  0  0
   58.7250   32.9630   46.0760 C   0  0  0  0  0  0  0  0  0  0  0  0
   64.8940   32.7450   49.4380 C   0  0  0  0  0  0  0  0  0  0  0  0
   65.0690   33.0670   50.7870 C   0  0  0  0  0  0  0  0  0  0  0  0
   65.7743   37.8223   53.8366 H   0  0  0  0  0  0  0  0  0  0  0  0
   66.6814   37.9588   52.2922 H   0  0  0  0  0  0  0  0  0  0  0  0
   64.8879   38.0583   52.2922 H   0  0  0  0  0  0  0  0  0  0  0  0
   65.5468   35.8532   51.5095 H   0  0  0  0  0  0  0  0  0  0  0  0
   66.6081   35.6387   52.9764 H   0  0  0  0  0  0  0  0  0  0  0  0
   64.7967   35.3373   54.4102 H   0  0  0  0  0  0  0  0  0  0  0  0
   63.6312   36.0846   53.2437 H   0  0  0  0  0  0  0  0  0  0  0  0
   62.1447   34.7562   51.3227 H   0  0  0  0  0  0  0  0  0  0  0  0
   61.8309   34.1791   48.9222 H   0  0  0  0  0  0  0  0  0  0  0  0
   64.3920   32.3030   46.9960 H   0  0  0  0  0  0  0  0  0  0  0  0
   63.4150   33.6590   46.8060 H   0  0  0  0  0  0  0  0  0  0  0  0
   62.5519   31.2044   46.3897 H   0  0  0  0  0  0  0  0  0  0  0  0
   62.1455   31.4295   48.1437 H   0  0  0  0  0  0  0  0  0  0  0  0
   60.2304   30.2513   45.5465 H   0  0  0  0  0  0  0  0  0  0  0  0
   60.1572   30.2600   47.3559 H   0  0  0  0  0  0  0  0  0  0  0  0
   58.1745   29.1693   46.2305 H   0  0  0  0  0  0  0  0  0  0  0  0
   57.7790   30.5622   47.3339 H   0  0  0  0  0  0  0  0  0  0  0  0
   57.4533   30.6190   43.2152 H   0  0  0  0  0  0  0  0  0  0  0  0
   57.6934   29.1330   44.2719 H   0  0  0  0  0  0  0  0  0  0  0  0
   55.1143   30.5865   43.6163 H   0  0  0  0  0  0  0  0  0  0  0  0
   55.5719   28.8628   43.3163 H   0  0  0  0  0  0  0  0  0  0  0  0
   55.7470   29.7200   45.9300 H   0  0  0  0  0  0  0  0  0  0  0  0
   58.5824   32.2472   44.0496 H   0  0  0  0  0  0  0  0  0  0  0  0
   57.0421   32.9067   44.7520 H   0  0  0  0  0  0  0  0  0  0  0  0
   59.0808   33.9502   45.7461 H   0  0  0  0  0  0  0  0  0  0  0  0
   58.0697   33.0795   46.9518 H   0  0  0  0  0  0  0  0  0  0  0  0
   65.6723   32.1769   48.9074 H   0  0  0  0  0  0  0  0  0  0  0  0
   65.9856   32.7563   51.3098 H   0  0  0  0  0  0  0  0  0  0  0  0
  1  2  1  0
  2  3  1  0
  3  4  1  0
  4  5  1  0
  5  6  2  0
  6  7  1  0
  7  8  2  0
  8  9  1  0
  9 10  1  0
 10 11  1  0
 11 12  2  0
 11 13  1  0
 13 14  1  0
 14 15  1  0
 15 16  1  0
 16 17  1  0
 17 18  1  0
 18 19  1  0
 16 20  1  0
 20 21  1  0
  8 22  1  0
 22 23  2  0
 23  5  1  0
 21 13  1  0
  1 24  1  0
  1 25  1  0
  1 26  1  0
  2 27  1  0
  2 28  1  0
  3 29  1  0
  3 30  1  0
  6 31  1  0
  7 32  1  0
  9 33  1  0
  9 34  1  0
 10 35  1  0
 10 36  1  0
 14 37  1  0
 14 38  1  0
 15 39  1  0
 15 40  1  0
 17 41  1  0
 17 42  1  0
 18 43  1  0
 18 44  1  0
 19 45  1  0
 20 46  1  0
 20 47  1  0
 21 48  1  0
 21 49  1  0
 22 50  1  0
 23 51  1  0
M  CHG  1   9   1
M  END
>  <UniqueID>  (17) 
17

>  <SMILES>  (17) 
CCCOc1ccc([NH2+]CC(=O)N2CCN(CCO)CC2)cc1

>  <Energy>  (17) 
58.05047355418143

>  <Genealogy>  (17) 
CCCOc1ccc([NH2+]CC(=O)N2CCN(CCO)CC2)cc1 (protonated)
CCCOc1ccc([NH2+]CC(=O)N2CCN(CCO)CC2)cc1 (3D coordinates assigned)
CCCOc1ccc([NH2+]CC(=O)N2CCN(CCO)CC2)cc1 (nonaromatic ring conformer: 58.05047355418143 kcal/mol)

>  <smiles>  (17) 
CCCOc1ccc(NCC(=O)N2CCN(CCO)CC2)cc1

>  <score_type>  (17) 
oracle

>  <origin>  (17) 
adg

>  <m_score__min__energy>  (17) 
-5.7800000000000002

>  <m_primary>  (17) 
energy

$$$$
17:0
     RDKit          3D

 51 53  0  0  0  0  0  0  0  0999 V2000
   59.2460   29.7760   45.5000 C   0  0  0  0  0  0  0  0  0  0  0  0
   57.7800   29.8880   45.9160 C   0  0  0  0  0  0  0  0  0  0  0  0
   57.0450   30.8180   45.0270 N   0  0  0  0  0  0  0  0  0  0  0  0
   56.2240   30.0640   44.0530 C   0  0  0  0  0  0  0  0  0  0  0  0
   56.5760   30.4470   42.6160 C   0  0  0  0  0  0  0  0  0  0  0  0
   57.9620   31.7740   44.3520 C   0  0  0  0  0  0  0  0  0  0  0  0
   57.4060   33.1900   44.4940 C   0  0  0  0  0  0  0  0  0  0  0  0
   57.8190   33.8820   46.0840 S   0  0  0  0  0  0  0  0  0  0  0  0
   56.7320   33.4280   47.2810 O   0  0  0  0  0  0  0  0  0  0  0  0
   59.4710   33.5410   46.5670 C   0  0  0  0  0  0  0  0  0  0  0  0
   60.5370   34.1390   45.9780 N   0  0  0  0  0  0  0  0  0  0  0  0
   61.5830   33.5890   46.6200 C   0  0  0  0  0  0  0  0  0  0  0  0
   62.9350   33.8380   46.4010 C   0  0  0  0  0  0  0  0  0  0  0  0
   63.8670   33.1300   47.1830 C   0  0  0  0  0  0  0  0  0  0  0  0
   63.4280   32.2020   48.1530 C   0  0  0  0  0  0  0  0  0  0  0  0
   62.0520   31.9730   48.3510 C   0  0  0  0  0  0  0  0  0  0  0  0
   61.1550   32.6920   47.5580 C   0  0  0  0  0  0  0  0  0  0  0  0
   59.8110   32.6560   47.5410 N   0  0  0  0  0  0  0  0  0  0  0  0
   58.9160   31.7920   48.3150 C   0  0  0  0  0  0  0  0  0  0  0  0
   58.7860   32.3030   49.7250 C   0  0  0  0  0  0  0  0  0  0  0  0
   59.5280   33.4190   50.1520 C   0  0  0  0  0  0  0  0  0  0  0  0
   59.3760   33.9110   51.4500 C   0  0  0  0  0  0  0  0  0  0  0  0
   58.4830   33.2970   52.3330 C   0  0  0  0  0  0  0  0  0  0  0  0
   58.3370   33.7780   53.5930 F   0  0  0  0  0  0  0  0  0  0  0  0
   57.7420   32.1880   51.9170 C   0  0  0  0  0  0  0  0  0  0  0  0
   57.8900   31.6920   50.6190 C   0  0  0  0  0  0  0  0  0  0  0  0
   59.8793   29.7276   46.3981 H   0  0  0  0  0  0  0  0  0  0  0  0
   59.3886   28.8643   44.9012 H   0  0  0  0  0  0  0  0  0  0  0  0
   59.5254   30.6554   44.9012 H   0  0  0  0  0  0  0  0  0  0  0  0
   57.3134   28.8934   45.8607 H   0  0  0  0  0  0  0  0  0  0  0  0
   57.7363   30.2777   46.9437 H   0  0  0  0  0  0  0  0  0  0  0  0
   56.4029   28.9875   44.1910 H   0  0  0  0  0  0  0  0  0  0  0  0
   55.1659   30.3082   44.2282 H   0  0  0  0  0  0  0  0  0  0  0  0
   57.3203   31.2569   42.6242 H   0  0  0  0  0  0  0  0  0  0  0  0
   56.9918   29.5721   42.0947 H   0  0  0  0  0  0  0  0  0  0  0  0
   55.6692   30.7877   42.0947 H   0  0  0  0  0  0  0  0  0  0  0  0
   58.9568   31.7210   44.8184 H   0  0  0  0  0  0  0  0  0  0  0  0
   58.0458   31.5153   43.2861 H   0  0  0  0  0  0  0  0  0  0  0  0
   57.8327   33.8249   43.7036 H   0  0  0  0  0  0  0  0  0  0  0  0
   56.3105   33.1470   44.4044 H   0  0  0  0  0  0  0  0  0  0  0  0
   56.0130   34.1070   47.2320 H   0  0  0  0  0  0  0  0  0  0  0  0
   63.2639   34.5635   45.6425 H   0  0  0  0  0  0  0  0  0  0  0  0
   64.9439   33.3005   47.0377 H   0  0  0  0  0  0  0  0  0  0  0  0
   64.1655   31.6543   48.7581 H   0  0  0  0  0  0  0  0  0  0  0  0
   61.6968   31.2535   49.1034 H   0  0  0  0  0  0  0  0  0  0  0  0
   57.9236   31.7798   47.8406 H   0  0  0  0  0  0  0  0  0  0  0  0
   59.3343   30.7750   48.3404 H   0  0  0  0  0  0  0  0  0  0  0  0
   60.2311   33.9063   49.4605 H   0  0  0  0  0  0  0  0  0  0  0  0
   59.9601   34.7834   51.7783 H   0  0  0  0  0  0  0  0  0  0  0  0
   57.0406   31.7043   52.6127 H   0  0  0  0  0  0  0  0  0  0  0  0
   57.3029   30.8198   50.2956 H   0  0  0  0  0  0  0  0  0  0  0  0
  1  2  1  0
  2  3  1  0
  3  4  1  0
  4  5  1  0
  3  6  1  0
  6  7  1  0
  7  8  1  0
  8  9  1  1
  8 10  1  0
 10 11  2  0
 11 12  1  0
 12 13  2  0
 13 14  1  0
 14 15  2  0
 15 16  1  0
 16 17  2  0
 17 18  1  0
 18 19  1  0
 19 20  1  0
 20 21  2  0
 21 22  1  0
 22 23  2  0
 23 24  1  0
 23 25  1  0
 25 26  2  0
 18 10  1  0
 26 20  1  0
 17 12  1  0
  1 27  1  0
  1 28  1  0
  1 29  1  0
  2 30  1  0
  2 31  1  0
  4 32  1  0
  4 33  1  0
  5 34  1  0
  5 35  1  0
  5 36  1  0
  6 37  1  0
  6 38  1  0
  7 39  1  0
  7 40  1  0
  9 41  1  0
 13 42  1  0
 14 43  1  0
 15 44  1  0
 16 45  1  0
 19 46  1  0
 19 47  1  0
 21 48  1  0
 22 49  1  0
 25 50  1  0
 26 51  1  0
M  CHG  1   8   1
M  END
>  <UniqueID>  (18) 
18

>  <SMILES>  (18) 
CCN(CC)CC[S@@+](O)c1nc2ccccc2n1Cc1ccc(F)cc1

>  <Energy>  (18) 
81.60557879110189

>  <Genealogy>  (18) 
CCN(CC)CC[S+](O)c1nc2ccccc2n1Cc1ccc(F)cc1 (protonated)
CCN(CC)CC[S@@+](O)c1nc2ccccc2n1Cc1ccc(F)cc1 (chirality)
CCN(CC)CC[S@@+](O)c1nc2ccccc2n1Cc1ccc(F)cc1 (3D coordinates assigned)
CCN(CC)CC[S@@+](O)c1nc2ccccc2n1Cc1ccc(F)cc1 (optimized conformer: 81.60557879110189 kcal/mol)

>  <smiles>  (18) 
CCN(CC)CC[S+]([O-])c1nc2ccccc2n1Cc1ccc(F)cc1

>  <score_type>  (18) 
oracle

>  <origin>  (18) 
adg

>  <m_score__min__energy>  (18) 
-6.5099999999999998

>  <m_primary>  (18) 
energy

$$$$
18:0
     RDKit          3D

 34 36  0  0  0  0  0  0  0  0999 V2000
   57.3190   25.1800   46.4380 C   0  0  0  0  0  0  0  0  0  0  0  0
   57.7720   26.4920   45.8960 C   0  0  0  0  0  0  0  0  0  0  0  0
   59.0690   26.8080   45.6920 N   0  0  0  0  0  0  0  0  0  0  0  0
   59.2230   28.0880   45.2540 C   0  0  0  0  0  0  0  0  0  0  0  0
   60.5790   28.6450   44.9560 C   0  0  0  0  0  0  0  0  0  0  0  0
   58.0290   28.8070   45.1250 C   0  0  0  0  0  0  0  0  0  0  0  0
   57.8740   30.2040   44.6840 C   0  0  0  0  0  0  0  0  0  0  0  0
   58.1400   30.6490   43.4410 N   0  0  0  0  0  0  0  0  0  0  0  0
   57.8920   31.9470   43.4190 N   0  0  0  0  0  0  0  0  0  0  0  0
   57.4780   32.2490   44.6660 C   0  0  0  0  0  0  0  0  0  0  0  0
   57.0200   33.8960   45.1960 S   0  0  0  0  0  0  0  0  0  0  0  0
   57.5800   33.6560   46.9180 C   0  0  0  0  0  0  0  0  0  0  0  0
   59.0400   33.2870   46.9650 C   0  0  0  0  0  0  0  0  0  0  0  0
   60.0110   34.1830   46.4860 C   0  0  0  0  0  0  0  0  0  0  0  0
   61.3680   33.8560   46.5540 C   0  0  0  0  0  0  0  0  0  0  0  0
   61.7670   32.6350   47.1020 C   0  0  0  0  0  0  0  0  0  0  0  0
   60.8090   31.7390   47.5840 C   0  0  0  0  0  0  0  0  0  0  0  0
   59.4500   32.0610   47.5200 C   0  0  0  0  0  0  0  0  0  0  0  0
   58.5350   31.1800   47.9990 F   0  0  0  0  0  0  0  0  0  0  0  0
   57.4610   31.1900   45.4430 O   0  0  0  0  0  0  0  0  0  0  0  0
   56.7600   27.7960   45.5740 S   0  0  0  0  0  0  0  0  0  0  0  0
   57.3306   25.2137   47.5374 H   0  0  0  0  0  0  0  0  0  0  0  0
   56.2970   24.9720   46.0883 H   0  0  0  0  0  0  0  0  0  0  0  0
   57.9949   24.3857   46.0883 H   0  0  0  0  0  0  0  0  0  0  0  0
   61.1025   28.8600   45.8993 H   0  0  0  0  0  0  0  0  0  0  0  0
   61.1571   27.9115   44.3748 H   0  0  0  0  0  0  0  0  0  0  0  0
   60.4746   29.5731   44.3748 H   0  0  0  0  0  0  0  0  0  0  0  0
   58.4850   30.0950   42.6260 H   0  0  0  0  0  0  0  0  0  0  0  0
   57.4267   34.5894   47.4794 H   0  0  0  0  0  0  0  0  0  0  0  0
   56.9972   32.8371   47.3649 H   0  0  0  0  0  0  0  0  0  0  0  0
   59.7013   35.1466   46.0553 H   0  0  0  0  0  0  0  0  0  0  0  0
   62.1227   34.5611   46.1755 H   0  0  0  0  0  0  0  0  0  0  0  0
   62.8354   32.3785   47.1542 H   0  0  0  0  0  0  0  0  0  0  0  0
   61.1251   30.7776   48.0150 H   0  0  0  0  0  0  0  0  0  0  0  0
  1  2  1  0
  2  3  2  0
  3  4  1  0
  4  5  1  0
  4  6  2  0
  6  7  1  0
  7  8  2  0
  8  9  1  0
  9 10  2  0
 10 11  1  0
 11 12  1  0
 12 13  1  0
 13 14  2  0
 14 15  1  0
 15 16  2  0
 16 17  1  0
 17 18  2  0
 18 19  1  0
 10 20  1  0
  6 21  1  0
 21  2  1  0
 20  7  1  0
 18 13  1  0
  1 22  1  0
  1 23  1  0
  1 24  1  0
  5 25  1  0
  5 26  1  0
  5 27  1  0
  8 28  1  0
 12 29  1  0
 12 30  1  0
 14 31  1  0
 15 32  1  0
 16 33  1  0
 17 34  1  0
M  CHG  1   8   1
M  END
>  <UniqueID>  (19) 
19

>  <SMILES>  (19) 
Cc1nc(C)c(-c2[nH+]nc(SCc3ccccc3F)o2)s1

>  <Energy>  (19) 
94.08490331858754

>  <Genealogy>  (19) 
Cc1nc(C)c(-c2[nH+]nc(SCc3ccccc3F)o2)s1 (protonated)
Cc1nc(C)c(-c2[nH+]nc(SCc3ccccc3F)o2)s1 (3D coordinates assigned)
Cc1nc(C)c(-c2[nH+]nc(SCc3ccccc3F)o2)s1 (optimized conformer: 94.08490331858754 kcal/mol)

>  <smiles>  (19) 
Cc1nc(C)c(-c2nnc(SCc3ccccc3F)o2)s1

>  <score_type>  (19) 
oracle

>  <origin>  (19) 
adg

>  <m_score__min__energy>  (19) 
-6.2800000000000002

>  <m_primary>  (19) 
energy

$$$$
19:0
     RDKit          3D

 67 68  0  0  0  0  0  0  0  0999 V2000
   56.3880   23.8150   43.3020 C   0  0  0  0  0  0  0  0  0  0  0  0
   57.4160   22.7980   43.8150 C   0  0  0  0  0  0  0  0  0  0  0  0
   56.9730   22.1150   45.0570 N   0  0  1  0  0  0  0  0  0  0  0  0
   55.5600   22.4390   45.3580 C   0  0  0  0  0  0  0  0  0  0  0  0
   57.1610   20.6490   44.9180 C   0  0  0  0  0  0  0  0  0  0  0  0
   57.1630   19.9130   46.2750 C   0  0  0  0  0  0  0  0  0  0  0  0
   57.7160   20.7310   47.2900 O   0  0  0  0  0  0  0  0  0  0  0  0
   56.8280   20.8790   48.3850 C   0  0  0  0  0  0  0  0  0  0  0  0
   56.6470   22.3560   48.7630 C   0  0  0  0  0  0  0  0  0  0  0  0
   57.2090   23.2140   47.7870 O   0  0  0  0  0  0  0  0  0  0  0  0
   56.6420   24.5100   47.8370 C   0  0  0  0  0  0  0  0  0  0  0  0
   57.2200   25.4200   46.7470 C   0  0  0  0  0  0  0  0  0  0  0  0
   58.0070   24.6560   45.8540 O   0  0  0  0  0  0  0  0  0  0  0  0
   59.3750   24.9980   45.9790 C   0  0  0  0  0  0  0  0  0  0  0  0
   59.5370   26.1800   46.9470 C   0  0  0  0  0  0  0  0  0  0  0  0
   59.7690   27.4750   46.2730 N   0  0  0  0  0  0  0  0  0  0  0  0
   59.2740   27.6160   44.8870 C   0  0  0  0  0  0  0  0  0  0  0  0
   57.9450   28.3740   44.8120 C   0  0  0  0  0  0  0  0  0  0  0  0
   58.0300   29.5990   45.6030 N   0  0  0  0  0  0  0  0  0  0  0  0
   57.3940   30.8030   45.1400 C   0  0  0  0  0  0  0  0  0  0  0  0
   56.2960   30.7260   44.5250 O   0  0  0  0  0  0  0  0  0  0  0  0
   58.0390   32.1250   45.3210 C   0  0  0  0  0  0  0  0  0  0  0  0
   57.5010   33.2720   44.7110 C   0  0  0  0  0  0  0  0  0  0  0  0
   58.1380   34.5120   44.8570 C   0  0  0  0  0  0  0  0  0  0  0  0
   59.3220   34.6130   45.5990 C   0  0  0  0  0  0  0  0  0  0  0  0
   59.8660   33.4760   46.2020 C   0  0  0  0  0  0  0  0  0  0  0  0
   59.2290   32.2380   46.0670 C   0  0  0  0  0  0  0  0  0  0  0  0
   58.4250   29.4670   47.0060 C   0  0  0  0  0  0  0  0  0  0  0  0
   59.7430   28.6900   47.1150 C   0  0  0  0  0  0  0  0  0  0  0  0
   55.8958   24.3019   44.1568 H   0  0  0  0  0  0  0  0  0  0  0  0
   56.8972   24.5746   42.6907 H   0  0  0  0  0  0  0  0  0  0  0  0
   55.6339   23.2976   42.6907 H   0  0  0  0  0  0  0  0  0  0  0  0
   57.5806   22.0396   43.0354 H   0  0  0  0  0  0  0  0  0  0  0  0
   58.3401   23.3472   44.0483 H   0  0  0  0  0  0  0  0  0  0  0  0
   57.5640   22.4480   45.8570 H   0  0  0  0  0  0  0  0  0  0  0  0
   55.4156   22.4721   46.4480 H   0  0  0  0  0  0  0  0  0  0  0  0
   55.3081   23.4182   44.9248 H   0  0  0  0  0  0  0  0  0  0  0  0
   54.9066   21.6674   44.9248 H   0  0  0  0  0  0  0  0  0  0  0  0
   56.3433   20.2470   44.3017 H   0  0  0  0  0  0  0  0  0  0  0  0
   58.1435   20.4846   44.4515 H   0  0  0  0  0  0  0  0  0  0  0  0
   56.1291   19.6523   46.5453 H   0  0  0  0  0  0  0  0  0  0  0  0
   57.7754   19.0040   46.1821 H   0  0  0  0  0  0  0  0  0  0  0  0
   55.8496   20.4568   48.1121 H   0  0  0  0  0  0  0  0  0  0  0  0
   57.2536   20.3496   49.2502 H   0  0  0  0  0  0  0  0  0  0  0  0
   55.5724   22.5728   48.8533 H   0  0  0  0  0  0  0  0  0  0  0  0
   57.1639   22.5338   49.7176 H   0  0  0  0  0  0  0  0  0  0  0  0
   55.5541   24.4296   47.6954 H   0  0  0  0  0  0  0  0  0  0  0  0
   56.8785   24.9520   48.8161 H   0  0  0  0  0  0  0  0  0  0  0  0
   56.3968   25.8954   46.1935 H   0  0  0  0  0  0  0  0  0  0  0  0
   57.8473   26.1935   47.2140 H   0  0  0  0  0  0  0  0  0  0  0  0
   59.9327   24.1322   46.3654 H   0  0  0  0  0  0  0  0  0  0  0  0
   59.7663   25.2847   44.9917 H   0  0  0  0  0  0  0  0  0  0  0  0
   58.6210   26.2622   47.5505 H   0  0  0  0  0  0  0  0  0  0  0  0
   60.4271   25.9733   47.5593 H   0  0  0  0  0  0  0  0  0  0  0  0
   60.0253   28.1626   44.2982 H   0  0  0  0  0  0  0  0  0  0  0  0
   59.1045   26.6048   44.4886 H   0  0  0  0  0  0  0  0  0  0  0  0
   57.7289   28.6299   43.7642 H   0  0  0  0  0  0  0  0  0  0  0  0
   57.1408   27.7384   45.2112 H   0  0  0  0  0  0  0  0  0  0  0  0
   56.5778   33.1960   44.1177 H   0  0  0  0  0  0  0  0  0  0  0  0
   57.7069   35.4085   44.3875 H   0  0  0  0  0  0  0  0  0  0  0  0
   59.8229   35.5864   45.7068 H   0  0  0  0  0  0  0  0  0  0  0  0
   60.7964   33.5545   46.7836 H   0  0  0  0  0  0  0  0  0  0  0  0
   59.6600   31.3467   46.5464 H   0  0  0  0  0  0  0  0  0  0  0  0
   58.5565   30.4683   47.4421 H   0  0  0  0  0  0  0  0  0  0  0  0
   57.6404   28.9204   47.5496 H   0  0  0  0  0  0  0  0  0  0  0  0
   60.5658   29.3501   46.8032 H   0  0  0  0  0  0  0  0  0  0  0  0
   59.8491   28.3674   48.1613 H   0  0  0  0  0  0  0  0  0  0  0  0
  1  2  1  0
  2  3  1  0
  3  4  1  0
  3  5  1  0
  5  6  1  0
  6  7  1  0
  7  8  1  0
  8  9  1  0
  9 10  1  0
 10 11  1  0
 11 12  1  0
 12 13  1  0
 13 14  1  0
 14 15  1  0
 15 16  1  0
 16 17  1  0
 17 18  1  0
 18 19  1  0
 19 20  1  0
 20 21  2  0
 20 22  1  0
 22 23  2  0
 23 24  1  0
 24 25  2  0
 25 26  1  0
 26 27  2  0
 19 28  1  0
 28 29  1  0
 29 16  1  0
 27 22  1  0
  1 30  1  0
  1 31  1  0
  1 32  1  0
  2 33  1  0
  2 34  1  0
  3 35  1  1
  4 36  1  0
  4 37  1  0
  4 38  1  0
  5 39  1  0
  5 40  1  0
  6 41  1  0
  6 42  1  0
  8 43  1  0
  8 44  1  0
  9 45  1  0
  9 46  1  0
 11 47  1  0
 11 48  1  0
 12 49  1  0
 12 50  1  0
 14 51  1  0
 14 52  1  0
 15 53  1  0
 15 54  1  0
 17 55  1  0
 17 56  1  0
 18 57  1  0
 18 58  1  0
 23 59  1  0
 24 60  1  0
 25 61  1  0
 26 62  1  0
 27 63  1  0
 28 64  1  0
 28 65  1  0
 29 66  1  0
 29 67  1  0
M  CHG  1   3   1
M  END
>  <UniqueID>  (20) 
20

>  <SMILES>  (20) 
CC[N@@H+](C)CCOCCOCCOCCN1CCN(C(=O)c2ccccc2)CC1

>  <Energy>  (20) 
85.24777258773939

>  <Genealogy>  (20) 
CC[NH+](C)CCOCCOCCOCCN1CCN(C(=O)c2ccccc2)CC1 (protonated)
CC[N@@H+](C)CCOCCOCCOCCN1CCN(C(=O)c2ccccc2)CC1 (chirality)
CC[N@@H+](C)CCOCCOCCOCCN1CCN(C(=O)c2ccccc2)CC1 (3D coordinates assigned)
CC[N@@H+](C)CCOCCOCCOCCN1CCN(C(=O)c2ccccc2)CC1 (nonaromatic ring conformer: 85.24777258773939 kcal/mol)

>  <smiles>  (20) 
CCN(C)CCOCCOCCOCCN1CCN(C(=O)c2ccccc2)CC1

>  <score_type>  (20) 
oracle

>  <origin>  (20) 
adg

>  <m_score__min__energy>  (20) 
-5.54

>  <m_primary>  (20) 
energy

$$$$
20:0
     RDKit          3D

 56 57  0  0  0  0  0  0  0  0999 V2000
   57.4160   32.3430   41.1210 C   0  0  0  0  0  0  0  0  0  0  0  0
   58.0940   32.3280   42.5010 C   0  0  0  0  0  0  0  0  0  0  0  0
   57.6700   31.2090   43.3800 N   0  0  0  0  0  0  0  0  0  0  0  0
   56.6340   30.3520   42.7640 C   0  0  0  0  0  0  0  0  0  0  0  0
   55.6450   29.8630   43.8220 C   0  0  0  0  0  0  0  0  0  0  0  0
   57.3280   31.6460   44.7550 C   0  0  0  0  0  0  0  0  0  0  0  0
   57.6220   33.1390   44.9280 C   0  0  0  0  0  0  0  0  0  0  0  0
   57.3490   33.6300   46.3610 C   0  0  0  0  0  0  0  0  0  0  0  0
   58.5700   33.5390   47.1740 N   0  0  0  0  0  0  0  0  0  0  0  0
   59.5560   34.6280   47.1160 C   0  0  0  0  0  0  0  0  0  0  0  0
   60.9060   34.1450   47.5780 C   0  0  0  0  0  0  0  0  0  0  0  0
   61.7870   33.5320   46.6700 C   0  0  0  0  0  0  0  0  0  0  0  0
   63.0190   33.0350   47.1080 C   0  0  0  0  0  0  0  0  0  0  0  0
   63.3820   33.1460   48.4540 C   0  0  0  0  0  0  0  0  0  0  0  0
   64.5740   32.6610   48.8780 F   0  0  0  0  0  0  0  0  0  0  0  0
   62.5080   33.7480   49.3640 C   0  0  0  0  0  0  0  0  0  0  0  0
   61.2740   34.2420   48.9310 C   0  0  0  0  0  0  0  0  0  0  0  0
   58.7170   32.4590   48.1150 C   0  0  0  0  0  0  0  0  0  0  0  0
   58.2550   32.5760   49.2830 O   0  0  0  0  0  0  0  0  0  0  0  0
   59.4500   31.2840   47.7560 N   0  0  0  0  0  0  0  0  0  0  0  0
   58.9410   29.9380   47.9840 C   0  0  0  0  0  0  0  0  0  0  0  0
   58.9570   29.1740   46.6870 C   0  0  0  0  0  0  0  0  0  0  0  0
   57.8880   28.3240   46.3570 C   0  0  0  0  0  0  0  0  0  0  0  0
   57.8470   27.6970   45.1070 C   0  0  0  0  0  0  0  0  0  0  0  0
   58.8650   27.9190   44.1780 C   0  0  0  0  0  0  0  0  0  0  0  0
   59.9350   28.7600   44.5000 C   0  0  0  0  0  0  0  0  0  0  0  0
   59.9820   29.3870   45.7490 C   0  0  0  0  0  0  0  0  0  0  0  0
   56.3238   32.3672   41.2493 H   0  0  0  0  0  0  0  0  0  0  0  0
   57.7395   33.2342   40.5632 H   0  0  0  0  0  0  0  0  0  0  0  0
   57.6997   31.4384   40.5632 H   0  0  0  0  0  0  0  0  0  0  0  0
   59.1810   32.2538   42.3496 H   0  0  0  0  0  0  0  0  0  0  0  0
   57.7944   33.2569   43.0083 H   0  0  0  0  0  0  0  0  0  0  0  0
   56.0918   30.9307   42.0017 H   0  0  0  0  0  0  0  0  0  0  0  0
   57.1214   29.4804   42.3029 H   0  0  0  0  0  0  0  0  0  0  0  0
   56.0512   30.0639   44.8243 H   0  0  0  0  0  0  0  0  0  0  0  0
   54.6880   30.3917   43.7015 H   0  0  0  0  0  0  0  0  0  0  0  0
   55.4841   28.7815   43.7015 H   0  0  0  0  0  0  0  0  0  0  0  0
   56.2589   31.4633   44.9382 H   0  0  0  0  0  0  0  0  0  0  0  0
   57.9366   31.0764   45.4727 H   0  0  0  0  0  0  0  0  0  0  0  0
   58.6801   33.3205   44.6882 H   0  0  0  0  0  0  0  0  0  0  0  0
   56.9540   33.6923   44.2515 H   0  0  0  0  0  0  0  0  0  0  0  0
   57.0126   34.6768   46.3278 H   0  0  0  0  0  0  0  0  0  0  0  0
   56.5708   32.9976   46.8132 H   0  0  0  0  0  0  0  0  0  0  0  0
   59.6360   34.9886   46.0799 H   0  0  0  0  0  0  0  0  0  0  0  0
   59.2249   35.4422   47.7773 H   0  0  0  0  0  0  0  0  0  0  0  0
   61.5062   33.4428   45.6102 H   0  0  0  0  0  0  0  0  0  0  0  0
   63.7035   32.5560   46.3925 H   0  0  0  0  0  0  0  0  0  0  0  0
   62.7920   33.8332   50.4233 H   0  0  0  0  0  0  0  0  0  0  0  0
   60.5876   34.7089   49.6527 H   0  0  0  0  0  0  0  0  0  0  0  0
   59.5764   29.4247   48.7207 H   0  0  0  0  0  0  0  0  0  0  0  0
   57.9112   29.9933   48.3666 H   0  0  0  0  0  0  0  0  0  0  0  0
   57.0807   28.1510   47.0838 H   0  0  0  0  0  0  0  0  0  0  0  0
   57.0109   27.0278   44.8557 H   0  0  0  0  0  0  0  0  0  0  0  0
   58.8256   27.4323   43.1923 H   0  0  0  0  0  0  0  0  0  0  0  0
   60.7404   28.9284   43.7700 H   0  0  0  0  0  0  0  0  0  0  0  0
   60.8241   30.0493   45.9984 H   0  0  0  0  0  0  0  0  0  0  0  0
  1  2  1  0
  2  3  1  0
  3  4  1  0
  4  5  1  0
  3  6  1  0
  6  7  1  0
  7  8  1  0
  8  9  1  0
  9 10  1  0
 10 11  1  0
 11 12  2  0
 12 13  1  0
 13 14  2  0
 14 15  1  0
 14 16  1  0
 16 17  2  0
  9 18  1  0
 18 19  2  0
 18 20  1  0
 20 21  1  0
 21 22  1  0
 22 23  2  0
 23 24  1  0
 24 25  2  0
 25 26  1  0
 26 27  2  0
 17 11  1  0
 27 22  1  0
  1 28  1  0
  1 29  1  0
  1 30  1  0
  2 31  1  0
  2 32  1  0
  4 33  1  0
  4 34  1  0
  5 35  1  0
  5 36  1  0
  5 37  1  0
  6 38  1  0
  6 39  1  0
  7 40  1  0
  7 41  1  0
  8 42  1  0
  8 43  1  0
 10 44  1  0
 10 45  1  0
 12 46  1  0
 13 47  1  0
 16 48  1  0
 17 49  1  0
 21 50  1  0
 21 51  1  0
 23 52  1  0
 24 53  1  0
 25 54  1  0
 26 55  1  0
 27 56  1  0
M  CHG  1  20  -1
M  END
>  <UniqueID>  (21) 
21

>  <SMILES>  (21) 
CCN(CC)CCCN(Cc1ccc(F)cc1)C(=O)[N-]Cc1ccccc1

>  <Energy>  (21) 
46.246220479179904

>  <Genealogy>  (21) 
CCN(CC)CCCN(Cc1ccc(F)cc1)C(=O)[N-]Cc1ccccc1 (protonated)
CCN(CC)CCCN(Cc1ccc(F)cc1)C(=O)[N-]Cc1ccccc1 (3D coordinates assigned)
CCN(CC)CCCN(Cc1ccc(F)cc1)C(=O)[N-]Cc1ccccc1 (optimized conformer: 46.246220479179904 kcal/mol)

>  <smiles>  (21) 
CCN(CC)CCCN(Cc1ccc(F)cc1)C(=O)NCc1ccccc1

>  <score_type>  (21) 
oracle

>  <origin>  (21) 
adg

>  <m_score__min__energy>  (21) 
-8.6899999999999995

>  <m_primary>  (21) 
energy

$$$$
21:0
     RDKit          3D

 38 40  0  0  0  0  0  0  0  0999 V2000
   62.7700   33.5310   47.0010 C   0  0  0  0  0  0  0  0  0  0  0  0
   61.4760   34.1250   47.0390 O   0  0  0  0  0  0  0  0  0  0  0  0
   60.3500   33.6090   46.3800 C   0  0  0  0  0  0  0  0  0  0  0  0
   59.5490   34.4010   45.5170 C   0  0  0  0  0  0  0  0  0  0  0  0
   58.4270   33.8490   44.8750 C   0  0  0  0  0  0  0  0  0  0  0  0
   58.1130   32.5080   45.1020 C   0  0  0  0  0  0  0  0  0  0  0  0
   57.0380   31.8060   44.5450 C   0  0  0  0  0  0  0  0  0  0  0  0
   56.9960   30.4760   44.9670 C   0  0  0  0  0  0  0  0  0  0  0  0
   55.9940   29.4810   44.5630 C   0  0  0  0  0  0  0  0  0  0  0  0
   55.1920   29.7420   43.6260 O   0  0  0  0  0  0  0  0  0  0  0  0
   55.9290   28.2220   45.2410 N   0  0  0  0  0  0  0  0  0  0  0  0
   57.0710   27.3290   45.3970 C   0  0  0  0  0  0  0  0  0  0  0  0
   56.5990   25.8920   45.6320 C   0  0  0  0  0  0  0  0  0  0  0  0
   57.7220   24.8890   45.3570 C   0  0  0  0  0  0  0  0  0  0  0  0
   57.2270   23.7950   44.5270 N   0  0  0  0  0  0  0  0  0  0  0  0
   57.8090   22.6020   44.3340 C   0  0  0  0  0  0  0  0  0  0  0  0
   56.9680   21.8460   43.5470 C   0  0  0  0  0  0  0  0  0  0  0  0
   55.8580   22.5570   43.2570 N   0  0  0  0  0  0  0  0  0  0  0  0
   56.0490   23.7400   43.8770 C   0  0  0  0  0  0  0  0  0  0  0  0
   58.2870   30.1790   46.0240 S   0  0  0  0  0  0  0  0  0  0  0  0
   58.8990   31.7400   45.9450 C   0  0  0  0  0  0  0  0  0  0  0  0
   60.0160   32.2610   46.5930 C   0  0  0  0  0  0  0  0  0  0  0  0
   63.1283   33.3665   48.0279 H   0  0  0  0  0  0  0  0  0  0  0  0
   62.7158   32.5676   46.4729 H   0  0  0  0  0  0  0  0  0  0  0  0
   63.4652   34.2001   46.4729 H   0  0  0  0  0  0  0  0  0  0  0  0
   59.8085   35.4566   45.3489 H   0  0  0  0  0  0  0  0  0  0  0  0
   57.8071   34.4632   44.2053 H   0  0  0  0  0  0  0  0  0  0  0  0
   56.3085   32.2519   43.8528 H   0  0  0  0  0  0  0  0  0  0  0  0
   57.6851   27.3638   44.4851 H   0  0  0  0  0  0  0  0  0  0  0  0
   57.6625   27.6558   46.2649 H   0  0  0  0  0  0  0  0  0  0  0  0
   56.2728   25.7878   46.6773 H   0  0  0  0  0  0  0  0  0  0  0  0
   55.7673   25.6814   44.9436 H   0  0  0  0  0  0  0  0  0  0  0  0
   58.5447   25.3986   44.8341 H   0  0  0  0  0  0  0  0  0  0  0  0
   58.0814   24.4807   46.3131 H   0  0  0  0  0  0  0  0  0  0  0  0
   58.7836   22.2841   44.7328 H   0  0  0  0  0  0  0  0  0  0  0  0
   57.1703   20.8196   43.2069 H   0  0  0  0  0  0  0  0  0  0  0  0
   55.3238   24.5668   43.8541 H   0  0  0  0  0  0  0  0  0  0  0  0
   60.6243   31.6302   47.2579 H   0  0  0  0  0  0  0  0  0  0  0  0
  1  2  1  0
  2  3  1  0
  3  4  2  0
  4  5  1  0
  5  6  2  0
  6  7  1  0
  7  8  2  0
  8  9  1  0
  9 10  2  0
  9 11  1  0
 11 12  1  0
 12 13  1  0
 13 14  1  0
 14 15  1  0
 15 16  1  0
 16 17  2  0
 17 18  1  0
 18 19  2  0
  8 20  1  0
 20 21  1  0
 21 22  2  0
 22  3  1  0
 21  6  1  0
 19 15  1  0
  1 23  1  0
  1 24  1  0
  1 25  1  0
  4 26  1  0
  5 27  1  0
  7 28  1  0
 12 29  1  0
 12 30  1  0
 13 31  1  0
 13 32  1  0
 14 33  1  0
 14 34  1  0
 16 35  1  0
 17 36  1  0
 19 37  1  0
 22 38  1  0
M  CHG  1  11  -1
M  END
>  <UniqueID>  (22) 
22

>  <SMILES>  (22) 
COc1ccc2cc(C(=O)[N-]CCCn3ccnc3)sc2c1

>  <Energy>  (22) 
91.30763255589815

>  <Genealogy>  (22) 
COc1ccc2cc(C(=O)[N-]CCCn3ccnc3)sc2c1 (protonated)
COc1ccc2cc(C(=O)[N-]CCCn3ccnc3)sc2c1 (3D coordinates assigned)
COc1ccc2cc(C(=O)[N-]CCCn3ccnc3)sc2c1 (optimized conformer: 91.30763255589815 kcal/mol)

>  <smiles>  (22) 
COc1ccc2cc(C(=O)NCCCn3ccnc3)sc2c1

>  <score_type>  (22) 
oracle

>  <origin>  (22) 
adg

>  <m_score__min__energy>  (22) 
-8.7899999999999991

>  <m_primary>  (22) 
energy

$$$$
22:0
     RDKit          3D

 53 55  0  0  0  0  0  0  0  0999 V2000
   65.1180   32.7530   49.7360 C   0  0  0  0  0  0  0  0  0  0  0  0
   64.1890   33.8230   49.6010 O   0  0  0  0  0  0  0  0  0  0  0  0
   62.9990   33.7490   48.8630 C   0  0  0  0  0  0  0  0  0  0  0  0
   61.7460   34.0740   49.4150 C   0  0  0  0  0  0  0  0  0  0  0  0
   60.5860   33.9840   48.6380 C   0  0  0  0  0  0  0  0  0  0  0  0
   60.6550   33.5680   47.2960 C   0  0  0  0  0  0  0  0  0  0  0  0
   59.4590   33.4740   46.4940 N   0  0  0  0  0  0  0  0  0  0  0  0
   58.4600   34.3820   46.4290 C   0  0  0  0  0  0  0  0  0  0  0  0
   57.4840   33.9550   45.5520 C   0  0  0  0  0  0  0  0  0  0  0  0
   57.9120   32.7340   45.0680 C   0  0  0  0  0  0  0  0  0  0  0  0
   57.2090   31.8820   44.0490 C   0  0  0  0  0  0  0  0  0  0  0  0
   56.2890   30.9170   44.6740 N   0  0  0  0  0  0  0  0  0  0  0  0
   56.0850   29.7110   43.8580 C   0  0  0  0  0  0  0  0  0  0  0  0
   57.3750   28.8750   43.7210 C   0  0  0  0  0  0  0  0  0  0  0  0
   58.2570   28.9640   44.9190 N   0  0  0  0  0  0  0  0  0  0  0  0
   59.6670   29.2140   44.5130 C   0  0  0  0  0  0  0  0  0  0  0  0
   60.7110   28.6960   45.5320 C   0  0  0  0  0  0  0  0  0  0  0  0
   60.2070   28.6800   46.9180 N   0  0  0  0  0  0  0  0  0  0  0  0
   60.1500   30.0310   47.5000 C   0  0  0  0  0  0  0  0  0  0  0  0
   58.9340   27.9330   47.0700 C   0  0  0  0  0  0  0  0  0  0  0  0
   58.1690   27.7430   45.7450 C   0  0  0  0  0  0  0  0  0  0  0  0
   59.1280   32.4650   45.6610 C   0  0  0  0  0  0  0  0  0  0  0  0
   61.9110   33.2450   46.7500 C   0  0  0  0  0  0  0  0  0  0  0  0
   63.0670   33.3350   47.5280 C   0  0  0  0  0  0  0  0  0  0  0  0
   65.2928   32.5516   50.8032 H   0  0  0  0  0  0  0  0  0  0  0  0
   64.7113   31.8514   49.2546 H   0  0  0  0  0  0  0  0  0  0  0  0
   66.0677   33.0291   49.2546 H   0  0  0  0  0  0  0  0  0  0  0  0
   61.6782   34.4006   50.4632 H   0  0  0  0  0  0  0  0  0  0  0  0
   59.6120   34.2407   49.0801 H   0  0  0  0  0  0  0  0  0  0  0  0
   58.4294   35.3254   46.9938 H   0  0  0  0  0  0  0  0  0  0  0  0
   56.5535   34.4805   45.2911 H   0  0  0  0  0  0  0  0  0  0  0  0
   56.6343   32.5353   43.3760 H   0  0  0  0  0  0  0  0  0  0  0  0
   57.9726   31.3139   43.4975 H   0  0  0  0  0  0  0  0  0  0  0  0
   56.6690   30.6360   45.6080 H   0  0  0  0  0  0  0  0  0  0  0  0
   55.3093   29.0906   44.3305 H   0  0  0  0  0  0  0  0  0  0  0  0
   55.7820   30.0321   42.8505 H   0  0  0  0  0  0  0  0  0  0  0  0
   57.0957   27.8220   43.5689 H   0  0  0  0  0  0  0  0  0  0  0  0
   57.9389   29.2780   42.8668 H   0  0  0  0  0  0  0  0  0  0  0  0
   57.9440   29.7760   45.5020 H   0  0  0  0  0  0  0  0  0  0  0  0
   59.8446   28.7136   43.5496 H   0  0  0  0  0  0  0  0  0  0  0  0
   59.7940   30.3048   44.4501 H   0  0  0  0  0  0  0  0  0  0  0  0
   60.9961   27.6714   45.2511 H   0  0  0  0  0  0  0  0  0  0  0  0
   61.5684   29.3844   45.5023 H   0  0  0  0  0  0  0  0  0  0  0  0
   60.1531   29.9578   48.5976 H   0  0  0  0  0  0  0  0  0  0  0  0
   61.0245   30.6102   47.1687 H   0  0  0  0  0  0  0  0  0  0  0  0
   59.2298   30.5345   47.1687 H   0  0  0  0  0  0  0  0  0  0  0  0
   59.1606   26.9404   47.4863 H   0  0  0  0  0  0  0  0  0  0  0  0
   58.2882   28.5269   47.7335 H   0  0  0  0  0  0  0  0  0  0  0  0
   58.6068   26.8990   45.1918 H   0  0  0  0  0  0  0  0  0  0  0  0
   57.1115   27.5403   45.9699 H   0  0  0  0  0  0  0  0  0  0  0  0
   59.7353   31.5654   45.4823 H   0  0  0  0  0  0  0  0  0  0  0  0
   61.9828   32.9190   45.7019 H   0  0  0  0  0  0  0  0  0  0  0  0
   64.0413   33.0778   47.0869 H   0  0  0  0  0  0  0  0  0  0  0  0
  1  2  1  0
  2  3  1  0
  3  4  2  0
  4  5  1  0
  5  6  2  0
  6  7  1  0
  7  8  1  0
  8  9  2  0
  9 10  1  0
 10 11  1  0
 11 12  1  0
 12 13  1  0
 13 14  1  0
 14 15  1  0
 15 16  1  0
 16 17  1  0
 17 18  1  0
 18 19  1  0
 18 20  1  0
 20 21  1  0
 10 22  2  0
  6 23  1  0
 23 24  2  0
 24  3  1  0
 22  7  1  0
 21 15  1  0
  1 25  1  0
  1 26  1  0
  1 27  1  0
  4 28  1  0
  5 29  1  0
  8 30  1  0
  9 31  1  0
 11 32  1  0
 11 33  1  0
 12 34  1  0
 13 35  1  0
 13 36  1  0
 14 37  1  0
 14 38  1  0
 15 39  1  0
 16 40  1  0
 16 41  1  0
 17 42  1  0
 17 43  1  0
 19 44  1  0
 19 45  1  0
 19 46  1  0
 20 47  1  0
 20 48  1  0
 21 49  1  0
 21 50  1  0
 22 51  1  0
 23 52  1  0
 24 53  1  0
M  CHG  1  15   1
M  END
>  <UniqueID>  (23) 
23

>  <SMILES>  (23) 
COc1ccc(-n2ccc(CNCC[NH+]3CCN(C)CC3)c2)cc1

>  <Energy>  (23) 
96.88379638618386

>  <Genealogy>  (23) 
COc1ccc(-n2ccc(CNCC[NH+]3CCN(C)CC3)c2)cc1 (protonated)
COc1ccc(-n2ccc(CNCC[NH+]3CCN(C)CC3)c2)cc1 (3D coordinates assigned)
COc1ccc(-n2ccc(CNCC[NH+]3CCN(C)CC3)c2)cc1 (nonaromatic ring conformer: 96.88379638618386 kcal/mol)

>  <smiles>  (23) 
COc1ccc(-n2ccc(CNCCN3CCN(C)CC3)c2)cc1

>  <score_type>  (23) 
oracle

>  <origin>  (23) 
adg

>  <m_score__min__energy>  (23) 
-5.29

>  <m_primary>  (23) 
energy

$$$$
23:0
     RDKit          3D

 47 48  0  0  0  0  0  0  0  0999 V2000
   63.7400   33.0920   47.0500 C   0  0  0  0  0  0  0  0  0  0  0  0
   62.9960   32.2440   48.0890 C   0  0  0  0  0  0  0  0  0  0  0  0
   61.5300   32.4750   48.0600 N   0  0  0  0  0  0  0  0  0  0  0  0
   60.8750   31.4430   47.2160 C   0  0  0  0  0  0  0  0  0  0  0  0
   59.4750   31.8900   46.7770 C   0  0  0  0  0  0  0  0  0  0  0  0
   59.5290   33.1000   45.9170 N   0  0  0  0  0  0  0  0  0  0  0  0
   58.2820   33.8920   46.0040 C   0  0  0  0  0  0  0  0  0  0  0  0
   57.0330   33.0390   45.7220 C   0  0  0  0  0  0  0  0  0  0  0  0
   57.2210   32.1300   44.5000 C   0  0  0  0  0  0  0  0  0  0  0  0
   56.2580   31.0210   44.5390 N   0  0  0  0  0  0  0  0  0  0  0  0
   56.7430   29.8620   43.7800 C   0  0  0  0  0  0  0  0  0  0  0  0
   57.7020   29.0690   44.6260 C   0  0  0  0  0  0  0  0  0  0  0  0
   59.0860   29.2750   44.5060 C   0  0  0  0  0  0  0  0  0  0  0  0
   59.9810   28.5170   45.2680 C   0  0  0  0  0  0  0  0  0  0  0  0
   59.5010   27.5410   46.1460 C   0  0  0  0  0  0  0  0  0  0  0  0
   60.3690   26.8060   46.8830 F   0  0  0  0  0  0  0  0  0  0  0  0
   58.1260   27.3190   46.2600 C   0  0  0  0  0  0  0  0  0  0  0  0
   57.2260   28.0740   45.5000 C   0  0  0  0  0  0  0  0  0  0  0  0
   55.8950   27.8330   45.6130 F   0  0  0  0  0  0  0  0  0  0  0  0
   60.7260   33.9420   46.1690 C   0  0  0  0  0  0  0  0  0  0  0  0
   61.1920   33.8650   47.6340 C   0  0  0  0  0  0  0  0  0  0  0  0
   64.3812   33.8229   47.5644 H   0  0  0  0  0  0  0  0  0  0  0  0
   64.3613   32.4383   46.4202 H   0  0  0  0  0  0  0  0  0  0  0  0
   63.0111   33.6230   46.4202 H   0  0  0  0  0  0  0  0  0  0  0  0
   63.1907   31.1811   47.8830 H   0  0  0  0  0  0  0  0  0  0  0  0
   63.3625   32.5342   49.0847 H   0  0  0  0  0  0  0  0  0  0  0  0
   61.1600   32.3420   49.0320 H   0  0  0  0  0  0  0  0  0  0  0  0
   61.4916   31.2665   46.3224 H   0  0  0  0  0  0  0  0  0  0  0  0
   60.7759   30.5213   47.8081 H   0  0  0  0  0  0  0  0  0  0  0  0
   59.0003   31.0731   46.2136 H   0  0  0  0  0  0  0  0  0  0  0  0
   58.8951   32.1359   47.6788 H   0  0  0  0  0  0  0  0  0  0  0  0
   58.2009   34.3157   47.0159 H   0  0  0  0  0  0  0  0  0  0  0  0
   58.3301   34.6839   45.2420 H   0  0  0  0  0  0  0  0  0  0  0  0
   56.8248   32.4125   46.6019 H   0  0  0  0  0  0  0  0  0  0  0  0
   56.1961   33.7213   45.5121 H   0  0  0  0  0  0  0  0  0  0  0  0
   57.0625   32.7166   43.5831 H   0  0  0  0  0  0  0  0  0  0  0  0
   58.2415   31.7195   44.5119 H   0  0  0  0  0  0  0  0  0  0  0  0
   55.3720   31.3470   44.0830 H   0  0  0  0  0  0  0  0  0  0  0  0
   55.8907   29.2259   43.4990 H   0  0  0  0  0  0  0  0  0  0  0  0
   57.2584   30.2097   42.8725 H   0  0  0  0  0  0  0  0  0  0  0  0
   59.4679   30.0360   43.8095 H   0  0  0  0  0  0  0  0  0  0  0  0
   61.0636   28.6891   45.1763 H   0  0  0  0  0  0  0  0  0  0  0  0
   57.7502   26.5485   46.9492 H   0  0  0  0  0  0  0  0  0  0  0  0
   61.5440   33.5990   45.5184 H   0  0  0  0  0  0  0  0  0  0  0  0
   60.4558   34.9865   45.9546 H   0  0  0  0  0  0  0  0  0  0  0  0
   62.0851   34.4961   47.7526 H   0  0  0  0  0  0  0  0  0  0  0  0
   60.3608   34.2125   48.2651 H   0  0  0  0  0  0  0  0  0  0  0  0
  1  2  1  0
  2  3  1  0
  3  4  1  0
  4  5  1  0
  5  6  1  0
  6  7  1  0
  7  8  1  0
  8  9  1  0
  9 10  1  0
 10 11  1  0
 11 12  1  0
 12 13  2  0
 13 14  1  0
 14 15  2  0
 15 16  1  0
 15 17  1  0
 17 18  2  0
 18 19  1  0
  6 20  1  0
 20 21  1  0
 21  3  1  0
 18 12  1  0
  1 22  1  0
  1 23  1  0
  1 24  1  0
  2 25  1  0
  2 26  1  0
  3 27  1  0
  4 28  1  0
  4 29  1  0
  5 30  1  0
  5 31  1  0
  7 32  1  0
  7 33  1  0
  8 34  1  0
  8 35  1  0
  9 36  1  0
  9 37  1  0
 10 38  1  0
 11 39  1  0
 11 40  1  0
 13 41  1  0
 14 42  1  0
 17 43  1  0
 20 44  1  0
 20 45  1  0
 21 46  1  0
 21 47  1  0
M  CHG  1   3   1
M  END
>  <UniqueID>  (24) 
24

>  <SMILES>  (24) 
CC[NH+]1CCN(CCCNCc2ccc(F)cc2F)CC1

>  <Energy>  (24) 
54.690217945331334

>  <Genealogy>  (24) 
CC[NH+]1CCN(CCCNCc2ccc(F)cc2F)CC1 (protonated)
CC[NH+]1CCN(CCCNCc2ccc(F)cc2F)CC1 (3D coordinates assigned)
CC[NH+]1CCN(CCCNCc2ccc(F)cc2F)CC1 (nonaromatic ring conformer: 54.690217945331334 kcal/mol)

>  <smiles>  (24) 
CCN1CCN(CCCNCc2ccc(F)cc2F)CC1

>  <score_type>  (24) 
oracle

>  <origin>  (24) 
adg

>  <m_score__min__energy>  (24) 
-5.2599999999999998

>  <m_primary>  (24) 
energy

$$$$
24:0
     RDKit          3D

 76 78  0  0  0  0  0  0  0  0999 V2000
   58.5090   34.5290   52.7320 C   0  0  0  0  0  0  0  0  0  0  0  0
   59.1750   33.7240   51.6210 C   0  0  0  0  0  0  0  0  0  0  0  0
   59.0560   32.2140   51.8850 C   0  0  0  0  0  0  0  0  0  0  0  0
   59.2560   31.3600   50.6830 N   0  0  1  0  0  0  0  0  0  0  0  0
   59.2000   29.9060   51.0090 C   0  0  0  0  0  0  0  0  0  0  0  0
   60.6000   29.2570   51.0610 C   0  0  0  0  0  0  0  0  0  0  0  0
   61.4520   29.7770   49.9840 N   0  0  0  0  0  0  0  0  0  0  0  0
   62.3930   30.7800   50.4980 C   0  0  0  0  0  0  0  0  0  0  0  0
   62.5950   31.8430   49.4550 C   0  0  0  0  0  0  0  0  0  0  0  0
   62.5680   33.2020   49.8110 C   0  0  0  0  0  0  0  0  0  0  0  0
   62.7090   34.1900   48.8290 C   0  0  0  0  0  0  0  0  0  0  0  0
   62.8710   33.8280   47.4900 C   0  0  0  0  0  0  0  0  0  0  0  0
   62.8850   32.4770   47.1260 C   0  0  0  0  0  0  0  0  0  0  0  0
   62.7390   31.4880   48.1020 C   0  0  0  0  0  0  0  0  0  0  0  0
   58.4810   31.8360   49.4870 C   0  0  0  0  0  0  0  0  0  0  0  0
   59.0550   31.5610   48.0640 C   0  0  0  0  0  0  0  0  0  0  0  0
   59.4540   32.8220   47.2620 C   0  0  2  0  0  0  0  0  0  0  0  0
   59.2580   34.1160   48.0980 C   0  0  0  0  0  0  0  0  0  0  0  0
   59.1790   35.3410   47.2840 N   0  0  0  0  0  0  0  0  0  0  0  0
   59.8840   35.2070   46.0070 C   0  0  0  0  0  0  0  0  0  0  0  0
   59.2370   34.1180   45.1350 C   0  0  0  0  0  0  0  0  0  0  0  0
   58.8380   32.9180   45.9080 N   0  0  0  0  0  0  0  0  0  0  0  0
   57.4250   32.5050   45.7060 C   0  0  0  0  0  0  0  0  0  0  0  0
   57.2050   31.5840   44.4990 C   0  0  0  0  0  0  0  0  0  0  0  0
   56.6360   30.3110   44.9560 N   0  0  0  0  0  0  0  0  0  0  0  0
   57.4410   29.1670   44.5060 C   0  0  0  0  0  0  0  0  0  0  0  0
   58.2290   28.5890   45.6610 C   0  0  0  0  0  0  0  0  0  0  0  0
   59.4670   29.1560   46.0080 C   0  0  0  0  0  0  0  0  0  0  0  0
   60.2340   28.6060   47.0400 C   0  0  0  0  0  0  0  0  0  0  0  0
   59.7740   27.4830   47.7330 C   0  0  0  0  0  0  0  0  0  0  0  0
   60.7450   26.7850   49.0170 Cl  0  0  0  0  0  0  0  0  0  0  0  0
   58.5460   26.9090   47.3960 C   0  0  0  0  0  0  0  0  0  0  0  0
   57.7690   27.4520   46.3640 C   0  0  0  0  0  0  0  0  0  0  0  0
   56.2390   26.6750   45.9700 Cl  0  0  0  0  0  0  0  0  0  0  0  0
   58.8305   34.1404   53.7096 H   0  0  0  0  0  0  0  0  0  0  0  0
   58.8001   35.5861   52.6439 H   0  0  0  0  0  0  0  0  0  0  0  0
   57.4161   34.4411   52.6439 H   0  0  0  0  0  0  0  0  0  0  0  0
   58.6876   33.9610   50.6638 H   0  0  0  0  0  0  0  0  0  0  0  0
   60.2418   33.9902   51.5876 H   0  0  0  0  0  0  0  0  0  0  0  0
   59.8119   31.9355   52.6340 H   0  0  0  0  0  0  0  0  0  0  0  0
   58.0258   32.0364   52.2272 H   0  0  0  0  0  0  0  0  0  0  0  0
   60.2590   31.5540   50.4450 H   0  0  0  0  0  0  0  0  0  0  0  0
   58.7175   29.7828   51.9898 H   0  0  0  0  0  0  0  0  0  0  0  0
   58.6297   29.4066   50.2119 H   0  0  0  0  0  0  0  0  0  0  0  0
   61.0667   29.4818   52.0314 H   0  0  0  0  0  0  0  0  0  0  0  0
   60.4915   28.1699   50.9332 H   0  0  0  0  0  0  0  0  0  0  0  0
   60.8370   30.2480   49.2820 H   0  0  0  0  0  0  0  0  0  0  0  0
   61.9844   31.2341   51.4128 H   0  0  0  0  0  0  0  0  0  0  0  0
   63.3554   30.3010   50.7309 H   0  0  0  0  0  0  0  0  0  0  0  0
   62.4357   33.4905   50.8642 H   0  0  0  0  0  0  0  0  0  0  0  0
   62.6921   35.2527   49.1126 H   0  0  0  0  0  0  0  0  0  0  0  0
   62.9877   34.6056   46.7208 H   0  0  0  0  0  0  0  0  0  0  0  0
   63.0110   32.1934   46.0707 H   0  0  0  0  0  0  0  0  0  0  0  0
   62.7367   30.4272   47.8108 H   0  0  0  0  0  0  0  0  0  0  0  0
   57.4900   31.3609   49.5335 H   0  0  0  0  0  0  0  0  0  0  0  0
   58.5010   32.9323   49.5753 H   0  0  0  0  0  0  0  0  0  0  0  0
   59.9492   30.9298   48.1735 H   0  0  0  0  0  0  0  0  0  0  0  0
   58.2457   31.0798   47.4952 H   0  0  0  0  0  0  0  0  0  0  0  0
   60.5299   32.7108   47.0617 H   0  0  0  0  0  0  0  0  0  0  0  0
   58.3249   34.0202   48.6726 H   0  0  0  0  0  0  0  0  0  0  0  0
   60.1414   34.2170   48.7456 H   0  0  0  0  0  0  0  0  0  0  0  0
   58.1740   35.5640   47.0930 H   0  0  0  0  0  0  0  0  0  0  0  0
   59.8454   36.1672   45.4717 H   0  0  0  0  0  0  0  0  0  0  0  0
   60.9269   34.9218   46.2094 H   0  0  0  0  0  0  0  0  0  0  0  0
   58.3415   34.5395   44.6550 H   0  0  0  0  0  0  0  0  0  0  0  0
   59.9873   33.7991   44.3965 H   0  0  0  0  0  0  0  0  0  0  0  0
   57.0878   31.9759   46.6095 H   0  0  0  0  0  0  0  0  0  0  0  0
   56.8522   33.4236   45.5110 H   0  0  0  0  0  0  0  0  0  0  0  0
   56.5115   32.0637   43.7927 H   0  0  0  0  0  0  0  0  0  0  0  0
   58.1664   31.3984   43.9978 H   0  0  0  0  0  0  0  0  0  0  0  0
   56.6440   30.3120   46.0040 H   0  0  0  0  0  0  0  0  0  0  0  0
   56.7743   28.3926   44.0987 H   0  0  0  0  0  0  0  0  0  0  0  0
   58.1429   29.5079   43.7306 H   0  0  0  0  0  0  0  0  0  0  0  0
   59.8353   30.0384   45.4642 H   0  0  0  0  0  0  0  0  0  0  0  0
   61.2008   29.0580   47.3066 H   0  0  0  0  0  0  0  0  0  0  0  0
   58.1867   26.0255   47.9440 H   0  0  0  0  0  0  0  0  0  0  0  0
  1  2  1  0
  2  3  1  0
  3  4  1  0
  4  5  1  0
  5  6  1  0
  6  7  1  0
  7  8  1  0
  8  9  1  0
  9 10  2  0
 10 11  1  0
 11 12  2  0
 12 13  1  0
 13 14  2  0
  4 15  1  0
 15 16  1  0
 16 17  1  0
 17 18  1  0
 18 19  1  0
 19 20  1  0
 20 21  1  0
 21 22  1  0
 22 23  1  0
 23 24  1  0
 24 25  1  0
 25 26  1  0
 26 27  1  0
 27 28  2  0
 28 29  1  0
 29 30  2  0
 30 31  1  0
 30 32  1  0
 32 33  2  0
 33 34  1  0
 14  9  1  0
 22 17  1  0
 33 27  1  0
  1 35  1  0
  1 36  1  0
  1 37  1  0
  2 38  1  0
  2 39  1  0
  3 40  1  0
  3 41  1  0
  4 42  1  6
  5 43  1  0
  5 44  1  0
  6 45  1  0
  6 46  1  0
  7 47  1  0
  8 48  1  0
  8 49  1  0
 10 50  1  0
 11 51  1  0
 12 52  1  0
 13 53  1  0
 14 54  1  0
 15 55  1  0
 15 56  1  0
 16 57  1  0
 16 58  1  0
 17 59  1  6
 18 60  1  0
 18 61  1  0
 19 62  1  0
 20 63  1  0
 20 64  1  0
 21 65  1  0
 21 66  1  0
 23 67  1  0
 23 68  1  0
 24 69  1  0
 24 70  1  0
 25 71  1  0
 26 72  1  0
 26 73  1  0
 28 74  1  0
 29 75  1  0
 32 76  1  0
M  CHG  1   4   1
M  END
>  <UniqueID>  (25) 
25

>  <SMILES>  (25) 
CCC[N@@H+](CCNCc1ccccc1)CC[C@@H]1CNCCN1CCNCc1ccc(Cl)cc1Cl

>  <Energy>  (25) 
102.3642096643262

>  <Genealogy>  (25) 
CCC[NH+](CCNCc1ccccc1)CCC1CNCCN1CCNCc1ccc(Cl)cc1Cl (protonated)
CCC[N@@H+](CCNCc1ccccc1)CC[C@@H]1CNCCN1CCNCc1ccc(Cl)cc1Cl (chirality)
CCC[N@@H+](CCNCc1ccccc1)CC[C@@H]1CNCCN1CCNCc1ccc(Cl)cc1Cl (3D coordinates assigned)
CCC[N@@H+](CCNCc1ccccc1)CC[C@@H]1CNCCN1CCNCc1ccc(Cl)cc1Cl (nonaromatic ring conformer: 102.3642096643262 kcal/mol)

>  <smiles>  (25) 
CCCN(CCNCc1ccccc1)CCC1CNCCN1CCNCc1ccc(Cl)cc1Cl

>  <score_type>  (25) 
oracle

>  <origin>  (25) 
adg

>  <m_score__min__energy>  (25) 
-6.46

>  <m_primary>  (25) 
energy

$$$$
25:0
     RDKit          3D

 39 42  0  0  0  0  0  0  0  0999 V2000
   57.5020   30.9910   43.3590 C   0  0  0  0  0  0  0  0  0  0  0  0
   57.8100   31.5830   44.6630 N   0  0  0  0  0  0  0  0  0  0  0  0
   57.0590   32.7620   45.1110 C   0  0  0  0  0  0  0  0  0  0  0  0
   57.9810   33.7430   45.7720 C   0  0  0  0  0  0  0  0  0  0  0  0
   58.8330   34.6000   45.0570 C   0  0  0  0  0  0  0  0  0  0  0  0
   59.6560   35.3680   45.8700 C   0  0  0  0  0  0  0  0  0  0  0  0
   59.3300   34.9650   47.4690 S   0  0  0  0  0  0  0  0  0  0  0  0
   58.1430   33.8200   47.1520 C   0  0  0  0  0  0  0  0  0  0  0  0
   58.7300   30.9330   45.5620 C   0  0  0  0  0  0  0  0  0  0  0  0
   59.8130   31.6080   46.0600 N   0  0  0  0  0  0  0  0  0  0  0  0
   60.6790   31.0310   46.9610 C   0  0  0  0  0  0  0  0  0  0  0  0
   61.8430   31.7930   47.4760 C   0  0  0  0  0  0  0  0  0  0  0  0
   62.2890   32.9520   46.8200 C   0  0  0  0  0  0  0  0  0  0  0  0
   63.3840   33.6620   47.3150 C   0  0  0  0  0  0  0  0  0  0  0  0
   64.0280   33.2100   48.4670 C   0  0  0  0  0  0  0  0  0  0  0  0
   63.5890   32.0890   49.0950 N   0  0  0  0  0  0  0  0  0  0  0  0
   62.5260   31.3780   48.6330 C   0  0  0  0  0  0  0  0  0  0  0  0
   60.4420   29.7090   47.3860 C   0  0  0  0  0  0  0  0  0  0  0  0
   59.3620   29.0670   46.8820 N   0  0  0  0  0  0  0  0  0  0  0  0
   58.8920   27.8390   47.1320 C   0  0  0  0  0  0  0  0  0  0  0  0
   57.7380   27.6870   46.3820 C   0  0  0  0  0  0  0  0  0  0  0  0
   57.4930   28.8140   45.6700 N   0  0  0  0  0  0  0  0  0  0  0  0
   58.5180   29.6240   46.0050 C   0  0  0  0  0  0  0  0  0  0  0  0
   56.9988   30.0238   43.5051 H   0  0  0  0  0  0  0  0  0  0  0  0
   56.8412   31.6668   42.7964 H   0  0  0  0  0  0  0  0  0  0  0  0
   58.4347   30.8378   42.7964 H   0  0  0  0  0  0  0  0  0  0  0  0
   56.5816   33.2401   44.2430 H   0  0  0  0  0  0  0  0  0  0  0  0
   56.2928   32.4460   45.8343 H   0  0  0  0  0  0  0  0  0  0  0  0
   58.8471   34.6574   43.9586 H   0  0  0  0  0  0  0  0  0  0  0  0
   60.3923   36.1101   45.5276 H   0  0  0  0  0  0  0  0  0  0  0  0
   57.5913   33.2346   47.9023 H   0  0  0  0  0  0  0  0  0  0  0  0
   59.9740   32.5920   45.7530 H   0  0  0  0  0  0  0  0  0  0  0  0
   61.7737   33.3013   45.9131 H   0  0  0  0  0  0  0  0  0  0  0  0
   63.7357   34.5691   46.8018 H   0  0  0  0  0  0  0  0  0  0  0  0
   64.8916   33.7618   48.8667 H   0  0  0  0  0  0  0  0  0  0  0  0
   62.1987   30.4737   49.1670 H   0  0  0  0  0  0  0  0  0  0  0  0
   61.1127   29.2145   48.1041 H   0  0  0  0  0  0  0  0  0  0  0  0
   59.3379   27.0922   47.8055 H   0  0  0  0  0  0  0  0  0  0  0  0
   57.1113   26.7831   46.3663 H   0  0  0  0  0  0  0  0  0  0  0  0
  1  2  1  0
  2  3  1  0
  3  4  1  0
  4  5  1  0
  5  6  2  0
  6  7  1  0
  7  8  1  0
  2  9  1  0
  9 10  2  0
 10 11  1  0
 11 12  1  0
 12 13  2  0
 13 14  1  0
 14 15  2  0
 15 16  1  0
 16 17  2  0
 11 18  2  0
 18 19  1  0
 19 20  1  0
 20 21  2  0
 21 22  1  0
 22 23  2  0
  8  4  2  0
 23  9  1  0
 17 12  1  0
 23 19  1  0
  1 24  1  0
  1 25  1  0
  1 26  1  0
  3 27  1  0
  3 28  1  0
  5 29  1  0
  6 30  1  0
  8 31  1  0
 10 32  1  0
 13 33  1  0
 14 34  1  0
 15 35  1  0
 17 36  1  0
 18 37  1  0
 20 38  1  0
 21 39  1  0
M  CHG  1  10   1
M  END
>  <UniqueID>  (26) 
26

>  <SMILES>  (26) 
CN(Cc1ccsc1)c1[nH+]c(-c2cccnc2)cn2ccnc12

>  <Energy>  (26) 
110.4240153237947

>  <Genealogy>  (26) 
CN(Cc1ccsc1)c1[nH+]c(-c2cccnc2)cn2ccnc12 (protonated)
CN(Cc1ccsc1)c1[nH+]c(-c2cccnc2)cn2ccnc12 (3D coordinates assigned)
CN(Cc1ccsc1)c1[nH+]c(-c2cccnc2)cn2ccnc12 (optimized conformer: 110.4240153237947 kcal/mol)

>  <smiles>  (26) 
CN(Cc1ccsc1)c1nc(-c2cccnc2)cn2ccnc12

>  <score_type>  (26) 
oracle

>  <origin>  (26) 
adg

>  <m_score__min__energy>  (26) 
-5.46

>  <m_primary>  (26) 
energy

$$$$
26:0
     RDKit          3D

 58 60  0  0  0  0  0  0  0  0999 V2000
   56.3750   29.7440   42.7750 C   0  0  0  0  0  0  0  0  0  0  0  0
   55.9160   30.3980   44.0870 C   0  0  0  0  0  0  0  0  0  0  0  0
   57.0280   30.8640   44.9550 N   0  0  0  0  0  0  0  0  0  0  0  0
   57.8070   29.7650   45.5700 C   0  0  0  0  0  0  0  0  0  0  0  0
   59.2250   29.7020   45.0080 C   0  0  0  0  0  0  0  0  0  0  0  0
   57.8940   31.8590   44.2800 C   0  0  0  0  0  0  0  0  0  0  0  0
   57.4070   33.2790   44.5890 C   0  0  0  0  0  0  0  0  0  0  0  0
   57.9550   33.7580   45.8150 O   0  0  0  0  0  0  0  0  0  0  0  0
   59.1220   34.5300   45.8890 C   0  0  0  0  0  0  0  0  0  0  0  0
   59.2750   35.5180   45.1200 O   0  0  0  0  0  0  0  0  0  0  0  0
   60.1790   34.1880   46.8670 C   0  0  0  0  0  0  0  0  0  0  0  0
   59.9560   34.3610   48.1820 C   0  0  0  0  0  0  0  0  0  0  0  0
   60.9510   33.9760   49.2370 C   0  0  0  0  0  0  0  0  0  0  0  0
   62.3770   33.8880   48.6630 C   0  0  1  0  0  0  0  0  0  0  0  0
   63.4500   33.4050   49.6300 C   0  0  0  0  0  0  0  0  0  0  0  0
   64.7340   33.1330   49.1210 C   0  0  0  0  0  0  0  0  0  0  0  0
   65.7440   32.6450   49.9550 C   0  0  0  0  0  0  0  0  0  0  0  0
   65.4850   32.4130   51.3060 C   0  0  0  0  0  0  0  0  0  0  0  0
   64.2130   32.6590   51.8240 C   0  0  0  0  0  0  0  0  0  0  0  0
   63.1970   33.1460   50.9960 C   0  0  0  0  0  0  0  0  0  0  0  0
   62.4060   33.1480   47.3820 N   0  0  0  0  0  0  0  0  0  0  0  0
   62.3900   31.6650   47.4290 C   0  0  0  0  0  0  0  0  0  0  0  0
   61.1730   31.0790   48.0860 C   0  0  0  0  0  0  0  0  0  0  0  0
   61.1510   30.3340   49.2500 C   0  0  0  0  0  0  0  0  0  0  0  0
   59.8240   30.0530   49.4840 C   0  0  0  0  0  0  0  0  0  0  0  0
   59.1180   30.6390   48.4530 C   0  0  0  0  0  0  0  0  0  0  0  0
   59.9500   31.2460   47.6400 O   0  0  0  0  0  0  0  0  0  0  0  0
   61.5370   33.7470   46.3480 C   0  0  0  0  0  0  0  0  0  0  0  0
   56.9934   28.8629   43.0013 H   0  0  0  0  0  0  0  0  0  0  0  0
   55.4950   29.4344   42.1921 H   0  0  0  0  0  0  0  0  0  0  0  0
   56.9653   30.4664   42.1921 H   0  0  0  0  0  0  0  0  0  0  0  0
   55.2854   31.2644   43.8387 H   0  0  0  0  0  0  0  0  0  0  0  0
   55.3743   29.6260   44.6532 H   0  0  0  0  0  0  0  0  0  0  0  0
   57.8600   29.9289   46.6564 H   0  0  0  0  0  0  0  0  0  0  0  0
   57.3026   28.8145   45.3416 H   0  0  0  0  0  0  0  0  0  0  0  0
   59.9470   29.6699   45.8373 H   0  0  0  0  0  0  0  0  0  0  0  0
   59.3350   28.7981   44.3909 H   0  0  0  0  0  0  0  0  0  0  0  0
   59.4147   30.5926   44.3909 H   0  0  0  0  0  0  0  0  0  0  0  0
   58.9278   31.7433   44.6377 H   0  0  0  0  0  0  0  0  0  0  0  0
   57.8524   31.6933   43.1934 H   0  0  0  0  0  0  0  0  0  0  0  0
   57.7146   33.9491   43.7727 H   0  0  0  0  0  0  0  0  0  0  0  0
   56.3112   33.2582   44.6825 H   0  0  0  0  0  0  0  0  0  0  0  0
   59.0006   34.8050   48.4985 H   0  0  0  0  0  0  0  0  0  0  0  0
   60.9337   34.7308   50.0370 H   0  0  0  0  0  0  0  0  0  0  0  0
   60.6744   32.9854   49.6270 H   0  0  0  0  0  0  0  0  0  0  0  0
   62.6551   34.9342   48.4676 H   0  0  0  0  0  0  0  0  0  0  0  0
   64.9448   33.3064   48.0554 H   0  0  0  0  0  0  0  0  0  0  0  0
   66.7448   32.4436   49.5453 H   0  0  0  0  0  0  0  0  0  0  0  0
   66.2832   32.0363   51.9626 H   0  0  0  0  0  0  0  0  0  0  0  0
   64.0087   32.4690   52.8880 H   0  0  0  0  0  0  0  0  0  0  0  0
   62.1946   33.3287   51.4104 H   0  0  0  0  0  0  0  0  0  0  0  0
   62.4396   31.2874   46.3970 H   0  0  0  0  0  0  0  0  0  0  0  0
   63.2536   31.3605   48.0385 H   0  0  0  0  0  0  0  0  0  0  0  0
   62.0133   30.0295   49.8613 H   0  0  0  0  0  0  0  0  0  0  0  0
   59.4093   29.4769   50.3243 H   0  0  0  0  0  0  0  0  0  0  0  0
   58.0253   30.6027   48.3315 H   0  0  0  0  0  0  0  0  0  0  0  0
   62.0504   34.6256   45.9302 H   0  0  0  0  0  0  0  0  0  0  0  0
   61.3535   32.9677   45.5937 H   0  0  0  0  0  0  0  0  0  0  0  0
  1  2  1  0
  2  3  1  0
  3  4  1  0
  4  5  1  0
  3  6  1  0
  6  7  1  0
  7  8  1  0
  8  9  1  0
  9 10  2  0
  9 11  1  0
 11 12  2  0
 12 13  1  0
 13 14  1  0
 14 15  1  0
 15 16  2  0
 16 17  1  0
 17 18  2  0
 18 19  1  0
 19 20  2  0
 14 21  1  0
 21 22  1  0
 22 23  1  0
 23 24  2  0
 24 25  1  0
 25 26  2  0
 26 27  1  0
 21 28  1  0
 28 11  1  0
 20 15  1  0
 27 23  1  0
  1 29  1  0
  1 30  1  0
  1 31  1  0
  2 32  1  0
  2 33  1  0
  4 34  1  0
  4 35  1  0
  5 36  1  0
  5 37  1  0
  5 38  1  0
  6 39  1  0
  6 40  1  0
  7 41  1  0
  7 42  1  0
 12 43  1  0
 13 44  1  0
 13 45  1  0
 14 46  1  6
 16 47  1  0
 17 48  1  0
 18 49  1  0
 19 50  1  0
 20 51  1  0
 22 52  1  0
 22 53  1  0
 24 54  1  0
 25 55  1  0
 26 56  1  0
 28 57  1  0
 28 58  1  0
M  END
>  <UniqueID>  (27) 
27

>  <SMILES>  (27) 
CCN(CC)CCOC(=O)C1=CC[C@@H](c2ccccc2)N(Cc2ccco2)C1

>  <Energy>  (27) 
94.99710145764642

>  <Genealogy>  (27) 
CCN(CC)CCOC(=O)C1=CC[C@@H](c2ccccc2)N(Cc2ccco2)C1 (chirality)
CCN(CC)CCOC(=O)C1=CC[C@@H](c2ccccc2)N(Cc2ccco2)C1 (3D coordinates assigned)
CCN(CC)CCOC(=O)C1=CC[C@@H](c2ccccc2)N(Cc2ccco2)C1 (nonaromatic ring conformer: 94.99710145764642 kcal/mol)

>  <smiles>  (27) 
CCN(CC)CCOC(=O)C1=CCC(c2ccccc2)N(Cc2ccco2)C1

>  <score_type>  (27) 
oracle

>  <origin>  (27) 
adg

>  <m_score__min__energy>  (27) 
-7.4199999999999999

>  <m_primary>  (27) 
energy

$$$$
27:0
     RDKit          3D

 52 54  0  0  0  0  0  0  0  0999 V2000
   63.3100   33.2060   49.1300 C   0  0  0  0  0  0  0  0  0  0  0  0
   62.3010   32.1770   48.8190 N   0  0  0  0  0  0  0  0  0  0  0  0
   62.5360   31.5970   47.4850 C   0  0  0  0  0  0  0  0  0  0  0  0
   60.9060   32.6570   48.9880 C   0  0  0  0  0  0  0  0  0  0  0  0
   60.0690   31.8630   50.0080 C   0  0  0  0  0  0  0  0  0  0  0  0
   60.8740   30.8630   50.6300 O   0  0  0  0  0  0  0  0  0  0  0  0
   60.8410   29.4990   50.3090 C   0  0  0  0  0  0  0  0  0  0  0  0
   60.9060   28.5720   51.3520 C   0  0  0  0  0  0  0  0  0  0  0  0
   60.8740   27.2010   51.0850 C   0  0  0  0  0  0  0  0  0  0  0  0
   60.7740   26.7440   49.7690 C   0  0  0  0  0  0  0  0  0  0  0  0
   60.6970   27.6600   48.7070 C   0  0  0  0  0  0  0  0  0  0  0  0
   60.5840   27.1750   47.2870 C   0  0  0  0  0  0  0  0  0  0  0  0
   59.3360   27.6590   46.6760 N   0  0  0  0  0  0  0  0  0  0  0  0
   58.2600   26.8230   46.6200 C   0  0  0  0  0  0  0  0  0  0  0  0
   57.0610   27.2520   46.0650 C   0  0  0  0  0  0  0  0  0  0  0  0
   55.9310   26.3580   46.0120 C   0  0  0  0  0  0  0  0  0  0  0  0
   55.0230   25.6400   45.9680 N   0  0  0  0  0  0  0  0  0  0  0  0
   56.9800   28.5570   45.5770 C   0  0  0  0  0  0  0  0  0  0  0  0
   55.8990   28.9680   45.0720 O   0  0  0  0  0  0  0  0  0  0  0  0
   58.0650   29.3860   45.6550 N   0  0  0  0  0  0  0  0  0  0  0  0
   57.9830   30.7270   45.1360 C   0  0  0  0  0  0  0  0  0  0  0  0
   58.0690   31.8280   46.0000 C   0  0  0  0  0  0  0  0  0  0  0  0
   57.9990   33.1290   45.4900 C   0  0  0  0  0  0  0  0  0  0  0  0
   57.8470   33.3330   44.1160 C   0  0  0  0  0  0  0  0  0  0  0  0
   57.7620   32.2390   43.2510 C   0  0  0  0  0  0  0  0  0  0  0  0
   57.8240   30.9380   43.7570 C   0  0  0  0  0  0  0  0  0  0  0  0
   59.2370   28.9430   46.2030 C   0  0  0  0  0  0  0  0  0  0  0  0
   60.2330   29.7180   46.2630 O   0  0  0  0  0  0  0  0  0  0  0  0
   60.7380   29.0370   48.9820 C   0  0  0  0  0  0  0  0  0  0  0  0
   63.4078   33.3057   50.2211 H   0  0  0  0  0  0  0  0  0  0  0  0
   64.2788   32.9112   48.7005 H   0  0  0  0  0  0  0  0  0  0  0  0
   62.9962   34.1688   48.7005 H   0  0  0  0  0  0  0  0  0  0  0  0
   62.4360   31.4010   49.5100 H   0  0  0  0  0  0  0  0  0  0  0  0
   62.9471   30.5825   47.5935 H   0  0  0  0  0  0  0  0  0  0  0  0
   61.5858   31.5505   46.9328 H   0  0  0  0  0  0  0  0  0  0  0  0
   63.2506   32.2250   46.9328 H   0  0  0  0  0  0  0  0  0  0  0  0
   60.9426   33.7058   49.3178 H   0  0  0  0  0  0  0  0  0  0  0  0
   60.4130   32.5254   48.0135 H   0  0  0  0  0  0  0  0  0  0  0  0
   59.6840   32.5499   50.7761 H   0  0  0  0  0  0  0  0  0  0  0  0
   59.2311   31.3776   49.4862 H   0  0  0  0  0  0  0  0  0  0  0  0
   60.9829   28.9241   52.3913 H   0  0  0  0  0  0  0  0  0  0  0  0
   60.9277   26.4795   51.9136 H   0  0  0  0  0  0  0  0  0  0  0  0
   60.7555   25.6635   49.5636 H   0  0  0  0  0  0  0  0  0  0  0  0
   61.4403   27.5497   46.7071 H   0  0  0  0  0  0  0  0  0  0  0  0
   60.5780   26.0750   47.2857 H   0  0  0  0  0  0  0  0  0  0  0  0
   58.3422   25.8007   47.0176 H   0  0  0  0  0  0  0  0  0  0  0  0
   58.1918   31.6685   47.0814 H   0  0  0  0  0  0  0  0  0  0  0  0
   58.0636   33.9909   46.1704 H   0  0  0  0  0  0  0  0  0  0  0  0
   57.7942   34.3559   43.7150 H   0  0  0  0  0  0  0  0  0  0  0  0
   57.6460   32.4023   42.1694 H   0  0  0  0  0  0  0  0  0  0  0  0
   57.7482   30.0786   43.0746 H   0  0  0  0  0  0  0  0  0  0  0  0
   60.6893   29.7603   48.1547 H   0  0  0  0  0  0  0  0  0  0  0  0
  1  2  1  0
  2  3  1  0
  2  4  1  0
  4  5  1  0
  5  6  1  0
  6  7  1  0
  7  8  2  0
  8  9  1  0
  9 10  2  0
 10 11  1  0
 11 12  1  0
 12 13  1  0
 13 14  1  0
 14 15  2  0
 15 16  1  0
 16 17  3  0
 15 18  1  0
 18 19  2  0
 18 20  1  0
 20 21  1  0
 21 22  2  0
 22 23  1  0
 23 24  2  0
 24 25  1  0
 25 26  2  0
 20 27  1  0
 27 28  2  0
 11 29  2  0
 29  7  1  0
 27 13  1  0
 26 21  1  0
  1 30  1  0
  1 31  1  0
  1 32  1  0
  2 33  1  0
  3 34  1  0
  3 35  1  0
  3 36  1  0
  4 37  1  0
  4 38  1  0
  5 39  1  0
  5 40  1  0
  8 41  1  0
  9 42  1  0
 10 43  1  0
 12 44  1  0
 12 45  1  0
 14 46  1  0
 22 47  1  0
 23 48  1  0
 24 49  1  0
 25 50  1  0
 26 51  1  0
 29 52  1  0
M  CHG  1   2   1
M  END
>  <UniqueID>  (28) 
28

>  <SMILES>  (28) 
C[NH+](C)CCOc1cccc(Cn2cc(C#N)c(=O)n(-c3ccccc3)c2=O)c1

>  <Energy>  (28) 
67.46788956489108

>  <Genealogy>  (28) 
C[NH+](C)CCOc1cccc(Cn2cc(C#N)c(=O)n(-c3ccccc3)c2=O)c1 (protonated)
C[NH+](C)CCOc1cccc(Cn2cc(C#N)c(=O)n(-c3ccccc3)c2=O)c1 (3D coordinates assigned)
C[NH+](C)CCOc1cccc(Cn2cc(C#N)c(=O)n(-c3ccccc3)c2=O)c1 (optimized conformer: 67.46788956489108 kcal/mol)

>  <smiles>  (28) 
CN(C)CCOc1cccc(Cn2cc(C#N)c(=O)n(-c3ccccc3)c2=O)c1

>  <score_type>  (28) 
oracle

>  <origin>  (28) 
adg

>  <m_score__min__energy>  (28) 
-6.3399999999999999

>  <m_primary>  (28) 
energy

$$$$
28:0
     RDKit          3D

 42 45  0  0  0  0  0  0  0  0999 V2000
   67.0890   30.7950   51.4410 C   0  0  0  0  0  0  0  0  0  0  0  0
   65.8590   31.4460   51.7470 O   0  0  0  0  0  0  0  0  0  0  0  0
   64.8520   31.7200   50.8110 C   0  0  0  0  0  0  0  0  0  0  0  0
   64.9990   32.8420   49.9900 C   0  0  0  0  0  0  0  0  0  0  0  0
   64.0310   33.1600   49.0350 C   0  0  0  0  0  0  0  0  0  0  0  0
   62.8970   32.3420   48.8630 C   0  0  0  0  0  0  0  0  0  0  0  0
   61.9060   32.6310   47.8930 C   0  0  0  0  0  0  0  0  0  0  0  0
   60.7380   31.8400   47.8090 C   0  0  0  0  0  0  0  0  0  0  0  0
   60.5490   30.8020   48.7370 C   0  0  0  0  0  0  0  0  0  0  0  0
   61.5480   30.4750   49.6540 C   0  0  0  0  0  0  0  0  0  0  0  0
   62.7240   31.2300   49.7230 C   0  0  0  0  0  0  0  0  0  0  0  0
   63.7040   30.9170   50.6770 C   0  0  0  0  0  0  0  0  0  0  0  0
   59.6810   32.2480   46.8250 C   0  0  0  0  0  0  0  0  0  0  0  0
   59.6540   33.6030   46.4150 C   0  0  0  0  0  0  0  0  0  0  0  0
   58.6220   34.0740   45.6000 C   0  0  0  0  0  0  0  0  0  0  0  0
   57.6510   33.1990   45.1190 C   0  0  0  0  0  0  0  0  0  0  0  0
   57.7260   31.8260   45.4070 C   0  0  0  0  0  0  0  0  0  0  0  0
   56.8050   30.9090   44.8730 O   0  0  0  0  0  0  0  0  0  0  0  0
   56.7920   30.4700   43.5180 C   0  0  0  0  0  0  0  0  0  0  0  0
   58.7540   31.3440   46.2390 C   0  0  0  0  0  0  0  0  0  0  0  0
   58.9340   29.5920   46.3670 Cl  0  0  0  0  0  0  0  0  0  0  0  0
   60.7490   34.5430   46.8570 C   0  0  0  0  0  0  0  0  0  0  0  0
   61.9910   33.7850   47.0400 N   0  0  0  0  0  0  0  0  0  0  0  0
   63.0140   33.8480   45.9940 C   0  0  0  0  0  0  0  0  0  0  0  0
   67.6024   30.5233   52.3752 H   0  0  0  0  0  0  0  0  0  0  0  0
   66.8869   29.8858   50.8558 H   0  0  0  0  0  0  0  0  0  0  0  0
   67.7272   31.4734   50.8558 H   0  0  0  0  0  0  0  0  0  0  0  0
   65.8874   33.4817   50.0975 H   0  0  0  0  0  0  0  0  0  0  0  0
   64.1551   34.0575   48.4113 H   0  0  0  0  0  0  0  0  0  0  0  0
   59.6028   30.2411   48.7404 H   0  0  0  0  0  0  0  0  0  0  0  0
   61.4102   29.6168   50.3282 H   0  0  0  0  0  0  0  0  0  0  0  0
   63.5741   30.0376   51.3249 H   0  0  0  0  0  0  0  0  0  0  0  0
   58.5760   35.1411   45.3368 H   0  0  0  0  0  0  0  0  0  0  0  0
   56.8204   33.5853   44.5100 H   0  0  0  0  0  0  0  0  0  0  0  0
   56.7595   29.3709   43.4890 H   0  0  0  0  0  0  0  0  0  0  0  0
   55.9055   30.8766   43.0093 H   0  0  0  0  0  0  0  0  0  0  0  0
   57.7010   30.8235   43.0093 H   0  0  0  0  0  0  0  0  0  0  0  0
   60.9003   35.3176   46.0908 H   0  0  0  0  0  0  0  0  0  0  0  0
   60.4647   35.0210   47.8060 H   0  0  0  0  0  0  0  0  0  0  0  0
   64.0095   33.9093   46.4579 H   0  0  0  0  0  0  0  0  0  0  0  0
   62.9557   32.9446   45.3692 H   0  0  0  0  0  0  0  0  0  0  0  0
   62.8453   34.7375   45.3692 H   0  0  0  0  0  0  0  0  0  0  0  0
  1  2  1  0
  2  3  1  0
  3  4  2  0
  4  5  1  0
  5  6  2  0
  6  7  1  0
  7  8  2  0
  8  9  1  0
  9 10  2  0
 10 11  1  0
 11 12  2  0
  8 13  1  0
 13 14  2  0
 14 15  1  0
 15 16  2  0
 16 17  1  0
 17 18  1  0
 18 19  1  0
 17 20  2  0
 20 21  1  0
 14 22  1  0
 22 23  1  0
 23 24  1  0
 12  3  1  0
 20 13  1  0
 11  6  1  0
 23  7  1  0
  1 25  1  0
  1 26  1  0
  1 27  1  0
  4 28  1  0
  5 29  1  0
  9 30  1  0
 10 31  1  0
 12 32  1  0
 15 33  1  0
 16 34  1  0
 19 35  1  0
 19 36  1  0
 19 37  1  0
 22 38  1  0
 22 39  1  0
 24 40  1  0
 24 41  1  0
 24 42  1  0
M  END
>  <UniqueID>  (29) 
29

>  <SMILES>  (29) 
COc1ccc2c3c(ccc2c1)-c1c(ccc(OC)c1Cl)CN3C

>  <Energy>  (29) 
68.28410898618345

>  <Genealogy>  (29) 
COc1ccc2c3c(ccc2c1)-c1c(ccc(OC)c1Cl)CN3C (3D coordinates assigned)
COc1ccc2c3c(ccc2c1)-c1c(ccc(OC)c1Cl)CN3C (nonaromatic ring conformer: 68.28410898618345 kcal/mol)

>  <smiles>  (29) 
COc1ccc2c3c(ccc2c1)-c1c(ccc(OC)c1Cl)CN3C

>  <score_type>  (29) 
oracle

>  <origin>  (29) 
adg

>  <m_score__min__energy>  (29) 
-7.54

>  <m_primary>  (29) 
energy

$$$$
29:0
     RDKit          3D

 47 49  0  0  1  0  0  0  0  0999 V2000
   61.8150   34.4950   49.3310 C   0  0  0  0  0  0  0  0  0  0  0  0
   60.5190   34.6550   48.8200 O   0  0  0  0  0  0  0  0  0  0  0  0
   59.8870   33.7390   48.0040 C   0  0  0  0  0  0  0  0  0  0  0  0
   59.4930   34.0720   46.7310 C   0  0  0  0  0  0  0  0  0  0  0  0
   58.8530   33.1850   45.8700 C   0  0  0  0  0  0  0  0  0  0  0  0
   58.6280   31.9240   46.3660 C   0  0  0  0  0  0  0  0  0  0  0  0
   59.0170   31.5700   47.6410 C   0  0  0  0  0  0  0  0  0  0  0  0
   59.6590   32.4750   48.4960 C   0  0  0  0  0  0  0  0  0  0  0  0
   60.0500   32.1200   49.7780 O   0  0  0  0  0  0  0  0  0  0  0  0
   59.2210   32.5270   50.8520 C   0  0  0  0  0  0  0  0  0  0  0  0
   57.9680   30.9820   45.4760 C   0  0  0  0  0  0  0  0  0  0  0  0
   57.7080   29.6960   45.9290 C   0  0  0  0  0  0  0  0  0  0  0  0
   57.0640   28.7920   45.0740 C   0  0  0  0  0  0  0  0  0  0  0  0
   56.7860   27.5960   45.4010 N   0  0  0  0  0  0  0  0  0  0  0  0
   57.6170   26.4510   45.1720 C   0  0  0  0  0  0  0  0  0  0  0  0
   58.8200   26.3600   46.0700 C   0  0  0  0  0  0  0  0  0  0  0  0
   59.9290   27.2970   45.6390 C   0  0  0  0  0  0  0  0  0  0  0  0
   58.5290   26.6020   47.5090 C   0  0  0  0  0  0  0  0  0  0  0  0
   56.7380   29.2410   43.8540 N   0  0  0  0  0  0  0  0  0  0  0  0
   57.0090   30.4890   43.4620 C   0  0  0  0  0  0  0  0  0  0  0  0
   56.6550   30.8120   42.2780 O   0  0  0  0  0  0  0  0  0  0  0  0
   57.6370   31.4040   44.2660 N   0  0  0  0  0  0  0  0  0  0  0  0
   57.8520   32.6870   43.6790 C   0  0  0  0  0  0  0  0  0  0  0  0
   58.4890   33.6880   44.5540 C   0  0  0  0  0  0  0  0  0  0  0  0
   61.7788   34.4995   50.4304 H   0  0  0  0  0  0  0  0  0  0  0  0
   62.2314   33.5386   48.9817 H   0  0  0  0  0  0  0  0  0  0  0  0
   62.4515   35.3214   48.9817 H   0  0  0  0  0  0  0  0  0  0  0  0
   59.6936   35.0927   46.3733 H   0  0  0  0  0  0  0  0  0  0  0  0
   58.8175   30.5483   47.9964 H   0  0  0  0  0  0  0  0  0  0  0  0
   59.7123   32.2858   51.8062 H   0  0  0  0  0  0  0  0  0  0  0  0
   59.0493   33.6119   50.7919 H   0  0  0  0  0  0  0  0  0  0  0  0
   58.2577   31.9994   50.7919 H   0  0  0  0  0  0  0  0  0  0  0  0
   58.0031   29.3912   46.9439 H   0  0  0  0  0  0  0  0  0  0  0  0
   57.0067   25.5485   45.3237 H   0  0  0  0  0  0  0  0  0  0  0  0
   58.0010   26.5452   44.1455 H   0  0  0  0  0  0  0  0  0  0  0  0
   59.1467   25.3150   45.9640 H   0  0  0  0  0  0  0  0  0  0  0  0
   60.4229   27.7143   46.5289 H   0  0  0  0  0  0  0  0  0  0  0  0
   60.6644   26.7426   45.0375 H   0  0  0  0  0  0  0  0  0  0  0  0
   59.5051   28.1147   45.0375 H   0  0  0  0  0  0  0  0  0  0  0  0
   59.2285   26.0203   48.1274 H   0  0  0  0  0  0  0  0  0  0  0  0
   58.6460   27.6728   47.7317 H   0  0  0  0  0  0  0  0  0  0  0  0
   57.4974   26.2917   47.7317 H   0  0  0  0  0  0  0  0  0  0  0  0
   56.2650   28.5980   43.2050 H   0  0  0  0  0  0  0  0  0  0  0  0
   58.4936   32.5521   42.7957 H   0  0  0  0  0  0  0  0  0  0  0  0
   56.8526   33.0830   43.4457 H   0  0  0  0  0  0  0  0  0  0  0  0
   59.4022   34.0485   44.0579 H   0  0  0  0  0  0  0  0  0  0  0  0
   57.7478   34.4849   44.7143 H   0  0  0  0  0  0  0  0  0  0  0  0
  1  2  1  0
  2  3  1  0
  3  4  2  0
  4  5  1  0
  5  6  2  0
  6  7  1  0
  7  8  2  0
  8  9  1  0
  9 10  1  0
  6 11  1  0
 11 12  2  0
 12 13  1  0
 13 14  2  0
 14 15  1  0
 15 16  1  0
 16 17  1  0
 16 18  1  0
 13 19  1  0
 19 20  1  0
 20 21  2  0
 20 22  1  0
 22 23  1  0
 23 24  1  0
  8  3  1  0
 22 11  1  0
 24  5  1  0
  1 25  1  0
  1 26  1  0
  1 27  1  0
  4 28  1  0
  7 29  1  0
 10 30  1  0
 10 31  1  0
 10 32  1  0
 12 33  1  0
 15 34  1  0
 15 35  1  0
 16 36  1  0
 17 37  1  0
 17 38  1  0
 17 39  1  0
 18 40  1  0
 18 41  1  0
 18 42  1  0
 19 43  1  0
 23 44  1  0
 23 45  1  0
 24 46  1  0
 24 47  1  0
M  END
>  <smiles>  (30) 
COc1cc2c(cc1OC)-c1cc(=NCC(C)C)[nH]c(=O)n1CC2

>  <score_type>  (30) 
oracle

>  <origin>  (30) 
adg

>  <m_score__min__energy>  (30) 
-6.8200000000000003

>  <m_primary>  (30) 
energy

$$$$
30:0
     RDKit          3D

 56 58  0  0  0  0  0  0  0  0999 V2000
   57.1590   34.0490   44.8450 C   0  0  0  0  0  0  0  0  0  0  0  0
   57.0040   32.8260   45.5580 O   0  0  0  0  0  0  0  0  0  0  0  0
   57.3470   31.5590   45.0550 C   0  0  0  0  0  0  0  0  0  0  0  0
   56.4890   30.8500   44.1930 C   0  0  0  0  0  0  0  0  0  0  0  0
   56.8380   29.5800   43.7310 C   0  0  0  0  0  0  0  0  0  0  0  0
   58.0440   28.9900   44.1250 C   0  0  0  0  0  0  0  0  0  0  0  0
   58.4360   27.6260   43.6050 C   0  0  0  0  0  0  0  0  0  0  0  0
   57.4770   26.5850   44.0130 N   0  0  0  0  0  0  0  0  0  0  0  0
   58.0880   25.5940   44.9120 C   0  0  0  0  0  0  0  0  0  0  0  0
   58.7500   26.2800   46.0790 C   0  0  0  0  0  0  0  0  0  0  0  0
   58.0270   27.1870   46.8720 C   0  0  0  0  0  0  0  0  0  0  0  0
   58.6530   27.8500   47.9320 C   0  0  0  0  0  0  0  0  0  0  0  0
   60.0070   27.6200   48.2010 C   0  0  0  0  0  0  0  0  0  0  0  0
   60.7360   26.7300   47.4070 C   0  0  0  0  0  0  0  0  0  0  0  0
   60.1130   26.0660   46.3460 C   0  0  0  0  0  0  0  0  0  0  0  0
   58.9080   29.6920   44.9760 C   0  0  0  0  0  0  0  0  0  0  0  0
   58.5740   30.9760   45.4400 C   0  0  0  0  0  0  0  0  0  0  0  0
   59.5190   31.6970   46.3260 C   0  0  0  0  0  0  0  0  0  0  0  0
   59.8040   33.0570   46.1140 C   0  0  0  0  0  0  0  0  0  0  0  0
   60.7050   33.7300   46.9420 C   0  0  0  0  0  0  0  0  0  0  0  0
   61.3400   33.0540   47.9950 C   0  0  0  0  0  0  0  0  0  0  0  0
   62.3270   33.7820   48.8710 C   0  0  0  0  0  0  0  0  0  0  0  0
   63.7120   33.4710   48.4610 N   0  0  0  0  0  0  0  0  0  0  0  0
   63.7680   33.0990   47.0370 C   0  0  0  0  0  0  0  0  0  0  0  0
   64.2420   32.3670   49.2780 C   0  0  0  0  0  0  0  0  0  0  0  0
   61.0670   31.6930   48.2030 C   0  0  0  0  0  0  0  0  0  0  0  0
   60.1650   31.0200   47.3740 C   0  0  0  0  0  0  0  0  0  0  0  0
   57.2642   34.8790   45.5592 H   0  0  0  0  0  0  0  0  0  0  0  0
   58.0573   33.9934   44.2125 H   0  0  0  0  0  0  0  0  0  0  0  0
   56.2752   34.2193   44.2125 H   0  0  0  0  0  0  0  0  0  0  0  0
   55.5354   31.3008   43.8809 H   0  0  0  0  0  0  0  0  0  0  0  0
   56.1609   29.0397   43.0531 H   0  0  0  0  0  0  0  0  0  0  0  0
   58.4751   27.6623   42.5063 H   0  0  0  0  0  0  0  0  0  0  0  0
   59.4180   27.3693   44.0291 H   0  0  0  0  0  0  0  0  0  0  0  0
   57.1440   26.0970   43.1480 H   0  0  0  0  0  0  0  0  0  0  0  0
   56.6480   27.0270   44.4790 H   0  0  0  0  0  0  0  0  0  0  0  0
   57.3079   24.9146   45.2860 H   0  0  0  0  0  0  0  0  0  0  0  0
   58.8477   25.0271   44.3540 H   0  0  0  0  0  0  0  0  0  0  0  0
   56.9647   27.3762   46.6581 H   0  0  0  0  0  0  0  0  0  0  0  0
   58.0807   28.5530   48.5551 H   0  0  0  0  0  0  0  0  0  0  0  0
   60.4976   28.1396   49.0373 H   0  0  0  0  0  0  0  0  0  0  0  0
   61.8009   26.5519   47.6172 H   0  0  0  0  0  0  0  0  0  0  0  0
   60.6921   25.3733   45.7177 H   0  0  0  0  0  0  0  0  0  0  0  0
   59.8588   29.2328   45.2845 H   0  0  0  0  0  0  0  0  0  0  0  0
   59.3136   33.5953   45.2896 H   0  0  0  0  0  0  0  0  0  0  0  0
   60.9179   34.7951   46.7679 H   0  0  0  0  0  0  0  0  0  0  0  0
   62.1583   34.8654   48.7832 H   0  0  0  0  0  0  0  0  0  0  0  0
   62.1837   33.4586   49.9126 H   0  0  0  0  0  0  0  0  0  0  0  0
   63.9312   32.0149   46.9474 H   0  0  0  0  0  0  0  0  0  0  0  0
   62.8192   33.3685   46.5500 H   0  0  0  0  0  0  0  0  0  0  0  0
   64.5955   33.6358   46.5500 H   0  0  0  0  0  0  0  0  0  0  0  0
   64.1249   32.6109   50.3442 H   0  0  0  0  0  0  0  0  0  0  0  0
   63.6889   31.4439   49.0501 H   0  0  0  0  0  0  0  0  0  0  0  0
   65.3082   32.2213   49.0501 H   0  0  0  0  0  0  0  0  0  0  0  0
   61.5651   31.1536   49.0221 H   0  0  0  0  0  0  0  0  0  0  0  0
   59.9595   29.9527   47.5433 H   0  0  0  0  0  0  0  0  0  0  0  0
  1  2  1  0
  2  3  1  0
  3  4  2  0
  4  5  1  0
  5  6  2  0
  6  7  1  0
  7  8  1  0
  8  9  1  0
  9 10  1  0
 10 11  2  0
 11 12  1  0
 12 13  2  0
 13 14  1  0
 14 15  2  0
  6 16  1  0
 16 17  2  0
 17 18  1  0
 18 19  2  0
 19 20  1  0
 20 21  2  0
 21 22  1  0
 22 23  1  0
 23 24  1  0
 23 25  1  0
 21 26  1  0
 26 27  2  0
 17  3  1  0
 27 18  1  0
 15 10  1  0
  1 28  1  0
  1 29  1  0
  1 30  1  0
  4 31  1  0
  5 32  1  0
  7 33  1  0
  7 34  1  0
  8 35  1  0
  8 36  1  0
  9 37  1  0
  9 38  1  0
 11 39  1  0
 12 40  1  0
 13 41  1  0
 14 42  1  0
 15 43  1  0
 16 44  1  0
 19 45  1  0
 20 46  1  0
 22 47  1  0
 22 48  1  0
 24 49  1  0
 24 50  1  0
 24 51  1  0
 25 52  1  0
 25 53  1  0
 25 54  1  0
 26 55  1  0
 27 56  1  0
M  CHG  1   8   1
M  END
>  <UniqueID>  (31) 
30

>  <SMILES>  (31) 
COc1ccc(C[NH2+]Cc2ccccc2)cc1-c1ccc(CN(C)C)cc1

>  <Energy>  (31) 
61.9266178512493

>  <Genealogy>  (31) 
COc1ccc(C[NH2+]Cc2ccccc2)cc1-c1ccc(CN(C)C)cc1 (protonated)
COc1ccc(C[NH2+]Cc2ccccc2)cc1-c1ccc(CN(C)C)cc1 (3D coordinates assigned)
COc1ccc(C[NH2+]Cc2ccccc2)cc1-c1ccc(CN(C)C)cc1 (optimized conformer: 61.9266178512493 kcal/mol)

>  <smiles>  (31) 
COc1ccc(CNCc2ccccc2)cc1-c1ccc(CN(C)C)cc1

>  <score_type>  (31) 
oracle

>  <origin>  (31) 
adg

>  <m_score__min__energy>  (31) 
-6.5999999999999996

>  <m_primary>  (31) 
energy

$$$$
31:0
     RDKit          3D

 65 68  0  0  0  0  0  0  0  0999 V2000
   64.5270   35.0970   52.7980 C   0  0  0  0  0  0  0  0  0  0  0  0
   64.8200   33.7590   53.4550 C   0  0  0  0  0  0  0  0  0  0  0  0
   63.6580   32.9370   53.3940 O   0  0  0  0  0  0  0  0  0  0  0  0
   62.7460   33.0220   52.3380 C   0  0  0  0  0  0  0  0  0  0  0  0
   63.1210   32.7520   51.0110 C   0  0  0  0  0  0  0  0  0  0  0  0
   64.4260   32.2490   50.6810 N   0  0  0  0  0  0  0  0  0  0  0  0
   65.3720   33.0920   49.9380 C   0  0  0  0  0  0  0  0  0  0  0  0
   66.7960   32.5670   50.1070 C   0  0  0  0  0  0  0  0  0  0  0  0
   66.9880   32.1780   51.4490 O   0  0  0  0  0  0  0  0  0  0  0  0
   66.3050   30.9620   51.7060 C   0  0  0  0  0  0  0  0  0  0  0  0
   64.8480   30.9350   51.1870 C   0  0  0  0  0  0  0  0  0  0  0  0
   62.2130   32.9280   50.0180 N   0  0  0  0  0  0  0  0  0  0  0  0
   60.9430   33.3420   50.2680 C   0  0  0  0  0  0  0  0  0  0  0  0
   60.0060   33.5260   49.1330 C   0  0  0  0  0  0  0  0  0  0  0  0
   60.1530   34.5980   48.2340 C   0  0  0  0  0  0  0  0  0  0  0  0
   59.2750   34.7460   47.1580 C   0  0  0  0  0  0  0  0  0  0  0  0
   58.2370   33.8260   46.9470 C   0  0  0  0  0  0  0  0  0  0  0  0
   57.3550   34.0100   45.8220 N   0  0  0  0  0  0  0  0  0  0  0  0
   57.5500   33.4090   44.5010 C   0  0  0  0  0  0  0  0  0  0  0  0
   58.2210   32.0340   44.6240 C   0  0  0  0  0  0  0  0  0  0  0  0
   57.2130   30.9650   44.7870 N   0  0  0  0  0  0  0  0  0  0  0  0
   56.3300   30.8630   43.6010 C   0  0  0  0  0  0  0  0  0  0  0  0
   55.5370   29.5420   43.6030 C   0  0  0  0  0  0  0  0  0  0  0  0
   55.5090   28.9810   44.8990 O   0  0  0  0  0  0  0  0  0  0  0  0
   56.8120   28.5720   45.2720 C   0  0  0  0  0  0  0  0  0  0  0  0
   57.8720   29.6700   45.0390 C   0  0  0  0  0  0  0  0  0  0  0  0
   58.0910   32.7510   47.8440 C   0  0  0  0  0  0  0  0  0  0  0  0
   58.9710   32.6010   48.9200 C   0  0  0  0  0  0  0  0  0  0  0  0
   60.5480   33.5560   51.5560 N   0  0  0  0  0  0  0  0  0  0  0  0
   61.4180   33.3950   52.5940 C   0  0  0  0  0  0  0  0  0  0  0  0
   60.9720   33.6740   54.0020 C   0  0  0  0  0  0  0  0  0  0  0  0
   64.3603   35.8581   53.5745 H   0  0  0  0  0  0  0  0  0  0  0  0
   65.3816   35.3930   52.1719 H   0  0  0  0  0  0  0  0  0  0  0  0
   63.6269   35.0088   52.1719 H   0  0  0  0  0  0  0  0  0  0  0  0
   65.6478   33.2640   52.9262 H   0  0  0  0  0  0  0  0  0  0  0  0
   65.1014   33.9198   54.5062 H   0  0  0  0  0  0  0  0  0  0  0  0
   65.1059   33.0821   48.8707 H   0  0  0  0  0  0  0  0  0  0  0  0
   65.3204   34.1185   50.3299 H   0  0  0  0  0  0  0  0  0  0  0  0
   66.9501   31.7008   49.4467 H   0  0  0  0  0  0  0  0  0  0  0  0
   67.5157   33.3560   49.8432 H   0  0  0  0  0  0  0  0  0  0  0  0
   66.8597   30.1450   51.2214 H   0  0  0  0  0  0  0  0  0  0  0  0
   66.2548   30.8509   52.7992 H   0  0  0  0  0  0  0  0  0  0  0  0
   64.7732   30.1989   50.3730 H   0  0  0  0  0  0  0  0  0  0  0  0
   64.1904   30.6636   52.0260 H   0  0  0  0  0  0  0  0  0  0  0  0
   60.9655   35.3251   48.3796 H   0  0  0  0  0  0  0  0  0  0  0  0
   59.3987   35.5937   46.4680 H   0  0  0  0  0  0  0  0  0  0  0  0
   56.5010   34.6010   45.9520 H   0  0  0  0  0  0  0  0  0  0  0  0
   56.5727   33.2912   44.0101 H   0  0  0  0  0  0  0  0  0  0  0  0
   58.1995   34.0674   43.9054 H   0  0  0  0  0  0  0  0  0  0  0  0
   58.8092   31.8382   43.7153 H   0  0  0  0  0  0  0  0  0  0  0  0
   58.8719   32.0399   45.5107 H   0  0  0  0  0  0  0  0  0  0  0  0
   55.6225   31.7052   43.6080 H   0  0  0  0  0  0  0  0  0  0  0  0
   56.9581   30.8886   42.6983 H   0  0  0  0  0  0  0  0  0  0  0  0
   54.5066   29.7384   43.2717 H   0  0  0  0  0  0  0  0  0  0  0  0
   56.0276   28.8328   42.9201 H   0  0  0  0  0  0  0  0  0  0  0  0
   56.8060   28.3100   46.3403 H   0  0  0  0  0  0  0  0  0  0  0  0
   57.0823   27.7111   44.6429 H   0  0  0  0  0  0  0  0  0  0  0  0
   58.5107   29.7542   45.9306 H   0  0  0  0  0  0  0  0  0  0  0  0
   58.4832   29.4008   44.1649 H   0  0  0  0  0  0  0  0  0  0  0  0
   57.2788   32.0238   47.6973 H   0  0  0  0  0  0  0  0  0  0  0  0
   58.8515   31.7499   49.6066 H   0  0  0  0  0  0  0  0  0  0  0  0
   59.5610   33.8290   51.7600 H   0  0  0  0  0  0  0  0  0  0  0  0
   61.6868   33.2268   54.7085 H   0  0  0  0  0  0  0  0  0  0  0  0
   60.9277   34.7611   54.1640 H   0  0  0  0  0  0  0  0  0  0  0  0
   59.9751   33.2382   54.1640 H   0  0  0  0  0  0  0  0  0  0  0  0
  1  2  1  0
  2  3  1  0
  3  4  1  0
  4  5  2  0
  5  6  1  0
  6  7  1  0
  7  8  1  0
  8  9  1  0
  9 10  1  0
 10 11  1  0
  5 12  1  0
 12 13  2  0
 13 14  1  0
 14 15  2  0
 15 16  1  0
 16 17  2  0
 17 18  1  0
 18 19  1  0
 19 20  1  0
 20 21  1  0
 21 22  1  0
 22 23  1  0
 23 24  1  0
 24 25  1  0
 25 26  1  0
 17 27  1  0
 27 28  2  0
 13 29  1  0
 29 30  2  0
 30 31  1  0
 30  4  1  0
 11  6  1  0
 28 14  1  0
 26 21  1  0
  1 32  1  0
  1 33  1  0
  1 34  1  0
  2 35  1  0
  2 36  1  0
  7 37  1  0
  7 38  1  0
  8 39  1  0
  8 40  1  0
 10 41  1  0
 10 42  1  0
 11 43  1  0
 11 44  1  0
 15 45  1  0
 16 46  1  0
 18 47  1  0
 19 48  1  0
 19 49  1  0
 20 50  1  0
 20 51  1  0
 22 52  1  0
 22 53  1  0
 23 54  1  0
 23 55  1  0
 25 56  1  0
 25 57  1  0
 26 58  1  0
 26 59  1  0
 27 60  1  0
 28 61  1  0
 29 62  1  0
 31 63  1  0
 31 64  1  0
 31 65  1  0
M  CHG  1  29   1
M  END
>  <UniqueID>  (32) 
31

>  <SMILES>  (32) 
CCOc1c(N2CCOCC2)nc(-c2ccc(NCCN3CCOCC3)cc2)[nH+]c1C

>  <Energy>  (32) 
90.82937200354135

>  <Genealogy>  (32) 
CCOc1c(N2CCOCC2)nc(-c2ccc(NCCN3CCOCC3)cc2)[nH+]c1C (protonated)
CCOc1c(N2CCOCC2)nc(-c2ccc(NCCN3CCOCC3)cc2)[nH+]c1C (3D coordinates assigned)
CCOc1c(N2CCOCC2)nc(-c2ccc(NCCN3CCOCC3)cc2)[nH+]c1C (nonaromatic ring conformer: 90.82937200354135 kcal/mol)

>  <smiles>  (32) 
CCOc1c(C)nc(-c2ccc(NCCN3CCOCC3)cc2)nc1N1CCOCC1

>  <score_type>  (32) 
oracle

>  <origin>  (32) 
adg

>  <m_score__min__energy>  (32) 
-6.46

>  <m_primary>  (32) 
energy

$$$$
32:0
     RDKit          3D

 53 57  0  0  0  0  0  0  0  0999 V2000
   57.7630   32.2210   42.0880 C   0  0  0  0  0  0  0  0  0  0  0  0
   57.8000   32.1740   43.6120 C   0  0  0  0  0  0  0  0  0  0  0  0
   57.6240   30.7690   44.1050 C   0  0  0  0  0  0  0  0  0  0  0  0
   57.0180   29.7450   43.3800 C   0  0  0  0  0  0  0  0  0  0  0  0
   57.0400   28.5900   44.0790 N   0  0  0  0  0  0  0  0  0  0  0  0
   57.6570   28.8780   45.2350 C   0  0  0  0  0  0  0  0  0  0  0  0
   57.8860   28.0050   46.2470 N   0  0  0  0  0  0  0  0  0  0  0  0
   58.5100   28.4590   47.3710 C   0  0  0  0  0  0  0  0  0  0  0  0
   58.8940   29.7670   47.4680 N   0  0  0  0  0  0  0  0  0  0  0  0
   58.6840   30.6600   46.4540 C   0  0  0  0  0  0  0  0  0  0  0  0
   59.0850   32.0340   46.6320 N   0  0  0  0  0  0  0  0  0  0  0  0
   57.9150   32.9360   46.7790 C   0  0  0  0  0  0  0  0  0  0  0  0
   57.9970   34.2360   45.9820 C   0  0  0  0  0  0  0  0  0  0  0  0
   60.4240   32.3240   47.2520 C   0  0  1  0  0  0  0  0  0  0  0  0
   61.3750   31.0980   47.1090 C   0  0  0  0  0  0  0  0  0  0  0  0
   62.7510   31.3980   47.7450 C   0  0  2  0  0  0  0  0  0  0  0  0
   62.5670   31.7230   49.2420 C   0  0  0  0  0  0  0  0  0  0  0  0
   61.6660   32.9670   49.3940 C   0  0  1  0  0  0  0  0  0  0  0  0
   62.3190   34.1690   48.6850 C   0  0  0  0  0  0  0  0  0  0  0  0
   62.4990   33.8410   47.1910 C   0  0  1  0  0  0  0  0  0  0  0  0
   63.4030   32.6010   47.0350 C   0  0  0  0  0  0  0  0  0  0  0  0
   61.1230   33.5490   46.5600 C   0  0  0  0  0  0  0  0  0  0  0  0
   60.2850   32.6820   48.7650 C   0  0  0  0  0  0  0  0  0  0  0  0
   58.0360   30.1930   45.3020 C   0  0  0  0  0  0  0  0  0  0  0  0
   57.1131   33.0466   41.7623 H   0  0  0  0  0  0  0  0  0  0  0  0
   58.7803   32.3807   41.7013 H   0  0  0  0  0  0  0  0  0  0  0  0
   57.3689   31.2696   41.7013 H   0  0  0  0  0  0  0  0  0  0  0  0
   58.7689   32.5603   43.9614 H   0  0  0  0  0  0  0  0  0  0  0  0
   56.9782   32.7912   44.0042 H   0  0  0  0  0  0  0  0  0  0  0  0
   56.5819   29.8614   42.3769 H   0  0  0  0  0  0  0  0  0  0  0  0
   56.6560   27.6660   43.7780 H   0  0  0  0  0  0  0  0  0  0  0  0
   57.5870   27.0070   46.1720 H   0  0  0  0  0  0  0  0  0  0  0  0
   58.7055   27.7685   48.2046 H   0  0  0  0  0  0  0  0  0  0  0  0
   57.0194   32.3894   46.4488 H   0  0  0  0  0  0  0  0  0  0  0  0
   57.8833   33.2274   47.8392 H   0  0  0  0  0  0  0  0  0  0  0  0
   58.0508   35.0883   46.6753 H   0  0  0  0  0  0  0  0  0  0  0  0
   58.8960   34.2215   45.3483 H   0  0  0  0  0  0  0  0  0  0  0  0
   57.1033   34.3346   45.3483 H   0  0  0  0  0  0  0  0  0  0  0  0
   61.5124   30.8699   46.0417 H   0  0  0  0  0  0  0  0  0  0  0  0
   60.9251   30.2386   47.6277 H   0  0  0  0  0  0  0  0  0  0  0  0
   63.4000   30.5165   47.6365 H   0  0  0  0  0  0  0  0  0  0  0  0
   63.5484   31.9239   49.6965 H   0  0  0  0  0  0  0  0  0  0  0  0
   62.0962   30.8666   49.7469 H   0  0  0  0  0  0  0  0  0  0  0  0
   61.5409   33.1996   50.4618 H   0  0  0  0  0  0  0  0  0  0  0  0
   63.3006   34.3738   49.1373 H   0  0  0  0  0  0  0  0  0  0  0  0
   61.6762   35.0550   48.7934 H   0  0  0  0  0  0  0  0  0  0  0  0
   62.9648   34.6996   46.6853 H   0  0  0  0  0  0  0  0  0  0  0  0
   64.3856   32.8044   47.4856 H   0  0  0  0  0  0  0  0  0  0  0  0
   63.5303   32.3717   45.9667 H   0  0  0  0  0  0  0  0  0  0  0  0
   61.2591   33.3267   45.4913 H   0  0  0  0  0  0  0  0  0  0  0  0
   60.4846   34.4344   46.6960 H   0  0  0  0  0  0  0  0  0  0  0  0
   59.8162   31.8385   49.2929 H   0  0  0  0  0  0  0  0  0  0  0  0
   59.6645   33.5857   48.8563 H   0  0  0  0  0  0  0  0  0  0  0  0
  1  2  1  0
  2  3  1  0
  3  4  2  0
  4  5  1  0
  5  6  1  0
  6  7  2  0
  7  8  1  0
  8  9  2  0
  9 10  1  0
 10 11  1  0
 11 12  1  0
 12 13  1  0
 14 11  1  6
 14 15  1  0
 15 16  1  0
 16 17  1  0
 17 18  1  0
 18 19  1  0
 19 20  1  0
 20 21  1  0
 20 22  1  0
 18 23  1  0
 10 24  2  0
 24  3  1  0
 24  6  1  0
 22 14  1  0
 23 14  1  0
 21 16  1  0
  1 25  1  0
  1 26  1  0
  1 27  1  0
  2 28  1  0
  2 29  1  0
  4 30  1  0
  5 31  1  0
  7 32  1  0
  8 33  1  0
 12 34  1  0
 12 35  1  0
 13 36  1  0
 13 37  1  0
 13 38  1  0
 15 39  1  0
 15 40  1  0
 16 41  1  1
 17 42  1  0
 17 43  1  0
 18 44  1  1
 19 45  1  0
 19 46  1  0
 20 47  1  6
 21 48  1  0
 21 49  1  0
 22 50  1  0
 22 51  1  0
 23 52  1  0
 23 53  1  0
M  CHG  1   7   1
M  END
>  <UniqueID>  (33) 
32

>  <SMILES>  (33) 
CCc1c[nH]c2[nH+]cnc(N(CC)C34CC5CC(CC(C5)C3)C4)c12

>  <Energy>  (33) 
100.86447435691602

>  <Genealogy>  (33) 
CCc1c[nH]c2[nH+]cnc(N(CC)C34CC5CC(CC(C5)C3)C4)c12 (protonated)
CCc1c[nH]c2[nH+]cnc(N(CC)C34CC5CC(CC(C5)C3)C4)c12 (3D coordinates assigned)
CCc1c[nH]c2[nH+]cnc(N(CC)C34CC5CC(CC(C5)C3)C4)c12 (nonaromatic ring conformer: 100.86447435691602 kcal/mol)

>  <smiles>  (33) 
CCc1c[nH]c2ncnc(N(CC)C34CC5CC(CC(C5)C3)C4)c12

>  <score_type>  (33) 
oracle

>  <origin>  (33) 
adg

>  <m_score__min__energy>  (33) 
-6.9000000000000004

>  <m_primary>  (33) 
energy

$$$$
33:0
     RDKit          3D

 49 52  0  0  0  0  0  0  0  0999 V2000
   57.4480   32.3390   41.2320 C   0  0  0  0  0  0  0  0  0  0  0  0
   57.3890   31.9010   42.6930 C   0  0  0  0  0  0  0  0  0  0  0  0
   58.3760   32.7120   43.5550 C   0  0  0  0  0  0  0  0  0  0  0  0
   58.0190   32.8490   44.9970 N   0  0  2  0  0  0  0  0  0  0  0  0
   58.2350   34.2220   45.5430 C   0  0  0  0  0  0  0  0  0  0  0  0
   59.6870   34.5350   45.9850 C   0  0  0  0  0  0  0  0  0  0  0  0
   60.3520   33.3320   46.5630 C   0  0  0  0  0  0  0  0  0  0  0  0
   59.8490   32.0520   46.4830 C   0  0  0  0  0  0  0  0  0  0  0  0
   60.6400   31.1780   47.1530 N   0  0  0  0  0  0  0  0  0  0  0  0
   61.6760   31.9120   47.6040 C   0  0  0  0  0  0  0  0  0  0  0  0
   62.7670   31.4640   48.3490 C   0  0  0  0  0  0  0  0  0  0  0  0
   63.7330   32.4130   48.7340 C   0  0  0  0  0  0  0  0  0  0  0  0
   63.5860   33.7720   48.3760 C   0  0  0  0  0  0  0  0  0  0  0  0
   62.4720   34.1970   47.6300 C   0  0  0  0  0  0  0  0  0  0  0  0
   61.5360   33.2340   47.2580 C   0  0  0  0  0  0  0  0  0  0  0  0
   58.4860   31.7640   45.9210 C   0  0  2  0  0  0  0  0  0  0  0  0
   58.3400   30.3670   45.3270 C   0  0  0  0  0  0  0  0  0  0  0  0
   59.4940   29.6760   44.9180 C   0  0  0  0  0  0  0  0  0  0  0  0
   59.4060   28.3750   44.4190 C   0  0  0  0  0  0  0  0  0  0  0  0
   58.1680   27.7300   44.3280 C   0  0  0  0  0  0  0  0  0  0  0  0
   58.1330   26.4220   43.8210 O   0  0  0  0  0  0  0  0  0  0  0  0
   57.3730   25.3600   44.3880 C   0  0  0  0  0  0  0  0  0  0  0  0
   57.0100   28.4080   44.7480 C   0  0  0  0  0  0  0  0  0  0  0  0
   57.0960   29.7100   45.2470 C   0  0  0  0  0  0  0  0  0  0  0  0
   57.5947   33.4280   41.1813 H   0  0  0  0  0  0  0  0  0  0  0  0
   58.2860   31.8324   40.7309 H   0  0  0  0  0  0  0  0  0  0  0  0
   56.5058   32.0722   40.7309 H   0  0  0  0  0  0  0  0  0  0  0  0
   56.3686   32.0555   43.0736 H   0  0  0  0  0  0  0  0  0  0  0  0
   57.6660   30.8380   42.7508 H   0  0  0  0  0  0  0  0  0  0  0  0
   59.3583   32.2204   43.4959 H   0  0  0  0  0  0  0  0  0  0  0  0
   58.3607   33.7328   43.1455 H   0  0  0  0  0  0  0  0  0  0  0  0
   56.9740   32.7450   44.9910 H   0  0  0  0  0  0  0  0  0  0  0  0
   57.9526   34.9462   44.7647 H   0  0  0  0  0  0  0  0  0  0  0  0
   57.6179   34.2902   46.4510 H   0  0  0  0  0  0  0  0  0  0  0  0
   60.2613   34.8760   45.1110 H   0  0  0  0  0  0  0  0  0  0  0  0
   59.6522   35.3161   46.7587 H   0  0  0  0  0  0  0  0  0  0  0  0
   60.4720   30.1600   47.3120 H   0  0  0  0  0  0  0  0  0  0  0  0
   62.8691   30.4045   48.6264 H   0  0  0  0  0  0  0  0  0  0  0  0
   64.6089   32.0941   49.3180 H   0  0  0  0  0  0  0  0  0  0  0  0
   64.3485   34.5030   48.6830 H   0  0  0  0  0  0  0  0  0  0  0  0
   62.3440   35.2530   47.3499 H   0  0  0  0  0  0  0  0  0  0  0  0
   57.8030   31.7651   46.7833 H   0  0  0  0  0  0  0  0  0  0  0  0
   60.4764   30.1654   44.9919 H   0  0  0  0  0  0  0  0  0  0  0  0
   60.3181   27.8526   44.0946 H   0  0  0  0  0  0  0  0  0  0  0  0
   57.4176   25.4224   45.4853 H   0  0  0  0  0  0  0  0  0  0  0  0
   56.3267   25.4412   44.0584 H   0  0  0  0  0  0  0  0  0  0  0  0
   57.7875   24.3959   44.0584 H   0  0  0  0  0  0  0  0  0  0  0  0
   56.0311   27.9105   44.6833 H   0  0  0  0  0  0  0  0  0  0  0  0
   56.1842   30.2271   45.5805 H   0  0  0  0  0  0  0  0  0  0  0  0
  1  2  1  0
  2  3  1  0
  3  4  1  0
  4  5  1  0
  5  6  1  0
  6  7  1  0
  7  8  2  0
  8  9  1  0
  9 10  1  0
 10 11  2  0
 11 12  1  0
 12 13  2  0
 13 14  1  0
 14 15  2  0
  8 16  1  0
 16 17  1  0
 17 18  2  0
 18 19  1  0
 19 20  2  0
 20 21  1  0
 21 22  1  0
 20 23  1  0
 23 24  2  0
 16  4  1  0
 24 17  1  0
 15  7  1  0
 15 10  1  0
  1 25  1  0
  1 26  1  0
  1 27  1  0
  2 28  1  0
  2 29  1  0
  3 30  1  0
  3 31  1  0
  4 32  1  6
  5 33  1  0
  5 34  1  0
  6 35  1  0
  6 36  1  0
  9 37  1  0
 11 38  1  0
 12 39  1  0
 13 40  1  0
 14 41  1  0
 16 42  1  1
 18 43  1  0
 19 44  1  0
 22 45  1  0
 22 46  1  0
 22 47  1  0
 23 48  1  0
 24 49  1  0
M  CHG  1   4   1
M  END
>  <UniqueID>  (34) 
33

>  <SMILES>  (34) 
CCC[N@@H+]1CCc2c([nH]c3ccccc23)[C@@H]1c1ccc(OC)cc1

>  <Energy>  (34) 
100.13244564011039

>  <Genealogy>  (34) 
CCC[NH+]1CCc2c([nH]c3ccccc23)C1c1ccc(OC)cc1 (protonated)
CCC[N@@H+]1CCc2c([nH]c3ccccc23)[C@@H]1c1ccc(OC)cc1 (chirality)
CCC[N@@H+]1CCc2c([nH]c3ccccc23)[C@@H]1c1ccc(OC)cc1 (3D coordinates assigned)
CCC[N@@H+]1CCc2c([nH]c3ccccc23)[C@@H]1c1ccc(OC)cc1 (nonaromatic ring conformer: 100.13244564011039 kcal/mol)

>  <smiles>  (34) 
CCCN1CCc2c([nH]c3ccccc23)C1c1ccc(OC)cc1

>  <score_type>  (34) 
oracle

>  <origin>  (34) 
adg

>  <m_score__min__energy>  (34) 
-5.9500000000000002

>  <m_primary>  (34) 
energy

$$$$
34:0
     RDKit          3D

 49 51  0  0  0  0  0  0  0  0999 V2000
   62.0300   30.1680   50.5350 C   0  0  0  0  0  0  0  0  0  0  0  0
   61.0380   31.1890   49.9610 C   0  0  0  0  0  0  0  0  0  0  0  0
   60.3590   30.7330   48.7250 N   0  0  0  0  0  0  0  0  0  0  0  0
   58.8910   30.9040   48.7950 C   0  0  0  0  0  0  0  0  0  0  0  0
   58.5240   32.3040   49.2840 C   0  0  0  0  0  0  0  0  0  0  0  0
   60.7750   29.3720   48.3060 C   0  0  0  0  0  0  0  0  0  0  0  0
   59.9790   28.9230   47.0770 C   0  0  0  0  0  0  0  0  0  0  0  0
   59.6550   30.0350   46.2430 O   0  0  0  0  0  0  0  0  0  0  0  0
   58.5180   30.1600   45.4260 C   0  0  0  0  0  0  0  0  0  0  0  0
   57.7900   29.0380   44.9780 C   0  0  0  0  0  0  0  0  0  0  0  0
   56.6850   29.2000   44.1400 C   0  0  0  0  0  0  0  0  0  0  0  0
   56.2960   30.4750   43.7310 C   0  0  0  0  0  0  0  0  0  0  0  0
   57.0060   31.5950   44.1630 C   0  0  0  0  0  0  0  0  0  0  0  0
   58.1140   31.4510   45.0160 C   0  0  0  0  0  0  0  0  0  0  0  0
   58.8260   32.6580   45.5020 C   0  0  0  0  0  0  0  0  0  0  0  0
   58.3940   33.9370   45.1340 C   0  0  0  0  0  0  0  0  0  0  0  0
   59.0640   35.0260   45.5870 N   0  0  0  0  0  0  0  0  0  0  0  0
   60.1450   34.9060   46.3980 C   0  0  0  0  0  0  0  0  0  0  0  0
   60.5850   33.6300   46.7880 C   0  0  0  0  0  0  0  0  0  0  0  0
   61.7620   33.4570   47.6790 C   0  0  0  0  0  0  0  0  0  0  0  0
   62.9050   32.6920   47.4280 C   0  0  0  0  0  0  0  0  0  0  0  0
   63.8460   32.7290   48.4650 C   0  0  0  0  0  0  0  0  0  0  0  0
   63.4530   33.5200   49.5330 C   0  0  0  0  0  0  0  0  0  0  0  0
   64.4540   33.8290   51.1260 Br  0  0  0  0  0  0  0  0  0  0  0  0
   61.9460   34.1730   49.1970 S   0  0  0  0  0  0  0  0  0  0  0  0
   59.9070   32.5370   46.3280 N   0  0  0  0  0  0  0  0  0  0  0  0
   61.9967   30.2023   51.6340 H   0  0  0  0  0  0  0  0  0  0  0  0
   61.7579   29.1591   50.1912 H   0  0  0  0  0  0  0  0  0  0  0  0
   63.0463   30.4109   50.1912 H   0  0  0  0  0  0  0  0  0  0  0  0
   60.2712   31.3937   50.7227 H   0  0  0  0  0  0  0  0  0  0  0  0
   61.6179   32.0854   49.6961 H   0  0  0  0  0  0  0  0  0  0  0  0
   58.4630   30.7494   47.7936 H   0  0  0  0  0  0  0  0  0  0  0  0
   58.4866   30.1681   49.5056 H   0  0  0  0  0  0  0  0  0  0  0  0
   58.5201   32.3189   50.3839 H   0  0  0  0  0  0  0  0  0  0  0  0
   59.2626   33.0283   48.9101 H   0  0  0  0  0  0  0  0  0  0  0  0
   57.5250   32.5728   48.9101 H   0  0  0  0  0  0  0  0  0  0  0  0
   61.8470   29.3808   48.0597 H   0  0  0  0  0  0  0  0  0  0  0  0
   60.5815   28.6708   49.1311 H   0  0  0  0  0  0  0  0  0  0  0  0
   60.5812   28.2049   46.5011 H   0  0  0  0  0  0  0  0  0  0  0  0
   59.0431   28.4558   47.4172 H   0  0  0  0  0  0  0  0  0  0  0  0
   58.0949   28.0285   45.2910 H   0  0  0  0  0  0  0  0  0  0  0  0
   56.1197   28.3192   43.8015 H   0  0  0  0  0  0  0  0  0  0  0  0
   55.4279   30.5977   43.0667 H   0  0  0  0  0  0  0  0  0  0  0  0
   56.6968   32.5980   43.8339 H   0  0  0  0  0  0  0  0  0  0  0  0
   57.5168   34.0586   44.4816 H   0  0  0  0  0  0  0  0  0  0  0  0
   60.6747   35.8040   46.7487 H   0  0  0  0  0  0  0  0  0  0  0  0
   63.0516   32.1151   46.5029 H   0  0  0  0  0  0  0  0  0  0  0  0
   64.8014   32.1846   48.4347 H   0  0  0  0  0  0  0  0  0  0  0  0
   60.2010   31.5840   46.6310 H   0  0  0  0  0  0  0  0  0  0  0  0
  1  2  1  0
  2  3  1  0
  3  4  1  0
  4  5  1  0
  3  6  1  0
  6  7  1  0
  7  8  1  0
  8  9  1  0
  9 10  2  0
 10 11  1  0
 11 12  2  0
 12 13  1  0
 13 14  2  0
 14 15  1  0
 15 16  2  0
 16 17  1  0
 17 18  2  0
 18 19  1  0
 19 20  1  0
 20 21  2  0
 21 22  1  0
 22 23  2  0
 23 24  1  0
 23 25  1  0
 19 26  2  0
 14  9  1  0
 26 15  1  0
 25 20  1  0
  1 27  1  0
  1 28  1  0
  1 29  1  0
  2 30  1  0
  2 31  1  0
  4 32  1  0
  4 33  1  0
  5 34  1  0
  5 35  1  0
  5 36  1  0
  6 37  1  0
  6 38  1  0
  7 39  1  0
  7 40  1  0
 10 41  1  0
 11 42  1  0
 12 43  1  0
 13 44  1  0
 16 45  1  0
 18 46  1  0
 21 47  1  0
 22 48  1  0
 26 49  1  0
M  CHG  1  26   1
M  END
>  <UniqueID>  (35) 
34

>  <SMILES>  (35) 
CCN(CC)CCOc1ccccc1-c1cncc(-c2ccc(Br)s2)[nH+]1

>  <Energy>  (35) 
84.79945323332828

>  <Genealogy>  (35) 
CCN(CC)CCOc1ccccc1-c1cncc(-c2ccc(Br)s2)[nH+]1 (protonated)
CCN(CC)CCOc1ccccc1-c1cncc(-c2ccc(Br)s2)[nH+]1 (3D coordinates assigned)
CCN(CC)CCOc1ccccc1-c1cncc(-c2ccc(Br)s2)[nH+]1 (optimized conformer: 84.79945323332828 kcal/mol)

>  <smiles>  (35) 
CCN(CC)CCOc1ccccc1-c1cncc(-c2ccc(Br)s2)n1

>  <score_type>  (35) 
oracle

>  <origin>  (35) 
adg

>  <m_score__min__energy>  (35) 
-5.8899999999999997

>  <m_primary>  (35) 
energy

$$$$
35:0
     RDKit          3D

 36 38  0  0  0  0  0  0  0  0999 V2000
   57.3490   22.9750   45.6110 C   0  0  0  0  0  0  0  0  0  0  0  0
   56.7580   24.1270   46.2070 O   0  0  0  0  0  0  0  0  0  0  0  0
   57.2010   25.4440   46.0050 C   0  0  0  0  0  0  0  0  0  0  0  0
   58.5700   25.7640   45.9100 C   0  0  0  0  0  0  0  0  0  0  0  0
   58.9750   27.0860   45.7100 C   0  0  0  0  0  0  0  0  0  0  0  0
   60.3000   27.3790   45.6190 N   0  0  0  0  0  0  0  0  0  0  0  0
   60.7380   28.6480   45.4170 C   0  0  0  0  0  0  0  0  0  0  0  0
   59.8260   29.6960   45.3010 C   0  0  0  0  0  0  0  0  0  0  0  0
   58.4500   29.4390   45.4070 C   0  0  0  0  0  0  0  0  0  0  0  0
   57.5060   30.4720   45.2750 O   0  0  0  0  0  0  0  0  0  0  0  0
   57.7450   31.8310   45.5260 C   0  0  0  0  0  0  0  0  0  0  0  0
   57.6610   32.8020   44.5100 C   0  0  0  0  0  0  0  0  0  0  0  0
   57.9250   34.1450   44.7980 C   0  0  0  0  0  0  0  0  0  0  0  0
   58.2860   34.5250   46.0940 C   0  0  0  0  0  0  0  0  0  0  0  0
   58.3900   33.5630   47.1010 C   0  0  0  0  0  0  0  0  0  0  0  0
   58.1270   32.2190   46.8160 C   0  0  0  0  0  0  0  0  0  0  0  0
   58.0130   28.1130   45.6000 C   0  0  0  0  0  0  0  0  0  0  0  0
   56.6490   27.7930   45.6940 C   0  0  0  0  0  0  0  0  0  0  0  0
   56.2390   26.4600   45.8960 C   0  0  0  0  0  0  0  0  0  0  0  0
   54.8850   26.1040   45.9950 O   0  0  0  0  0  0  0  0  0  0  0  0
   54.3340   24.8800   45.5230 C   0  0  0  0  0  0  0  0  0  0  0  0
   57.6990   22.2928   46.3998 H   0  0  0  0  0  0  0  0  0  0  0  0
   56.6029   22.4616   44.9866 H   0  0  0  0  0  0  0  0  0  0  0  0
   58.2012   23.2815   44.9866 H   0  0  0  0  0  0  0  0  0  0  0  0
   59.3245   24.9679   45.9938 H   0  0  0  0  0  0  0  0  0  0  0  0
   61.8168   28.8501   45.3446 H   0  0  0  0  0  0  0  0  0  0  0  0
   60.1837   30.7216   45.1269 H   0  0  0  0  0  0  0  0  0  0  0  0
   57.3871   32.5037   43.4873 H   0  0  0  0  0  0  0  0  0  0  0  0
   57.8485   34.9027   44.0042 H   0  0  0  0  0  0  0  0  0  0  0  0
   58.4882   35.5822   46.3207 H   0  0  0  0  0  0  0  0  0  0  0  0
   58.6790   33.8624   48.1192 H   0  0  0  0  0  0  0  0  0  0  0  0
   58.2208   31.4630   47.6095 H   0  0  0  0  0  0  0  0  0  0  0  0
   55.8946   28.5891   45.6093 H   0  0  0  0  0  0  0  0  0  0  0  0
   54.0508   24.2509   46.3797 H   0  0  0  0  0  0  0  0  0  0  0  0
   53.4436   25.0901   44.9122 H   0  0  0  0  0  0  0  0  0  0  0  0
   55.0816   24.3528   44.9122 H   0  0  0  0  0  0  0  0  0  0  0  0
  1  2  1  0
  2  3  1  0
  3  4  2  0
  4  5  1  0
  5  6  2  0
  6  7  1  0
  7  8  2  0
  8  9  1  0
  9 10  1  0
 10 11  1  0
 11 12  2  0
 12 13  1  0
 13 14  2  0
 14 15  1  0
 15 16  2  0
  9 17  2  0
 17 18  1  0
 18 19  2  0
 19 20  1  0
 20 21  1  0
 19  3  1  0
 17  5  1  0
 16 11  1  0
  1 22  1  0
  1 23  1  0
  1 24  1  0
  4 25  1  0
  7 26  1  0
  8 27  1  0
 12 28  1  0
 13 29  1  0
 14 30  1  0
 15 31  1  0
 16 32  1  0
 18 33  1  0
 21 34  1  0
 21 35  1  0
 21 36  1  0
M  END
>  <UniqueID>  (36) 
35

>  <SMILES>  (36) 
COc1cc2nccc(Oc3ccccc3)c2cc1OC

>  <Energy>  (36) 
48.06590460435375

>  <Genealogy>  (36) 
COc1cc2nccc(Oc3ccccc3)c2cc1OC (3D coordinates assigned)
COc1cc2nccc(Oc3ccccc3)c2cc1OC (optimized conformer: 48.06590460435375 kcal/mol)

>  <smiles>  (36) 
COc1cc2nccc(Oc3ccccc3)c2cc1OC

>  <score_type>  (36) 
oracle

>  <origin>  (36) 
adg

>  <m_score__min__energy>  (36) 
-6.6500000000000004

>  <m_primary>  (36) 
energy

$$$$
36:0
     RDKit          3D

 40 42  0  0  1  0  0  0  0  0999 V2000
   56.9480   30.6130   42.9300 C   0  0  0  0  0  0  0  0  0  0  0  0
   55.9330   29.9110   43.7730 C   0  0  0  0  0  0  0  0  0  0  0  0
   56.3280   29.6880   45.1380 N   0  0  0  0  0  0  0  0  0  0  0  0
   57.3730   28.6540   45.1530 C   0  0  0  0  0  0  0  0  0  0  0  0
   58.6010   29.2720   45.7330 C   0  0  0  0  0  0  0  0  0  0  0  0
   58.2170   30.2610   46.7290 N   0  0  0  0  0  0  0  0  0  0  0  0
   58.7500   31.4530   46.6800 C   0  0  0  0  0  0  0  0  0  0  0  0
   59.9290   31.6600   47.3740 C   0  0  0  0  0  0  0  0  0  0  0  0
   60.6000   32.8570   47.4220 C   0  0  0  0  0  0  0  0  0  0  0  0
   61.8410   33.0080   48.1650 C   0  0  0  0  0  0  0  0  0  0  0  0
   63.0720   32.9590   47.5580 C   0  0  0  0  0  0  0  0  0  0  0  0
   64.2440   33.1210   48.2920 C   0  0  0  0  0  0  0  0  0  0  0  0
   64.2330   33.3400   49.6530 C   0  0  0  0  0  0  0  0  0  0  0  0
   63.0090   33.3920   50.2660 C   0  0  0  0  0  0  0  0  0  0  0  0
   61.8240   33.2290   49.5440 C   0  0  0  0  0  0  0  0  0  0  0  0
   60.0420   33.8760   46.7300 N   0  0  0  0  0  0  0  0  0  0  0  0
   58.8820   33.6750   46.0450 C   0  0  0  0  0  0  0  0  0  0  0  0
   58.1540   34.5860   45.2800 C   0  0  0  0  0  0  0  0  0  0  0  0
   57.0740   33.8700   44.8170 C   0  0  0  0  0  0  0  0  0  0  0  0
   57.1560   32.6080   45.2790 N   0  0  0  0  0  0  0  0  0  0  0  0
   58.2470   32.4880   46.0190 N   0  0  0  0  0  0  0  0  0  0  0  0
   57.6781   31.1180   43.5796 H   0  0  0  0  0  0  0  0  0  0  0  0
   57.4674   29.8802   42.2950 H   0  0  0  0  0  0  0  0  0  0  0  0
   56.4456   31.3575   42.2950 H   0  0  0  0  0  0  0  0  0  0  0  0
   55.0150   30.5170   43.7778 H   0  0  0  0  0  0  0  0  0  0  0  0
   55.7960   28.9156   43.3253 H   0  0  0  0  0  0  0  0  0  0  0  0
   56.6440   30.5440   45.6000 H   0  0  0  0  0  0  0  0  0  0  0  0
   57.0517   27.8031   45.7717 H   0  0  0  0  0  0  0  0  0  0  0  0
   57.5674   28.2823   44.1361 H   0  0  0  0  0  0  0  0  0  0  0  0
   59.2158   28.4927   46.2070 H   0  0  0  0  0  0  0  0  0  0  0  0
   59.1809   29.7586   44.9349 H   0  0  0  0  0  0  0  0  0  0  0  0
   60.3573   30.8090   47.9239 H   0  0  0  0  0  0  0  0  0  0  0  0
   63.1331   32.7888   46.4730 H   0  0  0  0  0  0  0  0  0  0  0  0
   65.2104   33.0726   47.7688 H   0  0  0  0  0  0  0  0  0  0  0  0
   65.1659   33.4674   50.2217 H   0  0  0  0  0  0  0  0  0  0  0  0
   62.9580   33.5660   51.3510 H   0  0  0  0  0  0  0  0  0  0  0  0
   60.8598   33.2756   50.0714 H   0  0  0  0  0  0  0  0  0  0  0  0
   60.4730   34.8230   46.7140 H   0  0  0  0  0  0  0  0  0  0  0  0
   58.3908   35.6431   45.0890 H   0  0  0  0  0  0  0  0  0  0  0  0
   56.2736   34.2646   44.1738 H   0  0  0  0  0  0  0  0  0  0  0  0
  1  2  1  0
  2  3  1  0
  3  4  1  0
  4  5  1  0
  5  6  1  0
  6  7  2  0
  7  8  1  0
  8  9  2  0
  9 10  1  0
 10 11  2  0
 11 12  1  0
 12 13  2  0
 13 14  1  0
 14 15  2  0
  9 16  1  0
 16 17  1  0
 17 18  2  0
 18 19  1  0
 19 20  2  0
 20 21  1  0
 21  7  1  0
 15 10  1  0
 21 17  1  0
  1 22  1  0
  1 23  1  0
  1 24  1  0
  2 25  1  0
  2 26  1  0
  3 27  1  0
  4 28  1  0
  4 29  1  0
  5 30  1  0
  5 31  1  0
  8 32  1  0
 11 33  1  0
 12 34  1  0
 13 35  1  0
 14 36  1  0
 15 37  1  0
 16 38  1  0
 18 39  1  0
 19 40  1  0
M  END
>  <smiles>  (37) 
CCNCCN=c1cc(-c2ccccc2)[nH]c2ccnn12

>  <score_type>  (37) 
oracle

>  <origin>  (37) 
adg

>  <m_score__min__energy>  (37) 
-6.7199999999999998

>  <m_primary>  (37) 
energy

$$$$
37:0
     RDKit          3D

 47 49  0  0  0  0  0  0  0  0999 V2000
   57.6529   28.7916   48.1089 H   0  0  0  0  0  0  0  0  0  0  0  0
   58.1690   28.6360   47.1500 C   0  0  0  0  0  0  0  0  0  0  0  0
   57.3640   28.5150   45.9150 C   0  0  0  0  0  0  0  0  0  0  0  0
   57.2320   27.3950   45.3530 O   0  0  0  0  0  0  0  0  0  0  0  0
   56.7860   29.6700   45.2910 N   0  0  0  0  0  0  0  0  0  0  0  0
   57.3830   30.9710   45.1930 C   0  0  0  0  0  0  0  0  0  0  0  0
   57.5440   31.6110   43.9550 C   0  0  0  0  0  0  0  0  0  0  0  0
   57.1893   31.1226   43.0354 H   0  0  0  0  0  0  0  0  0  0  0  0
   58.1520   32.8640   43.8860 C   0  0  0  0  0  0  0  0  0  0  0  0
   58.2600   33.3667   42.9136 H   0  0  0  0  0  0  0  0  0  0  0  0
   58.6260   33.4860   45.0480 C   0  0  0  0  0  0  0  0  0  0  0  0
   59.2340   34.7420   44.9750 C   0  0  0  0  0  0  0  0  0  0  0  0
   59.3368   35.2488   44.0041 H   0  0  0  0  0  0  0  0  0  0  0  0
   59.7080   35.3490   46.1300 C   0  0  0  0  0  0  0  0  0  0  0  0
   60.1872   36.3378   46.0778 H   0  0  0  0  0  0  0  0  0  0  0  0
   59.5740   34.7000   47.3560 C   0  0  0  0  0  0  0  0  0  0  0  0
   59.9514   35.1847   48.2685 H   0  0  0  0  0  0  0  0  0  0  0  0
   58.9800   33.4680   47.4440 N   0  0  0  0  0  0  0  0  0  0  0  0
   58.8720   32.8410   48.7710 C   0  0  0  0  0  0  0  0  0  0  0  0
   59.0038   33.6064   49.5500 H   0  0  0  0  0  0  0  0  0  0  0  0
   57.8806   32.3764   48.8774 H   0  0  0  0  0  0  0  0  0  0  0  0
   59.6508   32.0715   48.8774 H   0  0  0  0  0  0  0  0  0  0  0  0
   58.5000   32.8450   46.3080 C   0  0  0  0  0  0  0  0  0  0  0  0
   57.8800   31.5740   46.3540 C   0  0  0  0  0  0  0  0  0  0  0  0
   57.7872   31.0516   47.3176 H   0  0  0  0  0  0  0  0  0  0  0  0
   59.5080   28.5620   47.1380 C   0  0  0  0  0  0  0  0  0  0  0  0
   59.9733   27.6292   46.7868 H   0  0  0  0  0  0  0  0  0  0  0  0
   60.3970   29.6680   47.5720 C   0  0  0  0  0  0  0  0  0  0  0  0
   61.0090   30.5500   46.6610 C   0  0  0  0  0  0  0  0  0  0  0  0
   60.8267   30.4344   45.5824 H   0  0  0  0  0  0  0  0  0  0  0  0
   61.8470   31.5720   47.1180 C   0  0  0  0  0  0  0  0  0  0  0  0
   62.3139   32.2582   46.3961 H   0  0  0  0  0  0  0  0  0  0  0  0
   62.0980   31.7300   48.4930 C   0  0  0  0  0  0  0  0  0  0  0  0
   63.0060   32.8350   49.0020 C   0  0  0  0  0  0  0  0  0  0  0  0
   63.7550   32.3751   49.6634 H   0  0  0  0  0  0  0  0  0  0  0  0
   62.2190   33.8610   49.8270 C   0  0  0  0  0  0  0  0  0  0  0  0
   62.3704   33.6637   50.8985 H   0  0  0  0  0  0  0  0  0  0  0  0
   62.5738   34.8742   49.5871 H   0  0  0  0  0  0  0  0  0  0  0  0
   61.1485   33.7809   49.5871 H   0  0  0  0  0  0  0  0  0  0  0  0
   63.7540   33.5120   47.8480 C   0  0  0  0  0  0  0  0  0  0  0  0
   64.5118   34.1979   48.2546 H   0  0  0  0  0  0  0  0  0  0  0  0
   64.2462   32.7461   47.2307 H   0  0  0  0  0  0  0  0  0  0  0  0
   63.0408   34.0779   47.2307 H   0  0  0  0  0  0  0  0  0  0  0  0
   61.5010   30.8390   49.3990 C   0  0  0  0  0  0  0  0  0  0  0  0
   61.6931   30.9457   50.4768 H   0  0  0  0  0  0  0  0  0  0  0  0
   60.6640   29.8170   48.9410 C   0  0  0  0  0  0  0  0  0  0  0  0
   60.2097   29.1219   49.6624 H   0  0  0  0  0  0  0  0  0  0  0  0
  1  2  1  0
  2  3  1  0
  3  4  2  0
  3  5  1  0
  5  6  1  0
  6  7  2  0
  7  8  1  0
  7  9  1  0
  9 10  1  0
  9 11  2  0
 11 12  1  0
 12 13  1  0
 12 14  2  0
 14 15  1  0
 14 16  1  0
 16 17  1  0
 16 18  2  0
 18 19  1  0
 19 20  1  0
 19 21  1  0
 19 22  1  0
 18 23  1  0
 23 24  2  0
 24 25  1  0
  2 26  2  0
 26 27  1  0
 26 28  1  0
 28 29  2  0
 29 30  1  0
 29 31  1  0
 31 32  1  0
 31 33  2  0
 33 34  1  0
 34 35  1  0
 34 36  1  0
 36 37  1  0
 36 38  1  0
 36 39  1  0
 34 40  1  0
 40 41  1  0
 40 42  1  0
 40 43  1  0
 33 44  1  0
 44 45  1  0
 44 46  2  0
 46 47  1  0
 24  6  1  0
 46 28  1  0
 23 11  1  0
M  CHG  2   5  -1  18   1
M  END
>  <UniqueID>  (38) 
36

>  <SMILES>  (38) 
CC(C)c1ccc(/C=C/C(=O)[N-]c2ccc3ccc[n+](C)c3c2)cc1

>  <Energy>  (38) 
58.78384475006496

>  <Genealogy>  (38) 
CC(C)c1ccc(C=CC(=O)[N-]c2ccc3ccc[n+](C)c3c2)cc1 (protonated)
CC(C)c1ccc(/C=C/C(=O)[N-]c2ccc3ccc[n+](C)c3c2)cc1 (cis-trans isomerization)
CC(C)c1ccc(/C=C/C(=O)[N-]c2ccc3ccc[n+](C)c3c2)cc1 (3D coordinates assigned)
CC(C)c1ccc(/C=C/C(=O)[N-]c2ccc3ccc[n+](C)c3c2)cc1 (optimized conformer: 58.78384475006496 kcal/mol)

>  <smiles>  (38) 
CC(C)c1ccc(C=CC(=O)Nc2ccc3ccc[n+](C)c3c2)cc1

>  <score_type>  (38) 
oracle

>  <origin>  (38) 
adg

>  <m_score__min__energy>  (38) 
-8.8900000000000006

>  <m_primary>  (38) 
energy

$$$$
38:0
     RDKit          3D

 37 38  0  0  0  0  0  0  0  0999 V2000
   58.2790   28.4000   45.4060 C   0  0  0  0  0  0  0  0  0  0  0  0
   57.2880   29.3640   45.7400 O   0  0  0  0  0  0  0  0  0  0  0  0
   56.4120   29.9030   44.7930 C   0  0  0  0  0  0  0  0  0  0  0  0
   55.1950   29.5690   44.7940 O   0  0  0  0  0  0  0  0  0  0  0  0
   56.9410   30.8300   43.7690 C   0  0  0  0  0  0  0  0  0  0  0  0
   57.6490   31.9370   43.9890 C   0  0  0  0  0  0  0  0  0  0  0  0
   58.1840   32.3870   45.2920 C   0  0  0  0  0  0  0  0  0  0  0  0
   57.6660   33.5290   45.9170 C   0  0  0  0  0  0  0  0  0  0  0  0
   58.1480   33.9330   47.1630 C   0  0  0  0  0  0  0  0  0  0  0  0
   59.1490   33.1880   47.8150 C   0  0  0  0  0  0  0  0  0  0  0  0
   59.6600   33.5620   49.0680 O   0  0  0  0  0  0  0  0  0  0  0  0
   60.9300   34.1740   49.2700 C   0  0  0  0  0  0  0  0  0  0  0  0
   59.6600   32.0310   47.2060 C   0  0  0  0  0  0  0  0  0  0  0  0
   60.6530   31.3040   47.8820 O   0  0  0  0  0  0  0  0  0  0  0  0
   62.0210   31.2520   47.4920 C   0  0  0  0  0  0  0  0  0  0  0  0
   59.1670   31.6310   45.9470 C   0  0  0  0  0  0  0  0  0  0  0  0
   57.8990   32.6960   42.7320 C   0  0  0  0  0  0  0  0  0  0  0  0
   57.3760   31.7850   41.6220 C   0  0  0  0  0  0  0  0  0  0  0  0
   56.6460   30.6400   42.3230 C   0  0  0  0  0  0  0  0  0  0  0  0
   58.7090   27.9817   46.3280 H   0  0  0  0  0  0  0  0  0  0  0  0
   57.8209   27.5926   44.8158 H   0  0  0  0  0  0  0  0  0  0  0  0
   59.0734   28.8802   44.8158 H   0  0  0  0  0  0  0  0  0  0  0  0
   56.8743   34.1110   45.4225 H   0  0  0  0  0  0  0  0  0  0  0  0
   57.7434   34.8387   47.6383 H   0  0  0  0  0  0  0  0  0  0  0  0
   61.1245   34.2677   50.3486 H   0  0  0  0  0  0  0  0  0  0  0  0
   61.7131   33.5544   48.8087 H   0  0  0  0  0  0  0  0  0  0  0  0
   60.9333   35.1726   48.8087 H   0  0  0  0  0  0  0  0  0  0  0  0
   62.6573   31.2278   48.3889 H   0  0  0  0  0  0  0  0  0  0  0  0
   62.1973   30.3465   46.8928 H   0  0  0  0  0  0  0  0  0  0  0  0
   62.2655   32.1415   46.8928 H   0  0  0  0  0  0  0  0  0  0  0  0
   59.5570   30.7176   45.4742 H   0  0  0  0  0  0  0  0  0  0  0  0
   57.3535   33.6512   42.7399 H   0  0  0  0  0  0  0  0  0  0  0  0
   58.9619   32.9468   42.6001 H   0  0  0  0  0  0  0  0  0  0  0  0
   56.6833   32.3369   40.9697 H   0  0  0  0  0  0  0  0  0  0  0  0
   58.1945   31.4121   40.9888 H   0  0  0  0  0  0  0  0  0  0  0  0
   55.5634   30.6993   42.1373 H   0  0  0  0  0  0  0  0  0  0  0  0
   56.9722   29.6547   41.9586 H   0  0  0  0  0  0  0  0  0  0  0  0
  1  2  1  0
  2  3  1  0
  3  4  2  0
  3  5  1  0
  5  6  2  0
  6  7  1  0
  7  8  2  0
  8  9  1  0
  9 10  2  0
 10 11  1  0
 11 12  1  0
 10 13  1  0
 13 14  1  0
 14 15  1  0
 13 16  2  0
  6 17  1  0
 17 18  1  0
 18 19  1  0
 19  5  1  0
 16  7  1  0
  1 20  1  0
  1 21  1  0
  1 22  1  0
  8 23  1  0
  9 24  1  0
 12 25  1  0
 12 26  1  0
 12 27  1  0
 15 28  1  0
 15 29  1  0
 15 30  1  0
 16 31  1  0
 17 32  1  0
 17 33  1  0
 18 34  1  0
 18 35  1  0
 19 36  1  0
 19 37  1  0
M  END
>  <UniqueID>  (39) 
37

>  <SMILES>  (39) 
COC(=O)C1=C(c2ccc(OC)c(OC)c2)CCC1

>  <Energy>  (39) 
43.59238570663511

>  <Genealogy>  (39) 
COC(=O)C1=C(c2ccc(OC)c(OC)c2)CCC1 (3D coordinates assigned)
COC(=O)C1=C(c2ccc(OC)c(OC)c2)CCC1 (nonaromatic ring conformer: 43.59238570663511 kcal/mol)

>  <smiles>  (39) 
COC(=O)C1=C(c2ccc(OC)c(OC)c2)CCC1

>  <score_type>  (39) 
oracle

>  <origin>  (39) 
adg

>  <m_score__min__energy>  (39) 
-5.9800000000000004

>  <m_primary>  (39) 
energy

$$$$
39:0
     RDKit          3D

 32 33  0  0  0  0  0  0  0  0999 V2000
   55.1440   29.7290   43.4370 C   0  0  0  0  0  0  0  0  0  0  0  0
   55.2720   29.2240   44.7620 O   0  0  0  0  0  0  0  0  0  0  0  0
   56.4520   28.6410   45.2370 C   0  0  0  0  0  0  0  0  0  0  0  0
   56.3680   27.3900   45.8690 C   0  0  0  0  0  0  0  0  0  0  0  0
   55.1530   26.7210   45.9620 O   0  0  0  0  0  0  0  0  0  0  0  0
   57.5220   26.8400   46.4210 C   0  0  0  0  0  0  0  0  0  0  0  0
   58.7060   27.4820   46.3760 C   0  0  0  0  0  0  0  0  0  0  0  0
   58.8650   28.7060   45.7160 C   0  0  0  0  0  0  0  0  0  0  0  0
   60.1520   29.2730   45.6840 O   0  0  0  0  0  0  0  0  0  0  0  0
   60.6510   30.2750   46.5620 C   0  0  0  0  0  0  0  0  0  0  0  0
   57.7150   29.2840   45.1030 C   0  0  0  0  0  0  0  0  0  0  0  0
   57.8340   30.4580   44.3540 O   0  0  0  0  0  0  0  0  0  0  0  0
   57.7840   31.7480   44.9520 C   0  0  0  0  0  0  0  0  0  0  0  0
   59.7190   26.6460   47.0650 C   0  0  1  0  0  0  0  0  0  0  0  0
   60.2720   27.3450   48.3070 C   0  0  0  0  0  0  0  0  0  0  0  0
   59.0690   25.4400   47.4520 O   0  0  0  0  0  0  0  0  0  0  0  0
   57.6920   25.5570   47.1250 C   0  0  0  0  0  0  0  0  0  0  0  0
   54.8739   30.7946   43.4753 H   0  0  0  0  0  0  0  0  0  0  0  0
   56.1002   29.6119   42.9060 H   0  0  0  0  0  0  0  0  0  0  0  0
   54.3590   29.1706   42.9060 H   0  0  0  0  0  0  0  0  0  0  0  0
   60.4943   29.9603   47.6043 H   0  0  0  0  0  0  0  0  0  0  0  0
   61.7262   30.4193   46.3803 H   0  0  0  0  0  0  0  0  0  0  0  0
   60.1183   31.2201   46.3803 H   0  0  0  0  0  0  0  0  0  0  0  0
   57.7880   31.6449   46.0471 H   0  0  0  0  0  0  0  0  0  0  0  0
   58.6601   32.3330   44.6356 H   0  0  0  0  0  0  0  0  0  0  0  0
   56.8652   32.2635   44.6356 H   0  0  0  0  0  0  0  0  0  0  0  0
   60.5665   26.4567   46.3898 H   0  0  0  0  0  0  0  0  0  0  0  0
   59.8819   26.8519   49.2096 H   0  0  0  0  0  0  0  0  0  0  0  0
   61.3704   27.2858   48.3026 H   0  0  0  0  0  0  0  0  0  0  0  0
   59.9617   28.4003   48.3026 H   0  0  0  0  0  0  0  0  0  0  0  0
   57.3870   24.7253   46.4729 H   0  0  0  0  0  0  0  0  0  0  0  0
   57.0698   25.5221   48.0314 H   0  0  0  0  0  0  0  0  0  0  0  0
  1  2  1  0
  2  3  1  0
  3  4  2  0
  4  5  1  0
  4  6  1  0
  6  7  2  0
  7  8  1  0
  8  9  1  0
  9 10  1  0
  8 11  2  0
 11 12  1  0
 12 13  1  0
  7 14  1  0
 14 15  1  0
 14 16  1  0
 16 17  1  0
 11  3  1  0
 17  6  1  0
  1 18  1  0
  1 19  1  0
  1 20  1  0
 10 21  1  0
 10 22  1  0
 10 23  1  0
 13 24  1  0
 13 25  1  0
 13 26  1  0
 14 27  1  6
 15 28  1  0
 15 29  1  0
 15 30  1  0
 17 31  1  0
 17 32  1  0
M  CHG  1   5  -1
M  END
>  <UniqueID>  (40) 
38

>  <SMILES>  (40) 
COc1c([O-])c2c(c(OC)c1OC)[C@@H](C)OC2

>  <Energy>  (40) 
52.28145199063621

>  <Genealogy>  (40) 
COc1c([O-])c2c(c(OC)c1OC)C(C)OC2 (protonated)
COc1c([O-])c2c(c(OC)c1OC)[C@@H](C)OC2 (chirality)
COc1c([O-])c2c(c(OC)c1OC)[C@@H](C)OC2 (3D coordinates assigned)
COc1c([O-])c2c(c(OC)c1OC)[C@@H](C)OC2 (nonaromatic ring conformer: 52.28145199063621 kcal/mol)

>  <smiles>  (40) 
COc1c(O)c2c(c(OC)c1OC)C(C)OC2

>  <score_type>  (40) 
oracle

>  <origin>  (40) 
adg

>  <m_score__min__energy>  (40) 
-8.5199999999999996

>  <m_primary>  (40) 
energy

$$$$
40:0
     RDKit          3D

 56 59  0  0  0  0  0  0  0  0999 V2000
   69.0330   35.2540   50.6310 C   0  0  0  0  0  0  0  0  0  0  0  0
   68.4760   34.7260   51.9490 C   0  0  0  0  0  0  0  0  0  0  0  0
   67.0590   34.8950   52.0080 O   0  0  0  0  0  0  0  0  0  0  0  0
   66.1140   34.1220   51.3140 C   0  0  0  0  0  0  0  0  0  0  0  0
   66.4740   33.1050   50.4100 C   0  0  0  0  0  0  0  0  0  0  0  0
   65.4890   32.3650   49.7500 C   0  0  0  0  0  0  0  0  0  0  0  0
   64.1260   32.6280   49.9740 C   0  0  0  0  0  0  0  0  0  0  0  0
   63.0800   31.8510   49.2660 C   0  0  0  0  0  0  0  0  0  0  0  0
   62.2290   30.9840   49.8670 N   0  0  0  0  0  0  0  0  0  0  0  0
   61.3730   30.3860   48.9920 C   0  0  0  0  0  0  0  0  0  0  0  0
   60.3240   29.4200   49.4460 C   0  0  0  0  0  0  0  0  0  0  0  0
   61.5440   30.7740   47.6610 C   0  0  0  0  0  0  0  0  0  0  0  0
   60.7380   30.3290   46.4780 C   0  0  0  0  0  0  0  0  0  0  0  0
   59.3200   30.2690   46.8320 N   0  0  0  0  0  0  0  0  0  0  0  0
   58.2570   30.2790   45.8600 C   0  0  0  0  0  0  0  0  0  0  0  0
   57.7000   29.0830   45.3780 C   0  0  0  0  0  0  0  0  0  0  0  0
   56.6190   29.1150   44.4980 C   0  0  0  0  0  0  0  0  0  0  0  0
   56.0910   30.3430   44.1070 C   0  0  0  0  0  0  0  0  0  0  0  0
   56.6320   31.4950   44.5800 N   0  0  0  0  0  0  0  0  0  0  0  0
   57.6910   31.5010   45.4350 C   0  0  0  0  0  0  0  0  0  0  0  0
   58.2320   32.7530   45.8730 N   0  0  0  0  0  0  0  0  0  0  0  0
   58.3460   33.8510   44.9090 C   0  0  0  0  0  0  0  0  0  0  0  0
   59.3660   34.8810   45.4080 C   0  0  0  0  0  0  0  0  0  0  0  0
   59.0800   35.2700   46.7390 O   0  0  0  0  0  0  0  0  0  0  0  0
   59.2280   34.1610   47.6070 C   0  0  0  0  0  0  0  0  0  0  0  0
   58.1780   33.0910   47.2950 C   0  0  0  0  0  0  0  0  0  0  0  0
   62.7830   31.9120   47.6060 S   0  0  0  0  0  0  0  0  0  0  0  0
   63.7720   33.6550   50.8650 C   0  0  0  0  0  0  0  0  0  0  0  0
   64.7580   34.3890   51.5290 C   0  0  0  0  0  0  0  0  0  0  0  0
   69.8173   35.9975   50.8360 H   0  0  0  0  0  0  0  0  0  0  0  0
   69.4596   34.4208   50.0532 H   0  0  0  0  0  0  0  0  0  0  0  0
   68.2238   35.7245   50.0532 H   0  0  0  0  0  0  0  0  0  0  0  0
   68.7150   33.6560   52.0381 H   0  0  0  0  0  0  0  0  0  0  0  0
   68.9320   35.2917   52.7749 H   0  0  0  0  0  0  0  0  0  0  0  0
   67.5365   32.8914   50.2219 H   0  0  0  0  0  0  0  0  0  0  0  0
   65.7827   31.5697   49.0491 H   0  0  0  0  0  0  0  0  0  0  0  0
   62.2030   30.8100   50.8950 H   0  0  0  0  0  0  0  0  0  0  0  0
   60.2984   29.3964   50.5454 H   0  0  0  0  0  0  0  0  0  0  0  0
   59.3429   29.7374   49.0631 H   0  0  0  0  0  0  0  0  0  0  0  0
   60.5597   28.4161   49.0631 H   0  0  0  0  0  0  0  0  0  0  0  0
   60.8775   31.0430   45.6529 H   0  0  0  0  0  0  0  0  0  0  0  0
   61.0750   29.3290   46.1674 H   0  0  0  0  0  0  0  0  0  0  0  0
   59.0800   30.4540   47.8330 H   0  0  0  0  0  0  0  0  0  0  0  0
   58.1185   28.1168   45.6962 H   0  0  0  0  0  0  0  0  0  0  0  0
   56.1869   28.1784   44.1158 H   0  0  0  0  0  0  0  0  0  0  0  0
   55.2363   30.3796   43.4155 H   0  0  0  0  0  0  0  0  0  0  0  0
   58.6762   33.4515   43.9388 H   0  0  0  0  0  0  0  0  0  0  0  0
   57.3658   34.3375   44.7972 H   0  0  0  0  0  0  0  0  0  0  0  0
   60.3725   34.4389   45.3702 H   0  0  0  0  0  0  0  0  0  0  0  0
   59.3129   35.7701   44.7624 H   0  0  0  0  0  0  0  0  0  0  0  0
   60.2322   33.7313   47.4771 H   0  0  0  0  0  0  0  0  0  0  0  0
   59.0918   34.5008   48.6443 H   0  0  0  0  0  0  0  0  0  0  0  0
   58.3828   32.1911   47.8936 H   0  0  0  0  0  0  0  0  0  0  0  0
   57.1778   33.4766   47.5419 H   0  0  0  0  0  0  0  0  0  0  0  0
   62.7104   33.8829   51.0411 H   0  0  0  0  0  0  0  0  0  0  0  0
   64.4647   35.1856   52.2285 H   0  0  0  0  0  0  0  0  0  0  0  0
  1  2  1  0
  2  3  1  0
  3  4  1  0
  4  5  2  0
  5  6  1  0
  6  7  2  0
  7  8  1  0
  8  9  2  0
  9 10  1  0
 10 11  1  0
 10 12  2  0
 12 13  1  0
 13 14  1  0
 14 15  1  0
 15 16  2  0
 16 17  1  0
 17 18  2  0
 18 19  1  0
 19 20  2  0
 20 21  1  0
 21 22  1  0
 22 23  1  0
 23 24  1  0
 24 25  1  0
 25 26  1  0
 12 27  1  0
  7 28  1  0
 28 29  2  0
 29  4  1  0
 27  8  1  0
 20 15  1  0
 26 21  1  0
  1 30  1  0
  1 31  1  0
  1 32  1  0
  2 33  1  0
  2 34  1  0
  5 35  1  0
  6 36  1  0
  9 37  1  0
 11 38  1  0
 11 39  1  0
 11 40  1  0
 13 41  1  0
 13 42  1  0
 14 43  1  0
 16 44  1  0
 17 45  1  0
 18 46  1  0
 22 47  1  0
 22 48  1  0
 23 49  1  0
 23 50  1  0
 25 51  1  0
 25 52  1  0
 26 53  1  0
 26 54  1  0
 28 55  1  0
 29 56  1  0
M  CHG  1   9   1
M  END
>  <UniqueID>  (41) 
39

>  <SMILES>  (41) 
CCOc1ccc(-c2[nH+]c(C)c(CNc3cccnc3N3CCOCC3)s2)cc1

>  <Energy>  (41) 
94.42226968679861

>  <Genealogy>  (41) 
CCOc1ccc(-c2[nH+]c(C)c(CNc3cccnc3N3CCOCC3)s2)cc1 (protonated)
CCOc1ccc(-c2[nH+]c(C)c(CNc3cccnc3N3CCOCC3)s2)cc1 (3D coordinates assigned)
CCOc1ccc(-c2[nH+]c(C)c(CNc3cccnc3N3CCOCC3)s2)cc1 (nonaromatic ring conformer: 94.42226968679861 kcal/mol)

>  <smiles>  (41) 
CCOc1ccc(-c2nc(C)c(CNc3cccnc3N3CCOCC3)s2)cc1

>  <score_type>  (41) 
oracle

>  <origin>  (41) 
adg

>  <m_score__min__energy>  (41) 
-6.4299999999999997

>  <m_primary>  (41) 
energy

$$$$
41:0
     RDKit          3D

 59 62  0  0  0  0  0  0  0  0999 V2000
   58.6480   30.1590   50.2620 C   0  0  0  0  0  0  0  0  0  0  0  0
   58.9650   29.3810   49.3970 C   0  0  0  0  0  0  0  0  0  0  0  0
   59.3440   28.4580   48.3610 C   0  0  0  0  0  0  0  0  0  0  0  0
   60.4410   27.6060   48.5510 C   0  0  0  0  0  0  0  0  0  0  0  0
   60.8030   26.7010   47.5510 C   0  0  0  0  0  0  0  0  0  0  0  0
   60.0650   26.6350   46.3650 C   0  0  0  0  0  0  0  0  0  0  0  0
   58.9510   27.4720   46.1700 C   0  0  0  0  0  0  0  0  0  0  0  0
   58.1450   27.3740   44.8910 C   0  0  0  0  0  0  0  0  0  0  0  0
   57.8390   28.6850   44.2720 N   0  0  0  0  0  0  0  0  0  0  0  0
   58.8850   29.7180   44.4600 C   0  0  0  0  0  0  0  0  0  0  0  0
   58.4390   30.8260   45.4270 C   0  0  0  0  0  0  0  0  0  0  0  0
   57.1830   31.4910   44.9890 N   0  0  0  0  0  0  0  0  0  0  0  0
   57.4310   32.8100   44.3680 C   0  0  0  0  0  0  0  0  0  0  0  0
   57.5260   33.9350   45.4180 C   0  0  0  0  0  0  0  0  0  0  0  0
   57.1180   33.4850   46.8330 C   0  0  0  0  0  0  0  0  0  0  0  0
   58.3190   33.1040   47.7130 C   0  0  0  0  0  0  0  0  0  0  0  0
   59.2510   34.2920   47.9760 C   0  0  0  0  0  0  0  0  0  0  0  0
   60.6240   33.9940   47.5600 N   0  0  0  0  0  0  0  0  0  0  0  0
   61.0990   33.8540   46.2940 C   0  0  0  0  0  0  0  0  0  0  0  0
   60.3940   34.0060   45.2590 O   0  0  0  0  0  0  0  0  0  0  0  0
   62.3800   33.5290   46.2550 O   0  0  0  0  0  0  0  0  0  0  0  0
   62.7610   33.4470   47.5090 C   0  0  0  0  0  0  0  0  0  0  0  0
   64.0180   33.1260   48.0140 C   0  0  0  0  0  0  0  0  0  0  0  0
   64.1690   33.0960   49.4140 C   0  0  0  0  0  0  0  0  0  0  0  0
   63.0730   33.3880   50.2600 C   0  0  0  0  0  0  0  0  0  0  0  0
   61.8160   33.7100   49.7180 C   0  0  0  0  0  0  0  0  0  0  0  0
   61.6990   33.7270   48.3260 C   0  0  0  0  0  0  0  0  0  0  0  0
   56.3150   30.6330   44.1420 C   0  0  0  0  0  0  0  0  0  0  0  0
   56.4590   29.1550   44.5180 C   0  0  0  0  0  0  0  0  0  0  0  0
   58.6110   28.4000   47.1690 C   0  0  0  0  0  0  0  0  0  0  0  0
   58.3588   30.8687   51.0511 H   0  0  0  0  0  0  0  0  0  0  0  0
   61.0164   27.6504   49.4875 H   0  0  0  0  0  0  0  0  0  0  0  0
   61.6696   26.0393   47.6964 H   0  0  0  0  0  0  0  0  0  0  0  0
   60.3576   25.9235   45.5788 H   0  0  0  0  0  0  0  0  0  0  0  0
   58.7159   26.7740   44.1670 H   0  0  0  0  0  0  0  0  0  0  0  0
   57.1818   26.9132   45.1552 H   0  0  0  0  0  0  0  0  0  0  0  0
   59.7886   29.2379   44.8638 H   0  0  0  0  0  0  0  0  0  0  0  0
   59.0813   30.1819   43.4821 H   0  0  0  0  0  0  0  0  0  0  0  0
   58.2759   30.3829   46.4205 H   0  0  0  0  0  0  0  0  0  0  0  0
   59.2311   31.5889   45.4502 H   0  0  0  0  0  0  0  0  0  0  0  0
   58.3767   32.7665   43.8078 H   0  0  0  0  0  0  0  0  0  0  0  0
   56.5844   33.0368   43.7033 H   0  0  0  0  0  0  0  0  0  0  0  0
   58.5653   34.2937   45.4520 H   0  0  0  0  0  0  0  0  0  0  0  0
   56.8240   34.7250   45.1128 H   0  0  0  0  0  0  0  0  0  0  0  0
   56.5746   34.3085   47.3194 H   0  0  0  0  0  0  0  0  0  0  0  0
   56.4923   32.5868   46.7244 H   0  0  0  0  0  0  0  0  0  0  0  0
   57.9455   32.7279   48.6769 H   0  0  0  0  0  0  0  0  0  0  0  0
   58.8970   32.3365   47.1775 H   0  0  0  0  0  0  0  0  0  0  0  0
   58.8873   35.1642   47.4130 H   0  0  0  0  0  0  0  0  0  0  0  0
   59.2528   34.4992   49.0563 H   0  0  0  0  0  0  0  0  0  0  0  0
   64.8620   32.9040   47.3444 H   0  0  0  0  0  0  0  0  0  0  0  0
   65.1457   32.8438   49.8528 H   0  0  0  0  0  0  0  0  0  0  0  0
   63.2055   33.3629   51.3517 H   0  0  0  0  0  0  0  0  0  0  0  0
   60.9572   33.9398   50.3657 H   0  0  0  0  0  0  0  0  0  0  0  0
   55.2668   30.9374   44.2789 H   0  0  0  0  0  0  0  0  0  0  0  0
   56.6215   30.7564   43.0928 H   0  0  0  0  0  0  0  0  0  0  0  0
   56.2192   29.0286   45.5841 H   0  0  0  0  0  0  0  0  0  0  0  0
   55.7685   28.5637   43.8987 H   0  0  0  0  0  0  0  0  0  0  0  0
   57.7643   29.0848   47.0139 H   0  0  0  0  0  0  0  0  0  0  0  0
  1  2  3  0
  2  3  1  0
  3  4  2  0
  4  5  1  0
  5  6  2  0
  6  7  1  0
  7  8  1  0
  8  9  1  0
  9 10  1  0
 10 11  1  0
 11 12  1  0
 12 13  1  0
 13 14  1  0
 14 15  1  0
 15 16  1  0
 16 17  1  0
 17 18  1  0
 18 19  1  0
 19 20  2  0
 19 21  1  0
 21 22  1  0
 22 23  2  0
 23 24  1  0
 24 25  2  0
 25 26  1  0
 26 27  2  0
 12 28  1  0
 28 29  1  0
  7 30  2  0
 30  3  1  0
 29  9  1  0
 27 18  1  0
 27 22  1  0
  1 31  1  0
  4 32  1  0
  5 33  1  0
  6 34  1  0
  8 35  1  0
  8 36  1  0
 10 37  1  0
 10 38  1  0
 11 39  1  0
 11 40  1  0
 13 41  1  0
 13 42  1  0
 14 43  1  0
 14 44  1  0
 15 45  1  0
 15 46  1  0
 16 47  1  0
 16 48  1  0
 17 49  1  0
 17 50  1  0
 23 51  1  0
 24 52  1  0
 25 53  1  0
 26 54  1  0
 28 55  1  0
 28 56  1  0
 29 57  1  0
 29 58  1  0
 30 59  1  0
M  END
>  <UniqueID>  (42) 
40

>  <SMILES>  (42) 
C#Cc1cccc(CN2CCN(CCCCCn3c(=O)oc4ccccc43)CC2)c1

>  <Energy>  (42) 
107.97049409753252

>  <Genealogy>  (42) 
C#Cc1cccc(CN2CCN(CCCCCn3c(=O)oc4ccccc43)CC2)c1 (3D coordinates assigned)
C#Cc1cccc(CN2CCN(CCCCCn3c(=O)oc4ccccc43)CC2)c1 (nonaromatic ring conformer: 107.97049409753252 kcal/mol)

>  <smiles>  (42) 
C#Cc1cccc(CN2CCN(CCCCCn3c(=O)oc4ccccc43)CC2)c1

>  <score_type>  (42) 
oracle

>  <origin>  (42) 
adg

>  <m_score__min__energy>  (42) 
-9.3100000000000005

>  <m_primary>  (42) 
energy

$$$$
42:0
     RDKit          3D

 49 51  0  0  0  0  0  0  0  0999 V2000
   60.7330   34.5230   48.2830 C   0  0  0  0  0  0  0  0  0  0  0  0
   60.4680   34.3710   46.7880 C   0  0  0  0  0  0  0  0  0  0  0  0
   59.3380   33.4430   46.5610 N   0  0  0  0  0  0  0  0  0  0  0  0
   58.3680   33.4510   47.6860 C   0  0  0  0  0  0  0  0  0  0  0  0
   58.5270   32.2770   48.6630 C   0  0  0  0  0  0  0  0  0  0  0  0
   58.7180   33.6500   45.2310 C   0  0  0  0  0  0  0  0  0  0  0  0
   57.3290   33.0040   45.1490 C   0  0  0  0  0  0  0  0  0  0  0  0
   57.3850   31.6400   45.5670 O   0  0  0  0  0  0  0  0  0  0  0  0
   57.3670   30.5110   44.7270 C   0  0  0  0  0  0  0  0  0  0  0  0
   56.5370   30.4510   43.5890 C   0  0  0  0  0  0  0  0  0  0  0  0
   56.5560   29.3320   42.7550 C   0  0  0  0  0  0  0  0  0  0  0  0
   57.3990   28.2620   43.0410 C   0  0  0  0  0  0  0  0  0  0  0  0
   58.2240   28.3010   44.1660 C   0  0  0  0  0  0  0  0  0  0  0  0
   58.2180   29.4170   45.0250 C   0  0  0  0  0  0  0  0  0  0  0  0
   59.0860   29.4220   46.2310 C   0  0  0  0  0  0  0  0  0  0  0  0
   60.0600   30.3320   46.4550 N   0  0  0  0  0  0  0  0  0  0  0  0
   60.7160   30.1410   47.6330 C   0  0  0  0  0  0  0  0  0  0  0  0
   61.8240   31.0430   48.0510 C   0  0  0  0  0  0  0  0  0  0  0  0
   62.5950   31.7560   47.1110 C   0  0  0  0  0  0  0  0  0  0  0  0
   63.6310   32.5950   47.5340 C   0  0  0  0  0  0  0  0  0  0  0  0
   63.9140   32.7330   48.8940 C   0  0  0  0  0  0  0  0  0  0  0  0
   64.9200   33.5470   49.3000 F   0  0  0  0  0  0  0  0  0  0  0  0
   63.1610   32.0310   49.8370 C   0  0  0  0  0  0  0  0  0  0  0  0
   62.1240   31.1910   49.4210 C   0  0  0  0  0  0  0  0  0  0  0  0
   60.2550   29.0480   48.3740 C   0  0  0  0  0  0  0  0  0  0  0  0
   59.0030   28.3320   47.5120 S   0  0  0  0  0  0  0  0  0  0  0  0
   59.9153   34.0540   48.8499 H   0  0  0  0  0  0  0  0  0  0  0  0
   61.6842   34.0332   48.5384 H   0  0  0  0  0  0  0  0  0  0  0  0
   60.7905   35.5914   48.5384 H   0  0  0  0  0  0  0  0  0  0  0  0
   60.2220   35.3544   46.3608 H   0  0  0  0  0  0  0  0  0  0  0  0
   61.3684   33.9655   46.3033 H   0  0  0  0  0  0  0  0  0  0  0  0
   58.4992   34.3875   48.2479 H   0  0  0  0  0  0  0  0  0  0  0  0
   57.3666   33.3578   47.2404 H   0  0  0  0  0  0  0  0  0  0  0  0
   58.4764   32.6505   49.6964 H   0  0  0  0  0  0  0  0  0  0  0  0
   57.7192   31.5492   48.4962 H   0  0  0  0  0  0  0  0  0  0  0  0
   59.4993   31.7903   48.4962 H   0  0  0  0  0  0  0  0  0  0  0  0
   58.6209   34.7301   45.0466 H   0  0  0  0  0  0  0  0  0  0  0  0
   59.3620   33.1787   44.4740 H   0  0  0  0  0  0  0  0  0  0  0  0
   56.6351   33.5541   45.8016 H   0  0  0  0  0  0  0  0  0  0  0  0
   56.9807   33.0419   44.1063 H   0  0  0  0  0  0  0  0  0  0  0  0
   55.8688   31.2932   43.3564 H   0  0  0  0  0  0  0  0  0  0  0  0
   55.9036   29.2957   41.8701 H   0  0  0  0  0  0  0  0  0  0  0  0
   57.4150   27.3837   42.3789 H   0  0  0  0  0  0  0  0  0  0  0  0
   58.8865   27.4504   44.3842 H   0  0  0  0  0  0  0  0  0  0  0  0
   62.3804   31.6519   46.0372 H   0  0  0  0  0  0  0  0  0  0  0  0
   64.2253   33.1484   46.7920 H   0  0  0  0  0  0  0  0  0  0  0  0
   63.3840   32.1390   50.9087 H   0  0  0  0  0  0  0  0  0  0  0  0
   61.5361   30.6399   50.1698 H   0  0  0  0  0  0  0  0  0  0  0  0
   60.6432   28.7160   49.3482 H   0  0  0  0  0  0  0  0  0  0  0  0
  1  2  1  0
  2  3  1  0
  3  4  1  0
  4  5  1  0
  3  6  1  0
  6  7  1  0
  7  8  1  0
  8  9  1  0
  9 10  2  0
 10 11  1  0
 11 12  2  0
 12 13  1  0
 13 14  2  0
 14 15  1  0
 15 16  2  0
 16 17  1  0
 17 18  1  0
 18 19  2  0
 19 20  1  0
 20 21  2  0
 21 22  1  0
 21 23  1  0
 23 24  2  0
 17 25  2  0
 25 26  1  0
 14  9  1  0
 26 15  1  0
 24 18  1  0
  1 27  1  0
  1 28  1  0
  1 29  1  0
  2 30  1  0
  2 31  1  0
  4 32  1  0
  4 33  1  0
  5 34  1  0
  5 35  1  0
  5 36  1  0
  6 37  1  0
  6 38  1  0
  7 39  1  0
  7 40  1  0
 10 41  1  0
 11 42  1  0
 12 43  1  0
 13 44  1  0
 19 45  1  0
 20 46  1  0
 23 47  1  0
 24 48  1  0
 25 49  1  0
M  END
>  <UniqueID>  (43) 
41

>  <SMILES>  (43) 
CCN(CC)CCOc1ccccc1-c1nc(-c2ccc(F)cc2)cs1

>  <Energy>  (43) 
85.45580684280334

>  <Genealogy>  (43) 
CCN(CC)CCOc1ccccc1-c1nc(-c2ccc(F)cc2)cs1 (3D coordinates assigned)
CCN(CC)CCOc1ccccc1-c1nc(-c2ccc(F)cc2)cs1 (optimized conformer: 85.45580684280334 kcal/mol)

>  <smiles>  (43) 
CCN(CC)CCOc1ccccc1-c1nc(-c2ccc(F)cc2)cs1

>  <score_type>  (43) 
oracle

>  <origin>  (43) 
adg

>  <m_score__min__energy>  (43) 
-7.8700000000000001

>  <m_primary>  (43) 
energy

$$$$
43:0
     RDKit          3D

 38 41  0  0  0  0  0  0  0  0999 V2000
   67.6750   30.4050   52.3100 C   0  0  0  0  0  0  0  0  0  0  0  0
   66.3000   30.7430   52.4590 O   0  0  0  0  0  0  0  0  0  0  0  0
   65.4910   31.2420   51.4290 C   0  0  0  0  0  0  0  0  0  0  0  0
   65.9280   32.2440   50.5420 C   0  0  0  0  0  0  0  0  0  0  0  0
   65.0840   32.7100   49.5310 C   0  0  0  0  0  0  0  0  0  0  0  0
   63.7880   32.1840   49.3820 C   0  0  0  0  0  0  0  0  0  0  0  0
   62.8900   32.6760   48.3070 C   0  0  0  0  0  0  0  0  0  0  0  0
   63.3060   33.7130   47.4330 C   0  0  0  0  0  0  0  0  0  0  0  0
   62.4590   34.1760   46.4160 C   0  0  0  0  0  0  0  0  0  0  0  0
   61.2050   33.5890   46.2970 C   0  0  0  0  0  0  0  0  0  0  0  0
   60.2710   33.9010   45.3740 N   0  0  0  0  0  0  0  0  0  0  0  0
   59.2470   33.0640   45.6710 C   0  0  0  0  0  0  0  0  0  0  0  0
   57.9850   32.9850   44.8690 C   0  0  0  0  0  0  0  0  0  0  0  0
   57.6120   31.5560   44.6470 C   0  0  0  0  0  0  0  0  0  0  0  0
   56.3710   31.0670   44.8640 N   0  0  0  0  0  0  0  0  0  0  0  0
   56.3200   29.7260   44.6500 C   0  0  0  0  0  0  0  0  0  0  0  0
   55.1430   29.0060   44.8030 O   0  0  0  0  0  0  0  0  0  0  0  0
   57.5180   29.1290   44.2750 C   0  0  0  0  0  0  0  0  0  0  0  0
   58.6870   30.3370   44.2120 S   0  0  0  0  0  0  0  0  0  0  0  0
   59.5850   32.2580   46.7470 C   0  0  0  0  0  0  0  0  0  0  0  0
   58.6110   30.9900   47.4740 Cl  0  0  0  0  0  0  0  0  0  0  0  0
   60.8210   32.6080   47.1330 N   0  0  0  0  0  0  0  0  0  0  0  0
   61.6050   32.1220   48.1300 C   0  0  0  0  0  0  0  0  0  0  0  0
   63.3560   31.1810   50.2700 C   0  0  0  0  0  0  0  0  0  0  0  0
   64.2020   30.7180   51.2810 C   0  0  0  0  0  0  0  0  0  0  0  0
   68.1345   30.2920   53.3030 H   0  0  0  0  0  0  0  0  0  0  0  0
   67.7620   29.4587   51.7559 H   0  0  0  0  0  0  0  0  0  0  0  0
   68.1908   31.2031   51.7559 H   0  0  0  0  0  0  0  0  0  0  0  0
   66.9400   32.6625   50.6456 H   0  0  0  0  0  0  0  0  0  0  0  0
   65.4360   33.4950   48.8456 H   0  0  0  0  0  0  0  0  0  0  0  0
   64.3042   34.1589   47.5545 H   0  0  0  0  0  0  0  0  0  0  0  0
   62.7770   34.9784   45.7340 H   0  0  0  0  0  0  0  0  0  0  0  0
   57.1750   33.4931   45.4128 H   0  0  0  0  0  0  0  0  0  0  0  0
   58.1433   33.4732   43.8960 H   0  0  0  0  0  0  0  0  0  0  0  0
   57.6732   28.0617   44.0589 H   0  0  0  0  0  0  0  0  0  0  0  0
   61.2458   31.3144   48.7848 H   0  0  0  0  0  0  0  0  0  0  0  0
   62.3455   30.7588   50.1673 H   0  0  0  0  0  0  0  0  0  0  0  0
   63.8511   29.9335   51.9676 H   0  0  0  0  0  0  0  0  0  0  0  0
  1  2  1  0
  2  3  1  0
  3  4  2  0
  4  5  1  0
  5  6  2  0
  6  7  1  0
  7  8  1  0
  8  9  2  0
  9 10  1  0
 10 11  2  0
 11 12  1  0
 12 13  1  0
 13 14  1  0
 14 15  2  0
 15 16  1  0
 16 17  1  0
 16 18  2  0
 18 19  1  0
 12 20  2  0
 20 21  1  0
 20 22  1  0
 22 23  1  0
  6 24  1  0
 24 25  2  0
 25  3  1  0
 23  7  2  0
 22 10  1  0
 19 14  1  0
  1 26  1  0
  1 27  1  0
  1 28  1  0
  4 29  1  0
  5 30  1  0
  8 31  1  0
  9 32  1  0
 13 33  1  0
 13 34  1  0
 18 35  1  0
 23 36  1  0
 24 37  1  0
 25 38  1  0
M  CHG  1  17  -1
M  END
>  <UniqueID>  (44) 
42

>  <SMILES>  (44) 
COc1ccc(-c2ccc3nc(Cc4nc([O-])cs4)c(Cl)n3c2)cc1

>  <Energy>  (44) 
109.29474187033728

>  <Genealogy>  (44) 
COc1ccc(-c2ccc3nc(Cc4nc([O-])cs4)c(Cl)n3c2)cc1 (protonated)
COc1ccc(-c2ccc3nc(Cc4nc([O-])cs4)c(Cl)n3c2)cc1 (3D coordinates assigned)
COc1ccc(-c2ccc3nc(Cc4nc([O-])cs4)c(Cl)n3c2)cc1 (optimized conformer: 109.29474187033728 kcal/mol)

>  <smiles>  (44) 
COc1ccc(-c2ccc3nc(Cc4nc(O)cs4)c(Cl)n3c2)cc1

>  <score_type>  (44) 
oracle

>  <origin>  (44) 
adg

>  <m_score__min__energy>  (44) 
-11.99

>  <m_primary>  (44) 
energy

$$$$
44:0
     RDKit          3D

 50 52  0  0  0  0  0  0  0  0999 V2000
   56.7680   26.6370   45.7770 C   0  0  0  0  0  0  0  0  0  0  0  0
   56.0730   27.8700   45.6180 O   0  0  0  0  0  0  0  0  0  0  0  0
   56.6370   29.0360   45.0790 C   0  0  0  0  0  0  0  0  0  0  0  0
   56.0560   29.7120   43.9890 C   0  0  0  0  0  0  0  0  0  0  0  0
   56.6470   30.8710   43.4800 C   0  0  0  0  0  0  0  0  0  0  0  0
   57.8260   31.3720   44.0460 C   0  0  0  0  0  0  0  0  0  0  0  0
   58.4470   32.6300   43.4950 C   0  0  0  0  0  0  0  0  0  0  0  0
   58.3380   33.7300   44.4740 N   0  0  0  0  0  0  0  0  0  0  0  0
   57.1220   33.6110   45.3210 C   0  0  0  0  0  0  0  0  0  0  0  0
   57.4370   33.0720   46.7230 C   0  0  0  0  0  0  0  0  0  0  0  0
   58.3750   33.9630   47.4510 N   0  0  0  0  0  0  0  0  0  0  0  0
   59.0480   33.2460   48.5560 C   0  0  0  0  0  0  0  0  0  0  0  0
   60.4650   32.8860   48.1810 C   0  0  0  0  0  0  0  0  0  0  0  0
   60.7190   31.6790   47.5070 C   0  0  0  0  0  0  0  0  0  0  0  0
   62.0220   31.3400   47.1300 C   0  0  0  0  0  0  0  0  0  0  0  0
   63.0810   32.2050   47.4180 C   0  0  0  0  0  0  0  0  0  0  0  0
   62.8390   33.4110   48.0820 C   0  0  0  0  0  0  0  0  0  0  0  0
   61.5360   33.7560   48.4620 C   0  0  0  0  0  0  0  0  0  0  0  0
   61.3250   34.9370   49.0960 F   0  0  0  0  0  0  0  0  0  0  0  0
   59.3570   34.6330   46.5600 C   0  0  0  0  0  0  0  0  0  0  0  0
   59.5890   33.8510   45.2580 C   0  0  0  0  0  0  0  0  0  0  0  0
   58.4100   30.7010   45.1310 C   0  0  0  0  0  0  0  0  0  0  0  0
   57.8200   29.5320   45.6530 C   0  0  0  0  0  0  0  0  0  0  0  0
   58.3740   28.8380   46.7390 O   0  0  0  0  0  0  0  0  0  0  0  0
   59.7350   28.4270   46.8240 C   0  0  0  0  0  0  0  0  0  0  0  0
   56.8901   26.4204   46.8485 H   0  0  0  0  0  0  0  0  0  0  0  0
   56.1929   25.8281   45.3026 H   0  0  0  0  0  0  0  0  0  0  0  0
   57.7578   26.7102   45.3026 H   0  0  0  0  0  0  0  0  0  0  0  0
   55.1314   29.3253   43.5356 H   0  0  0  0  0  0  0  0  0  0  0  0
   56.1837   31.3931   42.6298 H   0  0  0  0  0  0  0  0  0  0  0  0
   59.5087   32.4440   43.2757 H   0  0  0  0  0  0  0  0  0  0  0  0
   57.9155   32.9169   42.5757 H   0  0  0  0  0  0  0  0  0  0  0  0
   56.6615   34.6051   45.4198 H   0  0  0  0  0  0  0  0  0  0  0  0
   56.4410   32.8985   44.8325 H   0  0  0  0  0  0  0  0  0  0  0  0
   56.5006   32.9951   47.2950 H   0  0  0  0  0  0  0  0  0  0  0  0
   57.9121   32.0858   46.6146 H   0  0  0  0  0  0  0  0  0  0  0  0
   59.0641   33.8912   49.4468 H   0  0  0  0  0  0  0  0  0  0  0  0
   58.4931   32.3190   48.7627 H   0  0  0  0  0  0  0  0  0  0  0  0
   59.8877   30.9971   47.2748 H   0  0  0  0  0  0  0  0  0  0  0  0
   62.2136   30.3918   46.6064 H   0  0  0  0  0  0  0  0  0  0  0  0
   64.1059   31.9367   47.1220 H   0  0  0  0  0  0  0  0  0  0  0  0
   63.6741   34.0908   48.3066 H   0  0  0  0  0  0  0  0  0  0  0  0
   58.9805   35.6355   46.3086 H   0  0  0  0  0  0  0  0  0  0  0  0
   60.3161   34.6877   47.0959 H   0  0  0  0  0  0  0  0  0  0  0  0
   60.3418   34.3774   44.6529 H   0  0  0  0  0  0  0  0  0  0  0  0
   59.9363   32.8399   45.5169 H   0  0  0  0  0  0  0  0  0  0  0  0
   59.3364   31.0906   45.5783 H   0  0  0  0  0  0  0  0  0  0  0  0
   60.0261   28.3391   47.8811 H   0  0  0  0  0  0  0  0  0  0  0  0
   59.8554   27.4524   46.3283 H   0  0  0  0  0  0  0  0  0  0  0  0
   60.3747   29.1720   46.3283 H   0  0  0  0  0  0  0  0  0  0  0  0
  1  2  1  0
  2  3  1  0
  3  4  2  0
  4  5  1  0
  5  6  2  0
  6  7  1  0
  7  8  1  0
  8  9  1  0
  9 10  1  0
 10 11  1  0
 11 12  1  0
 12 13  1  0
 13 14  2  0
 14 15  1  0
 15 16  2  0
 16 17  1  0
 17 18  2  0
 18 19  1  0
 11 20  1  0
 20 21  1  0
  6 22  1  0
 22 23  2  0
 23 24  1  0
 24 25  1  0
 23  3  1  0
 21  8  1  0
 18 13  1  0
  1 26  1  0
  1 27  1  0
  1 28  1  0
  4 29  1  0
  5 30  1  0
  7 31  1  0
  7 32  1  0
  9 33  1  0
  9 34  1  0
 10 35  1  0
 10 36  1  0
 12 37  1  0
 12 38  1  0
 14 39  1  0
 15 40  1  0
 16 41  1  0
 17 42  1  0
 20 43  1  0
 20 44  1  0
 21 45  1  0
 21 46  1  0
 22 47  1  0
 25 48  1  0
 25 49  1  0
 25 50  1  0
M  END
>  <UniqueID>  (45) 
43

>  <SMILES>  (45) 
COc1ccc(CN2CCN(Cc3ccccc3F)CC2)cc1OC

>  <Energy>  (45) 
63.25503522303065

>  <Genealogy>  (45) 
COc1ccc(CN2CCN(Cc3ccccc3F)CC2)cc1OC (3D coordinates assigned)
COc1ccc(CN2CCN(Cc3ccccc3F)CC2)cc1OC (nonaromatic ring conformer: 63.25503522303065 kcal/mol)

>  <smiles>  (45) 
COc1ccc(CN2CCN(Cc3ccccc3F)CC2)cc1OC

>  <score_type>  (45) 
oracle

>  <origin>  (45) 
adg

>  <m_score__min__energy>  (45) 
-8.5800000000000001

>  <m_primary>  (45) 
energy

$$$$
45:0
     RDKit          3D

 59 62  0  0  0  0  0  0  0  0999 V2000
   55.2100   30.1550   52.3480 C   0  0  0  0  0  0  0  0  0  0  0  0
   56.4620   29.4120   52.5560 N   0  0  0  0  0  0  0  0  0  0  0  0
   56.2610   28.3980   53.6070 C   0  0  0  0  0  0  0  0  0  0  0  0
   57.5480   30.3440   52.9260 C   0  0  0  0  0  0  0  0  0  0  0  0
   58.0320   31.0990   51.7150 C   0  0  0  0  0  0  0  0  0  0  0  0
   58.1040   30.4580   50.4700 C   0  0  0  0  0  0  0  0  0  0  0  0
   58.5800   31.1440   49.3500 C   0  0  0  0  0  0  0  0  0  0  0  0
   59.0070   32.4750   49.4650 C   0  0  0  0  0  0  0  0  0  0  0  0
   59.5200   33.1920   48.2810 C   0  0  0  0  0  0  0  0  0  0  0  0
   58.6150   33.9430   47.5120 C   0  0  0  0  0  0  0  0  0  0  0  0
   59.0490   34.6360   46.3810 C   0  0  0  0  0  0  0  0  0  0  0  0
   60.3890   34.5790   45.9990 C   0  0  0  0  0  0  0  0  0  0  0  0
   61.2980   33.8270   46.7440 C   0  0  0  0  0  0  0  0  0  0  0  0
   60.8820   33.1260   47.8910 C   0  0  0  0  0  0  0  0  0  0  0  0
   61.8890   32.2430   48.6100 C   0  0  0  0  0  0  0  0  0  0  0  0
   62.2720   31.0680   47.8060 N   0  0  0  0  0  0  0  0  0  0  0  0
   61.1330   30.2300   47.5150 C   0  0  0  0  0  0  0  0  0  0  0  0
   60.8120   29.1490   48.3550 C   0  0  0  0  0  0  0  0  0  0  0  0
   59.6810   28.3710   48.1000 C   0  0  0  0  0  0  0  0  0  0  0  0
   58.8570   28.6630   47.0110 C   0  0  0  0  0  0  0  0  0  0  0  0
   59.1560   29.7400   46.1600 C   0  0  0  0  0  0  0  0  0  0  0  0
   58.2800   30.0540   45.0030 C   0  0  0  0  0  0  0  0  0  0  0  0
   58.3460   31.3120   44.3750 C   0  0  0  0  0  0  0  0  0  0  0  0
   57.5190   31.6040   43.2860 C   0  0  0  0  0  0  0  0  0  0  0  0
   56.6190   30.6470   42.8130 C   0  0  0  0  0  0  0  0  0  0  0  0
   56.5430   29.3960   43.4280 C   0  0  0  0  0  0  0  0  0  0  0  0
   57.3680   29.0970   44.5170 C   0  0  0  0  0  0  0  0  0  0  0  0
   60.2980   30.5210   46.4210 C   0  0  0  0  0  0  0  0  0  0  0  0
   58.9230   33.1220   50.7070 C   0  0  0  0  0  0  0  0  0  0  0  0
   58.4440   32.4370   51.8270 C   0  0  0  0  0  0  0  0  0  0  0  0
   54.7717   30.4151   53.3228 H   0  0  0  0  0  0  0  0  0  0  0  0
   55.4193   31.0752   51.7828 H   0  0  0  0  0  0  0  0  0  0  0  0
   54.5025   29.5304   51.7828 H   0  0  0  0  0  0  0  0  0  0  0  0
   56.3548   28.8711   54.5956 H   0  0  0  0  0  0  0  0  0  0  0  0
   55.2581   27.9578   53.5048 H   0  0  0  0  0  0  0  0  0  0  0  0
   57.0201   27.6085   53.5048 H   0  0  0  0  0  0  0  0  0  0  0  0
   57.1722   31.0595   53.6722 H   0  0  0  0  0  0  0  0  0  0  0  0
   58.3859   29.7659   53.3428 H   0  0  0  0  0  0  0  0  0  0  0  0
   57.7841   29.4099   50.3747 H   0  0  0  0  0  0  0  0  0  0  0  0
   58.6201   30.6382   48.3740 H   0  0  0  0  0  0  0  0  0  0  0  0
   57.5553   33.9851   47.8039 H   0  0  0  0  0  0  0  0  0  0  0  0
   58.3337   35.2275   45.7906 H   0  0  0  0  0  0  0  0  0  0  0  0
   60.7299   35.1279   45.1088 H   0  0  0  0  0  0  0  0  0  0  0  0
   62.3516   33.7816   46.4312 H   0  0  0  0  0  0  0  0  0  0  0  0
   62.7909   32.8354   48.8238 H   0  0  0  0  0  0  0  0  0  0  0  0
   61.4199   31.8804   49.5365 H   0  0  0  0  0  0  0  0  0  0  0  0
   63.0120   30.5190   48.3010 H   0  0  0  0  0  0  0  0  0  0  0  0
   62.6910   31.4000   46.9060 H   0  0  0  0  0  0  0  0  0  0  0  0
   61.4546   28.9153   49.2166 H   0  0  0  0  0  0  0  0  0  0  0  0
   59.4381   27.5248   48.7595 H   0  0  0  0  0  0  0  0  0  0  0  0
   57.9675   28.0453   46.8182 H   0  0  0  0  0  0  0  0  0  0  0  0
   59.0527   32.0702   44.7433 H   0  0  0  0  0  0  0  0  0  0  0  0
   57.5775   32.5896   42.8010 H   0  0  0  0  0  0  0  0  0  0  0  0
   55.9698   30.8788   41.9558 H   0  0  0  0  0  0  0  0  0  0  0  0
   55.8325   28.6436   43.0551 H   0  0  0  0  0  0  0  0  0  0  0  0
   57.3043   28.1091   44.9966 H   0  0  0  0  0  0  0  0  0  0  0  0
   60.5399   31.3680   45.7622 H   0  0  0  0  0  0  0  0  0  0  0  0
   59.2354   34.1726   50.7996 H   0  0  0  0  0  0  0  0  0  0  0  0
   58.3895   32.9476   52.7998 H   0  0  0  0  0  0  0  0  0  0  0  0
  1  2  1  0
  2  3  1  0
  2  4  1  0
  4  5  1  0
  5  6  2  0
  6  7  1  0
  7  8  2  0
  8  9  1  0
  9 10  2  0
 10 11  1  0
 11 12  2  0
 12 13  1  0
 13 14  2  0
 14 15  1  0
 15 16  1  0
 16 17  1  0
 17 18  2  0
 18 19  1  0
 19 20  2  0
 20 21  1  0
 21 22  1  0
 22 23  2  0
 23 24  1  0
 24 25  2  0
 25 26  1  0
 26 27  2  0
 21 28  2  0
  8 29  1  0
 29 30  2  0
 30  5  1  0
 14  9  1  0
 28 17  1  0
 27 22  1  0
  1 31  1  0
  1 32  1  0
  1 33  1  0
  3 34  1  0
  3 35  1  0
  3 36  1  0
  4 37  1  0
  4 38  1  0
  6 39  1  0
  7 40  1  0
 10 41  1  0
 11 42  1  0
 12 43  1  0
 13 44  1  0
 15 45  1  0
 15 46  1  0
 16 47  1  0
 16 48  1  0
 18 49  1  0
 19 50  1  0
 20 51  1  0
 23 52  1  0
 24 53  1  0
 25 54  1  0
 26 55  1  0
 27 56  1  0
 28 57  1  0
 29 58  1  0
 30 59  1  0
M  CHG  1  16   1
M  END
>  <UniqueID>  (46) 
44

>  <SMILES>  (46) 
CN(C)Cc1ccc(-c2ccccc2C[NH2+]c2cccc(-c3ccccc3)c2)cc1

>  <Energy>  (46) 
75.55817865375276

>  <Genealogy>  (46) 
CN(C)Cc1ccc(-c2ccccc2C[NH2+]c2cccc(-c3ccccc3)c2)cc1 (protonated)
CN(C)Cc1ccc(-c2ccccc2C[NH2+]c2cccc(-c3ccccc3)c2)cc1 (3D coordinates assigned)
CN(C)Cc1ccc(-c2ccccc2C[NH2+]c2cccc(-c3ccccc3)c2)cc1 (optimized conformer: 75.55817865375276 kcal/mol)

>  <smiles>  (46) 
CN(C)Cc1ccc(-c2ccccc2CNc2cccc(-c3ccccc3)c2)cc1

>  <score_type>  (46) 
oracle

>  <origin>  (46) 
adg

>  <m_score__min__energy>  (46) 
-7.9400000000000004

>  <m_primary>  (46) 
energy

$$$$
