0:0
     RDKit          3D

 60 62  0  0  0  0  0  0  0  0999 V2000
   59.7080   33.4840   50.2010 C   0  0  0  0  0  0  0  0  0  0  0  0
   60.4040   32.9720   49.0650 O   0  0  0  0  0  0  0  0  0  0  0  0
   60.2120   31.6910   48.5250 C   0  0  0  0  0  0  0  0  0  0  0  0
   59.3250   30.7620   49.0980 C   0  0  0  0  0  0  0  0  0  0  0  0
   59.1950   29.4820   48.5590 C   0  0  0  0  0  0  0  0  0  0  0  0
   59.9580   29.0990   47.4480 C   0  0  0  0  0  0  0  0  0  0  0  0
   59.8590   27.6950   46.8810 C   0  0  0  0  0  0  0  0  0  0  0  0
   58.5380   27.3510   46.3020 N   0  0  0  0  0  0  0  0  0  0  0  0
   58.5830   26.3240   45.2510 C   0  0  0  0  0  0  0  0  0  0  0  0
   58.2860   27.0070   43.9280 C   0  0  0  0  0  0  0  0  0  0  0  0
   57.3990   28.1800   44.3250 C   0  0  2  0  0  0  0  0  0  0  0  0
   57.4400   29.3300   43.3880 N   0  0  0  0  0  0  0  0  0  0  0  0
   58.1730   30.5300   43.8410 C   0  0  0  0  0  0  0  0  0  0  0  0
   57.2330   31.4810   44.5380 C   0  0  0  0  0  0  0  0  0  0  0  0
   56.0440   31.1200   44.7440 O   0  0  0  0  0  0  0  0  0  0  0  0
   57.6980   32.7450   45.0530 N   0  0  0  0  0  0  0  0  0  0  0  0
   58.7520   33.4920   44.3600 C   0  0  0  0  0  0  0  0  0  0  0  0
   58.8700   34.9250   44.9050 C   0  0  0  0  0  0  0  0  0  0  0  0
   58.9910   34.9630   46.3800 N   0  0  0  0  0  0  0  0  0  0  0  0
   60.3960   34.8400   46.7970 C   0  0  0  0  0  0  0  0  0  0  0  0
   58.1290   33.9920   47.1130 C   0  0  0  0  0  0  0  0  0  0  0  0
   57.0540   33.3490   46.2250 C   0  0  0  0  0  0  0  0  0  0  0  0
   57.7620   28.4930   45.7830 C   0  0  0  0  0  0  0  0  0  0  0  0
   60.7950   30.0460   46.8360 C   0  0  0  0  0  0  0  0  0  0  0  0
   60.9420   31.3350   47.3810 C   0  0  0  0  0  0  0  0  0  0  0  0
   61.8170   32.2850   46.8240 O   0  0  0  0  0  0  0  0  0  0  0  0
   63.0570   32.6760   47.4070 C   0  0  0  0  0  0  0  0  0  0  0  0
   60.1941   33.1264   51.1207 H   0  0  0  0  0  0  0  0  0  0  0  0
   59.7289   34.5836   50.1789 H   0  0  0  0  0  0  0  0  0  0  0  0
   58.6645   33.1366   50.1789 H   0  0  0  0  0  0  0  0  0  0  0  0
   58.7293   31.0469   49.9778 H   0  0  0  0  0  0  0  0  0  0  0  0
   58.4889   28.7687   49.0091 H   0  0  0  0  0  0  0  0  0  0  0  0
   60.6169   27.5907   46.0906 H   0  0  0  0  0  0  0  0  0  0  0  0
   60.0159   27.0078   47.7254 H   0  0  0  0  0  0  0  0  0  0  0  0
   59.5814   25.8633   45.2194 H   0  0  0  0  0  0  0  0  0  0  0  0
   57.8448   25.5336   45.4517 H   0  0  0  0  0  0  0  0  0  0  0  0
   59.2124   27.3585   43.4503 H   0  0  0  0  0  0  0  0  0  0  0  0
   57.8091   26.3371   43.1974 H   0  0  0  0  0  0  0  0  0  0  0  0
   56.3334   27.9171   44.2521 H   0  0  0  0  0  0  0  0  0  0  0  0
   57.8640   28.9880   42.4920 H   0  0  0  0  0  0  0  0  0  0  0  0
   56.4520   29.6090   43.1770 H   0  0  0  0  0  0  0  0  0  0  0  0
   58.9683   30.2284   44.5386 H   0  0  0  0  0  0  0  0  0  0  0  0
   58.6117   31.0342   42.9673 H   0  0  0  0  0  0  0  0  0  0  0  0
   59.7118   32.9739   44.5028 H   0  0  0  0  0  0  0  0  0  0  0  0
   58.4949   33.5463   43.2918 H   0  0  0  0  0  0  0  0  0  0  0  0
   59.7612   35.3971   44.4658 H   0  0  0  0  0  0  0  0  0  0  0  0
   57.9505   35.4632   44.6314 H   0  0  0  0  0  0  0  0  0  0  0  0
   60.4533   34.8350   47.8955 H   0  0  0  0  0  0  0  0  0  0  0  0
   60.8144   33.9018   46.4037 H   0  0  0  0  0  0  0  0  0  0  0  0
   60.9711   35.6912   46.4037 H   0  0  0  0  0  0  0  0  0  0  0  0
   58.7683   33.1952   47.5209 H   0  0  0  0  0  0  0  0  0  0  0  0
   57.6084   34.5496   47.9055 H   0  0  0  0  0  0  0  0  0  0  0  0
   56.5221   32.5724   46.7942 H   0  0  0  0  0  0  0  0  0  0  0  0
   56.3352   34.1153   45.8992 H   0  0  0  0  0  0  0  0  0  0  0  0
   58.3667   29.4106   45.8307 H   0  0  0  0  0  0  0  0  0  0  0  0
   56.8536   28.6488   46.3834 H   0  0  0  0  0  0  0  0  0  0  0  0
   61.3419   29.7772   45.9202 H   0  0  0  0  0  0  0  0  0  0  0  0
   62.9714   32.6490   48.5033 H   0  0  0  0  0  0  0  0  0  0  0  0
   63.8485   31.9838   47.0839 H   0  0  0  0  0  0  0  0  0  0  0  0
   63.3083   33.6970   47.0839 H   0  0  0  0  0  0  0  0  0  0  0  0
  1  2  1  0
  2  3  1  0
  3  4  2  0
  4  5  1  0
  5  6  2  0
  6  7  1  0
  7  8  1  0
  8  9  1  0
  9 10  1  0
 10 11  1  0
 11 12  1  0
 12 13  1  0
 13 14  1  0
 14 15  2  0
 14 16  1  0
 16 17  1  0
 17 18  1  0
 18 19  1  0
 19 20  1  0
 19 21  1  0
 21 22  1  0
 11 23  1  0
  6 24  1  0
 24 25  2  0
 25 26  1  0
 26 27  1  0
 25  3  1  0
 23  8  1  0
 22 16  1  0
  1 28  1  0
  1 29  1  0
  1 30  1  0
  4 31  1  0
  5 32  1  0
  7 33  1  0
  7 34  1  0
  9 35  1  0
  9 36  1  0
 10 37  1  0
 10 38  1  0
 11 39  1  1
 12 40  1  0
 12 41  1  0
 13 42  1  0
 13 43  1  0
 17 44  1  0
 17 45  1  0
 18 46  1  0
 18 47  1  0
 20 48  1  0
 20 49  1  0
 20 50  1  0
 21 51  1  0
 21 52  1  0
 22 53  1  0
 22 54  1  0
 23 55  1  0
 23 56  1  0
 24 57  1  0
 27 58  1  0
 27 59  1  0
 27 60  1  0
M  CHG  1  12   1
M  END
>  <UniqueID>  (1) 
1

>  <SMILES>  (1) 
COc1ccc(CN2CC[C@H]([NH2+]CC(=O)N3CCN(C)CC3)C2)cc1OC

>  <Energy>  (1) 
76.31744261531473

>  <Genealogy>  (1) 
COc1ccc(CN2CCC([NH2+]CC(=O)N3CCN(C)CC3)C2)cc1OC (protonated)
COc1ccc(CN2CC[C@H]([NH2+]CC(=O)N3CCN(C)CC3)C2)cc1OC (chirality)
COc1ccc(CN2CC[C@H]([NH2+]CC(=O)N3CCN(C)CC3)C2)cc1OC (3D coordinates assigned)
COc1ccc(CN2CC[C@H]([NH2+]CC(=O)N3CCN(C)CC3)C2)cc1OC (nonaromatic ring conformer: 76.31744261531473 kcal/mol)

>  <smiles>  (1) 
COc1ccc(CN2CCC(NCC(=O)N3CCN(C)CC3)C2)cc1OC

>  <score_type>  (1) 
oracle

>  <origin>  (1) 
adg

>  <m_score__min__energy>  (1) 
-6.6699999999999999

>  <m_primary>  (1) 
energy

$$$$
1:0
     RDKit          3D

 34 37  0  0  0  0  0  0  0  0999 V2000
   55.8370   22.5230   48.2350 C   0  0  0  0  0  0  0  0  0  0  0  0
   57.0540   23.0800   47.7510 O   0  0  0  0  0  0  0  0  0  0  0  0
   57.1710   24.4170   47.3610 C   0  0  0  0  0  0  0  0  0  0  0  0
   56.2540   24.9500   46.4520 C   0  0  0  0  0  0  0  0  0  0  0  0
   56.3700   26.2860   46.0630 C   0  0  0  0  0  0  0  0  0  0  0  0
   57.3970   27.0880   46.5870 C   0  0  0  0  0  0  0  0  0  0  0  0
   57.5260   28.4650   46.1870 N   0  0  0  0  0  0  0  0  0  0  0  0
   58.5480   29.2960   46.5190 C   0  0  0  0  0  0  0  0  0  0  0  0
   58.3260   30.5400   45.9480 C   0  0  0  0  0  0  0  0  0  0  0  0
   57.1490   30.4580   45.2510 C   0  0  0  0  0  0  0  0  0  0  0  0
   56.6480   31.5490   44.5500 C   0  0  0  0  0  0  0  0  0  0  0  0
   57.3580   32.7150   44.5760 N   0  0  0  0  0  0  0  0  0  0  0  0
   58.5360   32.8350   45.2640 C   0  0  0  0  0  0  0  0  0  0  0  0
   59.2290   34.0500   45.2620 C   0  0  0  0  0  0  0  0  0  0  0  0
   60.4340   34.1720   45.9630 C   0  0  0  0  0  0  0  0  0  0  0  0
   60.9530   33.0810   46.6710 C   0  0  0  0  0  0  0  0  0  0  0  0
   60.2720   31.8590   46.6840 C   0  0  0  0  0  0  0  0  0  0  0  0
   59.0640   31.7270   45.9830 C   0  0  0  0  0  0  0  0  0  0  0  0
   56.6760   29.1770   45.4080 C   0  0  0  0  0  0  0  0  0  0  0  0
   55.5200   28.6710   44.8240 O   0  0  0  0  0  0  0  0  0  0  0  0
   58.3000   26.5080   47.4930 C   0  0  0  0  0  0  0  0  0  0  0  0
   58.1680   25.2030   47.8540 N   0  0  0  0  0  0  0  0  0  0  0  0
   55.8442   22.5263   49.3350 H   0  0  0  0  0  0  0  0  0  0  0  0
   54.9893   23.1228   47.8721 H   0  0  0  0  0  0  0  0  0  0  0  0
   55.7369   21.4894   47.8721 H   0  0  0  0  0  0  0  0  0  0  0  0
   55.4471   24.3223   46.0459 H   0  0  0  0  0  0  0  0  0  0  0  0
   55.6547   26.7117   45.3439 H   0  0  0  0  0  0  0  0  0  0  0  0
   59.4136   29.0253   47.1415 H   0  0  0  0  0  0  0  0  0  0  0  0
   55.7046   31.4749   43.9892 H   0  0  0  0  0  0  0  0  0  0  0  0
   58.8261   34.9110   44.7085 H   0  0  0  0  0  0  0  0  0  0  0  0
   60.9759   35.1292   45.9578 H   0  0  0  0  0  0  0  0  0  0  0  0
   61.9007   33.1853   47.2196 H   0  0  0  0  0  0  0  0  0  0  0  0
   60.6824   31.0045   47.2420 H   0  0  0  0  0  0  0  0  0  0  0  0
   59.1180   27.1119   47.9127 H   0  0  0  0  0  0  0  0  0  0  0  0
  1  2  1  0
  2  3  1  0
  3  4  2  0
  4  5  1  0
  5  6  2  0
  6  7  1  0
  7  8  1  0
  8  9  2  0
  9 10  1  0
 10 11  1  0
 11 12  2  0
 12 13  1  0
 13 14  2  0
 14 15  1  0
 15 16  2  0
 16 17  1  0
 17 18  2  0
 10 19  2  0
 19 20  1  0
  6 21  1  0
 21 22  2  0
 22  3  1  0
 19  7  1  0
 18  9  1  0
 18 13  1  0
  1 23  1  0
  1 24  1  0
  1 25  1  0
  4 26  1  0
  5 27  1  0
  8 28  1  0
 11 29  1  0
 14 30  1  0
 15 31  1  0
 16 32  1  0
 17 33  1  0
 21 34  1  0
M  CHG  1  20  -1
M  END
>  <UniqueID>  (2) 
2

>  <SMILES>  (2) 
COc1ccc(-n2cc3c(cnc4ccccc43)c2[O-])cn1

>  <Energy>  (2) 
81.9134640494941

>  <Genealogy>  (2) 
COc1ccc(-n2cc3c(cnc4ccccc43)c2[O-])cn1 (protonated)
COc1ccc(-n2cc3c(cnc4ccccc43)c2[O-])cn1 (3D coordinates assigned)
COc1ccc(-n2cc3c(cnc4ccccc43)c2[O-])cn1 (optimized conformer: 81.9134640494941 kcal/mol)

>  <smiles>  (2) 
COc1ccc(-n2cc3c(cnc4ccccc43)c2O)cn1

>  <score_type>  (2) 
oracle

>  <origin>  (2) 
adg

>  <m_score__min__energy>  (2) 
-9.4600000000000009

>  <m_primary>  (2) 
energy

$$$$
2:0
     RDKit          3D

 40 41  0  0  0  0  0  0  0  0999 V2000
   62.3240   31.2480   49.4830 C   0  0  0  0  0  0  0  0  0  0  0  0
   63.0070   31.2950   48.1130 C   0  0  0  0  0  0  0  0  0  0  0  0
   63.6170   32.6180   47.8110 N   0  0  0  0  0  0  0  0  0  0  0  0
   64.0080   33.3100   49.0670 C   0  0  0  0  0  0  0  0  0  0  0  0
   65.2650   32.7350   49.7400 C   0  0  0  0  0  0  0  0  0  0  0  0
   62.7380   33.4770   46.9610 C   0  0  0  0  0  0  0  0  0  0  0  0
   61.6380   34.2130   47.7670 C   0  0  0  0  0  0  0  0  0  0  0  0
   60.3240   33.4250   47.8980 C   0  0  0  0  0  0  0  0  0  0  0  0
   59.5270   33.4830   46.6680 N   0  0  0  0  0  0  0  0  0  0  0  0
   59.3100   34.6370   45.9890 C   0  0  0  0  0  0  0  0  0  0  0  0
   58.5090   34.4230   44.8840 C   0  0  0  0  0  0  0  0  0  0  0  0
   58.2340   33.0770   44.8920 C   0  0  0  0  0  0  0  0  0  0  0  0
   57.4640   32.3400   44.0000 C   0  0  0  0  0  0  0  0  0  0  0  0
   57.3300   30.9640   44.2260 C   0  0  0  0  0  0  0  0  0  0  0  0
   56.3660   29.9890   43.1320 Cl  0  0  0  0  0  0  0  0  0  0  0  0
   57.9680   30.3610   45.3270 C   0  0  0  0  0  0  0  0  0  0  0  0
   58.7470   31.1190   46.2230 C   0  0  0  0  0  0  0  0  0  0  0  0
   59.4790   30.2540   47.5640 Cl  0  0  0  0  0  0  0  0  0  0  0  0
   58.8640   32.5120   45.9810 C   0  0  0  0  0  0  0  0  0  0  0  0
   63.0860   31.3004   50.2746 H   0  0  0  0  0  0  0  0  0  0  0  0
   61.6361   32.1009   49.5792 H   0  0  0  0  0  0  0  0  0  0  0  0
   61.7594   30.3089   49.5792 H   0  0  0  0  0  0  0  0  0  0  0  0
   63.7981   30.5310   48.0896 H   0  0  0  0  0  0  0  0  0  0  0  0
   62.2331   31.1092   47.3537 H   0  0  0  0  0  0  0  0  0  0  0  0
   64.5180   32.4390   47.3080 H   0  0  0  0  0  0  0  0  0  0  0  0
   64.1957   34.3684   48.8334 H   0  0  0  0  0  0  0  0  0  0  0  0
   63.1786   33.1698   49.7758 H   0  0  0  0  0  0  0  0  0  0  0  0
   65.1519   32.7867   50.8330 H   0  0  0  0  0  0  0  0  0  0  0  0
   65.3976   31.6867   49.4343 H   0  0  0  0  0  0  0  0  0  0  0  0
   66.1448   33.3202   49.4343 H   0  0  0  0  0  0  0  0  0  0  0  0
   63.3646   34.2284   46.4582 H   0  0  0  0  0  0  0  0  0  0  0  0
   62.2298   32.8153   46.2441 H   0  0  0  0  0  0  0  0  0  0  0  0
   62.0243   34.4114   48.7776 H   0  0  0  0  0  0  0  0  0  0  0  0
   61.4021   35.1345   47.2145 H   0  0  0  0  0  0  0  0  0  0  0  0
   60.5602   32.3738   48.1195 H   0  0  0  0  0  0  0  0  0  0  0  0
   59.7340   33.8779   48.7084 H   0  0  0  0  0  0  0  0  0  0  0  0
   59.7186   35.6159   46.2803 H   0  0  0  0  0  0  0  0  0  0  0  0
   58.1650   35.1704   44.1539 H   0  0  0  0  0  0  0  0  0  0  0  0
   56.9741   32.8231   43.1417 H   0  0  0  0  0  0  0  0  0  0  0  0
   57.8561   29.2790   45.4903 H   0  0  0  0  0  0  0  0  0  0  0  0
  1  2  1  0
  2  3  1  0
  3  4  1  0
  4  5  1  0
  3  6  1  0
  6  7  1  0
  7  8  1  0
  8  9  1  0
  9 10  1  0
 10 11  2  0
 11 12  1  0
 12 13  2  0
 13 14  1  0
 14 15  1  0
 14 16  2  0
 16 17  1  0
 17 18  1  0
 17 19  2  0
 19  9  1  0
 19 12  1  0
  1 20  1  0
  1 21  1  0
  1 22  1  0
  2 23  1  0
  2 24  1  0
  3 25  1  0
  4 26  1  0
  4 27  1  0
  5 28  1  0
  5 29  1  0
  5 30  1  0
  6 31  1  0
  6 32  1  0
  7 33  1  0
  7 34  1  0
  8 35  1  0
  8 36  1  0
 10 37  1  0
 11 38  1  0
 13 39  1  0
 16 40  1  0
M  CHG  1   3   1
M  END
>  <UniqueID>  (3) 
3

>  <SMILES>  (3) 
CC[NH+](CC)CCCn1ccc2cc(Cl)cc(Cl)c21

>  <Energy>  (3) 
78.4282558704394

>  <Genealogy>  (3) 
CC[NH+](CC)CCCn1ccc2cc(Cl)cc(Cl)c21 (protonated)
CC[NH+](CC)CCCn1ccc2cc(Cl)cc(Cl)c21 (3D coordinates assigned)
CC[NH+](CC)CCCn1ccc2cc(Cl)cc(Cl)c21 (optimized conformer: 78.4282558704394 kcal/mol)

>  <smiles>  (3) 
CCN(CC)CCCn1ccc2cc(Cl)cc(Cl)c21

>  <score_type>  (3) 
oracle

>  <origin>  (3) 
adg

>  <m_score__min__energy>  (3) 
-5.4199999999999999

>  <m_primary>  (3) 
energy

$$$$
3:0
     RDKit          3D

 45 46  0  0  0  0  0  0  0  0999 V2000
   63.3880   34.1510   46.3800 C   0  0  0  0  0  0  0  0  0  0  0  0
   63.0100   33.2300   47.4650 N   0  0  0  0  0  0  0  0  0  0  0  0
   63.7270   31.9490   47.3410 C   0  0  0  0  0  0  0  0  0  0  0  0
   63.1250   33.8320   48.8200 C   0  0  0  0  0  0  0  0  0  0  0  0
   61.8130   33.9190   49.6370 C   0  0  0  0  0  0  0  0  0  0  0  0
   60.6450   33.4040   48.8830 N   0  0  0  0  0  0  0  0  0  0  0  0
   59.6330   34.4640   48.6300 C   0  0  0  0  0  0  0  0  0  0  0  0
   59.0250   34.2660   47.2690 C   0  0  0  0  0  0  0  0  0  0  0  0
   59.6070   34.8540   46.1320 C   0  0  0  0  0  0  0  0  0  0  0  0
   59.0510   34.6450   44.8660 C   0  0  0  0  0  0  0  0  0  0  0  0
   57.9080   33.8530   44.7250 C   0  0  0  0  0  0  0  0  0  0  0  0
   57.3180   33.2710   45.8500 C   0  0  0  0  0  0  0  0  0  0  0  0
   57.8700   33.4780   47.1170 C   0  0  0  0  0  0  0  0  0  0  0  0
   60.0430   32.2390   49.5730 C   0  0  0  0  0  0  0  0  0  0  0  0
   59.8590   31.0920   48.6130 C   0  0  0  0  0  0  0  0  0  0  0  0
   60.4070   31.1450   47.3200 C   0  0  0  0  0  0  0  0  0  0  0  0
   60.2030   30.0910   46.4250 C   0  0  0  0  0  0  0  0  0  0  0  0
   59.4540   28.9770   46.8130 C   0  0  0  0  0  0  0  0  0  0  0  0
   58.9110   28.9140   48.0990 C   0  0  0  0  0  0  0  0  0  0  0  0
   59.1140   29.9650   48.9980 C   0  0  0  0  0  0  0  0  0  0  0  0
   63.7723   35.0873   46.8110 H   0  0  0  0  0  0  0  0  0  0  0  0
   64.1679   33.6859   45.7593 H   0  0  0  0  0  0  0  0  0  0  0  0
   62.5062   34.3679   45.7593 H   0  0  0  0  0  0  0  0  0  0  0  0
   61.9940   33.0090   47.3300 H   0  0  0  0  0  0  0  0  0  0  0  0
   63.9481   31.5540   48.3435 H   0  0  0  0  0  0  0  0  0  0  0  0
   63.1004   31.2296   46.7934 H   0  0  0  0  0  0  0  0  0  0  0  0
   64.6679   32.1069   46.7934 H   0  0  0  0  0  0  0  0  0  0  0  0
   63.8413   33.2285   49.3968 H   0  0  0  0  0  0  0  0  0  0  0  0
   63.4423   34.8725   48.6565 H   0  0  0  0  0  0  0  0  0  0  0  0
   61.9292   33.3270   50.5568 H   0  0  0  0  0  0  0  0  0  0  0  0
   61.6268   34.9794   49.8624 H   0  0  0  0  0  0  0  0  0  0  0  0
   58.8446   34.4075   49.3950 H   0  0  0  0  0  0  0  0  0  0  0  0
   60.1181   35.4503   48.6735 H   0  0  0  0  0  0  0  0  0  0  0  0
   60.5041   35.4815   46.2389 H   0  0  0  0  0  0  0  0  0  0  0  0
   59.5137   35.1044   43.9801 H   0  0  0  0  0  0  0  0  0  0  0  0
   57.4729   33.6878   43.7283 H   0  0  0  0  0  0  0  0  0  0  0  0
   56.4177   32.6490   45.7381 H   0  0  0  0  0  0  0  0  0  0  0  0
   57.3986   33.0222   48.0002 H   0  0  0  0  0  0  0  0  0  0  0  0
   60.7050   31.9222   50.3924 H   0  0  0  0  0  0  0  0  0  0  0  0
   59.0596   32.5308   49.9701 H   0  0  0  0  0  0  0  0  0  0  0  0
   60.9987   32.0193   47.0111 H   0  0  0  0  0  0  0  0  0  0  0  0
   60.6328   30.1385   45.4135 H   0  0  0  0  0  0  0  0  0  0  0  0
   59.2919   28.1498   46.1063 H   0  0  0  0  0  0  0  0  0  0  0  0
   58.3229   28.0360   48.4044 H   0  0  0  0  0  0  0  0  0  0  0  0
   58.6887   29.9093   50.0109 H   0  0  0  0  0  0  0  0  0  0  0  0
  1  2  1  0
  2  3  1  0
  2  4  1  0
  4  5  1  0
  5  6  1  0
  6  7  1  0
  7  8  1  0
  8  9  2  0
  9 10  1  0
 10 11  2  0
 11 12  1  0
 12 13  2  0
  6 14  1  0
 14 15  1  0
 15 16  2  0
 16 17  1  0
 17 18  2  0
 18 19  1  0
 19 20  2  0
 13  8  1  0
 20 15  1  0
  1 21  1  0
  1 22  1  0
  1 23  1  0
  2 24  1  0
  3 25  1  0
  3 26  1  0
  3 27  1  0
  4 28  1  0
  4 29  1  0
  5 30  1  0
  5 31  1  0
  7 32  1  0
  7 33  1  0
  9 34  1  0
 10 35  1  0
 11 36  1  0
 12 37  1  0
 13 38  1  0
 14 39  1  0
 14 40  1  0
 16 41  1  0
 17 42  1  0
 18 43  1  0
 19 44  1  0
 20 45  1  0
M  CHG  1   2   1
M  END
>  <UniqueID>  (4) 
4

>  <SMILES>  (4) 
C[NH+](C)CCN(Cc1ccccc1)Cc1ccccc1

>  <Energy>  (4) 
48.63594541018733

>  <Genealogy>  (4) 
C[NH+](C)CCN(Cc1ccccc1)Cc1ccccc1 (protonated)
C[NH+](C)CCN(Cc1ccccc1)Cc1ccccc1 (3D coordinates assigned)
C[NH+](C)CCN(Cc1ccccc1)Cc1ccccc1 (optimized conformer: 48.63594541018733 kcal/mol)

>  <smiles>  (4) 
CN(C)CCN(Cc1ccccc1)Cc1ccccc1

>  <score_type>  (4) 
oracle

>  <origin>  (4) 
adg

>  <m_score__min__energy>  (4) 
-5.1500000000000004

>  <m_primary>  (4) 
energy

$$$$
4:0
     RDKit          3D

 43 46  0  0  0  0  0  0  0  0999 V2000
   66.9950   35.3840   54.6280 C   0  0  0  0  0  0  0  0  0  0  0  0
   66.6990   34.0630   54.1860 O   0  0  0  0  0  0  0  0  0  0  0  0
   66.2640   33.7400   52.8910 C   0  0  0  0  0  0  0  0  0  0  0  0
   67.0790   33.0540   51.9710 C   0  0  0  0  0  0  0  0  0  0  0  0
   66.6030   32.7460   50.6950 C   0  0  0  0  0  0  0  0  0  0  0  0
   65.3040   33.1180   50.3170 C   0  0  0  0  0  0  0  0  0  0  0  0
   64.8060   32.7860   49.0490 C   0  0  0  0  0  0  0  0  0  0  0  0
   63.4880   33.1140   48.7000 C   0  0  0  0  0  0  0  0  0  0  0  0
   62.7910   32.5100   47.1990 S   0  0  0  0  0  0  0  0  0  0  0  0
   63.4540   31.2160   46.8180 O   0  0  0  0  0  0  0  0  0  0  0  0
   62.9990   33.5060   46.0950 O   0  0  0  0  0  0  0  0  0  0  0  0
   61.0970   32.2370   47.4310 N   0  0  0  0  0  0  0  0  0  0  0  0
   60.1450   32.9240   46.6200 C   0  0  0  0  0  0  0  0  0  0  0  0
   60.0580   34.3250   46.6550 C   0  0  0  0  0  0  0  0  0  0  0  0
   59.0420   34.9930   45.9450 C   0  0  0  0  0  0  0  0  0  0  0  0
   58.0920   34.2660   45.2070 C   0  0  0  0  0  0  0  0  0  0  0  0
   58.1860   32.8720   45.1770 C   0  0  0  0  0  0  0  0  0  0  0  0
   57.2980   32.0010   44.5350 C   0  0  0  0  0  0  0  0  0  0  0  0
   57.6480   30.6670   44.7180 C   0  0  0  0  0  0  0  0  0  0  0  0
   56.7240   29.2910   44.1500 S   0  0  0  0  0  0  0  0  0  0  0  0
   55.1520   29.3160   44.8680 N   0  0  0  0  0  0  0  0  0  0  0  0
   57.4340   28.0210   44.5250 O   0  0  0  0  0  0  0  0  0  0  0  0
   56.5830   29.3620   42.6560 O   0  0  0  0  0  0  0  0  0  0  0  0
   59.0420   30.5610   45.6640 S   0  0  0  0  0  0  0  0  0  0  0  0
   59.2080   32.2230   45.8570 C   0  0  0  0  0  0  0  0  0  0  0  0
   62.6810   33.8100   49.6090 C   0  0  0  0  0  0  0  0  0  0  0  0
   63.1740   34.1600   50.8690 C   0  0  0  0  0  0  0  0  0  0  0  0
   64.4800   33.8080   51.2370 C   0  0  0  0  0  0  0  0  0  0  0  0
   64.9690   34.1170   52.5150 C   0  0  0  0  0  0  0  0  0  0  0  0
   67.0008   35.4100   55.7277 H   0  0  0  0  0  0  0  0  0  0  0  0
   67.9828   35.6848   54.2489 H   0  0  0  0  0  0  0  0  0  0  0  0
   66.2300   36.0776   54.2489 H   0  0  0  0  0  0  0  0  0  0  0  0
   68.0985   32.7583   52.2594 H   0  0  0  0  0  0  0  0  0  0  0  0
   67.2485   32.2099   49.9837 H   0  0  0  0  0  0  0  0  0  0  0  0
   65.4514   32.2664   48.3255 H   0  0  0  0  0  0  0  0  0  0  0  0
   60.7876   34.9039   47.2403 H   0  0  0  0  0  0  0  0  0  0  0  0
   58.9914   36.0916   45.9680 H   0  0  0  0  0  0  0  0  0  0  0  0
   57.2891   34.7849   44.6629 H   0  0  0  0  0  0  0  0  0  0  0  0
   56.4251   32.3326   43.9535 H   0  0  0  0  0  0  0  0  0  0  0  0
   55.1590   28.6140   45.6420 H   0  0  0  0  0  0  0  0  0  0  0  0
   61.6527   34.0828   49.3294 H   0  0  0  0  0  0  0  0  0  0  0  0
   62.5356   34.7131   51.5737 H   0  0  0  0  0  0  0  0  0  0  0  0
   64.3301   34.6597   53.2273 H   0  0  0  0  0  0  0  0  0  0  0  0
  1  2  1  0
  2  3  1  0
  3  4  2  0
  4  5  1  0
  5  6  2  0
  6  7  1  0
  7  8  2  0
  8  9  1  0
  9 10  2  0
  9 11  2  0
  9 12  1  0
 12 13  1  0
 13 14  2  0
 14 15  1  0
 15 16  2  0
 16 17  1  0
 17 18  1  0
 18 19  2  0
 19 20  1  0
 20 21  1  0
 20 22  2  0
 20 23  2  0
 19 24  1  0
 24 25  1  0
  8 26  1  0
 26 27  2  0
 27 28  1  0
 28 29  2  0
 29  3  1  0
 28  6  1  0
 25 13  1  0
 25 17  2  0
  1 30  1  0
  1 31  1  0
  1 32  1  0
  4 33  1  0
  5 34  1  0
  7 35  1  0
 14 36  1  0
 15 37  1  0
 16 38  1  0
 18 39  1  0
 21 40  1  0
 26 41  1  0
 27 42  1  0
 29 43  1  0
M  CHG  2  12  -1  21  -1
M  END
>  <UniqueID>  (5) 
5

>  <SMILES>  (5) 
COc1ccc2cc(S(=O)(=O)[N-]c3cccc4cc(S([NH-])(=O)=O)sc34)ccc2c1

>  <Energy>  (5) 
86.78471874313634

>  <Genealogy>  (5) 
COc1ccc2cc(S(=O)(=O)[N-]c3cccc4cc(S([NH-])(=O)=O)sc34)ccc2c1 (protonated)
COc1ccc2cc(S(=O)(=O)[N-]c3cccc4cc(S([NH-])(=O)=O)sc34)ccc2c1 (3D coordinates assigned)
COc1ccc2cc(S(=O)(=O)[N-]c3cccc4cc(S([NH-])(=O)=O)sc34)ccc2c1 (optimized conformer: 86.78471874313634 kcal/mol)

>  <smiles>  (5) 
COc1ccc2cc(S(=O)(=O)Nc3cccc4cc(S(N)(=O)=O)sc34)ccc2c1

>  <score_type>  (5) 
oracle

>  <origin>  (5) 
adg

>  <m_score__min__energy>  (5) 
-13.550000000000001

>  <m_primary>  (5) 
energy

$$$$
5:0
     RDKit          3D

 47 49  0  0  0  0  0  0  0  0999 V2000
   61.0700   31.4880   46.8700 C   0  0  0  0  0  0  0  0  0  0  0  0
   60.4800   30.2050   47.3650 C   0  0  0  0  0  0  0  0  0  0  0  0
   60.0850   29.9740   48.6700 C   0  0  0  0  0  0  0  0  0  0  0  0
   59.7200   28.6450   48.7410 C   0  0  0  0  0  0  0  0  0  0  0  0
   59.9140   28.1150   47.4780 C   0  0  0  0  0  0  0  0  0  0  0  0
   59.7410   26.6620   47.1280 C   0  0  0  0  0  0  0  0  0  0  0  0
   58.5690   26.0810   47.8000 N   0  0  0  0  0  0  0  0  0  0  0  0
   57.4860   25.7300   46.8630 C   0  0  0  0  0  0  0  0  0  0  0  0
   57.5210   26.6540   45.6750 C   0  0  0  0  0  0  0  0  0  0  0  0
   58.0580   26.2270   44.4510 C   0  0  0  0  0  0  0  0  0  0  0  0
   58.1440   27.1100   43.3730 C   0  0  0  0  0  0  0  0  0  0  0  0
   57.6840   28.4230   43.5030 C   0  0  0  0  0  0  0  0  0  0  0  0
   57.1350   28.8620   44.7210 C   0  0  0  0  0  0  0  0  0  0  0  0
   56.6110   30.1900   44.8730 N   0  0  0  0  0  0  0  0  0  0  0  0
   57.1580   31.3780   44.2870 C   0  0  0  0  0  0  0  0  0  0  0  0
   57.0420   31.5480   43.0450 O   0  0  0  0  0  0  0  0  0  0  0  0
   57.8010   32.4290   45.1100 C   0  0  0  0  0  0  0  0  0  0  0  0
   58.4020   33.5410   44.4950 C   0  0  0  0  0  0  0  0  0  0  0  0
   59.0010   34.5380   45.2700 C   0  0  0  0  0  0  0  0  0  0  0  0
   58.9950   34.4420   46.6640 C   0  0  0  0  0  0  0  0  0  0  0  0
   59.5740   35.4110   47.4140 F   0  0  0  0  0  0  0  0  0  0  0  0
   58.3850   33.3490   47.2840 C   0  0  0  0  0  0  0  0  0  0  0  0
   57.7910   32.3460   46.5130 C   0  0  0  0  0  0  0  0  0  0  0  0
   57.0440   27.9690   45.7960 C   0  0  0  0  0  0  0  0  0  0  0  0
   60.3550   29.0750   46.6320 N   0  0  0  0  0  0  0  0  0  0  0  0
   60.7550   28.8870   45.2360 C   0  0  0  0  0  0  0  0  0  0  0  0
   61.3579   32.1141   47.7274 H   0  0  0  0  0  0  0  0  0  0  0  0
   61.9589   31.2713   46.2594 H   0  0  0  0  0  0  0  0  0  0  0  0
   60.3269   32.0218   46.2594 H   0  0  0  0  0  0  0  0  0  0  0  0
   60.0655   30.7062   49.4907 H   0  0  0  0  0  0  0  0  0  0  0  0
   59.3477   28.1116   49.6281 H   0  0  0  0  0  0  0  0  0  0  0  0
   59.6111   26.5696   46.0396 H   0  0  0  0  0  0  0  0  0  0  0  0
   60.6360   26.1175   47.4635 H   0  0  0  0  0  0  0  0  0  0  0  0
   58.8890   25.2020   48.2690 H   0  0  0  0  0  0  0  0  0  0  0  0
   57.6192   24.6924   46.5228 H   0  0  0  0  0  0  0  0  0  0  0  0
   56.5168   25.8308   47.3734 H   0  0  0  0  0  0  0  0  0  0  0  0
   58.4129   25.1917   44.3403 H   0  0  0  0  0  0  0  0  0  0  0  0
   58.5748   26.7713   42.4192 H   0  0  0  0  0  0  0  0  0  0  0  0
   57.7515   29.1149   42.6505 H   0  0  0  0  0  0  0  0  0  0  0  0
   58.4009   33.6269   43.3984 H   0  0  0  0  0  0  0  0  0  0  0  0
   59.4783   35.4003   44.7814 H   0  0  0  0  0  0  0  0  0  0  0  0
   58.3721   33.2775   48.3816 H   0  0  0  0  0  0  0  0  0  0  0  0
   57.3131   31.4871   47.0068 H   0  0  0  0  0  0  0  0  0  0  0  0
   56.5948   28.3008   46.7437 H   0  0  0  0  0  0  0  0  0  0  0  0
   61.7500   28.4194   45.1995 H   0  0  0  0  0  0  0  0  0  0  0  0
   60.0257   28.2374   44.7299 H   0  0  0  0  0  0  0  0  0  0  0  0
   60.7898   29.8630   44.7299 H   0  0  0  0  0  0  0  0  0  0  0  0
  1  2  1  0
  2  3  2  0
  3  4  1  0
  4  5  2  0
  5  6  1  0
  6  7  1  0
  7  8  1  0
  8  9  1  0
  9 10  2  0
 10 11  1  0
 11 12  2  0
 12 13  1  0
 13 14  1  0
 14 15  1  0
 15 16  2  0
 15 17  1  0
 17 18  2  0
 18 19  1  0
 19 20  2  0
 20 21  1  0
 20 22  1  0
 22 23  2  0
 13 24  2  0
  5 25  1  0
 25 26  1  0
 25  2  1  0
 24  9  1  0
 23 17  1  0
  1 27  1  0
  1 28  1  0
  1 29  1  0
  3 30  1  0
  4 31  1  0
  6 32  1  0
  6 33  1  0
  7 34  1  0
  8 35  1  0
  8 36  1  0
 10 37  1  0
 11 38  1  0
 12 39  1  0
 18 40  1  0
 19 41  1  0
 22 42  1  0
 23 43  1  0
 24 44  1  0
 26 45  1  0
 26 46  1  0
 26 47  1  0
M  CHG  1  14  -1
M  END
>  <UniqueID>  (6) 
6

>  <SMILES>  (6) 
Cc1ccc(CNCc2cccc([N-]C(=O)c3ccc(F)cc3)c2)n1C

>  <Energy>  (6) 
75.14451429643938

>  <Genealogy>  (6) 
Cc1ccc(CNCc2cccc([N-]C(=O)c3ccc(F)cc3)c2)n1C (protonated)
Cc1ccc(CNCc2cccc([N-]C(=O)c3ccc(F)cc3)c2)n1C (3D coordinates assigned)
Cc1ccc(CNCc2cccc([N-]C(=O)c3ccc(F)cc3)c2)n1C (optimized conformer: 75.14451429643938 kcal/mol)

>  <smiles>  (6) 
Cc1ccc(CNCc2cccc(NC(=O)c3ccc(F)cc3)c2)n1C

>  <score_type>  (6) 
oracle

>  <origin>  (6) 
adg

>  <m_score__min__energy>  (6) 
-10.390000000000001

>  <m_primary>  (6) 
energy

$$$$
6:0
     RDKit          3D

 55 57  0  0  0  0  0  0  0  0999 V2000
   63.2040   33.8460   46.5070 C   0  0  0  0  0  0  0  0  0  0  0  0
   63.6680   32.9160   47.5530 N   0  0  0  0  0  0  0  0  0  0  0  0
   63.3700   33.4760   48.8810 C   0  0  0  0  0  0  0  0  0  0  0  0
   63.0440   31.5840   47.4010 C   0  0  0  0  0  0  0  0  0  0  0  0
   62.0640   31.3020   48.5480 C   0  0  0  0  0  0  0  0  0  0  0  0
   60.6960   31.0760   48.0610 N   0  0  0  0  0  0  0  0  0  0  0  0
   60.4940   30.8930   46.6110 C   0  0  0  0  0  0  0  0  0  0  0  0
   59.3850   29.9050   46.2840 C   0  0  0  0  0  0  0  0  0  0  0  0
   59.2880   28.7310   47.0530 C   0  0  0  0  0  0  0  0  0  0  0  0
   58.3190   27.7680   46.7740 C   0  0  0  0  0  0  0  0  0  0  0  0
   57.4270   27.9530   45.7220 C   0  0  0  0  0  0  0  0  0  0  0  0
   57.4930   29.1100   44.9340 C   0  0  0  0  0  0  0  0  0  0  0  0
   56.6000   29.2810   43.8640 C   0  0  0  0  0  0  0  0  0  0  0  0
   56.6690   30.4250   43.0660 C   0  0  0  0  0  0  0  0  0  0  0  0
   57.6180   31.4110   43.3350 C   0  0  0  0  0  0  0  0  0  0  0  0
   58.5060   31.2600   44.4030 C   0  0  0  0  0  0  0  0  0  0  0  0
   58.4710   30.1050   45.2130 C   0  0  0  0  0  0  0  0  0  0  0  0
   59.6000   31.4170   48.9300 C   0  0  0  0  0  0  0  0  0  0  0  0
   58.7880   30.5240   49.2880 O   0  0  0  0  0  0  0  0  0  0  0  0
   59.4090   32.8300   49.4070 C   0  0  0  0  0  0  0  0  0  0  0  0
   60.0050   33.8550   48.4320 C   0  0  0  0  0  0  0  0  0  0  0  0
   59.1870   33.9700   47.1690 C   0  0  0  0  0  0  0  0  0  0  0  0
   59.7100   34.6340   46.0470 C   0  0  0  0  0  0  0  0  0  0  0  0
   58.9270   34.8060   44.9040 C   0  0  0  0  0  0  0  0  0  0  0  0
   57.6180   34.3110   44.8680 C   0  0  0  0  0  0  0  0  0  0  0  0
   57.0940   33.6430   45.9770 C   0  0  0  0  0  0  0  0  0  0  0  0
   57.8720   33.4740   47.1260 C   0  0  0  0  0  0  0  0  0  0  0  0
   62.7602   34.7355   46.9779 H   0  0  0  0  0  0  0  0  0  0  0  0
   64.0565   34.1491   45.8814 H   0  0  0  0  0  0  0  0  0  0  0  0
   62.4492   33.3471   45.8814 H   0  0  0  0  0  0  0  0  0  0  0  0
   63.7354   32.7894   49.6589 H   0  0  0  0  0  0  0  0  0  0  0  0
   63.8688   34.4505   48.9884 H   0  0  0  0  0  0  0  0  0  0  0  0
   62.2831   33.6067   48.9884 H   0  0  0  0  0  0  0  0  0  0  0  0
   62.4997   31.5486   46.4458 H   0  0  0  0  0  0  0  0  0  0  0  0
   63.8363   30.8213   47.4213 H   0  0  0  0  0  0  0  0  0  0  0  0
   62.4004   30.4060   49.0902 H   0  0  0  0  0  0  0  0  0  0  0  0
   62.0489   32.1833   49.2060 H   0  0  0  0  0  0  0  0  0  0  0  0
   60.2378   31.8665   46.1675 H   0  0  0  0  0  0  0  0  0  0  0  0
   61.4287   30.4859   46.1980 H   0  0  0  0  0  0  0  0  0  0  0  0
   59.9871   28.5703   47.8869 H   0  0  0  0  0  0  0  0  0  0  0  0
   58.2593   26.8576   47.3885 H   0  0  0  0  0  0  0  0  0  0  0  0
   56.6666   27.1875   45.5080 H   0  0  0  0  0  0  0  0  0  0  0  0
   55.8432   28.5110   43.6535 H   0  0  0  0  0  0  0  0  0  0  0  0
   55.9731   30.5487   42.2231 H   0  0  0  0  0  0  0  0  0  0  0  0
   57.6675   32.3107   42.7041 H   0  0  0  0  0  0  0  0  0  0  0  0
   59.2409   32.0506   44.6149 H   0  0  0  0  0  0  0  0  0  0  0  0
   58.3318   33.0260   49.5127 H   0  0  0  0  0  0  0  0  0  0  0  0
   59.9307   32.9356   50.3697 H   0  0  0  0  0  0  0  0  0  0  0  0
   60.0383   34.8377   48.9251 H   0  0  0  0  0  0  0  0  0  0  0  0
   61.0144   33.5165   48.1555 H   0  0  0  0  0  0  0  0  0  0  0  0
   60.7399   35.0197   46.0691 H   0  0  0  0  0  0  0  0  0  0  0  0
   59.3394   35.3315   44.0300 H   0  0  0  0  0  0  0  0  0  0  0  0
   57.0024   34.4481   43.9667 H   0  0  0  0  0  0  0  0  0  0  0  0
   56.0674   33.2492   45.9462 H   0  0  0  0  0  0  0  0  0  0  0  0
   57.4542   32.9514   47.9991 H   0  0  0  0  0  0  0  0  0  0  0  0
  1  2  1  0
  2  3  1  0
  2  4  1  0
  4  5  1  0
  5  6  1  0
  6  7  1  0
  7  8  1  0
  8  9  2  0
  9 10  1  0
 10 11  2  0
 11 12  1  0
 12 13  2  0
 13 14  1  0
 14 15  2  0
 15 16  1  0
 16 17  2  0
  6 18  1  0
 18 19  2  0
 18 20  1  0
 20 21  1  0
 21 22  1  0
 22 23  2  0
 23 24  1  0
 24 25  2  0
 25 26  1  0
 26 27  2  0
 17  8  1  0
 27 22  1  0
 17 12  1  0
  1 28  1  0
  1 29  1  0
  1 30  1  0
  3 31  1  0
  3 32  1  0
  3 33  1  0
  4 34  1  0
  4 35  1  0
  5 36  1  0
  5 37  1  0
  7 38  1  0
  7 39  1  0
  9 40  1  0
 10 41  1  0
 11 42  1  0
 13 43  1  0
 14 44  1  0
 15 45  1  0
 16 46  1  0
 20 47  1  0
 20 48  1  0
 21 49  1  0
 21 50  1  0
 23 51  1  0
 24 52  1  0
 25 53  1  0
 26 54  1  0
 27 55  1  0
M  END
>  <UniqueID>  (7) 
7

>  <SMILES>  (7) 
CN(C)CCN(Cc1cccc2ccccc12)C(=O)CCc1ccccc1

>  <Energy>  (7) 
58.64118717304707

>  <Genealogy>  (7) 
CN(C)CCN(Cc1cccc2ccccc12)C(=O)CCc1ccccc1 (3D coordinates assigned)
CN(C)CCN(Cc1cccc2ccccc12)C(=O)CCc1ccccc1 (optimized conformer: 58.64118717304707 kcal/mol)

>  <smiles>  (7) 
CN(C)CCN(Cc1cccc2ccccc12)C(=O)CCc1ccccc1

>  <score_type>  (7) 
oracle

>  <origin>  (7) 
adg

>  <m_score__min__energy>  (7) 
-8.1400000000000006

>  <m_primary>  (7) 
energy

$$$$
7:0
     RDKit          3D

 49 52  0  0  0  0  0  0  0  0999 V2000
   65.4250   32.7220   49.7760 C   0  0  0  0  0  0  0  0  0  0  0  0
   64.1090   31.9800   50.0580 C   0  0  0  0  0  0  0  0  0  0  0  0
   62.9630   32.4570   49.2530 N   0  0  0  0  0  0  0  0  0  0  0  0
   63.2470   32.5470   47.8130 C   0  0  0  0  0  0  0  0  0  0  0  0
   61.9240   32.6630   47.0580 C   0  0  0  0  0  0  0  0  0  0  0  0
   61.0550   33.6810   47.6700 N   0  0  0  0  0  0  0  0  0  0  0  0
   59.8310   34.0600   47.0070 C   0  0  0  0  0  0  0  0  0  0  0  0
   59.4270   35.2540   47.0740 O   0  0  0  0  0  0  0  0  0  0  0  0
   59.0190   33.0680   46.2650 C   0  0  0  0  0  0  0  0  0  0  0  0
   58.7380   33.3040   44.9100 C   0  0  0  0  0  0  0  0  0  0  0  0
   58.0550   32.3480   44.1520 C   0  0  0  0  0  0  0  0  0  0  0  0
   57.7630   32.5660   42.7960 C   0  0  0  0  0  0  0  0  0  0  0  0
   57.0870   31.5860   42.0620 C   0  0  0  0  0  0  0  0  0  0  0  0
   56.7030   30.3890   42.6730 C   0  0  0  0  0  0  0  0  0  0  0  0
   56.9930   30.1640   44.0240 C   0  0  0  0  0  0  0  0  0  0  0  0
   57.6690   31.1400   44.7650 C   0  0  0  0  0  0  0  0  0  0  0  0
   57.9520   30.9250   46.0760 N   0  0  0  0  0  0  0  0  0  0  0  0
   58.6020   31.8430   46.8450 C   0  0  0  0  0  0  0  0  0  0  0  0
   58.8260   31.5160   48.2710 C   0  0  0  0  0  0  0  0  0  0  0  0
   59.4770   30.3210   48.6190 C   0  0  0  0  0  0  0  0  0  0  0  0
   59.6740   29.9880   49.9630 C   0  0  0  0  0  0  0  0  0  0  0  0
   59.2110   30.8390   50.9700 C   0  0  0  0  0  0  0  0  0  0  0  0
   58.5430   32.0210   50.6350 C   0  0  0  0  0  0  0  0  0  0  0  0
   58.3440   32.3550   49.2920 C   0  0  0  0  0  0  0  0  0  0  0  0
   61.5730   34.5150   48.7630 C   0  0  0  0  0  0  0  0  0  0  0  0
   62.3200   33.6690   49.8150 C   0  0  0  0  0  0  0  0  0  0  0  0
   65.9047   32.9925   50.7282 H   0  0  0  0  0  0  0  0  0  0  0  0
   66.0972   32.0699   49.1990 H   0  0  0  0  0  0  0  0  0  0  0  0
   65.2150   33.6347   49.1990 H   0  0  0  0  0  0  0  0  0  0  0  0
   64.2615   30.9120   49.8432 H   0  0  0  0  0  0  0  0  0  0  0  0
   63.8573   32.1692   51.1120 H   0  0  0  0  0  0  0  0  0  0  0  0
   63.8662   33.4338   47.6128 H   0  0  0  0  0  0  0  0  0  0  0  0
   63.7896   31.6493   47.4817 H   0  0  0  0  0  0  0  0  0  0  0  0
   62.1288   32.9450   46.0147 H   0  0  0  0  0  0  0  0  0  0  0  0
   61.4097   31.6916   47.1008 H   0  0  0  0  0  0  0  0  0  0  0  0
   59.0571   34.2468   44.4417 H   0  0  0  0  0  0  0  0  0  0  0  0
   58.0655   33.5062   42.3117 H   0  0  0  0  0  0  0  0  0  0  0  0
   56.8568   31.7579   41.0002 H   0  0  0  0  0  0  0  0  0  0  0  0
   56.1716   29.6218   42.0908 H   0  0  0  0  0  0  0  0  0  0  0  0
   56.6899   29.2211   44.5026 H   0  0  0  0  0  0  0  0  0  0  0  0
   59.8340   29.6430   47.8298 H   0  0  0  0  0  0  0  0  0  0  0  0
   60.1939   29.0554   50.2276 H   0  0  0  0  0  0  0  0  0  0  0  0
   59.3720   30.5790   52.0266 H   0  0  0  0  0  0  0  0  0  0  0  0
   58.1741   32.6880   51.4281 H   0  0  0  0  0  0  0  0  0  0  0  0
   57.8073   33.2794   49.0323 H   0  0  0  0  0  0  0  0  0  0  0  0
   62.2662   35.2604   48.3461 H   0  0  0  0  0  0  0  0  0  0  0  0
   60.7209   35.0053   49.2564 H   0  0  0  0  0  0  0  0  0  0  0  0
   63.0991   34.2946   50.2751 H   0  0  0  0  0  0  0  0  0  0  0  0
   61.5719   33.3283   50.5459 H   0  0  0  0  0  0  0  0  0  0  0  0
  1  2  1  0
  2  3  1  0
  3  4  1  0
  4  5  1  0
  5  6  1  0
  6  7  1  0
  7  8  2  0
  7  9  1  0
  9 10  2  0
 10 11  1  0
 11 12  2  0
 12 13  1  0
 13 14  2  0
 14 15  1  0
 15 16  2  0
 16 17  1  0
 17 18  2  0
 18 19  1  0
 19 20  2  0
 20 21  1  0
 21 22  2  0
 22 23  1  0
 23 24  2  0
  6 25  1  0
 25 26  1  0
 26  3  1  0
 18  9  1  0
 24 19  1  0
 16 11  1  0
  1 27  1  0
  1 28  1  0
  1 29  1  0
  2 30  1  0
  2 31  1  0
  4 32  1  0
  4 33  1  0
  5 34  1  0
  5 35  1  0
 10 36  1  0
 12 37  1  0
 13 38  1  0
 14 39  1  0
 15 40  1  0
 20 41  1  0
 21 42  1  0
 22 43  1  0
 23 44  1  0
 24 45  1  0
 25 46  1  0
 25 47  1  0
 26 48  1  0
 26 49  1  0
M  END
>  <UniqueID>  (8) 
8

>  <SMILES>  (8) 
CCN1CCN(C(=O)c2cc3ccccc3nc2-c2ccccc2)CC1

>  <Energy>  (8) 
73.86753454058517

>  <Genealogy>  (8) 
CCN1CCN(C(=O)c2cc3ccccc3nc2-c2ccccc2)CC1 (3D coordinates assigned)
CCN1CCN(C(=O)c2cc3ccccc3nc2-c2ccccc2)CC1 (nonaromatic ring conformer: 73.86753454058517 kcal/mol)

>  <smiles>  (8) 
CCN1CCN(C(=O)c2cc3ccccc3nc2-c2ccccc2)CC1

>  <score_type>  (8) 
oracle

>  <origin>  (8) 
adg

>  <m_score__min__energy>  (8) 
-8.2300000000000004

>  <m_primary>  (8) 
energy

$$$$
8:0
     RDKit          3D

 32 33  0  0  0  0  0  0  0  0999 V2000
   63.8350   33.4380   48.0570 C   0  0  0  0  0  0  0  0  0  0  0  0
   63.0120   33.4750   46.7650 C   0  0  0  0  0  0  0  0  0  0  0  0
   61.7150   32.7850   46.9120 N   0  0  0  0  0  0  0  0  0  0  0  0
   61.8560   31.3710   47.3290 C   0  0  0  0  0  0  0  0  0  0  0  0
   60.5160   30.7310   47.7420 C   0  0  0  0  0  0  0  0  0  0  0  0
   59.5230   30.6940   46.6030 C   0  0  0  0  0  0  0  0  0  0  0  0
   59.2480   29.4740   45.9670 C   0  0  0  0  0  0  0  0  0  0  0  0
   58.3660   29.4160   44.8890 C   0  0  0  0  0  0  0  0  0  0  0  0
   57.7400   30.5740   44.4180 C   0  0  0  0  0  0  0  0  0  0  0  0
   56.6420   30.4220   43.0490 Cl  0  0  0  0  0  0  0  0  0  0  0  0
   58.0030   31.8140   45.0400 C   0  0  0  0  0  0  0  0  0  0  0  0
   57.4050   33.0100   44.6010 C   0  0  0  0  0  0  0  0  0  0  0  0
   57.6960   34.2140   45.2410 C   0  0  0  0  0  0  0  0  0  0  0  0
   58.5830   34.2240   46.3160 C   0  0  0  0  0  0  0  0  0  0  0  0
   59.1570   33.0680   46.7350 N   0  0  0  0  0  0  0  0  0  0  0  0
   58.8990   31.8700   46.1380 C   0  0  0  0  0  0  0  0  0  0  0  0
   63.1584   33.4684   48.9237 H   0  0  0  0  0  0  0  0  0  0  0  0
   64.4284   32.5123   48.0874 H   0  0  0  0  0  0  0  0  0  0  0  0
   64.5091   34.3067   48.0874 H   0  0  0  0  0  0  0  0  0  0  0  0
   62.8264   34.5245   46.4927 H   0  0  0  0  0  0  0  0  0  0  0  0
   63.5854   32.9550   45.9835 H   0  0  0  0  0  0  0  0  0  0  0  0
   61.1310   33.3120   47.6010 H   0  0  0  0  0  0  0  0  0  0  0  0
   61.1980   32.8240   46.0020 H   0  0  0  0  0  0  0  0  0  0  0  0
   62.2748   30.7974   46.4890 H   0  0  0  0  0  0  0  0  0  0  0  0
   62.5165   31.3505   48.2084 H   0  0  0  0  0  0  0  0  0  0  0  0
   60.7050   29.7015   48.0802 H   0  0  0  0  0  0  0  0  0  0  0  0
   60.0834   31.3448   48.5459 H   0  0  0  0  0  0  0  0  0  0  0  0
   59.7336   28.5534   46.3228 H   0  0  0  0  0  0  0  0  0  0  0  0
   58.1606   28.4501   44.4044 H   0  0  0  0  0  0  0  0  0  0  0  0
   56.7066   32.9948   43.7513 H   0  0  0  0  0  0  0  0  0  0  0  0
   57.2287   35.1496   44.8998 H   0  0  0  0  0  0  0  0  0  0  0  0
   58.8181   35.1702   46.8254 H   0  0  0  0  0  0  0  0  0  0  0  0
  1  2  1  0
  2  3  1  0
  3  4  1  0
  4  5  1  0
  5  6  1  0
  6  7  2  0
  7  8  1  0
  8  9  2  0
  9 10  1  0
  9 11  1  0
 11 12  2  0
 12 13  1  0
 13 14  2  0
 14 15  1  0
 15 16  2  0
 16  6  1  0
 16 11  1  0
  1 17  1  0
  1 18  1  0
  1 19  1  0
  2 20  1  0
  2 21  1  0
  3 22  1  0
  3 23  1  0
  4 24  1  0
  4 25  1  0
  5 26  1  0
  5 27  1  0
  7 28  1  0
  8 29  1  0
 12 30  1  0
 13 31  1  0
 14 32  1  0
M  CHG  1   3   1
M  END
>  <UniqueID>  (9) 
9

>  <SMILES>  (9) 
CC[NH2+]CCc1ccc(Cl)c2cccnc12

>  <Energy>  (9) 
35.65064381500454

>  <Genealogy>  (9) 
CC[NH2+]CCc1ccc(Cl)c2cccnc12 (protonated)
CC[NH2+]CCc1ccc(Cl)c2cccnc12 (3D coordinates assigned)
CC[NH2+]CCc1ccc(Cl)c2cccnc12 (optimized conformer: 35.65064381500454 kcal/mol)

>  <smiles>  (9) 
CCNCCc1ccc(Cl)c2cccnc12

>  <score_type>  (9) 
oracle

>  <origin>  (9) 
adg

>  <m_score__min__energy>  (9) 
-4.2800000000000002

>  <m_primary>  (9) 
energy

$$$$
9:0
     RDKit          3D

 40 42  0  0  0  0  0  0  0  0999 V2000
   57.0280   28.4040   45.6140 C   0  0  0  0  0  0  0  0  0  0  0  0
   56.3250   29.5760   45.2140 O   0  0  0  0  0  0  0  0  0  0  0  0
   56.7810   30.4900   44.2500 C   0  0  0  0  0  0  0  0  0  0  0  0
   56.5630   30.2870   42.8720 C   0  0  0  0  0  0  0  0  0  0  0  0
   57.0310   31.2140   41.9390 C   0  0  0  0  0  0  0  0  0  0  0  0
   57.7270   32.3450   42.3650 C   0  0  0  0  0  0  0  0  0  0  0  0
   57.9510   32.5580   43.7260 C   0  0  0  0  0  0  0  0  0  0  0  0
   57.4690   31.6430   44.6800 C   0  0  0  0  0  0  0  0  0  0  0  0
   57.7230   31.8400   46.0820 N   0  0  0  0  0  0  0  0  0  0  0  0
   58.1240   33.0950   46.6530 C   0  0  0  0  0  0  0  0  0  0  0  0
   58.0020   34.1650   46.0000 O   0  0  0  0  0  0  0  0  0  0  0  0
   58.6610   33.1430   48.0520 C   0  0  0  0  0  0  0  0  0  0  0  0
   59.9140   32.3830   48.1390 N   0  0  0  0  0  0  0  0  0  0  0  0
   60.1320   31.2470   48.8590 C   0  0  0  0  0  0  0  0  0  0  0  0
   59.1100   30.5690   49.7250 C   0  0  0  0  0  0  0  0  0  0  0  0
   58.5050   29.5340   49.0330 F   0  0  0  0  0  0  0  0  0  0  0  0
   59.7280   30.0600   50.8510 F   0  0  0  0  0  0  0  0  0  0  0  0
   61.4710   30.8700   48.7910 C   0  0  0  0  0  0  0  0  0  0  0  0
   62.0740   31.8140   47.9910 C   0  0  0  0  0  0  0  0  0  0  0  0
   63.4050   31.9400   47.6040 C   0  0  0  0  0  0  0  0  0  0  0  0
   63.7540   33.0370   46.7980 C   0  0  0  0  0  0  0  0  0  0  0  0
   62.7750   33.9750   46.4080 C   0  0  0  0  0  0  0  0  0  0  0  0
   61.4380   33.8250   46.8170 C   0  0  0  0  0  0  0  0  0  0  0  0
   61.1140   32.7190   47.6140 C   0  0  0  0  0  0  0  0  0  0  0  0
   57.0592   28.3520   46.7123 H   0  0  0  0  0  0  0  0  0  0  0  0
   56.5137   27.5153   45.2193 H   0  0  0  0  0  0  0  0  0  0  0  0
   58.0542   28.4393   45.2193 H   0  0  0  0  0  0  0  0  0  0  0  0
   56.0210   29.3930   42.5300 H   0  0  0  0  0  0  0  0  0  0  0  0
   56.8505   31.0521   40.8661 H   0  0  0  0  0  0  0  0  0  0  0  0
   58.1001   33.0704   41.6270 H   0  0  0  0  0  0  0  0  0  0  0  0
   58.5083   33.4474   44.0551 H   0  0  0  0  0  0  0  0  0  0  0  0
   57.5580   31.0400   46.7330 H   0  0  0  0  0  0  0  0  0  0  0  0
   58.8502   34.1895   48.3331 H   0  0  0  0  0  0  0  0  0  0  0  0
   57.9228   32.6987   48.7359 H   0  0  0  0  0  0  0  0  0  0  0  0
   58.3452   31.3046   50.0147 H   0  0  0  0  0  0  0  0  0  0  0  0
   61.9455   30.0029   49.2736 H   0  0  0  0  0  0  0  0  0  0  0  0
   64.1597   31.2043   47.9190 H   0  0  0  0  0  0  0  0  0  0  0  0
   64.7960   33.1650   46.4695 H   0  0  0  0  0  0  0  0  0  0  0  0
   63.0600   34.8310   45.7786 H   0  0  0  0  0  0  0  0  0  0  0  0
   60.6696   34.5540   46.5202 H   0  0  0  0  0  0  0  0  0  0  0  0
  1  2  1  0
  2  3  1  0
  3  4  2  0
  4  5  1  0
  5  6  2  0
  6  7  1  0
  7  8  2  0
  8  9  1  0
  9 10  1  0
 10 11  2  0
 10 12  1  0
 12 13  1  0
 13 14  1  0
 14 15  1  0
 15 16  1  0
 15 17  1  0
 14 18  2  0
 18 19  1  0
 19 20  2  0
 20 21  1  0
 21 22  2  0
 22 23  1  0
 23 24  2  0
  8  3  1  0
 24 13  1  0
 24 19  1  0
  1 25  1  0
  1 26  1  0
  1 27  1  0
  4 28  1  0
  5 29  1  0
  6 30  1  0
  7 31  1  0
  9 32  1  0
 12 33  1  0
 12 34  1  0
 15 35  1  0
 18 36  1  0
 20 37  1  0
 21 38  1  0
 22 39  1  0
 23 40  1  0
M  END
>  <UniqueID>  (10) 
10

>  <SMILES>  (10) 
COc1ccccc1NC(=O)Cn1c(C(F)F)cc2ccccc21

>  <Energy>  (10) 
76.51781057773277

>  <Genealogy>  (10) 
COc1ccccc1NC(=O)Cn1c(C(F)F)cc2ccccc21 (3D coordinates assigned)
COc1ccccc1NC(=O)Cn1c(C(F)F)cc2ccccc21 (optimized conformer: 76.51781057773277 kcal/mol)

>  <smiles>  (10) 
COc1ccccc1NC(=O)Cn1c(C(F)F)cc2ccccc21

>  <score_type>  (10) 
oracle

>  <origin>  (10) 
adg

>  <m_score__min__energy>  (10) 
-7.3899999999999997

>  <m_primary>  (10) 
energy

$$$$
10:0
     RDKit          3D

 31 33  0  0  0  0  0  0  0  0999 V2000
   56.2650   29.8000   43.1580 C   0  0  0  0  0  0  0  0  0  0  0  0
   56.2850   30.2570   44.5080 O   0  0  0  0  0  0  0  0  0  0  0  0
   57.4510   30.5230   45.2400 C   0  0  0  0  0  0  0  0  0  0  0  0
   58.1130   29.4470   45.8370 C   0  0  0  0  0  0  0  0  0  0  0  0
   59.2760   29.6520   46.5780 C   0  0  0  0  0  0  0  0  0  0  0  0
   59.7960   30.9400   46.7320 C   0  0  0  0  0  0  0  0  0  0  0  0
   60.9290   31.1160   47.4560 N   0  0  0  0  0  0  0  0  0  0  0  0
   61.4950   32.3350   47.6490 C   0  0  0  0  0  0  0  0  0  0  0  0
   62.7380   32.4270   48.4590 C   0  0  0  0  0  0  0  0  0  0  0  0
   62.9870   31.5850   49.5590 C   0  0  0  0  0  0  0  0  0  0  0  0
   64.2050   31.8160   50.1820 C   0  0  0  0  0  0  0  0  0  0  0  0
   64.9790   33.0620   49.3680 S   0  0  0  0  0  0  0  0  0  0  0  0
   63.7820   33.3260   48.2190 C   0  0  0  0  0  0  0  0  0  0  0  0
   60.8850   33.4680   47.0870 C   0  0  0  0  0  0  0  0  0  0  0  0
   59.7070   33.3440   46.3230 C   0  0  0  0  0  0  0  0  0  0  0  0
   59.0680   34.5870   45.7250 C   0  0  0  0  0  0  0  0  0  0  0  0
   57.7140   34.5940   46.0020 F   0  0  0  0  0  0  0  0  0  0  0  0
   59.2590   34.5950   44.3550 F   0  0  0  0  0  0  0  0  0  0  0  0
   59.6160   35.7500   46.2370 F   0  0  0  0  0  0  0  0  0  0  0  0
   59.1470   32.0510   46.1400 C   0  0  0  0  0  0  0  0  0  0  0  0
   57.9690   31.8240   45.3920 C   0  0  0  0  0  0  0  0  0  0  0  0
   56.2169   28.7011   43.1436 H   0  0  0  0  0  0  0  0  0  0  0  0
   55.3840   30.2124   42.6443 H   0  0  0  0  0  0  0  0  0  0  0  0
   57.1786   30.1338   42.6443 H   0  0  0  0  0  0  0  0  0  0  0  0
   57.7129   28.4289   45.7213 H   0  0  0  0  0  0  0  0  0  0  0  0
   59.7866   28.7961   47.0435 H   0  0  0  0  0  0  0  0  0  0  0  0
   62.2792   30.8128   49.8948 H   0  0  0  0  0  0  0  0  0  0  0  0
   64.5952   31.2761   51.0573 H   0  0  0  0  0  0  0  0  0  0  0  0
   63.8140   34.0770   47.4159 H   0  0  0  0  0  0  0  0  0  0  0  0
   61.3305   34.4614   47.2444 H   0  0  0  0  0  0  0  0  0  0  0  0
   57.4508   32.6735   44.9231 H   0  0  0  0  0  0  0  0  0  0  0  0
  1  2  1  0
  2  3  1  0
  3  4  2  0
  4  5  1  0
  5  6  2  0
  6  7  1  0
  7  8  2  0
  8  9  1  0
  9 10  1  0
 10 11  2  0
 11 12  1  0
 12 13  1  0
  8 14  1  0
 14 15  2  0
 15 16  1  0
 16 17  1  0
 16 18  1  0
 16 19  1  0
 15 20  1  0
 20 21  2  0
 21  3  1  0
 20  6  1  0
 13  9  2  0
  1 22  1  0
  1 23  1  0
  1 24  1  0
  4 25  1  0
  5 26  1  0
 10 27  1  0
 11 28  1  0
 13 29  1  0
 14 30  1  0
 21 31  1  0
M  END
>  <UniqueID>  (11) 
11

>  <SMILES>  (11) 
COc1ccc2nc(-c3ccsc3)cc(C(F)(F)F)c2c1

>  <Energy>  (11) 
67.59901071874422

>  <Genealogy>  (11) 
COc1ccc2nc(-c3ccsc3)cc(C(F)(F)F)c2c1 (3D coordinates assigned)
COc1ccc2nc(-c3ccsc3)cc(C(F)(F)F)c2c1 (optimized conformer: 67.59901071874422 kcal/mol)

>  <smiles>  (11) 
COc1ccc2nc(-c3ccsc3)cc(C(F)(F)F)c2c1

>  <score_type>  (11) 
oracle

>  <origin>  (11) 
adg

>  <m_score__min__energy>  (11) 
-6.4000000000000004

>  <m_primary>  (11) 
energy

$$$$
11:0
     RDKit          3D

 51 54  0  0  0  0  0  0  0  0999 V2000
   60.7320   27.0250   46.0040 C   0  0  0  0  0  0  0  0  0  0  0  0
   60.5080   28.2610   45.1370 C   0  0  0  0  0  0  0  0  0  0  0  0
   59.2610   28.0960   44.2550 C   0  0  0  0  0  0  0  0  0  0  0  0
   58.2660   27.0720   44.8260 C   0  0  0  0  0  0  0  0  0  0  0  0
   57.2970   27.6550   45.8720 C   0  0  0  0  0  0  0  0  0  0  0  0
   57.8540   28.8610   46.5220 N   0  0  0  0  0  0  0  0  0  0  0  0
   57.6630   30.0940   45.9390 C   0  0  0  0  0  0  0  0  0  0  0  0
   57.0070   30.2140   44.8680 O   0  0  0  0  0  0  0  0  0  0  0  0
   58.2040   31.2110   46.5620 C   0  0  0  0  0  0  0  0  0  0  0  0
   58.9210   31.0770   47.7030 C   0  0  0  0  0  0  0  0  0  0  0  0
   59.4050   32.2670   48.1060 N   0  0  0  0  0  0  0  0  0  0  0  0
   58.9360   33.1160   47.1580 C   0  0  0  0  0  0  0  0  0  0  0  0
   58.1910   32.5070   46.1980 N   0  0  0  0  0  0  0  0  0  0  0  0
   57.7370   33.0670   44.9180 C   0  0  0  0  0  0  0  0  0  0  0  0
   57.8970   34.5920   44.8470 C   0  0  0  0  0  0  0  0  0  0  0  0
   59.2530   35.0460   45.3880 C   0  0  0  0  0  0  0  0  0  0  0  0
   59.2680   34.8770   47.1990 S   0  0  0  0  0  0  0  0  0  0  0  0
   59.1290   29.8700   48.2960 N   0  0  0  0  0  0  0  0  0  0  0  0
   59.8860   29.7740   49.5570 C   0  0  0  0  0  0  0  0  0  0  0  0
   59.2730   30.6670   50.6040 C   0  0  0  0  0  0  0  0  0  0  0  0
   57.9560   30.4490   51.0420 C   0  0  0  0  0  0  0  0  0  0  0  0
   57.3790   31.3010   51.9890 C   0  0  0  0  0  0  0  0  0  0  0  0
   58.1080   32.3780   52.4990 C   0  0  0  0  0  0  0  0  0  0  0  0
   59.4160   32.6050   52.0640 C   0  0  0  0  0  0  0  0  0  0  0  0
   59.9970   31.7550   51.1180 C   0  0  0  0  0  0  0  0  0  0  0  0
   58.5780   28.7540   47.7010 C   0  0  0  0  0  0  0  0  0  0  0  0
   58.7400   27.6220   48.2370 O   0  0  0  0  0  0  0  0  0  0  0  0
   60.6808   27.3077   47.0658 H   0  0  0  0  0  0  0  0  0  0  0  0
   59.9546   26.2781   45.7855 H   0  0  0  0  0  0  0  0  0  0  0  0
   61.7221   26.5984   45.7855 H   0  0  0  0  0  0  0  0  0  0  0  0
   60.3748   29.1377   45.7879 H   0  0  0  0  0  0  0  0  0  0  0  0
   61.3835   28.3949   44.4847 H   0  0  0  0  0  0  0  0  0  0  0  0
   58.7562   29.0698   44.1723 H   0  0  0  0  0  0  0  0  0  0  0  0
   59.5929   27.7273   43.2732 H   0  0  0  0  0  0  0  0  0  0  0  0
   57.6727   26.6652   43.9938 H   0  0  0  0  0  0  0  0  0  0  0  0
   58.8612   26.3018   45.3384 H   0  0  0  0  0  0  0  0  0  0  0  0
   56.3534   27.9223   45.3738 H   0  0  0  0  0  0  0  0  0  0  0  0
   57.1313   26.8931   46.6479 H   0  0  0  0  0  0  0  0  0  0  0  0
   58.3259   32.6135   44.1071 H   0  0  0  0  0  0  0  0  0  0  0  0
   56.6651   32.8410   44.8187 H   0  0  0  0  0  0  0  0  0  0  0  0
   57.8071   34.9111   43.7981 H   0  0  0  0  0  0  0  0  0  0  0  0
   57.1112   35.0477   45.4674 H   0  0  0  0  0  0  0  0  0  0  0  0
   60.0486   34.4222   44.9546 H   0  0  0  0  0  0  0  0  0  0  0  0
   59.4238   36.0980   45.1156 H   0  0  0  0  0  0  0  0  0  0  0  0
   59.8685   28.7331   49.9124 H   0  0  0  0  0  0  0  0  0  0  0  0
   60.9231   30.0933   49.3770 H   0  0  0  0  0  0  0  0  0  0  0  0
   57.3768   29.6053   50.6387 H   0  0  0  0  0  0  0  0  0  0  0  0
   56.3494   31.1228   52.3329 H   0  0  0  0  0  0  0  0  0  0  0  0
   57.6520   33.0475   53.2433 H   0  0  0  0  0  0  0  0  0  0  0  0
   59.9894   33.4533   52.4661 H   0  0  0  0  0  0  0  0  0  0  0  0
   61.0257   31.9393   50.7749 H   0  0  0  0  0  0  0  0  0  0  0  0
  1  2  1  0
  2  3  1  0
  3  4  1  0
  4  5  1  0
  5  6  1  0
  6  7  1  0
  7  8  2  0
  7  9  1  0
  9 10  2  0
 10 11  1  0
 11 12  2  0
 12 13  1  0
 13 14  1  0
 14 15  1  0
 15 16  1  0
 16 17  1  0
 10 18  1  0
 18 19  1  0
 19 20  1  0
 20 21  2  0
 21 22  1  0
 22 23  2  0
 23 24  1  0
 24 25  2  0
 18 26  1  0
 26 27  2  0
 26  6  1  0
 13  9  1  0
 25 20  1  0
 17 12  1  0
  1 28  1  0
  1 29  1  0
  1 30  1  0
  2 31  1  0
  2 32  1  0
  3 33  1  0
  3 34  1  0
  4 35  1  0
  4 36  1  0
  5 37  1  0
  5 38  1  0
 14 39  1  0
 14 40  1  0
 15 41  1  0
 15 42  1  0
 16 43  1  0
 16 44  1  0
 19 45  1  0
 19 46  1  0
 21 47  1  0
 22 48  1  0
 23 49  1  0
 24 50  1  0
 25 51  1  0
M  END
>  <UniqueID>  (12) 
12

>  <SMILES>  (12) 
CCCCCn1c(=O)c2c(nc3n2CCCS3)n(Cc2ccccc2)c1=O

>  <Energy>  (12) 
95.1196190493082

>  <Genealogy>  (12) 
CCCCCn1c(=O)c2c(nc3n2CCCS3)n(Cc2ccccc2)c1=O (3D coordinates assigned)
CCCCCn1c(=O)c2c(nc3n2CCCS3)n(Cc2ccccc2)c1=O (nonaromatic ring conformer: 95.1196190493082 kcal/mol)

>  <smiles>  (12) 
CCCCCn1c(=O)c2c(nc3n2CCCS3)n(Cc2ccccc2)c1=O

>  <score_type>  (12) 
oracle

>  <origin>  (12) 
adg

>  <m_score__min__energy>  (12) 
-7.9199999999999999

>  <m_primary>  (12) 
energy

$$$$
12:0
     RDKit          3D

 45 47  0  0  0  0  0  0  0  0999 V2000
   56.2330   29.7340   43.2760 C   0  0  0  0  0  0  0  0  0  0  0  0
   56.0910   30.6460   44.3600 O   0  0  0  0  0  0  0  0  0  0  0  0
   57.1850   31.2690   44.9670 C   0  0  0  0  0  0  0  0  0  0  0  0
   58.0490   30.5870   45.5830 O   0  0  0  0  0  0  0  0  0  0  0  0
   57.3470   32.7620   44.8440 C   0  0  0  0  0  0  0  0  0  0  0  0
   56.9020   33.4920   46.1370 C   0  0  0  0  0  0  0  0  0  0  0  0
   58.1000   33.8040   47.0420 C   0  0  0  0  0  0  0  0  0  0  0  0
   59.0840   34.6840   46.3660 N   0  0  0  0  0  0  0  0  0  0  0  0
   60.3950   34.7300   47.0530 C   0  0  0  0  0  0  0  0  0  0  0  0
   61.0900   33.3900   47.1190 C   0  0  0  0  0  0  0  0  0  0  0  0
   62.4190   33.2400   47.5170 C   0  0  0  0  0  0  0  0  0  0  0  0
   62.7880   31.5980   47.5010 S   0  0  0  0  0  0  0  0  0  0  0  0
   61.2560   31.1470   46.9720 C   0  0  0  0  0  0  0  0  0  0  0  0
   60.8330   29.7930   46.7420 N   0  0  0  0  0  0  0  0  0  0  0  0
   60.3950   28.9010   47.8000 C   0  0  0  0  0  0  0  0  0  0  0  0
   59.8460   27.6680   47.0930 C   0  0  0  0  0  0  0  0  0  0  0  0
   60.3790   27.7320   45.6640 C   0  0  0  0  0  0  0  0  0  0  0  0
   60.7580   29.1880   45.4240 C   0  0  0  0  0  0  0  0  0  0  0  0
   60.4590   32.2250   46.8040 N   0  0  0  0  0  0  0  0  0  0  0  0
   59.1720   34.5250   44.8920 C   0  0  0  0  0  0  0  0  0  0  0  0
   58.7970   33.1080   44.4380 C   0  0  0  0  0  0  0  0  0  0  0  0
   56.3911   28.7189   43.6692 H   0  0  0  0  0  0  0  0  0  0  0  0
   55.3214   29.7511   42.6607 H   0  0  0  0  0  0  0  0  0  0  0  0
   57.0963   30.0274   42.6607 H   0  0  0  0  0  0  0  0  0  0  0  0
   56.6821   33.1238   44.0458 H   0  0  0  0  0  0  0  0  0  0  0  0
   56.4049   34.4343   45.8633 H   0  0  0  0  0  0  0  0  0  0  0  0
   56.2136   32.8339   46.6874 H   0  0  0  0  0  0  0  0  0  0  0  0
   57.7384   34.3062   47.9514 H   0  0  0  0  0  0  0  0  0  0  0  0
   58.6002   32.8556   47.2876 H   0  0  0  0  0  0  0  0  0  0  0  0
   61.0461   35.4334   46.5132 H   0  0  0  0  0  0  0  0  0  0  0  0
   60.2055   35.0468   48.0892 H   0  0  0  0  0  0  0  0  0  0  0  0
   63.1060   34.0535   47.7932 H   0  0  0  0  0  0  0  0  0  0  0  0
   61.2414   28.6278   48.4473 H   0  0  0  0  0  0  0  0  0  0  0  0
   59.6380   29.3728   48.4437 H   0  0  0  0  0  0  0  0  0  0  0  0
   60.1977   26.7528   47.5917 H   0  0  0  0  0  0  0  0  0  0  0  0
   58.7464   27.6475   47.1130 H   0  0  0  0  0  0  0  0  0  0  0  0
   61.2613   27.0842   45.5555 H   0  0  0  0  0  0  0  0  0  0  0  0
   59.6293   27.3850   44.9376 H   0  0  0  0  0  0  0  0  0  0  0  0
   61.7313   29.2529   44.9155 H   0  0  0  0  0  0  0  0  0  0  0  0
   60.0256   29.6993   44.7819 H   0  0  0  0  0  0  0  0  0  0  0  0
   59.4730   32.1700   46.4650 H   0  0  0  0  0  0  0  0  0  0  0  0
   58.4865   35.2422   44.4169 H   0  0  0  0  0  0  0  0  0  0  0  0
   60.2147   34.7100   44.5942 H   0  0  0  0  0  0  0  0  0  0  0  0
   58.8890   33.0448   43.3437 H   0  0  0  0  0  0  0  0  0  0  0  0
   59.4771   32.3929   44.9239 H   0  0  0  0  0  0  0  0  0  0  0  0
  1  2  1  0
  2  3  1  0
  3  4  2  0
  3  5  1  0
  5  6  1  0
  6  7  1  0
  7  8  1  0
  8  9  1  0
  9 10  1  0
 10 11  2  0
 11 12  1  0
 12 13  1  0
 13 14  1  0
 14 15  1  0
 15 16  1  0
 16 17  1  0
 17 18  1  0
 13 19  2  0
  8 20  1  0
 20 21  1  0
 21  5  1  0
 19 10  1  0
 18 14  1  0
  1 22  1  0
  1 23  1  0
  1 24  1  0
  5 25  1  0
  6 26  1  0
  6 27  1  0
  7 28  1  0
  7 29  1  0
  9 30  1  0
  9 31  1  0
 11 32  1  0
 15 33  1  0
 15 34  1  0
 16 35  1  0
 16 36  1  0
 17 37  1  0
 17 38  1  0
 18 39  1  0
 18 40  1  0
 19 41  1  0
 20 42  1  0
 20 43  1  0
 21 44  1  0
 21 45  1  0
M  CHG  1  19   1
M  END
>  <UniqueID>  (13) 
13

>  <SMILES>  (13) 
COC(=O)C1CCN(Cc2csc(N3CCCC3)[nH+]2)CC1

>  <Energy>  (13) 
78.8737246310758

>  <Genealogy>  (13) 
COC(=O)C1CCN(Cc2csc(N3CCCC3)[nH+]2)CC1 (protonated)
COC(=O)C1CCN(Cc2csc(N3CCCC3)[nH+]2)CC1 (3D coordinates assigned)
COC(=O)C1CCN(Cc2csc(N3CCCC3)[nH+]2)CC1 (nonaromatic ring conformer: 78.8737246310758 kcal/mol)

>  <smiles>  (13) 
COC(=O)C1CCN(Cc2csc(N3CCCC3)n2)CC1

>  <score_type>  (13) 
oracle

>  <origin>  (13) 
adg

>  <m_score__min__energy>  (13) 
-5.3700000000000001

>  <m_primary>  (13) 
energy

$$$$
13:0
     RDKit          3D

 46 48  0  0  0  0  0  0  0  0999 V2000
   65.3150   33.0460   49.7810 C   0  0  0  0  0  0  0  0  0  0  0  0
   64.2630   32.0150   49.3710 C   0  0  0  0  0  0  0  0  0  0  0  0
   63.1830   32.6420   48.5750 N   0  0  0  0  0  0  0  0  0  0  0  0
   63.4090   32.4800   47.1150 C   0  0  0  0  0  0  0  0  0  0  0  0
   63.3060   33.8370   46.4280 C   0  0  0  0  0  0  0  0  0  0  0  0
   63.0240   34.0650   48.9500 C   0  0  0  0  0  0  0  0  0  0  0  0
   62.0790   34.2130   50.1500 C   0  0  0  0  0  0  0  0  0  0  0  0
   60.8470   33.4540   49.9320 N   0  0  0  0  0  0  0  0  0  0  0  0
   60.1090   33.4250   48.6920 C   0  0  0  0  0  0  0  0  0  0  0  0
   59.5540   34.5860   48.1350 C   0  0  0  0  0  0  0  0  0  0  0  0
   58.8500   34.5220   46.9370 C   0  0  0  0  0  0  0  0  0  0  0  0
   58.6850   33.3020   46.2620 C   0  0  0  0  0  0  0  0  0  0  0  0
   59.2440   32.1130   46.7980 C   0  0  0  0  0  0  0  0  0  0  0  0
   59.9540   32.2040   48.0200 C   0  0  0  0  0  0  0  0  0  0  0  0
   59.0690   30.8030   46.0660 C   0  0  0  0  0  0  0  0  0  0  0  0
   59.6150   29.5900   46.5530 C   0  0  0  0  0  0  0  0  0  0  0  0
   59.4360   28.3910   45.8590 C   0  0  0  0  0  0  0  0  0  0  0  0
   58.7170   28.3680   44.6700 C   0  0  0  0  0  0  0  0  0  0  0  0
   58.1710   29.5450   44.1650 C   0  0  0  0  0  0  0  0  0  0  0  0
   58.3380   30.7640   44.8480 C   0  0  0  0  0  0  0  0  0  0  0  0
   57.7520   31.9980   44.2900 C   0  0  0  0  0  0  0  0  0  0  0  0
   57.1010   31.9710   43.2090 O   0  0  0  0  0  0  0  0  0  0  0  0
   57.9280   33.2670   44.9950 C   0  0  0  0  0  0  0  0  0  0  0  0
   57.4290   34.3210   44.5120 O   0  0  0  0  0  0  0  0  0  0  0  0
   65.3687   33.0986   50.8784 H   0  0  0  0  0  0  0  0  0  0  0  0
   66.2952   32.7491   49.3798 H   0  0  0  0  0  0  0  0  0  0  0  0
   65.0379   34.0320   49.3798 H   0  0  0  0  0  0  0  0  0  0  0  0
   64.7444   31.2308   48.7683 H   0  0  0  0  0  0  0  0  0  0  0  0
   63.8209   31.5859   50.2823 H   0  0  0  0  0  0  0  0  0  0  0  0
   64.4105   32.0582   46.9441 H   0  0  0  0  0  0  0  0  0  0  0  0
   62.6484   31.8020   46.7006 H   0  0  0  0  0  0  0  0  0  0  0  0
   63.2459   34.6294   47.1886 H   0  0  0  0  0  0  0  0  0  0  0  0
   64.1945   33.9984   45.7999 H   0  0  0  0  0  0  0  0  0  0  0  0
   62.4033   33.8624   45.7999 H   0  0  0  0  0  0  0  0  0  0  0  0
   64.0081   34.4801   49.2132 H   0  0  0  0  0  0  0  0  0  0  0  0
   62.5941   34.6077   48.0952 H   0  0  0  0  0  0  0  0  0  0  0  0
   62.5805   33.8364   51.0537 H   0  0  0  0  0  0  0  0  0  0  0  0
   61.8238   35.2761   50.2715 H   0  0  0  0  0  0  0  0  0  0  0  0
   60.4880   32.8960   50.7390 H   0  0  0  0  0  0  0  0  0  0  0  0
   59.6759   35.5516   48.6476 H   0  0  0  0  0  0  0  0  0  0  0  0
   58.4167   35.4397   46.5127 H   0  0  0  0  0  0  0  0  0  0  0  0
   60.3950   31.2940   48.4529 H   0  0  0  0  0  0  0  0  0  0  0  0
   60.1885   29.5923   47.4917 H   0  0  0  0  0  0  0  0  0  0  0  0
   59.8666   27.4598   46.2559 H   0  0  0  0  0  0  0  0  0  0  0  0
   58.5794   27.4206   44.1282 H   0  0  0  0  0  0  0  0  0  0  0  0
   57.6036   29.5218   43.2229 H   0  0  0  0  0  0  0  0  0  0  0  0
  1  2  1  0
  2  3  1  0
  3  4  1  0
  4  5  1  0
  3  6  1  0
  6  7  1  0
  7  8  1  0
  8  9  1  0
  9 10  2  0
 10 11  1  0
 11 12  2  0
 12 13  1  0
 13 14  2  0
 13 15  1  0
 15 16  2  0
 16 17  1  0
 17 18  2  0
 18 19  1  0
 19 20  2  0
 20 21  1  0
 21 22  2  0
 21 23  1  0
 23 24  2  0
 14  9  1  0
 20 15  1  0
 23 12  1  0
  1 25  1  0
  1 26  1  0
  1 27  1  0
  2 28  1  0
  2 29  1  0
  4 30  1  0
  4 31  1  0
  5 32  1  0
  5 33  1  0
  5 34  1  0
  6 35  1  0
  6 36  1  0
  7 37  1  0
  7 38  1  0
  8 39  1  0
 10 40  1  0
 11 41  1  0
 14 42  1  0
 16 43  1  0
 17 44  1  0
 18 45  1  0
 19 46  1  0
M  END
>  <UniqueID>  (14) 
14

>  <SMILES>  (14) 
CCN(CC)CCNc1ccc2c(c1)-c1ccccc1C(=O)C2=O

>  <Energy>  (14) 
53.82714738401054

>  <Genealogy>  (14) 
CCN(CC)CCNc1ccc2c(c1)-c1ccccc1C(=O)C2=O (3D coordinates assigned)
CCN(CC)CCNc1ccc2c(c1)-c1ccccc1C(=O)C2=O (nonaromatic ring conformer: 53.82714738401054 kcal/mol)

>  <smiles>  (14) 
CCN(CC)CCNc1ccc2c(c1)-c1ccccc1C(=O)C2=O

>  <score_type>  (14) 
oracle

>  <origin>  (14) 
adg

>  <m_score__min__energy>  (14) 
-7.5800000000000001

>  <m_primary>  (14) 
energy

$$$$
14:0
     RDKit          3D

 48 50  0  0  0  0  0  0  0  0999 V2000
   57.1508   34.6375   44.3345 H   0  0  0  0  0  0  0  0  0  0  0  0
   57.8630   33.8390   44.5900 C   0  0  0  0  0  0  0  0  0  0  0  0
   58.1400   32.9250   43.6450 C   0  0  0  0  0  0  0  0  0  0  0  0
   58.5935   33.2819   42.7085 H   0  0  0  0  0  0  0  0  0  0  0  0
   57.8800   31.4730   43.7710 C   0  0  0  0  0  0  0  0  0  0  0  0
   56.9830   30.8590   42.8880 C   0  0  0  0  0  0  0  0  0  0  0  0
   56.5197   31.4386   42.0760 H   0  0  0  0  0  0  0  0  0  0  0  0
   56.6820   29.5060   43.0470 C   0  0  0  0  0  0  0  0  0  0  0  0
   55.9796   29.0136   42.3584 H   0  0  0  0  0  0  0  0  0  0  0  0
   57.2720   28.7790   44.0790 C   0  0  0  0  0  0  0  0  0  0  0  0
   57.0167   27.7193   44.2268 H   0  0  0  0  0  0  0  0  0  0  0  0
   58.1940   29.4090   44.9280 C   0  0  0  0  0  0  0  0  0  0  0  0
   58.8060   28.6670   46.0540 C   0  0  0  0  0  0  0  0  0  0  0  0
   58.3230   27.3910   46.3990 C   0  0  0  0  0  0  0  0  0  0  0  0
   57.3040   26.8240   45.7030 F   0  0  0  0  0  0  0  0  0  0  0  0
   58.8610   26.7040   47.4890 C   0  0  0  0  0  0  0  0  0  0  0  0
   58.4796   25.7065   47.7526 H   0  0  0  0  0  0  0  0  0  0  0  0
   59.8820   27.2820   48.2440 C   0  0  0  0  0  0  0  0  0  0  0  0
   60.3034   26.7382   49.1023 H   0  0  0  0  0  0  0  0  0  0  0  0
   60.3710   28.5470   47.9150 C   0  0  0  0  0  0  0  0  0  0  0  0
   61.1763   28.9956   48.5153 H   0  0  0  0  0  0  0  0  0  0  0  0
   59.8380   29.2530   46.8170 C   0  0  0  0  0  0  0  0  0  0  0  0
   60.3170   30.5230   46.4540 O   0  0  0  0  0  0  0  0  0  0  0  0
   61.3760   31.2090   47.1140 C   0  0  0  0  0  0  0  0  0  0  0  0
   61.2452   31.1243   48.2029 H   0  0  0  0  0  0  0  0  0  0  0  0
   62.3387   30.7625   46.8245 H   0  0  0  0  0  0  0  0  0  0  0  0
   61.3621   32.2701   46.8245 H   0  0  0  0  0  0  0  0  0  0  0  0
   58.4990   30.7250   44.7330 N   0  0  0  0  0  0  0  0  0  0  0  0
   59.2110   31.1720   45.3530 H   0  0  0  0  0  0  0  0  0  0  0  0
   58.4470   33.8490   45.9500 C   0  0  0  0  0  0  0  0  0  0  0  0
   57.8950   33.0860   46.9900 C   0  0  0  0  0  0  0  0  0  0  0  0
   56.9678   32.5194   46.8191 H   0  0  0  0  0  0  0  0  0  0  0  0
   58.5150   33.0410   48.2410 C   0  0  0  0  0  0  0  0  0  0  0  0
   58.0843   32.4199   49.0402 H   0  0  0  0  0  0  0  0  0  0  0  0
   59.6860   33.7830   48.4890 C   0  0  0  0  0  0  0  0  0  0  0  0
   60.3550   33.7020   49.7730 N   0  0  0  0  0  0  0  0  0  0  0  0
   61.8090   33.8810   49.8640 C   0  0  0  0  0  0  0  0  0  0  0  0
   62.1084   33.9179   50.9218 H   0  0  0  0  0  0  0  0  0  0  0  0
   62.3139   33.0382   49.3692 H   0  0  0  0  0  0  0  0  0  0  0  0
   62.0944   34.8211   49.3692 H   0  0  0  0  0  0  0  0  0  0  0  0
   59.5850   33.4730   51.0010 C   0  0  0  0  0  0  0  0  0  0  0  0
   60.2245   33.6632   51.8756 H   0  0  0  0  0  0  0  0  0  0  0  0
   58.7206   34.1530   51.0240 H   0  0  0  0  0  0  0  0  0  0  0  0
   59.2327   32.4312   51.0240 H   0  0  0  0  0  0  0  0  0  0  0  0
   60.1980   34.5960   47.4580 C   0  0  0  0  0  0  0  0  0  0  0  0
   61.0933   35.2084   47.6411 H   0  0  0  0  0  0  0  0  0  0  0  0
   59.5790   34.6320   46.2040 C   0  0  0  0  0  0  0  0  0  0  0  0
   59.9844   35.2797   45.4127 H   0  0  0  0  0  0  0  0  0  0  0  0
  1  2  1  0
  2  3  2  0
  3  4  1  0
  3  5  1  0
  5  6  2  0
  6  7  1  0
  6  8  1  0
  8  9  1  0
  8 10  2  0
 10 11  1  0
 10 12  1  0
 12 13  1  0
 13 14  2  0
 14 15  1  0
 14 16  1  0
 16 17  1  0
 16 18  2  0
 18 19  1  0
 18 20  1  0
 20 21  1  0
 20 22  2  0
 22 23  1  0
 23 24  1  0
 24 25  1  0
 24 26  1  0
 24 27  1  0
 12 28  2  0
 28 29  1  0
  2 30  1  0
 30 31  2  0
 31 32  1  0
 31 33  1  0
 33 34  1  0
 33 35  2  0
 35 36  1  0
 36 37  1  0
 37 38  1  0
 37 39  1  0
 37 40  1  0
 36 41  1  0
 41 42  1  0
 41 43  1  0
 41 44  1  0
 35 45  1  0
 45 46  1  0
 45 47  2  0
 47 48  1  0
 28  5  1  0
 47 30  1  0
 22 13  1  0
M  CHG  1  28   1
M  END
>  <UniqueID>  (15) 
15

>  <SMILES>  (15) 
COc1cccc(F)c1-c1cccc(/C=C\c2ccc(N(C)C)cc2)[nH+]1

>  <Energy>  (15) 
65.5642273257156

>  <Genealogy>  (15) 
COc1cccc(F)c1-c1cccc(C=Cc2ccc(N(C)C)cc2)[nH+]1 (protonated)
COc1cccc(F)c1-c1cccc(/C=C\c2ccc(N(C)C)cc2)[nH+]1 (cis-trans isomerization)
COc1cccc(F)c1-c1cccc(/C=C\c2ccc(N(C)C)cc2)[nH+]1 (3D coordinates assigned)
COc1cccc(F)c1-c1cccc(/C=C\c2ccc(N(C)C)cc2)[nH+]1 (optimized conformer: 65.5642273257156 kcal/mol)

>  <smiles>  (15) 
COc1cccc(F)c1-c1cccc(C=Cc2ccc(N(C)C)cc2)n1

>  <score_type>  (15) 
oracle

>  <origin>  (15) 
adg

>  <m_score__min__energy>  (15) 
-5.7999999999999998

>  <m_primary>  (15) 
energy

$$$$
15:0
     RDKit          3D

 54 57  0  0  0  0  0  0  0  0999 V2000
   56.0680   23.4610   42.9950 C   0  0  0  0  0  0  0  0  0  0  0  0
   55.8820   22.1280   43.5880 N   0  0  0  0  0  0  0  0  0  0  0  0
   57.1860   21.4690   43.7560 C   0  0  0  0  0  0  0  0  0  0  0  0
   55.1440   22.2050   44.8710 C   0  0  0  0  0  0  0  0  0  0  0  0
   55.5520   23.4700   45.6280 C   0  0  0  0  0  0  0  0  0  0  0  0
   56.4510   23.1190   46.7500 N   0  0  0  0  0  0  0  0  0  0  0  0
   56.4660   21.6760   47.0360 C   0  0  0  0  0  0  0  0  0  0  0  0
   57.8040   23.7150   46.6530 C   0  0  0  0  0  0  0  0  0  0  0  0
   57.8080   25.1700   46.2230 C   0  0  0  0  0  0  0  0  0  0  0  0
   57.7840   25.5110   44.8610 C   0  0  0  0  0  0  0  0  0  0  0  0
   57.7780   26.8520   44.4650 C   0  0  0  0  0  0  0  0  0  0  0  0
   57.7750   27.8790   45.4240 C   0  0  0  0  0  0  0  0  0  0  0  0
   57.7660   29.3020   45.0010 C   0  0  0  0  0  0  0  0  0  0  0  0
   57.2040   29.6690   43.7700 C   0  0  0  0  0  0  0  0  0  0  0  0
   57.1940   31.0030   43.3670 C   0  0  0  0  0  0  0  0  0  0  0  0
   57.7450   31.9920   44.1860 C   0  0  0  0  0  0  0  0  0  0  0  0
   57.7250   33.2840   43.7700 N   0  0  0  0  0  0  0  0  0  0  0  0
   58.2320   34.2650   44.5110 N   0  0  0  0  0  0  0  0  0  0  0  0
   58.7970   34.0280   45.7200 C   0  0  0  0  0  0  0  0  0  0  0  0
   59.3140   35.1020   46.4560 C   0  0  0  0  0  0  0  0  0  0  0  0
   59.8990   34.8800   47.7020 C   0  0  0  0  0  0  0  0  0  0  0  0
   59.9710   33.5870   48.2180 C   0  0  0  0  0  0  0  0  0  0  0  0
   59.4600   32.5050   47.4940 C   0  0  0  0  0  0  0  0  0  0  0  0
   58.8600   32.7070   46.2280 C   0  0  0  0  0  0  0  0  0  0  0  0
   58.3170   31.6570   45.4360 C   0  0  0  0  0  0  0  0  0  0  0  0
   58.3170   30.2980   45.8310 C   0  0  0  0  0  0  0  0  0  0  0  0
   57.7730   27.5360   46.7870 C   0  0  0  0  0  0  0  0  0  0  0  0
   57.7860   26.1960   47.1830 C   0  0  0  0  0  0  0  0  0  0  0  0
   56.1722   24.2075   43.7962 H   0  0  0  0  0  0  0  0  0  0  0  0
   56.9750   23.4621   42.3726 H   0  0  0  0  0  0  0  0  0  0  0  0
   55.1960   23.7104   42.3726 H   0  0  0  0  0  0  0  0  0  0  0  0
   57.4054   21.3581   44.8282 H   0  0  0  0  0  0  0  0  0  0  0  0
   57.1589   20.4764   43.2827 H   0  0  0  0  0  0  0  0  0  0  0  0
   57.9691   22.0796   43.2827 H   0  0  0  0  0  0  0  0  0  0  0  0
   54.0630   22.2327   44.6694 H   0  0  0  0  0  0  0  0  0  0  0  0
   55.3845   21.3225   45.4820 H   0  0  0  0  0  0  0  0  0  0  0  0
   56.0747   24.1527   44.9420 H   0  0  0  0  0  0  0  0  0  0  0  0
   54.6510   23.9597   46.0260 H   0  0  0  0  0  0  0  0  0  0  0  0
   56.4676   21.5180   48.1246 H   0  0  0  0  0  0  0  0  0  0  0  0
   55.5727   21.2062   46.5986 H   0  0  0  0  0  0  0  0  0  0  0  0
   57.3689   21.2249   46.5986 H   0  0  0  0  0  0  0  0  0  0  0  0
   58.2845   23.6447   47.6400 H   0  0  0  0  0  0  0  0  0  0  0  0
   58.3447   23.1525   45.8776 H   0  0  0  0  0  0  0  0  0  0  0  0
   57.7698   24.7171   44.0998 H   0  0  0  0  0  0  0  0  0  0  0  0
   57.7756   27.1049   43.3945 H   0  0  0  0  0  0  0  0  0  0  0  0
   56.7678   28.8983   43.1175 H   0  0  0  0  0  0  0  0  0  0  0  0
   56.7500   31.2788   42.3991 H   0  0  0  0  0  0  0  0  0  0  0  0
   59.2583   36.1228   46.0500 H   0  0  0  0  0  0  0  0  0  0  0  0
   60.3038   35.7253   48.2779 H   0  0  0  0  0  0  0  0  0  0  0  0
   60.4330   33.4165   49.2016 H   0  0  0  0  0  0  0  0  0  0  0  0
   59.5249   31.4894   47.9115 H   0  0  0  0  0  0  0  0  0  0  0  0
   58.7536   30.0153   46.8003 H   0  0  0  0  0  0  0  0  0  0  0  0
   57.7611   28.3295   47.5488 H   0  0  0  0  0  0  0  0  0  0  0  0
   57.7790   25.9426   48.2534 H   0  0  0  0  0  0  0  0  0  0  0  0
  1  2  1  0
  2  3  1  0
  2  4  1  0
  4  5  1  0
  5  6  1  0
  6  7  1  0
  6  8  1  0
  8  9  1  0
  9 10  2  0
 10 11  1  0
 11 12  2  0
 12 13  1  0
 13 14  2  0
 14 15  1  0
 15 16  2  0
 16 17  1  0
 17 18  2  0
 18 19  1  0
 19 20  2  0
 20 21  1  0
 21 22  2  0
 22 23  1  0
 23 24  2  0
 24 25  1  0
 25 26  2  0
 12 27  1  0
 27 28  2  0
 28  9  1  0
 26 13  1  0
 25 16  1  0
 24 19  1  0
  1 29  1  0
  1 30  1  0
  1 31  1  0
  3 32  1  0
  3 33  1  0
  3 34  1  0
  4 35  1  0
  4 36  1  0
  5 37  1  0
  5 38  1  0
  7 39  1  0
  7 40  1  0
  7 41  1  0
  8 42  1  0
  8 43  1  0
 10 44  1  0
 11 45  1  0
 14 46  1  0
 15 47  1  0
 20 48  1  0
 21 49  1  0
 22 50  1  0
 23 51  1  0
 26 52  1  0
 27 53  1  0
 28 54  1  0
M  END
>  <UniqueID>  (16) 
16

>  <SMILES>  (16) 
CN(C)CCN(C)Cc1ccc(-c2ccc3nnc4ccccc4c3c2)cc1

>  <Energy>  (16) 
79.58187548213743

>  <Genealogy>  (16) 
CN(C)CCN(C)Cc1ccc(-c2ccc3nnc4ccccc4c3c2)cc1 (3D coordinates assigned)
CN(C)CCN(C)Cc1ccc(-c2ccc3nnc4ccccc4c3c2)cc1 (optimized conformer: 79.58187548213743 kcal/mol)

>  <smiles>  (16) 
CN(C)CCN(C)Cc1ccc(-c2ccc3nnc4ccccc4c3c2)cc1

>  <score_type>  (16) 
oracle

>  <origin>  (16) 
adg

>  <m_score__min__energy>  (16) 
-8.7599999999999998

>  <m_primary>  (16) 
energy

$$$$
16:0
     RDKit          3D

 40 42  0  0  1  0  0  0  0  0999 V2000
   56.5060   20.7680   45.0420 C   0  0  0  0  0  0  0  0  0  0  0  0
   55.8460   21.8140   44.3120 N   0  0  0  0  0  0  0  0  0  0  0  0
   56.5760   22.3590   43.2160 C   0  0  0  0  0  0  0  0  0  0  0  0
   55.1910   22.7860   45.1300 C   0  0  0  0  0  0  0  0  0  0  0  0
   55.4120   24.2170   44.6960 C   0  0  0  0  0  0  0  0  0  0  0  0
   55.4900   25.0830   45.8500 N   0  0  0  0  0  0  0  0  0  0  0  0
   56.3800   26.0160   45.9620 C   0  0  0  0  0  0  0  0  0  0  0  0
   57.6590   25.7850   46.4400 C   0  0  0  0  0  0  0  0  0  0  0  0
   58.5790   26.8330   46.5430 C   0  0  0  0  0  0  0  0  0  0  0  0
   58.2470   28.0900   46.1810 N   0  0  0  0  0  0  0  0  0  0  0  0
   58.8910   29.2600   46.1700 N   0  0  0  0  0  0  0  0  0  0  0  0
   58.1080   30.2410   45.7120 C   0  0  0  0  0  0  0  0  0  0  0  0
   58.3750   31.6620   45.5270 C   0  0  0  0  0  0  0  0  0  0  0  0
   59.4010   32.2990   46.2060 C   0  0  0  0  0  0  0  0  0  0  0  0
   59.6770   33.6410   46.0480 C   0  0  0  0  0  0  0  0  0  0  0  0
   58.8990   34.3700   45.1800 C   0  0  0  0  0  0  0  0  0  0  0  0
   57.8700   33.7760   44.4840 C   0  0  0  0  0  0  0  0  0  0  0  0
   57.6140   32.4320   44.6600 C   0  0  0  0  0  0  0  0  0  0  0  0
   56.8990   29.6370   45.4210 C   0  0  0  0  0  0  0  0  0  0  0  0
   56.9970   28.2870   45.7180 C   0  0  0  0  0  0  0  0  0  0  0  0
   56.0990   27.2860   45.6130 N   0  0  0  0  0  0  0  0  0  0  0  0
   56.3932   20.9468   46.1215 H   0  0  0  0  0  0  0  0  0  0  0  0
   56.0556   19.7988   44.7818 H   0  0  0  0  0  0  0  0  0  0  0  0
   57.5747   20.7573   44.7818 H   0  0  0  0  0  0  0  0  0  0  0  0
   57.4029   22.9763   43.5970 H   0  0  0  0  0  0  0  0  0  0  0  0
   56.9816   21.5410   42.6026 H   0  0  0  0  0  0  0  0  0  0  0  0
   55.9070   22.9803   42.6026 H   0  0  0  0  0  0  0  0  0  0  0  0
   54.1102   22.5826   45.1078 H   0  0  0  0  0  0  0  0  0  0  0  0
   55.6238   22.6925   46.1369 H   0  0  0  0  0  0  0  0  0  0  0  0
   56.3517   24.2833   44.1280 H   0  0  0  0  0  0  0  0  0  0  0  0
   54.5684   24.5348   44.0656 H   0  0  0  0  0  0  0  0  0  0  0  0
   57.9536   24.7689   46.7411 H   0  0  0  0  0  0  0  0  0  0  0  0
   59.5901   26.6295   46.9254 H   0  0  0  0  0  0  0  0  0  0  0  0
   60.0204   31.7107   46.8990 H   0  0  0  0  0  0  0  0  0  0  0  0
   60.4993   34.1164   46.6028 H   0  0  0  0  0  0  0  0  0  0  0  0
   59.1012   35.4421   45.0396 H   0  0  0  0  0  0  0  0  0  0  0  0
   57.2555   34.3700   43.7915 H   0  0  0  0  0  0  0  0  0  0  0  0
   56.7907   31.9620   44.1021 H   0  0  0  0  0  0  0  0  0  0  0  0
   56.0083   30.1433   45.0207 H   0  0  0  0  0  0  0  0  0  0  0  0
   55.1570   27.5350   45.2410 H   0  0  0  0  0  0  0  0  0  0  0  0
  1  2  1  0
  2  3  1  0
  2  4  1  0
  4  5  1  0
  5  6  1  0
  6  7  2  0
  7  8  1  0
  8  9  2  0
  9 10  1  0
 10 11  1  0
 11 12  2  0
 12 13  1  0
 13 14  2  0
 14 15  1  0
 15 16  2  0
 16 17  1  0
 17 18  2  0
 12 19  1  0
 19 20  2  0
 20 21  1  0
 21  7  1  0
 20 10  1  0
 18 13  1  0
  1 22  1  0
  1 23  1  0
  1 24  1  0
  3 25  1  0
  3 26  1  0
  3 27  1  0
  4 28  1  0
  4 29  1  0
  5 30  1  0
  5 31  1  0
  8 32  1  0
  9 33  1  0
 14 34  1  0
 15 35  1  0
 16 36  1  0
 17 37  1  0
 18 38  1  0
 19 39  1  0
 21 40  1  0
M  END
>  <smiles>  (17) 
CN(C)CCN=c1ccn2nc(-c3ccccc3)cc2[nH]1

>  <score_type>  (17) 
oracle

>  <origin>  (17) 
adg

>  <m_score__min__energy>  (17) 
-6.9299999999999997

>  <m_primary>  (17) 
energy

$$$$
17:0
     RDKit          3D

 46 48  0  0  0  0  0  0  0  0999 V2000
   57.6320   22.7590   45.9110 C   0  0  0  0  0  0  0  0  0  0  0  0
   58.0920   23.8260   46.7340 O   0  0  0  0  0  0  0  0  0  0  0  0
   58.1830   25.1630   46.3210 C   0  0  0  0  0  0  0  0  0  0  0  0
   59.4520   25.7490   46.2460 C   0  0  0  0  0  0  0  0  0  0  0  0
   59.6020   27.0770   45.8390 C   0  0  0  0  0  0  0  0  0  0  0  0
   58.4760   27.8400   45.5010 C   0  0  0  0  0  0  0  0  0  0  0  0
   58.6040   29.1700   45.0890 C   0  0  0  0  0  0  0  0  0  0  0  0
   57.4680   29.9160   44.7510 C   0  0  0  0  0  0  0  0  0  0  0  0
   57.6360   31.3360   44.2660 C   0  0  0  0  0  0  0  0  0  0  0  0
   57.0120   32.2940   45.1940 N   0  0  0  0  0  0  0  0  0  0  0  0
   58.0040   33.0300   46.0160 C   0  0  2  0  0  0  0  0  0  0  0  0
   58.6820   34.1150   45.1640 C   0  0  0  0  0  0  0  0  0  0  0  0
   59.5960   35.0060   46.0240 C   0  0  0  0  0  0  0  0  0  0  0  0
   60.4150   34.2240   47.0900 C   0  0  1  0  0  0  0  0  0  0  0  0
   59.9080   34.4910   48.5170 C   0  0  0  0  0  0  0  0  0  0  0  0
   60.4690   32.7130   46.7890 C   0  0  0  0  0  0  0  0  0  0  0  0
   59.0750   32.0720   46.6140 C   0  0  0  0  0  0  0  0  0  0  0  0
   56.2020   29.3020   44.8320 C   0  0  0  0  0  0  0  0  0  0  0  0
   55.1600   29.9420   44.5270 O   0  0  0  0  0  0  0  0  0  0  0  0
   56.0940   28.0050   45.2370 N   0  0  0  0  0  0  0  0  0  0  0  0
   57.1890   27.2630   45.5710 C   0  0  0  0  0  0  0  0  0  0  0  0
   57.0490   25.9270   45.9810 C   0  0  0  0  0  0  0  0  0  0  0  0
   57.2762   21.9338   46.5454 H   0  0  0  0  0  0  0  0  0  0  0  0
   56.8074   23.1150   45.2759 H   0  0  0  0  0  0  0  0  0  0  0  0
   58.4570   22.4039   45.2759 H   0  0  0  0  0  0  0  0  0  0  0  0
   60.3409   25.1574   46.5104 H   0  0  0  0  0  0  0  0  0  0  0  0
   60.6054   27.5245   45.7837 H   0  0  0  0  0  0  0  0  0  0  0  0
   59.6005   29.6320   45.0302 H   0  0  0  0  0  0  0  0  0  0  0  0
   58.7093   31.5626   44.1848 H   0  0  0  0  0  0  0  0  0  0  0  0
   57.1441   31.4296   43.2866 H   0  0  0  0  0  0  0  0  0  0  0  0
   56.4710   32.9610   44.5950 H   0  0  0  0  0  0  0  0  0  0  0  0
   57.4702   33.5002   46.8551 H   0  0  0  0  0  0  0  0  0  0  0  0
   59.2850   33.6320   44.3810 H   0  0  0  0  0  0  0  0  0  0  0  0
   57.9002   34.7463   44.7165 H   0  0  0  0  0  0  0  0  0  0  0  0
   60.3008   35.5248   45.3576 H   0  0  0  0  0  0  0  0  0  0  0  0
   58.9421   35.7016   46.5703 H   0  0  0  0  0  0  0  0  0  0  0  0
   61.4452   34.6049   47.0307 H   0  0  0  0  0  0  0  0  0  0  0  0
   60.6386   34.1062   49.2437 H   0  0  0  0  0  0  0  0  0  0  0  0
   59.7798   35.5736   48.6640 H   0  0  0  0  0  0  0  0  0  0  0  0
   58.9428   33.9842   48.6640 H   0  0  0  0  0  0  0  0  0  0  0  0
   61.0408   32.5625   45.8614 H   0  0  0  0  0  0  0  0  0  0  0  0
   60.9437   32.2265   47.6539 H   0  0  0  0  0  0  0  0  0  0  0  0
   59.1753   31.2052   45.9442 H   0  0  0  0  0  0  0  0  0  0  0  0
   58.7256   31.7947   47.6195 H   0  0  0  0  0  0  0  0  0  0  0  0
   55.1420   27.5740   45.2880 H   0  0  0  0  0  0  0  0  0  0  0  0
   56.0480   25.4744   46.0370 H   0  0  0  0  0  0  0  0  0  0  0  0
  1  2  1  0
  2  3  1  0
  3  4  2  0
  4  5  1  0
  5  6  2  0
  6  7  1  0
  7  8  2  0
  8  9  1  0
  9 10  1  0
 10 11  1  0
 11 12  1  0
 12 13  1  0
 13 14  1  0
 14 15  1  0
 14 16  1  0
 16 17  1  0
  8 18  1  0
 18 19  2  0
 18 20  1  0
 20 21  1  0
 21 22  2  0
 22  3  1  0
 21  6  1  0
 17 11  1  0
  1 23  1  0
  1 24  1  0
  1 25  1  0
  4 26  1  0
  5 27  1  0
  7 28  1  0
  9 29  1  0
  9 30  1  0
 10 31  1  0
 11 32  1  1
 12 33  1  0
 12 34  1  0
 13 35  1  0
 13 36  1  0
 14 37  1  1
 15 38  1  0
 15 39  1  0
 15 40  1  0
 16 41  1  0
 16 42  1  0
 17 43  1  0
 17 44  1  0
 20 45  1  0
 22 46  1  0
M  END
>  <UniqueID>  (18) 
17

>  <SMILES>  (18) 
COc1ccc2cc(CNC3CCC(C)CC3)c(=O)[nH]c2c1

>  <Energy>  (18) 
54.72988947565424

>  <Genealogy>  (18) 
COc1ccc2cc(CNC3CCC(C)CC3)c(=O)[nH]c2c1 (3D coordinates assigned)
COc1ccc2cc(CNC3CCC(C)CC3)c(=O)[nH]c2c1 (nonaromatic ring conformer: 54.72988947565424 kcal/mol)

>  <smiles>  (18) 
COc1ccc2cc(CNC3CCC(C)CC3)c(=O)[nH]c2c1

>  <score_type>  (18) 
oracle

>  <origin>  (18) 
adg

>  <m_score__min__energy>  (18) 
-8.9800000000000004

>  <m_primary>  (18) 
energy

$$$$
18:0
     RDKit          3D

 35 37  0  0  1  0  0  0  0  0999 V2000
   56.6560   28.2120   45.2560 C   0  0  0  0  0  0  0  0  0  0  0  0
   55.7220   29.2000   44.9440 O   0  0  0  0  0  0  0  0  0  0  0  0
   55.9780   29.5680   43.6150 C   0  0  0  0  0  0  0  0  0  0  0  0
   56.7390   30.8810   43.7030 C   0  0  0  0  0  0  0  0  0  0  0  0
   57.0840   31.2300   45.0690 N   0  0  0  0  0  0  0  0  0  0  0  0
   57.7770   32.2760   45.2780 C   0  0  0  0  0  0  0  0  0  0  0  0
   57.3400   33.4480   44.7400 N   0  0  0  0  0  0  0  0  0  0  0  0
   58.0140   34.6020   44.9140 C   0  0  0  0  0  0  0  0  0  0  0  0
   59.1610   34.6750   45.6280 N   0  0  0  0  0  0  0  0  0  0  0  0
   59.6210   33.5180   46.1760 C   0  0  0  0  0  0  0  0  0  0  0  0
   60.7860   33.6000   46.8980 C   0  0  0  0  0  0  0  0  0  0  0  0
   61.2760   32.4400   47.4670 C   0  0  0  0  0  0  0  0  0  0  0  0
   60.5980   31.2440   47.3010 C   0  0  0  0  0  0  0  0  0  0  0  0
   60.8720   30.0040   47.7490 N   0  0  0  0  0  0  0  0  0  0  0  0
   59.9060   29.1740   47.3190 C   0  0  0  0  0  0  0  0  0  0  0  0
   59.8470   27.6990   47.6070 C   0  0  0  0  0  0  0  0  0  0  0  0
   58.9770   29.8770   46.5720 C   0  0  0  0  0  0  0  0  0  0  0  0
   59.4300   31.1780   46.5720 C   0  0  0  0  0  0  0  0  0  0  0  0
   58.9310   32.3260   46.0000 C   0  0  0  0  0  0  0  0  0  0  0  0
   56.7422   28.1209   46.3488 H   0  0  0  0  0  0  0  0  0  0  0  0
   56.3285   27.2510   44.8326 H   0  0  0  0  0  0  0  0  0  0  0  0
   57.6339   28.4850   44.8326 H   0  0  0  0  0  0  0  0  0  0  0  0
   56.5877   28.8020   43.1135 H   0  0  0  0  0  0  0  0  0  0  0  0
   55.0512   29.6690   43.0312 H   0  0  0  0  0  0  0  0  0  0  0  0
   57.6653   30.7925   43.1163 H   0  0  0  0  0  0  0  0  0  0  0  0
   56.0865   31.6740   43.3088 H   0  0  0  0  0  0  0  0  0  0  0  0
   57.6161   35.5204   44.4577 H   0  0  0  0  0  0  0  0  0  0  0  0
   59.6910   35.5640   45.7680 H   0  0  0  0  0  0  0  0  0  0  0  0
   61.3123   34.5582   47.0196 H   0  0  0  0  0  0  0  0  0  0  0  0
   62.2065   32.4667   48.0530 H   0  0  0  0  0  0  0  0  0  0  0  0
   61.6910   29.7270   48.3310 H   0  0  0  0  0  0  0  0  0  0  0  0
   59.8406   27.5378   48.6951 H   0  0  0  0  0  0  0  0  0  0  0  0
   58.9312   27.2761   47.1683 H   0  0  0  0  0  0  0  0  0  0  0  0
   60.7261   27.2043   47.1683 H   0  0  0  0  0  0  0  0  0  0  0  0
   58.0733   29.4827   46.0843 H   0  0  0  0  0  0  0  0  0  0  0  0
  1  2  1  0
  2  3  1  0
  3  4  1  0
  4  5  1  0
  5  6  2  0
  6  7  1  0
  7  8  2  0
  8  9  1  0
  9 10  1  0
 10 11  2  0
 11 12  1  0
 12 13  2  0
 13 14  1  0
 14 15  1  0
 15 16  1  0
 15 17  2  0
 17 18  1  0
 18 19  2  0
 19  6  1  0
 19 10  1  0
 18 13  1  0
  1 20  1  0
  1 21  1  0
  1 22  1  0
  3 23  1  0
  3 24  1  0
  4 25  1  0
  4 26  1  0
  8 27  1  0
  9 28  1  0
 11 29  1  0
 12 30  1  0
 14 31  1  0
 16 32  1  0
 16 33  1  0
 16 34  1  0
 17 35  1  0
M  END
>  <smiles>  (19) 
COCCN=c1nc[nH]c2ccc3[nH]c(C)cc3c12

>  <score_type>  (19) 
oracle

>  <origin>  (19) 
adg

>  <m_score__min__energy>  (19) 
-6.3600000000000003

>  <m_primary>  (19) 
energy

$$$$
19:0
     RDKit          3D

 35 37  0  0  0  0  0  0  0  0999 V2000
   58.5320   32.4030   48.5900 O   0  0  0  0  0  0  0  0  0  0  0  0
   59.2480   33.2470   47.5730 S   0  0  0  0  0  0  0  0  0  0  0  0
   58.9630   34.6910   47.8720 O   0  0  0  0  0  0  0  0  0  0  0  0
   58.6230   32.7990   45.9890 C   0  0  0  0  0  0  0  0  0  0  0  0
   58.9770   33.5300   44.8460 C   0  0  0  0  0  0  0  0  0  0  0  0
   58.4880   33.1530   43.5930 C   0  0  0  0  0  0  0  0  0  0  0  0
   57.6400   32.0470   43.4690 C   0  0  0  0  0  0  0  0  0  0  0  0
   57.0480   31.6010   41.8750 Cl  0  0  0  0  0  0  0  0  0  0  0  0
   57.2770   31.3140   44.6120 C   0  0  0  0  0  0  0  0  0  0  0  0
   56.2160   29.9170   44.5020 Cl  0  0  0  0  0  0  0  0  0  0  0  0
   57.7690   31.6950   45.8670 C   0  0  0  0  0  0  0  0  0  0  0  0
   60.9950   32.9730   47.6860 C   0  0  0  0  0  0  0  0  0  0  0  0
   61.8550   33.8530   47.0090 C   0  0  0  0  0  0  0  0  0  0  0  0
   63.2030   33.7080   47.0960 N   0  0  0  0  0  0  0  0  0  0  0  0
   63.7670   32.7190   47.8340 C   0  0  0  0  0  0  0  0  0  0  0  0
   62.9610   31.8140   48.5200 C   0  0  0  0  0  0  0  0  0  0  0  0
   61.5670   31.9160   48.4360 C   0  0  0  0  0  0  0  0  0  0  0  0
   60.5860   30.7050   49.3430 S   0  0  0  0  0  0  0  0  0  0  0  0
   60.0560   29.8170   47.8760 C   0  0  0  0  0  0  0  0  0  0  0  0
   60.7620   29.9620   46.6760 C   0  0  0  0  0  0  0  0  0  0  0  0
   60.3460   29.2790   45.5290 C   0  0  0  0  0  0  0  0  0  0  0  0
   59.2120   28.4590   45.5740 C   0  0  0  0  0  0  0  0  0  0  0  0
   58.6900   27.6040   44.1350 Cl  0  0  0  0  0  0  0  0  0  0  0  0
   58.4900   28.3340   46.7650 C   0  0  0  0  0  0  0  0  0  0  0  0
   58.9050   29.0180   47.9120 C   0  0  0  0  0  0  0  0  0  0  0  0
   59.6412   34.4022   44.9362 H   0  0  0  0  0  0  0  0  0  0  0  0
   58.7710   33.7285   42.6993 H   0  0  0  0  0  0  0  0  0  0  0  0
   57.4830   31.1237   46.7625 H   0  0  0  0  0  0  0  0  0  0  0  0
   61.4330   34.6677   46.4023 H   0  0  0  0  0  0  0  0  0  0  0  0
   64.8621   32.6320   47.8905 H   0  0  0  0  0  0  0  0  0  0  0  0
   63.4191   31.0196   49.1274 H   0  0  0  0  0  0  0  0  0  0  0  0
   61.6463   30.6149   46.6352 H   0  0  0  0  0  0  0  0  0  0  0  0
   60.9100   29.3860   44.5907 H   0  0  0  0  0  0  0  0  0  0  0  0
   57.5942   27.6966   46.7997 H   0  0  0  0  0  0  0  0  0  0  0  0
   58.3273   28.9288   48.8438 H   0  0  0  0  0  0  0  0  0  0  0  0
  1  2  2  0
  2  3  2  0
  2  4  1  0
  4  5  2  0
  5  6  1  0
  6  7  2  0
  7  8  1  0
  7  9  1  0
  9 10  1  0
  9 11  2  0
  2 12  1  0
 12 13  2  0
 13 14  1  0
 14 15  2  0
 15 16  1  0
 16 17  2  0
 17 18  1  0
 18 19  1  0
 19 20  2  0
 20 21  1  0
 21 22  2  0
 22 23  1  0
 22 24  1  0
 24 25  2  0
 11  4  1  0
 17 12  1  0
 25 19  1  0
  5 26  1  0
  6 27  1  0
 11 28  1  0
 13 29  1  0
 15 30  1  0
 16 31  1  0
 20 32  1  0
 21 33  1  0
 24 34  1  0
 25 35  1  0
M  END
>  <UniqueID>  (20) 
18

>  <SMILES>  (20) 
O=S(=O)(c1ccc(Cl)c(Cl)c1)c1cnccc1Sc1ccc(Cl)cc1

>  <Energy>  (20) 
39.41285137678026

>  <Genealogy>  (20) 
O=S(=O)(c1ccc(Cl)c(Cl)c1)c1cnccc1Sc1ccc(Cl)cc1 (3D coordinates assigned)
O=S(=O)(c1ccc(Cl)c(Cl)c1)c1cnccc1Sc1ccc(Cl)cc1 (optimized conformer: 39.41285137678026 kcal/mol)

>  <smiles>  (20) 
O=S(=O)(c1ccc(Cl)c(Cl)c1)c1cnccc1Sc1ccc(Cl)cc1

>  <score_type>  (20) 
oracle

>  <origin>  (20) 
adg

>  <m_score__min__energy>  (20) 
-8.9000000000000004

>  <m_primary>  (20) 
energy

$$$$
20:0
     RDKit          3D

 57 60  0  0  0  0  0  0  0  0999 V2000
   53.3770   21.9900   47.3400 C   0  0  0  0  0  0  0  0  0  0  0  0
   53.6610   20.8470   46.5650 O   0  0  0  0  0  0  0  0  0  0  0  0
   54.3110   19.8660   47.3500 C   0  0  0  0  0  0  0  0  0  0  0  0
   55.7940   19.7590   46.9760 C   0  0  0  0  0  0  0  0  0  0  0  0
   56.3130   21.0560   46.4960 N   0  0  0  0  0  0  0  0  0  0  0  0
   56.9210   21.9190   47.3750 C   0  0  0  0  0  0  0  0  0  0  0  0
   57.0590   21.6100   48.5890 O   0  0  0  0  0  0  0  0  0  0  0  0
   57.3820   23.1220   46.9500 N   0  0  0  0  0  0  0  0  0  0  0  0
   57.2570   23.5150   45.6610 C   0  0  0  0  0  0  0  0  0  0  0  0
   57.7470   24.7640   45.2590 C   0  0  0  0  0  0  0  0  0  0  0  0
   57.6290   25.1770   43.9230 C   0  0  0  0  0  0  0  0  0  0  0  0
   58.1400   26.5050   43.5080 C   0  0  0  0  0  0  0  0  0  0  0  0
   58.2900   26.7440   42.2780 O   0  0  0  0  0  0  0  0  0  0  0  0
   58.4750   27.5230   44.4710 N   0  0  0  0  0  0  0  0  0  0  0  0
   57.6940   27.6790   45.7070 C   0  0  0  0  0  0  0  0  0  0  0  0
   57.3960   29.1610   45.9600 C   0  0  0  0  0  0  0  0  0  0  0  0
   58.6070   29.9850   45.8260 N   0  0  0  0  0  0  0  0  0  0  0  0
   58.5700   31.3650   46.2330 C   0  0  0  0  0  0  0  0  0  0  0  0
   59.5160   31.8420   47.1570 C   0  0  0  0  0  0  0  0  0  0  0  0
   59.4910   33.1750   47.5720 C   0  0  0  0  0  0  0  0  0  0  0  0
   58.5230   34.0440   47.0690 C   0  0  0  0  0  0  0  0  0  0  0  0
   57.5810   33.5880   46.1460 C   0  0  0  0  0  0  0  0  0  0  0  0
   57.5980   32.2460   45.7140 C   0  0  0  0  0  0  0  0  0  0  0  0
   56.6810   31.7640   44.7660 O   0  0  0  0  0  0  0  0  0  0  0  0
   57.0380   31.2300   43.4950 C   0  0  0  0  0  0  0  0  0  0  0  0
   59.8600   29.3890   45.3450 C   0  0  0  0  0  0  0  0  0  0  0  0
   59.5790   28.4470   44.1710 C   0  0  0  0  0  0  0  0  0  0  0  0
   56.9870   24.3350   42.9980 C   0  0  0  0  0  0  0  0  0  0  0  0
   56.4970   23.0880   43.3950 C   0  0  0  0  0  0  0  0  0  0  0  0
   56.6320   22.6680   44.7310 C   0  0  0  0  0  0  0  0  0  0  0  0
   56.1550   21.4220   45.1800 C   0  0  0  0  0  0  0  0  0  0  0  0
   55.5800   20.6450   44.3660 O   0  0  0  0  0  0  0  0  0  0  0  0
   53.4406   21.7340   48.4079 H   0  0  0  0  0  0  0  0  0  0  0  0
   54.1060   22.7805   47.1084 H   0  0  0  0  0  0  0  0  0  0  0  0
   52.3628   22.3473   47.1084 H   0  0  0  0  0  0  0  0  0  0  0  0
   54.2265   20.1406   48.4118 H   0  0  0  0  0  0  0  0  0  0  0  0
   53.8312   18.8936   47.1647 H   0  0  0  0  0  0  0  0  0  0  0  0
   56.3670   19.4477   47.8619 H   0  0  0  0  0  0  0  0  0  0  0  0
   55.8998   19.0186   46.1694 H   0  0  0  0  0  0  0  0  0  0  0  0
   58.2273   25.4254   45.9951 H   0  0  0  0  0  0  0  0  0  0  0  0
   56.7463   27.1290   45.6101 H   0  0  0  0  0  0  0  0  0  0  0  0
   58.2746   27.2798   46.5518 H   0  0  0  0  0  0  0  0  0  0  0  0
   56.6474   29.5046   45.2309 H   0  0  0  0  0  0  0  0  0  0  0  0
   57.0188   29.2665   46.9879 H   0  0  0  0  0  0  0  0  0  0  0  0
   60.2815   31.1602   47.5560 H   0  0  0  0  0  0  0  0  0  0  0  0
   60.2348   33.5397   48.2957 H   0  0  0  0  0  0  0  0  0  0  0  0
   58.5020   35.0925   47.4010 H   0  0  0  0  0  0  0  0  0  0  0  0
   56.8209   34.2794   45.7533 H   0  0  0  0  0  0  0  0  0  0  0  0
   57.6443   30.3230   43.6355 H   0  0  0  0  0  0  0  0  0  0  0  0
   56.1260   30.9781   42.9339 H   0  0  0  0  0  0  0  0  0  0  0  0
   57.6194   31.9764   42.9339 H   0  0  0  0  0  0  0  0  0  0  0  0
   60.5398   30.1884   45.0152 H   0  0  0  0  0  0  0  0  0  0  0  0
   60.3231   28.8168   46.1624 H   0  0  0  0  0  0  0  0  0  0  0  0
   59.3128   29.0465   43.2880 H   0  0  0  0  0  0  0  0  0  0  0  0
   60.4847   27.8517   43.9830 H   0  0  0  0  0  0  0  0  0  0  0  0
   56.8695   24.6603   41.9538 H   0  0  0  0  0  0  0  0  0  0  0  0
   56.0045   22.4331   42.6611 H   0  0  0  0  0  0  0  0  0  0  0  0
  1  2  1  0
  2  3  1  0
  3  4  1  0
  4  5  1  0
  5  6  1  0
  6  7  2  0
  6  8  1  0
  8  9  1  0
  9 10  2  0
 10 11  1  0
 11 12  1  0
 12 13  2  0
 12 14  1  0
 14 15  1  0
 15 16  1  0
 16 17  1  0
 17 18  1  0
 18 19  2  0
 19 20  1  0
 20 21  2  0
 21 22  1  0
 22 23  2  0
 23 24  1  0
 24 25  1  0
 17 26  1  0
 26 27  1  0
 11 28  2  0
 28 29  1  0
 29 30  2  0
 30 31  1  0
 31 32  2  0
 31  5  1  0
 30  9  1  0
 27 14  1  0
 23 18  1  0
  1 33  1  0
  1 34  1  0
  1 35  1  0
  3 36  1  0
  3 37  1  0
  4 38  1  0
  4 39  1  0
 10 40  1  0
 15 41  1  0
 15 42  1  0
 16 43  1  0
 16 44  1  0
 19 45  1  0
 20 46  1  0
 21 47  1  0
 22 48  1  0
 25 49  1  0
 25 50  1  0
 25 51  1  0
 26 52  1  0
 26 53  1  0
 27 54  1  0
 27 55  1  0
 28 56  1  0
 29 57  1  0
M  CHG  1   8  -1
M  END
>  <UniqueID>  (21) 
19

>  <SMILES>  (21) 
COCCn1c(=O)[n-]c2cc(C(=O)N3CCN(c4ccccc4OC)CC3)ccc2c1=O

>  <Energy>  (21) 
76.97196506297713

>  <Genealogy>  (21) 
COCCn1c(=O)[n-]c2cc(C(=O)N3CCN(c4ccccc4OC)CC3)ccc2c1=O (protonated)
COCCn1c(=O)[n-]c2cc(C(=O)N3CCN(c4ccccc4OC)CC3)ccc2c1=O (3D coordinates assigned)
COCCn1c(=O)[n-]c2cc(C(=O)N3CCN(c4ccccc4OC)CC3)ccc2c1=O (nonaromatic ring conformer: 76.97196506297713 kcal/mol)

>  <smiles>  (21) 
COCCn1c(=O)[nH]c2cc(C(=O)N3CCN(c4ccccc4OC)CC3)ccc2c1=O

>  <score_type>  (21) 
oracle

>  <origin>  (21) 
adg

>  <m_score__min__energy>  (21) 
-9.6099999999999994

>  <m_primary>  (21) 
energy

$$$$
21:0
     RDKit          3D

 46 48  0  0  0  0  0  0  0  0999 V2000
   55.5340   28.0090   44.5350 H   0  0  0  0  0  0  0  0  0  0  0  0
   55.3130   29.0300   44.5000 N   0  0  0  0  0  0  0  0  0  0  0  0
   56.2120   29.9280   44.7510 C   0  0  0  0  0  0  0  0  0  0  0  0
   55.8940   31.2470   44.6270 N   0  0  0  0  0  0  0  0  0  0  0  0
   56.7930   32.2330   44.8790 C   0  0  0  0  0  0  0  0  0  0  0  0
   56.4975   33.2872   44.7724 H   0  0  0  0  0  0  0  0  0  0  0  0
   58.0910   31.9090   45.2730 C   0  0  0  0  0  0  0  0  0  0  0  0
   59.3640   33.2870   45.6290 Br  0  0  0  0  0  0  0  0  0  0  0  0
   58.4490   30.5670   45.4060 C   0  0  0  0  0  0  0  0  0  0  0  0
   59.4751   30.3013   45.7002 H   0  0  0  0  0  0  0  0  0  0  0  0
   57.5090   29.5560   45.1670 C   0  0  0  0  0  0  0  0  0  0  0  0
   58.0010   27.8600   45.3280 S   0  0  0  0  0  0  0  0  0  0  0  0
   56.8430   27.0560   45.8490 O   0  0  0  0  0  0  0  0  0  0  0  0
   58.3310   27.3280   43.9600 O   0  0  0  0  0  0  0  0  0  0  0  0
   59.3770   27.6140   46.3840 N   0  0  0  0  0  0  0  0  0  0  0  0
   60.6810   27.9600   45.7870 C   0  0  0  0  0  0  0  0  0  0  0  0
   61.4591   27.3499   46.2690 H   0  0  0  0  0  0  0  0  0  0  0  0
   60.6095   27.7609   44.7075 H   0  0  0  0  0  0  0  0  0  0  0  0
   61.0480   29.4380   45.9540 C   0  0  0  0  0  0  0  0  0  0  0  0
   62.1018   29.5849   45.6747 H   0  0  0  0  0  0  0  0  0  0  0  0
   60.4001   30.0451   45.3046 H   0  0  0  0  0  0  0  0  0  0  0  0
   60.8540   29.8510   47.3440 N   0  0  0  0  0  0  0  0  0  0  0  0
   61.7230   30.8330   47.9390 C   0  0  0  0  0  0  0  0  0  0  0  0
   62.4680   31.7130   47.1380 C   0  0  0  0  0  0  0  0  0  0  0  0
   62.3906   31.6540   46.0423 H   0  0  0  0  0  0  0  0  0  0  0  0
   63.3070   32.6630   47.7250 C   0  0  0  0  0  0  0  0  0  0  0  0
   63.8824   33.3497   47.0868 H   0  0  0  0  0  0  0  0  0  0  0  0
   63.4230   32.7500   49.1180 C   0  0  0  0  0  0  0  0  0  0  0  0
   64.2820   33.7260   49.6510 O   0  0  0  0  0  0  0  0  0  0  0  0
   65.2290   33.5160   50.6980 C   0  0  0  0  0  0  0  0  0  0  0  0
   65.4171   34.4707   51.2110 H   0  0  0  0  0  0  0  0  0  0  0  0
   64.8182   32.7775   51.4022 H   0  0  0  0  0  0  0  0  0  0  0  0
   66.5430   32.9810   50.1400 C   0  0  0  0  0  0  0  0  0  0  0  0
   67.2106   32.7092   50.9709 H   0  0  0  0  0  0  0  0  0  0  0  0
   66.3446   32.0921   49.5232 H   0  0  0  0  0  0  0  0  0  0  0  0
   67.0219   33.7557   49.5232 H   0  0  0  0  0  0  0  0  0  0  0  0
   62.6750   31.8690   49.9220 C   0  0  0  0  0  0  0  0  0  0  0  0
   62.7527   31.9285   51.0176 H   0  0  0  0  0  0  0  0  0  0  0  0
   61.8340   30.9190   49.3350 C   0  0  0  0  0  0  0  0  0  0  0  0
   61.2552   30.2341   49.9721 H   0  0  0  0  0  0  0  0  0  0  0  0
   59.5530   29.5720   47.9510 C   0  0  0  0  0  0  0  0  0  0  0  0
   59.5977   29.8018   49.0258 H   0  0  0  0  0  0  0  0  0  0  0  0
   58.7901   30.1960   47.4625 H   0  0  0  0  0  0  0  0  0  0  0  0
   59.1820   28.0960   47.7650 C   0  0  0  0  0  0  0  0  0  0  0  0
   59.8083   27.4913   48.4374 H   0  0  0  0  0  0  0  0  0  0  0  0
   58.1109   27.9980   47.9958 H   0  0  0  0  0  0  0  0  0  0  0  0
  1  2  1  0
  2  3  2  0
  3  4  1  0
  4  5  1  0
  5  6  1  0
  5  7  2  0
  7  8  1  0
  7  9  1  0
  9 10  1  0
  9 11  2  0
 11 12  1  0
 12 13  2  0
 12 14  2  0
 12 15  1  0
 15 16  1  0
 16 17  1  0
 16 18  1  0
 16 19  1  0
 19 20  1  0
 19 21  1  0
 19 22  1  0
 22 23  1  0
 23 24  2  0
 24 25  1  0
 24 26  1  0
 26 27  1  0
 26 28  2  0
 28 29  1  0
 29 30  1  0
 30 31  1  0
 30 32  1  0
 30 33  1  0
 33 34  1  0
 33 35  1  0
 33 36  1  0
 28 37  1  0
 37 38  1  0
 37 39  2  0
 39 40  1  0
 22 41  1  0
 41 42  1  0
 41 43  1  0
 41 44  1  0
 44 45  1  0
 44 46  1  0
 11  3  1  0
 44 15  1  0
 39 23  1  0
M  CHG  1   4  -1
M  END
>  <UniqueID>  (22) 
20

>  <SMILES>  (22) 
[H]/N=c1\[n-]cc(Br)cc1S(=O)(=O)N1CCN(c2ccc(OCC)cc2)CC1

>  <Energy>  (22) 
55.71330238300173

>  <Genealogy>  (22) 
CCOc1ccc(N2CCN(S(=O)(=O)c3cc(Br)c[n-]c3=N)CC2)cc1 (protonated)
[H]/N=c1\[n-]cc(Br)cc1S(=O)(=O)N1CCN(c2ccc(OCC)cc2)CC1 (cis-trans isomerization)
[H]/N=c1\[n-]cc(Br)cc1S(=O)(=O)N1CCN(c2ccc(OCC)cc2)CC1 (3D coordinates assigned)
[H]/N=c1\[n-]cc(Br)cc1S(=O)(=O)N1CCN(c2ccc(OCC)cc2)CC1 (nonaromatic ring conformer: 55.71330238300173 kcal/mol)

>  <smiles>  (22) 
CCOc1ccc(N2CCN(S(=O)(=O)c3cc(Br)c[nH]c3=N)CC2)cc1

>  <score_type>  (22) 
oracle

>  <origin>  (22) 
adg

>  <m_score__min__energy>  (22) 
-10.31

>  <m_primary>  (22) 
energy

$$$$
22:0
     RDKit          3D

 54 57  0  0  0  0  0  0  0  0999 V2000
   64.0010   33.1350   48.0770 C   0  0  0  0  0  0  0  0  0  0  0  0
   63.0950   32.6400   47.1380 C   0  0  0  0  0  0  0  0  0  0  0  0
   61.7230   32.8490   47.3090 C   0  0  0  0  0  0  0  0  0  0  0  0
   61.2430   33.5600   48.4250 C   0  0  0  0  0  0  0  0  0  0  0  0
   59.7560   33.7960   48.6280 C   0  0  0  0  0  0  0  0  0  0  0  0
   59.1150   32.7190   49.5360 C   0  0  0  0  0  0  0  0  0  0  0  0
   59.7610   31.3380   49.3340 C   0  0  0  0  0  0  0  0  0  0  0  0
   58.9680   30.4370   48.3650 C   0  0  0  0  0  0  0  0  0  0  0  0
   59.8380   29.7080   47.3950 N   0  0  1  0  0  0  0  0  0  0  0  0
   59.4270   28.2970   47.2160 C   0  0  0  0  0  0  0  0  0  0  0  0
   58.0220   28.1620   46.6040 C   0  0  0  0  0  0  0  0  0  0  0  0
   57.7980   29.1180   45.4640 C   0  0  0  0  0  0  0  0  0  0  0  0
   56.6640   28.9610   44.6510 C   0  0  0  0  0  0  0  0  0  0  0  0
   56.4020   29.8690   43.6220 C   0  0  0  0  0  0  0  0  0  0  0  0
   57.2660   30.9420   43.3990 C   0  0  0  0  0  0  0  0  0  0  0  0
   58.3930   31.1120   44.2060 C   0  0  0  0  0  0  0  0  0  0  0  0
   58.6580   30.2170   45.2540 C   0  0  0  0  0  0  0  0  0  0  0  0
   59.9120   30.3870   46.0790 C   0  0  0  0  0  0  0  0  0  0  0  0
   59.0550   33.9410   47.2860 C   0  0  0  0  0  0  0  0  0  0  0  0
   57.7960   33.3360   47.1030 C   0  0  0  0  0  0  0  0  0  0  0  0
   57.1070   33.4780   45.8940 C   0  0  0  0  0  0  0  0  0  0  0  0
   57.6580   34.2350   44.8590 C   0  0  0  0  0  0  0  0  0  0  0  0
   58.8970   34.8560   45.0310 C   0  0  0  0  0  0  0  0  0  0  0  0
   59.5900   34.7180   46.2370 C   0  0  0  0  0  0  0  0  0  0  0  0
   62.1670   34.0560   49.3620 C   0  0  0  0  0  0  0  0  0  0  0  0
   63.5380   33.8420   49.1890 C   0  0  0  0  0  0  0  0  0  0  0  0
   65.0798   32.9683   47.9413 H   0  0  0  0  0  0  0  0  0  0  0  0
   63.4608   32.0845   46.2619 H   0  0  0  0  0  0  0  0  0  0  0  0
   61.0138   32.4550   46.5662 H   0  0  0  0  0  0  0  0  0  0  0  0
   59.6257   34.7458   49.1674 H   0  0  0  0  0  0  0  0  0  0  0  0
   59.2402   33.0196   50.5867 H   0  0  0  0  0  0  0  0  0  0  0  0
   58.0507   32.6390   49.2698 H   0  0  0  0  0  0  0  0  0  0  0  0
   60.7741   31.4807   48.9300 H   0  0  0  0  0  0  0  0  0  0  0  0
   59.7758   30.8356   50.3125 H   0  0  0  0  0  0  0  0  0  0  0  0
   58.4065   29.6978   48.9552 H   0  0  0  0  0  0  0  0  0  0  0  0
   58.3031   31.0904   47.7810 H   0  0  0  0  0  0  0  0  0  0  0  0
   60.8150   29.6720   47.7710 H   0  0  0  0  0  0  0  0  0  0  0  0
   60.1497   27.8014   46.5512 H   0  0  0  0  0  0  0  0  0  0  0  0
   59.4028   27.8287   48.2111 H   0  0  0  0  0  0  0  0  0  0  0  0
   57.8957   27.1342   46.2330 H   0  0  0  0  0  0  0  0  0  0  0  0
   57.2899   28.4000   47.3897 H   0  0  0  0  0  0  0  0  0  0  0  0
   55.9783   28.1187   44.8252 H   0  0  0  0  0  0  0  0  0  0  0  0
   55.5136   29.7380   42.9868 H   0  0  0  0  0  0  0  0  0  0  0  0
   57.0591   31.6545   42.5869 H   0  0  0  0  0  0  0  0  0  0  0  0
   59.0773   31.9527   44.0190 H   0  0  0  0  0  0  0  0  0  0  0  0
   60.7604   29.9697   45.5168 H   0  0  0  0  0  0  0  0  0  0  0  0
   60.0352   31.4630   46.2712 H   0  0  0  0  0  0  0  0  0  0  0  0
   57.3508   32.7467   47.9182 H   0  0  0  0  0  0  0  0  0  0  0  0
   56.1294   32.9923   45.7588 H   0  0  0  0  0  0  0  0  0  0  0  0
   57.1163   34.3425   43.9077 H   0  0  0  0  0  0  0  0  0  0  0  0
   59.3285   35.4551   44.2156 H   0  0  0  0  0  0  0  0  0  0  0  0
   60.5602   35.2192   46.3692 H   0  0  0  0  0  0  0  0  0  0  0  0
   61.8084   34.6167   50.2378 H   0  0  0  0  0  0  0  0  0  0  0  0
   64.2525   34.2309   49.9294 H   0  0  0  0  0  0  0  0  0  0  0  0
  1  2  2  0
  2  3  1  0
  3  4  2  0
  4  5  1  0
  5  6  1  0
  6  7  1  0
  7  8  1  0
  8  9  1  0
  9 10  1  0
 10 11  1  0
 11 12  1  0
 12 13  2  0
 13 14  1  0
 14 15  2  0
 15 16  1  0
 16 17  2  0
 17 18  1  0
  5 19  1  0
 19 20  2  0
 20 21  1  0
 21 22  2  0
 22 23  1  0
 23 24  2  0
  4 25  1  0
 25 26  2  0
 26  1  1  0
 18  9  1  0
 24 19  1  0
 17 12  1  0
  1 27  1  0
  2 28  1  0
  3 29  1  0
  5 30  1  0
  6 31  1  0
  6 32  1  0
  7 33  1  0
  7 34  1  0
  8 35  1  0
  8 36  1  0
  9 37  1  1
 10 38  1  0
 10 39  1  0
 11 40  1  0
 11 41  1  0
 13 42  1  0
 14 43  1  0
 15 44  1  0
 16 45  1  0
 18 46  1  0
 18 47  1  0
 20 48  1  0
 21 49  1  0
 22 50  1  0
 23 51  1  0
 24 52  1  0
 25 53  1  0
 26 54  1  0
M  CHG  1   9   1
M  END
>  <UniqueID>  (23) 
21

>  <SMILES>  (23) 
c1ccc(C(CCC[N@H+]2CCc3ccccc3C2)c2ccccc2)cc1

>  <Energy>  (23) 
64.36789718293466

>  <Genealogy>  (23) 
c1ccc(C(CCC[NH+]2CCc3ccccc3C2)c2ccccc2)cc1 (protonated)
c1ccc(C(CCC[N@H+]2CCc3ccccc3C2)c2ccccc2)cc1 (chirality)
c1ccc(C(CCC[N@H+]2CCc3ccccc3C2)c2ccccc2)cc1 (3D coordinates assigned)
c1ccc(C(CCC[N@H+]2CCc3ccccc3C2)c2ccccc2)cc1 (nonaromatic ring conformer: 64.36789718293466 kcal/mol)

>  <smiles>  (23) 
c1ccc(C(CCCN2CCc3ccccc3C2)c2ccccc2)cc1

>  <score_type>  (23) 
oracle

>  <origin>  (23) 
adg

>  <m_score__min__energy>  (23) 
-7.6500000000000004

>  <m_primary>  (23) 
energy

$$$$
23:0
     RDKit          3D

 50 52  0  0  0  0  0  0  0  0999 V2000
   57.4890   33.1230   47.3370 C   0  0  0  0  0  0  0  0  0  0  0  0
   57.1680   33.4790   45.8830 C   0  0  0  0  0  0  0  0  0  0  0  0
   58.1160   32.8310   44.9480 N   0  0  0  0  0  0  0  0  0  0  0  0
   59.2520   33.7240   44.6240 C   0  0  0  0  0  0  0  0  0  0  0  0
   59.1740   35.0120   45.4410 C   0  0  0  0  0  0  0  0  0  0  0  0
   57.4280   32.3510   43.7210 C   0  0  0  0  0  0  0  0  0  0  0  0
   57.0630   30.8720   43.8680 C   0  0  0  0  0  0  0  0  0  0  0  0
   57.2230   30.4380   45.2550 N   0  0  0  0  0  0  0  0  0  0  0  0
   57.9710   29.2710   45.6270 C   0  0  0  0  0  0  0  0  0  0  0  0
   57.8220   28.0270   44.9670 C   0  0  0  0  0  0  0  0  0  0  0  0
   58.5930   26.9070   45.3620 C   0  0  0  0  0  0  0  0  0  0  0  0
   59.5170   27.0130   46.4180 C   0  0  0  0  0  0  0  0  0  0  0  0
   60.2670   25.9490   46.8030 F   0  0  0  0  0  0  0  0  0  0  0  0
   59.6330   28.2470   47.0530 C   0  0  0  0  0  0  0  0  0  0  0  0
   60.4610   28.6060   48.0460 N   0  0  0  0  0  0  0  0  0  0  0  0
   60.1780   29.9210   48.2280 C   0  0  0  0  0  0  0  0  0  0  0  0
   60.9100   30.8080   49.1780 C   0  0  0  0  0  0  0  0  0  0  0  0
   61.6810   31.8370   48.3980 C   0  0  0  0  0  0  0  0  0  0  0  0
   61.0120   32.9320   47.8230 C   0  0  0  0  0  0  0  0  0  0  0  0
   61.7090   33.8400   47.0210 C   0  0  0  0  0  0  0  0  0  0  0  0
   63.0770   33.6640   46.7870 C   0  0  0  0  0  0  0  0  0  0  0  0
   63.7480   34.5390   45.9970 F   0  0  0  0  0  0  0  0  0  0  0  0
   63.7490   32.5780   47.3540 C   0  0  0  0  0  0  0  0  0  0  0  0
   63.0540   31.6620   48.1530 C   0  0  0  0  0  0  0  0  0  0  0  0
   59.2340   30.3560   47.4100 O   0  0  0  0  0  0  0  0  0  0  0  0
   58.8910   29.3270   46.6750 C   0  0  0  0  0  0  0  0  0  0  0  0
   56.9063   33.7692   48.0099 H   0  0  0  0  0  0  0  0  0  0  0  0
   57.2286   32.0705   47.5229 H   0  0  0  0  0  0  0  0  0  0  0  0
   58.5627   33.2734   47.5229 H   0  0  0  0  0  0  0  0  0  0  0  0
   56.1473   33.1424   45.6487 H   0  0  0  0  0  0  0  0  0  0  0  0
   57.2552   34.5692   45.7653 H   0  0  0  0  0  0  0  0  0  0  0  0
   60.1952   33.2068   44.8538 H   0  0  0  0  0  0  0  0  0  0  0  0
   59.2084   33.9793   43.5549 H   0  0  0  0  0  0  0  0  0  0  0  0
   59.1888   34.7674   46.5134 H   0  0  0  0  0  0  0  0  0  0  0  0
   60.0350   35.6524   45.1990 H   0  0  0  0  0  0  0  0  0  0  0  0
   58.2420   35.5438   45.1990 H   0  0  0  0  0  0  0  0  0  0  0  0
   56.5112   32.9383   43.5644 H   0  0  0  0  0  0  0  0  0  0  0  0
   58.1013   32.4721   42.8596 H   0  0  0  0  0  0  0  0  0  0  0  0
   56.0167   30.7257   43.5618 H   0  0  0  0  0  0  0  0  0  0  0  0
   57.7328   30.2763   43.2304 H   0  0  0  0  0  0  0  0  0  0  0  0
   57.0550   31.1610   45.9910 H   0  0  0  0  0  0  0  0  0  0  0  0
   57.1018   27.9300   44.1412 H   0  0  0  0  0  0  0  0  0  0  0  0
   58.4688   25.9470   44.8395 H   0  0  0  0  0  0  0  0  0  0  0  0
   61.1760   28.0240   48.5360 H   0  0  0  0  0  0  0  0  0  0  0  0
   60.1904   31.3113   49.8405 H   0  0  0  0  0  0  0  0  0  0  0  0
   61.6036   30.2077   49.7850 H   0  0  0  0  0  0  0  0  0  0  0  0
   59.9366   33.0745   48.0050 H   0  0  0  0  0  0  0  0  0  0  0  0
   61.1809   34.6946   46.5729 H   0  0  0  0  0  0  0  0  0  0  0  0
   64.8254   32.4425   47.1724 H   0  0  0  0  0  0  0  0  0  0  0  0
   63.5840   30.8030   48.5902 H   0  0  0  0  0  0  0  0  0  0  0  0
  1  2  1  0
  2  3  1  0
  3  4  1  0
  4  5  1  0
  3  6  1  0
  6  7  1  0
  7  8  1  0
  8  9  1  0
  9 10  2  0
 10 11  1  0
 11 12  2  0
 12 13  1  0
 12 14  1  0
 14 15  1  0
 15 16  2  0
 16 17  1  0
 17 18  1  0
 18 19  2  0
 19 20  1  0
 20 21  2  0
 21 22  1  0
 21 23  1  0
 23 24  2  0
 16 25  1  0
 25 26  1  0
 26  9  1  0
 26 14  2  0
 24 18  1  0
  1 27  1  0
  1 28  1  0
  1 29  1  0
  2 30  1  0
  2 31  1  0
  4 32  1  0
  4 33  1  0
  5 34  1  0
  5 35  1  0
  5 36  1  0
  6 37  1  0
  6 38  1  0
  7 39  1  0
  7 40  1  0
  8 41  1  0
 10 42  1  0
 11 43  1  0
 15 44  1  0
 17 45  1  0
 17 46  1  0
 19 47  1  0
 20 48  1  0
 23 49  1  0
 24 50  1  0
M  CHG  1  15   1
M  END
>  <UniqueID>  (24) 
22

>  <SMILES>  (24) 
CCN(CC)CCNc1ccc(F)c2[nH+]c(Cc3ccc(F)cc3)oc12

>  <Energy>  (24) 
83.68903217169839

>  <Genealogy>  (24) 
CCN(CC)CCNc1ccc(F)c2[nH+]c(Cc3ccc(F)cc3)oc12 (protonated)
CCN(CC)CCNc1ccc(F)c2[nH+]c(Cc3ccc(F)cc3)oc12 (3D coordinates assigned)
CCN(CC)CCNc1ccc(F)c2[nH+]c(Cc3ccc(F)cc3)oc12 (optimized conformer: 83.68903217169839 kcal/mol)

>  <smiles>  (24) 
CCN(CC)CCNc1ccc(F)c2nc(Cc3ccc(F)cc3)oc12

>  <score_type>  (24) 
oracle

>  <origin>  (24) 
adg

>  <m_score__min__energy>  (24) 
-5.9199999999999999

>  <m_primary>  (24) 
energy

$$$$
24:0
     RDKit          3D

 42 43  0  0  0  0  0  0  0  0999 V2000
   64.8630   33.0400   46.8440 H   0  0  0  0  0  0  0  0  0  0  0  0
   64.2580   33.4710   47.5020 O   0  0  0  0  0  0  0  0  0  0  0  0
   63.1360   32.6380   47.6320 C   0  0  2  0  0  0  0  0  0  0  0  0
   63.3178   31.6676   47.1469 H   0  0  0  0  0  0  0  0  0  0  0  0
   61.9600   33.2840   46.9440 C   0  0  0  0  0  0  0  0  0  0  0  0
   62.0833   33.6538   45.9154 H   0  0  0  0  0  0  0  0  0  0  0  0
   60.7670   33.4230   47.5450 C   0  0  0  0  0  0  0  0  0  0  0  0
   60.6050   32.9649   48.5319 H   0  0  0  0  0  0  0  0  0  0  0  0
   59.6410   34.1960   46.8940 C   0  0  1  0  0  0  0  0  0  0  0  0
   59.6011   35.0819   47.5448 H   0  0  0  0  0  0  0  0  0  0  0  0
   59.8990   34.5720   45.4380 C   0  0  0  0  0  0  0  0  0  0  0  0
   60.5648   35.4454   45.3758 H   0  0  0  0  0  0  0  0  0  0  0  0
   60.3925   33.7613   44.8818 H   0  0  0  0  0  0  0  0  0  0  0  0
   58.5240   34.9040   44.8700 C   0  0  0  0  0  0  0  0  0  0  0  0
   58.3355   35.9855   44.9394 H   0  0  0  0  0  0  0  0  0  0  0  0
   58.4539   34.6217   43.8092 H   0  0  0  0  0  0  0  0  0  0  0  0
   57.5030   34.1330   45.7170 C   0  0  1  0  0  0  0  0  0  0  0  0
   56.7181   34.8235   46.0594 H   0  0  0  0  0  0  0  0  0  0  0  0
   56.9250   33.0760   44.9700 O   0  0  0  0  0  0  0  0  0  0  0  0
   57.3880   31.8540   45.3960 C   0  0  0  0  0  0  0  0  0  0  0  0
   57.0310   30.7670   44.8720 O   0  0  0  0  0  0  0  0  0  0  0  0
   58.3540   31.9610   46.5040 C   0  0  0  0  0  0  0  0  0  0  0  0
   58.0515   31.3349   47.3564 H   0  0  0  0  0  0  0  0  0  0  0  0
   59.3647   31.6181   46.2379 H   0  0  0  0  0  0  0  0  0  0  0  0
   58.2890   33.4670   46.8650 C   0  0  1  0  0  0  0  0  0  0  0  0
   57.8550   33.5357   47.8734 H   0  0  0  0  0  0  0  0  0  0  0  0
   62.8640   32.3500   49.1250 C   0  0  0  0  0  0  0  0  0  0  0  0
   62.0523   31.6110   49.1955 H   0  0  0  0  0  0  0  0  0  0  0  0
   62.5967   33.3068   49.5972 H   0  0  0  0  0  0  0  0  0  0  0  0
   64.0960   31.7980   49.8770 C   0  0  0  0  0  0  0  0  0  0  0  0
   64.2552   30.7504   49.5818 H   0  0  0  0  0  0  0  0  0  0  0  0
   63.9043   31.8754   50.9574 H   0  0  0  0  0  0  0  0  0  0  0  0
   65.3100   32.5730   49.5660 N   0  0  0  0  0  0  0  0  0  0  0  0
   65.6760   32.2930   48.6240 H   0  0  0  0  0  0  0  0  0  0  0  0
   65.0730   33.5890   49.5270 H   0  0  0  0  0  0  0  0  0  0  0  0
   66.3640   32.4020   50.5820 C   0  0  0  0  0  0  0  0  0  0  0  0
   66.8192   31.4088   50.4544 H   0  0  0  0  0  0  0  0  0  0  0  0
   65.8949   32.5078   51.5713 H   0  0  0  0  0  0  0  0  0  0  0  0
   67.4620   33.4630   50.4720 C   0  0  0  0  0  0  0  0  0  0  0  0
   67.7786   33.7689   51.4801 H   0  0  0  0  0  0  0  0  0  0  0  0
   68.3223   33.0454   49.9284 H   0  0  0  0  0  0  0  0  0  0  0  0
   67.0741   34.3371   49.9284 H   0  0  0  0  0  0  0  0  0  0  0  0
  1  2  1  0
  2  3  1  0
  3  4  1  6
  3  5  1  0
  5  6  1  0
  5  7  2  0
  7  8  1  0
  7  9  1  0
  9 10  1  1
  9 11  1  0
 11 12  1  0
 11 13  1  0
 11 14  1  0
 14 15  1  0
 14 16  1  0
 14 17  1  0
 17 18  1  1
 17 19  1  0
 19 20  1  0
 20 21  2  0
 20 22  1  0
 22 23  1  0
 22 24  1  0
 22 25  1  0
 25 26  1  1
  3 27  1  0
 27 28  1  0
 27 29  1  0
 27 30  1  0
 30 31  1  0
 30 32  1  0
 30 33  1  0
 33 34  1  0
 33 35  1  0
 33 36  1  0
 36 37  1  0
 36 38  1  0
 36 39  1  0
 39 40  1  0
 39 41  1  0
 39 42  1  0
 25  9  1  0
 25 17  1  0
M  CHG  1  33   1
M  END
>  <UniqueID>  (25) 
23

>  <SMILES>  (25) 
CC[NH2+]CC[C@H](O)/C=C/[C@H]1CCC2OC(=O)CC21

>  <Energy>  (25) 
44.25532086608709

>  <Genealogy>  (25) 
CC[NH2+]CCC(O)C=CC1CCC2OC(=O)CC12 (protonated)
CC[NH2+]CC[C@H](O)C=C[C@H]1CCC2OC(=O)CC21 (chirality)
CC[NH2+]CC[C@H](O)/C=C/[C@H]1CCC2OC(=O)CC21 (cis-trans isomerization)
CC[NH2+]CC[C@H](O)/C=C/[C@H]1CCC2OC(=O)CC21 (3D coordinates assigned)
CC[NH2+]CC[C@H](O)/C=C/[C@H]1CCC2OC(=O)CC21 (nonaromatic ring conformer: 44.25532086608709 kcal/mol)

>  <smiles>  (25) 
CCNCCC(O)C=CC1CCC2OC(=O)CC12

>  <score_type>  (25) 
oracle

>  <origin>  (25) 
adg

>  <m_score__min__energy>  (25) 
-5.1399999999999997

>  <m_primary>  (25) 
energy

$$$$
25:0
     RDKit          3D

 61 62  0  0  0  0  0  0  0  0999 V2000
   55.8470   29.8200   43.5810 C   0  0  0  0  0  0  0  0  0  0  0  0
   57.0800   30.6950   43.7830 C   0  0  0  0  0  0  0  0  0  0  0  0
   57.1920   31.1020   45.1470 O   0  0  0  0  0  0  0  0  0  0  0  0
   57.8450   32.2580   45.6110 C   0  0  0  0  0  0  0  0  0  0  0  0
   57.8650   33.4560   44.8670 C   0  0  0  0  0  0  0  0  0  0  0  0
   58.5260   34.5850   45.3560 C   0  0  0  0  0  0  0  0  0  0  0  0
   59.1800   34.5360   46.5860 C   0  0  0  0  0  0  0  0  0  0  0  0
   59.1750   33.3580   47.3330 C   0  0  0  0  0  0  0  0  0  0  0  0
   58.5090   32.2150   46.8590 C   0  0  0  0  0  0  0  0  0  0  0  0
   58.5500   30.9570   47.6910 C   0  0  0  0  0  0  0  0  0  0  0  0
   59.9380   30.4530   47.7670 N   0  0  0  0  0  0  0  0  0  0  0  0
   60.7580   30.9560   46.6420 C   0  0  0  0  0  0  0  0  0  0  0  0
   62.1730   31.2920   47.1330 C   0  0  0  0  0  0  0  0  0  0  0  0
   62.1560   32.3230   48.1960 N   0  0  0  0  0  0  0  0  0  0  0  0
   62.5580   33.6820   47.7530 C   0  0  0  0  0  0  0  0  0  0  0  0
   63.3140   33.7170   46.4160 C   0  0  0  0  0  0  0  0  0  0  0  0
   62.8810   31.8890   49.4110 C   0  0  0  0  0  0  0  0  0  0  0  0
   64.3070   32.4270   49.3800 C   0  0  0  0  0  0  0  0  0  0  0  0
   59.9670   28.9760   47.8330 C   0  0  0  0  0  0  0  0  0  0  0  0
   59.1860   28.4000   46.6820 C   0  0  0  0  0  0  0  0  0  0  0  0
   59.7390   28.4030   45.3940 C   0  0  0  0  0  0  0  0  0  0  0  0
   59.0330   27.8500   44.3230 C   0  0  0  0  0  0  0  0  0  0  0  0
   57.7710   27.2870   44.5300 C   0  0  0  0  0  0  0  0  0  0  0  0
   57.2040   27.2740   45.8190 C   0  0  0  0  0  0  0  0  0  0  0  0
   55.9420   26.7200   46.0790 O   0  0  0  0  0  0  0  0  0  0  0  0
   55.6170   25.3450   45.9030 C   0  0  0  0  0  0  0  0  0  0  0  0
   57.9180   27.8310   46.8870 C   0  0  0  0  0  0  0  0  0  0  0  0
   55.4386   29.5302   44.5604 H   0  0  0  0  0  0  0  0  0  0  0  0
   55.0868   30.3819   43.0185 H   0  0  0  0  0  0  0  0  0  0  0  0
   56.1264   28.9170   43.0185 H   0  0  0  0  0  0  0  0  0  0  0  0
   57.9775   30.1247   43.5015 H   0  0  0  0  0  0  0  0  0  0  0  0
   56.9844   31.5917   43.1531 H   0  0  0  0  0  0  0  0  0  0  0  0
   57.3556   33.5016   43.8931 H   0  0  0  0  0  0  0  0  0  0  0  0
   58.5305   35.5153   44.7690 H   0  0  0  0  0  0  0  0  0  0  0  0
   59.7003   35.4268   46.9678 H   0  0  0  0  0  0  0  0  0  0  0  0
   59.6966   33.3235   48.3009 H   0  0  0  0  0  0  0  0  0  0  0  0
   58.1854   31.1776   48.7051 H   0  0  0  0  0  0  0  0  0  0  0  0
   57.9105   30.1924   47.2259 H   0  0  0  0  0  0  0  0  0  0  0  0
   60.8173   30.1840   45.8607 H   0  0  0  0  0  0  0  0  0  0  0  0
   60.2921   31.8650   46.2337 H   0  0  0  0  0  0  0  0  0  0  0  0
   62.6382   30.3781   47.5308 H   0  0  0  0  0  0  0  0  0  0  0  0
   62.7453   31.6884   46.2813 H   0  0  0  0  0  0  0  0  0  0  0  0
   61.6491   34.2930   47.6502 H   0  0  0  0  0  0  0  0  0  0  0  0
   63.2509   34.0680   48.5152 H   0  0  0  0  0  0  0  0  0  0  0  0
   64.3960   33.7671   46.6078 H   0  0  0  0  0  0  0  0  0  0  0  0
   63.0852   32.8073   45.8415 H   0  0  0  0  0  0  0  0  0  0  0  0
   63.0021   34.6017   45.8415 H   0  0  0  0  0  0  0  0  0  0  0  0
   62.3643   32.2747   50.3022 H   0  0  0  0  0  0  0  0  0  0  0  0
   62.9077   30.7899   49.4454 H   0  0  0  0  0  0  0  0  0  0  0  0
   64.6697   32.5638   50.4094 H   0  0  0  0  0  0  0  0  0  0  0  0
   64.9572   31.7124   48.8541 H   0  0  0  0  0  0  0  0  0  0  0  0
   64.3231   33.3930   48.8541 H   0  0  0  0  0  0  0  0  0  0  0  0
   61.0091   28.6281   47.7780 H   0  0  0  0  0  0  0  0  0  0  0  0
   59.5161   28.6453   48.7803 H   0  0  0  0  0  0  0  0  0  0  0  0
   60.7332   28.8427   45.2259 H   0  0  0  0  0  0  0  0  0  0  0  0
   59.4716   27.8578   43.3142 H   0  0  0  0  0  0  0  0  0  0  0  0
   57.2188   26.8527   43.6836 H   0  0  0  0  0  0  0  0  0  0  0  0
   55.5038   24.8661   46.8868 H   0  0  0  0  0  0  0  0  0  0  0  0
   54.6740   25.2599   45.3431 H   0  0  0  0  0  0  0  0  0  0  0  0
   56.4221   24.8467   45.3431 H   0  0  0  0  0  0  0  0  0  0  0  0
   57.4816   27.8230   47.8967 H   0  0  0  0  0  0  0  0  0  0  0  0
  1  2  1  0
  2  3  1  0
  3  4  1  0
  4  5  2  0
  5  6  1  0
  6  7  2  0
  7  8  1  0
  8  9  2  0
  9 10  1  0
 10 11  1  0
 11 12  1  0
 12 13  1  0
 13 14  1  0
 14 15  1  0
 15 16  1  0
 14 17  1  0
 17 18  1  0
 11 19  1  0
 19 20  1  0
 20 21  2  0
 21 22  1  0
 22 23  2  0
 23 24  1  0
 24 25  1  0
 25 26  1  0
 24 27  2  0
  9  4  1  0
 27 20  1  0
  1 28  1  0
  1 29  1  0
  1 30  1  0
  2 31  1  0
  2 32  1  0
  5 33  1  0
  6 34  1  0
  7 35  1  0
  8 36  1  0
 10 37  1  0
 10 38  1  0
 12 39  1  0
 12 40  1  0
 13 41  1  0
 13 42  1  0
 15 43  1  0
 15 44  1  0
 16 45  1  0
 16 46  1  0
 16 47  1  0
 17 48  1  0
 17 49  1  0
 18 50  1  0
 18 51  1  0
 18 52  1  0
 19 53  1  0
 19 54  1  0
 21 55  1  0
 22 56  1  0
 23 57  1  0
 26 58  1  0
 26 59  1  0
 26 60  1  0
 27 61  1  0
M  END
>  <UniqueID>  (26) 
24

>  <SMILES>  (26) 
CCOc1ccccc1CN(CCN(CC)CC)Cc1cccc(OC)c1

>  <Energy>  (26) 
60.12488485855418

>  <Genealogy>  (26) 
CCOc1ccccc1CN(CCN(CC)CC)Cc1cccc(OC)c1 (3D coordinates assigned)
CCOc1ccccc1CN(CCN(CC)CC)Cc1cccc(OC)c1 (optimized conformer: 60.12488485855418 kcal/mol)

>  <smiles>  (26) 
CCOc1ccccc1CN(CCN(CC)CC)Cc1cccc(OC)c1

>  <score_type>  (26) 
oracle

>  <origin>  (26) 
adg

>  <m_score__min__energy>  (26) 
-8.0399999999999991

>  <m_primary>  (26) 
energy

$$$$
26:0
     RDKit          3D

 55 57  0  0  0  0  0  0  0  0999 V2000
   55.8970   30.0880   43.5790 C   0  0  0  0  0  0  0  0  0  0  0  0
   56.3720   29.8030   44.8900 O   0  0  0  0  0  0  0  0  0  0  0  0
   57.6950   29.4490   45.1990 C   0  0  0  0  0  0  0  0  0  0  0  0
   58.1090   28.1030   45.2720 C   0  0  0  0  0  0  0  0  0  0  0  0
   59.4390   27.7860   45.5520 C   0  0  0  0  0  0  0  0  0  0  0  0
   60.3720   28.8030   45.7600 C   0  0  0  0  0  0  0  0  0  0  0  0
   59.9750   30.1400   45.6950 C   0  0  0  0  0  0  0  0  0  0  0  0
   58.6380   30.4720   45.4240 C   0  0  0  0  0  0  0  0  0  0  0  0
   58.2450   31.8540   45.3820 N   0  0  0  0  0  0  0  0  0  0  0  0
   58.4570   32.6420   44.1670 C   0  0  0  0  0  0  0  0  0  0  0  0
   59.2660   33.8960   44.5080 C   0  0  0  0  0  0  0  0  0  0  0  0
   58.7030   34.6350   45.6610 N   0  0  0  0  0  0  0  0  0  0  0  0
   59.6650   35.4400   46.4460 C   0  0  0  0  0  0  0  0  0  0  0  0
   60.4750   34.6570   47.5080 C   0  0  1  0  0  0  0  0  0  0  0  0
   59.5840   34.0330   48.5870 C   0  0  0  0  0  0  0  0  0  0  0  0
   61.1900   33.6200   46.8340 O   0  0  0  0  0  0  0  0  0  0  0  0
   62.5730   33.4240   46.9470 C   0  0  0  0  0  0  0  0  0  0  0  0
   63.3450   33.8040   46.0240 O   0  0  0  0  0  0  0  0  0  0  0  0
   63.1240   32.7640   48.1520 C   0  0  0  0  0  0  0  0  0  0  0  0
   62.3920   31.7670   48.8210 C   0  0  0  0  0  0  0  0  0  0  0  0
   62.9130   31.1540   49.9630 C   0  0  0  0  0  0  0  0  0  0  0  0
   64.1690   31.5220   50.4470 C   0  0  0  0  0  0  0  0  0  0  0  0
   64.9220   32.5010   49.7830 C   0  0  0  0  0  0  0  0  0  0  0  0
   66.2560   32.9250   50.3240 C   0  0  0  0  0  0  0  0  0  0  0  0
   64.3890   33.1300   48.6460 C   0  0  0  0  0  0  0  0  0  0  0  0
   57.5760   34.0190   46.3970 C   0  0  0  0  0  0  0  0  0  0  0  0
   57.7670   32.5090   46.6050 C   0  0  0  0  0  0  0  0  0  0  0  0
   54.9555   30.6529   43.6449 H   0  0  0  0  0  0  0  0  0  0  0  0
   56.6463   30.6858   43.0394 H   0  0  0  0  0  0  0  0  0  0  0  0
   55.7221   29.1455   43.0394 H   0  0  0  0  0  0  0  0  0  0  0  0
   57.3786   27.2972   45.1071 H   0  0  0  0  0  0  0  0  0  0  0  0
   59.7524   26.7331   45.6088 H   0  0  0  0  0  0  0  0  0  0  0  0
   61.4209   28.5510   45.9753 H   0  0  0  0  0  0  0  0  0  0  0  0
   60.7143   30.9382   45.8571 H   0  0  0  0  0  0  0  0  0  0  0  0
   59.0080   32.0391   43.4302 H   0  0  0  0  0  0  0  0  0  0  0  0
   57.4843   32.9360   43.7457 H   0  0  0  0  0  0  0  0  0  0  0  0
   60.2966   33.5967   44.7495 H   0  0  0  0  0  0  0  0  0  0  0  0
   59.2343   34.5634   43.6342 H   0  0  0  0  0  0  0  0  0  0  0  0
   60.3782   35.8964   45.7438 H   0  0  0  0  0  0  0  0  0  0  0  0
   59.0631   36.1728   47.0034 H   0  0  0  0  0  0  0  0  0  0  0  0
   61.1518   35.3598   48.0160 H   0  0  0  0  0  0  0  0  0  0  0  0
   59.9690   34.3026   49.5815 H   0  0  0  0  0  0  0  0  0  0  0  0
   58.5564   34.4099   48.4771 H   0  0  0  0  0  0  0  0  0  0  0  0
   59.5869   32.9385   48.4771 H   0  0  0  0  0  0  0  0  0  0  0  0
   61.4033   31.4680   48.4428 H   0  0  0  0  0  0  0  0  0  0  0  0
   62.3311   30.3785   50.4826 H   0  0  0  0  0  0  0  0  0  0  0  0
   64.5697   31.0426   51.3523 H   0  0  0  0  0  0  0  0  0  0  0  0
   66.2256   32.9153   51.4235 H   0  0  0  0  0  0  0  0  0  0  0  0
   67.0322   32.2293   49.9725 H   0  0  0  0  0  0  0  0  0  0  0  0
   66.4880   33.9412   49.9725 H   0  0  0  0  0  0  0  0  0  0  0  0
   64.9662   33.9161   48.1372 H   0  0  0  0  0  0  0  0  0  0  0  0
   57.4903   34.5030   47.3811 H   0  0  0  0  0  0  0  0  0  0  0  0
   56.6656   34.1620   45.7965 H   0  0  0  0  0  0  0  0  0  0  0  0
   58.5025   32.3489   47.4071 H   0  0  0  0  0  0  0  0  0  0  0  0
   56.7939   32.0717   46.8730 H   0  0  0  0  0  0  0  0  0  0  0  0
  1  2  1  0
  2  3  1  0
  3  4  2  0
  4  5  1  0
  5  6  2  0
  6  7  1  0
  7  8  2  0
  8  9  1  0
  9 10  1  0
 10 11  1  0
 11 12  1  0
 12 13  1  0
 13 14  1  0
 14 15  1  0
 14 16  1  0
 16 17  1  0
 17 18  2  0
 17 19  1  0
 19 20  2  0
 20 21  1  0
 21 22  2  0
 22 23  1  0
 23 24  1  0
 23 25  2  0
 12 26  1  0
 26 27  1  0
  8  3  1  0
 27  9  1  0
 25 19  1  0
  1 28  1  0
  1 29  1  0
  1 30  1  0
  4 31  1  0
  5 32  1  0
  6 33  1  0
  7 34  1  0
 10 35  1  0
 10 36  1  0
 11 37  1  0
 11 38  1  0
 13 39  1  0
 13 40  1  0
 14 41  1  1
 15 42  1  0
 15 43  1  0
 15 44  1  0
 20 45  1  0
 21 46  1  0
 22 47  1  0
 24 48  1  0
 24 49  1  0
 24 50  1  0
 25 51  1  0
 26 52  1  0
 26 53  1  0
 27 54  1  0
 27 55  1  0
M  END
>  <UniqueID>  (27) 
25

>  <SMILES>  (27) 
COc1ccccc1N1CCN(C[C@@H](C)OC(=O)c2cccc(C)c2)CC1

>  <Energy>  (27) 
69.51514239859854

>  <Genealogy>  (27) 
COc1ccccc1N1CCN(C[C@@H](C)OC(=O)c2cccc(C)c2)CC1 (chirality)
COc1ccccc1N1CCN(C[C@@H](C)OC(=O)c2cccc(C)c2)CC1 (3D coordinates assigned)
COc1ccccc1N1CCN(C[C@@H](C)OC(=O)c2cccc(C)c2)CC1 (nonaromatic ring conformer: 69.51514239859854 kcal/mol)

>  <smiles>  (27) 
COc1ccccc1N1CCN(CC(C)OC(=O)c2cccc(C)c2)CC1

>  <score_type>  (27) 
oracle

>  <origin>  (27) 
adg

>  <m_score__min__energy>  (27) 
-8.4100000000000001

>  <m_primary>  (27) 
energy

$$$$
27:0
     RDKit          3D

 61 64  0  0  0  0  0  0  0  0999 V2000
   66.0260   33.3960   50.4840 C   0  0  0  0  0  0  0  0  0  0  0  0
   64.6270   33.4430   49.9400 C   0  0  0  0  0  0  0  0  0  0  0  0
   63.5760   33.8910   50.7520 C   0  0  0  0  0  0  0  0  0  0  0  0
   62.2750   33.9590   50.2450 C   0  0  0  0  0  0  0  0  0  0  0  0
   62.0050   33.5900   48.9140 C   0  0  0  0  0  0  0  0  0  0  0  0
   60.6590   33.6570   48.3980 N   0  0  0  0  0  0  0  0  0  0  0  0
   60.3150   34.5860   47.3150 C   0  0  0  0  0  0  0  0  0  0  0  0
   59.5100   33.8680   46.2130 C   0  0  0  0  0  0  0  0  0  0  0  0
   58.8140   32.6490   46.7000 N   0  0  0  0  0  0  0  0  0  0  0  0
   57.7040   32.2520   45.8040 C   0  0  0  0  0  0  0  0  0  0  0  0
   57.7030   33.1130   44.5320 C   0  0  0  0  0  0  0  0  0  0  0  0
   57.4330   32.3050   43.2500 C   0  0  0  0  0  0  0  0  0  0  0  0
   57.8460   30.9060   43.3800 N   0  0  0  0  0  0  0  0  0  0  0  0
   57.0470   29.9100   44.0420 C   0  0  0  0  0  0  0  0  0  0  0  0
   55.9160   30.2110   44.5110 O   0  0  0  0  0  0  0  0  0  0  0  0
   57.5350   28.4930   44.1620 C   0  0  0  0  0  0  0  0  0  0  0  0
   57.8840   28.1720   45.5590 N   0  0  0  0  0  0  0  0  0  0  0  0
   57.1580   27.1350   46.2570 C   0  0  0  0  0  0  0  0  0  0  0  0
   56.0610   26.7010   45.8140 O   0  0  0  0  0  0  0  0  0  0  0  0
   57.7460   26.5080   47.4830 C   0  0  0  0  0  0  0  0  0  0  0  0
   58.5530   27.4370   48.2030 O   0  0  0  0  0  0  0  0  0  0  0  0
   59.2870   28.4450   47.5710 C   0  0  0  0  0  0  0  0  0  0  0  0
   60.3220   29.0740   48.2680 C   0  0  0  0  0  0  0  0  0  0  0  0
   61.0830   30.0680   47.6520 C   0  0  0  0  0  0  0  0  0  0  0  0
   60.7990   30.4480   46.3390 C   0  0  0  0  0  0  0  0  0  0  0  0
   59.7550   29.8380   45.6390 C   0  0  0  0  0  0  0  0  0  0  0  0
   58.9840   28.8230   46.2450 C   0  0  0  0  0  0  0  0  0  0  0  0
   58.3650   32.7880   48.0990 C   0  0  0  0  0  0  0  0  0  0  0  0
   59.5890   32.8620   49.0170 C   0  0  0  0  0  0  0  0  0  0  0  0
   63.0670   33.1750   48.0920 C   0  0  0  0  0  0  0  0  0  0  0  0
   64.3700   33.1060   48.6000 C   0  0  0  0  0  0  0  0  0  0  0  0
   65.9921   33.3971   51.5835 H   0  0  0  0  0  0  0  0  0  0  0  0
   66.5251   32.4806   50.1335 H   0  0  0  0  0  0  0  0  0  0  0  0
   66.5855   34.2759   50.1335 H   0  0  0  0  0  0  0  0  0  0  0  0
   63.7756   34.1901   51.7916 H   0  0  0  0  0  0  0  0  0  0  0  0
   61.4551   34.3040   50.8921 H   0  0  0  0  0  0  0  0  0  0  0  0
   59.7112   35.4094   47.7243 H   0  0  0  0  0  0  0  0  0  0  0  0
   61.2452   34.9752   46.8754 H   0  0  0  0  0  0  0  0  0  0  0  0
   58.7576   34.5664   45.8177 H   0  0  0  0  0  0  0  0  0  0  0  0
   60.2243   33.5507   45.4390 H   0  0  0  0  0  0  0  0  0  0  0  0
   57.8248   31.1948   45.5251 H   0  0  0  0  0  0  0  0  0  0  0  0
   56.7508   32.3990   46.3330 H   0  0  0  0  0  0  0  0  0  0  0  0
   56.9223   33.8815   44.6312 H   0  0  0  0  0  0  0  0  0  0  0  0
   58.7069   33.5520   44.4350 H   0  0  0  0  0  0  0  0  0  0  0  0
   56.3554   32.3373   43.0314 H   0  0  0  0  0  0  0  0  0  0  0  0
   58.0205   32.7561   42.4367 H   0  0  0  0  0  0  0  0  0  0  0  0
   58.7450   30.6210   42.9320 H   0  0  0  0  0  0  0  0  0  0  0  0
   56.7427   27.8095   43.8227 H   0  0  0  0  0  0  0  0  0  0  0  0
   58.4349   28.3778   43.5400 H   0  0  0  0  0  0  0  0  0  0  0  0
   56.9304   26.1614   48.1346 H   0  0  0  0  0  0  0  0  0  0  0  0
   58.3803   25.6648   47.1719 H   0  0  0  0  0  0  0  0  0  0  0  0
   60.5377   28.7842   49.3070 H   0  0  0  0  0  0  0  0  0  0  0  0
   61.9053   30.5514   48.1999 H   0  0  0  0  0  0  0  0  0  0  0  0
   61.3998   31.2311   45.8535 H   0  0  0  0  0  0  0  0  0  0  0  0
   59.5324   30.1510   44.6083 H   0  0  0  0  0  0  0  0  0  0  0  0
   57.7700   33.7072   48.2046 H   0  0  0  0  0  0  0  0  0  0  0  0
   57.7475   31.9209   48.3763 H   0  0  0  0  0  0  0  0  0  0  0  0
   59.2977   33.3291   49.9693 H   0  0  0  0  0  0  0  0  0  0  0  0
   59.9626   31.8418   49.1891 H   0  0  0  0  0  0  0  0  0  0  0  0
   62.8734   32.9029   47.0439 H   0  0  0  0  0  0  0  0  0  0  0  0
   65.1960   32.7867   47.9475 H   0  0  0  0  0  0  0  0  0  0  0  0
  1  2  1  0
  2  3  2  0
  3  4  1  0
  4  5  2  0
  5  6  1  0
  6  7  1  0
  7  8  1  0
  8  9  1  0
  9 10  1  0
 10 11  1  0
 11 12  1  0
 12 13  1  0
 13 14  1  0
 14 15  2  0
 14 16  1  0
 16 17  1  0
 17 18  1  0
 18 19  2  0
 18 20  1  0
 20 21  1  0
 21 22  1  0
 22 23  2  0
 23 24  1  0
 24 25  2  0
 25 26  1  0
 26 27  2  0
  9 28  1  0
 28 29  1  0
  5 30  1  0
 30 31  2  0
 31  2  1  0
 29  6  1  0
 27 17  1  0
 27 22  1  0
  1 32  1  0
  1 33  1  0
  1 34  1  0
  3 35  1  0
  4 36  1  0
  7 37  1  0
  7 38  1  0
  8 39  1  0
  8 40  1  0
 10 41  1  0
 10 42  1  0
 11 43  1  0
 11 44  1  0
 12 45  1  0
 12 46  1  0
 13 47  1  0
 16 48  1  0
 16 49  1  0
 20 50  1  0
 20 51  1  0
 23 52  1  0
 24 53  1  0
 25 54  1  0
 26 55  1  0
 28 56  1  0
 28 57  1  0
 29 58  1  0
 29 59  1  0
 30 60  1  0
 31 61  1  0
M  END
>  <UniqueID>  (28) 
26

>  <SMILES>  (28) 
Cc1ccc(N2CCN(CCCNC(=O)CN3C(=O)COc4ccccc43)CC2)cc1

>  <Energy>  (28) 
68.58915425944559

>  <Genealogy>  (28) 
Cc1ccc(N2CCN(CCCNC(=O)CN3C(=O)COc4ccccc43)CC2)cc1 (3D coordinates assigned)
Cc1ccc(N2CCN(CCCNC(=O)CN3C(=O)COc4ccccc43)CC2)cc1 (nonaromatic ring conformer: 68.58915425944559 kcal/mol)

>  <smiles>  (28) 
Cc1ccc(N2CCN(CCCNC(=O)CN3C(=O)COc4ccccc43)CC2)cc1

>  <score_type>  (28) 
oracle

>  <origin>  (28) 
adg

>  <m_score__min__energy>  (28) 
-8.9900000000000002

>  <m_primary>  (28) 
energy

$$$$
28:0
     RDKit          3D

 49 50  0  0  0  0  0  0  0  0999 V2000
   55.5110   23.6310   43.9860 C   0  0  0  0  0  0  0  0  0  0  0  0
   54.5640   23.6770   45.1760 C   0  0  0  0  0  0  0  0  0  0  0  0
   55.1770   24.4270   46.2630 N   0  0  0  0  0  0  0  0  0  0  0  0
   55.8430   25.6750   46.0600 C   0  0  0  0  0  0  0  0  0  0  0  0
   55.1790   26.7390   45.9290 O   0  0  0  0  0  0  0  0  0  0  0  0
   57.3370   25.7240   46.0270 C   0  0  0  0  0  0  0  0  0  0  0  0
   57.7890   27.0760   46.0110 O   0  0  0  0  0  0  0  0  0  0  0  0
   57.8560   27.8520   44.8460 C   0  0  0  0  0  0  0  0  0  0  0  0
   57.9070   27.2910   43.7160 O   0  0  0  0  0  0  0  0  0  0  0  0
   57.8680   29.3280   44.9450 C   0  0  0  0  0  0  0  0  0  0  0  0
   57.3860   30.1080   43.8850 C   0  0  0  0  0  0  0  0  0  0  0  0
   57.3690   31.4980   43.9860 C   0  0  0  0  0  0  0  0  0  0  0  0
   57.8440   32.1350   45.1350 C   0  0  0  0  0  0  0  0  0  0  0  0
   57.7050   34.0510   45.1890 Br  0  0  0  0  0  0  0  0  0  0  0  0
   58.3650   31.3710   46.2060 C   0  0  0  0  0  0  0  0  0  0  0  0
   58.9760   32.1820   47.6720 S   0  0  0  0  0  0  0  0  0  0  0  0
   59.5860   31.1340   48.5600 O   0  0  0  0  0  0  0  0  0  0  0  0
   57.8040   32.7900   48.3910 O   0  0  0  0  0  0  0  0  0  0  0  0
   60.1470   33.4650   47.4230 N   0  0  0  0  0  0  0  0  0  0  0  0
   61.1360   33.1010   46.3750 C   0  0  0  0  0  0  0  0  0  0  0  0
   62.4410   33.9080   46.5120 C   0  0  0  0  0  0  0  0  0  0  0  0
   63.4990   33.2130   47.3820 C   0  0  0  0  0  0  0  0  0  0  0  0
   63.2520   33.3610   48.8910 C   0  0  0  0  0  0  0  0  0  0  0  0
   61.8210   32.9620   49.2860 C   0  0  0  0  0  0  0  0  0  0  0  0
   60.7270   33.8910   48.7200 C   0  0  0  0  0  0  0  0  0  0  0  0
   58.3480   29.9680   46.1010 C   0  0  0  0  0  0  0  0  0  0  0  0
   56.5494   23.5806   44.3455 H   0  0  0  0  0  0  0  0  0  0  0  0
   55.2906   22.7425   43.3761 H   0  0  0  0  0  0  0  0  0  0  0  0
   55.3777   24.5367   43.3761 H   0  0  0  0  0  0  0  0  0  0  0  0
   53.6255   24.1670   44.8776 H   0  0  0  0  0  0  0  0  0  0  0  0
   54.3543   22.6515   45.5142 H   0  0  0  0  0  0  0  0  0  0  0  0
   57.7361   25.2188   46.9189 H   0  0  0  0  0  0  0  0  0  0  0  0
   57.6909   25.2183   45.1165 H   0  0  0  0  0  0  0  0  0  0  0  0
   57.0195   29.6210   42.9693 H   0  0  0  0  0  0  0  0  0  0  0  0
   56.9775   32.0996   43.1524 H   0  0  0  0  0  0  0  0  0  0  0  0
   59.5660   34.2640   47.0770 H   0  0  0  0  0  0  0  0  0  0  0  0
   61.3694   32.0297   46.4630 H   0  0  0  0  0  0  0  0  0  0  0  0
   60.6940   33.3312   45.3943 H   0  0  0  0  0  0  0  0  0  0  0  0
   62.8623   34.0630   45.5078 H   0  0  0  0  0  0  0  0  0  0  0  0
   62.1859   34.8568   47.0066 H   0  0  0  0  0  0  0  0  0  0  0  0
   63.5029   32.1413   47.1342 H   0  0  0  0  0  0  0  0  0  0  0  0
   64.4624   33.6975   47.1649 H   0  0  0  0  0  0  0  0  0  0  0  0
   63.9614   32.7168   49.4311 H   0  0  0  0  0  0  0  0  0  0  0  0
   63.3928   34.4197   49.1544 H   0  0  0  0  0  0  0  0  0  0  0  0
   61.6328   31.9428   48.9175 H   0  0  0  0  0  0  0  0  0  0  0  0
   61.7630   33.0361   50.3820 H   0  0  0  0  0  0  0  0  0  0  0  0
   59.9116   33.9448   49.4563 H   0  0  0  0  0  0  0  0  0  0  0  0
   61.2146   34.8592   48.5335 H   0  0  0  0  0  0  0  0  0  0  0  0
   58.7175   29.3600   46.9399 H   0  0  0  0  0  0  0  0  0  0  0  0
  1  2  1  0
  2  3  1  0
  3  4  1  0
  4  5  2  0
  4  6  1  0
  6  7  1  0
  7  8  1  0
  8  9  2  0
  8 10  1  0
 10 11  2  0
 11 12  1  0
 12 13  2  0
 13 14  1  0
 13 15  1  0
 15 16  1  0
 16 17  2  0
 16 18  2  0
 16 19  1  0
 19 20  1  0
 20 21  1  0
 21 22  1  0
 22 23  1  0
 23 24  1  0
 24 25  1  0
 15 26  2  0
 26 10  1  0
 25 19  1  0
  1 27  1  0
  1 28  1  0
  1 29  1  0
  2 30  1  0
  2 31  1  0
  6 32  1  0
  6 33  1  0
 11 34  1  0
 12 35  1  0
 19 36  1  0
 20 37  1  0
 20 38  1  0
 21 39  1  0
 21 40  1  0
 22 41  1  0
 22 42  1  0
 23 43  1  0
 23 44  1  0
 24 45  1  0
 24 46  1  0
 25 47  1  0
 25 48  1  0
 26 49  1  0
M  CHG  2   3  -1  19   1
M  END
>  <UniqueID>  (29) 
27

>  <SMILES>  (29) 
CC[N-]C(=O)COC(=O)c1ccc(Br)c(S(=O)(=O)[NH+]2CCCCCC2)c1

>  <Energy>  (29) 
50.89430601138235

>  <Genealogy>  (29) 
CC[N-]C(=O)COC(=O)c1ccc(Br)c(S(=O)(=O)[NH+]2CCCCCC2)c1 (protonated)
CC[N-]C(=O)COC(=O)c1ccc(Br)c(S(=O)(=O)[NH+]2CCCCCC2)c1 (3D coordinates assigned)
CC[N-]C(=O)COC(=O)c1ccc(Br)c(S(=O)(=O)[NH+]2CCCCCC2)c1 (nonaromatic ring conformer: 50.89430601138235 kcal/mol)

>  <smiles>  (29) 
CCNC(=O)COC(=O)c1ccc(Br)c(S(=O)(=O)N2CCCCCC2)c1

>  <score_type>  (29) 
oracle

>  <origin>  (29) 
adg

>  <m_score__min__energy>  (29) 
-7.0599999999999996

>  <m_primary>  (29) 
energy

$$$$
29:0
     RDKit          3D

 45 49  0  0  0  0  0  0  0  0999 V2000
   56.1550   22.5240   48.2720 C   0  0  0  0  0  0  0  0  0  0  0  0
   57.3970   23.0520   47.8160 O   0  0  0  0  0  0  0  0  0  0  0  0
   57.5250   24.1400   46.9370 C   0  0  0  0  0  0  0  0  0  0  0  0
   57.7790   25.4440   47.3990 C   0  0  0  0  0  0  0  0  0  0  0  0
   57.9020   26.5060   46.5010 C   0  0  0  0  0  0  0  0  0  0  0  0
   58.1490   27.7590   46.9790 N   0  0  0  0  0  0  0  0  0  0  0  0
   58.2680   28.7900   46.1130 C   0  0  0  0  0  0  0  0  0  0  0  0
   58.1520   28.6390   44.7550 C   0  0  0  0  0  0  0  0  0  0  0  0
   57.8990   27.3760   44.1990 C   0  0  0  0  0  0  0  0  0  0  0  0
   57.7710   27.2110   42.7050 C   0  0  0  0  0  0  0  0  0  0  0  0
   57.7690   26.2770   45.0980 C   0  0  0  0  0  0  0  0  0  0  0  0
   57.5150   24.9670   44.6490 C   0  0  0  0  0  0  0  0  0  0  0  0
   57.3930   23.9010   45.5620 C   0  0  0  0  0  0  0  0  0  0  0  0
   57.1390   22.5850   45.1400 O   0  0  0  0  0  0  0  0  0  0  0  0
   58.0290   21.8000   44.3540 C   0  0  0  0  0  0  0  0  0  0  0  0
   58.3370   29.9780   44.0910 C   0  0  0  0  0  0  0  0  0  0  0  0
   58.5660   30.8720   45.2330 N   0  0  0  0  0  0  0  0  0  0  0  0
   58.5240   30.1790   46.3910 C   0  0  0  0  0  0  0  0  0  0  0  0
   58.7120   30.7990   47.6230 C   0  0  0  0  0  0  0  0  0  0  0  0
   58.9510   32.1840   47.6330 C   0  0  0  0  0  0  0  0  0  0  0  0
   59.1470   32.8600   48.8480 C   0  0  0  0  0  0  0  0  0  0  0  0
   59.3830   34.2360   48.8560 C   0  0  0  0  0  0  0  0  0  0  0  0
   59.4250   34.9510   47.6560 C   0  0  0  0  0  0  0  0  0  0  0  0
   59.2320   34.2950   46.4360 C   0  0  0  0  0  0  0  0  0  0  0  0
   58.9930   32.9080   46.4090 C   0  0  0  0  0  0  0  0  0  0  0  0
   58.7930   32.2140   45.1940 C   0  0  0  0  0  0  0  0  0  0  0  0
   58.8240   32.8180   44.0870 O   0  0  0  0  0  0  0  0  0  0  0  0
   56.1408   22.5180   49.3719 H   0  0  0  0  0  0  0  0  0  0  0  0
   55.3312   23.1497   47.8981 H   0  0  0  0  0  0  0  0  0  0  0  0
   56.0339   21.4966   47.8981 H   0  0  0  0  0  0  0  0  0  0  0  0
   57.8817   25.6289   48.4785 H   0  0  0  0  0  0  0  0  0  0  0  0
   57.1103   26.3594   42.4854 H   0  0  0  0  0  0  0  0  0  0  0  0
   57.3450   28.1272   42.2701 H   0  0  0  0  0  0  0  0  0  0  0  0
   58.7643   27.0262   42.2701 H   0  0  0  0  0  0  0  0  0  0  0  0
   57.4104   24.7733   43.5712 H   0  0  0  0  0  0  0  0  0  0  0  0
   58.6877   21.2190   45.0162 H   0  0  0  0  0  0  0  0  0  0  0  0
   57.4494   21.1136   43.7192 H   0  0  0  0  0  0  0  0  0  0  0  0
   58.6376   22.4608   43.7192 H   0  0  0  0  0  0  0  0  0  0  0  0
   59.2036   29.9691   43.4135 H   0  0  0  0  0  0  0  0  0  0  0  0
   57.4839   30.2777   43.4646 H   0  0  0  0  0  0  0  0  0  0  0  0
   58.6747   30.2230   48.5594 H   0  0  0  0  0  0  0  0  0  0  0  0
   59.1145   32.3037   49.7964 H   0  0  0  0  0  0  0  0  0  0  0  0
   59.5366   34.7597   49.8111 H   0  0  0  0  0  0  0  0  0  0  0  0
   59.6108   36.0351   47.6711 H   0  0  0  0  0  0  0  0  0  0  0  0
   59.2670   34.8642   45.4954 H   0  0  0  0  0  0  0  0  0  0  0  0
  1  2  1  0
  2  3  1  0
  3  4  2  0
  4  5  1  0
  5  6  2  0
  6  7  1  0
  7  8  2  0
  8  9  1  0
  9 10  1  0
  9 11  2  0
 11 12  1  0
 12 13  2  0
 13 14  1  0
 14 15  1  0
  8 16  1  0
 16 17  1  0
 17 18  1  0
 18 19  2  0
 19 20  1  0
 20 21  2  0
 21 22  1  0
 22 23  2  0
 23 24  1  0
 24 25  2  0
 25 26  1  0
 26 27  2  0
 13  3  1  0
 26 17  1  0
 11  5  1  0
 25 20  1  0
 18  7  1  0
  1 28  1  0
  1 29  1  0
  1 30  1  0
  4 31  1  0
 10 32  1  0
 10 33  1  0
 10 34  1  0
 12 35  1  0
 15 36  1  0
 15 37  1  0
 15 38  1  0
 16 39  1  0
 16 40  1  0
 19 41  1  0
 21 42  1  0
 22 43  1  0
 23 44  1  0
 24 45  1  0
M  END
>  <UniqueID>  (30) 
28

>  <SMILES>  (30) 
COc1cc2nc3c(c(C)c2cc1OC)Cn1c-3cc2ccccc2c1=O

>  <Energy>  (30) 
85.36556352055153

>  <Genealogy>  (30) 
COc1cc2nc3c(c(C)c2cc1OC)Cn1c-3cc2ccccc2c1=O (3D coordinates assigned)
COc1cc2nc3c(c(C)c2cc1OC)Cn1c-3cc2ccccc2c1=O (nonaromatic ring conformer: 85.36556352055153 kcal/mol)

>  <smiles>  (30) 
COc1cc2nc3c(c(C)c2cc1OC)Cn1c-3cc2ccccc2c1=O

>  <score_type>  (30) 
oracle

>  <origin>  (30) 
adg

>  <m_score__min__energy>  (30) 
-7.4699999999999998

>  <m_primary>  (30) 
energy

$$$$
30:0
     RDKit          3D

 50 52  0  0  0  0  0  0  0  0999 V2000
   57.8900   22.7040   45.4000 C   0  0  0  0  0  0  0  0  0  0  0  0
   57.3720   23.5480   46.5590 C   0  0  0  0  0  0  0  0  0  0  0  0
   57.6400   24.9820   46.2980 N   0  0  0  0  0  0  0  0  0  0  0  0
   56.6800   25.5480   45.3250 C   0  0  0  0  0  0  0  0  0  0  0  0
   55.9090   26.6920   45.9760 C   0  0  0  0  0  0  0  0  0  0  0  0
   56.6450   27.9410   45.8360 N   0  0  0  0  0  0  0  0  0  0  0  0
   56.3170   28.9690   44.8930 C   0  0  0  0  0  0  0  0  0  0  0  0
   55.1550   29.4540   44.9050 O   0  0  0  0  0  0  0  0  0  0  0  0
   57.3100   29.4760   43.8770 C   0  0  0  0  0  0  0  0  0  0  0  0
   57.7790   30.8340   44.2110 N   0  0  0  0  0  0  0  0  0  0  0  0
   58.0040   31.7190   43.1930 C   0  0  0  0  0  0  0  0  0  0  0  0
   58.4030   32.9890   43.4510 N   0  0  0  0  0  0  0  0  0  0  0  0
   58.6020   33.4190   44.7190 C   0  0  0  0  0  0  0  0  0  0  0  0
   58.9980   34.7400   44.9580 C   0  0  0  0  0  0  0  0  0  0  0  0
   59.2010   35.1840   46.2670 C   0  0  0  0  0  0  0  0  0  0  0  0
   59.0120   34.3110   47.3420 C   0  0  0  0  0  0  0  0  0  0  0  0
   58.6190   32.9890   47.1130 C   0  0  0  0  0  0  0  0  0  0  0  0
   58.4120   32.5330   45.7980 C   0  0  0  0  0  0  0  0  0  0  0  0
   58.0090   31.2170   45.5120 C   0  0  0  0  0  0  0  0  0  0  0  0
   57.8480   30.3950   46.4580 O   0  0  0  0  0  0  0  0  0  0  0  0
   59.0380   25.1960   45.8660 C   0  0  0  0  0  0  0  0  0  0  0  0
   59.5160   26.5500   46.3170 C   0  0  0  0  0  0  0  0  0  0  0  0
   59.6050   26.8620   47.6840 C   0  0  0  0  0  0  0  0  0  0  0  0
   60.0690   28.1170   48.0920 C   0  0  0  0  0  0  0  0  0  0  0  0
   60.4470   29.0680   47.1390 C   0  0  0  0  0  0  0  0  0  0  0  0
   61.0890   30.7780   47.7000 Br  0  0  0  0  0  0  0  0  0  0  0  0
   60.3600   28.7650   45.7760 C   0  0  0  0  0  0  0  0  0  0  0  0
   59.8980   27.5110   45.3660 C   0  0  0  0  0  0  0  0  0  0  0  0
   58.4270   21.8290   45.7949 H   0  0  0  0  0  0  0  0  0  0  0  0
   57.0429   22.3672   44.7844 H   0  0  0  0  0  0  0  0  0  0  0  0
   58.5738   23.3068   44.7844 H   0  0  0  0  0  0  0  0  0  0  0  0
   56.2883   23.3933   46.6671 H   0  0  0  0  0  0  0  0  0  0  0  0
   57.8848   23.2463   47.4842 H   0  0  0  0  0  0  0  0  0  0  0  0
   57.2266   25.9265   44.4487 H   0  0  0  0  0  0  0  0  0  0  0  0
   55.9752   24.7651   45.0083 H   0  0  0  0  0  0  0  0  0  0  0  0
   54.9280   26.7922   45.4886 H   0  0  0  0  0  0  0  0  0  0  0  0
   55.7773   26.4720   47.0457 H   0  0  0  0  0  0  0  0  0  0  0  0
   58.1740   28.7957   43.8512 H   0  0  0  0  0  0  0  0  0  0  0  0
   56.8122   29.5139   42.8968 H   0  0  0  0  0  0  0  0  0  0  0  0
   57.8594   31.3964   42.1513 H   0  0  0  0  0  0  0  0  0  0  0  0
   59.1496   35.4293   44.1143 H   0  0  0  0  0  0  0  0  0  0  0  0
   59.5104   36.2233   46.4521 H   0  0  0  0  0  0  0  0  0  0  0  0
   59.1729   34.6650   48.3710 H   0  0  0  0  0  0  0  0  0  0  0  0
   58.4715   32.3047   47.9615 H   0  0  0  0  0  0  0  0  0  0  0  0
   59.6785   24.4182   46.3074 H   0  0  0  0  0  0  0  0  0  0  0  0
   59.0883   25.1431   44.7684 H   0  0  0  0  0  0  0  0  0  0  0  0
   59.3086   26.1164   48.4365 H   0  0  0  0  0  0  0  0  0  0  0  0
   60.1366   28.3561   49.1636 H   0  0  0  0  0  0  0  0  0  0  0  0
   60.6553   29.5140   45.0265 H   0  0  0  0  0  0  0  0  0  0  0  0
   59.8332   27.2755   44.2935 H   0  0  0  0  0  0  0  0  0  0  0  0
  1  2  1  0
  2  3  1  0
  3  4  1  0
  4  5  1  0
  5  6  1  0
  6  7  1  0
  7  8  2  0
  7  9  1  0
  9 10  1  0
 10 11  1  0
 11 12  2  0
 12 13  1  0
 13 14  2  0
 14 15  1  0
 15 16  2  0
 16 17  1  0
 17 18  2  0
 18 19  1  0
 19 20  2  0
  3 21  1  0
 21 22  1  0
 22 23  2  0
 23 24  1  0
 24 25  2  0
 25 26  1  0
 25 27  1  0
 27 28  2  0
 19 10  1  0
 28 22  1  0
 18 13  1  0
  1 29  1  0
  1 30  1  0
  1 31  1  0
  2 32  1  0
  2 33  1  0
  4 34  1  0
  4 35  1  0
  5 36  1  0
  5 37  1  0
  9 38  1  0
  9 39  1  0
 11 40  1  0
 14 41  1  0
 15 42  1  0
 16 43  1  0
 17 44  1  0
 21 45  1  0
 21 46  1  0
 23 47  1  0
 24 48  1  0
 27 49  1  0
 28 50  1  0
M  CHG  1   6  -1
M  END
>  <UniqueID>  (31) 
29

>  <SMILES>  (31) 
CCN(CC[N-]C(=O)Cn1cnc2ccccc2c1=O)Cc1ccc(Br)cc1

>  <Energy>  (31) 
53.43354273672242

>  <Genealogy>  (31) 
CCN(CC[N-]C(=O)Cn1cnc2ccccc2c1=O)Cc1ccc(Br)cc1 (protonated)
CCN(CC[N-]C(=O)Cn1cnc2ccccc2c1=O)Cc1ccc(Br)cc1 (3D coordinates assigned)
CCN(CC[N-]C(=O)Cn1cnc2ccccc2c1=O)Cc1ccc(Br)cc1 (optimized conformer: 53.43354273672242 kcal/mol)

>  <smiles>  (31) 
CCN(CCNC(=O)Cn1cnc2ccccc2c1=O)Cc1ccc(Br)cc1

>  <score_type>  (31) 
oracle

>  <origin>  (31) 
adg

>  <m_score__min__energy>  (31) 
-10.23

>  <m_primary>  (31) 
energy

$$$$
31:0
     RDKit          3D

 44 46  0  0  0  0  0  0  0  0999 V2000
   64.1830   32.9020   48.7370 C   0  0  0  0  0  0  0  0  0  0  0  0
   63.7980   32.6990   47.3260 N   0  0  0  0  0  0  0  0  0  0  0  0
   63.3490   31.3080   47.1350 C   0  0  0  0  0  0  0  0  0  0  0  0
   62.7200   33.6300   46.9040 C   0  0  0  0  0  0  0  0  0  0  0  0
   61.3490   33.3770   47.5950 C   0  0  2  0  0  0  0  0  0  0  0  0
   60.1910   33.6480   46.5920 C   0  0  0  0  0  0  0  0  0  0  0  0
   58.8600   33.7910   47.2420 N   0  0  0  0  0  0  0  0  0  0  0  0
   57.7810   33.9190   46.2360 C   0  0  0  0  0  0  0  0  0  0  0  0
   57.8770   32.8290   45.2120 C   0  0  0  0  0  0  0  0  0  0  0  0
   58.0600   33.0050   43.8460 C   0  0  0  0  0  0  0  0  0  0  0  0
   58.1610   31.7960   43.1470 C   0  0  0  0  0  0  0  0  0  0  0  0
   58.0640   30.6720   43.9570 C   0  0  0  0  0  0  0  0  0  0  0  0
   57.8560   31.1820   45.5460 S   0  0  0  0  0  0  0  0  0  0  0  0
   58.5380   32.7320   48.2310 C   0  0  0  0  0  0  0  0  0  0  0  0
   59.0560   33.0580   49.5990 C   0  0  0  0  0  0  0  0  0  0  0  0
   58.4310   32.7270   50.7860 C   0  0  0  0  0  0  0  0  0  0  0  0
   59.2400   33.2020   51.7970 C   0  0  0  0  0  0  0  0  0  0  0  0
   60.3210   33.8060   51.1870 C   0  0  0  0  0  0  0  0  0  0  0  0
   60.2010   33.7300   49.8470 N   0  0  0  0  0  0  0  0  0  0  0  0
   61.2030   34.2320   48.8940 C   0  0  0  0  0  0  0  0  0  0  0  0
   63.4020   32.4902   49.3931 H   0  0  0  0  0  0  0  0  0  0  0  0
   65.1358   32.3890   48.9345 H   0  0  0  0  0  0  0  0  0  0  0  0
   64.2980   33.9780   48.9345 H   0  0  0  0  0  0  0  0  0  0  0  0
   64.6450   32.8330   46.7270 H   0  0  0  0  0  0  0  0  0  0  0  0
   63.1960   30.8341   48.1158 H   0  0  0  0  0  0  0  0  0  0  0  0
   62.4032   31.3018   46.5733 H   0  0  0  0  0  0  0  0  0  0  0  0
   64.1127   30.7500   46.5733 H   0  0  0  0  0  0  0  0  0  0  0  0
   63.0397   34.6561   47.1382 H   0  0  0  0  0  0  0  0  0  0  0  0
   62.5653   33.4658   45.8274 H   0  0  0  0  0  0  0  0  0  0  0  0
   61.2973   32.3219   47.9018 H   0  0  0  0  0  0  0  0  0  0  0  0
   60.4134   34.5773   46.0472 H   0  0  0  0  0  0  0  0  0  0  0  0
   60.1317   32.7754   45.9249 H   0  0  0  0  0  0  0  0  0  0  0  0
   56.8064   33.8538   46.7420 H   0  0  0  0  0  0  0  0  0  0  0  0
   57.8846   34.8896   45.7289 H   0  0  0  0  0  0  0  0  0  0  0  0
   58.1194   33.9918   43.3637 H   0  0  0  0  0  0  0  0  0  0  0  0
   58.3039   31.7415   42.0577 H   0  0  0  0  0  0  0  0  0  0  0  0
   58.1146   29.6270   43.6173 H   0  0  0  0  0  0  0  0  0  0  0  0
   57.4453   32.6174   48.2841 H   0  0  0  0  0  0  0  0  0  0  0  0
   59.0227   31.8019   47.8994 H   0  0  0  0  0  0  0  0  0  0  0  0
   57.4774   32.1910   50.9017 H   0  0  0  0  0  0  0  0  0  0  0  0
   59.0591   33.1162   52.8786 H   0  0  0  0  0  0  0  0  0  0  0  0
   61.1592   34.2807   51.7180 H   0  0  0  0  0  0  0  0  0  0  0  0
   60.9178   35.2536   48.6023 H   0  0  0  0  0  0  0  0  0  0  0  0
   62.1740   34.1860   49.4088 H   0  0  0  0  0  0  0  0  0  0  0  0
  1  2  1  0
  2  3  1  0
  2  4  1  0
  4  5  1  0
  5  6  1  0
  6  7  1  0
  7  8  1  0
  8  9  1  0
  9 10  2  0
 10 11  1  0
 11 12  2  0
 12 13  1  0
  7 14  1  0
 14 15  1  0
 15 16  2  0
 16 17  1  0
 17 18  2  0
 18 19  1  0
 19 20  1  0
 20  5  1  0
 13  9  1  0
 19 15  1  0
  1 21  1  0
  1 22  1  0
  1 23  1  0
  2 24  1  0
  3 25  1  0
  3 26  1  0
  3 27  1  0
  4 28  1  0
  4 29  1  0
  5 30  1  1
  6 31  1  0
  6 32  1  0
  8 33  1  0
  8 34  1  0
 10 35  1  0
 11 36  1  0
 12 37  1  0
 14 38  1  0
 14 39  1  0
 16 40  1  0
 17 41  1  0
 18 42  1  0
 20 43  1  0
 20 44  1  0
M  CHG  1   2   1
M  END
>  <UniqueID>  (32) 
30

>  <SMILES>  (32) 
C[NH+](C)C[C@@H]1CN(Cc2cccs2)Cc2cccn2C1

>  <Energy>  (32) 
110.40632219516247

>  <Genealogy>  (32) 
C[NH+](C)CC1CN(Cc2cccs2)Cc2cccn2C1 (protonated)
C[NH+](C)C[C@@H]1CN(Cc2cccs2)Cc2cccn2C1 (chirality)
C[NH+](C)C[C@@H]1CN(Cc2cccs2)Cc2cccn2C1 (3D coordinates assigned)
C[NH+](C)C[C@@H]1CN(Cc2cccs2)Cc2cccn2C1 (nonaromatic ring conformer: 110.40632219516247 kcal/mol)

>  <smiles>  (32) 
CN(C)CC1CN(Cc2cccs2)Cc2cccn2C1

>  <score_type>  (32) 
oracle

>  <origin>  (32) 
adg

>  <m_score__min__energy>  (32) 
-3.4399999999999999

>  <m_primary>  (32) 
energy

$$$$
32:0
     RDKit          3D

 53 57  0  0  0  0  0  0  0  0999 V2000
   59.6440   33.8400   50.5520 C   0  0  0  0  0  0  0  0  0  0  0  0
   60.0660   32.9610   49.5150 O   0  0  0  0  0  0  0  0  0  0  0  0
   61.2950   33.0530   48.8430 C   0  0  0  0  0  0  0  0  0  0  0  0
   62.1380   34.1740   48.9820 C   0  0  0  0  0  0  0  0  0  0  0  0
   63.3670   34.2200   48.3170 C   0  0  0  0  0  0  0  0  0  0  0  0
   63.7670   33.1530   47.5120 C   0  0  0  0  0  0  0  0  0  0  0  0
   62.9390   32.0390   47.3630 C   0  0  0  0  0  0  0  0  0  0  0  0
   61.6990   31.9840   48.0200 C   0  0  0  0  0  0  0  0  0  0  0  0
   60.8480   30.8370   47.8550 N   0  0  0  0  0  0  0  0  0  0  0  0
   60.4270   30.0680   49.0290 C   0  0  0  0  0  0  0  0  0  0  0  0
   60.3660   28.5790   48.6860 C   0  0  0  0  0  0  0  0  0  0  0  0
   59.6220   28.3770   47.4350 N   0  0  0  0  0  0  0  0  0  0  0  0
   58.7780   27.2170   47.2880 C   0  0  0  0  0  0  0  0  0  0  0  0
   58.9780   26.2040   48.0130 O   0  0  0  0  0  0  0  0  0  0  0  0
   57.6770   27.1830   46.2630 C   0  0  0  0  0  0  0  0  0  0  0  0
   57.1220   25.8330   46.1320 N   0  0  0  0  0  0  0  0  0  0  0  0
   55.8100   25.5130   46.0370 C   0  0  0  0  0  0  0  0  0  0  0  0
   54.7780   26.4420   45.9870 O   0  0  0  0  0  0  0  0  0  0  0  0
   55.6590   24.1490   45.8790 C   0  0  0  0  0  0  0  0  0  0  0  0
   56.9250   23.6190   45.8190 C   0  0  0  0  0  0  0  0  0  0  0  0
   57.8050   24.6770   45.9400 C   0  0  0  0  0  0  0  0  0  0  0  0
   59.1870   24.5780   45.7940 O   0  0  0  0  0  0  0  0  0  0  0  0
   56.8760   22.5130   44.7930 C   0  0  2  0  0  0  0  0  0  0  0  0
   56.6060   23.1660   43.4530 C   0  0  0  0  0  0  0  0  0  0  0  0
   55.3680   23.6850   43.5120 C   0  0  0  0  0  0  0  0  0  0  0  0
   54.8230   23.3730   44.8910 C   0  0  1  0  0  0  0  0  0  0  0  0
   55.4640   21.9970   45.0800 C   0  0  0  0  0  0  0  0  0  0  0  0
   60.0450   29.1560   46.2620 C   0  0  0  0  0  0  0  0  0  0  0  0
   60.1040   30.6440   46.6070 C   0  0  0  0  0  0  0  0  0  0  0  0
   59.8623   33.3853   51.5295 H   0  0  0  0  0  0  0  0  0  0  0  0
   60.1815   34.7957   50.4639 H   0  0  0  0  0  0  0  0  0  0  0  0
   58.5621   34.0183   50.4639 H   0  0  0  0  0  0  0  0  0  0  0  0
   61.8274   35.0169   49.6169 H   0  0  0  0  0  0  0  0  0  0  0  0
   64.0194   35.0986   48.4286 H   0  0  0  0  0  0  0  0  0  0  0  0
   64.7366   33.1896   46.9938 H   0  0  0  0  0  0  0  0  0  0  0  0
   63.2594   31.2001   46.7278 H   0  0  0  0  0  0  0  0  0  0  0  0
   61.1484   30.2245   49.8446 H   0  0  0  0  0  0  0  0  0  0  0  0
   59.4287   30.4069   49.3430 H   0  0  0  0  0  0  0  0  0  0  0  0
   61.3885   28.1912   48.5674 H   0  0  0  0  0  0  0  0  0  0  0  0
   59.8536   28.0439   49.4990 H   0  0  0  0  0  0  0  0  0  0  0  0
   56.8771   27.8723   46.5715 H   0  0  0  0  0  0  0  0  0  0  0  0
   58.0938   27.4860   45.2912 H   0  0  0  0  0  0  0  0  0  0  0  0
   59.8220   25.1740   46.3100 H   0  0  0  0  0  0  0  0  0  0  0  0
   57.7459   21.8399   44.8071 H   0  0  0  0  0  0  0  0  0  0  0  0
   57.2929   23.2074   42.5948 H   0  0  0  0  0  0  0  0  0  0  0  0
   54.8489   24.2323   42.7114 H   0  0  0  0  0  0  0  0  0  0  0  0
   53.7380   23.5190   44.9983 H   0  0  0  0  0  0  0  0  0  0  0  0
   55.3450   21.5974   46.0979 H   0  0  0  0  0  0  0  0  0  0  0  0
   55.0820   21.1532   44.4866 H   0  0  0  0  0  0  0  0  0  0  0  0
   61.0416   28.8179   45.9419 H   0  0  0  0  0  0  0  0  0  0  0  0
   59.3175   29.0052   45.4508 H   0  0  0  0  0  0  0  0  0  0  0  0
   60.6079   31.1873   45.7941 H   0  0  0  0  0  0  0  0  0  0  0  0
   59.0808   31.0279   46.7320 H   0  0  0  0  0  0  0  0  0  0  0  0
  1  2  1  0
  2  3  1  0
  3  4  2  0
  4  5  1  0
  5  6  2  0
  6  7  1  0
  7  8  2  0
  8  9  1  0
  9 10  1  0
 10 11  1  0
 11 12  1  0
 12 13  1  0
 13 14  2  0
 13 15  1  0
 15 16  1  0
 16 17  1  0
 17 18  1  0
 17 19  2  0
 19 20  1  0
 20 21  2  0
 21 22  1  0
 20 23  1  0
 23 24  1  0
 24 25  2  0
 25 26  1  0
 26 27  1  0
 12 28  1  0
 28 29  1  0
  8  3  1  0
 29  9  1  0
 21 16  1  0
 27 23  1  0
 26 19  1  0
  1 30  1  0
  1 31  1  0
  1 32  1  0
  4 33  1  0
  5 34  1  0
  6 35  1  0
  7 36  1  0
 10 37  1  0
 10 38  1  0
 11 39  1  0
 11 40  1  0
 15 41  1  0
 15 42  1  0
 22 43  1  0
 23 44  1  6
 24 45  1  0
 25 46  1  0
 26 47  1  6
 27 48  1  0
 27 49  1  0
 28 50  1  0
 28 51  1  0
 29 52  1  0
 29 53  1  0
M  CHG  1  18  -1
M  END
>  <UniqueID>  (33) 
31

>  <SMILES>  (33) 
COc1ccccc1N1CCN(C(=O)Cn2c([O-])c3c(c2O)[C@@H]2C=C[C@H]3C2)CC1

>  <Energy>  (33) 
170.91152510205455

>  <Genealogy>  (33) 
COc1ccccc1N1CCN(C(=O)Cn2c([O-])c3c(c2O)C2C=CC3C2)CC1 (protonated)
COc1ccccc1N1CCN(C(=O)Cn2c([O-])c3c(c2O)[C@@H]2C=C[C@H]3C2)CC1 (chirality)
COc1ccccc1N1CCN(C(=O)Cn2c([O-])c3c(c2O)[C@@H]2C=C[C@H]3C2)CC1 (3D coordinates assigned)
COc1ccccc1N1CCN(C(=O)Cn2c([O-])c3c(c2O)[C@@H]2C=C[C@H]3C2)CC1 (nonaromatic ring conformer: 170.91152510205455 kcal/mol)

>  <smiles>  (33) 
COc1ccccc1N1CCN(C(=O)Cn2c(O)c3c(c2O)C2C=CC3C2)CC1

>  <score_type>  (33) 
oracle

>  <origin>  (33) 
adg

>  <m_score__min__energy>  (33) 
-11.1

>  <m_primary>  (33) 
energy

$$$$
33:0
     RDKit          3D

 47 49  0  0  0  0  0  0  0  0999 V2000
   60.4820   33.3860   51.2540 C   0  0  0  0  0  0  0  0  0  0  0  0
   60.5620   33.6730   49.8620 O   0  0  0  0  0  0  0  0  0  0  0  0
   61.5900   33.2310   49.0120 C   0  0  0  0  0  0  0  0  0  0  0  0
   62.8100   33.9260   48.9050 C   0  0  0  0  0  0  0  0  0  0  0  0
   63.8120   33.4690   48.0470 C   0  0  0  0  0  0  0  0  0  0  0  0
   63.6100   32.3180   47.2860 C   0  0  0  0  0  0  0  0  0  0  0  0
   62.4080   31.6160   47.3850 C   0  0  0  0  0  0  0  0  0  0  0  0
   61.3900   32.0600   48.2460 C   0  0  0  0  0  0  0  0  0  0  0  0
   60.1240   31.2470   48.3880 C   0  0  0  0  0  0  0  0  0  0  0  0
   59.2700   31.4340   47.2130 N   0  0  0  0  0  0  0  0  0  0  0  0
   58.8040   30.4410   46.4180 C   0  0  0  0  0  0  0  0  0  0  0  0
   58.2150   30.9690   45.2760 C   0  0  0  0  0  0  0  0  0  0  0  0
   57.8020   30.1930   44.0630 C   0  0  0  0  0  0  0  0  0  0  0  0
   56.9210   29.0430   44.4730 C   0  0  0  0  0  0  0  0  0  0  0  0
   55.7820   29.2740   44.8580 O   0  0  0  0  0  0  0  0  0  0  0  0
   57.3980   27.6770   44.3720 N   0  0  0  0  0  0  0  0  0  0  0  0
   57.4180   27.0470   45.7030 C   0  0  0  0  0  0  0  0  0  0  0  0
   58.7310   27.6410   43.7550 C   0  0  0  0  0  0  0  0  0  0  0  0
   58.3410   32.3390   45.3880 C   0  0  0  0  0  0  0  0  0  0  0  0
   57.9980   33.3630   44.5050 C   0  0  0  0  0  0  0  0  0  0  0  0
   58.3010   34.6830   44.8780 C   0  0  0  0  0  0  0  0  0  0  0  0
   58.9420   34.9490   46.1070 C   0  0  0  0  0  0  0  0  0  0  0  0
   59.2950   33.8970   46.9700 C   0  0  0  0  0  0  0  0  0  0  0  0
   58.9800   32.5910   46.5780 C   0  0  0  0  0  0  0  0  0  0  0  0
   60.7337   34.2890   51.8296 H   0  0  0  0  0  0  0  0  0  0  0  0
   59.4601   33.0648   51.5040 H   0  0  0  0  0  0  0  0  0  0  0  0
   61.1904   32.5825   51.5040 H   0  0  0  0  0  0  0  0  0  0  0  0
   62.9747   34.8354   49.5016 H   0  0  0  0  0  0  0  0  0  0  0  0
   64.7624   34.0177   47.9711 H   0  0  0  0  0  0  0  0  0  0  0  0
   64.3991   31.9630   46.6068 H   0  0  0  0  0  0  0  0  0  0  0  0
   62.2561   30.7073   46.7839 H   0  0  0  0  0  0  0  0  0  0  0  0
   60.3842   30.1824   48.4827 H   0  0  0  0  0  0  0  0  0  0  0  0
   59.5807   31.5812   49.2842 H   0  0  0  0  0  0  0  0  0  0  0  0
   58.8812   29.3674   46.6449 H   0  0  0  0  0  0  0  0  0  0  0  0
   57.2482   30.8520   43.3782 H   0  0  0  0  0  0  0  0  0  0  0  0
   58.6976   29.8038   43.5567 H   0  0  0  0  0  0  0  0  0  0  0  0
   56.7500   27.1230   43.7640 H   0  0  0  0  0  0  0  0  0  0  0  0
   57.3932   27.8270   46.4783 H   0  0  0  0  0  0  0  0  0  0  0  0
   56.5402   26.3932   45.8124 H   0  0  0  0  0  0  0  0  0  0  0  0
   58.3355   26.4502   45.8124 H   0  0  0  0  0  0  0  0  0  0  0  0
   59.4990   27.6203   44.5423 H   0  0  0  0  0  0  0  0  0  0  0  0
   58.8217   26.7401   43.1304 H   0  0  0  0  0  0  0  0  0  0  0  0
   58.8702   28.5357   43.1304 H   0  0  0  0  0  0  0  0  0  0  0  0
   57.5055   33.1436   43.5462 H   0  0  0  0  0  0  0  0  0  0  0  0
   58.0370   35.5145   44.2080 H   0  0  0  0  0  0  0  0  0  0  0  0
   59.1671   35.9874   46.3917 H   0  0  0  0  0  0  0  0  0  0  0  0
   59.8037   34.0945   47.9251 H   0  0  0  0  0  0  0  0  0  0  0  0
  1  2  1  0
  2  3  1  0
  3  4  2  0
  4  5  1  0
  5  6  2  0
  6  7  1  0
  7  8  2  0
  8  9  1  0
  9 10  1  0
 10 11  1  0
 11 12  2  0
 12 13  1  0
 13 14  1  0
 14 15  2  0
 14 16  1  0
 16 17  1  0
 16 18  1  0
 12 19  1  0
 19 20  2  0
 20 21  1  0
 21 22  2  0
 22 23  1  0
 23 24  2  0
  8  3  1  0
 24 10  1  0
 24 19  1  0
  1 25  1  0
  1 26  1  0
  1 27  1  0
  4 28  1  0
  5 29  1  0
  6 30  1  0
  7 31  1  0
  9 32  1  0
  9 33  1  0
 11 34  1  0
 13 35  1  0
 13 36  1  0
 16 37  1  0
 17 38  1  0
 17 39  1  0
 17 40  1  0
 18 41  1  0
 18 42  1  0
 18 43  1  0
 20 44  1  0
 21 45  1  0
 22 46  1  0
 23 47  1  0
M  CHG  1  16   1
M  END
>  <UniqueID>  (34) 
32

>  <SMILES>  (34) 
COc1ccccc1Cn1cc(CC(=O)[NH+](C)C)c2ccccc21

>  <Energy>  (34) 
75.07582436074372

>  <Genealogy>  (34) 
COc1ccccc1Cn1cc(CC(=O)[NH+](C)C)c2ccccc21 (protonated)
COc1ccccc1Cn1cc(CC(=O)[NH+](C)C)c2ccccc21 (3D coordinates assigned)
COc1ccccc1Cn1cc(CC(=O)[NH+](C)C)c2ccccc21 (optimized conformer: 75.07582436074372 kcal/mol)

>  <smiles>  (34) 
COc1ccccc1Cn1cc(CC(=O)N(C)C)c2ccccc21

>  <score_type>  (34) 
oracle

>  <origin>  (34) 
adg

>  <m_score__min__energy>  (34) 
-6.5199999999999996

>  <m_primary>  (34) 
energy

$$$$
34:0
     RDKit          3D

 44 47  0  0  0  0  0  0  0  0999 V2000
   57.1400   30.8040   52.1090 C   0  0  0  0  0  0  0  0  0  0  0  0
   57.9390   30.1180   51.1510 O   0  0  0  0  0  0  0  0  0  0  0  0
   58.9210   30.7260   50.3550 C   0  0  0  0  0  0  0  0  0  0  0  0
   60.2880   30.5980   50.6210 C   0  0  0  0  0  0  0  0  0  0  0  0
   61.2280   31.2150   49.8000 C   0  0  0  0  0  0  0  0  0  0  0  0
   60.8330   31.9880   48.6800 C   0  0  0  0  0  0  0  0  0  0  0  0
   59.4420   32.1240   48.4090 C   0  0  0  0  0  0  0  0  0  0  0  0
   58.5090   31.4820   49.2570 C   0  0  0  0  0  0  0  0  0  0  0  0
   59.0220   32.8840   47.2910 C   0  0  0  0  0  0  0  0  0  0  0  0
   59.9950   33.4290   46.4330 C   0  0  0  0  0  0  0  0  0  0  0  0
   61.3560   33.2990   46.7530 C   0  0  0  0  0  0  0  0  0  0  0  0
   62.2110   33.8410   45.9950 O   0  0  0  0  0  0  0  0  0  0  0  0
   61.7620   32.5980   47.8610 N   0  0  0  0  0  0  0  0  0  0  0  0
   63.2070   32.4860   48.1600 C   0  0  0  0  0  0  0  0  0  0  0  0
   59.5970   34.1940   45.1840 C   0  0  0  0  0  0  0  0  0  0  0  0
   58.2310   33.8900   44.7290 N   0  0  0  0  0  0  0  0  0  0  0  0
   58.0910   32.7230   43.8260 C   0  0  0  0  0  0  0  0  0  0  0  0
   57.9590   31.4040   44.5380 C   0  0  0  0  0  0  0  0  0  0  0  0
   59.0010   30.5980   44.9540 C   0  0  0  0  0  0  0  0  0  0  0  0
   58.4100   29.5020   45.5430 C   0  0  0  0  0  0  0  0  0  0  0  0
   57.0490   29.7110   45.4640 C   0  0  0  0  0  0  0  0  0  0  0  0
   56.8120   30.8550   44.8650 O   0  0  0  0  0  0  0  0  0  0  0  0
   57.2410   33.9890   45.8100 C   0  0  0  0  0  0  0  0  0  0  0  0
   57.5440   33.0480   46.9800 C   0  0  0  0  0  0  0  0  0  0  0  0
   57.4637   30.5261   53.1229 H   0  0  0  0  0  0  0  0  0  0  0  0
   57.2545   31.8894   51.9722 H   0  0  0  0  0  0  0  0  0  0  0  0
   56.0844   30.5266   51.9722 H   0  0  0  0  0  0  0  0  0  0  0  0
   60.6230   30.0055   51.4852 H   0  0  0  0  0  0  0  0  0  0  0  0
   62.2986   31.1001   50.0252 H   0  0  0  0  0  0  0  0  0  0  0  0
   57.4340   31.5811   49.0458 H   0  0  0  0  0  0  0  0  0  0  0  0
   63.3561   32.4744   49.2498 H   0  0  0  0  0  0  0  0  0  0  0  0
   63.6001   31.5547   47.7262 H   0  0  0  0  0  0  0  0  0  0  0  0
   63.7389   33.3456   47.7262 H   0  0  0  0  0  0  0  0  0  0  0  0
   59.6628   35.2710   45.3978 H   0  0  0  0  0  0  0  0  0  0  0  0
   60.2845   33.8895   44.3811 H   0  0  0  0  0  0  0  0  0  0  0  0
   57.1942   32.8718   43.2066 H   0  0  0  0  0  0  0  0  0  0  0  0
   59.0155   32.6703   43.2322 H   0  0  0  0  0  0  0  0  0  0  0  0
   60.0778   30.7911   44.8389 H   0  0  0  0  0  0  0  0  0  0  0  0
   58.9207   28.6347   45.9869 H   0  0  0  0  0  0  0  0  0  0  0  0
   56.2792   29.0237   45.8449 H   0  0  0  0  0  0  0  0  0  0  0  0
   57.2314   35.0233   46.1842 H   0  0  0  0  0  0  0  0  0  0  0  0
   56.2656   33.6967   45.3938 H   0  0  0  0  0  0  0  0  0  0  0  0
   57.0461   33.4443   47.8773 H   0  0  0  0  0  0  0  0  0  0  0  0
   57.1744   32.0546   46.6859 H   0  0  0  0  0  0  0  0  0  0  0  0
  1  2  1  0
  2  3  1  0
  3  4  2  0
  4  5  1  0
  5  6  2  0
  6  7  1  0
  7  8  2  0
  7  9  1  0
  9 10  2  0
 10 11  1  0
 11 12  2  0
 11 13  1  0
 13 14  1  0
 10 15  1  0
 15 16  1  0
 16 17  1  0
 17 18  1  0
 18 19  2  0
 19 20  1  0
 20 21  2  0
 21 22  1  0
 16 23  1  0
 23 24  1  0
  8  3  1  0
 24  9  1  0
 13  6  1  0
 22 18  1  0
  1 25  1  0
  1 26  1  0
  1 27  1  0
  4 28  1  0
  5 29  1  0
  8 30  1  0
 14 31  1  0
 14 32  1  0
 14 33  1  0
 15 34  1  0
 15 35  1  0
 17 36  1  0
 17 37  1  0
 19 38  1  0
 20 39  1  0
 21 40  1  0
 23 41  1  0
 23 42  1  0
 24 43  1  0
 24 44  1  0
M  END
>  <UniqueID>  (35) 
33

>  <SMILES>  (35) 
COc1ccc2c(c1)c1c(c(=O)n2C)CN(Cc2ccco2)CC1

>  <Energy>  (35) 
95.07864611383086

>  <Genealogy>  (35) 
COc1ccc2c(c1)c1c(c(=O)n2C)CN(Cc2ccco2)CC1 (3D coordinates assigned)
COc1ccc2c(c1)c1c(c(=O)n2C)CN(Cc2ccco2)CC1 (nonaromatic ring conformer: 95.07864611383086 kcal/mol)

>  <smiles>  (35) 
COc1ccc2c(c1)c1c(c(=O)n2C)CN(Cc2ccco2)CC1

>  <score_type>  (35) 
oracle

>  <origin>  (35) 
adg

>  <m_score__min__energy>  (35) 
-7.1399999999999997

>  <m_primary>  (35) 
energy

$$$$
35:0
     RDKit          3D

 33 35  0  0  0  0  0  0  0  0999 V2000
   56.6490   29.1320   44.5580 C   0  0  0  0  0  0  0  0  0  0  0  0
   57.4980   30.2190   45.1360 C   0  0  0  0  0  0  0  0  0  0  0  0
   57.1100   31.5230   44.9990 N   0  0  0  0  0  0  0  0  0  0  0  0
   57.9090   32.4820   45.5190 C   0  0  0  0  0  0  0  0  0  0  0  0
   57.7780   33.8500   45.5170 C   0  0  0  0  0  0  0  0  0  0  0  0
   56.6980   34.6500   44.8690 C   0  0  0  0  0  0  0  0  0  0  0  0
   58.8640   34.3790   46.1300 N   0  0  0  0  0  0  0  0  0  0  0  0
   59.6440   33.3760   46.5250 N   0  0  0  0  0  0  0  0  0  0  0  0
   60.8760   33.5770   47.2250 C   0  0  0  0  0  0  0  0  0  0  0  0
   62.0720   33.6550   46.5000 C   0  0  0  0  0  0  0  0  0  0  0  0
   63.2850   33.8500   47.1630 C   0  0  0  0  0  0  0  0  0  0  0  0
   63.3110   33.9730   48.5540 C   0  0  0  0  0  0  0  0  0  0  0  0
   62.1210   33.9070   49.2860 C   0  0  0  0  0  0  0  0  0  0  0  0
   60.8930   33.7210   48.6300 C   0  0  0  0  0  0  0  0  0  0  0  0
   59.6190   33.6420   49.4250 C   0  0  0  0  0  0  0  0  0  0  0  0
   59.0760   32.2070   46.1540 C   0  0  0  0  0  0  0  0  0  0  0  0
   59.4940   30.8790   46.2850 C   0  0  0  0  0  0  0  0  0  0  0  0
   61.1410   30.3690   47.1200 Br  0  0  0  0  0  0  0  0  0  0  0  0
   58.6810   29.9090   45.7650 N   0  0  0  0  0  0  0  0  0  0  0  0
   56.1941   28.5496   45.3728 H   0  0  0  0  0  0  0  0  0  0  0  0
   55.8564   29.5763   43.9380 H   0  0  0  0  0  0  0  0  0  0  0  0
   57.2720   28.4706   43.9380 H   0  0  0  0  0  0  0  0  0  0  0  0
   56.0707   35.1147   45.6439 H   0  0  0  0  0  0  0  0  0  0  0  0
   57.1482   35.4343   44.2427 H   0  0  0  0  0  0  0  0  0  0  0  0
   56.0790   33.9908   44.2427 H   0  0  0  0  0  0  0  0  0  0  0  0
   62.0554   33.5622   45.4040 H   0  0  0  0  0  0  0  0  0  0  0  0
   64.2217   33.9069   46.5890 H   0  0  0  0  0  0  0  0  0  0  0  0
   64.2686   34.1220   49.0745 H   0  0  0  0  0  0  0  0  0  0  0  0
   62.1469   34.0013   50.3816 H   0  0  0  0  0  0  0  0  0  0  0  0
   59.8556   33.6567   50.4992 H   0  0  0  0  0  0  0  0  0  0  0  0
   58.9792   34.5022   49.1787 H   0  0  0  0  0  0  0  0  0  0  0  0
   59.0903   32.7093   49.1787 H   0  0  0  0  0  0  0  0  0  0  0  0
   58.9720   28.9090   45.8460 H   0  0  0  0  0  0  0  0  0  0  0  0
  1  2  1  0
  2  3  2  0
  3  4  1  0
  4  5  1  0
  5  6  1  0
  5  7  2  0
  7  8  1  0
  8  9  1  0
  9 10  2  0
 10 11  1  0
 11 12  2  0
 12 13  1  0
 13 14  2  0
 14 15  1  0
  8 16  1  0
 16 17  1  0
 17 18  1  0
 17 19  2  0
 19  2  1  0
 16  4  2  0
 14  9  1  0
  1 20  1  0
  1 21  1  0
  1 22  1  0
  6 23  1  0
  6 24  1  0
  6 25  1  0
 10 26  1  0
 11 27  1  0
 12 28  1  0
 13 29  1  0
 15 30  1  0
 15 31  1  0
 15 32  1  0
 19 33  1  0
M  CHG  1  19   1
M  END
>  <UniqueID>  (36) 
34

>  <SMILES>  (36) 
Cc1nc2c(C)nn(-c3ccccc3C)c2c(Br)[nH+]1

>  <Energy>  (36) 
83.6260112696249

>  <Genealogy>  (36) 
Cc1nc2c(C)nn(-c3ccccc3C)c2c(Br)[nH+]1 (protonated)
Cc1nc2c(C)nn(-c3ccccc3C)c2c(Br)[nH+]1 (3D coordinates assigned)
Cc1nc2c(C)nn(-c3ccccc3C)c2c(Br)[nH+]1 (optimized conformer: 83.6260112696249 kcal/mol)

>  <smiles>  (36) 
Cc1nc(Br)c2c(n1)c(C)nn2-c1ccccc1C

>  <score_type>  (36) 
oracle

>  <origin>  (36) 
adg

>  <m_score__min__energy>  (36) 
-5.6399999999999997

>  <m_primary>  (36) 
energy

$$$$
36:0
     RDKit          3D

 51 54  0  0  0  0  0  0  0  0999 V2000
   55.0050   27.4030   55.3160 O   0  0  0  0  0  0  0  0  0  0  0  0
   54.0430   27.5530   54.5140 C   0  0  0  0  0  0  0  0  0  0  0  0
   53.6180   28.8430   54.1760 C   0  0  0  0  0  0  0  0  0  0  0  0
   54.3110   29.9440   54.6970 O   0  0  0  0  0  0  0  0  0  0  0  0
   55.5050   30.4760   54.1160 C   0  0  1  0  0  0  0  0  0  0  0  0
   56.6780   30.2290   55.0900 C   0  0  0  0  0  0  0  0  0  0  0  0
   58.0880   30.3180   54.4370 C   0  0  1  0  0  0  0  0  0  0  0  0
   58.7600   28.9310   54.3390 C   0  0  0  0  0  0  0  0  0  0  0  0
   59.8680   28.9980   53.4840 O   0  0  0  0  0  0  0  0  0  0  0  0
   58.0370   31.0470   53.0690 C   0  0  1  0  0  0  0  0  0  0  0  0
   59.3190   31.1550   52.5030 O   0  0  0  0  0  0  0  0  0  0  0  0
   57.0700   30.3690   52.0680 C   0  0  1  0  0  0  0  0  0  0  0  0
   57.7330   29.3330   51.3880 O   0  0  0  0  0  0  0  0  0  0  0  0
   55.7830   29.8140   52.7460 C   0  0  2  0  0  0  0  0  0  0  0  0
   54.6830   29.9530   51.8820 O   0  0  0  0  0  0  0  0  0  0  0  0
   52.5070   28.9880   53.3120 C   0  0  0  0  0  0  0  0  0  0  0  0
   51.9200   30.3060   52.9910 C   0  0  0  0  0  0  0  0  0  0  0  0
   51.5820   31.1880   54.0310 C   0  0  0  0  0  0  0  0  0  0  0  0
   51.0260   32.4370   53.7430 C   0  0  0  0  0  0  0  0  0  0  0  0
   50.8160   32.8240   52.4160 C   0  0  0  0  0  0  0  0  0  0  0  0
   50.2580   34.0660   52.1360 O   0  0  0  0  0  0  0  0  0  0  0  0
   51.1700   31.9600   51.3720 C   0  0  0  0  0  0  0  0  0  0  0  0
   50.9720   32.3430   50.0500 O   0  0  0  0  0  0  0  0  0  0  0  0
   51.7290   30.7100   51.6580 C   0  0  0  0  0  0  0  0  0  0  0  0
   51.9460   27.9080   52.7730 O   0  0  0  0  0  0  0  0  0  0  0  0
   52.3460   26.6690   53.0390 C   0  0  0  0  0  0  0  0  0  0  0  0
   51.7000   25.5870   52.4300 C   0  0  0  0  0  0  0  0  0  0  0  0
   52.1050   24.2780   52.7130 C   0  0  0  0  0  0  0  0  0  0  0  0
   51.4610   23.2070   52.1070 O   0  0  0  0  0  0  0  0  0  0  0  0
   53.1560   24.0470   53.6060 C   0  0  0  0  0  0  0  0  0  0  0  0
   53.8080   25.1210   54.2190 C   0  0  0  0  0  0  0  0  0  0  0  0
   53.4100   26.4400   53.9380 C   0  0  0  0  0  0  0  0  0  0  0  0
   55.3874   31.5564   53.9460 H   0  0  0  0  0  0  0  0  0  0  0  0
   56.6227   30.9798   55.8920 H   0  0  0  0  0  0  0  0  0  0  0  0
   56.5678   29.1982   55.4578 H   0  0  0  0  0  0  0  0  0  0  0  0
   58.7211   30.9280   55.0981 H   0  0  0  0  0  0  0  0  0  0  0  0
   59.0897   28.6138   55.3393 H   0  0  0  0  0  0  0  0  0  0  0  0
   58.0367   28.2053   53.9388 H   0  0  0  0  0  0  0  0  0  0  0  0
   59.5050   28.9950   52.5600 H   0  0  0  0  0  0  0  0  0  0  0  0
   57.6482   32.0558   53.2720 H   0  0  0  0  0  0  0  0  0  0  0  0
   59.3930   30.4420   51.8150 H   0  0  0  0  0  0  0  0  0  0  0  0
   56.7501   31.1465   51.3586 H   0  0  0  0  0  0  0  0  0  0  0  0
   58.6880   29.3790   51.6570 H   0  0  0  0  0  0  0  0  0  0  0  0
   55.9472   28.7447   52.9450 H   0  0  0  0  0  0  0  0  0  0  0  0
   53.9870   30.4730   52.3630 H   0  0  0  0  0  0  0  0  0  0  0  0
   51.7559   30.8939   55.0766 H   0  0  0  0  0  0  0  0  0  0  0  0
   50.7527   33.1178   54.5626 H   0  0  0  0  0  0  0  0  0  0  0  0
   52.0206   30.0398   50.8359 H   0  0  0  0  0  0  0  0  0  0  0  0
   50.8725   25.7661   51.7277 H   0  0  0  0  0  0  0  0  0  0  0  0
   53.4709   23.0164   53.8269 H   0  0  0  0  0  0  0  0  0  0  0  0
   54.6332   24.9340   54.9219 H   0  0  0  0  0  0  0  0  0  0  0  0
  1  2  2  0
  2  3  1  0
  3  4  1  0
  4  5  1  0
  5  6  1  0
  6  7  1  0
  7  8  1  0
  8  9  1  0
  7 10  1  0
 10 11  1  0
 10 12  1  0
 12 13  1  0
 12 14  1  0
 14 15  1  0
  3 16  2  0
 16 17  1  0
 17 18  2  0
 18 19  1  0
 19 20  2  0
 20 21  1  0
 20 22  1  0
 22 23  1  0
 22 24  2  0
 16 25  1  0
 25 26  1  0
 26 27  2  0
 27 28  1  0
 28 29  1  0
 28 30  2  0
 30 31  1  0
 31 32  2  0
 32  2  1  0
 14  5  1  0
 24 17  1  0
 32 26  1  0
  5 33  1  6
  6 34  1  0
  6 35  1  0
  7 36  1  1
  8 37  1  0
  8 38  1  0
  9 39  1  0
 10 40  1  1
 11 41  1  0
 12 42  1  6
 13 43  1  0
 14 44  1  1
 15 45  1  0
 18 46  1  0
 19 47  1  0
 24 48  1  0
 27 49  1  0
 30 50  1  0
 31 51  1  0
M  CHG  3  21  -1  23  -1  29  -1
M  END
>  <UniqueID>  (37) 
35

>  <SMILES>  (37) 
O=c1c(O[C@H]2C[C@@H](CO)C(O)C(O)C2O)c(-c2ccc([O-])c([O-])c2)oc2cc([O-])ccc12

>  <Energy>  (37) 
76.61718626735109

>  <Genealogy>  (37) 
O=c1c(OC2CC(CO)C(O)C(O)C2O)c(-c2ccc([O-])c([O-])c2)oc2cc([O-])ccc12 (protonated)
O=c1c(O[C@H]2C[C@@H](CO)C(O)C(O)C2O)c(-c2ccc([O-])c([O-])c2)oc2cc([O-])ccc12 (chirality)
O=c1c(O[C@H]2C[C@@H](CO)C(O)C(O)C2O)c(-c2ccc([O-])c([O-])c2)oc2cc([O-])ccc12 (3D coordinates assigned)
O=c1c(O[C@H]2C[C@@H](CO)C(O)C(O)C2O)c(-c2ccc([O-])c([O-])c2)oc2cc([O-])ccc12 (nonaromatic ring conformer: 76.61718626735109 kcal/mol)

>  <smiles>  (37) 
O=c1c(OC2CC(CO)C(O)C(O)C2O)c(-c2ccc(O)c(O)c2)oc2cc(O)ccc12

>  <score_type>  (37) 
oracle

>  <origin>  (37) 
adg

>  <m_score__min__energy>  (37) 
-15.31

>  <m_primary>  (37) 
energy

$$$$
37:0
     RDKit          3D

 30 30  0  0  0  0  0  0  0  0999 V2000
   59.0440   34.3360   46.9340 C   0  0  0  0  0  0  0  0  0  0  0  0
   57.6750   33.6900   46.7230 C   0  0  0  0  0  0  0  0  0  0  0  0
   57.7790   32.2060   46.3450 C   0  0  0  0  0  0  0  0  0  0  0  0
   57.6380   31.9880   44.8550 C   0  0  0  0  0  0  0  0  0  0  0  0
   58.2120   32.9110   43.9660 C   0  0  0  0  0  0  0  0  0  0  0  0
   58.1190   32.7190   42.5890 C   0  0  0  0  0  0  0  0  0  0  0  0
   57.4720   31.5940   42.0790 C   0  0  0  0  0  0  0  0  0  0  0  0
   56.9100   30.6420   42.9450 C   0  0  0  0  0  0  0  0  0  0  0  0
   56.2370   29.4270   42.3680 C   0  0  0  0  0  0  0  0  0  0  0  0
   56.9630   30.8570   44.3420 C   0  0  0  0  0  0  0  0  0  0  0  0
   56.3650   29.9160   45.2410 N   0  0  0  0  0  0  0  0  0  0  0  0
   56.8120   28.5650   45.4060 C   0  0  0  0  0  0  0  0  0  0  0  0
   55.9620   27.6640   45.6220 O   0  0  0  0  0  0  0  0  0  0  0  0
   58.2550   28.1840   45.2430 C   0  0  0  0  0  0  0  0  0  0  0  0
   58.5080   27.4640   43.6360 Cl  0  0  0  0  0  0  0  0  0  0  0  0
   59.2429   34.4299   48.0118 H   0  0  0  0  0  0  0  0  0  0  0  0
   59.8205   33.7093   46.4710 H   0  0  0  0  0  0  0  0  0  0  0  0
   59.0539   35.3338   46.4710 H   0  0  0  0  0  0  0  0  0  0  0  0
   57.0961   33.7774   47.6542 H   0  0  0  0  0  0  0  0  0  0  0  0
   57.1822   34.2138   45.8907 H   0  0  0  0  0  0  0  0  0  0  0  0
   58.7592   31.8254   46.6681 H   0  0  0  0  0  0  0  0  0  0  0  0
   56.9587   31.6704   46.8452 H   0  0  0  0  0  0  0  0  0  0  0  0
   58.7392   33.7925   44.3597 H   0  0  0  0  0  0  0  0  0  0  0  0
   58.5576   33.4576   41.9018 H   0  0  0  0  0  0  0  0  0  0  0  0
   57.4013   31.4512   40.9906 H   0  0  0  0  0  0  0  0  0  0  0  0
   55.8801   28.7828   43.1851 H   0  0  0  0  0  0  0  0  0  0  0  0
   55.3837   29.7400   41.7485 H   0  0  0  0  0  0  0  0  0  0  0  0
   56.9550   28.8696   41.7485 H   0  0  0  0  0  0  0  0  0  0  0  0
   58.8836   29.0809   45.3448 H   0  0  0  0  0  0  0  0  0  0  0  0
   58.5278   27.4516   46.0171 H   0  0  0  0  0  0  0  0  0  0  0  0
  1  2  1  0
  2  3  1  0
  3  4  1  0
  4  5  2  0
  5  6  1  0
  6  7  2  0
  7  8  1  0
  8  9  1  0
  8 10  2  0
 10 11  1  0
 11 12  1  0
 12 13  2  0
 12 14  1  0
 14 15  1  0
 10  4  1  0
  1 16  1  0
  1 17  1  0
  1 18  1  0
  2 19  1  0
  2 20  1  0
  3 21  1  0
  3 22  1  0
  5 23  1  0
  6 24  1  0
  7 25  1  0
  9 26  1  0
  9 27  1  0
  9 28  1  0
 14 29  1  0
 14 30  1  0
M  CHG  1  11  -1
M  END
>  <UniqueID>  (38) 
36

>  <SMILES>  (38) 
CCCc1cccc(C)c1[N-]C(=O)CCl

>  <Energy>  (38) 
28.88525187686481

>  <Genealogy>  (38) 
CCCc1cccc(C)c1[N-]C(=O)CCl (protonated)
CCCc1cccc(C)c1[N-]C(=O)CCl (3D coordinates assigned)
CCCc1cccc(C)c1[N-]C(=O)CCl (optimized conformer: 28.88525187686481 kcal/mol)

>  <smiles>  (38) 
CCCc1cccc(C)c1NC(=O)CCl

>  <score_type>  (38) 
oracle

>  <origin>  (38) 
adg

>  <m_score__min__energy>  (38) 
-7.5199999999999996

>  <m_primary>  (38) 
energy

$$$$
38:0
     RDKit          3D

 46 47  0  0  0  0  0  0  0  0999 V2000
   56.2640   30.2690   43.4610 C   0  0  0  0  0  0  0  0  0  0  0  0
   56.4800   30.8090   44.7610 O   0  0  0  0  0  0  0  0  0  0  0  0
   57.7360   30.9350   45.3780 C   0  0  0  0  0  0  0  0  0  0  0  0
   58.3430   32.1810   45.5780 C   0  0  0  0  0  0  0  0  0  0  0  0
   59.6080   32.2980   46.1770 C   0  0  0  0  0  0  0  0  0  0  0  0
   60.3030   31.1140   46.5610 C   0  0  0  0  0  0  0  0  0  0  0  0
   59.6400   29.8640   46.4390 C   0  0  0  0  0  0  0  0  0  0  0  0
   60.2270   28.7130   46.9730 O   0  0  0  0  0  0  0  0  0  0  0  0
   59.6500   28.0290   48.0810 C   0  0  0  0  0  0  0  0  0  0  0  0
   58.3850   29.7710   45.7930 C   0  0  0  0  0  0  0  0  0  0  0  0
   57.7310   28.5520   45.5320 O   0  0  0  0  0  0  0  0  0  0  0  0
   58.1280   27.5700   44.5820 C   0  0  0  0  0  0  0  0  0  0  0  0
   61.7060   31.1090   47.1640 C   0  0  0  0  0  0  0  0  0  0  0  0
   61.9620   32.0400   48.3610 C   0  0  1  0  0  0  0  0  0  0  0  0
   63.1670   31.5790   49.2130 C   0  0  0  0  0  0  0  0  0  0  0  0
   61.9820   33.4990   48.0200 N   0  0  2  0  0  0  0  0  0  0  0  0
   62.7120   34.2720   49.0490 C   0  0  0  0  0  0  0  0  0  0  0  0
   60.6840   34.1530   47.6540 C   0  0  2  0  0  0  0  0  0  0  0  0
   59.5600   34.1480   48.7260 C   0  0  0  0  0  0  0  0  0  0  0  0
   60.1620   33.7130   46.2780 C   0  0  0  0  0  0  0  0  0  0  0  0
   55.8568   29.2510   43.5498 H   0  0  0  0  0  0  0  0  0  0  0  0
   55.5503   30.9030   42.9145 H   0  0  0  0  0  0  0  0  0  0  0  0
   57.2181   30.2359   42.9145 H   0  0  0  0  0  0  0  0  0  0  0  0
   57.8155   33.0916   45.2577 H   0  0  0  0  0  0  0  0  0  0  0  0
   60.0217   28.4696   49.0179 H   0  0  0  0  0  0  0  0  0  0  0  0
   58.5548   28.1237   48.0404 H   0  0  0  0  0  0  0  0  0  0  0  0
   59.9278   26.9654   48.0404 H   0  0  0  0  0  0  0  0  0  0  0  0
   58.4898   26.6750   45.1092 H   0  0  0  0  0  0  0  0  0  0  0  0
   57.2679   27.3013   43.9512 H   0  0  0  0  0  0  0  0  0  0  0  0
   58.9332   27.9746   43.9512 H   0  0  0  0  0  0  0  0  0  0  0  0
   61.9209   30.0815   47.4926 H   0  0  0  0  0  0  0  0  0  0  0  0
   62.3585   31.4903   46.3647 H   0  0  0  0  0  0  0  0  0  0  0  0
   61.0756   31.9407   49.0048 H   0  0  0  0  0  0  0  0  0  0  0  0
   62.9190   31.6739   50.2805 H   0  0  0  0  0  0  0  0  0  0  0  0
   63.3987   30.5287   48.9824 H   0  0  0  0  0  0  0  0  0  0  0  0
   64.0406   32.2064   48.9824 H   0  0  0  0  0  0  0  0  0  0  0  0
   62.5840   33.5970   47.1660 H   0  0  0  0  0  0  0  0  0  0  0  0
   62.3977   33.9392   50.0492 H   0  0  0  0  0  0  0  0  0  0  0  0
   63.7935   34.1091   48.9314 H   0  0  0  0  0  0  0  0  0  0  0  0
   62.4875   35.3424   48.9314 H   0  0  0  0  0  0  0  0  0  0  0  0
   60.9723   35.2130   47.5977 H   0  0  0  0  0  0  0  0  0  0  0  0
   60.0104   34.1500   49.7296 H   0  0  0  0  0  0  0  0  0  0  0  0
   58.9328   35.0434   48.6038 H   0  0  0  0  0  0  0  0  0  0  0  0
   58.9408   33.2471   48.6038 H   0  0  0  0  0  0  0  0  0  0  0  0
   59.3589   34.4068   45.9888 H   0  0  0  0  0  0  0  0  0  0  0  0
   61.0414   33.7269   45.6173 H   0  0  0  0  0  0  0  0  0  0  0  0
  1  2  1  0
  2  3  1  0
  3  4  2  0
  4  5  1  0
  5  6  2  0
  6  7  1  0
  7  8  1  0
  8  9  1  0
  7 10  2  0
 10 11  1  0
 11 12  1  0
  6 13  1  0
 13 14  1  0
 14 15  1  0
 14 16  1  0
 16 17  1  0
 16 18  1  0
 18 19  1  0
 18 20  1  0
 10  3  1  0
 20  5  1  0
  1 21  1  0
  1 22  1  0
  1 23  1  0
  4 24  1  0
  9 25  1  0
  9 26  1  0
  9 27  1  0
 12 28  1  0
 12 29  1  0
 12 30  1  0
 13 31  1  0
 13 32  1  0
 14 33  1  1
 15 34  1  0
 15 35  1  0
 15 36  1  0
 16 37  1  6
 17 38  1  0
 17 39  1  0
 17 40  1  0
 18 41  1  6
 19 42  1  0
 19 43  1  0
 19 44  1  0
 20 45  1  0
 20 46  1  0
M  CHG  1  16   1
M  END
>  <UniqueID>  (39) 
37

>  <SMILES>  (39) 
COc1cc2c(c(OC)c1OC)C[C@@H](C)[N@H+](C)C(C)C2

>  <Energy>  (39) 
82.31354358166959

>  <Genealogy>  (39) 
COc1cc2c(c(OC)c1OC)CC(C)[NH+](C)C(C)C2 (protonated)
COc1cc2c(c(OC)c1OC)C[C@@H](C)[N@H+](C)C(C)C2 (chirality)
COc1cc2c(c(OC)c1OC)C[C@@H](C)[N@H+](C)C(C)C2 (3D coordinates assigned)
COc1cc2c(c(OC)c1OC)C[C@@H](C)[N@H+](C)C(C)C2 (nonaromatic ring conformer: 82.31354358166959 kcal/mol)

>  <smiles>  (39) 
COc1cc2c(c(OC)c1OC)CC(C)N(C)C(C)C2

>  <score_type>  (39) 
oracle

>  <origin>  (39) 
adg

>  <m_score__min__energy>  (39) 
-2.9900000000000002

>  <m_primary>  (39) 
energy

$$$$
39:0
     RDKit          3D

 53 53  0  0  0  0  0  0  0  0999 V2000
   59.6200   35.2850   46.1690 C   0  0  0  0  0  0  0  0  0  0  0  0
   59.1160   34.6430   44.8830 C   0  0  0  0  0  0  0  0  0  0  0  0
   57.7360   33.9850   45.0510 C   0  0  0  0  0  0  0  0  0  0  0  0
   57.6400   33.0400   46.2650 C   0  0  0  0  0  0  0  0  0  0  0  0
   58.4230   31.7980   46.1010 N   0  0  0  0  0  0  0  0  0  0  0  0
   58.3960   31.1390   44.7830 C   0  0  0  0  0  0  0  0  0  0  0  0
   56.9550   30.8580   44.2850 C   0  0  1  0  0  0  0  0  0  0  0  0
   56.9270   30.7560   42.7550 C   0  0  0  0  0  0  0  0  0  0  0  0
   56.3800   29.5960   44.8710 C   0  0  0  0  0  0  0  0  0  0  0  0
   55.1490   29.3450   44.7500 O   0  0  0  0  0  0  0  0  0  0  0  0
   57.2270   28.7430   45.6540 N   0  0  0  0  0  0  0  0  0  0  0  0
   58.1420   27.7080   45.1610 C   0  0  0  0  0  0  0  0  0  0  0  0
   59.5890   28.0240   45.5860 C   0  0  0  0  0  0  0  0  0  0  0  0
   57.7180   26.3740   45.7930 C   0  0  0  0  0  0  0  0  0  0  0  0
   58.0440   27.5950   43.6290 C   0  0  0  0  0  0  0  0  0  0  0  0
   59.5960   31.5940   46.9170 C   0  0  0  0  0  0  0  0  0  0  0  0
   60.7570   32.3580   46.6990 C   0  0  0  0  0  0  0  0  0  0  0  0
   61.9050   32.1550   47.4810 C   0  0  0  0  0  0  0  0  0  0  0  0
   63.1470   32.9570   47.2220 C   0  0  0  0  0  0  0  0  0  0  0  0
   61.9020   31.1550   48.4630 C   0  0  0  0  0  0  0  0  0  0  0  0
   60.7570   30.3840   48.6770 C   0  0  0  0  0  0  0  0  0  0  0  0
   59.6100   30.5970   47.9080 C   0  0  0  0  0  0  0  0  0  0  0  0
   58.5140   29.8340   48.1390 F   0  0  0  0  0  0  0  0  0  0  0  0
   59.2006   34.7508   47.0343 H   0  0  0  0  0  0  0  0  0  0  0  0
   60.7181   35.2293   46.2007 H   0  0  0  0  0  0  0  0  0  0  0  0
   59.3052   36.3385   46.2007 H   0  0  0  0  0  0  0  0  0  0  0  0
   59.0440   35.4190   44.1067 H   0  0  0  0  0  0  0  0  0  0  0  0
   59.8293   33.8537   44.6032 H   0  0  0  0  0  0  0  0  0  0  0  0
   56.9851   34.7800   45.1703 H   0  0  0  0  0  0  0  0  0  0  0  0
   57.5623   33.3723   44.1541 H   0  0  0  0  0  0  0  0  0  0  0  0
   58.0119   33.5727   47.1526 H   0  0  0  0  0  0  0  0  0  0  0  0
   56.5844   32.7488   46.3690 H   0  0  0  0  0  0  0  0  0  0  0  0
   58.9000   31.7900   44.0535 H   0  0  0  0  0  0  0  0  0  0  0  0
   58.9075   30.1705   44.8848 H   0  0  0  0  0  0  0  0  0  0  0  0
   56.3365   31.7035   44.6206 H   0  0  0  0  0  0  0  0  0  0  0  0
   56.6464   29.7339   42.4607 H   0  0  0  0  0  0  0  0  0  0  0  0
   56.1912   31.4683   42.3534 H   0  0  0  0  0  0  0  0  0  0  0  0
   57.9234   30.9927   42.3534 H   0  0  0  0  0  0  0  0  0  0  0  0
   59.6539   28.0382   46.6840 H   0  0  0  0  0  0  0  0  0  0  0  0
   60.2647   27.2522   45.1887 H   0  0  0  0  0  0  0  0  0  0  0  0
   59.8814   29.0072   45.1887 H   0  0  0  0  0  0  0  0  0  0  0  0
   57.7460   26.4622   46.8891 H   0  0  0  0  0  0  0  0  0  0  0  0
   56.6962   26.1242   45.4713 H   0  0  0  0  0  0  0  0  0  0  0  0
   58.4081   25.5801   45.4713 H   0  0  0  0  0  0  0  0  0  0  0  0
   57.3444   26.7883   43.3649 H   0  0  0  0  0  0  0  0  0  0  0  0
   57.6803   28.5464   43.2137 H   0  0  0  0  0  0  0  0  0  0  0  0
   59.0373   27.3695   43.2137 H   0  0  0  0  0  0  0  0  0  0  0  0
   60.7653   33.1222   45.9078 H   0  0  0  0  0  0  0  0  0  0  0  0
   63.6007   33.2500   48.1803 H   0  0  0  0  0  0  0  0  0  0  0  0
   63.8625   32.3499   46.6480 H   0  0  0  0  0  0  0  0  0  0  0  0
   62.8880   33.8589   46.6480 H   0  0  0  0  0  0  0  0  0  0  0  0
   62.8039   30.9768   49.0670 H   0  0  0  0  0  0  0  0  0  0  0  0
   60.7583   29.6057   49.4544 H   0  0  0  0  0  0  0  0  0  0  0  0
  1  2  1  0
  2  3  1  0
  3  4  1  0
  4  5  1  0
  5  6  1  0
  6  7  1  0
  7  8  1  0
  7  9  1  0
  9 10  2  0
  9 11  1  0
 11 12  1  0
 12 13  1  0
 12 14  1  0
 12 15  1  0
  5 16  1  0
 16 17  2  0
 17 18  1  0
 18 19  1  0
 18 20  2  0
 20 21  1  0
 21 22  2  0
 22 23  1  0
 22 16  1  0
  1 24  1  0
  1 25  1  0
  1 26  1  0
  2 27  1  0
  2 28  1  0
  3 29  1  0
  3 30  1  0
  4 31  1  0
  4 32  1  0
  6 33  1  0
  6 34  1  0
  7 35  1  6
  8 36  1  0
  8 37  1  0
  8 38  1  0
 13 39  1  0
 13 40  1  0
 13 41  1  0
 14 42  1  0
 14 43  1  0
 14 44  1  0
 15 45  1  0
 15 46  1  0
 15 47  1  0
 17 48  1  0
 19 49  1  0
 19 50  1  0
 19 51  1  0
 20 52  1  0
 21 53  1  0
M  CHG  1  11  -1
M  END
>  <UniqueID>  (40) 
38

>  <SMILES>  (40) 
CCCCN(C[C@@H](C)C(=O)[N-]C(C)(C)C)c1cc(C)ccc1F

>  <Energy>  (40) 
40.47093340226526

>  <Genealogy>  (40) 
CCCCN(CC(C)C(=O)[N-]C(C)(C)C)c1cc(C)ccc1F (protonated)
CCCCN(C[C@@H](C)C(=O)[N-]C(C)(C)C)c1cc(C)ccc1F (chirality)
CCCCN(C[C@@H](C)C(=O)[N-]C(C)(C)C)c1cc(C)ccc1F (3D coordinates assigned)
CCCCN(C[C@@H](C)C(=O)[N-]C(C)(C)C)c1cc(C)ccc1F (optimized conformer: 40.47093340226526 kcal/mol)

>  <smiles>  (40) 
CCCCN(CC(C)C(=O)NC(C)(C)C)c1cc(C)ccc1F

>  <score_type>  (40) 
oracle

>  <origin>  (40) 
adg

>  <m_score__min__energy>  (40) 
-8.8499999999999996

>  <m_primary>  (40) 
energy

$$$$
40:0
     RDKit          3D

 53 54  0  0  0  0  0  0  0  0999 V2000
   59.3810   27.9090   44.0940 C   0  0  0  0  0  0  0  0  0  0  0  0
   58.2080   26.9240   43.9840 C   0  0  0  0  0  0  0  0  0  0  0  0
   57.1550   27.1030   45.0220 N   0  0  2  0  0  0  0  0  0  0  0  0
   57.2870   28.4220   45.7050 C   0  0  0  0  0  0  0  0  0  0  0  0
   56.4110   29.4900   45.0820 C   0  0  0  0  0  0  0  0  0  0  0  0
   55.2870   29.1800   44.6070 O   0  0  0  0  0  0  0  0  0  0  0  0
   56.8380   30.8580   44.9920 N   0  0  0  0  0  0  0  0  0  0  0  0
   57.9800   31.4390   45.6360 C   0  0  0  0  0  0  0  0  0  0  0  0
   59.1810   30.7330   45.7820 C   0  0  0  0  0  0  0  0  0  0  0  0
   60.2710   31.3170   46.4320 C   0  0  0  0  0  0  0  0  0  0  0  0
   60.1890   32.6230   46.9700 C   0  0  0  0  0  0  0  0  0  0  0  0
   61.3310   33.2400   47.6410 N   0  0  0  0  0  0  0  0  0  0  0  0
   62.6860   33.0560   47.0810 C   0  0  0  0  0  0  0  0  0  0  0  0
   63.7690   33.8370   47.8290 C   0  0  0  0  0  0  0  0  0  0  0  0
   63.5370   33.8140   49.2170 O   0  0  0  0  0  0  0  0  0  0  0  0
   62.3930   34.5880   49.4880 C   0  0  0  0  0  0  0  0  0  0  0  0
   61.1280   33.9190   48.9390 C   0  0  0  0  0  0  0  0  0  0  0  0
   58.9530   33.3020   46.8470 C   0  0  0  0  0  0  0  0  0  0  0  0
   57.8660   32.7110   46.1950 C   0  0  0  0  0  0  0  0  0  0  0  0
   57.1290   25.9880   46.0060 C   0  0  0  0  0  0  0  0  0  0  0  0
   55.7680   25.3280   46.1040 C   0  0  0  0  0  0  0  0  0  0  0  0
   54.7640   25.9620   45.6750 O   0  0  0  0  0  0  0  0  0  0  0  0
   55.5810   24.0290   46.7080 N   0  0  0  0  0  0  0  0  0  0  0  0
   54.2830   23.3630   46.5670 C   0  0  0  0  0  0  0  0  0  0  0  0
   56.6430   23.3990   47.5030 C   0  0  0  0  0  0  0  0  0  0  0  0
   59.6042   28.0964   45.1547 H   0  0  0  0  0  0  0  0  0  0  0  0
   60.2671   27.4803   43.6031 H   0  0  0  0  0  0  0  0  0  0  0  0
   59.1120   28.8559   43.6031 H   0  0  0  0  0  0  0  0  0  0  0  0
   57.7423   27.0525   42.9958 H   0  0  0  0  0  0  0  0  0  0  0  0
   58.6277   25.9181   44.1327 H   0  0  0  0  0  0  0  0  0  0  0  0
   56.2420   27.1000   44.5050 H   0  0  0  0  0  0  0  0  0  0  0  0
   57.0007   28.3027   46.7604 H   0  0  0  0  0  0  0  0  0  0  0  0
   58.3329   28.7472   45.6032 H   0  0  0  0  0  0  0  0  0  0  0  0
   59.2664   29.7118   45.3821 H   0  0  0  0  0  0  0  0  0  0  0  0
   61.2097   30.7514   46.5272 H   0  0  0  0  0  0  0  0  0  0  0  0
   62.9373   31.9859   47.1228 H   0  0  0  0  0  0  0  0  0  0  0  0
   62.6643   33.4405   46.0506 H   0  0  0  0  0  0  0  0  0  0  0  0
   64.7492   33.3835   47.6202 H   0  0  0  0  0  0  0  0  0  0  0  0
   63.7483   34.8821   47.4866 H   0  0  0  0  0  0  0  0  0  0  0  0
   62.2913   34.7089   50.5766 H   0  0  0  0  0  0  0  0  0  0  0  0
   62.5102   35.5660   48.9983 H   0  0  0  0  0  0  0  0  0  0  0  0
   60.7836   33.1735   49.6709 H   0  0  0  0  0  0  0  0  0  0  0  0
   60.3885   34.7163   48.7729 H   0  0  0  0  0  0  0  0  0  0  0  0
   58.8457   34.3112   47.2713 H   0  0  0  0  0  0  0  0  0  0  0  0
   56.9125   33.2547   46.1226 H   0  0  0  0  0  0  0  0  0  0  0  0
   57.8663   25.2311   45.7002 H   0  0  0  0  0  0  0  0  0  0  0  0
   57.3663   26.4100   46.9937 H   0  0  0  0  0  0  0  0  0  0  0  0
   53.8695   23.1508   47.5640 H   0  0  0  0  0  0  0  0  0  0  0  0
   53.5927   24.0183   46.0156 H   0  0  0  0  0  0  0  0  0  0  0  0
   54.4127   22.4201   46.0156 H   0  0  0  0  0  0  0  0  0  0  0  0
   56.4253   23.5281   48.5735 H   0  0  0  0  0  0  0  0  0  0  0  0
   56.6913   22.3260   47.2655 H   0  0  0  0  0  0  0  0  0  0  0  0
   57.6078   23.8709   47.2655 H   0  0  0  0  0  0  0  0  0  0  0  0
  1  2  1  0
  2  3  1  0
  3  4  1  0
  4  5  1  0
  5  6  2  0
  5  7  1  0
  7  8  1  0
  8  9  2  0
  9 10  1  0
 10 11  2  0
 11 12  1  0
 12 13  1  0
 13 14  1  0
 14 15  1  0
 15 16  1  0
 16 17  1  0
 11 18  1  0
 18 19  2  0
  3 20  1  0
 20 21  1  0
 21 22  2  0
 21 23  1  0
 23 24  1  0
 23 25  1  0
 19  8  1  0
 17 12  1  0
  1 26  1  0
  1 27  1  0
  1 28  1  0
  2 29  1  0
  2 30  1  0
  3 31  1  6
  4 32  1  0
  4 33  1  0
  9 34  1  0
 10 35  1  0
 13 36  1  0
 13 37  1  0
 14 38  1  0
 14 39  1  0
 16 40  1  0
 16 41  1  0
 17 42  1  0
 17 43  1  0
 18 44  1  0
 19 45  1  0
 20 46  1  0
 20 47  1  0
 24 48  1  0
 24 49  1  0
 24 50  1  0
 25 51  1  0
 25 52  1  0
 25 53  1  0
M  CHG  2   3   1   7  -1
M  END
>  <UniqueID>  (41) 
39

>  <SMILES>  (41) 
CC[N@H+](CC(=O)[N-]c1ccc(N2CCOCC2)cc1)CC(=O)N(C)C

>  <Energy>  (41) 
68.28508327257472

>  <Genealogy>  (41) 
CC[NH+](CC(=O)[N-]c1ccc(N2CCOCC2)cc1)CC(=O)N(C)C (protonated)
CC[N@H+](CC(=O)[N-]c1ccc(N2CCOCC2)cc1)CC(=O)N(C)C (chirality)
CC[N@H+](CC(=O)[N-]c1ccc(N2CCOCC2)cc1)CC(=O)N(C)C (3D coordinates assigned)
CC[N@H+](CC(=O)[N-]c1ccc(N2CCOCC2)cc1)CC(=O)N(C)C (nonaromatic ring conformer: 68.28508327257472 kcal/mol)

>  <smiles>  (41) 
CCN(CC(=O)Nc1ccc(N2CCOCC2)cc1)CC(=O)N(C)C

>  <score_type>  (41) 
oracle

>  <origin>  (41) 
adg

>  <m_score__min__energy>  (41) 
-8.2699999999999996

>  <m_primary>  (41) 
energy

$$$$
41:0
     RDKit          3D

 51 53  0  0  0  0  0  0  0  0999 V2000
   61.3210   33.1860   52.1340 C   0  0  0  0  0  0  0  0  0  0  0  0
   61.9520   32.2890   51.2250 O   0  0  0  0  0  0  0  0  0  0  0  0
   61.2660   31.4980   50.2920 C   0  0  0  0  0  0  0  0  0  0  0  0
   59.8790   31.3700   50.4220 C   0  0  0  0  0  0  0  0  0  0  0  0
   59.1450   30.6230   49.4970 C   0  0  0  0  0  0  0  0  0  0  0  0
   59.7920   29.9930   48.4240 C   0  0  0  0  0  0  0  0  0  0  0  0
   59.0070   29.1690   47.4790 C   0  0  0  0  0  0  0  0  0  0  0  0
   58.8390   27.8000   47.7990 C   0  0  0  0  0  0  0  0  0  0  0  0
   59.5730   27.1690   48.8080 O   0  0  0  0  0  0  0  0  0  0  0  0
   57.8920   27.0360   47.1300 C   0  0  0  0  0  0  0  0  0  0  0  0
   57.0310   27.6130   46.2090 C   0  0  0  0  0  0  0  0  0  0  0  0
   56.0510   26.8080   45.6350 O   0  0  0  0  0  0  0  0  0  0  0  0
   57.1620   28.9790   45.8710 C   0  0  0  0  0  0  0  0  0  0  0  0
   56.2530   29.6070   44.9960 C   0  0  0  0  0  0  0  0  0  0  0  0
   55.2590   28.9880   44.5290 O   0  0  0  0  0  0  0  0  0  0  0  0
   56.4120   30.8740   44.6580 O   0  0  0  0  0  0  0  0  0  0  0  0
   57.4420   31.6140   45.0400 C   0  0  0  0  0  0  0  0  0  0  0  0
   57.4640   33.0380   44.5240 C   0  0  0  0  0  0  0  0  0  0  0  0
   58.4110   33.1960   43.3320 C   0  0  0  0  0  0  0  0  0  0  0  0
   57.7470   32.2820   41.7540 Br  0  0  0  0  0  0  0  0  0  0  0  0
   58.4430   31.0630   45.8850 C   0  0  0  0  0  0  0  0  0  0  0  0
   59.7700   31.7920   46.0250 C   0  0  0  0  0  0  0  0  0  0  0  0
   59.6480   33.0370   46.8700 C   0  0  0  0  0  0  0  0  0  0  0  0
   60.7080   33.6500   47.4390 C   0  0  0  0  0  0  0  0  0  0  0  0
   62.0650   33.4880   46.8060 C   0  0  0  0  0  0  0  0  0  0  0  0
   60.5610   34.4840   48.6890 C   0  0  0  0  0  0  0  0  0  0  0  0
   58.2250   29.7510   46.4220 C   0  0  0  0  0  0  0  0  0  0  0  0
   61.1900   30.0810   48.3160 C   0  0  0  0  0  0  0  0  0  0  0  0
   61.9220   30.8390   49.2350 C   0  0  0  0  0  0  0  0  0  0  0  0
   61.5394   32.8756   53.1665 H   0  0  0  0  0  0  0  0  0  0  0  0
   61.7028   34.2043   51.9687 H   0  0  0  0  0  0  0  0  0  0  0  0
   60.2336   33.1708   51.9687 H   0  0  0  0  0  0  0  0  0  0  0  0
   59.3620   31.8615   51.2593 H   0  0  0  0  0  0  0  0  0  0  0  0
   58.0550   30.5287   49.6109 H   0  0  0  0  0  0  0  0  0  0  0  0
   60.3320   27.6080   49.3130 H   0  0  0  0  0  0  0  0  0  0  0  0
   57.8239   25.9572   47.3337 H   0  0  0  0  0  0  0  0  0  0  0  0
   56.4476   33.3190   44.2110 H   0  0  0  0  0  0  0  0  0  0  0  0
   57.8225   33.6898   45.3343 H   0  0  0  0  0  0  0  0  0  0  0  0
   58.5196   34.2665   43.1036 H   0  0  0  0  0  0  0  0  0  0  0  0
   59.3784   32.7483   43.6035 H   0  0  0  0  0  0  0  0  0  0  0  0
   60.4988   31.1149   46.4944 H   0  0  0  0  0  0  0  0  0  0  0  0
   60.0971   32.0958   45.0197 H   0  0  0  0  0  0  0  0  0  0  0  0
   58.6475   33.4654   47.0298 H   0  0  0  0  0  0  0  0  0  0  0  0
   62.8282   33.3969   47.5929 H   0  0  0  0  0  0  0  0  0  0  0  0
   62.0725   32.5826   46.1814 H   0  0  0  0  0  0  0  0  0  0  0  0
   62.2854   34.3662   46.1814 H   0  0  0  0  0  0  0  0  0  0  0  0
   60.6743   33.8410   49.5742 H   0  0  0  0  0  0  0  0  0  0  0  0
   61.3353   35.2652   48.7017 H   0  0  0  0  0  0  0  0  0  0  0  0
   59.5663   34.9534   48.7017 H   0  0  0  0  0  0  0  0  0  0  0  0
   61.7110   29.5512   47.5049 H   0  0  0  0  0  0  0  0  0  0  0  0
   63.0141   30.9207   49.1318 H   0  0  0  0  0  0  0  0  0  0  0  0
  1  2  1  0
  2  3  1  0
  3  4  2  0
  4  5  1  0
  5  6  2  0
  6  7  1  0
  7  8  2  0
  8  9  1  0
  8 10  1  0
 10 11  2  0
 11 12  1  0
 11 13  1  0
 13 14  1  0
 14 15  2  0
 14 16  1  0
 16 17  1  0
 17 18  1  0
 18 19  1  0
 19 20  1  0
 17 21  2  0
 21 22  1  0
 22 23  1  0
 23 24  2  3
 24 25  1  0
 24 26  1  0
 21 27  1  0
  6 28  1  0
 28 29  2  0
 29  3  1  0
 27  7  1  0
 27 13  2  0
  1 30  1  0
  1 31  1  0
  1 32  1  0
  4 33  1  0
  5 34  1  0
  9 35  1  0
 10 36  1  0
 18 37  1  0
 18 38  1  0
 19 39  1  0
 19 40  1  0
 22 41  1  0
 22 42  1  0
 23 43  1  0
 25 44  1  0
 25 45  1  0
 25 46  1  0
 26 47  1  0
 26 48  1  0
 26 49  1  0
 28 50  1  0
 29 51  1  0
M  CHG  1  12  -1
M  END
>  <UniqueID>  (42) 
40

>  <SMILES>  (42) 
COc1ccc(-c2c(O)cc([O-])c3c(=O)oc(CCBr)c(CC=C(C)C)c23)cc1

>  <Energy>  (42) 
74.2716818282922

>  <Genealogy>  (42) 
COc1ccc(-c2c(O)cc([O-])c3c(=O)oc(CCBr)c(CC=C(C)C)c23)cc1 (protonated)
COc1ccc(-c2c(O)cc([O-])c3c(=O)oc(CCBr)c(CC=C(C)C)c23)cc1 (3D coordinates assigned)
COc1ccc(-c2c(O)cc([O-])c3c(=O)oc(CCBr)c(CC=C(C)C)c23)cc1 (optimized conformer: 74.2716818282922 kcal/mol)

>  <smiles>  (42) 
COc1ccc(-c2c(O)cc(O)c3c(=O)oc(CCBr)c(CC=C(C)C)c23)cc1

>  <score_type>  (42) 
oracle

>  <origin>  (42) 
adg

>  <m_score__min__energy>  (42) 
-9.0500000000000007

>  <m_primary>  (42) 
energy

$$$$
42:0
     RDKit          3D

 56 58  0  0  0  0  0  0  0  0999 V2000
   59.1570   34.0740   44.3080 C   0  0  0  0  0  0  0  0  0  0  0  0
   57.9960   33.4530   45.0770 C   0  0  0  0  0  0  0  0  0  0  0  0
   58.3080   32.0580   45.4510 N   0  0  0  0  0  0  0  0  0  0  0  0
   57.3720   31.0750   45.2740 C   0  0  0  0  0  0  0  0  0  0  0  0
   56.2260   31.3750   44.8350 O   0  0  0  0  0  0  0  0  0  0  0  0
   57.6950   29.7310   45.5540 C   0  0  0  0  0  0  0  0  0  0  0  0
   56.7810   28.6710   45.3800 C   0  0  0  0  0  0  0  0  0  0  0  0
   55.5900   28.9000   45.0280 O   0  0  0  0  0  0  0  0  0  0  0  0
   57.1950   27.3510   45.6140 C   0  0  0  0  0  0  0  0  0  0  0  0
   56.2860   26.2810   45.5210 C   0  0  0  0  0  0  0  0  0  0  0  0
   56.7060   24.9650   45.7120 C   0  0  0  0  0  0  0  0  0  0  0  0
   55.7810   23.9800   45.5880 F   0  0  0  0  0  0  0  0  0  0  0  0
   58.0560   24.6850   46.0020 C   0  0  0  0  0  0  0  0  0  0  0  0
   58.5470   23.3450   46.2160 N   0  0  0  0  0  0  0  0  0  0  0  0
   59.0930   22.4840   45.1630 C   0  0  0  0  0  0  0  0  0  0  0  0
   57.9800   21.7480   44.3770 C   0  0  0  0  0  0  0  0  0  0  0  0
   57.4320   20.5340   45.0370 N   0  0  0  0  0  0  0  0  0  0  0  0
   55.9580   20.4910   45.0150 C   0  0  0  0  0  0  0  0  0  0  0  0
   57.9420   20.3430   46.4040 C   0  0  0  0  0  0  0  0  0  0  0  0
   58.9650   25.7520   46.0800 C   0  0  0  0  0  0  0  0  0  0  0  0
   58.5550   27.0930   45.8950 C   0  0  0  0  0  0  0  0  0  0  0  0
   59.4540   28.1380   45.9630 N   0  0  0  0  0  0  0  0  0  0  0  0
   60.8830   27.8650   45.6990 C   0  0  0  0  0  0  0  0  0  0  0  0
   58.9960   29.4420   46.0120 C   0  0  0  0  0  0  0  0  0  0  0  0
   59.7820   30.4820   46.4640 N   0  0  0  0  0  0  0  0  0  0  0  0
   60.7700   30.2880   47.5530 C   0  0  0  0  0  0  0  0  0  0  0  0
   62.1340   30.8690   47.1680 C   0  0  0  0  0  0  0  0  0  0  0  0
   59.4920   31.7650   46.0750 C   0  0  0  0  0  0  0  0  0  0  0  0
   60.3160   32.6930   46.3220 O   0  0  0  0  0  0  0  0  0  0  0  0
   59.8974   34.4700   45.0186 H   0  0  0  0  0  0  0  0  0  0  0  0
   59.6292   33.3080   43.6753 H   0  0  0  0  0  0  0  0  0  0  0  0
   58.7820   34.8920   43.6753 H   0  0  0  0  0  0  0  0  0  0  0  0
   57.8116   34.0394   45.9892 H   0  0  0  0  0  0  0  0  0  0  0  0
   57.1025   33.4572   44.4354 H   0  0  0  0  0  0  0  0  0  0  0  0
   55.2292   26.4854   45.2944 H   0  0  0  0  0  0  0  0  0  0  0  0
   58.4860   22.9620   47.1870 H   0  0  0  0  0  0  0  0  0  0  0  0
   59.6714   23.1040   44.4623 H   0  0  0  0  0  0  0  0  0  0  0  0
   59.7284   21.7245   45.6419 H   0  0  0  0  0  0  0  0  0  0  0  0
   57.1507   22.4537   44.2213 H   0  0  0  0  0  0  0  0  0  0  0  0
   58.4459   21.4018   43.4426 H   0  0  0  0  0  0  0  0  0  0  0  0
   57.7640   19.7160   44.4730 H   0  0  0  0  0  0  0  0  0  0  0  0
   55.5761   20.4799   46.0465 H   0  0  0  0  0  0  0  0  0  0  0  0
   55.5731   21.3783   44.4910 H   0  0  0  0  0  0  0  0  0  0  0  0
   55.6255   19.5828   44.4910 H   0  0  0  0  0  0  0  0  0  0  0  0
   57.1668   20.6333   47.1285 H   0  0  0  0  0  0  0  0  0  0  0  0
   58.2052   19.2854   46.5527 H   0  0  0  0  0  0  0  0  0  0  0  0
   58.8352   20.9676   46.5527 H   0  0  0  0  0  0  0  0  0  0  0  0
   60.0236   25.5396   46.2905 H   0  0  0  0  0  0  0  0  0  0  0  0
   61.4192   27.7626   46.6540 H   0  0  0  0  0  0  0  0  0  0  0  0
   60.9779   26.9325   45.1233 H   0  0  0  0  0  0  0  0  0  0  0  0
   61.3150   28.6969   45.1233 H   0  0  0  0  0  0  0  0  0  0  0  0
   60.4078   30.7922   48.4611 H   0  0  0  0  0  0  0  0  0  0  0  0
   60.8869   29.2089   47.7314 H   0  0  0  0  0  0  0  0  0  0  0  0
   62.7003   31.1102   48.0796 H   0  0  0  0  0  0  0  0  0  0  0  0
   62.6926   30.1307   46.5739 H   0  0  0  0  0  0  0  0  0  0  0  0
   61.9886   31.7833   46.5739 H   0  0  0  0  0  0  0  0  0  0  0  0
  1  2  1  0
  2  3  1  0
  3  4  1  0
  4  5  2  0
  4  6  1  0
  6  7  1  0
  7  8  2  0
  7  9  1  0
  9 10  2  0
 10 11  1  0
 11 12  1  0
 11 13  2  0
 13 14  1  0
 14 15  1  0
 15 16  1  0
 16 17  1  0
 17 18  1  0
 17 19  1  0
 13 20  1  0
 20 21  2  0
 21 22  1  0
 22 23  1  0
 22 24  1  0
 24 25  1  0
 25 26  1  0
 26 27  1  0
 25 28  1  0
 28 29  2  0
 28  3  1  0
 24  6  2  0
 21  9  1  0
  1 30  1  0
  1 31  1  0
  1 32  1  0
  2 33  1  0
  2 34  1  0
 10 35  1  0
 14 36  1  0
 15 37  1  0
 15 38  1  0
 16 39  1  0
 16 40  1  0
 17 41  1  0
 18 42  1  0
 18 43  1  0
 18 44  1  0
 19 45  1  0
 19 46  1  0
 19 47  1  0
 20 48  1  0
 23 49  1  0
 23 50  1  0
 23 51  1  0
 26 52  1  0
 26 53  1  0
 27 54  1  0
 27 55  1  0
 27 56  1  0
M  CHG  1  17   1
M  END
>  <UniqueID>  (43) 
41

>  <SMILES>  (43) 
CCn1c(=O)c2c(=O)c3cc(F)c(NCC[NH+](C)C)cc3n(C)c2n(CC)c1=O

>  <Energy>  (43) 
102.32647198581093

>  <Genealogy>  (43) 
CCn1c(=O)c2c(=O)c3cc(F)c(NCC[NH+](C)C)cc3n(C)c2n(CC)c1=O (protonated)
CCn1c(=O)c2c(=O)c3cc(F)c(NCC[NH+](C)C)cc3n(C)c2n(CC)c1=O (3D coordinates assigned)
CCn1c(=O)c2c(=O)c3cc(F)c(NCC[NH+](C)C)cc3n(C)c2n(CC)c1=O (optimized conformer: 102.32647198581093 kcal/mol)

>  <smiles>  (43) 
CCn1c(=O)c2c(=O)c3cc(F)c(NCCN(C)C)cc3n(C)c2n(CC)c1=O

>  <score_type>  (43) 
oracle

>  <origin>  (43) 
adg

>  <m_score__min__energy>  (43) 
-6.0300000000000002

>  <m_primary>  (43) 
energy

$$$$
43:0
     RDKit          3D

 45 45  0  0  0  0  0  0  0  0999 V2000
   59.2250   29.6880   44.8760 C   0  0  0  0  0  0  0  0  0  0  0  0
   57.8790   29.7120   45.5940 C   0  0  0  0  0  0  0  0  0  0  0  0
   57.0010   30.7460   45.0040 N   0  0  0  0  0  0  0  0  0  0  0  0
   56.0210   30.1520   44.0640 C   0  0  0  0  0  0  0  0  0  0  0  0
   56.6160   30.0950   42.6610 C   0  0  0  0  0  0  0  0  0  0  0  0
   57.7870   31.8270   44.3610 C   0  0  0  0  0  0  0  0  0  0  0  0
   57.3310   33.1980   44.8740 C   0  0  0  0  0  0  0  0  0  0  0  0
   58.4880   34.2120   44.8900 C   0  0  0  0  0  0  0  0  0  0  0  0
   58.9590   34.5350   46.3150 C   0  0  0  0  0  0  0  0  0  0  0  0
   59.9810   33.5370   46.8020 C   0  0  0  0  0  0  0  0  0  0  0  0
   61.3480   33.8420   46.7310 C   0  0  0  0  0  0  0  0  0  0  0  0
   62.3080   32.8980   47.1220 C   0  0  0  0  0  0  0  0  0  0  0  0
   63.7680   33.2390   47.0690 C   0  0  0  0  0  0  0  0  0  0  0  0
   61.8920   31.6540   47.6170 C   0  0  0  0  0  0  0  0  0  0  0  0
   60.5320   31.3330   47.6940 C   0  0  0  0  0  0  0  0  0  0  0  0
   60.1750   30.0670   48.1810 O   0  0  0  0  0  0  0  0  0  0  0  0
   59.1590   29.8380   49.1530 C   0  0  0  0  0  0  0  0  0  0  0  0
   59.5760   32.2810   47.2800 C   0  0  0  0  0  0  0  0  0  0  0  0
   60.0364   29.6735   45.6185 H   0  0  0  0  0  0  0  0  0  0  0  0
   59.2885   28.7886   44.2459 H   0  0  0  0  0  0  0  0  0  0  0  0
   59.3205   30.5846   44.2459 H   0  0  0  0  0  0  0  0  0  0  0  0
   57.3976   28.7279   45.4956 H   0  0  0  0  0  0  0  0  0  0  0  0
   58.0440   29.9461   46.6561 H   0  0  0  0  0  0  0  0  0  0  0  0
   55.7692   29.1337   44.3950 H   0  0  0  0  0  0  0  0  0  0  0  0
   55.1131   30.7728   44.0473 H   0  0  0  0  0  0  0  0  0  0  0  0
   57.7088   29.9903   42.7302 H   0  0  0  0  0  0  0  0  0  0  0  0
   56.1985   29.2327   42.1204 H   0  0  0  0  0  0  0  0  0  0  0  0
   56.3698   31.0208   42.1204 H   0  0  0  0  0  0  0  0  0  0  0  0
   58.8528   31.6886   44.5954 H   0  0  0  0  0  0  0  0  0  0  0  0
   57.6301   31.7832   43.2731 H   0  0  0  0  0  0  0  0  0  0  0  0
   56.5335   33.5771   44.2180 H   0  0  0  0  0  0  0  0  0  0  0  0
   56.9676   33.0754   45.9050 H   0  0  0  0  0  0  0  0  0  0  0  0
   59.3334   33.7933   44.3243 H   0  0  0  0  0  0  0  0  0  0  0  0
   58.1241   35.1454   44.4358 H   0  0  0  0  0  0  0  0  0  0  0  0
   59.4083   35.5390   46.3235 H   0  0  0  0  0  0  0  0  0  0  0  0
   58.0872   34.4890   46.9842 H   0  0  0  0  0  0  0  0  0  0  0  0
   61.6692   34.8287   46.3660 H   0  0  0  0  0  0  0  0  0  0  0  0
   64.1605   33.3307   48.0925 H   0  0  0  0  0  0  0  0  0  0  0  0
   64.3113   32.4436   46.5378 H   0  0  0  0  0  0  0  0  0  0  0  0
   63.9027   34.1928   46.5378 H   0  0  0  0  0  0  0  0  0  0  0  0
   62.6431   30.9220   47.9486 H   0  0  0  0  0  0  0  0  0  0  0  0
   59.5878   29.9346   50.1614 H   0  0  0  0  0  0  0  0  0  0  0  0
   58.3549   30.5774   49.0241 H   0  0  0  0  0  0  0  0  0  0  0  0
   58.7498   28.8251   49.0241 H   0  0  0  0  0  0  0  0  0  0  0  0
   58.5050   32.0354   47.3316 H   0  0  0  0  0  0  0  0  0  0  0  0
  1  2  1  0
  2  3  1  0
  3  4  1  0
  4  5  1  0
  3  6  1  0
  6  7  1  0
  7  8  1  0
  8  9  1  0
  9 10  1  0
 10 11  2  0
 11 12  1  0
 12 13  1  0
 12 14  2  0
 14 15  1  0
 15 16  1  0
 16 17  1  0
 15 18  2  0
 18 10  1  0
  1 19  1  0
  1 20  1  0
  1 21  1  0
  2 22  1  0
  2 23  1  0
  4 24  1  0
  4 25  1  0
  5 26  1  0
  5 27  1  0
  5 28  1  0
  6 29  1  0
  6 30  1  0
  7 31  1  0
  7 32  1  0
  8 33  1  0
  8 34  1  0
  9 35  1  0
  9 36  1  0
 11 37  1  0
 13 38  1  0
 13 39  1  0
 13 40  1  0
 14 41  1  0
 17 42  1  0
 17 43  1  0
 17 44  1  0
 18 45  1  0
M  END
>  <UniqueID>  (44) 
42

>  <SMILES>  (44) 
CCN(CC)CCCCc1cc(C)cc(OC)c1

>  <Energy>  (44) 
32.01115884415807

>  <Genealogy>  (44) 
CCN(CC)CCCCc1cc(C)cc(OC)c1 (3D coordinates assigned)
CCN(CC)CCCCc1cc(C)cc(OC)c1 (optimized conformer: 32.01115884415807 kcal/mol)

>  <smiles>  (44) 
CCN(CC)CCCCc1cc(C)cc(OC)c1

>  <score_type>  (44) 
oracle

>  <origin>  (44) 
adg

>  <m_score__min__energy>  (44) 
-6.5

>  <m_primary>  (44) 
energy

$$$$
44:0
     RDKit          3D

 52 53  0  0  0  0  0  0  0  0999 V2000
   58.9030   32.5260   48.6590 C   0  0  0  0  0  0  0  0  0  0  0  0
   60.1750   33.3610   48.7890 C   0  0  0  0  0  0  0  0  0  0  0  0
   61.1610   33.0150   47.7350 N   0  0  0  0  0  0  0  0  0  0  0  0
   62.4110   33.7860   47.9440 C   0  0  0  0  0  0  0  0  0  0  0  0
   63.3810   33.5320   46.7930 C   0  0  0  0  0  0  0  0  0  0  0  0
   60.5910   33.2680   46.3890 C   0  0  0  0  0  0  0  0  0  0  0  0
   59.9610   34.6710   46.2580 C   0  0  0  0  0  0  0  0  0  0  0  0
   59.2690   34.9370   44.9100 C   0  0  0  0  0  0  0  0  0  0  0  0
   57.7670   34.6010   44.9150 C   0  0  0  0  0  0  0  0  0  0  0  0
   57.5350   33.2720   44.3310 N   0  0  0  0  0  0  0  0  0  0  0  0
   57.5980   32.2190   45.3560 C   0  0  0  0  0  0  0  0  0  0  0  0
   57.5860   30.8590   44.6940 C   0  0  0  0  0  0  0  0  0  0  0  0
   56.6880   30.6540   43.6340 C   0  0  0  0  0  0  0  0  0  0  0  0
   56.6090   29.4090   43.0120 C   0  0  0  0  0  0  0  0  0  0  0  0
   57.3880   28.3810   43.4290 N   0  0  0  0  0  0  0  0  0  0  0  0
   58.2630   28.5230   44.4660 C   0  0  0  0  0  0  0  0  0  0  0  0
   59.0370   27.4270   44.8800 C   0  0  0  0  0  0  0  0  0  0  0  0
   59.9370   27.5520   45.9440 C   0  0  0  0  0  0  0  0  0  0  0  0
   60.7300   26.3610   46.3970 C   0  0  0  0  0  0  0  0  0  0  0  0
   60.0430   28.7740   46.6180 C   0  0  0  0  0  0  0  0  0  0  0  0
   59.2760   29.8720   46.2230 C   0  0  0  0  0  0  0  0  0  0  0  0
   58.3830   29.7700   45.1350 C   0  0  0  0  0  0  0  0  0  0  0  0
   58.5238   32.2771   49.6611 H   0  0  0  0  0  0  0  0  0  0  0  0
   58.1416   33.1006   48.1111 H   0  0  0  0  0  0  0  0  0  0  0  0
   59.1274   31.5989   48.1111 H   0  0  0  0  0  0  0  0  0  0  0  0
   59.9145   34.4260   48.6995 H   0  0  0  0  0  0  0  0  0  0  0  0
   60.6282   33.1506   49.7690 H   0  0  0  0  0  0  0  0  0  0  0  0
   62.1735   34.8591   47.9899 H   0  0  0  0  0  0  0  0  0  0  0  0
   62.8786   33.4662   48.8869 H   0  0  0  0  0  0  0  0  0  0  0  0
   64.3705   33.2729   47.1978 H   0  0  0  0  0  0  0  0  0  0  0  0
   63.0082   32.7012   46.1759 H   0  0  0  0  0  0  0  0  0  0  0  0
   63.4633   34.4389   46.1759 H   0  0  0  0  0  0  0  0  0  0  0  0
   61.3946   33.1731   45.6439 H   0  0  0  0  0  0  0  0  0  0  0  0
   59.7917   32.5304   46.2248 H   0  0  0  0  0  0  0  0  0  0  0  0
   59.2137   34.7878   47.0567 H   0  0  0  0  0  0  0  0  0  0  0  0
   60.7875   35.3930   46.3329 H   0  0  0  0  0  0  0  0  0  0  0  0
   59.3868   36.0022   44.6622 H   0  0  0  0  0  0  0  0  0  0  0  0
   59.7452   34.2810   44.1664 H   0  0  0  0  0  0  0  0  0  0  0  0
   57.3973   34.6108   45.9510 H   0  0  0  0  0  0  0  0  0  0  0  0
   57.2324   35.3518   44.3146 H   0  0  0  0  0  0  0  0  0  0  0  0
   58.3020   33.0840   43.6420 H   0  0  0  0  0  0  0  0  0  0  0  0
   58.5231   32.3328   45.9402 H   0  0  0  0  0  0  0  0  0  0  0  0
   56.7266   32.3070   46.0215 H   0  0  0  0  0  0  0  0  0  0  0  0
   56.0447   31.4787   43.2933 H   0  0  0  0  0  0  0  0  0  0  0  0
   55.9093   29.2596   42.1765 H   0  0  0  0  0  0  0  0  0  0  0  0
   57.2990   27.4620   42.9380 H   0  0  0  0  0  0  0  0  0  0  0  0
   58.9349   26.4614   44.3631 H   0  0  0  0  0  0  0  0  0  0  0  0
   60.7502   26.3306   47.4964 H   0  0  0  0  0  0  0  0  0  0  0  0
   60.2629   25.4420   46.0133 H   0  0  0  0  0  0  0  0  0  0  0  0
   61.7581   26.4375   46.0133 H   0  0  0  0  0  0  0  0  0  0  0  0
   60.7366   28.8703   47.4663 H   0  0  0  0  0  0  0  0  0  0  0  0
   59.3687   30.8249   46.7647 H   0  0  0  0  0  0  0  0  0  0  0  0
  1  2  1  0
  2  3  1  0
  3  4  1  0
  4  5  1  0
  3  6  1  0
  6  7  1  0
  7  8  1  0
  8  9  1  0
  9 10  1  0
 10 11  1  0
 11 12  1  0
 12 13  2  0
 13 14  1  0
 14 15  2  0
 15 16  1  0
 16 17  2  0
 17 18  1  0
 18 19  1  0
 18 20  2  0
 20 21  1  0
 21 22  2  0
 22 12  1  0
 22 16  1  0
  1 23  1  0
  1 24  1  0
  1 25  1  0
  2 26  1  0
  2 27  1  0
  4 28  1  0
  4 29  1  0
  5 30  1  0
  5 31  1  0
  5 32  1  0
  6 33  1  0
  6 34  1  0
  7 35  1  0
  7 36  1  0
  8 37  1  0
  8 38  1  0
  9 39  1  0
  9 40  1  0
 10 41  1  0
 11 42  1  0
 11 43  1  0
 13 44  1  0
 14 45  1  0
 15 46  1  0
 17 47  1  0
 19 48  1  0
 19 49  1  0
 19 50  1  0
 20 51  1  0
 21 52  1  0
M  CHG  1  15   1
M  END
>  <UniqueID>  (45) 
43

>  <SMILES>  (45) 
CCN(CC)CCCCNCc1cc[nH+]c2cc(C)ccc12

>  <Energy>  (45) 
48.46958058271616

>  <Genealogy>  (45) 
CCN(CC)CCCCNCc1cc[nH+]c2cc(C)ccc12 (protonated)
CCN(CC)CCCCNCc1cc[nH+]c2cc(C)ccc12 (3D coordinates assigned)
CCN(CC)CCCCNCc1cc[nH+]c2cc(C)ccc12 (optimized conformer: 48.46958058271616 kcal/mol)

>  <smiles>  (45) 
CCN(CC)CCCCNCc1ccnc2cc(C)ccc12

>  <score_type>  (45) 
oracle

>  <origin>  (45) 
adg

>  <m_score__min__energy>  (45) 
-6.2599999999999998

>  <m_primary>  (45) 
energy

$$$$
45:0
     RDKit          3D

 36 37  0  0  0  0  0  0  0  0999 V2000
   60.3640   34.1690   48.1170 C   0  0  0  0  0  0  0  0  0  0  0  0
   59.2310   34.8400   47.3520 C   0  0  0  0  0  0  0  0  0  0  0  0
   58.8660   34.0420   46.1860 N   0  0  0  0  0  0  0  0  0  0  0  0
   58.5700   32.7290   46.1890 C   0  0  0  0  0  0  0  0  0  0  0  0
   58.3310   32.3470   44.8850 C   0  0  0  0  0  0  0  0  0  0  0  0
   57.9050   31.0210   44.3900 C   0  0  0  0  0  0  0  0  0  0  0  0
   56.8160   30.9610   43.5070 C   0  0  0  0  0  0  0  0  0  0  0  0
   56.3880   29.7300   43.0140 C   0  0  0  0  0  0  0  0  0  0  0  0
   57.0300   28.5890   43.3740 N   0  0  0  0  0  0  0  0  0  0  0  0
   58.1020   28.6100   44.2110 C   0  0  0  0  0  0  0  0  0  0  0  0
   58.5750   29.8230   44.7410 C   0  0  0  0  0  0  0  0  0  0  0  0
   59.8080   29.8040   45.6200 C   0  0  0  0  0  0  0  0  0  0  0  0
   59.4450   29.7590   47.0520 N   0  0  0  0  0  0  0  0  0  0  0  0
   60.4940   30.4090   47.8540 C   0  0  0  0  0  0  0  0  0  0  0  0
   59.2630   28.3720   47.5140 C   0  0  0  0  0  0  0  0  0  0  0  0
   58.4880   33.4980   44.1350 C   0  0  0  0  0  0  0  0  0  0  0  0
   58.8290   34.5170   44.9510 N   0  0  0  0  0  0  0  0  0  0  0  0
   60.1885   34.2729   49.1979 H   0  0  0  0  0  0  0  0  0  0  0  0
   60.4033   33.1019   47.8528 H   0  0  0  0  0  0  0  0  0  0  0  0
   61.3186   34.6475   47.8528 H   0  0  0  0  0  0  0  0  0  0  0  0
   58.3566   34.9397   48.0119 H   0  0  0  0  0  0  0  0  0  0  0  0
   59.5644   35.8330   47.0163 H   0  0  0  0  0  0  0  0  0  0  0  0
   58.5264   32.0767   47.0736 H   0  0  0  0  0  0  0  0  0  0  0  0
   56.3009   31.8846   43.2044 H   0  0  0  0  0  0  0  0  0  0  0  0
   55.5271   29.6824   42.3309 H   0  0  0  0  0  0  0  0  0  0  0  0
   56.6970   27.6750   42.9940 H   0  0  0  0  0  0  0  0  0  0  0  0
   58.6041   27.6678   44.4759 H   0  0  0  0  0  0  0  0  0  0  0  0
   60.4095   28.9163   45.3746 H   0  0  0  0  0  0  0  0  0  0  0  0
   60.3807   30.7249   45.4354 H   0  0  0  0  0  0  0  0  0  0  0  0
   60.2749   30.2733   48.9234 H   0  0  0  0  0  0  0  0  0  0  0  0
   61.4686   29.9563   47.6190 H   0  0  0  0  0  0  0  0  0  0  0  0
   60.5225   31.4832   47.6190 H   0  0  0  0  0  0  0  0  0  0  0  0
   59.2600   28.3493   48.6138 H   0  0  0  0  0  0  0  0  0  0  0  0
   58.3060   27.9824   47.1366 H   0  0  0  0  0  0  0  0  0  0  0  0
   60.0871   27.7487   47.1366 H   0  0  0  0  0  0  0  0  0  0  0  0
   58.3558   33.5713   43.0454 H   0  0  0  0  0  0  0  0  0  0  0  0
  1  2  1  0
  2  3  1  0
  3  4  1  0
  4  5  2  0
  5  6  1  0
  6  7  2  0
  7  8  1  0
  8  9  2  0
  9 10  1  0
 10 11  2  0
 11 12  1  0
 12 13  1  0
 13 14  1  0
 13 15  1  0
  5 16  1  0
 16 17  2  0
 17  3  1  0
 11  6  1  0
  1 18  1  0
  1 19  1  0
  1 20  1  0
  2 21  1  0
  2 22  1  0
  4 23  1  0
  7 24  1  0
  8 25  1  0
  9 26  1  0
 10 27  1  0
 12 28  1  0
 12 29  1  0
 14 30  1  0
 14 31  1  0
 14 32  1  0
 15 33  1  0
 15 34  1  0
 15 35  1  0
 16 36  1  0
M  CHG  1   9   1
M  END
>  <UniqueID>  (46) 
44

>  <SMILES>  (46) 
CCn1cc(-c2cc[nH+]cc2CN(C)C)cn1

>  <Energy>  (46) 
67.98496268930118

>  <Genealogy>  (46) 
CCn1cc(-c2cc[nH+]cc2CN(C)C)cn1 (protonated)
CCn1cc(-c2cc[nH+]cc2CN(C)C)cn1 (3D coordinates assigned)
CCn1cc(-c2cc[nH+]cc2CN(C)C)cn1 (optimized conformer: 67.98496268930118 kcal/mol)

>  <smiles>  (46) 
CCn1cc(-c2ccncc2CN(C)C)cn1

>  <score_type>  (46) 
oracle

>  <origin>  (46) 
adg

>  <m_score__min__energy>  (46) 
-4.4000000000000004

>  <m_primary>  (46) 
energy

$$$$
46:0
     RDKit          3D

 43 45  0  0  0  0  0  0  0  0999 V2000
   57.8080   33.0020   45.7870 C   0  0  0  0  0  0  0  0  0  0  0  0
   58.1510   32.0360   46.9260 C   0  0  0  0  0  0  0  0  0  0  0  0
   58.8060   30.7950   46.4420 N   0  0  0  0  0  0  0  0  0  0  0  0
   58.7070   29.7020   47.4520 C   0  0  0  0  0  0  0  0  0  0  0  0
   58.6830   28.3030   46.8250 C   0  0  0  0  0  0  0  0  0  0  0  0
   57.5600   28.2050   45.8870 N   0  0  0  0  0  0  0  0  0  0  0  0
   56.9130   26.9430   45.6460 C   0  0  0  0  0  0  0  0  0  0  0  0
   55.6190   26.7030   45.9920 N   0  0  0  0  0  0  0  0  0  0  0  0
   55.4420   25.4390   45.5830 C   0  0  0  0  0  0  0  0  0  0  0  0
   54.2910   24.6680   45.6870 C   0  0  0  0  0  0  0  0  0  0  0  0
   54.3320   23.3400   45.1900 C   0  0  0  0  0  0  0  0  0  0  0  0
   53.2160   22.4910   45.2540 O   0  0  0  0  0  0  0  0  0  0  0  0
   52.0260   22.7790   45.9810 C   0  0  0  0  0  0  0  0  0  0  0  0
   55.5250   22.8390   44.6060 C   0  0  0  0  0  0  0  0  0  0  0  0
   55.5260   21.5210   44.1250 O   0  0  0  0  0  0  0  0  0  0  0  0
   56.6780   20.6850   44.0730 C   0  0  0  0  0  0  0  0  0  0  0  0
   56.6730   23.6670   44.5230 C   0  0  0  0  0  0  0  0  0  0  0  0
   56.5830   24.9590   45.0240 C   0  0  0  0  0  0  0  0  0  0  0  0
   57.5420   25.8960   45.0490 N   0  0  0  0  0  0  0  0  0  0  0  0
   57.1350   29.4050   45.1570 C   0  0  0  0  0  0  0  0  0  0  0  0
   58.2840   30.4210   45.0960 C   0  0  0  0  0  0  0  0  0  0  0  0
   57.4680   33.9596   46.2082 H   0  0  0  0  0  0  0  0  0  0  0  0
   58.7013   33.1705   45.1676 H   0  0  0  0  0  0  0  0  0  0  0  0
   57.0085   32.5694   45.1676 H   0  0  0  0  0  0  0  0  0  0  0  0
   58.8309   32.5436   47.6261 H   0  0  0  0  0  0  0  0  0  0  0  0
   57.2085   31.7475   47.4143 H   0  0  0  0  0  0  0  0  0  0  0  0
   59.8230   31.0140   46.3120 H   0  0  0  0  0  0  0  0  0  0  0  0
   59.5739   29.7686   48.1259 H   0  0  0  0  0  0  0  0  0  0  0  0
   57.7563   29.8369   47.9887 H   0  0  0  0  0  0  0  0  0  0  0  0
   59.6261   28.1264   46.2871 H   0  0  0  0  0  0  0  0  0  0  0  0
   58.5650   27.5490   47.6172 H   0  0  0  0  0  0  0  0  0  0  0  0
   53.3755   25.0750   46.1410 H   0  0  0  0  0  0  0  0  0  0  0  0
   52.2342   22.7286   47.0599 H   0  0  0  0  0  0  0  0  0  0  0  0
   51.6735   23.7884   45.7223 H   0  0  0  0  0  0  0  0  0  0  0  0
   51.2510   22.0425   45.7223 H   0  0  0  0  0  0  0  0  0  0  0  0
   57.0052   20.4476   45.0960 H   0  0  0  0  0  0  0  0  0  0  0  0
   56.4317   19.7540   43.5414 H   0  0  0  0  0  0  0  0  0  0  0  0
   57.4868   21.2078   43.5414 H   0  0  0  0  0  0  0  0  0  0  0  0
   57.6071   23.2970   44.0751 H   0  0  0  0  0  0  0  0  0  0  0  0
   56.8432   29.1242   44.1343 H   0  0  0  0  0  0  0  0  0  0  0  0
   56.2802   29.8597   45.6791 H   0  0  0  0  0  0  0  0  0  0  0  0
   59.1065   29.9846   44.5103 H   0  0  0  0  0  0  0  0  0  0  0  0
   57.8883   31.3363   44.6316 H   0  0  0  0  0  0  0  0  0  0  0  0
  1  2  1  0
  2  3  1  0
  3  4  1  0
  4  5  1  0
  5  6  1  0
  6  7  1  0
  7  8  2  0
  8  9  1  0
  9 10  2  0
 10 11  1  0
 11 12  1  0
 12 13  1  0
 11 14  2  0
 14 15  1  0
 15 16  1  0
 14 17  1  0
 17 18  2  0
 18 19  1  0
  6 20  1  0
 20 21  1  0
 21  3  1  0
 19  7  1  0
 18  9  1  0
  1 22  1  0
  1 23  1  0
  1 24  1  0
  2 25  1  0
  2 26  1  0
  3 27  1  0
  4 28  1  0
  4 29  1  0
  5 30  1  0
  5 31  1  0
 10 32  1  0
 13 33  1  0
 13 34  1  0
 13 35  1  0
 16 36  1  0
 16 37  1  0
 16 38  1  0
 17 39  1  0
 20 40  1  0
 20 41  1  0
 21 42  1  0
 21 43  1  0
M  CHG  2   3   1  19  -1
M  END
>  <UniqueID>  (47) 
45

>  <SMILES>  (47) 
CC[NH+]1CCN(c2nc3cc(OC)c(OC)cc3[n-]2)CC1

>  <Energy>  (47) 
83.65153957136243

>  <Genealogy>  (47) 
CC[NH+]1CCN(c2nc3cc(OC)c(OC)cc3[n-]2)CC1 (protonated)
CC[NH+]1CCN(c2nc3cc(OC)c(OC)cc3[n-]2)CC1 (3D coordinates assigned)
CC[NH+]1CCN(c2nc3cc(OC)c(OC)cc3[n-]2)CC1 (nonaromatic ring conformer: 83.65153957136243 kcal/mol)

>  <smiles>  (47) 
CCN1CCN(c2nc3cc(OC)c(OC)cc3[nH]2)CC1

>  <score_type>  (47) 
oracle

>  <origin>  (47) 
adg

>  <m_score__min__energy>  (47) 
-5.8099999999999996

>  <m_primary>  (47) 
energy

$$$$
47:0
     RDKit          3D

 58 61  0  0  0  0  0  0  0  0999 V2000
   59.3790   30.6920   47.6250 C   0  0  0  0  0  0  0  0  0  0  0  0
   60.9090   30.8390   47.6220 C   0  0  0  0  0  0  0  0  0  0  0  0
   61.3770   32.2480   47.6130 N   0  0  0  0  0  0  0  0  0  0  0  0
   62.8490   32.4000   47.6880 C   0  0  0  0  0  0  0  0  0  0  0  0
   63.3740   33.4430   46.6990 C   0  0  0  0  0  0  0  0  0  0  0  0
   60.6950   33.0740   48.6370 C   0  0  0  0  0  0  0  0  0  0  0  0
   60.7970   34.5680   48.2980 C   0  0  0  0  0  0  0  0  0  0  0  0
   59.5840   35.0360   47.6230 N   0  0  0  0  0  0  0  0  0  0  0  0
   58.9080   34.2660   46.6160 C   0  0  0  0  0  0  0  0  0  0  0  0
   59.4720   34.0780   45.3440 C   0  0  0  0  0  0  0  0  0  0  0  0
   58.8670   33.2170   44.4250 C   0  0  0  0  0  0  0  0  0  0  0  0
   57.6870   32.5360   44.7620 C   0  0  0  0  0  0  0  0  0  0  0  0
   57.1510   31.4540   43.8630 C   0  0  0  0  0  0  0  0  0  0  0  0
   57.6090   30.1130   44.3810 C   0  0  0  0  0  0  0  0  0  0  0  0
   58.9500   29.7230   44.2330 C   0  0  0  0  0  0  0  0  0  0  0  0
   59.3430   28.4940   44.5500 O   0  0  0  0  0  0  0  0  0  0  0  0
   58.5050   27.5690   45.0070 C   0  0  0  0  0  0  0  0  0  0  0  0
   58.9830   26.2850   45.2840 C   0  0  0  0  0  0  0  0  0  0  0  0
   58.1070   25.2840   45.7300 C   0  0  0  0  0  0  0  0  0  0  0  0
   58.5750   23.9850   45.9820 C   0  0  0  0  0  0  0  0  0  0  0  0
   57.6920   22.9910   46.4100 C   0  0  0  0  0  0  0  0  0  0  0  0
   56.3390   23.2850   46.5970 C   0  0  0  0  0  0  0  0  0  0  0  0
   55.8600   24.5760   46.3560 C   0  0  0  0  0  0  0  0  0  0  0  0
   56.7350   25.5830   45.9190 C   0  0  0  0  0  0  0  0  0  0  0  0
   56.2600   26.8770   45.6600 C   0  0  0  0  0  0  0  0  0  0  0  0
   57.1380   27.8730   45.1970 C   0  0  0  0  0  0  0  0  0  0  0  0
   56.6940   29.1710   44.8880 C   0  0  0  0  0  0  0  0  0  0  0  0
   55.4800   29.4890   45.0480 O   0  0  0  0  0  0  0  0  0  0  0  0
   57.0920   32.7720   46.0110 C   0  0  0  0  0  0  0  0  0  0  0  0
   57.6930   33.6410   46.9260 C   0  0  0  0  0  0  0  0  0  0  0  0
   59.0160   30.6571   48.6628 H   0  0  0  0  0  0  0  0  0  0  0  0
   58.9271   31.5509   47.1072 H   0  0  0  0  0  0  0  0  0  0  0  0
   59.0989   29.7628   47.1072 H   0  0  0  0  0  0  0  0  0  0  0  0
   61.3061   30.3477   48.5225 H   0  0  0  0  0  0  0  0  0  0  0  0
   61.2729   30.3753   46.6933 H   0  0  0  0  0  0  0  0  0  0  0  0
   63.1215   32.7100   48.7076 H   0  0  0  0  0  0  0  0  0  0  0  0
   63.3019   31.4315   47.4293 H   0  0  0  0  0  0  0  0  0  0  0  0
   63.8012   34.2916   47.2534 H   0  0  0  0  0  0  0  0  0  0  0  0
   64.1514   32.9897   46.0663 H   0  0  0  0  0  0  0  0  0  0  0  0
   62.5469   33.7974   46.0663 H   0  0  0  0  0  0  0  0  0  0  0  0
   59.6340   32.7872   48.6819 H   0  0  0  0  0  0  0  0  0  0  0  0
   61.1830   32.9013   49.6076 H   0  0  0  0  0  0  0  0  0  0  0  0
   60.9348   35.1395   49.2278 H   0  0  0  0  0  0  0  0  0  0  0  0
   61.6535   34.7173   47.6241 H   0  0  0  0  0  0  0  0  0  0  0  0
   59.0850   35.8530   48.0420 H   0  0  0  0  0  0  0  0  0  0  0  0
   60.3943   34.6110   45.0698 H   0  0  0  0  0  0  0  0  0  0  0  0
   59.3178   33.0721   43.4322 H   0  0  0  0  0  0  0  0  0  0  0  0
   56.0516   31.4909   43.8565 H   0  0  0  0  0  0  0  0  0  0  0  0
   57.5234   31.6036   42.8388 H   0  0  0  0  0  0  0  0  0  0  0  0
   59.6855   30.4453   43.8492 H   0  0  0  0  0  0  0  0  0  0  0  0
   60.0512   26.0583   45.1516 H   0  0  0  0  0  0  0  0  0  0  0  0
   59.6402   23.7491   45.8420 H   0  0  0  0  0  0  0  0  0  0  0  0
   58.0631   21.9732   46.6005 H   0  0  0  0  0  0  0  0  0  0  0  0
   55.6485   22.4982   46.9349 H   0  0  0  0  0  0  0  0  0  0  0  0
   54.7947   24.8034   46.5092 H   0  0  0  0  0  0  0  0  0  0  0  0
   55.1976   27.1134   45.8195 H   0  0  0  0  0  0  0  0  0  0  0  0
   56.1481   32.2706   46.2711 H   0  0  0  0  0  0  0  0  0  0  0  0
   57.2094   33.8353   47.8947 H   0  0  0  0  0  0  0  0  0  0  0  0
  1  2  1  0
  2  3  1  0
  3  4  1  0
  4  5  1  0
  3  6  1  0
  6  7  1  0
  7  8  1  0
  8  9  1  0
  9 10  2  0
 10 11  1  0
 11 12  2  0
 12 13  1  0
 13 14  1  0
 14 15  2  0
 15 16  1  0
 16 17  1  0
 17 18  2  0
 18 19  1  0
 19 20  2  0
 20 21  1  0
 21 22  2  0
 22 23  1  0
 23 24  2  0
 24 25  1  0
 25 26  2  0
 26 27  1  0
 27 28  2  0
 12 29  1  0
 29 30  2  0
 30  9  1  0
 27 14  1  0
 26 17  1  0
 24 19  1  0
  1 31  1  0
  1 32  1  0
  1 33  1  0
  2 34  1  0
  2 35  1  0
  4 36  1  0
  4 37  1  0
  5 38  1  0
  5 39  1  0
  5 40  1  0
  6 41  1  0
  6 42  1  0
  7 43  1  0
  7 44  1  0
  8 45  1  0
 10 46  1  0
 11 47  1  0
 13 48  1  0
 13 49  1  0
 15 50  1  0
 18 51  1  0
 20 52  1  0
 21 53  1  0
 22 54  1  0
 23 55  1  0
 25 56  1  0
 29 57  1  0
 30 58  1  0
M  END
>  <UniqueID>  (48) 
46

>  <SMILES>  (48) 
CCN(CC)CCNc1ccc(Cc2coc3cc4ccccc4cc3c2=O)cc1

>  <Energy>  (48) 
66.98431154079792

>  <Genealogy>  (48) 
CCN(CC)CCNc1ccc(Cc2coc3cc4ccccc4cc3c2=O)cc1 (3D coordinates assigned)
CCN(CC)CCNc1ccc(Cc2coc3cc4ccccc4cc3c2=O)cc1 (optimized conformer: 66.98431154079792 kcal/mol)

>  <smiles>  (48) 
CCN(CC)CCNc1ccc(Cc2coc3cc4ccccc4cc3c2=O)cc1

>  <score_type>  (48) 
oracle

>  <origin>  (48) 
adg

>  <m_score__min__energy>  (48) 
-8.5899999999999999

>  <m_primary>  (48) 
energy

$$$$
48:0
     RDKit          3D

 51 52  0  0  0  0  0  0  0  0999 V2000
   62.4920   31.0460   50.0350 C   0  0  0  0  0  0  0  0  0  0  0  0
   63.8150   31.7150   49.6790 C   0  0  0  0  0  0  0  0  0  0  0  0
   63.6010   33.0580   49.2430 O   0  0  0  0  0  0  0  0  0  0  0  0
   62.4830   33.5180   48.5280 C   0  0  0  0  0  0  0  0  0  0  0  0
   61.3420   34.0530   49.1560 C   0  0  0  0  0  0  0  0  0  0  0  0
   60.2580   34.4970   48.3920 C   0  0  0  0  0  0  0  0  0  0  0  0
   60.2940   34.4090   46.9920 C   0  0  0  0  0  0  0  0  0  0  0  0
   59.1420   34.9190   46.1680 C   0  0  0  0  0  0  0  0  0  0  0  0
   57.9260   33.9940   46.3150 C   0  0  0  0  0  0  0  0  0  0  0  0
   57.5140   33.3400   44.9830 C   0  0  0  0  0  0  0  0  0  0  0  0
   57.4580   31.8630   45.0610 N   0  0  0  0  0  0  0  0  0  0  0  0
   58.6690   31.3000   45.6860 C   0  0  0  0  0  0  0  0  0  0  0  0
   59.2060   30.0890   44.9060 C   0  0  0  0  0  0  0  0  0  0  0  0
   58.5900   28.7940   45.3770 C   0  0  0  0  0  0  0  0  0  0  0  0
   59.4210   27.7600   45.8430 C   0  0  0  0  0  0  0  0  0  0  0  0
   58.8730   26.5450   46.2580 C   0  0  0  0  0  0  0  0  0  0  0  0
   57.4930   26.3480   46.2100 C   0  0  0  0  0  0  0  0  0  0  0  0
   56.6550   27.3630   45.7440 C   0  0  0  0  0  0  0  0  0  0  0  0
   57.1940   28.5950   45.3200 C   0  0  0  0  0  0  0  0  0  0  0  0
   56.3770   29.6320   44.8390 O   0  0  0  0  0  0  0  0  0  0  0  0
   55.8660   29.7100   43.5140 C   0  0  0  0  0  0  0  0  0  0  0  0
   61.4390   33.8930   46.3660 C   0  0  0  0  0  0  0  0  0  0  0  0
   62.5210   33.4500   47.1300 C   0  0  0  0  0  0  0  0  0  0  0  0
   62.3899   30.9944   51.1290 H   0  0  0  0  0  0  0  0  0  0  0  0
   61.6605   31.6320   49.6164 H   0  0  0  0  0  0  0  0  0  0  0  0
   62.4711   30.0290   49.6164 H   0  0  0  0  0  0  0  0  0  0  0  0
   64.4657   31.7228   50.5659 H   0  0  0  0  0  0  0  0  0  0  0  0
   64.2885   31.1497   48.8628 H   0  0  0  0  0  0  0  0  0  0  0  0
   61.3030   34.1221   50.2531 H   0  0  0  0  0  0  0  0  0  0  0  0
   59.3725   34.9174   48.8912 H   0  0  0  0  0  0  0  0  0  0  0  0
   58.8719   35.9292   46.5093 H   0  0  0  0  0  0  0  0  0  0  0  0
   59.4443   34.9445   45.1106 H   0  0  0  0  0  0  0  0  0  0  0  0
   58.1724   33.2003   47.0357 H   0  0  0  0  0  0  0  0  0  0  0  0
   57.0808   34.6077   46.6600 H   0  0  0  0  0  0  0  0  0  0  0  0
   56.5191   33.7148   44.7006 H   0  0  0  0  0  0  0  0  0  0  0  0
   58.2770   33.6029   44.2356 H   0  0  0  0  0  0  0  0  0  0  0  0
   56.6330   31.5970   45.6500 H   0  0  0  0  0  0  0  0  0  0  0  0
   57.3150   31.4400   44.1140 H   0  0  0  0  0  0  0  0  0  0  0  0
   59.4473   32.0768   45.7169 H   0  0  0  0  0  0  0  0  0  0  0  0
   58.4048   30.9632   46.6993 H   0  0  0  0  0  0  0  0  0  0  0  0
   58.9763   30.2239   43.8387 H   0  0  0  0  0  0  0  0  0  0  0  0
   60.2913   30.0301   45.0754 H   0  0  0  0  0  0  0  0  0  0  0  0
   60.5101   27.9094   45.8808 H   0  0  0  0  0  0  0  0  0  0  0  0
   59.5302   25.7421   46.6233 H   0  0  0  0  0  0  0  0  0  0  0  0
   57.0637   25.3905   46.5401 H   0  0  0  0  0  0  0  0  0  0  0  0
   55.5677   27.2005   45.7074 H   0  0  0  0  0  0  0  0  0  0  0  0
   54.7792   29.8759   43.5493 H   0  0  0  0  0  0  0  0  0  0  0  0
   56.3473   30.5451   42.9839 H   0  0  0  0  0  0  0  0  0  0  0  0
   56.0763   28.7694   42.9839 H   0  0  0  0  0  0  0  0  0  0  0  0
   61.4846   33.8372   45.2684 H   0  0  0  0  0  0  0  0  0  0  0  0
   63.4117   33.0437   46.6285 H   0  0  0  0  0  0  0  0  0  0  0  0
  1  2  1  0
  2  3  1  0
  3  4  1  0
  4  5  2  0
  5  6  1  0
  6  7  2  0
  7  8  1  0
  8  9  1  0
  9 10  1  0
 10 11  1  0
 11 12  1  0
 12 13  1  0
 13 14  1  0
 14 15  2  0
 15 16  1  0
 16 17  2  0
 17 18  1  0
 18 19  2  0
 19 20  1  0
 20 21  1  0
  7 22  1  0
 22 23  2  0
 23  4  1  0
 19 14  1  0
  1 24  1  0
  1 25  1  0
  1 26  1  0
  2 27  1  0
  2 28  1  0
  5 29  1  0
  6 30  1  0
  8 31  1  0
  8 32  1  0
  9 33  1  0
  9 34  1  0
 10 35  1  0
 10 36  1  0
 11 37  1  0
 11 38  1  0
 12 39  1  0
 12 40  1  0
 13 41  1  0
 13 42  1  0
 15 43  1  0
 16 44  1  0
 17 45  1  0
 18 46  1  0
 21 47  1  0
 21 48  1  0
 21 49  1  0
 22 50  1  0
 23 51  1  0
M  CHG  1  11   1
M  END
>  <UniqueID>  (49) 
47

>  <SMILES>  (49) 
CCOc1ccc(CCC[NH2+]CCc2ccccc2OC)cc1

>  <Energy>  (49) 
44.08784415439221

>  <Genealogy>  (49) 
CCOc1ccc(CCC[NH2+]CCc2ccccc2OC)cc1 (protonated)
CCOc1ccc(CCC[NH2+]CCc2ccccc2OC)cc1 (3D coordinates assigned)
CCOc1ccc(CCC[NH2+]CCc2ccccc2OC)cc1 (optimized conformer: 44.08784415439221 kcal/mol)

>  <smiles>  (49) 
CCOc1ccc(CCCNCCc2ccccc2OC)cc1

>  <score_type>  (49) 
oracle

>  <origin>  (49) 
adg

>  <m_score__min__energy>  (49) 
-4.8499999999999996

>  <m_primary>  (49) 
energy

$$$$
