0:0
     RDKit          3D

 35 37  0  0  0  0  0  0  0  0999 V2000
   54.5580   27.0870   46.7390 H   0  0  0  0  0  0  0  0  0  0  0  0
   55.1760   26.6910   45.9980 N   0  0  0  0  0  0  0  0  0  0  0  0
   56.5670   27.0050   45.9530 C   0  0  0  0  0  0  0  0  0  0  0  0
   57.4050   26.0790   46.1240 O   0  0  0  0  0  0  0  0  0  0  0  0
   57.0340   28.3930   45.6760 C   0  0  0  0  0  0  0  0  0  0  0  0
   56.2480   29.2100   44.8500 C   0  0  0  0  0  0  0  0  0  0  0  0
   55.3103   28.8172   44.4300 H   0  0  0  0  0  0  0  0  0  0  0  0
   56.6310   30.4770   44.5640 N   0  0  0  0  0  0  0  0  0  0  0  0
   57.7460   31.0310   45.0950 C   0  0  0  0  0  0  0  0  0  0  0  0
   58.0360   32.3710   44.8140 C   0  0  0  0  0  0  0  0  0  0  0  0
   57.4177   32.9228   44.0907 H   0  0  0  0  0  0  0  0  0  0  0  0
   59.1100   33.0170   45.4480 C   0  0  0  0  0  0  0  0  0  0  0  0
   59.4360   34.3570   45.1860 O   0  0  0  0  0  0  0  0  0  0  0  0
   59.4230   35.3970   46.1600 C   0  0  0  0  0  0  0  0  0  0  0  0
   59.4285   34.9558   47.1676 H   0  0  0  0  0  0  0  0  0  0  0  0
   60.3133   36.0303   46.0321 H   0  0  0  0  0  0  0  0  0  0  0  0
   58.5171   36.0078   46.0321 H   0  0  0  0  0  0  0  0  0  0  0  0
   59.8670   32.3110   46.3910 C   0  0  0  0  0  0  0  0  0  0  0  0
   61.1650   33.1090   47.2670 Cl  0  0  0  0  0  0  0  0  0  0  0  0
   59.5840   30.9690   46.6680 C   0  0  0  0  0  0  0  0  0  0  0  0
   60.1564   30.4445   47.4472 H   0  0  0  0  0  0  0  0  0  0  0  0
   58.5740   30.2770   45.9620 C   0  0  0  0  0  0  0  0  0  0  0  0
   58.2730   28.8910   46.1560 C   0  0  0  0  0  0  0  0  0  0  0  0
   59.1040   28.0290   46.6910 N   0  0  0  0  0  0  0  0  0  0  0  0
   59.6130   27.9350   48.0280 C   0  0  0  0  0  0  0  0  0  0  0  0
   60.3650   26.8140   48.4000 C   0  0  0  0  0  0  0  0  0  0  0  0
   60.5272   25.9996   47.6786 H   0  0  0  0  0  0  0  0  0  0  0  0
   60.9110   26.7250   49.6850 C   0  0  0  0  0  0  0  0  0  0  0  0
   61.4827   25.8324   49.9790 H   0  0  0  0  0  0  0  0  0  0  0  0
   60.7300   27.7710   50.5960 C   0  0  0  0  0  0  0  0  0  0  0  0
   61.4730   27.6480   52.3510 Br  0  0  0  0  0  0  0  0  0  0  0  0
   60.0140   28.9120   50.2180 C   0  0  0  0  0  0  0  0  0  0  0  0
   59.8799   29.7385   50.9314 H   0  0  0  0  0  0  0  0  0  0  0  0
   59.4690   29.0020   48.9340 C   0  0  0  0  0  0  0  0  0  0  0  0
   58.9261   29.9094   48.6310 H   0  0  0  0  0  0  0  0  0  0  0  0
  1  2  1  0
  2  3  1  0
  3  4  2  0
  3  5  1  0
  5  6  2  0
  6  7  1  0
  6  8  1  0
  8  9  1  0
  9 10  2  0
 10 11  1  0
 10 12  1  0
 12 13  1  0
 13 14  1  0
 14 15  1  0
 14 16  1  0
 14 17  1  0
 12 18  2  0
 18 19  1  0
 18 20  1  0
 20 21  1  0
 20 22  2  0
 22 23  1  0
 23 24  2  0
 24 25  1  0
 25 26  2  0
 26 27  1  0
 26 28  1  0
 28 29  1  0
 28 30  2  0
 30 31  1  0
 30 32  1  0
 32 33  1  0
 32 34  2  0
 34 35  1  0
 23  5  1  0
 34 25  1  0
 22  9  1  0
M  CHG  2   2  -1   8  -1
M  END
>  <UniqueID>  (1) 
1

>  <SMILES>  (1) 
COc1cc2[n-]cc(C([NH-])=O)/c(=N/c3ccc(Br)cc3)c2cc1Cl

>  <Energy>  (1) 
64.63155863445273

>  <Genealogy>  (1) 
COc1cc2[n-]cc(C([NH-])=O)c(=Nc3ccc(Br)cc3)c2cc1Cl (protonated)
COc1cc2[n-]cc(C([NH-])=O)/c(=N/c3ccc(Br)cc3)c2cc1Cl (cis-trans isomerization)
COc1cc2[n-]cc(C([NH-])=O)/c(=N/c3ccc(Br)cc3)c2cc1Cl (3D coordinates assigned)
COc1cc2[n-]cc(C([NH-])=O)/c(=N/c3ccc(Br)cc3)c2cc1Cl (optimized conformer: 64.63155863445273 kcal/mol)

>  <smiles>  (1) 
COc1cc2[nH]cc(C(N)=O)c(=Nc3ccc(Br)cc3)c2cc1Cl

>  <score_type>  (1) 
oracle

>  <origin>  (1) 
adg

>  <m_score__min__energy>  (1) 
-11.609999999999999

>  <m_primary>  (1) 
energy

$$$$
1:0
     RDKit          3D

 43 45  0  0  0  0  0  0  0  0999 V2000
   57.7800   32.4380   42.6500 C   0  0  0  0  0  0  0  0  0  0  0  0
   58.0660   31.6310   43.8760 C   0  0  0  0  0  0  0  0  0  0  0  0
   58.3880   30.3240   43.8570 N   0  0  0  0  0  0  0  0  0  0  0  0
   58.5600   29.9040   45.1010 N   0  0  0  0  0  0  0  0  0  0  0  0
   58.9110   28.5490   45.4280 C   0  0  0  0  0  0  0  0  0  0  0  0
   60.1320   28.2450   46.0530 C   0  0  0  0  0  0  0  0  0  0  0  0
   60.4230   26.9190   46.3800 C   0  0  0  0  0  0  0  0  0  0  0  0
   59.4980   25.9140   46.0960 C   0  0  0  0  0  0  0  0  0  0  0  0
   58.2840   26.2530   45.4950 C   0  0  0  0  0  0  0  0  0  0  0  0
   58.0190   27.5500   45.1820 N   0  0  0  0  0  0  0  0  0  0  0  0
   58.3820   30.9510   45.9450 C   0  0  0  0  0  0  0  0  0  0  0  0
   58.5450   30.9120   47.4370 C   0  0  0  0  0  0  0  0  0  0  0  0
   58.0460   32.0670   45.1930 C   0  0  0  0  0  0  0  0  0  0  0  0
   57.7090   33.6890   45.8020 S   0  0  0  0  0  0  0  0  0  0  0  0
   57.0650   33.5540   47.1530 O   0  0  0  0  0  0  0  0  0  0  0  0
   56.7540   34.4050   44.8890 O   0  0  0  0  0  0  0  0  0  0  0  0
   59.1940   34.6030   45.9550 N   0  0  0  0  0  0  0  0  0  0  0  0
   59.2720   35.3300   47.2370 C   0  0  0  0  0  0  0  0  0  0  0  0
   59.6140   34.4160   48.4310 C   0  0  0  0  0  0  0  0  0  0  0  0
   60.6420   33.3250   48.0850 C   0  0  0  0  0  0  0  0  0  0  0  0
   61.3840   33.6340   46.7890 C   0  0  0  0  0  0  0  0  0  0  0  0
   60.3890   33.7850   45.6260 C   0  0  0  0  0  0  0  0  0  0  0  0
   57.4258   33.4373   42.9432 H   0  0  0  0  0  0  0  0  0  0  0  0
   58.6984   32.5352   42.0525 H   0  0  0  0  0  0  0  0  0  0  0  0
   57.0053   31.9351   42.0525 H   0  0  0  0  0  0  0  0  0  0  0  0
   58.4720   29.7230   43.0070 H   0  0  0  0  0  0  0  0  0  0  0  0
   60.8521   29.0442   46.2826 H   0  0  0  0  0  0  0  0  0  0  0  0
   61.3799   26.6673   46.8607 H   0  0  0  0  0  0  0  0  0  0  0  0
   59.7226   24.8658   46.3428 H   0  0  0  0  0  0  0  0  0  0  0  0
   57.5421   25.4713   45.2747 H   0  0  0  0  0  0  0  0  0  0  0  0
   57.5825   31.1423   47.9171 H   0  0  0  0  0  0  0  0  0  0  0  0
   58.8770   29.9091   47.7435 H   0  0  0  0  0  0  0  0  0  0  0  0
   59.2950   31.6561   47.7435 H   0  0  0  0  0  0  0  0  0  0  0  0
   60.0498   36.1034   47.1541 H   0  0  0  0  0  0  0  0  0  0  0  0
   58.2793   35.7631   47.4293 H   0  0  0  0  0  0  0  0  0  0  0  0
   60.0233   35.0376   49.2410 H   0  0  0  0  0  0  0  0  0  0  0  0
   58.6855   33.9071   48.7292 H   0  0  0  0  0  0  0  0  0  0  0  0
   61.3724   33.2518   48.9043 H   0  0  0  0  0  0  0  0  0  0  0  0
   60.1009   32.3768   47.9505 H   0  0  0  0  0  0  0  0  0  0  0  0
   61.9474   34.5712   46.9083 H   0  0  0  0  0  0  0  0  0  0  0  0
   62.0724   32.8057   46.5651 H   0  0  0  0  0  0  0  0  0  0  0  0
   60.9120   34.2603   44.7830 H   0  0  0  0  0  0  0  0  0  0  0  0
   60.0263   32.7749   45.3847 H   0  0  0  0  0  0  0  0  0  0  0  0
  1  2  1  0
  2  3  2  0
  3  4  1  0
  4  5  1  0
  5  6  2  0
  6  7  1  0
  7  8  2  0
  8  9  1  0
  9 10  2  0
  4 11  1  0
 11 12  1  0
 11 13  2  0
 13 14  1  0
 14 15  2  0
 14 16  2  0
 14 17  1  0
 17 18  1  0
 18 19  1  0
 19 20  1  0
 20 21  1  0
 21 22  1  0
 13  2  1  0
 22 17  1  0
 10  5  1  0
  1 23  1  0
  1 24  1  0
  1 25  1  0
  3 26  1  0
  6 27  1  0
  7 28  1  0
  8 29  1  0
  9 30  1  0
 12 31  1  0
 12 32  1  0
 12 33  1  0
 18 34  1  0
 18 35  1  0
 19 36  1  0
 19 37  1  0
 20 38  1  0
 20 39  1  0
 21 40  1  0
 21 41  1  0
 22 42  1  0
 22 43  1  0
M  CHG  1   3   1
M  END
>  <UniqueID>  (2) 
2

>  <SMILES>  (2) 
Cc1[nH+]n(-c2ccccn2)c(C)c1S(=O)(=O)N1CCCCC1

>  <Energy>  (2) 
86.02607658399

>  <Genealogy>  (2) 
Cc1[nH+]n(-c2ccccn2)c(C)c1S(=O)(=O)N1CCCCC1 (protonated)
Cc1[nH+]n(-c2ccccn2)c(C)c1S(=O)(=O)N1CCCCC1 (3D coordinates assigned)
Cc1[nH+]n(-c2ccccn2)c(C)c1S(=O)(=O)N1CCCCC1 (nonaromatic ring conformer: 86.02607658399 kcal/mol)

>  <smiles>  (2) 
Cc1nn(-c2ccccn2)c(C)c1S(=O)(=O)N1CCCCC1

>  <score_type>  (2) 
oracle

>  <origin>  (2) 
adg

>  <m_score__min__energy>  (2) 
-6.96

>  <m_primary>  (2) 
energy

$$$$
2:0
     RDKit          3D

 53 57  0  0  0  0  0  0  0  0999 V2000
   60.0970   33.8030   50.5210 C   0  0  0  0  0  0  0  0  0  0  0  0
   59.9580   34.4450   49.2590 O   0  0  0  0  0  0  0  0  0  0  0  0
   59.3220   33.8730   48.1480 C   0  0  0  0  0  0  0  0  0  0  0  0
   58.3810   32.8190   48.2700 C   0  0  0  0  0  0  0  0  0  0  0  0
   57.7780   32.2600   47.1320 C   0  0  0  0  0  0  0  0  0  0  0  0
   58.1290   32.7480   45.8650 C   0  0  0  0  0  0  0  0  0  0  0  0
   59.0440   33.7880   45.7600 C   0  0  0  0  0  0  0  0  0  0  0  0
   59.6440   34.3680   46.8740 C   0  0  0  0  0  0  0  0  0  0  0  0
   59.3000   34.1610   44.1430 S   0  0  0  0  0  0  0  0  0  0  0  0
   58.2230   32.9650   43.6320 C   0  0  0  0  0  0  0  0  0  0  0  0
   57.9710   32.7290   42.4190 O   0  0  0  0  0  0  0  0  0  0  0  0
   57.6640   32.2780   44.6660 N   0  0  0  0  0  0  0  0  0  0  0  0
   56.6990   31.1810   44.4920 C   0  0  0  0  0  0  0  0  0  0  0  0
   57.1940   29.8740   45.1220 C   0  0  0  0  0  0  0  0  0  0  0  0
   58.8460   29.3900   44.4980 S   0  0  0  0  0  0  0  0  0  0  0  0
   59.6980   29.7770   46.0260 C   0  0  0  0  0  0  0  0  0  0  0  0
   60.7700   30.5910   46.0870 N   0  0  0  0  0  0  0  0  0  0  0  0
   61.0490   30.6770   47.4030 C   0  0  0  0  0  0  0  0  0  0  0  0
   62.0840   31.5890   47.9340 C   0  0  0  0  0  0  0  0  0  0  0  0
   62.6270   31.3560   49.2080 C   0  0  0  0  0  0  0  0  0  0  0  0
   63.6450   32.1770   49.7030 C   0  0  0  0  0  0  0  0  0  0  0  0
   64.1370   33.2280   48.9260 C   0  0  0  0  0  0  0  0  0  0  0  0
   63.6160   33.4570   47.6500 C   0  0  0  0  0  0  0  0  0  0  0  0
   62.6000   32.6370   47.1490 C   0  0  0  0  0  0  0  0  0  0  0  0
   60.1440   29.8950   48.1120 C   0  0  0  0  0  0  0  0  0  0  0  0
   60.1120   29.6190   49.5650 C   0  0  0  0  0  0  0  0  0  0  0  0
   60.8770   28.5760   50.1170 C   0  0  0  0  0  0  0  0  0  0  0  0
   60.8280   28.3150   51.4890 C   0  0  0  0  0  0  0  0  0  0  0  0
   60.0080   29.0840   52.3190 C   0  0  0  0  0  0  0  0  0  0  0  0
   59.2330   30.1140   51.7770 C   0  0  0  0  0  0  0  0  0  0  0  0
   59.2790   30.3780   50.4050 C   0  0  0  0  0  0  0  0  0  0  0  0
   59.2940   29.3390   47.2320 N   0  0  0  0  0  0  0  0  0  0  0  0
   59.9382   34.5366   51.3251 H   0  0  0  0  0  0  0  0  0  0  0  0
   59.3524   32.9979   50.6068 H   0  0  0  0  0  0  0  0  0  0  0  0
   61.1080   33.3780   50.6068 H   0  0  0  0  0  0  0  0  0  0  0  0
   58.1207   32.4351   49.2674 H   0  0  0  0  0  0  0  0  0  0  0  0
   57.0403   31.4503   47.2328 H   0  0  0  0  0  0  0  0  0  0  0  0
   60.3566   35.1980   46.7586 H   0  0  0  0  0  0  0  0  0  0  0  0
   55.7483   31.4660   44.9664 H   0  0  0  0  0  0  0  0  0  0  0  0
   56.5704   31.0102   43.4130 H   0  0  0  0  0  0  0  0  0  0  0  0
   57.2515   30.0056   46.2126 H   0  0  0  0  0  0  0  0  0  0  0  0
   56.4840   29.0782   44.8525 H   0  0  0  0  0  0  0  0  0  0  0  0
   62.2495   30.5233   49.8197 H   0  0  0  0  0  0  0  0  0  0  0  0
   64.0588   31.9948   50.7058 H   0  0  0  0  0  0  0  0  0  0  0  0
   64.9348   33.8756   49.3186 H   0  0  0  0  0  0  0  0  0  0  0  0
   64.0058   34.2839   47.0382 H   0  0  0  0  0  0  0  0  0  0  0  0
   62.2029   32.8117   46.1382 H   0  0  0  0  0  0  0  0  0  0  0  0
   61.5170   27.9627   49.4657 H   0  0  0  0  0  0  0  0  0  0  0  0
   61.4355   27.5034   51.9160 H   0  0  0  0  0  0  0  0  0  0  0  0
   59.9722   28.8790   53.3991 H   0  0  0  0  0  0  0  0  0  0  0  0
   58.5863   30.7173   52.4311 H   0  0  0  0  0  0  0  0  0  0  0  0
   58.6608   31.1830   49.9811 H   0  0  0  0  0  0  0  0  0  0  0  0
   58.4950   28.6960   47.4320 H   0  0  0  0  0  0  0  0  0  0  0  0
  1  2  1  0
  2  3  1  0
  3  4  2  0
  4  5  1  0
  5  6  2  0
  6  7  1  0
  7  8  2  0
  7  9  1  0
  9 10  1  0
 10 11  2  0
 10 12  1  0
 12 13  1  0
 13 14  1  0
 14 15  1  0
 15 16  1  0
 16 17  2  0
 17 18  1  0
 18 19  1  0
 19 20  2  0
 20 21  1  0
 21 22  2  0
 22 23  1  0
 23 24  2  0
 18 25  2  0
 25 26  1  0
 26 27  2  0
 27 28  1  0
 28 29  2  0
 29 30  1  0
 30 31  2  0
 25 32  1  0
  8  3  1  0
 32 16  1  0
 12  6  1  0
 24 19  1  0
 31 26  1  0
  1 33  1  0
  1 34  1  0
  1 35  1  0
  4 36  1  0
  5 37  1  0
  8 38  1  0
 13 39  1  0
 13 40  1  0
 14 41  1  0
 14 42  1  0
 20 43  1  0
 21 44  1  0
 22 45  1  0
 23 46  1  0
 24 47  1  0
 27 48  1  0
 28 49  1  0
 29 50  1  0
 30 51  1  0
 31 52  1  0
 32 53  1  0
M  END
>  <UniqueID>  (3) 
3

>  <SMILES>  (3) 
COc1ccc2c(c1)sc(=O)n2CCSc1nc(-c2ccccc2)c(-c2ccccc2)[nH]1

>  <Energy>  (3) 
120.23465631189731

>  <Genealogy>  (3) 
COc1ccc2c(c1)sc(=O)n2CCSc1nc(-c2ccccc2)c(-c2ccccc2)[nH]1 (3D coordinates assigned)
COc1ccc2c(c1)sc(=O)n2CCSc1nc(-c2ccccc2)c(-c2ccccc2)[nH]1 (optimized conformer: 120.23465631189731 kcal/mol)

>  <smiles>  (3) 
COc1ccc2c(c1)sc(=O)n2CCSc1nc(-c2ccccc2)c(-c2ccccc2)[nH]1

>  <score_type>  (3) 
oracle

>  <origin>  (3) 
adg

>  <m_score__min__energy>  (3) 
-8.7300000000000004

>  <m_primary>  (3) 
energy

$$$$
3:0
     RDKit          3D

 42 44  0  0  0  0  0  0  0  0999 V2000
   59.6430   34.4020   48.8150 C   0  0  0  0  0  0  0  0  0  0  0  0
   59.1820   33.7880   47.5270 C   0  0  0  0  0  0  0  0  0  0  0  0
   59.6050   34.2960   46.2960 C   0  0  0  0  0  0  0  0  0  0  0  0
   59.1460   33.7490   45.1420 N   0  0  0  0  0  0  0  0  0  0  0  0
   58.2750   32.7060   45.1550 C   0  0  0  0  0  0  0  0  0  0  0  0
   57.8060   32.1570   43.9160 N   0  0  0  0  0  0  0  0  0  0  0  0
   57.9980   32.7220   42.7090 C   0  0  0  0  0  0  0  0  0  0  0  0
   57.4190   31.9430   41.7270 C   0  0  0  0  0  0  0  0  0  0  0  0
   56.8640   30.8510   42.3650 C   0  0  0  0  0  0  0  0  0  0  0  0
   57.1270   31.0040   43.7150 C   0  0  0  0  0  0  0  0  0  0  0  0
   56.8050   29.9680   44.7720 C   0  0  0  0  0  0  0  0  0  0  0  0
   57.9770   29.5380   45.5660 N   0  0  0  0  0  0  0  0  0  0  0  0
   59.2250   29.4740   44.7810 C   0  0  0  0  0  0  0  0  0  0  0  0
   60.3760   28.8290   45.5870 C   0  0  0  0  0  0  0  0  0  0  0  0
   60.1250   28.8280   47.0430 N   0  0  0  0  0  0  0  0  0  0  0  0
   60.2260   30.1800   47.6220 C   0  0  0  0  0  0  0  0  0  0  0  0
   58.8530   28.1530   47.4010 C   0  0  0  0  0  0  0  0  0  0  0  0
   57.7580   28.3000   46.3270 C   0  0  0  0  0  0  0  0  0  0  0  0
   57.8140   32.2240   46.3450 N   0  0  0  0  0  0  0  0  0  0  0  0
   58.2520   32.7430   47.5230 C   0  0  0  0  0  0  0  0  0  0  0  0
   59.2209   33.8398   49.6610 H   0  0  0  0  0  0  0  0  0  0  0  0
   60.7414   34.3691   48.8644 H   0  0  0  0  0  0  0  0  0  0  0  0
   59.3049   35.4476   48.8644 H   0  0  0  0  0  0  0  0  0  0  0  0
   60.3102   35.1395   46.2623 H   0  0  0  0  0  0  0  0  0  0  0  0
   58.5364   33.6647   42.5315 H   0  0  0  0  0  0  0  0  0  0  0  0
   57.4029   32.1515   40.6471 H   0  0  0  0  0  0  0  0  0  0  0  0
   56.3188   30.0209   41.8920 H   0  0  0  0  0  0  0  0  0  0  0  0
   56.0588   30.3941   45.4587 H   0  0  0  0  0  0  0  0  0  0  0  0
   56.4328   29.0777   44.2439 H   0  0  0  0  0  0  0  0  0  0  0  0
   59.0459   28.8764   43.8750 H   0  0  0  0  0  0  0  0  0  0  0  0
   59.5209   30.5017   44.5237 H   0  0  0  0  0  0  0  0  0  0  0  0
   60.5005   27.7890   45.2511 H   0  0  0  0  0  0  0  0  0  0  0  0
   61.2816   29.4270   45.4075 H   0  0  0  0  0  0  0  0  0  0  0  0
   60.2208   30.1101   48.7198 H   0  0  0  0  0  0  0  0  0  0  0  0
   61.1619   30.6525   47.2891 H   0  0  0  0  0  0  0  0  0  0  0  0
   59.3706   30.7863   47.2891 H   0  0  0  0  0  0  0  0  0  0  0  0
   59.0560   27.0819   47.5474 H   0  0  0  0  0  0  0  0  0  0  0  0
   58.4768   28.6341   48.3159 H   0  0  0  0  0  0  0  0  0  0  0  0
   57.7971   27.4386   45.6440 H   0  0  0  0  0  0  0  0  0  0  0  0
   56.7722   28.3397   46.8134 H   0  0  0  0  0  0  0  0  0  0  0  0
   57.0950   31.4670   46.3610 H   0  0  0  0  0  0  0  0  0  0  0  0
   57.8744   32.3404   48.4745 H   0  0  0  0  0  0  0  0  0  0  0  0
  1  2  1  0
  2  3  2  0
  3  4  1  0
  4  5  2  0
  5  6  1  0
  6  7  1  0
  7  8  2  0
  8  9  1  0
  9 10  2  0
 10 11  1  0
 11 12  1  0
 12 13  1  0
 13 14  1  0
 14 15  1  0
 15 16  1  0
 15 17  1  0
 17 18  1  0
  5 19  1  0
 19 20  2  0
 20  2  1  0
 10  6  1  0
 18 12  1  0
  1 21  1  0
  1 22  1  0
  1 23  1  0
  3 24  1  0
  7 25  1  0
  8 26  1  0
  9 27  1  0
 11 28  1  0
 11 29  1  0
 13 30  1  0
 13 31  1  0
 14 32  1  0
 14 33  1  0
 16 34  1  0
 16 35  1  0
 16 36  1  0
 17 37  1  0
 17 38  1  0
 18 39  1  0
 18 40  1  0
 19 41  1  0
 20 42  1  0
M  CHG  1  19   1
M  END
>  <UniqueID>  (4) 
4

>  <SMILES>  (4) 
Cc1cnc(-n2cccc2CN2CCN(C)CC2)[nH+]c1

>  <Energy>  (4) 
86.06609749024852

>  <Genealogy>  (4) 
Cc1cnc(-n2cccc2CN2CCN(C)CC2)[nH+]c1 (protonated)
Cc1cnc(-n2cccc2CN2CCN(C)CC2)[nH+]c1 (3D coordinates assigned)
Cc1cnc(-n2cccc2CN2CCN(C)CC2)[nH+]c1 (nonaromatic ring conformer: 86.06609749024852 kcal/mol)

>  <smiles>  (4) 
Cc1cnc(-n2cccc2CN2CCN(C)CC2)nc1

>  <score_type>  (4) 
oracle

>  <origin>  (4) 
adg

>  <m_score__min__energy>  (4) 
-4.9699999999999998

>  <m_primary>  (4) 
energy

$$$$
4:0
     RDKit          3D

 38 41  0  0  0  0  0  0  0  0999 V2000
   68.5400   32.7960   53.8800 C   0  0  0  0  0  0  0  0  0  0  0  0
   68.4970   32.1080   52.6320 O   0  0  0  0  0  0  0  0  0  0  0  0
   67.4200   32.1630   51.7350 C   0  0  0  0  0  0  0  0  0  0  0  0
   66.3320   31.3110   51.9490 C   0  0  0  0  0  0  0  0  0  0  0  0
   65.2340   31.3260   51.0850 C   0  0  0  0  0  0  0  0  0  0  0  0
   65.2020   32.2060   49.9860 C   0  0  0  0  0  0  0  0  0  0  0  0
   64.0490   32.2340   49.0500 C   0  0  0  0  0  0  0  0  0  0  0  0
   63.8810   33.2880   48.1130 C   0  0  0  0  0  0  0  0  0  0  0  0
   62.7760   33.2590   47.2500 C   0  0  0  0  0  0  0  0  0  0  0  0
   62.5920   34.1750   46.4040 O   0  0  0  0  0  0  0  0  0  0  0  0
   61.9150   32.2180   47.3480 N   0  0  0  0  0  0  0  0  0  0  0  0
   60.8260   32.0050   46.6330 N   0  0  0  0  0  0  0  0  0  0  0  0
   60.2900   30.8380   47.0760 C   0  0  0  0  0  0  0  0  0  0  0  0
   59.0490   30.2480   46.5210 C   0  0  0  0  0  0  0  0  0  0  0  0
   58.2730   30.9800   45.6020 C   0  0  0  0  0  0  0  0  0  0  0  0
   57.1000   30.4360   45.0690 C   0  0  0  0  0  0  0  0  0  0  0  0
   56.6870   29.1560   45.4460 C   0  0  0  0  0  0  0  0  0  0  0  0
   55.5200   28.6180   44.9160 O   0  0  0  0  0  0  0  0  0  0  0  0
   57.4470   28.4190   46.3570 C   0  0  0  0  0  0  0  0  0  0  0  0
   58.6210   28.9580   46.8920 C   0  0  0  0  0  0  0  0  0  0  0  0
   61.0790   30.3070   48.1040 C   0  0  0  0  0  0  0  0  0  0  0  0
   62.0890   31.2290   48.2270 C   0  0  0  0  0  0  0  0  0  0  0  0
   63.1400   31.2110   49.0810 N   0  0  0  0  0  0  0  0  0  0  0  0
   66.3030   33.0530   49.7660 C   0  0  0  0  0  0  0  0  0  0  0  0
   67.4000   33.0360   50.6320 C   0  0  0  0  0  0  0  0  0  0  0  0
   68.4944   32.0669   54.7024 H   0  0  0  0  0  0  0  0  0  0  0  0
   69.4758   33.3699   53.9502 H   0  0  0  0  0  0  0  0  0  0  0  0
   67.6830   33.4820   53.9502 H   0  0  0  0  0  0  0  0  0  0  0  0
   66.3406   30.6219   52.8064 H   0  0  0  0  0  0  0  0  0  0  0  0
   64.3885   30.6456   51.2645 H   0  0  0  0  0  0  0  0  0  0  0  0
   64.6060   34.1139   48.0650 H   0  0  0  0  0  0  0  0  0  0  0  0
   58.5922   31.9886   45.3006 H   0  0  0  0  0  0  0  0  0  0  0  0
   56.5017   31.0170   44.3518 H   0  0  0  0  0  0  0  0  0  0  0  0
   57.1210   27.4114   46.6545 H   0  0  0  0  0  0  0  0  0  0  0  0
   59.2148   28.3706   47.6078 H   0  0  0  0  0  0  0  0  0  0  0  0
   60.9268   29.3784   48.6736 H   0  0  0  0  0  0  0  0  0  0  0  0
   66.3008   33.7358   48.9036 H   0  0  0  0  0  0  0  0  0  0  0  0
   68.2515   33.7082   50.4503 H   0  0  0  0  0  0  0  0  0  0  0  0
  1  2  1  0
  2  3  1  0
  3  4  2  0
  4  5  1  0
  5  6  2  0
  6  7  1  0
  7  8  2  0
  8  9  1  0
  9 10  2  0
  9 11  1  0
 11 12  1  0
 12 13  2  0
 13 14  1  0
 14 15  2  0
 15 16  1  0
 16 17  2  0
 17 18  1  0
 17 19  1  0
 19 20  2  0
 13 21  1  0
 21 22  2  0
 22 23  1  0
  6 24  1  0
 24 25  2  0
 25  3  1  0
 23  7  1  0
 22 11  1  0
 20 14  1  0
  1 26  1  0
  1 27  1  0
  1 28  1  0
  4 29  1  0
  5 30  1  0
  8 31  1  0
 15 32  1  0
 16 33  1  0
 19 34  1  0
 20 35  1  0
 21 36  1  0
 24 37  1  0
 25 38  1  0
M  CHG  2  18  -1  23  -1
M  END
>  <UniqueID>  (5) 
5

>  <SMILES>  (5) 
COc1ccc(-c2cc(=O)n3nc(-c4ccc([O-])cc4)cc3[n-]2)cc1

>  <Energy>  (5) 
85.14862673813536

>  <Genealogy>  (5) 
COc1ccc(-c2cc(=O)n3nc(-c4ccc([O-])cc4)cc3[n-]2)cc1 (protonated)
COc1ccc(-c2cc(=O)n3nc(-c4ccc([O-])cc4)cc3[n-]2)cc1 (3D coordinates assigned)
COc1ccc(-c2cc(=O)n3nc(-c4ccc([O-])cc4)cc3[n-]2)cc1 (optimized conformer: 85.14862673813536 kcal/mol)

>  <smiles>  (5) 
COc1ccc(-c2cc(=O)n3nc(-c4ccc(O)cc4)cc3[nH]2)cc1

>  <score_type>  (5) 
oracle

>  <origin>  (5) 
adg

>  <m_score__min__energy>  (5) 
-10.08

>  <m_primary>  (5) 
energy

$$$$
5:0
     RDKit          3D

 56 59  0  0  0  0  0  0  0  0999 V2000
   65.7490   32.7420   50.0560 C   0  0  0  0  0  0  0  0  0  0  0  0
   64.4390   32.3440   49.3560 C   0  0  0  0  0  0  0  0  0  0  0  0
   63.4090   33.4180   49.3250 N   0  0  0  0  0  0  0  0  0  0  0  0
   63.1040   33.8980   47.9520 C   0  0  0  0  0  0  0  0  0  0  0  0
   63.6790   32.9900   46.8580 C   0  0  0  0  0  0  0  0  0  0  0  0
   62.1620   33.0020   50.0360 C   0  0  0  0  0  0  0  0  0  0  0  0
   61.2330   32.1310   49.1650 C   0  0  0  0  0  0  0  0  0  0  0  0
   59.7710   32.6080   49.1870 C   0  0  0  0  0  0  0  0  0  0  0  0
   59.1070   32.3420   47.8900 N   0  0  0  0  0  0  0  0  0  0  0  0
   59.0420   33.4420   46.9100 C   0  0  0  0  0  0  0  0  0  0  0  0
   59.6410   34.7090   47.1570 C   0  0  0  0  0  0  0  0  0  0  0  0
   59.7330   35.6770   46.1530 C   0  0  0  0  0  0  0  0  0  0  0  0
   59.2350   35.4180   44.8810 C   0  0  0  0  0  0  0  0  0  0  0  0
   58.6030   34.2080   44.6200 C   0  0  0  0  0  0  0  0  0  0  0  0
   58.4760   33.2420   45.6260 C   0  0  0  0  0  0  0  0  0  0  0  0
   57.4590   31.8270   45.2810 S   0  0  0  0  0  0  0  0  0  0  0  0
   58.5850   30.7270   46.0970 C   0  0  0  0  0  0  0  0  0  0  0  0
   58.9770   29.5460   45.4770 C   0  0  0  0  0  0  0  0  0  0  0  0
   59.5970   28.5510   46.2320 C   0  0  0  0  0  0  0  0  0  0  0  0
   60.0590   27.3760   45.6210 C   0  0  0  0  0  0  0  0  0  0  0  0
   60.6040   26.3520   46.3950 C   0  0  0  0  0  0  0  0  0  0  0  0
   60.6780   26.4860   47.7820 C   0  0  0  0  0  0  0  0  0  0  0  0
   60.2080   27.6450   48.4040 C   0  0  0  0  0  0  0  0  0  0  0  0
   59.6640   28.7030   47.6400 C   0  0  0  0  0  0  0  0  0  0  0  0
   59.1770   29.8530   48.2300 N   0  0  0  0  0  0  0  0  0  0  0  0
   58.6350   29.7620   49.6000 C   0  0  0  0  0  0  0  0  0  0  0  0
   58.8920   30.9550   47.4420 C   0  0  0  0  0  0  0  0  0  0  0  0
   65.6096   32.6997   51.1463 H   0  0  0  0  0  0  0  0  0  0  0  0
   66.5483   32.0462   49.7612 H   0  0  0  0  0  0  0  0  0  0  0  0
   66.0261   33.7649   49.7612 H   0  0  0  0  0  0  0  0  0  0  0  0
   64.6745   32.0628   48.3190 H   0  0  0  0  0  0  0  0  0  0  0  0
   64.0109   31.5144   49.9379 H   0  0  0  0  0  0  0  0  0  0  0  0
   63.8360   34.2250   49.8420 H   0  0  0  0  0  0  0  0  0  0  0  0
   62.0116   33.9437   47.8313 H   0  0  0  0  0  0  0  0  0  0  0  0
   63.5716   34.8871   47.8379 H   0  0  0  0  0  0  0  0  0  0  0  0
   64.2123   32.1479   47.3232 H   0  0  0  0  0  0  0  0  0  0  0  0
   62.8598   32.6049   46.2330 H   0  0  0  0  0  0  0  0  0  0  0  0
   64.3774   33.5659   46.2330 H   0  0  0  0  0  0  0  0  0  0  0  0
   62.4438   32.4275   50.9307 H   0  0  0  0  0  0  0  0  0  0  0  0
   61.6089   33.9175   50.2929 H   0  0  0  0  0  0  0  0  0  0  0  0
   61.5961   32.1600   48.1271 H   0  0  0  0  0  0  0  0  0  0  0  0
   61.2538   31.1115   49.5777 H   0  0  0  0  0  0  0  0  0  0  0  0
   59.2308   32.0757   49.9837 H   0  0  0  0  0  0  0  0  0  0  0  0
   59.7586   33.6923   49.3715 H   0  0  0  0  0  0  0  0  0  0  0  0
   60.0395   34.9309   48.1580 H   0  0  0  0  0  0  0  0  0  0  0  0
   60.2016   36.6482   46.3702 H   0  0  0  0  0  0  0  0  0  0  0  0
   59.3409   36.1684   44.0837 H   0  0  0  0  0  0  0  0  0  0  0  0
   58.1998   34.0077   43.6164 H   0  0  0  0  0  0  0  0  0  0  0  0
   58.7998   29.3979   44.4015 H   0  0  0  0  0  0  0  0  0  0  0  0
   59.9913   27.2620   44.5290 H   0  0  0  0  0  0  0  0  0  0  0  0
   60.9763   25.4369   45.9113 H   0  0  0  0  0  0  0  0  0  0  0  0
   61.1084   25.6753   48.3882 H   0  0  0  0  0  0  0  0  0  0  0  0
   60.2616   27.7355   49.4990 H   0  0  0  0  0  0  0  0  0  0  0  0
   59.4496   29.8988   50.3264 H   0  0  0  0  0  0  0  0  0  0  0  0
   57.8770   30.5455   49.7472 H   0  0  0  0  0  0  0  0  0  0  0  0
   58.1745   28.7740   49.7472 H   0  0  0  0  0  0  0  0  0  0  0  0
  1  2  1  0
  2  3  1  0
  3  4  1  0
  4  5  1  0
  3  6  1  0
  6  7  1  0
  7  8  1  0
  8  9  1  0
  9 10  1  0
 10 11  2  0
 11 12  1  0
 12 13  2  0
 13 14  1  0
 14 15  2  0
 15 16  1  0
 16 17  1  0
 17 18  2  0
 18 19  1  0
 19 20  2  0
 20 21  1  0
 21 22  2  0
 22 23  1  0
 23 24  2  0
 24 25  1  0
 25 26  1  0
 25 27  2  0
 27  9  1  0
 15 10  1  0
 27 17  1  0
 24 19  1  0
  1 28  1  0
  1 29  1  0
  1 30  1  0
  2 31  1  0
  2 32  1  0
  3 33  1  0
  4 34  1  0
  4 35  1  0
  5 36  1  0
  5 37  1  0
  5 38  1  0
  6 39  1  0
  6 40  1  0
  7 41  1  0
  7 42  1  0
  8 43  1  0
  8 44  1  0
 11 45  1  0
 12 46  1  0
 13 47  1  0
 14 48  1  0
 18 49  1  0
 20 50  1  0
 21 51  1  0
 22 52  1  0
 23 53  1  0
 26 54  1  0
 26 55  1  0
 26 56  1  0
M  CHG  2   3   1  25   1
M  END
>  <UniqueID>  (6) 
6

>  <SMILES>  (6) 
CC[NH+](CC)CCCN1c2ccccc2Sc2cc3ccccc3[n+](C)c21

>  <Energy>  (6) 
113.61989143827445

>  <Genealogy>  (6) 
CC[NH+](CC)CCCN1c2ccccc2Sc2cc3ccccc3[n+](C)c21 (protonated)
CC[NH+](CC)CCCN1c2ccccc2Sc2cc3ccccc3[n+](C)c21 (3D coordinates assigned)
CC[NH+](CC)CCCN1c2ccccc2Sc2cc3ccccc3[n+](C)c21 (nonaromatic ring conformer: 113.61989143827445 kcal/mol)

>  <smiles>  (6) 
CCN(CC)CCCN1c2ccccc2Sc2cc3ccccc3[n+](C)c21

>  <score_type>  (6) 
oracle

>  <origin>  (6) 
adg

>  <m_score__min__energy>  (6) 
-5.2199999999999998

>  <m_primary>  (6) 
energy

$$$$
6:0
     RDKit          3D

 52 54  0  0  0  0  0  0  0  0999 V2000
   55.1510   29.3830   44.8500 O   0  0  0  0  0  0  0  0  0  0  0  0
   56.3660   29.1910   45.1290 C   0  0  0  0  0  0  0  0  0  0  0  0
   56.8920   27.7950   45.2380 C   0  0  0  0  0  0  0  0  0  0  0  0
   58.3850   27.7820   44.8740 C   0  0  0  0  0  0  0  0  0  0  0  0
   59.2280   27.2390   45.9530 N   0  0  0  0  0  0  0  0  0  0  0  0
   60.6340   27.6640   45.8550 C   0  0  0  0  0  0  0  0  0  0  0  0
   60.7410   29.0380   45.1820 C   0  0  0  0  0  0  0  0  0  0  0  0
   59.9130   30.0200   45.8760 N   0  0  0  0  0  0  0  0  0  0  0  0
   60.0060   30.2310   47.2890 C   0  0  0  0  0  0  0  0  0  0  0  0
   60.7880   31.0290   48.1130 C   0  0  0  0  0  0  0  0  0  0  0  0
   61.8500   31.9810   47.9250 N   0  0  0  0  0  0  0  0  0  0  0  0
   61.8220   32.8510   46.7410 C   0  0  0  0  0  0  0  0  0  0  0  0
   62.9830   33.8500   46.7110 C   0  0  0  0  0  0  0  0  0  0  0  0
   64.1720   33.2590   47.1800 O   0  0  0  0  0  0  0  0  0  0  0  0
   64.0350   33.0030   48.5590 C   0  0  0  0  0  0  0  0  0  0  0  0
   63.0220   31.8820   48.8070 C   0  0  0  0  0  0  0  0  0  0  0  0
   60.1790   30.4670   49.2200 C   0  0  0  0  0  0  0  0  0  0  0  0
   60.2970   30.6020   50.4640 O   0  0  0  0  0  0  0  0  0  0  0  0
   59.4060   29.6730   48.4020 C   0  0  0  0  0  0  0  0  0  0  0  0
   58.5300   28.7900   48.5960 O   0  0  0  0  0  0  0  0  0  0  0  0
   57.2650   30.2970   45.2610 N   0  0  0  0  0  0  0  0  0  0  0  0
   57.1270   31.5500   44.5280 C   0  0  0  0  0  0  0  0  0  0  0  0
   57.8230   32.6730   45.2490 C   0  0  0  0  0  0  0  0  0  0  0  0
   58.5370   33.6470   44.5330 C   0  0  0  0  0  0  0  0  0  0  0  0
   59.1940   34.6720   45.2160 C   0  0  0  0  0  0  0  0  0  0  0  0
   59.1260   34.7180   46.6110 C   0  0  0  0  0  0  0  0  0  0  0  0
   58.4240   33.7710   47.2900 N   0  0  0  0  0  0  0  0  0  0  0  0
   57.7780   32.7620   46.6490 C   0  0  0  0  0  0  0  0  0  0  0  0
   56.7624   27.4335   46.2688 H   0  0  0  0  0  0  0  0  0  0  0  0
   56.3400   27.1396   44.5483 H   0  0  0  0  0  0  0  0  0  0  0  0
   58.5227   27.1637   43.9747 H   0  0  0  0  0  0  0  0  0  0  0  0
   58.6945   28.8235   44.7025 H   0  0  0  0  0  0  0  0  0  0  0  0
   58.8360   27.5280   46.8780 H   0  0  0  0  0  0  0  0  0  0  0  0
   61.0644   27.7227   46.8656 H   0  0  0  0  0  0  0  0  0  0  0  0
   61.1832   26.9296   45.2475 H   0  0  0  0  0  0  0  0  0  0  0  0
   61.7895   29.3700   45.2041 H   0  0  0  0  0  0  0  0  0  0  0  0
   60.3894   28.9507   44.1434 H   0  0  0  0  0  0  0  0  0  0  0  0
   59.3980   30.7150   45.2950 H   0  0  0  0  0  0  0  0  0  0  0  0
   61.8768   32.2213   45.8407 H   0  0  0  0  0  0  0  0  0  0  0  0
   60.8875   33.4302   46.7775 H   0  0  0  0  0  0  0  0  0  0  0  0
   63.1356   34.1926   45.6769 H   0  0  0  0  0  0  0  0  0  0  0  0
   62.7320   34.6975   47.3658 H   0  0  0  0  0  0  0  0  0  0  0  0
   65.0110   32.7039   48.9688 H   0  0  0  0  0  0  0  0  0  0  0  0
   63.6758   33.9178   49.0530 H   0  0  0  0  0  0  0  0  0  0  0  0
   63.5155   30.9147   48.6316 H   0  0  0  0  0  0  0  0  0  0  0  0
   62.6693   31.9720   49.8450 H   0  0  0  0  0  0  0  0  0  0  0  0
   57.5714   31.4335   43.5285 H   0  0  0  0  0  0  0  0  0  0  0  0
   56.0575   31.7938   44.4466 H   0  0  0  0  0  0  0  0  0  0  0  0
   58.5787   33.6025   43.4347 H   0  0  0  0  0  0  0  0  0  0  0  0
   59.7594   35.4356   44.6618 H   0  0  0  0  0  0  0  0  0  0  0  0
   59.6403   35.5203   47.1603 H   0  0  0  0  0  0  0  0  0  0  0  0
   57.2184   32.0131   47.2287 H   0  0  0  0  0  0  0  0  0  0  0  0
  1  2  2  0
  2  3  1  0
  3  4  1  0
  4  5  1  0
  5  6  1  0
  6  7  1  0
  7  8  1  0
  8  9  1  0
  9 10  2  0
 10 11  1  0
 11 12  1  0
 12 13  1  0
 13 14  1  0
 14 15  1  0
 15 16  1  0
 10 17  1  0
 17 18  2  0
 17 19  1  0
 19 20  2  0
  2 21  1  0
 21 22  1  0
 22 23  1  0
 23 24  2  0
 24 25  1  0
 25 26  2  0
 26 27  1  0
 27 28  2  0
 19  9  1  0
 28 23  1  0
 16 11  1  0
  3 29  1  0
  3 30  1  0
  4 31  1  0
  4 32  1  0
  5 33  1  0
  6 34  1  0
  6 35  1  0
  7 36  1  0
  7 37  1  0
  8 38  1  0
 12 39  1  0
 12 40  1  0
 13 41  1  0
 13 42  1  0
 15 43  1  0
 15 44  1  0
 16 45  1  0
 16 46  1  0
 22 47  1  0
 22 48  1  0
 24 49  1  0
 25 50  1  0
 26 51  1  0
 28 52  1  0
M  CHG  1  21  -1
M  END
>  <UniqueID>  (7) 
7

>  <SMILES>  (7) 
O=C(CCNCCNc1c(N2CCOCC2)c(=O)c1=O)[N-]Cc1cccnc1

>  <Energy>  (7) 
36.543350588172245

>  <Genealogy>  (7) 
O=C(CCNCCNc1c(N2CCOCC2)c(=O)c1=O)[N-]Cc1cccnc1 (protonated)
O=C(CCNCCNc1c(N2CCOCC2)c(=O)c1=O)[N-]Cc1cccnc1 (3D coordinates assigned)
O=C(CCNCCNc1c(N2CCOCC2)c(=O)c1=O)[N-]Cc1cccnc1 (nonaromatic ring conformer: 36.543350588172245 kcal/mol)

>  <smiles>  (7) 
O=C(CCNCCNc1c(N2CCOCC2)c(=O)c1=O)NCc1cccnc1

>  <score_type>  (7) 
oracle

>  <origin>  (7) 
adg

>  <m_score__min__energy>  (7) 
-9.8599999999999994

>  <m_primary>  (7) 
energy

$$$$
7:0
     RDKit          3D

 54 55  0  0  0  0  0  0  0  0999 V2000
   57.7827   23.9393   47.2011 H   0  0  0  0  0  0  0  0  0  0  0  0
   57.8620   24.9700   46.8250 C   0  0  0  0  0  0  0  0  0  0  0  0
   56.7410   25.5400   46.0590 C   0  0  0  0  0  0  0  0  0  0  0  0
   55.5600   25.3000   46.4290 O   0  0  0  0  0  0  0  0  0  0  0  0
   56.9820   26.3370   44.9340 O   0  0  0  0  0  0  0  0  0  0  0  0
   57.7630   25.8920   43.8300 C   0  0  0  0  0  0  0  0  0  0  0  0
   57.1758   25.1829   43.2280 H   0  0  0  0  0  0  0  0  0  0  0  0
   58.6714   25.3949   44.2011 H   0  0  0  0  0  0  0  0  0  0  0  0
   58.1540   27.0840   42.9700 C   0  0  0  0  0  0  0  0  0  0  0  0
   58.4310   27.9285   43.6181 H   0  0  0  0  0  0  0  0  0  0  0  0
   59.0103   26.8128   42.3350 H   0  0  0  0  0  0  0  0  0  0  0  0
   57.3035   27.3727   42.3350 H   0  0  0  0  0  0  0  0  0  0  0  0
   58.9760   25.6710   47.0770 C   0  0  0  0  0  0  0  0  0  0  0  0
   59.8144   25.1522   47.5648 H   0  0  0  0  0  0  0  0  0  0  0  0
   59.1460   27.1060   46.7370 C   0  0  0  0  0  0  0  0  0  0  0  0
   60.0640   27.5560   45.7660 C   0  0  0  0  0  0  0  0  0  0  0  0
   60.6862   26.8285   45.2242 H   0  0  0  0  0  0  0  0  0  0  0  0
   60.1890   28.9200   45.4870 C   0  0  0  0  0  0  0  0  0  0  0  0
   60.9082   29.2573   44.7260 H   0  0  0  0  0  0  0  0  0  0  0  0
   59.4030   29.8650   46.1710 C   0  0  0  0  0  0  0  0  0  0  0  0
   59.5430   31.3530   45.8800 C   0  0  2  0  0  0  0  0  0  0  0  0
   60.0835   31.4806   44.9305 H   0  0  0  0  0  0  0  0  0  0  0  0
   60.3950   32.0660   46.9250 C   0  0  0  0  0  0  0  0  0  0  0  0
   61.5520   31.3440   47.5190 C   0  0  0  0  0  0  0  0  0  0  0  0
   62.7290   31.5940   47.1380 O   0  0  0  0  0  0  0  0  0  0  0  0
   61.3280   30.4100   48.5370 O   0  0  0  0  0  0  0  0  0  0  0  0
   60.5310   30.6930   49.6790 C   0  0  0  0  0  0  0  0  0  0  0  0
   61.1107   30.4871   50.5909 H   0  0  0  0  0  0  0  0  0  0  0  0
   60.2332   31.7518   49.6650 H   0  0  0  0  0  0  0  0  0  0  0  0
   59.6321   30.0591   49.6650 H   0  0  0  0  0  0  0  0  0  0  0  0
   60.2000   33.3920   47.1330 C   0  0  0  0  0  0  0  0  0  0  0  0
   61.0900   34.2150   48.0200 C   0  0  0  0  0  0  0  0  0  0  0  0
   60.8576   34.0001   49.0735 H   0  0  0  0  0  0  0  0  0  0  0  0
   62.1419   33.9644   47.8180 H   0  0  0  0  0  0  0  0  0  0  0  0
   60.9223   35.2832   47.8180 H   0  0  0  0  0  0  0  0  0  0  0  0
   59.1190   34.0780   46.4840 N   0  0  0  0  0  0  0  0  0  0  0  0
   58.1850   33.4960   45.7950 C   0  0  0  0  0  0  0  0  0  0  0  0
   57.0580   34.3490   45.2850 C   0  0  0  0  0  0  0  0  0  0  0  0
   56.5023   34.7696   46.1361 H   0  0  0  0  0  0  0  0  0  0  0  0
   57.4654   35.1671   44.6728 H   0  0  0  0  0  0  0  0  0  0  0  0
   56.3813   33.7348   44.6728 H   0  0  0  0  0  0  0  0  0  0  0  0
   58.1310   31.9830   45.7250 C   0  0  1  0  0  0  0  0  0  0  0  0
   57.5030   31.6551   46.5665 H   0  0  0  0  0  0  0  0  0  0  0  0
   57.5000   31.5030   44.4420 C   0  0  0  0  0  0  0  0  0  0  0  0
   57.9100   31.9390   43.3310 O   0  0  0  0  0  0  0  0  0  0  0  0
   56.4880   30.5400   44.4980 O   0  0  0  0  0  0  0  0  0  0  0  0
   56.1310   29.7380   43.3780 C   0  0  0  0  0  0  0  0  0  0  0  0
   55.7071   28.7857   43.7292 H   0  0  0  0  0  0  0  0  0  0  0  0
   55.3845   30.2694   42.7695 H   0  0  0  0  0  0  0  0  0  0  0  0
   57.0255   29.5390   42.7695 H   0  0  0  0  0  0  0  0  0  0  0  0
   58.5110   29.4200   47.1590 C   0  0  0  0  0  0  0  0  0  0  0  0
   57.9070   30.1496   47.7183 H   0  0  0  0  0  0  0  0  0  0  0  0
   58.3850   28.0560   47.4370 C   0  0  0  0  0  0  0  0  0  0  0  0
   57.6810   27.7227   48.2137 H   0  0  0  0  0  0  0  0  0  0  0  0
  1  2  1  0
  2  3  1  0
  3  4  2  0
  3  5  1  0
  5  6  1  0
  6  7  1  0
  6  8  1  0
  6  9  1  0
  9 10  1  0
  9 11  1  0
  9 12  1  0
  2 13  2  0
 13 14  1  0
 13 15  1  0
 15 16  2  0
 16 17  1  0
 16 18  1  0
 18 19  1  0
 18 20  2  0
 20 21  1  0
 21 22  1  6
 21 23  1  0
 23 24  1  0
 24 25  2  0
 24 26  1  0
 26 27  1  0
 27 28  1  0
 27 29  1  0
 27 30  1  0
 23 31  2  0
 31 32  1  0
 32 33  1  0
 32 34  1  0
 32 35  1  0
 31 36  1  0
 36 37  2  0
 37 38  1  0
 38 39  1  0
 38 40  1  0
 38 41  1  0
 37 42  1  0
 42 43  1  1
 42 44  1  0
 44 45  2  0
 44 46  1  0
 46 47  1  0
 47 48  1  0
 47 49  1  0
 47 50  1  0
 20 51  1  0
 51 52  1  0
 51 53  2  0
 53 54  1  0
 53 15  1  0
 42 21  1  0
M  END
>  <UniqueID>  (8) 
8

>  <SMILES>  (8) 
CCOC(=O)/C=C/c1ccc([C@@H]2C(C(=O)OC)=C(C)N=C(C)[C@H]2C(=O)OC)cc1

>  <Energy>  (8) 
50.46991280133499

>  <Genealogy>  (8) 
CCOC(=O)C=Cc1ccc([C@@H]2C(C(=O)OC)=C(C)N=C(C)[C@H]2C(=O)OC)cc1 (chirality)
CCOC(=O)/C=C/c1ccc([C@@H]2C(C(=O)OC)=C(C)N=C(C)[C@H]2C(=O)OC)cc1 (cis-trans isomerization)
CCOC(=O)/C=C/c1ccc([C@@H]2C(C(=O)OC)=C(C)N=C(C)[C@H]2C(=O)OC)cc1 (3D coordinates assigned)
CCOC(=O)/C=C/c1ccc([C@@H]2C(C(=O)OC)=C(C)N=C(C)[C@H]2C(=O)OC)cc1 (nonaromatic ring conformer: 50.46991280133499 kcal/mol)

>  <smiles>  (8) 
CCOC(=O)C=Cc1ccc(C2C(C(=O)OC)=C(C)N=C(C)C2C(=O)OC)cc1

>  <score_type>  (8) 
oracle

>  <origin>  (8) 
adg

>  <m_score__min__energy>  (8) 
-8.0199999999999996

>  <m_primary>  (8) 
energy

$$$$
8:0
     RDKit          3D

 24 25  0  0  0  0  0  0  0  0999 V2000
   57.0190   32.3390   40.8190 C   0  0  0  0  0  0  0  0  0  0  0  0
   58.2270   32.3490   41.7470 C   0  0  0  0  0  0  0  0  0  0  0  0
   57.8230   32.0120   43.1110 N   0  0  0  0  0  0  0  0  0  0  0  0
   57.1160   30.9240   43.5080 C   0  0  0  0  0  0  0  0  0  0  0  0
   56.9540   30.8520   44.8560 N   0  0  0  0  0  0  0  0  0  0  0  0
   57.6050   31.9460   45.2960 C   0  0  0  0  0  0  0  0  0  0  0  0
   57.7670   32.3700   46.6080 C   0  0  0  0  0  0  0  0  0  0  0  0
   58.5070   33.5490   46.8140 C   0  0  0  0  0  0  0  0  0  0  0  0
   59.0570   34.2350   45.7520 N   0  0  0  0  0  0  0  0  0  0  0  0
   59.7930   35.4770   45.9970 C   0  0  0  0  0  0  0  0  0  0  0  0
   58.8700   33.8040   44.4620 C   0  0  0  0  0  0  0  0  0  0  0  0
   58.1320   32.6400   44.2550 C   0  0  0  0  0  0  0  0  0  0  0  0
   56.0965   32.3314   41.4181 H   0  0  0  0  0  0  0  0  0  0  0  0
   57.0367   33.2373   40.1844 H   0  0  0  0  0  0  0  0  0  0  0  0
   57.0515   31.4411   40.1844 H   0  0  0  0  0  0  0  0  0  0  0  0
   58.9620   31.6108   41.3936 H   0  0  0  0  0  0  0  0  0  0  0  0
   58.6715   33.3552   41.7442 H   0  0  0  0  0  0  0  0  0  0  0  0
   56.7142   30.1754   42.8093 H   0  0  0  0  0  0  0  0  0  0  0  0
   57.3356   31.8087   47.4499 H   0  0  0  0  0  0  0  0  0  0  0  0
   58.6487   33.9287   47.8366 H   0  0  0  0  0  0  0  0  0  0  0  0
   59.8888   35.6387   47.0808 H   0  0  0  0  0  0  0  0  0  0  0  0
   60.7942   35.4048   45.5471 H   0  0  0  0  0  0  0  0  0  0  0  0
   59.2489   36.3205   45.5471 H   0  0  0  0  0  0  0  0  0  0  0  0
   59.2918   34.3630   43.6137 H   0  0  0  0  0  0  0  0  0  0  0  0
  1  2  1  0
  2  3  1  0
  3  4  1  0
  4  5  2  0
  5  6  1  0
  6  7  2  0
  7  8  1  0
  8  9  2  0
  9 10  1  0
  9 11  1  0
 11 12  2  0
 12  3  1  0
 12  6  1  0
  1 13  1  0
  1 14  1  0
  1 15  1  0
  2 16  1  0
  2 17  1  0
  4 18  1  0
  7 19  1  0
  8 20  1  0
 10 21  1  0
 10 22  1  0
 10 23  1  0
 11 24  1  0
M  CHG  1   9   1
M  END
>  <UniqueID>  (9) 
9

>  <SMILES>  (9) 
CCn1cnc2cc[n+](C)cc21

>  <Energy>  (9) 
58.822748989097484

>  <Genealogy>  (9) 
CCn1cnc2cc[n+](C)cc21 (3D coordinates assigned)
CCn1cnc2cc[n+](C)cc21 (optimized conformer: 58.822748989097484 kcal/mol)

>  <smiles>  (9) 
CCn1cnc2cc[n+](C)cc21

>  <score_type>  (9) 
oracle

>  <origin>  (9) 
adg

>  <m_score__min__energy>  (9) 
-3.5

>  <m_primary>  (9) 
energy

$$$$
9:0
     RDKit          3D

 31 32  0  0  0  0  0  0  0  0999 V2000
   55.5250   29.7210   43.8550 C   0  0  0  0  0  0  0  0  0  0  0  0
   56.2730   30.0640   42.8030 C   0  0  0  0  0  0  0  0  0  0  0  0
   57.2860   31.1700   42.8790 C   0  0  0  0  0  0  0  0  0  0  0  0
   58.0300   31.0990   44.1420 N   0  0  0  0  0  0  0  0  0  0  0  0
   58.7000   30.0460   44.6920 C   0  0  0  0  0  0  0  0  0  0  0  0
   58.8200   28.8800   44.1330 N   0  0  0  0  0  0  0  0  0  0  0  0
   59.2320   30.3350   45.9080 N   0  0  0  0  0  0  0  0  0  0  0  0
   60.0460   29.4680   46.7660 C   0  0  0  0  0  0  0  0  0  0  0  0
   59.1650   28.6110   47.6300 C   0  0  0  0  0  0  0  0  0  0  0  0
   58.4020   27.6460   47.1120 C   0  0  0  0  0  0  0  0  0  0  0  0
   58.8840   31.6180   46.1280 C   0  0  0  0  0  0  0  0  0  0  0  0
   59.1710   32.4270   47.2300 C   0  0  0  0  0  0  0  0  0  0  0  0
   58.6750   33.7430   47.2230 C   0  0  0  0  0  0  0  0  0  0  0  0
   57.9110   34.2150   46.1330 C   0  0  0  0  0  0  0  0  0  0  0  0
   57.6400   33.3780   45.0340 C   0  0  0  0  0  0  0  0  0  0  0  0
   58.1500   32.0770   45.0650 C   0  0  0  0  0  0  0  0  0  0  0  0
   54.7917   28.9059   43.7661 H   0  0  0  0  0  0  0  0  0  0  0  0
   55.6423   30.2536   44.8103 H   0  0  0  0  0  0  0  0  0  0  0  0
   56.1435   29.5215   41.8549 H   0  0  0  0  0  0  0  0  0  0  0  0
   57.9894   31.0752   42.0386 H   0  0  0  0  0  0  0  0  0  0  0  0
   56.7627   32.1362   42.8280 H   0  0  0  0  0  0  0  0  0  0  0  0
   58.6380   28.7050   43.1210 H   0  0  0  0  0  0  0  0  0  0  0  0
   60.6750   28.8218   46.1360 H   0  0  0  0  0  0  0  0  0  0  0  0
   60.6774   30.0959   47.4118 H   0  0  0  0  0  0  0  0  0  0  0  0
   59.1483   28.7830   48.7163 H   0  0  0  0  0  0  0  0  0  0  0  0
   57.7669   27.0343   47.7697 H   0  0  0  0  0  0  0  0  0  0  0  0
   58.4083   27.4624   46.0274 H   0  0  0  0  0  0  0  0  0  0  0  0
   59.7648   32.0476   48.0746 H   0  0  0  0  0  0  0  0  0  0  0  0
   58.8837   34.4096   48.0728 H   0  0  0  0  0  0  0  0  0  0  0  0
   57.5246   35.2449   46.1428 H   0  0  0  0  0  0  0  0  0  0  0  0
   57.0468   33.7358   44.1796 H   0  0  0  0  0  0  0  0  0  0  0  0
  1  2  2  0
  2  3  1  0
  3  4  1  0
  4  5  1  0
  5  6  2  3
  5  7  1  0
  7  8  1  0
  8  9  1  0
  9 10  2  0
  7 11  1  0
 11 12  2  0
 12 13  1  0
 13 14  2  0
 14 15  1  0
 15 16  2  0
 16  4  1  0
 16 11  1  0
  1 17  1  0
  1 18  1  0
  2 19  1  0
  3 20  1  0
  3 21  1  0
  6 22  1  0
  8 23  1  0
  8 24  1  0
  9 25  1  0
 10 26  1  0
 10 27  1  0
 12 28  1  0
 13 29  1  0
 14 30  1  0
 15 31  1  0
M  END
>  <UniqueID>  (10) 
10

>  <SMILES>  (10) 
C=CCn1c(=N)n(CC=C)c2ccccc21

>  <Energy>  (10) 
66.31350909221675

>  <Genealogy>  (10) 
C=CCn1c(=N)n(CC=C)c2ccccc21 (3D coordinates assigned)
C=CCn1c(=N)n(CC=C)c2ccccc21 (optimized conformer: 66.31350909221675 kcal/mol)

>  <smiles>  (10) 
C=CCn1c(=N)n(CC=C)c2ccccc21

>  <score_type>  (10) 
oracle

>  <origin>  (10) 
adg

>  <m_score__min__energy>  (10) 
-5.4500000000000002

>  <m_primary>  (10) 
energy

$$$$
10:0
     RDKit          3D

 38 41  0  0  0  0  0  0  0  0999 V2000
   62.0590   32.2670   47.8380 C   0  0  0  0  0  0  0  0  0  0  0  0
   60.6180   32.4740   47.8810 N   0  0  0  0  0  0  0  0  0  0  0  0
   59.7950   31.7810   48.6590 N   0  0  0  0  0  0  0  0  0  0  0  0
   58.5310   32.1450   48.3530 C   0  0  0  0  0  0  0  0  0  0  0  0
   58.5730   33.0750   47.3360 C   0  0  0  0  0  0  0  0  0  0  0  0
   59.8960   33.2740   47.0730 C   0  0  0  0  0  0  0  0  0  0  0  0
   60.3960   34.1000   45.9310 C   0  0  0  0  0  0  0  0  0  0  0  0
   59.2520   34.9470   45.3240 C   0  0  0  0  0  0  0  0  0  0  0  0
   57.9410   34.2470   45.2730 N   0  0  0  0  0  0  0  0  0  0  0  0
   57.7650   33.3240   44.1280 C   0  0  0  0  0  0  0  0  0  0  0  0
   57.5700   31.8940   44.5340 C   0  0  0  0  0  0  0  0  0  0  0  0
   58.5590   31.0850   44.9580 N   0  0  0  0  0  0  0  0  0  0  0  0
   57.8950   29.9250   45.1500 C   0  0  0  0  0  0  0  0  0  0  0  0
   58.5460   28.6680   45.5680 C   0  0  0  0  0  0  0  0  0  0  0  0
   59.5150   28.6620   46.5840 C   0  0  0  0  0  0  0  0  0  0  0  0
   60.1110   27.4620   46.9760 C   0  0  0  0  0  0  0  0  0  0  0  0
   59.7330   26.2740   46.3500 C   0  0  0  0  0  0  0  0  0  0  0  0
   58.7920   26.2910   45.3690 N   0  0  0  0  0  0  0  0  0  0  0  0
   58.1980   27.4450   44.9680 C   0  0  0  0  0  0  0  0  0  0  0  0
   56.5800   30.0360   44.8720 N   0  0  0  0  0  0  0  0  0  0  0  0
   56.4190   31.2680   44.4980 O   0  0  0  0  0  0  0  0  0  0  0  0
   57.4630   33.7290   46.5780 C   0  0  0  0  0  0  0  0  0  0  0  0
   62.4521   32.2105   48.8638 H   0  0  0  0  0  0  0  0  0  0  0  0
   62.2789   31.3280   47.3089 H   0  0  0  0  0  0  0  0  0  0  0  0
   62.5343   33.1061   47.3089 H   0  0  0  0  0  0  0  0  0  0  0  0
   57.6191   31.7629   48.8352 H   0  0  0  0  0  0  0  0  0  0  0  0
   61.1896   34.7711   46.2914 H   0  0  0  0  0  0  0  0  0  0  0  0
   60.7876   33.4272   45.1538 H   0  0  0  0  0  0  0  0  0  0  0  0
   59.1350   35.8562   45.9320 H   0  0  0  0  0  0  0  0  0  0  0  0
   59.5360   35.1657   44.2841 H   0  0  0  0  0  0  0  0  0  0  0  0
   56.8834   33.6459   43.5542 H   0  0  0  0  0  0  0  0  0  0  0  0
   58.6897   33.3673   43.5338 H   0  0  0  0  0  0  0  0  0  0  0  0
   59.8050   29.6043   47.0719 H   0  0  0  0  0  0  0  0  0  0  0  0
   60.8714   27.4533   47.7708 H   0  0  0  0  0  0  0  0  0  0  0  0
   60.1967   25.3228   46.6504 H   0  0  0  0  0  0  0  0  0  0  0  0
   57.4412   27.4225   44.1701 H   0  0  0  0  0  0  0  0  0  0  0  0
   57.0655   34.5648   47.1726 H   0  0  0  0  0  0  0  0  0  0  0  0
   56.6789   32.9805   46.3910 H   0  0  0  0  0  0  0  0  0  0  0  0
  1  2  1  0
  2  3  1  0
  3  4  2  0
  4  5  1  0
  5  6  2  0
  6  7  1  0
  7  8  1  0
  8  9  1  0
  9 10  1  0
 10 11  1  0
 11 12  2  0
 12 13  1  0
 13 14  1  0
 14 15  2  0
 15 16  1  0
 16 17  2  0
 17 18  1  0
 18 19  2  0
 13 20  2  0
 20 21  1  0
  9 22  1  0
  6  2  1  0
 21 11  1  0
 22  5  1  0
 19 14  1  0
  1 23  1  0
  1 24  1  0
  1 25  1  0
  4 26  1  0
  7 27  1  0
  7 28  1  0
  8 29  1  0
  8 30  1  0
 10 31  1  0
 10 32  1  0
 15 33  1  0
 16 34  1  0
 17 35  1  0
 19 36  1  0
 22 37  1  0
 22 38  1  0
M  END
>  <UniqueID>  (11) 
11

>  <SMILES>  (11) 
Cn1ncc2c1CCN(Cc1nc(-c3cccnc3)no1)C2

>  <Energy>  (11) 
113.70875577250044

>  <Genealogy>  (11) 
Cn1ncc2c1CCN(Cc1nc(-c3cccnc3)no1)C2 (3D coordinates assigned)
Cn1ncc2c1CCN(Cc1nc(-c3cccnc3)no1)C2 (nonaromatic ring conformer: 113.70875577250044 kcal/mol)

>  <smiles>  (11) 
Cn1ncc2c1CCN(Cc1nc(-c3cccnc3)no1)C2

>  <score_type>  (11) 
oracle

>  <origin>  (11) 
adg

>  <m_score__min__energy>  (11) 
-8.1400000000000006

>  <m_primary>  (11) 
energy

$$$$
11:0
     RDKit          3D

 31 33  0  0  0  0  0  0  0  0999 V2000
   62.8300   34.1790   49.3110 C   0  0  0  0  0  0  0  0  0  0  0  0
   62.7830   33.5490   47.9860 N   0  0  0  0  0  0  0  0  0  0  0  0
   64.0370   33.1020   47.3680 C   0  0  0  0  0  0  0  0  0  0  0  0
   61.5160   33.3720   47.2970 C   0  0  0  0  0  0  0  0  0  0  0  0
   60.8230   34.4780   46.7680 C   0  0  0  0  0  0  0  0  0  0  0  0
   59.6060   34.3100   46.1050 C   0  0  0  0  0  0  0  0  0  0  0  0
   59.0510   33.0360   45.9540 C   0  0  0  0  0  0  0  0  0  0  0  0
   59.7290   31.9100   46.4770 C   0  0  0  0  0  0  0  0  0  0  0  0
   60.9520   32.0890   47.1430 C   0  0  0  0  0  0  0  0  0  0  0  0
   59.1650   30.5050   46.3430 C   0  0  0  0  0  0  0  0  0  0  0  0
   57.8920   30.4960   45.6240 N   0  0  0  0  0  0  0  0  0  0  0  0
   57.1140   29.4460   45.3200 C   0  0  0  0  0  0  0  0  0  0  0  0
   56.0210   29.9430   44.6390 C   0  0  0  0  0  0  0  0  0  0  0  0
   54.9670   29.1820   44.1410 O   0  0  0  0  0  0  0  0  0  0  0  0
   56.0960   31.2840   44.5100 N   0  0  0  0  0  0  0  0  0  0  0  0
   57.2600   31.5700   45.1310 C   0  0  0  0  0  0  0  0  0  0  0  0
   57.7990   32.8790   45.2690 N   0  0  0  0  0  0  0  0  0  0  0  0
   62.7721   33.4028   50.0883 H   0  0  0  0  0  0  0  0  0  0  0  0
   63.7722   34.7363   49.4188 H   0  0  0  0  0  0  0  0  0  0  0  0
   61.9809   34.8700   49.4188 H   0  0  0  0  0  0  0  0  0  0  0  0
   64.7616   32.8437   48.1543 H   0  0  0  0  0  0  0  0  0  0  0  0
   63.8430   32.2176   46.7433 H   0  0  0  0  0  0  0  0  0  0  0  0
   64.4462   33.9096   46.7433 H   0  0  0  0  0  0  0  0  0  0  0  0
   61.2461   35.4873   46.8787 H   0  0  0  0  0  0  0  0  0  0  0  0
   59.0801   35.1864   45.6985 H   0  0  0  0  0  0  0  0  0  0  0  0
   61.4788   31.2139   47.5513 H   0  0  0  0  0  0  0  0  0  0  0  0
   59.8875   29.8823   45.7951 H   0  0  0  0  0  0  0  0  0  0  0  0
   58.9887   30.1100   47.3544 H   0  0  0  0  0  0  0  0  0  0  0  0
   57.3095   28.3919   45.5661 H   0  0  0  0  0  0  0  0  0  0  0  0
   54.7670   28.2630   44.5160 H   0  0  0  0  0  0  0  0  0  0  0  0
   57.2880   33.7020   44.8770 H   0  0  0  0  0  0  0  0  0  0  0  0
  1  2  1  0
  2  3  1  0
  2  4  1  0
  4  5  2  0
  5  6  1  0
  6  7  2  0
  7  8  1  0
  8  9  2  0
  8 10  1  0
 10 11  1  0
 11 12  1  0
 12 13  2  0
 13 14  1  0
 13 15  1  0
 15 16  2  0
 16 17  1  0
  9  4  1  0
 16 11  1  0
 17  7  1  0
  1 18  1  0
  1 19  1  0
  1 20  1  0
  3 21  1  0
  3 22  1  0
  3 23  1  0
  5 24  1  0
  6 25  1  0
  9 26  1  0
 10 27  1  0
 10 28  1  0
 12 29  1  0
 14 30  1  0
 17 31  1  0
M  END
>  <UniqueID>  (12) 
12

>  <SMILES>  (12) 
CN(C)c1ccc2c(c1)Cn1cc(O)nc1N2

>  <Energy>  (12) 
66.69232524370601

>  <Genealogy>  (12) 
CN(C)c1ccc2c(c1)Cn1cc(O)nc1N2 (3D coordinates assigned)
CN(C)c1ccc2c(c1)Cn1cc(O)nc1N2 (nonaromatic ring conformer: 66.69232524370601 kcal/mol)

>  <smiles>  (12) 
CN(C)c1ccc2c(c1)Cn1cc(O)nc1N2

>  <score_type>  (12) 
oracle

>  <origin>  (12) 
adg

>  <m_score__min__energy>  (12) 
-6.3300000000000001

>  <m_primary>  (12) 
energy

$$$$
12:0
     RDKit          3D

 36 38  0  0  0  0  0  0  0  0999 V2000
   58.4880   34.4150   44.8930 C   0  0  0  0  0  0  0  0  0  0  0  0
   57.9460   33.4570   43.9900 O   0  0  0  0  0  0  0  0  0  0  0  0
   57.7680   32.0980   44.2890 C   0  0  0  0  0  0  0  0  0  0  0  0
   57.0520   31.2280   43.4450 C   0  0  0  0  0  0  0  0  0  0  0  0
   56.8990   29.8810   43.7820 C   0  0  0  0  0  0  0  0  0  0  0  0
   57.4560   29.3810   44.9680 C   0  0  0  0  0  0  0  0  0  0  0  0
   57.3070   28.0290   45.3160 C   0  0  0  0  0  0  0  0  0  0  0  0
   57.8680   27.5360   46.5070 C   0  0  0  0  0  0  0  0  0  0  0  0
   57.7390   26.1630   46.9000 N   0  0  0  0  0  0  0  0  0  0  0  0
   56.3580   25.1590   46.5950 S   0  0  0  0  0  0  0  0  0  0  0  0
   55.2530   26.0010   46.0220 O   0  0  0  0  0  0  0  0  0  0  0  0
   55.8880   24.5210   47.8720 O   0  0  0  0  0  0  0  0  0  0  0  0
   56.8140   23.8920   45.4500 C   0  0  0  0  0  0  0  0  0  0  0  0
   58.1600   23.5040   45.3480 C   0  0  0  0  0  0  0  0  0  0  0  0
   58.5430   22.5030   44.4520 C   0  0  0  0  0  0  0  0  0  0  0  0
   57.5870   21.8800   43.6490 C   0  0  0  0  0  0  0  0  0  0  0  0
   56.2460   22.2570   43.7410 C   0  0  0  0  0  0  0  0  0  0  0  0
   55.8500   23.2580   44.6360 C   0  0  0  0  0  0  0  0  0  0  0  0
   53.9870   23.7170   44.7020 Br  0  0  0  0  0  0  0  0  0  0  0  0
   58.5800   28.4050   47.3430 C   0  0  0  0  0  0  0  0  0  0  0  0
   58.7340   29.7510   47.0060 C   0  0  0  0  0  0  0  0  0  0  0  0
   58.1760   30.2500   45.8210 C   0  0  0  0  0  0  0  0  0  0  0  0
   58.3250   31.6010   45.4730 C   0  0  0  0  0  0  0  0  0  0  0  0
   58.3037   34.0892   45.9274 H   0  0  0  0  0  0  0  0  0  0  0  0
   59.5713   34.5057   44.7247 H   0  0  0  0  0  0  0  0  0  0  0  0
   58.0078   35.3902   44.7247 H   0  0  0  0  0  0  0  0  0  0  0  0
   56.6099   31.6116   42.5136 H   0  0  0  0  0  0  0  0  0  0  0  0
   56.3392   29.2096   43.1143 H   0  0  0  0  0  0  0  0  0  0  0  0
   56.7483   27.3519   44.6532 H   0  0  0  0  0  0  0  0  0  0  0  0
   58.9181   23.9919   45.9782 H   0  0  0  0  0  0  0  0  0  0  0  0
   59.5995   22.2056   44.3794 H   0  0  0  0  0  0  0  0  0  0  0  0
   57.8899   21.0921   42.9437 H   0  0  0  0  0  0  0  0  0  0  0  0
   55.4953   21.7641   43.1058 H   0  0  0  0  0  0  0  0  0  0  0  0
   59.0225   28.0231   48.2748 H   0  0  0  0  0  0  0  0  0  0  0  0
   59.2952   30.4222   47.6727 H   0  0  0  0  0  0  0  0  0  0  0  0
   58.8849   32.2760   46.1370 H   0  0  0  0  0  0  0  0  0  0  0  0
  1  2  1  0
  2  3  1  0
  3  4  2  0
  4  5  1  0
  5  6  2  0
  6  7  1  0
  7  8  2  0
  8  9  1  0
  9 10  1  0
 10 11  2  0
 10 12  2  0
 10 13  1  0
 13 14  2  0
 14 15  1  0
 15 16  2  0
 16 17  1  0
 17 18  2  0
 18 19  1  0
  8 20  1  0
 20 21  2  0
 21 22  1  0
 22 23  2  0
 23  3  1  0
 22  6  1  0
 18 13  1  0
  1 24  1  0
  1 25  1  0
  1 26  1  0
  4 27  1  0
  5 28  1  0
  7 29  1  0
 14 30  1  0
 15 31  1  0
 16 32  1  0
 17 33  1  0
 20 34  1  0
 21 35  1  0
 23 36  1  0
M  CHG  1   9  -1
M  END
>  <UniqueID>  (13) 
13

>  <SMILES>  (13) 
COc1ccc2cc([N-]S(=O)(=O)c3ccccc3Br)ccc2c1

>  <Energy>  (13) 
46.81048793156772

>  <Genealogy>  (13) 
COc1ccc2cc([N-]S(=O)(=O)c3ccccc3Br)ccc2c1 (protonated)
COc1ccc2cc([N-]S(=O)(=O)c3ccccc3Br)ccc2c1 (3D coordinates assigned)
COc1ccc2cc([N-]S(=O)(=O)c3ccccc3Br)ccc2c1 (optimized conformer: 46.81048793156772 kcal/mol)

>  <smiles>  (13) 
COc1ccc2cc(NS(=O)(=O)c3ccccc3Br)ccc2c1

>  <score_type>  (13) 
oracle

>  <origin>  (13) 
adg

>  <m_score__min__energy>  (13) 
-9.6500000000000004

>  <m_primary>  (13) 
energy

$$$$
13:0
     RDKit          3D

 37 39  0  0  0  0  0  0  0  0999 V2000
   56.7610   30.5030   42.6170 C   0  0  0  0  0  0  0  0  0  0  0  0
   57.5830   31.1980   43.6710 C   0  0  0  0  0  0  0  0  0  0  0  0
   57.7770   32.5860   43.5640 C   0  0  0  0  0  0  0  0  0  0  0  0
   58.4970   33.2810   44.5370 C   0  0  0  0  0  0  0  0  0  0  0  0
   59.0370   32.6000   45.6270 C   0  0  0  0  0  0  0  0  0  0  0  0
   58.8710   31.2190   45.7400 C   0  0  0  0  0  0  0  0  0  0  0  0
   58.1660   30.4970   44.7600 C   0  0  0  0  0  0  0  0  0  0  0  0
   58.0530   29.0300   44.9140 C   0  0  0  0  0  0  0  0  0  0  0  0
   59.0950   28.1090   44.8450 C   0  0  0  0  0  0  0  0  0  0  0  0
   58.6910   26.7920   45.0940 C   0  0  0  0  0  0  0  0  0  0  0  0
   57.3300   26.6700   45.3620 C   0  0  0  0  0  0  0  0  0  0  0  0
   56.6070   25.4350   45.7160 C   0  0  0  0  0  0  0  0  0  0  0  0
   55.8420   25.4470   46.7180 O   0  0  0  0  0  0  0  0  0  0  0  0
   56.7450   24.2250   44.9460 N   0  0  0  0  0  0  0  0  0  0  0  0
   56.8090   22.9210   45.6110 C   0  0  0  0  0  0  0  0  0  0  0  0
   55.9340   21.9180   44.8540 C   0  0  0  0  0  0  0  0  0  0  0  0
   56.2690   21.8970   43.4780 O   0  0  0  0  0  0  0  0  0  0  0  0
   55.9740   23.1500   42.8900 C   0  0  0  0  0  0  0  0  0  0  0  0
   56.8570   24.2510   43.4850 C   0  0  0  0  0  0  0  0  0  0  0  0
   56.6420   28.2050   45.3200 S   0  0  0  0  0  0  0  0  0  0  0  0
   56.0069   29.8654   43.1015 H   0  0  0  0  0  0  0  0  0  0  0  0
   56.2581   31.2539   41.9900 H   0  0  0  0  0  0  0  0  0  0  0  0
   57.4179   29.8822   41.9900 H   0  0  0  0  0  0  0  0  0  0  0  0
   57.3572   33.1299   42.7049 H   0  0  0  0  0  0  0  0  0  0  0  0
   58.6386   34.3678   44.4436 H   0  0  0  0  0  0  0  0  0  0  0  0
   59.5943   33.1516   46.3985 H   0  0  0  0  0  0  0  0  0  0  0  0
   59.2962   30.6891   46.6051 H   0  0  0  0  0  0  0  0  0  0  0  0
   60.1341   28.3889   44.6171 H   0  0  0  0  0  0  0  0  0  0  0  0
   59.3819   25.9362   45.0794 H   0  0  0  0  0  0  0  0  0  0  0  0
   57.8498   22.5652   45.6209 H   0  0  0  0  0  0  0  0  0  0  0  0
   56.4447   23.0183   46.6444 H   0  0  0  0  0  0  0  0  0  0  0  0
   56.0866   20.9144   45.2777 H   0  0  0  0  0  0  0  0  0  0  0  0
   54.8814   22.2206   44.9562 H   0  0  0  0  0  0  0  0  0  0  0  0
   56.1525   23.0908   41.8062 H   0  0  0  0  0  0  0  0  0  0  0  0
   54.9208   23.3950   43.0916 H   0  0  0  0  0  0  0  0  0  0  0  0
   57.9038   24.0801   43.1936 H   0  0  0  0  0  0  0  0  0  0  0  0
   56.5288   25.2308   43.1076 H   0  0  0  0  0  0  0  0  0  0  0  0
  1  2  1  0
  2  3  2  0
  3  4  1  0
  4  5  2  0
  5  6  1  0
  6  7  2  0
  7  8  1  0
  8  9  2  0
  9 10  1  0
 10 11  2  0
 11 12  1  0
 12 13  2  0
 12 14  1  0
 14 15  1  0
 15 16  1  0
 16 17  1  0
 17 18  1  0
 18 19  1  0
 11 20  1  0
  7  2  1  0
 20  8  1  0
 19 14  1  0
  1 21  1  0
  1 22  1  0
  1 23  1  0
  3 24  1  0
  4 25  1  0
  5 26  1  0
  6 27  1  0
  9 28  1  0
 10 29  1  0
 15 30  1  0
 15 31  1  0
 16 32  1  0
 16 33  1  0
 18 34  1  0
 18 35  1  0
 19 36  1  0
 19 37  1  0
M  END
>  <UniqueID>  (14) 
14

>  <SMILES>  (14) 
Cc1ccccc1-c1ccc(C(=O)N2CCOCC2)s1

>  <Energy>  (14) 
75.41337958140912

>  <Genealogy>  (14) 
Cc1ccccc1-c1ccc(C(=O)N2CCOCC2)s1 (3D coordinates assigned)
Cc1ccccc1-c1ccc(C(=O)N2CCOCC2)s1 (nonaromatic ring conformer: 75.41337958140912 kcal/mol)

>  <smiles>  (14) 
Cc1ccccc1-c1ccc(C(=O)N2CCOCC2)s1

>  <score_type>  (14) 
oracle

>  <origin>  (14) 
adg

>  <m_score__min__energy>  (14) 
-7.5800000000000001

>  <m_primary>  (14) 
energy

$$$$
14:0
     RDKit          3D

 26 27  0  0  0  0  0  0  0  0999 V2000
   57.8230   32.2950   43.7470 C   0  0  0  0  0  0  0  0  0  0  0  0
   57.0830   31.5650   44.7200 O   0  0  0  0  0  0  0  0  0  0  0  0
   57.4180   30.2810   45.1860 C   0  0  0  0  0  0  0  0  0  0  0  0
   58.7030   29.9910   45.6690 C   0  0  0  0  0  0  0  0  0  0  0  0
   59.0220   28.7100   46.1340 C   0  0  0  0  0  0  0  0  0  0  0  0
   60.2810   28.4480   46.5950 N   0  0  0  0  0  0  0  0  0  0  0  0
   60.6380   27.2110   47.0300 C   0  0  0  0  0  0  0  0  0  0  0  0
   59.7180   26.1670   47.0050 C   0  0  0  0  0  0  0  0  0  0  0  0
   58.4240   26.4000   46.5420 C   0  0  0  0  0  0  0  0  0  0  0  0
   58.0430   27.6870   46.1110 C   0  0  0  0  0  0  0  0  0  0  0  0
   56.7390   27.9720   45.6330 C   0  0  0  0  0  0  0  0  0  0  0  0
   55.7340   26.9460   45.5960 N   0  0  0  0  0  0  0  0  0  0  0  0
   56.4310   29.2770   45.1760 C   0  0  0  0  0  0  0  0  0  0  0  0
   55.1020   29.6090   44.7400 N   0  0  0  0  0  0  0  0  0  0  0  0
   58.5181   32.9807   44.2536 H   0  0  0  0  0  0  0  0  0  0  0  0
   58.3920   31.5947   43.1179 H   0  0  0  0  0  0  0  0  0  0  0  0
   57.1306   32.8735   43.1179 H   0  0  0  0  0  0  0  0  0  0  0  0
   59.4692   30.7802   45.6824 H   0  0  0  0  0  0  0  0  0  0  0  0
   61.0020   29.2050   46.6170 H   0  0  0  0  0  0  0  0  0  0  0  0
   61.6576   27.0343   47.4031 H   0  0  0  0  0  0  0  0  0  0  0  0
   60.0103   25.1638   47.3486 H   0  0  0  0  0  0  0  0  0  0  0  0
   57.6965   25.5755   46.5128 H   0  0  0  0  0  0  0  0  0  0  0  0
   55.9200   26.0230   45.1450 H   0  0  0  0  0  0  0  0  0  0  0  0
   54.7850   27.0940   46.0000 H   0  0  0  0  0  0  0  0  0  0  0  0
   54.3930   28.8780   44.5160 H   0  0  0  0  0  0  0  0  0  0  0  0
   54.7710   30.5980   44.7150 H   0  0  0  0  0  0  0  0  0  0  0  0
  1  2  1  0
  2  3  1  0
  3  4  2  0
  4  5  1  0
  5  6  2  0
  6  7  1  0
  7  8  2  0
  8  9  1  0
  9 10  2  0
 10 11  1  0
 11 12  1  0
 11 13  2  0
 13 14  1  0
 13  3  1  0
 10  5  1  0
  1 15  1  0
  1 16  1  0
  1 17  1  0
  4 18  1  0
  6 19  1  0
  7 20  1  0
  8 21  1  0
  9 22  1  0
 12 23  1  0
 12 24  1  0
 14 25  1  0
 14 26  1  0
M  CHG  1   6   1
M  END
>  <UniqueID>  (15) 
15

>  <SMILES>  (15) 
COc1cc2[nH+]cccc2c(N)c1N

>  <Energy>  (15) 
35.59953014193165

>  <Genealogy>  (15) 
COc1cc2[nH+]cccc2c(N)c1N (protonated)
COc1cc2[nH+]cccc2c(N)c1N (3D coordinates assigned)
COc1cc2[nH+]cccc2c(N)c1N (optimized conformer: 35.59953014193165 kcal/mol)

>  <smiles>  (15) 
COc1cc2ncccc2c(N)c1N

>  <score_type>  (15) 
oracle

>  <origin>  (15) 
adg

>  <m_score__min__energy>  (15) 
-4.2599999999999998

>  <m_primary>  (15) 
energy

$$$$
15:0
     RDKit          3D

 58 62  0  0  0  0  0  0  0  0999 V2000
   64.0130   33.6490   50.9250 C   0  0  0  0  0  0  0  0  0  0  0  0
   63.4500   34.5670   49.9940 O   0  0  0  0  0  0  0  0  0  0  0  0
   62.4940   34.2270   49.0260 C   0  0  0  0  0  0  0  0  0  0  0  0
   61.1410   34.2740   49.3810 C   0  0  0  0  0  0  0  0  0  0  0  0
   60.1500   33.9540   48.4490 C   0  0  0  0  0  0  0  0  0  0  0  0
   60.5020   33.6090   47.1370 C   0  0  0  0  0  0  0  0  0  0  0  0
   59.4590   33.2720   46.1540 C   0  0  0  0  0  0  0  0  0  0  0  0
   59.0870   34.1860   45.1660 C   0  0  0  0  0  0  0  0  0  0  0  0
   57.9900   33.4540   44.1190 S   0  0  0  0  0  0  0  0  0  0  0  0
   57.9660   31.9790   44.9210 C   0  0  0  0  0  0  0  0  0  0  0  0
   57.2410   30.8350   44.6010 C   0  0  0  0  0  0  0  0  0  0  0  0
   56.3440   30.7730   43.4050 C   0  0  0  0  0  0  0  0  0  0  0  0
   57.3590   29.7600   45.4250 N   0  0  0  0  0  0  0  0  0  0  0  0
   58.1380   29.7810   46.5120 N   0  0  0  0  0  0  0  0  0  0  0  0
   58.8700   30.8840   46.8600 C   0  0  0  0  0  0  0  0  0  0  0  0
   59.5920   30.8830   48.1030 N   0  0  0  0  0  0  0  0  0  0  0  0
   61.0040   30.4650   48.1110 C   0  0  0  0  0  0  0  0  0  0  0  0
   61.5100   30.2270   49.5370 C   0  0  0  0  0  0  0  0  0  0  0  0
   60.5310   29.4270   50.2820 N   0  0  0  0  0  0  0  0  0  0  0  0
   60.9800   28.3860   51.1590 C   0  0  0  0  0  0  0  0  0  0  0  0
   61.3030   28.6980   52.4870 C   0  0  0  0  0  0  0  0  0  0  0  0
   61.7590   27.7030   53.3550 C   0  0  0  0  0  0  0  0  0  0  0  0
   61.8980   26.3900   52.9010 C   0  0  0  0  0  0  0  0  0  0  0  0
   61.5760   26.0660   51.5810 C   0  0  0  0  0  0  0  0  0  0  0  0
   61.1010   27.0540   50.7010 C   0  0  0  0  0  0  0  0  0  0  0  0
   60.7690   26.6900   49.2810 C   0  0  0  0  0  0  0  0  0  0  0  0
   59.0990   29.7470   50.2240 C   0  0  0  0  0  0  0  0  0  0  0  0
   58.8470   30.9880   49.3650 C   0  0  0  0  0  0  0  0  0  0  0  0
   58.8020   32.0230   46.0280 C   0  0  0  0  0  0  0  0  0  0  0  0
   61.8560   33.5220   46.7860 C   0  0  0  0  0  0  0  0  0  0  0  0
   62.8480   33.8380   47.7200 C   0  0  0  0  0  0  0  0  0  0  0  0
   63.8034   33.9907   51.9493 H   0  0  0  0  0  0  0  0  0  0  0  0
   63.5697   32.6539   50.7725 H   0  0  0  0  0  0  0  0  0  0  0  0
   65.1009   33.5930   50.7725 H   0  0  0  0  0  0  0  0  0  0  0  0
   60.8551   34.5653   50.4025 H   0  0  0  0  0  0  0  0  0  0  0  0
   59.0910   33.9729   48.7459 H   0  0  0  0  0  0  0  0  0  0  0  0
   59.4526   35.2203   45.0846 H   0  0  0  0  0  0  0  0  0  0  0  0
   55.2972   30.7006   43.7351 H   0  0  0  0  0  0  0  0  0  0  0  0
   56.4758   31.6824   42.8003 H   0  0  0  0  0  0  0  0  0  0  0  0
   56.5996   29.8904   42.8003 H   0  0  0  0  0  0  0  0  0  0  0  0
   58.1520   28.9370   47.1270 H   0  0  0  0  0  0  0  0  0  0  0  0
   61.1042   29.5328   47.5357 H   0  0  0  0  0  0  0  0  0  0  0  0
   61.6049   31.2689   47.6609 H   0  0  0  0  0  0  0  0  0  0  0  0
   62.4690   29.6895   49.4998 H   0  0  0  0  0  0  0  0  0  0  0  0
   61.6485   31.1950   50.0408 H   0  0  0  0  0  0  0  0  0  0  0  0
   61.1968   29.7318   52.8474 H   0  0  0  0  0  0  0  0  0  0  0  0
   62.0086   27.9540   54.3965 H   0  0  0  0  0  0  0  0  0  0  0  0
   62.2620   25.6088   53.5845 H   0  0  0  0  0  0  0  0  0  0  0  0
   61.6949   25.0311   51.2278 H   0  0  0  0  0  0  0  0  0  0  0  0
   60.0277   25.8773   49.2745 H   0  0  0  0  0  0  0  0  0  0  0  0
   60.3546   27.5684   48.7646 H   0  0  0  0  0  0  0  0  0  0  0  0
   61.6817   26.3579   48.7646 H   0  0  0  0  0  0  0  0  0  0  0  0
   58.5573   28.8936   49.7902 H   0  0  0  0  0  0  0  0  0  0  0  0
   58.7445   29.9507   51.2452 H   0  0  0  0  0  0  0  0  0  0  0  0
   57.7717   31.0690   49.1480 H   0  0  0  0  0  0  0  0  0  0  0  0
   59.1847   31.8810   49.9114 H   0  0  0  0  0  0  0  0  0  0  0  0
   62.1397   33.2039   45.7719 H   0  0  0  0  0  0  0  0  0  0  0  0
   63.9085   33.7824   47.4332 H   0  0  0  0  0  0  0  0  0  0  0  0
  1  2  1  0
  2  3  1  0
  3  4  2  0
  4  5  1  0
  5  6  2  0
  6  7  1  0
  7  8  2  0
  8  9  1  0
  9 10  1  0
 10 11  2  0
 11 12  1  0
 11 13  1  0
 13 14  2  0
 14 15  1  0
 15 16  1  0
 16 17  1  0
 17 18  1  0
 18 19  1  0
 19 20  1  0
 20 21  2  0
 21 22  1  0
 22 23  2  0
 23 24  1  0
 24 25  2  0
 25 26  1  0
 19 27  1  0
 27 28  1  0
 15 29  2  0
  6 30  1  0
 30 31  2  0
 31  3  1  0
 29  7  1  0
 29 10  1  0
 28 16  1  0
 25 20  1  0
  1 32  1  0
  1 33  1  0
  1 34  1  0
  4 35  1  0
  5 36  1  0
  8 37  1  0
 12 38  1  0
 12 39  1  0
 12 40  1  0
 14 41  1  0
 17 42  1  0
 17 43  1  0
 18 44  1  0
 18 45  1  0
 21 46  1  0
 22 47  1  0
 23 48  1  0
 24 49  1  0
 26 50  1  0
 26 51  1  0
 26 52  1  0
 27 53  1  0
 27 54  1  0
 28 55  1  0
 28 56  1  0
 30 57  1  0
 31 58  1  0
M  CHG  1  14   1
M  END
>  <UniqueID>  (16) 
16

>  <SMILES>  (16) 
COc1ccc(-c2csc3c(C)n[nH+]c(N4CCN(c5ccccc5C)CC4)c23)cc1

>  <Energy>  (16) 
110.11473186902147

>  <Genealogy>  (16) 
COc1ccc(-c2csc3c(C)n[nH+]c(N4CCN(c5ccccc5C)CC4)c23)cc1 (protonated)
COc1ccc(-c2csc3c(C)n[nH+]c(N4CCN(c5ccccc5C)CC4)c23)cc1 (3D coordinates assigned)
COc1ccc(-c2csc3c(C)n[nH+]c(N4CCN(c5ccccc5C)CC4)c23)cc1 (nonaromatic ring conformer: 110.11473186902147 kcal/mol)

>  <smiles>  (16) 
COc1ccc(-c2csc3c(C)nnc(N4CCN(c5ccccc5C)CC4)c23)cc1

>  <score_type>  (16) 
oracle

>  <origin>  (16) 
adg

>  <m_score__min__energy>  (16) 
-6.3700000000000001

>  <m_primary>  (16) 
energy

$$$$
16:0
     RDKit          3D

 86 90  0  0  0  0  0  0  0  0999 V2000
   65.5440   31.1810   50.8790 C   0  0  0  0  0  0  0  0  0  0  0  0
   66.0210   32.3550   50.1260 N   0  0  0  0  0  0  0  0  0  0  0  0
   67.4300   32.6190   50.4670 C   0  0  0  0  0  0  0  0  0  0  0  0
   65.1790   33.5410   50.4060 C   0  0  0  0  0  0  0  0  0  0  0  0
   63.8130   33.1060   50.9590 C   0  0  0  0  0  0  0  0  0  0  0  0
   62.8030   34.1890   50.8610 N   0  0  0  0  0  0  0  0  0  0  0  0
   61.6230   33.8300   51.6700 C   0  0  0  0  0  0  0  0  0  0  0  0
   62.3830   34.4550   49.4620 C   0  0  0  0  0  0  0  0  0  0  0  0
   61.8460   33.2080   48.8000 C   0  0  0  0  0  0  0  0  0  0  0  0
   60.4820   32.8940   48.9320 C   0  0  0  0  0  0  0  0  0  0  0  0
   59.9550   31.7400   48.3500 C   0  0  0  0  0  0  0  0  0  0  0  0
   60.7760   30.8760   47.6090 C   0  0  0  0  0  0  0  0  0  0  0  0
   60.2200   29.6450   46.9920 C   0  0  0  0  0  0  0  0  0  0  0  0
   59.6150   28.6580   47.7900 C   0  0  0  0  0  0  0  0  0  0  0  0
   59.1070   27.4920   47.2140 C   0  0  0  0  0  0  0  0  0  0  0  0
   59.1990   27.2800   45.8270 C   0  0  0  0  0  0  0  0  0  0  0  0
   58.6880   26.0230   45.2230 C   0  0  0  0  0  0  0  0  0  0  0  0
   57.8880   26.0650   44.0670 C   0  0  0  0  0  0  0  0  0  0  0  0
   57.3710   24.8890   43.5190 C   0  0  0  0  0  0  0  0  0  0  0  0
   57.6420   23.6470   44.1160 C   0  0  0  0  0  0  0  0  0  0  0  0
   57.0490   22.3810   43.5420 C   0  0  0  0  0  0  0  0  0  0  0  0
   55.5770   22.3850   43.5660 N   0  0  0  0  0  0  0  0  0  0  0  0
   55.0190   22.5850   44.9110 C   0  0  0  0  0  0  0  0  0  0  0  0
   54.0140   23.7460   44.8980 C   0  0  0  0  0  0  0  0  0  0  0  0
   54.5600   25.0000   45.5980 C   0  0  0  0  0  0  0  0  0  0  0  0
   55.6650   24.6800   46.5010 N   0  0  0  0  0  0  0  0  0  0  0  0
   55.6100   23.7090   47.5620 C   0  0  0  0  0  0  0  0  0  0  0  0
   56.7700   23.1420   48.1160 C   0  0  0  0  0  0  0  0  0  0  0  0
   56.6620   22.1930   49.1380 C   0  0  0  0  0  0  0  0  0  0  0  0
   57.7090   21.6890   49.6260 O   0  0  0  0  0  0  0  0  0  0  0  0
   55.3930   21.8100   49.6040 C   0  0  0  0  0  0  0  0  0  0  0  0
   55.2280   20.8570   50.6280 C   0  0  0  0  0  0  0  0  0  0  0  0
   53.9450   20.5020   51.0540 C   0  0  0  0  0  0  0  0  0  0  0  0
   52.8200   21.0910   50.4690 C   0  0  0  0  0  0  0  0  0  0  0  0
   52.9710   22.0380   49.4530 C   0  0  0  0  0  0  0  0  0  0  0  0
   54.2500   22.4000   49.0170 C   0  0  0  0  0  0  0  0  0  0  0  0
   54.3920   23.3180   48.0260 N   0  0  0  0  0  0  0  0  0  0  0  0
   58.4590   23.5960   45.2570 C   0  0  0  0  0  0  0  0  0  0  0  0
   58.9780   24.7750   45.8060 C   0  0  0  0  0  0  0  0  0  0  0  0
   59.7960   28.2680   45.0280 C   0  0  0  0  0  0  0  0  0  0  0  0
   60.2970   29.4400   45.6030 C   0  0  0  0  0  0  0  0  0  0  0  0
   62.1360   31.1980   47.4550 C   0  0  0  0  0  0  0  0  0  0  0  0
   62.6720   32.3570   48.0270 C   0  0  0  0  0  0  0  0  0  0  0  0
   64.0210   32.6370   47.7970 O   0  0  0  0  0  0  0  0  0  0  0  0
   65.6248   31.3798   51.9579 H   0  0  0  0  0  0  0  0  0  0  0  0
   64.4935   30.9816   50.6205 H   0  0  0  0  0  0  0  0  0  0  0  0
   66.1577   30.3055   50.6205 H   0  0  0  0  0  0  0  0  0  0  0  0
   67.5447   32.6405   51.5608 H   0  0  0  0  0  0  0  0  0  0  0  0
   68.0640   31.8240   50.0474 H   0  0  0  0  0  0  0  0  0  0  0  0
   67.7332   33.5896   50.0474 H   0  0  0  0  0  0  0  0  0  0  0  0
   65.6843   34.1782   51.1468 H   0  0  0  0  0  0  0  0  0  0  0  0
   65.0253   34.0998   49.4710 H   0  0  0  0  0  0  0  0  0  0  0  0
   63.4583   32.2367   50.3858 H   0  0  0  0  0  0  0  0  0  0  0  0
   63.9410   32.8560   52.0225 H   0  0  0  0  0  0  0  0  0  0  0  0
   61.8739   33.9063   52.7383 H   0  0  0  0  0  0  0  0  0  0  0  0
   60.7962   34.5172   51.4375 H   0  0  0  0  0  0  0  0  0  0  0  0
   61.3190   32.7987   51.4375 H   0  0  0  0  0  0  0  0  0  0  0  0
   61.5975   35.2251   49.4646 H   0  0  0  0  0  0  0  0  0  0  0  0
   63.2625   34.7956   48.8959 H   0  0  0  0  0  0  0  0  0  0  0  0
   59.8222   33.5658   49.5007 H   0  0  0  0  0  0  0  0  0  0  0  0
   58.8873   31.5058   48.4731 H   0  0  0  0  0  0  0  0  0  0  0  0
   59.5413   28.8058   48.8775 H   0  0  0  0  0  0  0  0  0  0  0  0
   58.6305   26.7323   47.8510 H   0  0  0  0  0  0  0  0  0  0  0  0
   57.6678   27.0318   43.5907 H   0  0  0  0  0  0  0  0  0  0  0  0
   56.7475   24.9359   42.6140 H   0  0  0  0  0  0  0  0  0  0  0  0
   57.3843   22.2758   42.4996 H   0  0  0  0  0  0  0  0  0  0  0  0
   57.3905   21.5407   44.1642 H   0  0  0  0  0  0  0  0  0  0  0  0
   55.2240   23.1390   42.9300 H   0  0  0  0  0  0  0  0  0  0  0  0
   54.5086   21.6655   45.2336 H   0  0  0  0  0  0  0  0  0  0  0  0
   55.8359   22.8237   45.6079 H   0  0  0  0  0  0  0  0  0  0  0  0
   53.7790   23.9984   43.8534 H   0  0  0  0  0  0  0  0  0  0  0  0
   53.1171   23.4198   45.4449 H   0  0  0  0  0  0  0  0  0  0  0  0
   54.9172   25.7069   44.8346 H   0  0  0  0  0  0  0  0  0  0  0  0
   53.7472   25.4399   46.1946 H   0  0  0  0  0  0  0  0  0  0  0  0
   56.5710   25.1840   46.3520 H   0  0  0  0  0  0  0  0  0  0  0  0
   57.7613   23.4438   47.7468 H   0  0  0  0  0  0  0  0  0  0  0  0
   56.1097   20.3917   51.0929 H   0  0  0  0  0  0  0  0  0  0  0  0
   53.8199   19.7562   51.8528 H   0  0  0  0  0  0  0  0  0  0  0  0
   51.8131   20.8080   50.8097 H   0  0  0  0  0  0  0  0  0  0  0  0
   52.0834   22.4994   48.9955 H   0  0  0  0  0  0  0  0  0  0  0  0
   58.6921   22.6264   45.7212 H   0  0  0  0  0  0  0  0  0  0  0  0
   59.6173   24.7255   46.6998 H   0  0  0  0  0  0  0  0  0  0  0  0
   59.8703   28.1189   43.9407 H   0  0  0  0  0  0  0  0  0  0  0  0
   60.7554   30.2084   44.9631 H   0  0  0  0  0  0  0  0  0  0  0  0
   62.7887   30.5283   46.8758 H   0  0  0  0  0  0  0  0  0  0  0  0
   64.7710   32.2350   48.3410 H   0  0  0  0  0  0  0  0  0  0  0  0
  1  2  1  0
  2  3  1  0
  2  4  1  0
  4  5  1  0
  5  6  1  0
  6  7  1  0
  6  8  1  0
  8  9  1  0
  9 10  2  0
 10 11  1  0
 11 12  2  0
 12 13  1  0
 13 14  2  0
 14 15  1  0
 15 16  2  0
 16 17  1  0
 17 18  2  0
 18 19  1  0
 19 20  2  0
 20 21  1  0
 21 22  1  0
 22 23  1  0
 23 24  1  0
 24 25  1  0
 25 26  1  0
 26 27  1  0
 27 28  2  0
 28 29  1  0
 29 30  2  0
 29 31  1  0
 31 32  2  0
 32 33  1  0
 33 34  2  0
 34 35  1  0
 35 36  2  0
 36 37  1  0
 20 38  1  0
 38 39  2  0
 16 40  1  0
 40 41  2  0
 12 42  1  0
 42 43  2  0
 43 44  1  0
 43  9  1  0
 41 13  1  0
 39 17  1  0
 37 27  1  0
 36 31  1  0
  1 45  1  0
  1 46  1  0
  1 47  1  0
  3 48  1  0
  3 49  1  0
  3 50  1  0
  4 51  1  0
  4 52  1  0
  5 53  1  0
  5 54  1  0
  7 55  1  0
  7 56  1  0
  7 57  1  0
  8 58  1  0
  8 59  1  0
 10 60  1  0
 11 61  1  0
 14 62  1  0
 15 63  1  0
 18 64  1  0
 19 65  1  0
 21 66  1  0
 21 67  1  0
 22 68  1  0
 23 69  1  0
 23 70  1  0
 24 71  1  0
 24 72  1  0
 25 73  1  0
 25 74  1  0
 26 75  1  0
 28 76  1  0
 32 77  1  0
 33 78  1  0
 34 79  1  0
 35 80  1  0
 38 81  1  0
 39 82  1  0
 40 83  1  0
 41 84  1  0
 42 85  1  0
 44 86  1  0
M  CHG  1  37  -1
M  END
>  <UniqueID>  (17) 
17

>  <SMILES>  (17) 
CN(C)CCN(C)Cc1ccc(-c2ccc(-c3ccc(CNCCCNc4cc(=O)c5ccccc5[n-]4)cc3)cc2)cc1O

>  <Energy>  (17) 
107.10711370250078

>  <Genealogy>  (17) 
CN(C)CCN(C)Cc1ccc(-c2ccc(-c3ccc(CNCCCNc4cc(=O)c5ccccc5[n-]4)cc3)cc2)cc1O (protonated)
CN(C)CCN(C)Cc1ccc(-c2ccc(-c3ccc(CNCCCNc4cc(=O)c5ccccc5[n-]4)cc3)cc2)cc1O (3D coordinates assigned)
CN(C)CCN(C)Cc1ccc(-c2ccc(-c3ccc(CNCCCNc4cc(=O)c5ccccc5[n-]4)cc3)cc2)cc1O (optimized conformer: 107.10711370250078 kcal/mol)

>  <smiles>  (17) 
CN(C)CCN(C)Cc1ccc(-c2ccc(-c3ccc(CNCCCNc4cc(=O)c5ccccc5[nH]4)cc3)cc2)cc1O

>  <score_type>  (17) 
oracle

>  <origin>  (17) 
adg

>  <m_score__min__energy>  (17) 
-11.199999999999999

>  <m_primary>  (17) 
energy

$$$$
17:0
     RDKit          3D

 31 32  0  0  0  0  0  0  0  0999 V2000
   65.2940   32.3900   50.0670 C   0  0  0  0  0  0  0  0  0  0  0  0
   64.5130   33.5580   49.8340 O   0  0  0  0  0  0  0  0  0  0  0  0
   63.3940   33.6060   48.9900 C   0  0  0  0  0  0  0  0  0  0  0  0
   62.0900   33.8150   49.4760 C   0  0  0  0  0  0  0  0  0  0  0  0
   61.0050   33.8520   48.5950 C   0  0  0  0  0  0  0  0  0  0  0  0
   61.2030   33.6790   47.2150 C   0  0  0  0  0  0  0  0  0  0  0  0
   60.0920   33.7280   46.2980 N   0  0  0  0  0  0  0  0  0  0  0  0
   59.6230   32.6390   45.6860 N   0  0  0  0  0  0  0  0  0  0  0  0
   58.5710   32.8850   44.8650 C   0  0  0  0  0  0  0  0  0  0  0  0
   57.8960   31.8760   44.0870 N   0  0  0  0  0  0  0  0  0  0  0  0
   57.7560   32.0370   42.6370 C   0  0  0  0  0  0  0  0  0  0  0  0
   57.3550   30.6880   44.7540 C   0  0  0  0  0  0  0  0  0  0  0  0
   58.1670   34.5290   44.8800 S   0  0  0  0  0  0  0  0  0  0  0  0
   59.4030   34.8510   45.9740 C   0  0  0  0  0  0  0  0  0  0  0  0
   59.6400   35.9900   46.4550 O   0  0  0  0  0  0  0  0  0  0  0  0
   62.5060   33.4790   46.7320 C   0  0  0  0  0  0  0  0  0  0  0  0
   63.5890   33.4400   47.6150 C   0  0  0  0  0  0  0  0  0  0  0  0
   65.4008   32.2303   51.1501 H   0  0  0  0  0  0  0  0  0  0  0  0
   64.7956   31.5195   49.6154 H   0  0  0  0  0  0  0  0  0  0  0  0
   66.2888   32.5180   49.6154 H   0  0  0  0  0  0  0  0  0  0  0  0
   61.9234   33.9500   50.5549 H   0  0  0  0  0  0  0  0  0  0  0  0
   59.9898   34.0176   48.9849 H   0  0  0  0  0  0  0  0  0  0  0  0
   60.0480   31.6940   45.8170 H   0  0  0  0  0  0  0  0  0  0  0  0
   57.0477   32.8515   42.4252 H   0  0  0  0  0  0  0  0  0  0  0  0
   58.7354   32.2795   42.1988 H   0  0  0  0  0  0  0  0  0  0  0  0
   57.3799   31.1008   42.1988 H   0  0  0  0  0  0  0  0  0  0  0  0
   57.4152   30.8203   45.8444 H   0  0  0  0  0  0  0  0  0  0  0  0
   56.3045   30.5483   44.4591 H   0  0  0  0  0  0  0  0  0  0  0  0
   57.9393   29.8039   44.4591 H   0  0  0  0  0  0  0  0  0  0  0  0
   62.6757   33.3523   45.6526 H   0  0  0  0  0  0  0  0  0  0  0  0
   64.6044   33.2772   47.2246 H   0  0  0  0  0  0  0  0  0  0  0  0
  1  2  1  0
  2  3  1  0
  3  4  2  0
  4  5  1  0
  5  6  2  0
  6  7  1  0
  7  8  1  0
  8  9  2  0
  9 10  1  0
 10 11  1  0
 10 12  1  0
  9 13  1  0
 13 14  1  0
 14 15  2  0
  6 16  1  0
 16 17  2  0
 17  3  1  0
 14  7  1  0
  1 18  1  0
  1 19  1  0
  1 20  1  0
  4 21  1  0
  5 22  1  0
  8 23  1  0
 11 24  1  0
 11 25  1  0
 11 26  1  0
 12 27  1  0
 12 28  1  0
 12 29  1  0
 16 30  1  0
 17 31  1  0
M  CHG  1   8   1
M  END
>  <UniqueID>  (18) 
18

>  <SMILES>  (18) 
COc1ccc(-n2[nH+]c(N(C)C)sc2=O)cc1

>  <Energy>  (18) 
67.84334808028453

>  <Genealogy>  (18) 
COc1ccc(-n2[nH+]c(N(C)C)sc2=O)cc1 (protonated)
COc1ccc(-n2[nH+]c(N(C)C)sc2=O)cc1 (3D coordinates assigned)
COc1ccc(-n2[nH+]c(N(C)C)sc2=O)cc1 (optimized conformer: 67.84334808028453 kcal/mol)

>  <smiles>  (18) 
COc1ccc(-n2nc(N(C)C)sc2=O)cc1

>  <score_type>  (18) 
oracle

>  <origin>  (18) 
adg

>  <m_score__min__energy>  (18) 
-4.0199999999999996

>  <m_primary>  (18) 
energy

$$$$
18:0
     RDKit          3D

 45 46  0  0  0  0  0  0  0  0999 V2000
   56.3160   29.8750   42.6210 C   0  0  0  0  0  0  0  0  0  0  0  0
   57.0040   31.1510   42.8380 N   0  0  0  0  0  0  0  0  0  0  0  0
   57.4160   31.9670   41.6900 C   0  0  0  0  0  0  0  0  0  0  0  0
   57.2240   31.6030   44.1930 C   0  0  0  0  0  0  0  0  0  0  0  0
   56.6500   31.0120   45.1470 O   0  0  0  0  0  0  0  0  0  0  0  0
   58.1620   32.7410   44.5160 C   0  0  0  0  0  0  0  0  0  0  0  0
   58.0870   33.1460   46.0070 C   0  0  2  0  0  0  0  0  0  0  0  0
   58.8610   34.4490   46.3310 C   0  0  0  0  0  0  0  0  0  0  0  0
   60.1640   34.2210   47.0610 C   0  0  0  0  0  0  0  0  0  0  0  0
   60.2320   34.3890   48.4560 C   0  0  0  0  0  0  0  0  0  0  0  0
   61.4300   34.1590   49.1380 C   0  0  0  0  0  0  0  0  0  0  0  0
   62.5720   33.7690   48.4350 C   0  0  0  0  0  0  0  0  0  0  0  0
   62.5180   33.6100   47.0480 C   0  0  0  0  0  0  0  0  0  0  0  0
   61.3210   33.8370   46.3610 C   0  0  0  0  0  0  0  0  0  0  0  0
   58.5260   32.0170   46.9130 C   0  0  0  0  0  0  0  0  0  0  0  0
   58.1550   31.9950   48.1190 O   0  0  0  0  0  0  0  0  0  0  0  0
   59.3460   30.9610   46.3860 N   0  0  0  0  0  0  0  0  0  0  0  0
   59.6370   29.7360   47.0810 C   0  0  0  0  0  0  0  0  0  0  0  0
   59.4580   28.4790   46.4710 C   0  0  0  0  0  0  0  0  0  0  0  0
   59.7760   27.3070   47.1640 C   0  0  0  0  0  0  0  0  0  0  0  0
   60.2850   27.3760   48.4630 C   0  0  0  0  0  0  0  0  0  0  0  0
   60.4860   28.6190   49.0690 C   0  0  0  0  0  0  0  0  0  0  0  0
   60.1710   29.7930   48.3790 C   0  0  0  0  0  0  0  0  0  0  0  0
   56.0710   29.4207   43.5924 H   0  0  0  0  0  0  0  0  0  0  0  0
   55.3898   30.0496   42.0539 H   0  0  0  0  0  0  0  0  0  0  0  0
   56.9709   29.1971   42.0539 H   0  0  0  0  0  0  0  0  0  0  0  0
   57.8846   32.8951   42.0492 H   0  0  0  0  0  0  0  0  0  0  0  0
   58.1379   31.4040   41.0801 H   0  0  0  0  0  0  0  0  0  0  0  0
   56.5344   32.2136   41.0801 H   0  0  0  0  0  0  0  0  0  0  0  0
   59.1912   32.4302   44.2834 H   0  0  0  0  0  0  0  0  0  0  0  0
   57.8636   33.6103   43.9116 H   0  0  0  0  0  0  0  0  0  0  0  0
   57.0258   33.3580   46.2044 H   0  0  0  0  0  0  0  0  0  0  0  0
   59.0797   34.9663   45.3852 H   0  0  0  0  0  0  0  0  0  0  0  0
   58.2203   35.0435   46.9989 H   0  0  0  0  0  0  0  0  0  0  0  0
   59.3371   34.7032   49.0132 H   0  0  0  0  0  0  0  0  0  0  0  0
   61.4735   34.2853   50.2299 H   0  0  0  0  0  0  0  0  0  0  0  0
   63.5139   33.5870   48.9733 H   0  0  0  0  0  0  0  0  0  0  0  0
   63.4189   33.3056   46.4950 H   0  0  0  0  0  0  0  0  0  0  0  0
   61.2848   33.7145   45.2684 H   0  0  0  0  0  0  0  0  0  0  0  0
   59.8230   31.1270   45.4710 H   0  0  0  0  0  0  0  0  0  0  0  0
   59.0663   28.4192   45.4449 H   0  0  0  0  0  0  0  0  0  0  0  0
   59.6250   26.3283   46.6851 H   0  0  0  0  0  0  0  0  0  0  0  0
   60.5275   26.4522   49.0087 H   0  0  0  0  0  0  0  0  0  0  0  0
   60.8924   28.6736   50.0897 H   0  0  0  0  0  0  0  0  0  0  0  0
   60.3426   30.7692   48.8561 H   0  0  0  0  0  0  0  0  0  0  0  0
  1  2  1  0
  2  3  1  0
  2  4  1  0
  4  5  2  0
  4  6  1  0
  6  7  1  0
  7  8  1  0
  8  9  1  0
  9 10  2  0
 10 11  1  0
 11 12  2  0
 12 13  1  0
 13 14  2  0
  7 15  1  0
 15 16  2  0
 15 17  1  0
 17 18  1  0
 18 19  2  0
 19 20  1  0
 20 21  2  0
 21 22  1  0
 22 23  2  0
 14  9  1  0
 23 18  1  0
  1 24  1  0
  1 25  1  0
  1 26  1  0
  3 27  1  0
  3 28  1  0
  3 29  1  0
  6 30  1  0
  6 31  1  0
  7 32  1  1
  8 33  1  0
  8 34  1  0
 10 35  1  0
 11 36  1  0
 12 37  1  0
 13 38  1  0
 14 39  1  0
 17 40  1  0
 19 41  1  0
 20 42  1  0
 21 43  1  0
 22 44  1  0
 23 45  1  0
M  END
>  <UniqueID>  (19) 
19

>  <SMILES>  (19) 
CN(C)C(=O)C[C@H](Cc1ccccc1)C(=O)Nc1ccccc1

>  <Energy>  (19) 
42.73341190406157

>  <Genealogy>  (19) 
CN(C)C(=O)C[C@H](Cc1ccccc1)C(=O)Nc1ccccc1 (chirality)
CN(C)C(=O)C[C@H](Cc1ccccc1)C(=O)Nc1ccccc1 (3D coordinates assigned)
CN(C)C(=O)C[C@H](Cc1ccccc1)C(=O)Nc1ccccc1 (optimized conformer: 42.73341190406157 kcal/mol)

>  <smiles>  (19) 
CN(C)C(=O)CC(Cc1ccccc1)C(=O)Nc1ccccc1

>  <score_type>  (19) 
oracle

>  <origin>  (19) 
adg

>  <m_score__min__energy>  (19) 
-7.4400000000000004

>  <m_primary>  (19) 
energy

$$$$
19:0
     RDKit          3D

 72 74  0  0  0  0  0  0  0  0999 V2000
   59.1240   22.1270   45.2610 C   0  0  0  0  0  0  0  0  0  0  0  0
   58.1430   23.0090   46.0340 C   0  0  0  0  0  0  0  0  0  0  0  0
   57.3810   22.2270   47.0380 N   0  0  0  0  0  0  0  0  0  0  0  0
   56.9510   23.0540   48.1950 C   0  0  0  0  0  0  0  0  0  0  0  0
   57.4150   24.5190   48.1410 C   0  0  0  0  0  0  0  0  0  0  0  0
   56.2520   21.4810   46.4310 C   0  0  0  0  0  0  0  0  0  0  0  0
   56.3300   19.9730   46.7370 C   0  0  0  0  0  0  0  0  0  0  0  0
   56.4560   19.1070   45.4690 C   0  0  0  0  0  0  0  0  0  0  0  0
   55.9450   19.8200   44.1910 C   0  0  0  0  0  0  0  0  0  0  0  0
   56.9860   20.7550   43.5610 C   0  0  0  0  0  0  0  0  0  0  0  0
   56.3790   21.7560   42.5720 C   0  0  0  0  0  0  0  0  0  0  0  0
   55.5210   22.6730   43.2550 O   0  0  0  0  0  0  0  0  0  0  0  0
   56.0020   23.8270   43.8780 C   0  0  0  0  0  0  0  0  0  0  0  0
   55.3560   24.3660   45.0010 C   0  0  0  0  0  0  0  0  0  0  0  0
   55.8510   25.5210   45.6120 C   0  0  0  0  0  0  0  0  0  0  0  0
   57.0060   26.1550   45.1070 C   0  0  0  0  0  0  0  0  0  0  0  0
   57.5590   27.3760   45.7440 C   0  0  0  0  0  0  0  0  0  0  0  0
   57.2070   28.6610   45.3050 C   0  0  0  0  0  0  0  0  0  0  0  0
   57.7670   29.7760   45.9300 C   0  0  0  0  0  0  0  0  0  0  0  0
   57.4550   30.9270   45.5180 O   0  0  0  0  0  0  0  0  0  0  0  0
   58.6760   29.5970   46.9930 C   0  0  0  0  0  0  0  0  0  0  0  0
   59.3010   30.6730   47.6640 C   0  0  0  0  0  0  0  0  0  0  0  0
   59.0410   31.9950   47.2840 O   0  0  0  0  0  0  0  0  0  0  0  0
   60.0290   32.7950   46.6390 C   0  0  0  0  0  0  0  0  0  0  0  0
   60.2010   30.4220   48.7170 C   0  0  0  0  0  0  0  0  0  0  0  0
   60.7820   31.5210   49.3670 O   0  0  0  0  0  0  0  0  0  0  0  0
   60.0640   32.3970   50.2330 C   0  0  0  0  0  0  0  0  0  0  0  0
   60.4760   29.0940   49.1140 C   0  0  0  0  0  0  0  0  0  0  0  0
   61.3210   28.8670   50.2130 O   0  0  0  0  0  0  0  0  0  0  0  0
   60.8880   28.7800   51.5660 C   0  0  0  0  0  0  0  0  0  0  0  0
   59.8700   28.0300   48.4240 C   0  0  0  0  0  0  0  0  0  0  0  0
   58.9810   28.2720   47.3780 C   0  0  0  0  0  0  0  0  0  0  0  0
   58.4240   27.2400   46.7470 O   0  0  0  0  0  0  0  0  0  0  0  0
   57.6410   25.6100   43.9740 C   0  0  0  0  0  0  0  0  0  0  0  0
   57.1310   24.4650   43.3570 C   0  0  0  0  0  0  0  0  0  0  0  0
   59.7491   21.5649   45.9704 H   0  0  0  0  0  0  0  0  0  0  0  0
   58.5638   21.4229   44.6282 H   0  0  0  0  0  0  0  0  0  0  0  0
   59.7648   22.7587   44.6282 H   0  0  0  0  0  0  0  0  0  0  0  0
   58.7053   23.8011   46.5501 H   0  0  0  0  0  0  0  0  0  0  0  0
   57.4278   23.4387   45.3172 H   0  0  0  0  0  0  0  0  0  0  0  0
   55.8518   23.0433   48.2350 H   0  0  0  0  0  0  0  0  0  0  0  0
   57.4189   22.6110   49.0865 H   0  0  0  0  0  0  0  0  0  0  0  0
   57.5366   24.9031   49.1646 H   0  0  0  0  0  0  0  0  0  0  0  0
   58.3764   24.5798   47.6099 H   0  0  0  0  0  0  0  0  0  0  0  0
   56.6639   25.1222   47.6099 H   0  0  0  0  0  0  0  0  0  0  0  0
   55.3074   21.8770   46.8321 H   0  0  0  0  0  0  0  0  0  0  0  0
   56.3046   21.6109   45.3400 H   0  0  0  0  0  0  0  0  0  0  0  0
   57.2070   19.7898   47.3752 H   0  0  0  0  0  0  0  0  0  0  0  0
   55.3920   19.6898   47.2369 H   0  0  0  0  0  0  0  0  0  0  0  0
   57.5156   18.8487   45.3256 H   0  0  0  0  0  0  0  0  0  0  0  0
   55.8305   18.2146   45.6184 H   0  0  0  0  0  0  0  0  0  0  0  0
   55.6695   19.0546   43.4505 H   0  0  0  0  0  0  0  0  0  0  0  0
   55.0854   20.4401   44.4852 H   0  0  0  0  0  0  0  0  0  0  0  0
   57.4837   21.3165   44.3654 H   0  0  0  0  0  0  0  0  0  0  0  0
   57.6915   20.1263   42.9979 H   0  0  0  0  0  0  0  0  0  0  0  0
   57.1882   22.3150   42.0794 H   0  0  0  0  0  0  0  0  0  0  0  0
   55.7899   21.2058   41.8236 H   0  0  0  0  0  0  0  0  0  0  0  0
   54.4559   23.8771   45.4021 H   0  0  0  0  0  0  0  0  0  0  0  0
   55.3378   25.9381   46.4910 H   0  0  0  0  0  0  0  0  0  0  0  0
   56.4959   28.7886   44.4755 H   0  0  0  0  0  0  0  0  0  0  0  0
   60.6478   33.2961   47.3980 H   0  0  0  0  0  0  0  0  0  0  0  0
   60.6660   32.1551   46.0107 H   0  0  0  0  0  0  0  0  0  0  0  0
   59.5356   33.5511   46.0107 H   0  0  0  0  0  0  0  0  0  0  0  0
   60.2787   32.1351   51.2796 H   0  0  0  0  0  0  0  0  0  0  0  0
   60.3743   33.4352   50.0438 H   0  0  0  0  0  0  0  0  0  0  0  0
   58.9851   32.2965   50.0438 H   0  0  0  0  0  0  0  0  0  0  0  0
   61.7430   28.9518   52.2364 H   0  0  0  0  0  0  0  0  0  0  0  0
   60.1162   29.5410   51.7537 H   0  0  0  0  0  0  0  0  0  0  0  0
   60.4701   27.7799   51.7537 H   0  0  0  0  0  0  0  0  0  0  0  0
   60.1000   26.9938   48.7129 H   0  0  0  0  0  0  0  0  0  0  0  0
   58.5455   26.0897   43.5718 H   0  0  0  0  0  0  0  0  0  0  0  0
   57.6202   24.0639   42.4571 H   0  0  0  0  0  0  0  0  0  0  0  0
  1  2  1  0
  2  3  1  0
  3  4  1  0
  4  5  1  0
  3  6  1  0
  6  7  1  0
  7  8  1  0
  8  9  1  0
  9 10  1  0
 10 11  1  0
 11 12  1  0
 12 13  1  0
 13 14  2  0
 14 15  1  0
 15 16  2  0
 16 17  1  0
 17 18  2  0
 18 19  1  0
 19 20  2  0
 19 21  1  0
 21 22  2  0
 22 23  1  0
 23 24  1  0
 22 25  1  0
 25 26  1  0
 26 27  1  0
 25 28  2  0
 28 29  1  0
 29 30  1  0
 28 31  1  0
 31 32  2  0
 32 33  1  0
 16 34  1  0
 34 35  2  0
 35 13  1  0
 33 17  1  0
 32 21  1  0
  1 36  1  0
  1 37  1  0
  1 38  1  0
  2 39  1  0
  2 40  1  0
  4 41  1  0
  4 42  1  0
  5 43  1  0
  5 44  1  0
  5 45  1  0
  6 46  1  0
  6 47  1  0
  7 48  1  0
  7 49  1  0
  8 50  1  0
  8 51  1  0
  9 52  1  0
  9 53  1  0
 10 54  1  0
 10 55  1  0
 11 56  1  0
 11 57  1  0
 14 58  1  0
 15 59  1  0
 18 60  1  0
 24 61  1  0
 24 62  1  0
 24 63  1  0
 27 64  1  0
 27 65  1  0
 27 66  1  0
 30 67  1  0
 30 68  1  0
 30 69  1  0
 31 70  1  0
 34 71  1  0
 35 72  1  0
M  END
>  <UniqueID>  (20) 
20

>  <SMILES>  (20) 
CCN(CC)CCCCCCOc1ccc(-c2cc(=O)c3c(OC)c(OC)c(OC)cc3o2)cc1

>  <Energy>  (20) 
96.58351175480998

>  <Genealogy>  (20) 
CCN(CC)CCCCCCOc1ccc(-c2cc(=O)c3c(OC)c(OC)c(OC)cc3o2)cc1 (3D coordinates assigned)
CCN(CC)CCCCCCOc1ccc(-c2cc(=O)c3c(OC)c(OC)c(OC)cc3o2)cc1 (optimized conformer: 96.58351175480998 kcal/mol)

>  <smiles>  (20) 
CCN(CC)CCCCCCOc1ccc(-c2cc(=O)c3c(OC)c(OC)c(OC)cc3o2)cc1

>  <score_type>  (20) 
oracle

>  <origin>  (20) 
adg

>  <m_score__min__energy>  (20) 
-6.9400000000000004

>  <m_primary>  (20) 
energy

$$$$
20:0
     RDKit          3D

 37 39  0  0  0  0  0  0  0  0999 V2000
   55.8990   29.7210   43.0380 C   0  0  0  0  0  0  0  0  0  0  0  0
   55.8970   30.0650   44.4190 O   0  0  0  0  0  0  0  0  0  0  0  0
   57.0410   30.0990   45.2330 C   0  0  0  0  0  0  0  0  0  0  0  0
   57.8330   31.2560   45.3590 C   0  0  0  0  0  0  0  0  0  0  0  0
   58.9630   31.2630   46.1900 C   0  0  0  0  0  0  0  0  0  0  0  0
   59.3250   30.0890   46.8810 C   0  0  0  0  0  0  0  0  0  0  0  0
   58.5380   28.9350   46.7530 C   0  0  0  0  0  0  0  0  0  0  0  0
   57.3930   28.9360   45.9340 C   0  0  0  0  0  0  0  0  0  0  0  0
   56.5810   27.8000   45.7870 O   0  0  0  0  0  0  0  0  0  0  0  0
   57.0690   26.4700   45.6380 C   0  0  0  0  0  0  0  0  0  0  0  0
   60.5360   30.1020   47.7310 C   0  0  0  0  0  0  0  0  0  0  0  0
   60.9540   29.0390   48.2650 O   0  0  0  0  0  0  0  0  0  0  0  0
   61.2390   31.3420   47.9270 N   0  0  0  0  0  0  0  0  0  0  0  0
   62.6470   31.3600   48.3500 C   0  0  0  0  0  0  0  0  0  0  0  0
   63.4710   32.2160   47.3820 C   0  0  0  0  0  0  0  0  0  0  0  0
   62.7910   33.5310   47.1080 C   0  0  0  0  0  0  0  0  0  0  0  0
   63.3450   34.3640   46.4090 O   0  0  0  0  0  0  0  0  0  0  0  0
   61.4490   33.8310   47.7170 C   0  0  0  0  0  0  0  0  0  0  0  0
   60.5190   32.5990   47.6440 C   0  0  1  0  0  0  0  0  0  0  0  0
   59.8310   32.4980   46.2690 C   0  0  0  0  0  0  0  0  0  0  0  0
   55.9054   28.6261   42.9329 H   0  0  0  0  0  0  0  0  0  0  0  0
   54.9985   30.1303   42.5569 H   0  0  0  0  0  0  0  0  0  0  0  0
   56.7947   30.1408   42.5569 H   0  0  0  0  0  0  0  0  0  0  0  0
   57.5629   32.1640   44.8000 H   0  0  0  0  0  0  0  0  0  0  0  0
   58.8180   28.0211   47.2974 H   0  0  0  0  0  0  0  0  0  0  0  0
   57.2320   26.0258   46.6311 H   0  0  0  0  0  0  0  0  0  0  0  0
   56.3327   25.8692   45.0839 H   0  0  0  0  0  0  0  0  0  0  0  0
   58.0191   26.4880   45.0839 H   0  0  0  0  0  0  0  0  0  0  0  0
   62.7183   31.7834   49.3627 H   0  0  0  0  0  0  0  0  0  0  0  0
   63.0390   30.3322   48.3485 H   0  0  0  0  0  0  0  0  0  0  0  0
   64.4596   32.4081   47.8246 H   0  0  0  0  0  0  0  0  0  0  0  0
   63.5720   31.6703   46.4323 H   0  0  0  0  0  0  0  0  0  0  0  0
   61.5876   34.1149   48.7706 H   0  0  0  0  0  0  0  0  0  0  0  0
   60.9849   34.6539   47.1536 H   0  0  0  0  0  0  0  0  0  0  0  0
   59.7539   32.7417   48.4213 H   0  0  0  0  0  0  0  0  0  0  0  0
   59.2049   33.3889   46.1132 H   0  0  0  0  0  0  0  0  0  0  0  0
   60.6066   32.4330   45.4917 H   0  0  0  0  0  0  0  0  0  0  0  0
  1  2  1  0
  2  3  1  0
  3  4  2  0
  4  5  1  0
  5  6  2  0
  6  7  1  0
  7  8  2  0
  8  9  1  0
  9 10  1  0
  6 11  1  0
 11 12  2  0
 11 13  1  0
 13 14  1  0
 14 15  1  0
 15 16  1  0
 16 17  2  0
 16 18  1  0
 18 19  1  0
 19 20  1  0
  8  3  1  0
 19 13  1  0
 20  5  1  0
  1 21  1  0
  1 22  1  0
  1 23  1  0
  4 24  1  0
  7 25  1  0
 10 26  1  0
 10 27  1  0
 10 28  1  0
 14 29  1  0
 14 30  1  0
 15 31  1  0
 15 32  1  0
 18 33  1  0
 18 34  1  0
 19 35  1  1
 20 36  1  0
 20 37  1  0
M  END
>  <UniqueID>  (21) 
21

>  <SMILES>  (21) 
COc1cc2c(cc1OC)C(=O)N1CCC(=O)C[C@H]1C2

>  <Energy>  (21) 
39.13239952120097

>  <Genealogy>  (21) 
COc1cc2c(cc1OC)C(=O)N1CCC(=O)C[C@H]1C2 (chirality)
COc1cc2c(cc1OC)C(=O)N1CCC(=O)C[C@H]1C2 (3D coordinates assigned)
COc1cc2c(cc1OC)C(=O)N1CCC(=O)C[C@H]1C2 (nonaromatic ring conformer: 39.13239952120097 kcal/mol)

>  <smiles>  (21) 
COc1cc2c(cc1OC)C(=O)N1CCC(=O)CC1C2

>  <score_type>  (21) 
oracle

>  <origin>  (21) 
adg

>  <m_score__min__energy>  (21) 
-6.4199999999999999

>  <m_primary>  (21) 
energy

$$$$
21:0
     RDKit          3D

 36 38  0  0  0  0  0  0  0  0999 V2000
   62.0600   32.6860   47.1340 C   0  0  0  0  0  0  0  0  0  0  0  0
   61.2380   31.4710   47.4400 C   0  0  0  0  0  0  0  0  0  0  0  0
   61.3640   30.8260   48.7000 C   0  0  0  0  0  0  0  0  0  0  0  0
   60.5720   29.7050   49.0160 C   0  0  0  0  0  0  0  0  0  0  0  0
   59.6620   29.2690   48.0580 C   0  0  0  0  0  0  0  0  0  0  0  0
   58.8260   28.2620   48.1240 O   0  0  0  0  0  0  0  0  0  0  0  0
   58.1360   28.1740   47.0160 N   0  0  0  0  0  0  0  0  0  0  0  0
   58.5510   29.1730   46.1990 C   0  0  0  0  0  0  0  0  0  0  0  0
   58.0120   29.4080   44.8200 C   0  0  0  0  0  0  0  0  0  0  0  0
   56.6080   29.9510   44.8550 C   0  0  0  0  0  0  0  0  0  0  0  0
   55.6410   29.1450   44.8900 O   0  0  0  0  0  0  0  0  0  0  0  0
   56.3320   31.3580   44.8600 N   0  0  0  0  0  0  0  0  0  0  0  0
   57.3060   32.3710   45.1310 C   0  0  0  0  0  0  0  0  0  0  0  0
   57.3930   32.8920   46.4290 C   0  0  0  0  0  0  0  0  0  0  0  0
   58.3550   33.8570   46.7380 C   0  0  0  0  0  0  0  0  0  0  0  0
   59.2260   34.3170   45.7500 C   0  0  0  0  0  0  0  0  0  0  0  0
   59.1300   33.8240   44.4460 C   0  0  0  0  0  0  0  0  0  0  0  0
   58.1570   32.8640   44.1170 C   0  0  0  0  0  0  0  0  0  0  0  0
   58.0740   32.3680   42.6990 C   0  0  0  0  0  0  0  0  0  0  0  0
   59.5280   29.8910   46.8530 C   0  0  0  0  0  0  0  0  0  0  0  0
   60.2900   31.0030   46.5020 C   0  0  0  0  0  0  0  0  0  0  0  0
   62.3798   33.1587   48.0744 H   0  0  0  0  0  0  0  0  0  0  0  0
   62.9457   32.3923   46.5515 H   0  0  0  0  0  0  0  0  0  0  0  0
   61.4579   33.3989   46.5515 H   0  0  0  0  0  0  0  0  0  0  0  0
   62.0876   31.2062   49.4361 H   0  0  0  0  0  0  0  0  0  0  0  0
   60.6693   29.1930   49.9847 H   0  0  0  0  0  0  0  0  0  0  0  0
   58.6605   30.1300   44.3022 H   0  0  0  0  0  0  0  0  0  0  0  0
   57.9933   28.4439   44.2906 H   0  0  0  0  0  0  0  0  0  0  0  0
   56.7009   32.5397   47.2080 H   0  0  0  0  0  0  0  0  0  0  0  0
   58.4257   34.2544   47.7613 H   0  0  0  0  0  0  0  0  0  0  0  0
   59.9896   35.0690   45.9979 H   0  0  0  0  0  0  0  0  0  0  0  0
   59.8204   34.1895   43.6716 H   0  0  0  0  0  0  0  0  0  0  0  0
   57.8925   31.2831   42.7001 H   0  0  0  0  0  0  0  0  0  0  0  0
   57.2486   32.8774   42.1801 H   0  0  0  0  0  0  0  0  0  0  0  0
   59.0203   32.5809   42.1801 H   0  0  0  0  0  0  0  0  0  0  0  0
   60.1586   31.4993   45.5292 H   0  0  0  0  0  0  0  0  0  0  0  0
  1  2  1  0
  2  3  2  0
  3  4  1  0
  4  5  2  0
  5  6  1  0
  6  7  1  0
  7  8  2  0
  8  9  1  0
  9 10  1  0
 10 11  2  0
 10 12  1  0
 12 13  1  0
 13 14  2  0
 14 15  1  0
 15 16  2  0
 16 17  1  0
 17 18  2  0
 18 19  1  0
  8 20  1  0
 20 21  2  0
 21  2  1  0
 20  5  1  0
 18 13  1  0
  1 22  1  0
  1 23  1  0
  1 24  1  0
  3 25  1  0
  4 26  1  0
  9 27  1  0
  9 28  1  0
 14 29  1  0
 15 30  1  0
 16 31  1  0
 17 32  1  0
 19 33  1  0
 19 34  1  0
 19 35  1  0
 21 36  1  0
M  CHG  1  12  -1
M  END
>  <UniqueID>  (22) 
22

>  <SMILES>  (22) 
Cc1ccc2onc(CC(=O)[N-]c3ccccc3C)c2c1

>  <Energy>  (22) 
81.04441975215974

>  <Genealogy>  (22) 
Cc1ccc2onc(CC(=O)[N-]c3ccccc3C)c2c1 (protonated)
Cc1ccc2onc(CC(=O)[N-]c3ccccc3C)c2c1 (3D coordinates assigned)
Cc1ccc2onc(CC(=O)[N-]c3ccccc3C)c2c1 (optimized conformer: 81.04441975215974 kcal/mol)

>  <smiles>  (22) 
Cc1ccc2onc(CC(=O)Nc3ccccc3C)c2c1

>  <score_type>  (22) 
oracle

>  <origin>  (22) 
adg

>  <m_score__min__energy>  (22) 
-9.9499999999999993

>  <m_primary>  (22) 
energy

$$$$
22:0
     RDKit          3D

 42 44  0  0  0  0  0  0  0  0999 V2000
   59.7460   27.9930   48.3310 C   0  0  0  0  0  0  0  0  0  0  0  0
   59.0520   28.9060   47.4880 O   0  0  0  0  0  0  0  0  0  0  0  0
   59.4450   30.2340   47.2590 C   0  0  0  0  0  0  0  0  0  0  0  0
   60.6670   30.7430   47.7340 C   0  0  0  0  0  0  0  0  0  0  0  0
   61.0250   32.0690   47.4890 C   0  0  0  0  0  0  0  0  0  0  0  0
   60.1630   32.9160   46.7830 C   0  0  0  0  0  0  0  0  0  0  0  0
   60.5130   34.2570   46.5570 C   0  0  0  0  0  0  0  0  0  0  0  0
   59.6410   35.1050   45.8710 C   0  0  0  0  0  0  0  0  0  0  0  0
   58.4110   34.6260   45.4150 C   0  0  0  0  0  0  0  0  0  0  0  0
   58.0500   33.2940   45.6300 C   0  0  0  0  0  0  0  0  0  0  0  0
   58.9250   32.4190   46.3020 C   0  0  0  0  0  0  0  0  0  0  0  0
   58.5850   31.0670   46.5260 C   0  0  0  0  0  0  0  0  0  0  0  0
   57.3870   30.5350   46.0360 O   0  0  0  0  0  0  0  0  0  0  0  0
   56.9860   30.6820   44.6730 C   0  0  1  0  0  0  0  0  0  0  0  0
   58.1960   30.5530   43.7450 C   0  0  0  0  0  0  0  0  0  0  0  0
   55.9720   29.6290   44.3450 C   0  0  0  0  0  0  0  0  0  0  0  0
   55.3700   29.6700   43.2380 O   0  0  0  0  0  0  0  0  0  0  0  0
   55.7690   28.5360   45.2500 N   0  0  0  0  0  0  0  0  0  0  0  0
   56.7080   27.4950   45.5550 C   0  0  0  0  0  0  0  0  0  0  0  0
   58.0250   27.5070   45.0580 C   0  0  0  0  0  0  0  0  0  0  0  0
   58.9010   26.4590   45.3610 C   0  0  0  0  0  0  0  0  0  0  0  0
   58.4670   25.3900   46.1500 C   0  0  0  0  0  0  0  0  0  0  0  0
   57.1550   25.3610   46.6270 C   0  0  0  0  0  0  0  0  0  0  0  0
   56.2770   26.4060   46.3240 C   0  0  0  0  0  0  0  0  0  0  0  0
   59.5531   28.2468   49.3838 H   0  0  0  0  0  0  0  0  0  0  0  0
   59.3956   26.9698   48.1304 H   0  0  0  0  0  0  0  0  0  0  0  0
   60.8257   28.0568   48.1304 H   0  0  0  0  0  0  0  0  0  0  0  0
   61.3457   30.0906   48.3030 H   0  0  0  0  0  0  0  0  0  0  0  0
   61.9903   32.4510   47.8528 H   0  0  0  0  0  0  0  0  0  0  0  0
   61.4773   34.6408   46.9215 H   0  0  0  0  0  0  0  0  0  0  0  0
   59.9235   36.1525   45.6894 H   0  0  0  0  0  0  0  0  0  0  0  0
   57.7234   35.3008   44.8841 H   0  0  0  0  0  0  0  0  0  0  0  0
   57.0768   32.9265   45.2724 H   0  0  0  0  0  0  0  0  0  0  0  0
   56.5440   31.6789   44.5286 H   0  0  0  0  0  0  0  0  0  0  0  0
   59.1113   30.4554   44.3473 H   0  0  0  0  0  0  0  0  0  0  0  0
   58.0780   29.6623   43.1103 H   0  0  0  0  0  0  0  0  0  0  0  0
   58.2685   31.4485   43.1103 H   0  0  0  0  0  0  0  0  0  0  0  0
   58.3664   28.3428   44.4296 H   0  0  0  0  0  0  0  0  0  0  0  0
   59.9320   26.4763   44.9780 H   0  0  0  0  0  0  0  0  0  0  0  0
   59.1593   24.5712   46.3953 H   0  0  0  0  0  0  0  0  0  0  0  0
   56.8120   24.5155   47.2415 H   0  0  0  0  0  0  0  0  0  0  0  0
   55.2408   26.3730   46.6918 H   0  0  0  0  0  0  0  0  0  0  0  0
  1  2  1  0
  2  3  1  0
  3  4  2  0
  4  5  1  0
  5  6  2  0
  6  7  1  0
  7  8  2  0
  8  9  1  0
  9 10  2  0
 10 11  1  0
 11 12  2  0
 12 13  1  0
 13 14  1  0
 14 15  1  0
 14 16  1  0
 16 17  2  0
 16 18  1  0
 18 19  1  0
 19 20  2  0
 20 21  1  0
 21 22  2  0
 22 23  1  0
 23 24  2  0
 12  3  1  0
 24 19  1  0
 11  6  1  0
  1 25  1  0
  1 26  1  0
  1 27  1  0
  4 28  1  0
  5 29  1  0
  7 30  1  0
  8 31  1  0
  9 32  1  0
 10 33  1  0
 14 34  1  1
 15 35  1  0
 15 36  1  0
 15 37  1  0
 20 38  1  0
 21 39  1  0
 22 40  1  0
 23 41  1  0
 24 42  1  0
M  CHG  1  18  -1
M  END
>  <UniqueID>  (23) 
23

>  <SMILES>  (23) 
COc1ccc2ccccc2c1O[C@@H](C)C(=O)[N-]c1ccccc1

>  <Energy>  (23) 
53.89313016983966

>  <Genealogy>  (23) 
COc1ccc2ccccc2c1OC(C)C(=O)[N-]c1ccccc1 (protonated)
COc1ccc2ccccc2c1O[C@@H](C)C(=O)[N-]c1ccccc1 (chirality)
COc1ccc2ccccc2c1O[C@@H](C)C(=O)[N-]c1ccccc1 (3D coordinates assigned)
COc1ccc2ccccc2c1O[C@@H](C)C(=O)[N-]c1ccccc1 (optimized conformer: 53.89313016983966 kcal/mol)

>  <smiles>  (23) 
COc1ccc2ccccc2c1OC(C)C(=O)Nc1ccccc1

>  <score_type>  (23) 
oracle

>  <origin>  (23) 
adg

>  <m_score__min__energy>  (23) 
-9.7300000000000004

>  <m_primary>  (23) 
energy

$$$$
23:0
     RDKit          3D

 48 49  0  0  0  0  0  0  0  0999 V2000
   57.7690   32.0460   42.1850 C   0  0  0  0  0  0  0  0  0  0  0  0
   57.2230   31.1900   43.3260 C   0  0  0  0  0  0  0  0  0  0  0  0
   58.2660   30.9750   44.4320 C   0  0  0  0  0  0  0  0  0  0  0  0
   58.2380   29.5880   44.9460 N   0  0  0  0  0  0  0  0  0  0  0  0
   57.3870   28.6470   44.1820 C   0  0  0  0  0  0  0  0  0  0  0  0
   58.1440   27.4610   43.5690 C   0  0  0  0  0  0  0  0  0  0  0  0
   59.5290   29.0380   45.4240 C   0  0  0  0  0  0  0  0  0  0  0  0
   59.9840   29.5990   46.7440 C   0  0  0  0  0  0  0  0  0  0  0  0
   61.1410   30.0930   46.8470 O   0  0  0  0  0  0  0  0  0  0  0  0
   59.0860   29.6240   47.8640 N   0  0  0  0  0  0  0  0  0  0  0  0
   59.4300   30.2690   49.1310 C   0  0  0  0  0  0  0  0  0  0  0  0
   58.9010   31.7070   49.1640 C   0  0  0  0  0  0  0  0  0  0  0  0
   59.6570   32.5800   48.1850 C   0  0  0  0  0  0  0  0  0  0  0  0
   61.0490   32.7060   48.3560 C   0  0  0  0  0  0  0  0  0  0  0  0
   61.8120   33.4750   47.4790 C   0  0  0  0  0  0  0  0  0  0  0  0
   61.2060   34.1240   46.4060 C   0  0  0  0  0  0  0  0  0  0  0  0
   59.8250   34.0070   46.1940 C   0  0  0  0  0  0  0  0  0  0  0  0
   59.2280   34.6550   45.1000 C   0  0  0  0  0  0  0  0  0  0  0  0
   57.8560   34.5390   44.8740 C   0  0  0  0  0  0  0  0  0  0  0  0
   57.0670   33.7780   45.7370 C   0  0  0  0  0  0  0  0  0  0  0  0
   57.6440   33.1270   46.8310 C   0  0  0  0  0  0  0  0  0  0  0  0
   59.0310   33.2300   47.0830 C   0  0  0  0  0  0  0  0  0  0  0  0
   58.3167   32.9047   42.6005 H   0  0  0  0  0  0  0  0  0  0  0  0
   58.4490   31.4419   41.5664 H   0  0  0  0  0  0  0  0  0  0  0  0
   56.9345   32.4079   41.5664 H   0  0  0  0  0  0  0  0  0  0  0  0
   56.3450   31.6922   43.7583 H   0  0  0  0  0  0  0  0  0  0  0  0
   56.9551   30.2055   42.9148 H   0  0  0  0  0  0  0  0  0  0  0  0
   59.2662   31.1845   44.0249 H   0  0  0  0  0  0  0  0  0  0  0  0
   58.0297   31.6547   45.2640 H   0  0  0  0  0  0  0  0  0  0  0  0
   56.6179   28.2502   44.8609 H   0  0  0  0  0  0  0  0  0  0  0  0
   56.9648   29.2176   43.3417 H   0  0  0  0  0  0  0  0  0  0  0  0
   58.5477   26.8285   44.3733 H   0  0  0  0  0  0  0  0  0  0  0  0
   57.4564   26.8690   42.9472 H   0  0  0  0  0  0  0  0  0  0  0  0
   58.9705   27.8355   42.9472 H   0  0  0  0  0  0  0  0  0  0  0  0
   59.4223   27.9483   45.5300 H   0  0  0  0  0  0  0  0  0  0  0  0
   60.2890   29.3198   44.6804 H   0  0  0  0  0  0  0  0  0  0  0  0
   58.1200   29.2370   47.7540 H   0  0  0  0  0  0  0  0  0  0  0  0
   58.9831   29.7001   49.9596 H   0  0  0  0  0  0  0  0  0  0  0  0
   60.5251   30.2911   49.2324 H   0  0  0  0  0  0  0  0  0  0  0  0
   57.8341   31.7051   48.8963 H   0  0  0  0  0  0  0  0  0  0  0  0
   59.0404   32.1110   50.1776 H   0  0  0  0  0  0  0  0  0  0  0  0
   61.5412   32.1902   49.1936 H   0  0  0  0  0  0  0  0  0  0  0  0
   62.8968   33.5697   47.6349 H   0  0  0  0  0  0  0  0  0  0  0  0
   61.8146   34.7321   45.7206 H   0  0  0  0  0  0  0  0  0  0  0  0
   59.8456   35.2573   44.4176 H   0  0  0  0  0  0  0  0  0  0  0  0
   57.3959   35.0482   44.0143 H   0  0  0  0  0  0  0  0  0  0  0  0
   55.9856   33.6899   45.5556 H   0  0  0  0  0  0  0  0  0  0  0  0
   57.0119   32.5281   47.5031 H   0  0  0  0  0  0  0  0  0  0  0  0
  1  2  1  0
  2  3  1  0
  3  4  1  0
  4  5  1  0
  5  6  1  0
  4  7  1  0
  7  8  1  0
  8  9  2  0
  8 10  1  0
 10 11  1  0
 11 12  1  0
 12 13  1  0
 13 14  2  0
 14 15  1  0
 15 16  2  0
 16 17  1  0
 17 18  2  0
 18 19  1  0
 19 20  2  0
 20 21  1  0
 21 22  2  0
 22 13  1  0
 22 17  1  0
  1 23  1  0
  1 24  1  0
  1 25  1  0
  2 26  1  0
  2 27  1  0
  3 28  1  0
  3 29  1  0
  5 30  1  0
  5 31  1  0
  6 32  1  0
  6 33  1  0
  6 34  1  0
  7 35  1  0
  7 36  1  0
 10 37  1  0
 11 38  1  0
 11 39  1  0
 12 40  1  0
 12 41  1  0
 14 42  1  0
 15 43  1  0
 16 44  1  0
 18 45  1  0
 19 46  1  0
 20 47  1  0
 21 48  1  0
M  END
>  <UniqueID>  (24) 
24

>  <SMILES>  (24) 
CCCN(CC)CC(=O)NCCc1cccc2ccccc12

>  <Energy>  (24) 
50.9437140364522

>  <Genealogy>  (24) 
CCCN(CC)CC(=O)NCCc1cccc2ccccc12 (3D coordinates assigned)
CCCN(CC)CC(=O)NCCc1cccc2ccccc12 (optimized conformer: 50.9437140364522 kcal/mol)

>  <smiles>  (24) 
CCCN(CC)CC(=O)NCCc1cccc2ccccc12

>  <score_type>  (24) 
oracle

>  <origin>  (24) 
adg

>  <m_score__min__energy>  (24) 
-7.21

>  <m_primary>  (24) 
energy

$$$$
24:0
     RDKit          3D

 48 48  0  0  0  0  0  0  0  0999 V2000
   63.4590   32.4270   47.3560 C   0  0  0  0  0  0  0  0  0  0  0  0
   62.9430   33.8270   47.0300 C   0  0  0  0  0  0  0  0  0  0  0  0
   61.5620   33.7900   46.3560 C   0  0  0  0  0  0  0  0  0  0  0  0
   60.4560   34.0170   47.3170 N   0  0  0  0  0  0  0  0  0  0  0  0
   59.3670   34.8280   46.7260 C   0  0  0  0  0  0  0  0  0  0  0  0
   58.8990   34.2210   45.3980 C   0  0  0  0  0  0  0  0  0  0  0  0
   57.3760   34.2200   45.2760 C   0  0  0  0  0  0  0  0  0  0  0  0
   59.9550   32.7900   47.9840 C   0  0  0  0  0  0  0  0  0  0  0  0
   60.2480   31.4800   47.2230 C   0  0  0  0  0  0  0  0  0  0  0  0
   59.2100   31.1680   46.2930 O   0  0  0  0  0  0  0  0  0  0  0  0
   58.5450   29.9350   46.1860 C   0  0  0  0  0  0  0  0  0  0  0  0
   58.9990   28.7750   46.8370 C   0  0  0  0  0  0  0  0  0  0  0  0
   58.3110   27.5700   46.6990 C   0  0  0  0  0  0  0  0  0  0  0  0
   57.1510   27.4930   45.9070 C   0  0  0  0  0  0  0  0  0  0  0  0
   56.4080   26.2120   45.7490 C   0  0  0  0  0  0  0  0  0  0  0  0
   57.0840   24.9540   45.2910 C   0  0  0  0  0  0  0  0  0  0  0  0
   55.1740   26.1690   46.0050 O   0  0  0  0  0  0  0  0  0  0  0  0
   56.6980   28.6560   45.2590 C   0  0  0  0  0  0  0  0  0  0  0  0
   57.3890   29.8760   45.3950 C   0  0  0  0  0  0  0  0  0  0  0  0
   56.9660   31.0500   44.7520 O   0  0  0  0  0  0  0  0  0  0  0  0
   57.4020   31.4670   43.4610 C   0  0  0  0  0  0  0  0  0  0  0  0
   63.5063   32.2986   48.4475 H   0  0  0  0  0  0  0  0  0  0  0  0
   62.7784   31.6764   46.9277 H   0  0  0  0  0  0  0  0  0  0  0  0
   64.4639   32.2976   46.9277 H   0  0  0  0  0  0  0  0  0  0  0  0
   62.8670   34.4037   47.9636 H   0  0  0  0  0  0  0  0  0  0  0  0
   63.6503   34.2948   46.3294 H   0  0  0  0  0  0  0  0  0  0  0  0
   61.5250   34.5727   45.5840 H   0  0  0  0  0  0  0  0  0  0  0  0
   61.4281   32.7881   45.9222 H   0  0  0  0  0  0  0  0  0  0  0  0
   58.5197   34.8604   47.4268 H   0  0  0  0  0  0  0  0  0  0  0  0
   59.7449   35.8436   46.5371 H   0  0  0  0  0  0  0  0  0  0  0  0
   59.3215   34.8091   44.5700 H   0  0  0  0  0  0  0  0  0  0  0  0
   59.2442   33.1772   45.3604 H   0  0  0  0  0  0  0  0  0  0  0  0
   56.9277   34.2197   46.2805 H   0  0  0  0  0  0  0  0  0  0  0  0
   57.0513   35.1179   44.7298 H   0  0  0  0  0  0  0  0  0  0  0  0
   57.0525   33.3216   44.7298 H   0  0  0  0  0  0  0  0  0  0  0  0
   60.4248   32.7227   48.9764 H   0  0  0  0  0  0  0  0  0  0  0  0
   58.8601   32.8853   48.0305 H   0  0  0  0  0  0  0  0  0  0  0  0
   61.1961   31.5895   46.6761 H   0  0  0  0  0  0  0  0  0  0  0  0
   60.3093   30.6627   47.9566 H   0  0  0  0  0  0  0  0  0  0  0  0
   59.9043   28.8181   47.4604 H   0  0  0  0  0  0  0  0  0  0  0  0
   58.6790   26.6707   47.2146 H   0  0  0  0  0  0  0  0  0  0  0  0
   57.3992   24.3675   46.1666 H   0  0  0  0  0  0  0  0  0  0  0  0
   56.3832   24.3608   44.6853 H   0  0  0  0  0  0  0  0  0  0  0  0
   57.9655   25.2111   44.6853 H   0  0  0  0  0  0  0  0  0  0  0  0
   55.7916   28.6124   44.6373 H   0  0  0  0  0  0  0  0  0  0  0  0
   58.1932   32.2237   43.5679 H   0  0  0  0  0  0  0  0  0  0  0  0
   57.7955   30.6005   42.9093 H   0  0  0  0  0  0  0  0  0  0  0  0
   56.5539   31.8987   42.9093 H   0  0  0  0  0  0  0  0  0  0  0  0
  1  2  1  0
  2  3  1  0
  3  4  1  0
  4  5  1  0
  5  6  1  0
  6  7  1  0
  4  8  1  0
  8  9  1  0
  9 10  1  0
 10 11  1  0
 11 12  2  0
 12 13  1  0
 13 14  2  0
 14 15  1  0
 15 16  1  0
 15 17  2  0
 14 18  1  0
 18 19  2  0
 19 20  1  0
 20 21  1  0
 19 11  1  0
  1 22  1  0
  1 23  1  0
  1 24  1  0
  2 25  1  0
  2 26  1  0
  3 27  1  0
  3 28  1  0
  5 29  1  0
  5 30  1  0
  6 31  1  0
  6 32  1  0
  7 33  1  0
  7 34  1  0
  7 35  1  0
  8 36  1  0
  8 37  1  0
  9 38  1  0
  9 39  1  0
 12 40  1  0
 13 41  1  0
 16 42  1  0
 16 43  1  0
 16 44  1  0
 18 45  1  0
 21 46  1  0
 21 47  1  0
 21 48  1  0
M  END
>  <UniqueID>  (25) 
25

>  <SMILES>  (25) 
CCCN(CCC)CCOc1ccc(C(C)=O)cc1OC

>  <Energy>  (25) 
41.091218542789896

>  <Genealogy>  (25) 
CCCN(CCC)CCOc1ccc(C(C)=O)cc1OC (3D coordinates assigned)
CCCN(CCC)CCOc1ccc(C(C)=O)cc1OC (optimized conformer: 41.091218542789896 kcal/mol)

>  <smiles>  (25) 
CCCN(CCC)CCOc1ccc(C(C)=O)cc1OC

>  <score_type>  (25) 
oracle

>  <origin>  (25) 
adg

>  <m_score__min__energy>  (25) 
-6.2400000000000002

>  <m_primary>  (25) 
energy

$$$$
25:0
     RDKit          3D

 37 39  0  0  0  0  0  0  0  0999 V2000
   57.5330   26.3430   45.0600 C   0  0  0  0  0  0  0  0  0  0  0  0
   56.5630   27.0970   45.9630 C   0  0  0  0  0  0  0  0  0  0  0  0
   55.9320   28.2010   45.2430 N   0  0  0  0  0  0  0  0  0  0  0  0
   56.4990   29.5010   45.0230 C   0  0  0  0  0  0  0  0  0  0  0  0
   55.8040   30.3710   44.4360 O   0  0  0  0  0  0  0  0  0  0  0  0
   57.8520   29.8630   45.4770 C   0  0  0  0  0  0  0  0  0  0  0  0
   59.0570   29.3480   45.0080 C   0  0  0  0  0  0  0  0  0  0  0  0
   60.1640   29.9220   45.5510 N   0  0  0  0  0  0  0  0  0  0  0  0
   59.8730   30.8950   46.4450 C   0  0  0  0  0  0  0  0  0  0  0  0
   60.9350   31.7390   47.1140 C   0  0  2  0  0  0  0  0  0  0  0  0
   60.7020   31.9690   48.6390 C   0  0  0  0  0  0  0  0  0  0  0  0
   60.7510   33.4130   48.9740 N   0  0  0  0  0  0  0  0  0  0  0  0
   62.0710   33.9680   48.5820 C   0  0  0  0  0  0  0  0  0  0  0  0
   62.3200   33.8110   47.0590 C   0  0  0  0  0  0  0  0  0  0  0  0
   61.1040   33.1130   46.4180 C   0  0  0  0  0  0  0  0  0  0  0  0
   59.8710   33.9950   46.7040 C   0  0  0  0  0  0  0  0  0  0  0  0
   59.6780   34.1230   48.2360 C   0  0  0  0  0  0  0  0  0  0  0  0
   58.2000   31.0990   46.5640 S   0  0  0  0  0  0  0  0  0  0  0  0
   58.2512   25.7847   45.6785 H   0  0  0  0  0  0  0  0  0  0  0  0
   56.9726   25.6410   44.4250 H   0  0  0  0  0  0  0  0  0  0  0  0
   58.0750   27.0593   44.4250 H   0  0  0  0  0  0  0  0  0  0  0  0
   55.7842   26.4037   46.3136 H   0  0  0  0  0  0  0  0  0  0  0  0
   57.1234   27.5079   46.8157 H   0  0  0  0  0  0  0  0  0  0  0  0
   59.1097   28.5432   44.2600 H   0  0  0  0  0  0  0  0  0  0  0  0
   61.1360   29.6560   45.2790 H   0  0  0  0  0  0  0  0  0  0  0  0
   61.8565   31.1479   47.0070 H   0  0  0  0  0  0  0  0  0  0  0  0
   59.7155   31.5690   48.9162 H   0  0  0  0  0  0  0  0  0  0  0  0
   61.4982   31.4535   49.1961 H   0  0  0  0  0  0  0  0  0  0  0  0
   62.1016   35.0365   48.8416 H   0  0  0  0  0  0  0  0  0  0  0  0
   62.8539   33.4136   49.1202 H   0  0  0  0  0  0  0  0  0  0  0  0
   62.4573   34.8031   46.6041 H   0  0  0  0  0  0  0  0  0  0  0  0
   63.2243   33.2074   46.8918 H   0  0  0  0  0  0  0  0  0  0  0  0
   61.2274   32.9709   45.3342 H   0  0  0  0  0  0  0  0  0  0  0  0
   60.0241   34.9933   46.2681 H   0  0  0  0  0  0  0  0  0  0  0  0
   58.9772   33.5355   46.2569 H   0  0  0  0  0  0  0  0  0  0  0  0
   59.6968   35.1876   48.5121 H   0  0  0  0  0  0  0  0  0  0  0  0
   58.7125   33.6693   48.5041 H   0  0  0  0  0  0  0  0  0  0  0  0
  1  2  1  0
  2  3  1  0
  3  4  1  0
  4  5  2  0
  4  6  1  0
  6  7  2  0
  7  8  1  0
  8  9  2  0
  9 10  1  0
 10 11  1  0
 11 12  1  0
 12 13  1  0
 13 14  1  0
 14 15  1  0
 15 16  1  0
 16 17  1  0
  9 18  1  0
 18  6  1  0
 15 10  1  0
 17 12  1  0
  1 19  1  0
  1 20  1  0
  1 21  1  0
  2 22  1  0
  2 23  1  0
  7 24  1  0
  8 25  1  0
 10 26  1  1
 11 27  1  0
 11 28  1  0
 13 29  1  0
 13 30  1  0
 14 31  1  0
 14 32  1  0
 15 33  1  0
 16 34  1  0
 16 35  1  0
 17 36  1  0
 17 37  1  0
M  CHG  2   3  -1   8   1
M  END
>  <UniqueID>  (26) 
26

>  <SMILES>  (26) 
CC[N-]C(=O)c1c[nH+]c([C@@H]2CN3CCC2CC3)s1

>  <Energy>  (26) 
81.80367042988163

>  <Genealogy>  (26) 
CC[N-]C(=O)c1c[nH+]c(C2CN3CCC2CC3)s1 (protonated)
CC[N-]C(=O)c1c[nH+]c([C@@H]2CN3CCC2CC3)s1 (chirality)
CC[N-]C(=O)c1c[nH+]c([C@@H]2CN3CCC2CC3)s1 (3D coordinates assigned)
CC[N-]C(=O)c1c[nH+]c([C@@H]2CN3CCC2CC3)s1 (nonaromatic ring conformer: 81.80367042988163 kcal/mol)

>  <smiles>  (26) 
CCNC(=O)c1cnc(C2CN3CCC2CC3)s1

>  <score_type>  (26) 
oracle

>  <origin>  (26) 
adg

>  <m_score__min__energy>  (26) 
-7.6799999999999997

>  <m_primary>  (26) 
energy

$$$$
26:0
     RDKit          3D

 55 58  0  0  0  0  0  0  0  0999 V2000
   54.4740   24.9030   45.5880 C   0  0  0  0  0  0  0  0  0  0  0  0
   55.1350   26.0770   46.0090 O   0  0  0  0  0  0  0  0  0  0  0  0
   56.4790   25.7920   46.3520 C   0  0  0  0  0  0  0  0  0  0  0  0
   57.2820   27.0860   46.5220 C   0  0  0  0  0  0  0  0  0  0  0  0
   57.4370   27.7780   45.2330 N   0  0  0  0  0  0  0  0  0  0  0  0
   57.8110   27.0110   44.0400 C   0  0  0  0  0  0  0  0  0  0  0  0
   57.1800   29.1970   45.1390 C   0  0  0  0  0  0  0  0  0  0  0  0
   55.9970   29.6040   44.9720 O   0  0  0  0  0  0  0  0  0  0  0  0
   58.2480   30.1530   45.2620 N   0  0  0  0  0  0  0  0  0  0  0  0
   58.1300   31.5370   44.8990 C   0  0  0  0  0  0  0  0  0  0  0  0
   57.4120   32.1130   43.8500 C   0  0  0  0  0  0  0  0  0  0  0  0
   57.6330   33.4530   43.8340 N   0  0  0  0  0  0  0  0  0  0  0  0
   58.4640   33.7160   44.8320 N   0  0  0  0  0  0  0  0  0  0  0  0
   58.9640   34.9230   45.1840 C   0  0  0  0  0  0  0  0  0  0  0  0
   59.8480   34.9760   46.2710 C   0  0  0  0  0  0  0  0  0  0  0  0
   60.1820   33.7750   46.9490 C   0  0  0  0  0  0  0  0  0  0  0  0
   61.0850   33.7740   48.0750 N   0  0  0  0  0  0  0  0  0  0  0  0
   62.5000   33.4660   47.9330 C   0  0  0  0  0  0  0  0  0  0  0  0
   63.0760   33.4820   49.3420 C   0  0  0  0  0  0  0  0  0  0  0  0
   62.0470   34.2010   50.2090 C   0  0  0  0  0  0  0  0  0  0  0  0
   60.7220   34.1230   49.4440 C   0  0  2  0  0  0  0  0  0  0  0  0
   59.7960   33.0830   50.0510 C   0  0  0  0  0  0  0  0  0  0  0  0
   59.6860   31.7980   49.4850 C   0  0  0  0  0  0  0  0  0  0  0  0
   58.8460   30.8390   50.0590 C   0  0  0  0  0  0  0  0  0  0  0  0
   58.7390   29.6100   49.4990 F   0  0  0  0  0  0  0  0  0  0  0  0
   58.1180   31.1470   51.2100 C   0  0  0  0  0  0  0  0  0  0  0  0
   58.2320   32.4120   51.7920 C   0  0  0  0  0  0  0  0  0  0  0  0
   59.0690   33.3760   51.2220 C   0  0  0  0  0  0  0  0  0  0  0  0
   59.1720   34.5920   51.8160 F   0  0  0  0  0  0  0  0  0  0  0  0
   59.6350   32.5920   46.5310 N   0  0  0  0  0  0  0  0  0  0  0  0
   58.7840   32.5940   45.4780 C   0  0  0  0  0  0  0  0  0  0  0  0
   54.1505   24.3285   46.4685 H   0  0  0  0  0  0  0  0  0  0  0  0
   53.5955   25.1734   44.9837 H   0  0  0  0  0  0  0  0  0  0  0  0
   55.1608   24.2922   44.9837 H   0  0  0  0  0  0  0  0  0  0  0  0
   56.4987   25.2284   47.2964 H   0  0  0  0  0  0  0  0  0  0  0  0
   56.9317   25.1991   45.5435 H   0  0  0  0  0  0  0  0  0  0  0  0
   56.7551   27.7476   47.2254 H   0  0  0  0  0  0  0  0  0  0  0  0
   58.2803   26.8332   46.9086 H   0  0  0  0  0  0  0  0  0  0  0  0
   58.2742   26.0611   44.3451 H   0  0  0  0  0  0  0  0  0  0  0  0
   56.9124   26.8047   43.4401 H   0  0  0  0  0  0  0  0  0  0  0  0
   58.5269   27.5920   43.4401 H   0  0  0  0  0  0  0  0  0  0  0  0
   59.1530   29.8540   45.6860 H   0  0  0  0  0  0  0  0  0  0  0  0
   56.7674   31.5667   43.1457 H   0  0  0  0  0  0  0  0  0  0  0  0
   58.6856   35.8343   44.6345 H   0  0  0  0  0  0  0  0  0  0  0  0
   60.2770   35.9360   46.5940 H   0  0  0  0  0  0  0  0  0  0  0  0
   62.6313   32.4733   47.4776 H   0  0  0  0  0  0  0  0  0  0  0  0
   63.0074   34.1931   47.2819 H   0  0  0  0  0  0  0  0  0  0  0  0
   63.2296   32.4546   49.7038 H   0  0  0  0  0  0  0  0  0  0  0  0
   64.0523   33.9879   49.3724 H   0  0  0  0  0  0  0  0  0  0  0  0
   61.9546   33.7026   51.1852 H   0  0  0  0  0  0  0  0  0  0  0  0
   62.3403   35.2435   50.4016 H   0  0  0  0  0  0  0  0  0  0  0  0
   60.1723   35.0748   49.4872 H   0  0  0  0  0  0  0  0  0  0  0  0
   60.2655   31.5470   48.5843 H   0  0  0  0  0  0  0  0  0  0  0  0
   57.4544   30.3932   51.6588 H   0  0  0  0  0  0  0  0  0  0  0  0
   57.6613   32.6503   52.7017 H   0  0  0  0  0  0  0  0  0  0  0  0
  1  2  1  0
  2  3  1  0
  3  4  1  0
  4  5  1  0
  5  6  1  0
  5  7  1  0
  7  8  2  0
  7  9  1  0
  9 10  1  0
 10 11  1  0
 11 12  2  0
 12 13  1  0
 13 14  1  0
 14 15  2  0
 15 16  1  0
 16 17  1  0
 17 18  1  0
 18 19  1  0
 19 20  1  0
 20 21  1  0
 21 22  1  0
 22 23  2  0
 23 24  1  0
 24 25  1  0
 24 26  2  0
 26 27  1  0
 27 28  2  0
 28 29  1  0
 16 30  2  0
 30 31  1  0
 31 10  2  0
 31 13  1  0
 21 17  1  0
 28 22  1  0
  1 32  1  0
  1 33  1  0
  1 34  1  0
  3 35  1  0
  3 36  1  0
  4 37  1  0
  4 38  1  0
  6 39  1  0
  6 40  1  0
  6 41  1  0
  9 42  1  0
 11 43  1  0
 14 44  1  0
 15 45  1  0
 18 46  1  0
 18 47  1  0
 19 48  1  0
 19 49  1  0
 20 50  1  0
 20 51  1  0
 21 52  1  6
 23 53  1  0
 26 54  1  0
 27 55  1  0
M  END
>  <UniqueID>  (27) 
27

>  <SMILES>  (27) 
COCCN(C)C(=O)Nc1cnn2ccc(N3CCC[C@@H]3c3cc(F)ccc3F)nc12

>  <Energy>  (27) 
97.78921328609974

>  <Genealogy>  (27) 
COCCN(C)C(=O)Nc1cnn2ccc(N3CCC[C@@H]3c3cc(F)ccc3F)nc12 (chirality)
COCCN(C)C(=O)Nc1cnn2ccc(N3CCC[C@@H]3c3cc(F)ccc3F)nc12 (3D coordinates assigned)
COCCN(C)C(=O)Nc1cnn2ccc(N3CCC[C@@H]3c3cc(F)ccc3F)nc12 (nonaromatic ring conformer: 97.78921328609974 kcal/mol)

>  <smiles>  (27) 
COCCN(C)C(=O)Nc1cnn2ccc(N3CCCC3c3cc(F)ccc3F)nc12

>  <score_type>  (27) 
oracle

>  <origin>  (27) 
adg

>  <m_score__min__energy>  (27) 
-8.5700000000000003

>  <m_primary>  (27) 
energy

$$$$
27:0
     RDKit          3D

 40 41  0  0  0  0  0  0  0  0999 V2000
   56.7849   34.8690   45.0395 H   0  0  0  0  0  0  0  0  0  0  0  0
   57.5940   34.1440   45.2120 C   0  0  0  0  0  0  0  0  0  0  0  0
   58.8490   34.6100   45.2910 C   0  0  0  0  0  0  0  0  0  0  0  0
   59.1870   35.2954   44.4999 H   0  0  0  0  0  0  0  0  0  0  0  0
   59.8130   34.2730   46.3600 C   0  0  0  0  0  0  0  0  0  0  0  0
   59.4630   34.5290   47.7110 C   0  0  0  0  0  0  0  0  0  0  0  0
   58.4735   34.9467   47.9485 H   0  0  0  0  0  0  0  0  0  0  0  0
   60.3710   34.2530   48.7490 C   0  0  0  0  0  0  0  0  0  0  0  0
   60.1027   34.4332   49.8004 H   0  0  0  0  0  0  0  0  0  0  0  0
   61.6190   33.7450   48.4040 C   0  0  0  0  0  0  0  0  0  0  0  0
   61.9710   33.5220   47.1140 C   0  0  0  0  0  0  0  0  0  0  0  0
   61.1040   33.7810   46.0560 C   0  0  0  0  0  0  0  0  0  0  0  0
   61.4136   33.6082   45.0147 H   0  0  0  0  0  0  0  0  0  0  0  0
   63.2620   33.0310   47.0660 O   0  0  0  0  0  0  0  0  0  0  0  0
   63.7480   32.9360   48.4120 C   0  0  0  0  0  0  0  0  0  0  0  0
   63.9984   31.8939   48.6595 H   0  0  0  0  0  0  0  0  0  0  0  0
   64.6646   33.5255   48.5617 H   0  0  0  0  0  0  0  0  0  0  0  0
   62.6690   33.4030   49.2330 O   0  0  0  0  0  0  0  0  0  0  0  0
   57.2300   32.7190   45.3420 C   0  0  0  0  0  0  0  0  0  0  0  0
   56.7749   32.3565   46.2755 H   0  0  0  0  0  0  0  0  0  0  0  0
   57.4480   31.8640   44.3360 C   0  0  0  0  0  0  0  0  0  0  0  0
   57.8168   32.2734   43.3840 H   0  0  0  0  0  0  0  0  0  0  0  0
   57.2250   30.4020   44.4210 C   0  0  0  0  0  0  0  0  0  0  0  0
   56.0900   30.0100   44.8120 O   0  0  0  0  0  0  0  0  0  0  0  0
   58.2590   29.4310   44.0940 N   0  0  0  0  0  0  0  0  0  0  0  0
   58.5200   29.5480   43.0870 H   0  0  0  0  0  0  0  0  0  0  0  0
   59.4930   29.6810   44.8790 C   0  0  0  0  0  0  0  0  0  0  0  0
   59.9647   30.5977   44.4953 H   0  0  0  0  0  0  0  0  0  0  0  0
   60.1262   28.7895   44.7595 H   0  0  0  0  0  0  0  0  0  0  0  0
   59.2630   29.8550   46.3880 C   0  0  0  0  0  0  0  0  0  0  0  0
   60.0205   29.2819   46.9428 H   0  0  0  0  0  0  0  0  0  0  0  0
   59.3438   30.9201   46.6508 H   0  0  0  0  0  0  0  0  0  0  0  0
   58.2600   29.4875   46.6508 H   0  0  0  0  0  0  0  0  0  0  0  0
   57.7840   28.0300   44.2290 C   0  0  0  0  0  0  0  0  0  0  0  0
   58.2431   27.5840   45.1236 H   0  0  0  0  0  0  0  0  0  0  0  0
   56.6873   28.0496   44.3122 H   0  0  0  0  0  0  0  0  0  0  0  0
   58.1510   27.1790   43.0080 C   0  0  0  0  0  0  0  0  0  0  0  0
   58.5659   26.2169   43.3430 H   0  0  0  0  0  0  0  0  0  0  0  0
   57.2505   26.9990   42.4024 H   0  0  0  0  0  0  0  0  0  0  0  0
   58.8999   27.7104   42.4024 H   0  0  0  0  0  0  0  0  0  0  0  0
  1  2  1  0
  2  3  2  0
  3  4  1  0
  3  5  1  0
  5  6  2  0
  6  7  1  0
  6  8  1  0
  8  9  1  0
  8 10  2  0
 10 11  1  0
 11 12  2  0
 12 13  1  0
 11 14  1  0
 14 15  1  0
 15 16  1  0
 15 17  1  0
 15 18  1  0
  2 19  1  0
 19 20  1  0
 19 21  2  0
 21 22  1  0
 21 23  1  0
 23 24  2  0
 23 25  1  0
 25 26  1  0
 25 27  1  0
 27 28  1  0
 27 29  1  0
 27 30  1  0
 30 31  1  0
 30 32  1  0
 30 33  1  0
 25 34  1  0
 34 35  1  0
 34 36  1  0
 34 37  1  0
 37 38  1  0
 37 39  1  0
 37 40  1  0
 12  5  1  0
 18 10  1  0
M  CHG  1  25   1
M  END
>  <UniqueID>  (28) 
28

>  <SMILES>  (28) 
CC[NH+](CC)C(=O)/C=C/C=Cc1ccc2c(c1)OCO2

>  <Energy>  (28) 
73.94670908837722

>  <Genealogy>  (28) 
CC[NH+](CC)C(=O)C=CC=Cc1ccc2c(c1)OCO2 (protonated)
CC[NH+](CC)C(=O)/C=C/C=Cc1ccc2c(c1)OCO2 (cis-trans isomerization)
CC[NH+](CC)C(=O)/C=C/C=Cc1ccc2c(c1)OCO2 (3D coordinates assigned)
CC[NH+](CC)C(=O)/C=C/C=Cc1ccc2c(c1)OCO2 (nonaromatic ring conformer: 73.94670908837722 kcal/mol)

>  <smiles>  (28) 
CCN(CC)C(=O)C=CC=Cc1ccc2c(c1)OCO2

>  <score_type>  (28) 
oracle

>  <origin>  (28) 
adg

>  <m_score__min__energy>  (28) 
-5.6799999999999997

>  <m_primary>  (28) 
energy

$$$$
28:0
     RDKit          3D

 50 52  0  0  0  0  0  0  0  0999 V2000
   63.2890   33.8480   46.3750 C   0  0  0  0  0  0  0  0  0  0  0  0
   63.9550   32.8750   47.2580 N   0  0  0  0  0  0  0  0  0  0  0  0
   63.2860   31.5650   47.1500 C   0  0  0  0  0  0  0  0  0  0  0  0
   63.9480   33.3760   48.6540 C   0  0  0  0  0  0  0  0  0  0  0  0
   62.7760   34.3430   48.9260 C   0  0  0  0  0  0  0  0  0  0  0  0
   61.6960   33.7080   49.8260 C   0  0  0  0  0  0  0  0  0  0  0  0
   60.4510   33.4610   49.0820 N   0  0  0  0  0  0  0  0  0  0  0  0
   59.6350   34.5800   48.5940 C   0  0  0  0  0  0  0  0  0  0  0  0
   59.0730   34.2490   47.2390 C   0  0  0  0  0  0  0  0  0  0  0  0
   59.7970   34.5690   46.0790 C   0  0  0  0  0  0  0  0  0  0  0  0
   59.3040   34.2120   44.8200 C   0  0  0  0  0  0  0  0  0  0  0  0
   58.0920   33.5240   44.7130 C   0  0  0  0  0  0  0  0  0  0  0  0
   57.3730   33.1900   45.8630 C   0  0  0  0  0  0  0  0  0  0  0  0
   57.8620   33.5460   47.1240 C   0  0  0  0  0  0  0  0  0  0  0  0
   60.0380   32.1130   48.8010 C   0  0  0  0  0  0  0  0  0  0  0  0
   59.3140   31.3780   49.7410 C   0  0  0  0  0  0  0  0  0  0  0  0
   58.9110   30.0800   49.4200 C   0  0  0  0  0  0  0  0  0  0  0  0
   58.2600   29.4190   50.2760 O   0  0  0  0  0  0  0  0  0  0  0  0
   59.2230   29.5390   48.1960 N   0  0  0  0  0  0  0  0  0  0  0  0
   58.8360   28.2630   47.8710 C   0  0  0  0  0  0  0  0  0  0  0  0
   59.1600   27.7140   46.6270 C   0  0  0  0  0  0  0  0  0  0  0  0
   58.6150   25.9370   46.1870 Br  0  0  0  0  0  0  0  0  0  0  0  0
   59.8810   28.4730   45.7070 C   0  0  0  0  0  0  0  0  0  0  0  0
   60.2730   29.7670   46.0360 C   0  0  0  0  0  0  0  0  0  0  0  0
   59.9360   30.2930   47.2880 C   0  0  0  0  0  0  0  0  0  0  0  0
   60.3240   31.5560   47.5990 N   0  0  0  0  0  0  0  0  0  0  0  0
   62.7721   34.6032   46.9853 H   0  0  0  0  0  0  0  0  0  0  0  0
   64.0399   34.3410   45.7401 H   0  0  0  0  0  0  0  0  0  0  0  0
   62.5576   33.3264   45.7401 H   0  0  0  0  0  0  0  0  0  0  0  0
   64.9460   32.7750   46.9290 H   0  0  0  0  0  0  0  0  0  0  0  0
   63.0851   31.1717   48.1575 H   0  0  0  0  0  0  0  0  0  0  0  0
   62.3371   31.6816   46.6060 H   0  0  0  0  0  0  0  0  0  0  0  0
   63.9368   30.8647   46.6060 H   0  0  0  0  0  0  0  0  0  0  0  0
   63.8637   32.5178   49.3369 H   0  0  0  0  0  0  0  0  0  0  0  0
   64.8845   33.9298   48.8164 H   0  0  0  0  0  0  0  0  0  0  0  0
   63.1670   35.2433   49.4226 H   0  0  0  0  0  0  0  0  0  0  0  0
   62.3099   34.5900   47.9607 H   0  0  0  0  0  0  0  0  0  0  0  0
   62.0739   32.7521   50.2177 H   0  0  0  0  0  0  0  0  0  0  0  0
   61.4751   34.4073   50.6459 H   0  0  0  0  0  0  0  0  0  0  0  0
   58.8090   34.7632   49.2969 H   0  0  0  0  0  0  0  0  0  0  0  0
   60.2627   35.4800   48.5164 H   0  0  0  0  0  0  0  0  0  0  0  0
   60.7555   35.1025   46.1610 H   0  0  0  0  0  0  0  0  0  0  0  0
   59.8702   34.4727   43.9136 H   0  0  0  0  0  0  0  0  0  0  0  0
   57.7040   33.2453   43.7221 H   0  0  0  0  0  0  0  0  0  0  0  0
   56.4207   32.6462   45.7767 H   0  0  0  0  0  0  0  0  0  0  0  0
   57.2970   33.2749   48.0281 H   0  0  0  0  0  0  0  0  0  0  0  0
   59.0647   31.8144   50.7195 H   0  0  0  0  0  0  0  0  0  0  0  0
   58.2648   27.6660   48.5972 H   0  0  0  0  0  0  0  0  0  0  0  0
   60.1392   28.0508   44.7246 H   0  0  0  0  0  0  0  0  0  0  0  0
   60.8440   30.3723   45.3166 H   0  0  0  0  0  0  0  0  0  0  0  0
  1  2  1  0
  2  3  1  0
  2  4  1  0
  4  5  1  0
  5  6  1  0
  6  7  1  0
  7  8  1  0
  8  9  1  0
  9 10  2  0
 10 11  1  0
 11 12  2  0
 12 13  1  0
 13 14  2  0
  7 15  1  0
 15 16  2  0
 16 17  1  0
 17 18  2  0
 17 19  1  0
 19 20  1  0
 20 21  2  0
 21 22  1  0
 21 23  1  0
 23 24  2  0
 24 25  1  0
 25 26  2  0
 14  9  1  0
 26 15  1  0
 25 19  1  0
  1 27  1  0
  1 28  1  0
  1 29  1  0
  2 30  1  0
  3 31  1  0
  3 32  1  0
  3 33  1  0
  4 34  1  0
  4 35  1  0
  5 36  1  0
  5 37  1  0
  6 38  1  0
  6 39  1  0
  8 40  1  0
  8 41  1  0
 10 42  1  0
 11 43  1  0
 12 44  1  0
 13 45  1  0
 14 46  1  0
 16 47  1  0
 20 48  1  0
 23 49  1  0
 24 50  1  0
M  CHG  1   2   1
M  END
>  <UniqueID>  (29) 
29

>  <SMILES>  (29) 
C[NH+](C)CCCN(Cc1ccccc1)c1cc(=O)n2cc(Br)ccc2n1

>  <Energy>  (29) 
57.982231128501034

>  <Genealogy>  (29) 
C[NH+](C)CCCN(Cc1ccccc1)c1cc(=O)n2cc(Br)ccc2n1 (protonated)
C[NH+](C)CCCN(Cc1ccccc1)c1cc(=O)n2cc(Br)ccc2n1 (3D coordinates assigned)
C[NH+](C)CCCN(Cc1ccccc1)c1cc(=O)n2cc(Br)ccc2n1 (optimized conformer: 57.982231128501034 kcal/mol)

>  <smiles>  (29) 
CN(C)CCCN(Cc1ccccc1)c1cc(=O)n2cc(Br)ccc2n1

>  <score_type>  (29) 
oracle

>  <origin>  (29) 
adg

>  <m_score__min__energy>  (29) 
-6.6299999999999999

>  <m_primary>  (29) 
energy

$$$$
29:0
     RDKit          3D

 24 26  0  0  0  0  0  0  0  0999 V2000
   59.8970   36.4400   45.6240 F   0  0  0  0  0  0  0  0  0  0  0  0
   59.5860   35.1430   45.8680 C   0  0  0  0  0  0  0  0  0  0  0  0
   59.9330   34.5600   47.0990 C   0  0  0  0  0  0  0  0  0  0  0  0
   59.6140   33.2190   47.3600 C   0  0  0  0  0  0  0  0  0  0  0  0
   58.9510   32.4760   46.3810 C   0  0  0  0  0  0  0  0  0  0  0  0
   58.6060   33.0520   45.1680 C   0  0  0  0  0  0  0  0  0  0  0  0
   58.9180   34.3900   44.8920 C   0  0  0  0  0  0  0  0  0  0  0  0
   57.9240   32.0930   44.3150 C   0  0  0  0  0  0  0  0  0  0  0  0
   57.5510   32.3030   43.0840 N   0  0  0  0  0  0  0  0  0  0  0  0
   57.0200   31.2190   42.2460 C   0  0  0  0  0  0  0  0  0  0  0  0
   56.3450   30.1160   43.0810 C   0  0  0  0  0  0  0  0  0  0  0  0
   57.2660   29.6680   44.2190 C   0  0  0  0  0  0  0  0  0  0  0  0
   57.7260   30.8380   44.9560 N   0  0  0  0  0  0  0  0  0  0  0  0
   58.4710   30.7500   46.5630 S   0  0  0  0  0  0  0  0  0  0  0  0
   60.4564   35.1572   47.8602 H   0  0  0  0  0  0  0  0  0  0  0  0
   59.8824   32.7592   48.3225 H   0  0  0  0  0  0  0  0  0  0  0  0
   58.6438   34.8413   43.9271 H   0  0  0  0  0  0  0  0  0  0  0  0
   57.7300   33.2240   42.6280 H   0  0  0  0  0  0  0  0  0  0  0  0
   56.2794   31.6397   41.5499 H   0  0  0  0  0  0  0  0  0  0  0  0
   57.8641   30.7651   41.7061 H   0  0  0  0  0  0  0  0  0  0  0  0
   55.4077   30.5052   43.5053 H   0  0  0  0  0  0  0  0  0  0  0  0
   56.1366   29.2537   42.4306 H   0  0  0  0  0  0  0  0  0  0  0  0
   56.7141   29.0003   44.8970 H   0  0  0  0  0  0  0  0  0  0  0  0
   58.1313   29.1313   43.8028 H   0  0  0  0  0  0  0  0  0  0  0  0
  1  2  1  0
  2  3  2  0
  3  4  1  0
  4  5  2  0
  5  6  1  0
  6  7  2  0
  6  8  1  0
  8  9  2  0
  9 10  1  0
 10 11  1  0
 11 12  1  0
 12 13  1  0
 13 14  1  0
  7  2  1  0
 13  8  1  0
 14  5  1  0
  3 15  1  0
  4 16  1  0
  7 17  1  0
  9 18  1  0
 10 19  1  0
 10 20  1  0
 11 21  1  0
 11 22  1  0
 12 23  1  0
 12 24  1  0
M  CHG  1   9   1
M  END
>  <UniqueID>  (30) 
30

>  <SMILES>  (30) 
Fc1ccc2c(c1)C1=[NH+]CCCN1S2

>  <Energy>  (30) 
47.12695094588227

>  <Genealogy>  (30) 
Fc1ccc2c(c1)C1=[NH+]CCCN1S2 (protonated)
Fc1ccc2c(c1)C1=[NH+]CCCN1S2 (3D coordinates assigned)
Fc1ccc2c(c1)C1=[NH+]CCCN1S2 (nonaromatic ring conformer: 47.12695094588227 kcal/mol)

>  <smiles>  (30) 
Fc1ccc2c(c1)C1=NCCCN1S2

>  <score_type>  (30) 
oracle

>  <origin>  (30) 
adg

>  <m_score__min__energy>  (30) 
-4.25

>  <m_primary>  (30) 
energy

$$$$
30:0
     RDKit          3D

 43 46  0  0  0  0  0  0  0  0999 V2000
   57.6580   32.3770   42.2040 O   0  0  0  0  0  0  0  0  0  0  0  0
   57.7050   32.2160   43.4520 C   0  0  0  0  0  0  0  0  0  0  0  0
   57.8720   33.3680   44.2880 N   0  0  0  0  0  0  0  0  0  0  0  0
   58.4200   33.3570   45.6100 C   0  0  0  0  0  0  0  0  0  0  0  0
   59.7770   33.3660   45.8900 C   0  0  0  0  0  0  0  0  0  0  0  0
   60.0530   33.4360   47.2680 C   0  0  0  0  0  0  0  0  0  0  0  0
   61.4300   33.4490   47.8240 C   0  0  0  0  0  0  0  0  0  0  0  0
   62.5260   33.0850   47.0230 C   0  0  0  0  0  0  0  0  0  0  0  0
   63.8120   33.0990   47.5640 C   0  0  0  0  0  0  0  0  0  0  0  0
   64.0020   33.4740   48.8930 C   0  0  0  0  0  0  0  0  0  0  0  0
   62.8970   33.8330   49.6650 C   0  0  0  0  0  0  0  0  0  0  0  0
   61.6470   33.8150   49.1250 N   0  0  0  0  0  0  0  0  0  0  0  0
   58.9000   33.5000   48.0540 C   0  0  0  0  0  0  0  0  0  0  0  0
   57.5530   33.4710   47.0470 S   0  0  0  0  0  0  0  0  0  0  0  0
   57.6410   30.8450   44.0090 C   0  0  0  0  0  0  0  0  0  0  0  0
   58.8110   30.2090   44.4550 C   0  0  0  0  0  0  0  0  0  0  0  0
   58.7560   28.9180   44.9890 C   0  0  0  0  0  0  0  0  0  0  0  0
   57.5280   28.2450   45.1060 C   0  0  0  0  0  0  0  0  0  0  0  0
   57.4680   26.9070   45.6420 N   0  0  0  0  0  0  0  0  0  0  0  0
   58.6120   26.0180   45.7740 C   0  0  0  0  0  0  0  0  0  0  0  0
   58.1240   24.8160   46.6020 C   0  0  0  0  0  0  0  0  0  0  0  0
   56.5930   24.8980   46.6550 C   0  0  0  0  0  0  0  0  0  0  0  0
   56.3070   26.2370   46.1040 C   0  0  0  0  0  0  0  0  0  0  0  0
   55.1430   26.7040   45.9910 O   0  0  0  0  0  0  0  0  0  0  0  0
   56.3590   28.8850   44.6630 C   0  0  0  0  0  0  0  0  0  0  0  0
   56.4130   30.1750   44.1300 C   0  0  0  0  0  0  0  0  0  0  0  0
   60.5572   33.3229   45.1158 H   0  0  0  0  0  0  0  0  0  0  0  0
   62.3707   32.7905   45.9746 H   0  0  0  0  0  0  0  0  0  0  0  0
   64.6742   32.8147   46.9430 H   0  0  0  0  0  0  0  0  0  0  0  0
   65.0122   33.4867   49.3282 H   0  0  0  0  0  0  0  0  0  0  0  0
   63.0360   34.1319   50.7145 H   0  0  0  0  0  0  0  0  0  0  0  0
   60.8510   34.1110   49.7320 H   0  0  0  0  0  0  0  0  0  0  0  0
   58.8767   33.5596   49.1521 H   0  0  0  0  0  0  0  0  0  0  0  0
   59.7772   30.7300   44.3837 H   0  0  0  0  0  0  0  0  0  0  0  0
   59.6818   28.4250   45.3203 H   0  0  0  0  0  0  0  0  0  0  0  0
   58.9536   25.6854   44.7827 H   0  0  0  0  0  0  0  0  0  0  0  0
   59.4600   26.5231   46.2595 H   0  0  0  0  0  0  0  0  0  0  0  0
   58.4354   23.8761   46.1228 H   0  0  0  0  0  0  0  0  0  0  0  0
   58.5530   24.8375   47.6147 H   0  0  0  0  0  0  0  0  0  0  0  0
   56.1344   24.1114   46.0378 H   0  0  0  0  0  0  0  0  0  0  0  0
   56.1883   24.7531   47.6675 H   0  0  0  0  0  0  0  0  0  0  0  0
   55.3921   28.3657   44.7364 H   0  0  0  0  0  0  0  0  0  0  0  0
   55.4866   30.6697   43.8026 H   0  0  0  0  0  0  0  0  0  0  0  0
  1  2  2  0
  2  3  1  0
  3  4  1  0
  4  5  2  0
  5  6  1  0
  6  7  1  0
  7  8  2  0
  8  9  1  0
  9 10  2  0
 10 11  1  0
 11 12  2  0
  6 13  2  0
 13 14  1  0
  2 15  1  0
 15 16  2  0
 16 17  1  0
 17 18  2  0
 18 19  1  0
 19 20  1  0
 20 21  1  0
 21 22  1  0
 22 23  1  0
 23 24  2  0
 18 25  1  0
 25 26  2  0
 14  4  1  0
 26 15  1  0
 12  7  1  0
 23 19  1  0
  5 27  1  0
  8 28  1  0
  9 29  1  0
 10 30  1  0
 11 31  1  0
 12 32  1  0
 13 33  1  0
 16 34  1  0
 17 35  1  0
 20 36  1  0
 20 37  1  0
 21 38  1  0
 21 39  1  0
 22 40  1  0
 22 41  1  0
 25 42  1  0
 26 43  1  0
M  CHG  2   3  -1  12   1
M  END
>  <UniqueID>  (31) 
31

>  <SMILES>  (31) 
O=C([N-]c1cc(-c2cccc[nH+]2)cs1)c1ccc(N2CCCC2=O)cc1

>  <Energy>  (31) 
93.07128435227598

>  <Genealogy>  (31) 
O=C([N-]c1cc(-c2cccc[nH+]2)cs1)c1ccc(N2CCCC2=O)cc1 (protonated)
O=C([N-]c1cc(-c2cccc[nH+]2)cs1)c1ccc(N2CCCC2=O)cc1 (3D coordinates assigned)
O=C([N-]c1cc(-c2cccc[nH+]2)cs1)c1ccc(N2CCCC2=O)cc1 (nonaromatic ring conformer: 93.07128435227598 kcal/mol)

>  <smiles>  (31) 
O=C(Nc1cc(-c2ccccn2)cs1)c1ccc(N2CCCC2=O)cc1

>  <score_type>  (31) 
oracle

>  <origin>  (31) 
adg

>  <m_score__min__energy>  (31) 
-8.5500000000000007

>  <m_primary>  (31) 
energy

$$$$
31:0
     RDKit          3D

 50 52  0  0  0  0  0  0  0  0999 V2000
   57.8750   26.3960   44.7080 C   0  0  0  0  0  0  0  0  0  0  0  0
   58.6620   27.5020   45.3460 C   0  0  0  0  0  0  0  0  0  0  0  0
   58.4100   27.8730   46.6750 C   0  0  0  0  0  0  0  0  0  0  0  0
   59.1170   28.9280   47.2580 C   0  0  0  0  0  0  0  0  0  0  0  0
   60.0720   29.6410   46.5140 C   0  0  0  0  0  0  0  0  0  0  0  0
   60.8050   30.7720   47.1180 C   0  0  0  0  0  0  0  0  0  0  0  0
   60.2910   31.5690   48.0810 N   0  0  0  0  0  0  0  0  0  0  0  0
   61.2780   32.4550   48.3160 C   0  0  0  0  0  0  0  0  0  0  0  0
   61.1380   33.6200   49.2520 C   0  0  0  0  0  0  0  0  0  0  0  0
   60.0070   34.5650   48.8220 C   0  0  0  0  0  0  0  0  0  0  0  0
   59.2450   34.0160   47.7000 N   0  0  0  0  0  0  0  0  0  0  0  0
   59.1000   34.7010   46.4480 C   0  0  0  0  0  0  0  0  0  0  0  0
   59.7340   35.7710   46.2350 O   0  0  0  0  0  0  0  0  0  0  0  0
   58.1180   34.1880   45.4220 C   0  0  0  0  0  0  0  0  0  0  0  0
   57.2120   33.0610   45.9890 C   0  0  0  0  0  0  0  0  0  0  0  0
   57.7250   31.6660   45.6130 C   0  0  0  0  0  0  0  0  0  0  0  0
   57.7830   31.4730   44.0830 C   0  0  0  0  0  0  0  0  0  0  0  0
   58.0680   32.7740   43.3080 C   0  0  0  0  0  0  0  0  0  0  0  0
   58.8830   33.7630   44.1460 C   0  0  0  0  0  0  0  0  0  0  0  0
   62.3450   32.1680   47.4890 C   0  0  0  0  0  0  0  0  0  0  0  0
   63.6350   32.9120   47.3720 C   0  0  0  0  0  0  0  0  0  0  0  0
   62.0220   31.1270   46.7630 O   0  0  0  0  0  0  0  0  0  0  0  0
   60.3120   29.2760   45.1800 C   0  0  0  0  0  0  0  0  0  0  0  0
   59.6070   28.2190   44.5980 C   0  0  0  0  0  0  0  0  0  0  0  0
   57.4268   25.7662   45.4906 H   0  0  0  0  0  0  0  0  0  0  0  0
   57.0787   26.8261   44.0827 H   0  0  0  0  0  0  0  0  0  0  0  0
   58.5423   25.7846   44.0827 H   0  0  0  0  0  0  0  0  0  0  0  0
   57.6527   27.3313   47.2607 H   0  0  0  0  0  0  0  0  0  0  0  0
   58.9246   29.2019   48.3058 H   0  0  0  0  0  0  0  0  0  0  0  0
   60.9209   33.2413   50.2617 H   0  0  0  0  0  0  0  0  0  0  0  0
   62.0809   34.1863   49.2361 H   0  0  0  0  0  0  0  0  0  0  0  0
   59.3278   34.7197   49.6733 H   0  0  0  0  0  0  0  0  0  0  0  0
   60.4563   35.5162   48.5006 H   0  0  0  0  0  0  0  0  0  0  0  0
   58.7740   33.0920   47.8300 H   0  0  0  0  0  0  0  0  0  0  0  0
   57.4275   35.0004   45.1516 H   0  0  0  0  0  0  0  0  0  0  0  0
   57.1847   33.1455   47.0854 H   0  0  0  0  0  0  0  0  0  0  0  0
   56.2086   33.1818   45.5548 H   0  0  0  0  0  0  0  0  0  0  0  0
   58.7353   31.5339   46.0276 H   0  0  0  0  0  0  0  0  0  0  0  0
   57.0289   30.9214   46.0266 H   0  0  0  0  0  0  0  0  0  0  0  0
   58.5795   30.7498   43.8536 H   0  0  0  0  0  0  0  0  0  0  0  0
   56.7917   31.1182   43.7646 H   0  0  0  0  0  0  0  0  0  0  0  0
   58.6320   32.5297   42.3957 H   0  0  0  0  0  0  0  0  0  0  0  0
   57.1051   33.2448   43.0607 H   0  0  0  0  0  0  0  0  0  0  0  0
   59.8308   33.2876   44.4388 H   0  0  0  0  0  0  0  0  0  0  0  0
   59.0675   34.6611   43.5383 H   0  0  0  0  0  0  0  0  0  0  0  0
   64.0220   33.1352   48.3772 H   0  0  0  0  0  0  0  0  0  0  0  0
   64.3652   32.2963   46.8263 H   0  0  0  0  0  0  0  0  0  0  0  0
   63.4677   33.8524   46.8263 H   0  0  0  0  0  0  0  0  0  0  0  0
   61.0596   29.8254   44.5891 H   0  0  0  0  0  0  0  0  0  0  0  0
   59.7942   27.9482   43.5484 H   0  0  0  0  0  0  0  0  0  0  0  0
  1  2  1  0
  2  3  2  0
  3  4  1  0
  4  5  2  0
  5  6  1  0
  6  7  2  0
  7  8  1  0
  8  9  1  0
  9 10  1  0
 10 11  1  0
 11 12  1  0
 12 13  2  0
 12 14  1  0
 14 15  1  0
 15 16  1  0
 16 17  1  0
 17 18  1  0
 18 19  1  0
  8 20  2  0
 20 21  1  0
 20 22  1  0
  5 23  1  0
 23 24  2  0
 24  2  1  0
 22  6  1  0
 19 14  1  0
  1 25  1  0
  1 26  1  0
  1 27  1  0
  3 28  1  0
  4 29  1  0
  9 30  1  0
  9 31  1  0
 10 32  1  0
 10 33  1  0
 11 34  1  0
 14 35  1  0
 15 36  1  0
 15 37  1  0
 16 38  1  0
 16 39  1  0
 17 40  1  0
 17 41  1  0
 18 42  1  0
 18 43  1  0
 19 44  1  0
 19 45  1  0
 21 46  1  0
 21 47  1  0
 21 48  1  0
 23 49  1  0
 24 50  1  0
M  END
>  <UniqueID>  (32) 
32

>  <SMILES>  (32) 
Cc1ccc(-c2nc(CCNC(=O)C3CCCCC3)c(C)o2)cc1

>  <Energy>  (32) 
72.03210913496893

>  <Genealogy>  (32) 
Cc1ccc(-c2nc(CCNC(=O)C3CCCCC3)c(C)o2)cc1 (3D coordinates assigned)
Cc1ccc(-c2nc(CCNC(=O)C3CCCCC3)c(C)o2)cc1 (nonaromatic ring conformer: 72.03210913496893 kcal/mol)

>  <smiles>  (32) 
Cc1ccc(-c2nc(CCNC(=O)C3CCCCC3)c(C)o2)cc1

>  <score_type>  (32) 
oracle

>  <origin>  (32) 
adg

>  <m_score__min__energy>  (32) 
-7.8399999999999999

>  <m_primary>  (32) 
energy

$$$$
32:0
     RDKit          3D

 28 30  0  0  0  0  0  0  0  0999 V2000
   56.8370   27.5710   42.9220 H   0  0  0  0  0  0  0  0  0  0  0  0
   57.3750   28.4390   43.1330 N   0  0  0  0  0  0  0  0  0  0  0  0
   57.3110   29.0580   44.2730 C   0  0  0  0  0  0  0  0  0  0  0  0
   57.4570   30.5280   44.3420 C   0  0  0  0  0  0  0  0  0  0  0  0
   57.3560   31.2280   45.4950 N   0  0  0  0  0  0  0  0  0  0  0  0
   57.5330   32.5630   45.3030 C   0  0  0  0  0  0  0  0  0  0  0  0
   57.4841   33.2891   46.1279 H   0  0  0  0  0  0  0  0  0  0  0  0
   57.7800   32.9430   43.9900 C   0  0  0  0  0  0  0  0  0  0  0  0
   57.9498   33.9696   43.6332 H   0  0  0  0  0  0  0  0  0  0  0  0
   57.7730   31.5540   43.0440 S   0  0  0  0  0  0  0  0  0  0  0  0
   57.0420   28.3170   45.4760 N   0  0  0  0  0  0  0  0  0  0  0  0
   56.6670   28.8380   46.3000 H   0  0  0  0  0  0  0  0  0  0  0  0
   57.1700   26.8880   45.5860 C   0  0  0  0  0  0  0  0  0  0  0  0
   58.4280   26.2690   45.4730 C   0  0  0  0  0  0  0  0  0  0  0  0
   59.3205   26.8812   45.2764 H   0  0  0  0  0  0  0  0  0  0  0  0
   58.5550   24.8850   45.6080 C   0  0  0  0  0  0  0  0  0  0  0  0
   59.5435   24.4129   45.5082 H   0  0  0  0  0  0  0  0  0  0  0  0
   57.4280   24.0960   45.8700 C   0  0  0  0  0  0  0  0  0  0  0  0
   57.5460   22.7070   46.0080 C   0  0  0  0  0  0  0  0  0  0  0  0
   58.5277   22.2212   45.9069 H   0  0  0  0  0  0  0  0  0  0  0  0
   56.4070   21.9440   46.2750 C   0  0  0  0  0  0  0  0  0  0  0  0
   56.4905   20.8525   46.3827 H   0  0  0  0  0  0  0  0  0  0  0  0
   55.1960   22.5470   46.4020 N   0  0  0  0  0  0  0  0  0  0  0  0
   55.0460   23.8920   46.2760 C   0  0  0  0  0  0  0  0  0  0  0  0
   54.0495   24.3446   46.3858 H   0  0  0  0  0  0  0  0  0  0  0  0
   56.1590   24.7070   46.0060 C   0  0  0  0  0  0  0  0  0  0  0  0
   56.0380   26.1030   45.8670 C   0  0  0  0  0  0  0  0  0  0  0  0
   54.7920   26.7140   45.9990 O   0  0  0  0  0  0  0  0  0  0  0  0
  1  2  1  0
  2  3  2  0
  3  4  1  0
  4  5  2  0
  5  6  1  0
  6  7  1  0
  6  8  2  0
  8  9  1  0
  8 10  1  0
  3 11  1  0
 11 12  1  0
 11 13  1  0
 13 14  2  0
 14 15  1  0
 14 16  1  0
 16 17  1  0
 16 18  2  0
 18 19  1  0
 19 20  1  0
 19 21  2  0
 21 22  1  0
 21 23  1  0
 23 24  2  0
 24 25  1  0
 24 26  1  0
 26 27  2  0
 27 28  1  0
 10  4  1  0
 27 13  1  0
 26 18  1  0
M  CHG  1  28  -1
M  END
>  <UniqueID>  (33) 
33

>  <SMILES>  (33) 
[H]/N=C(/Nc1ccc2ccncc2c1[O-])c1nccs1

>  <Energy>  (33) 
69.67041371956789

>  <Genealogy>  (33) 
N=C(Nc1ccc2ccncc2c1[O-])c1nccs1 (protonated)
[H]/N=C(/Nc1ccc2ccncc2c1[O-])c1nccs1 (cis-trans isomerization)
[H]/N=C(/Nc1ccc2ccncc2c1[O-])c1nccs1 (3D coordinates assigned)
[H]/N=C(/Nc1ccc2ccncc2c1[O-])c1nccs1 (optimized conformer: 69.67041371956789 kcal/mol)

>  <smiles>  (33) 
N=C(Nc1ccc2ccncc2c1O)c1nccs1

>  <score_type>  (33) 
oracle

>  <origin>  (33) 
adg

>  <m_score__min__energy>  (33) 
-10.52

>  <m_primary>  (33) 
energy

$$$$
33:0
     RDKit          3D

 36 38  0  0  0  0  0  0  0  0999 V2000
   56.2860   29.8490   42.7550 C   0  0  0  0  0  0  0  0  0  0  0  0
   56.2680   29.9620   44.2460 C   0  0  0  0  0  0  0  0  0  0  0  0
   55.2520   29.5460   44.8670 O   0  0  0  0  0  0  0  0  0  0  0  0
   57.3920   30.5380   45.0210 C   0  0  0  0  0  0  0  0  0  0  0  0
   58.2180   29.8080   45.8690 C   0  0  0  0  0  0  0  0  0  0  0  0
   59.1700   30.5950   46.4430 N   0  0  0  0  0  0  0  0  0  0  0  0
   60.1850   30.1960   47.4550 C   0  0  0  0  0  0  0  0  0  0  0  0
   61.3270   31.1340   47.3860 C   0  0  0  0  0  0  0  0  0  0  0  0
   62.2210   31.8680   47.3330 N   0  0  0  0  0  0  0  0  0  0  0  0
   60.7600   28.7710   47.1950 C   0  0  0  0  0  0  0  0  0  0  0  0
   59.9190   27.7040   47.9200 C   0  0  0  0  0  0  0  0  0  0  0  0
   59.9070   27.8400   49.3370 O   0  0  0  0  0  0  0  0  0  0  0  0
   60.1200   29.1690   49.7980 C   0  0  0  0  0  0  0  0  0  0  0  0
   59.5380   30.2480   48.8680 C   0  0  0  0  0  0  0  0  0  0  0  0
   58.9100   31.8420   45.9720 C   0  0  0  0  0  0  0  0  0  0  0  0
   59.5570   32.9940   46.3120 N   0  0  0  0  0  0  0  0  0  0  0  0
   59.1550   34.1800   45.7670 C   0  0  0  0  0  0  0  0  0  0  0  0
   58.0710   34.2230   44.8700 C   0  0  0  0  0  0  0  0  0  0  0  0
   57.3960   33.0410   44.5330 C   0  0  0  0  0  0  0  0  0  0  0  0
   57.8460   31.8470   45.1010 C   0  0  0  0  0  0  0  0  0  0  0  0
   56.4531   28.8001   42.4688 H   0  0  0  0  0  0  0  0  0  0  0  0
   55.3221   30.1906   42.3497 H   0  0  0  0  0  0  0  0  0  0  0  0
   57.0961   30.4732   42.3497 H   0  0  0  0  0  0  0  0  0  0  0  0
   58.1152   28.7284   46.0533 H   0  0  0  0  0  0  0  0  0  0  0  0
   60.7468   28.5680   46.1140 H   0  0  0  0  0  0  0  0  0  0  0  0
   61.7902   28.7300   47.5785 H   0  0  0  0  0  0  0  0  0  0  0  0
   58.8830   27.7748   47.5570 H   0  0  0  0  0  0  0  0  0  0  0  0
   60.3803   26.7304   47.6978 H   0  0  0  0  0  0  0  0  0  0  0  0
   59.6499   29.2729   50.7870 H   0  0  0  0  0  0  0  0  0  0  0  0
   61.2081   29.3268   49.8313 H   0  0  0  0  0  0  0  0  0  0  0  0
   58.4541   30.0881   48.7703 H   0  0  0  0  0  0  0  0  0  0  0  0
   59.7519   31.2332   49.3081 H   0  0  0  0  0  0  0  0  0  0  0  0
   60.3520   33.0030   46.9840 H   0  0  0  0  0  0  0  0  0  0  0  0
   59.6823   35.1086   46.0310 H   0  0  0  0  0  0  0  0  0  0  0  0
   57.7540   35.1820   44.4342 H   0  0  0  0  0  0  0  0  0  0  0  0
   56.5393   33.0537   43.8432 H   0  0  0  0  0  0  0  0  0  0  0  0
  1  2  1  0
  2  3  2  0
  2  4  1  0
  4  5  2  0
  5  6  1  0
  6  7  1  0
  7  8  1  0
  8  9  3  0
  7 10  1  0
 10 11  1  0
 11 12  1  0
 12 13  1  0
 13 14  1  0
  6 15  1  0
 15 16  2  0
 16 17  1  0
 17 18  2  0
 18 19  1  0
 19 20  2  0
 20  4  1  0
 14  7  1  0
 20 15  1  0
  1 21  1  0
  1 22  1  0
  1 23  1  0
  5 24  1  0
 10 25  1  0
 10 26  1  0
 11 27  1  0
 11 28  1  0
 13 29  1  0
 13 30  1  0
 14 31  1  0
 14 32  1  0
 16 33  1  0
 17 34  1  0
 18 35  1  0
 19 36  1  0
M  CHG  1  16   1
M  END
>  <UniqueID>  (34) 
34

>  <SMILES>  (34) 
CC(=O)c1cn(C2(C#N)CCOCC2)c2[nH+]cccc12

>  <Energy>  (34) 
89.01228329432516

>  <Genealogy>  (34) 
CC(=O)c1cn(C2(C#N)CCOCC2)c2[nH+]cccc12 (protonated)
CC(=O)c1cn(C2(C#N)CCOCC2)c2[nH+]cccc12 (3D coordinates assigned)
CC(=O)c1cn(C2(C#N)CCOCC2)c2[nH+]cccc12 (nonaromatic ring conformer: 89.01228329432516 kcal/mol)

>  <smiles>  (34) 
CC(=O)c1cn(C2(C#N)CCOCC2)c2ncccc12

>  <score_type>  (34) 
oracle

>  <origin>  (34) 
adg

>  <m_score__min__energy>  (34) 
-5.3600000000000003

>  <m_primary>  (34) 
energy

$$$$
34:0
     RDKit          3D

 33 35  0  0  0  0  0  0  0  0999 V2000
   56.5378   29.0435   42.8622 H   0  0  0  0  0  0  0  0  0  0  0  0
   56.7560   29.3690   43.8900 C   0  0  0  0  0  0  0  0  0  0  0  0
   56.2870   30.5050   44.3100 N   0  0  0  0  0  0  0  0  0  0  0  0
   57.1100   31.5940   44.7360 C   0  0  0  0  0  0  0  0  0  0  0  0
   57.4820   31.8020   46.0240 N   0  0  0  0  0  0  0  0  0  0  0  0
   58.2600   32.9110   46.1290 C   0  0  0  0  0  0  0  0  0  0  0  0
   58.8040   33.3960   47.3300 C   0  0  0  0  0  0  0  0  0  0  0  0
   58.5310   32.7160   48.6470 C   0  0  0  0  0  0  0  0  0  0  0  0
   57.4437   32.6325   48.7915 H   0  0  0  0  0  0  0  0  0  0  0  0
   58.9788   33.3153   49.4534 H   0  0  0  0  0  0  0  0  0  0  0  0
   59.1480   31.3210   48.6730 C   0  0  0  0  0  0  0  0  0  0  0  0
   59.2891   31.0019   49.7162 H   0  0  0  0  0  0  0  0  0  0  0  0
   58.4785   30.6143   48.1608 H   0  0  0  0  0  0  0  0  0  0  0  0
   60.1213   31.3409   48.1608 H   0  0  0  0  0  0  0  0  0  0  0  0
   59.5740   34.5780   47.2820 C   0  0  0  0  0  0  0  0  0  0  0  0
   59.9974   34.9895   48.2101 H   0  0  0  0  0  0  0  0  0  0  0  0
   59.8060   35.2360   46.0590 C   0  0  0  0  0  0  0  0  0  0  0  0
   60.4151   36.1518   46.0384 H   0  0  0  0  0  0  0  0  0  0  0  0
   59.2660   34.7320   44.8670 C   0  0  0  0  0  0  0  0  0  0  0  0
   59.4447   35.2381   43.9068 H   0  0  0  0  0  0  0  0  0  0  0  0
   58.4980   33.5740   44.9330 C   0  0  0  0  0  0  0  0  0  0  0  0
   57.7220   32.7640   43.6820 S   0  0  0  0  0  0  0  0  0  0  0  0
   57.5770   28.5040   44.7640 C   0  0  0  0  0  0  0  0  0  0  0  0
   58.9730   28.6800   44.7670 C   0  0  0  0  0  0  0  0  0  0  0  0
   59.4273   29.4500   44.1261 H   0  0  0  0  0  0  0  0  0  0  0  0
   59.7870   27.8840   45.5780 C   0  0  0  0  0  0  0  0  0  0  0  0
   60.8773   28.0300   45.5727 H   0  0  0  0  0  0  0  0  0  0  0  0
   59.2200   26.9050   46.3940 C   0  0  0  0  0  0  0  0  0  0  0  0
   59.8630   26.2802   47.0313 H   0  0  0  0  0  0  0  0  0  0  0  0
   57.8360   26.7180   46.4020 C   0  0  0  0  0  0  0  0  0  0  0  0
   57.3913   25.9451   47.0460 H   0  0  0  0  0  0  0  0  0  0  0  0
   57.0130   27.5100   45.5940 C   0  0  0  0  0  0  0  0  0  0  0  0
   55.6720   27.2990   45.6290 F   0  0  0  0  0  0  0  0  0  0  0  0
  1  2  1  0
  2  3  2  0
  3  4  1  0
  4  5  2  0
  5  6  1  0
  6  7  2  0
  7  8  1  0
  8  9  1  0
  8 10  1  0
  8 11  1  0
 11 12  1  0
 11 13  1  0
 11 14  1  0
  7 15  1  0
 15 16  1  0
 15 17  2  0
 17 18  1  0
 17 19  1  0
 19 20  1  0
 19 21  2  0
 21 22  1  0
  2 23  1  0
 23 24  2  0
 24 25  1  0
 24 26  1  0
 26 27  1  0
 26 28  2  0
 28 29  1  0
 28 30  1  0
 30 31  1  0
 30 32  2  0
 32 33  1  0
 22  4  1  0
 32 23  1  0
 21  6  1  0
M  END
>  <UniqueID>  (35) 
35

>  <SMILES>  (35) 
CCc1cccc2sc(/N=C/c3ccccc3F)nc12

>  <Energy>  (35) 
67.61934946134268

>  <Genealogy>  (35) 
CCc1cccc2sc(/N=C/c3ccccc3F)nc12 (cis-trans isomerization)
CCc1cccc2sc(/N=C/c3ccccc3F)nc12 (3D coordinates assigned)
CCc1cccc2sc(/N=C/c3ccccc3F)nc12 (optimized conformer: 67.61934946134268 kcal/mol)

>  <smiles>  (35) 
CCc1cccc2sc(N=Cc3ccccc3F)nc12

>  <score_type>  (35) 
oracle

>  <origin>  (35) 
adg

>  <m_score__min__energy>  (35) 
-7.9100000000000001

>  <m_primary>  (35) 
energy

$$$$
35:0
     RDKit          3D

 42 45  0  0  0  0  0  0  0  0999 V2000
   57.5200   32.3460   40.8200 C   0  0  0  0  0  0  0  0  0  0  0  0
   57.3950   31.8440   42.2290 C   0  0  0  0  0  0  0  0  0  0  0  0
   56.7130   30.6480   42.4940 C   0  0  0  0  0  0  0  0  0  0  0  0
   56.5650   30.2000   43.8080 C   0  0  0  0  0  0  0  0  0  0  0  0
   57.0860   30.9470   44.8670 C   0  0  0  0  0  0  0  0  0  0  0  0
   57.7570   32.1590   44.6230 C   0  0  0  0  0  0  0  0  0  0  0  0
   58.3200   32.9890   45.7630 C   0  0  2  0  0  0  0  0  0  0  0  0
   58.7220   34.4060   45.3350 C   0  0  0  0  0  0  0  0  0  0  0  0
   59.9350   34.7600   46.1890 C   0  0  0  0  0  0  0  0  0  0  0  0
   60.4390   33.4980   46.7080 N   0  0  0  0  0  0  0  0  0  0  0  0
   61.6690   33.4000   47.4510 C   0  0  0  0  0  0  0  0  0  0  0  0
   62.8990   33.1760   46.8060 C   0  0  0  0  0  0  0  0  0  0  0  0
   64.0710   33.0880   47.5600 C   0  0  0  0  0  0  0  0  0  0  0  0
   64.0190   33.2240   48.9500 C   0  0  0  0  0  0  0  0  0  0  0  0
   65.1790   33.1410   49.7360 C   0  0  0  0  0  0  0  0  0  0  0  0
   65.0920   33.2820   51.1250 C   0  0  0  0  0  0  0  0  0  0  0  0
   63.8550   33.5050   51.7350 C   0  0  0  0  0  0  0  0  0  0  0  0
   62.6930   33.5900   50.9600 C   0  0  0  0  0  0  0  0  0  0  0  0
   61.4960   33.8070   51.5630 F   0  0  0  0  0  0  0  0  0  0  0  0
   62.7690   33.4500   49.5680 C   0  0  0  0  0  0  0  0  0  0  0  0
   61.6440   33.5310   48.8080 N   0  0  0  0  0  0  0  0  0  0  0  0
   59.5680   32.3740   46.4010 C   0  0  0  0  0  0  0  0  0  0  0  0
   57.9010   32.6030   43.2960 C   0  0  0  0  0  0  0  0  0  0  0  0
   57.7858   33.4133   40.8333 H   0  0  0  0  0  0  0  0  0  0  0  0
   58.3045   31.7793   40.2971 H   0  0  0  0  0  0  0  0  0  0  0  0
   56.5614   32.2133   40.2971 H   0  0  0  0  0  0  0  0  0  0  0  0
   56.2932   30.0608   41.6640 H   0  0  0  0  0  0  0  0  0  0  0  0
   56.0368   29.2564   44.0098 H   0  0  0  0  0  0  0  0  0  0  0  0
   56.9708   30.5849   45.8993 H   0  0  0  0  0  0  0  0  0  0  0  0
   57.4894   33.0179   46.4836 H   0  0  0  0  0  0  0  0  0  0  0  0
   58.9848   34.4252   44.2670 H   0  0  0  0  0  0  0  0  0  0  0  0
   57.9002   35.1236   45.4754 H   0  0  0  0  0  0  0  0  0  0  0  0
   60.7026   35.2557   45.5766 H   0  0  0  0  0  0  0  0  0  0  0  0
   59.6691   35.4532   47.0007 H   0  0  0  0  0  0  0  0  0  0  0  0
   62.9374   33.0706   45.7117 H   0  0  0  0  0  0  0  0  0  0  0  0
   65.0349   32.9117   47.0601 H   0  0  0  0  0  0  0  0  0  0  0  0
   66.1552   32.9653   49.2603 H   0  0  0  0  0  0  0  0  0  0  0  0
   66.0018   33.2170   51.7399 H   0  0  0  0  0  0  0  0  0  0  0  0
   63.7943   33.6141   52.8279 H   0  0  0  0  0  0  0  0  0  0  0  0
   60.0606   31.6863   45.6978 H   0  0  0  0  0  0  0  0  0  0  0  0
   59.3221   31.7897   47.3000 H   0  0  0  0  0  0  0  0  0  0  0  0
   58.4150   33.5540   43.0925 H   0  0  0  0  0  0  0  0  0  0  0  0
  1  2  1  0
  2  3  2  0
  3  4  1  0
  4  5  2  0
  5  6  1  0
  6  7  1  0
  7  8  1  0
  8  9  1  0
  9 10  1  0
 10 11  1  0
 11 12  2  0
 12 13  1  0
 13 14  2  0
 14 15  1  0
 15 16  2  0
 16 17  1  0
 17 18  2  0
 18 19  1  0
 18 20  1  0
 20 21  2  0
 10 22  1  0
  6 23  2  0
 23  2  1  0
 22  7  1  0
 21 11  1  0
 20 14  1  0
  1 24  1  0
  1 25  1  0
  1 26  1  0
  3 27  1  0
  4 28  1  0
  5 29  1  0
  7 30  1  1
  8 31  1  0
  8 32  1  0
  9 33  1  0
  9 34  1  0
 12 35  1  0
 13 36  1  0
 15 37  1  0
 16 38  1  0
 17 39  1  0
 22 40  1  0
 22 41  1  0
 23 42  1  0
M  END
>  <UniqueID>  (36) 
36

>  <SMILES>  (36) 
Cc1cccc([C@@H]2CCN(c3ccc4cccc(F)c4n3)C2)c1

>  <Energy>  (36) 
50.445371137143155

>  <Genealogy>  (36) 
Cc1cccc([C@@H]2CCN(c3ccc4cccc(F)c4n3)C2)c1 (chirality)
Cc1cccc([C@@H]2CCN(c3ccc4cccc(F)c4n3)C2)c1 (3D coordinates assigned)
Cc1cccc([C@@H]2CCN(c3ccc4cccc(F)c4n3)C2)c1 (nonaromatic ring conformer: 50.445371137143155 kcal/mol)

>  <smiles>  (36) 
Cc1cccc(C2CCN(c3ccc4cccc(F)c4n3)C2)c1

>  <score_type>  (36) 
oracle

>  <origin>  (36) 
adg

>  <m_score__min__energy>  (36) 
-8.3399999999999999

>  <m_primary>  (36) 
energy

$$$$
36:0
     RDKit          3D

 21 20  0  0  0  0  0  0  0  0999 V2000
   58.0550   27.8630   43.7670 C   0  0  0  0  0  0  0  0  0  0  0  0
   57.8820   28.7960   44.7110 C   0  0  0  0  0  0  0  0  0  0  0  0
   59.0090   29.1250   45.6500 C   0  0  0  0  0  0  0  0  0  0  0  0
   56.6200   29.5640   44.8010 C   0  0  0  0  0  0  0  0  0  0  0  0
   55.5110   28.9650   44.8770 O   0  0  0  0  0  0  0  0  0  0  0  0
   56.6640   30.9640   44.7940 O   0  0  0  0  0  0  0  0  0  0  0  0
   57.5370   31.7210   43.9580 C   0  0  0  0  0  0  0  0  0  0  0  0
   57.3060   31.3700   42.4870 C   0  0  0  0  0  0  0  0  0  0  0  0
   58.0390   32.3400   41.5660 C   0  0  0  0  0  0  0  0  0  0  0  0
   57.2332   27.6190   43.0777 H   0  0  0  0  0  0  0  0  0  0  0  0
   59.0190   27.3403   43.6805 H   0  0  0  0  0  0  0  0  0  0  0  0
   58.6621   29.0237   46.6889 H   0  0  0  0  0  0  0  0  0  0  0  0
   59.8465   28.4338   45.4741 H   0  0  0  0  0  0  0  0  0  0  0  0
   59.3431   30.1582   45.4741 H   0  0  0  0  0  0  0  0  0  0  0  0
   57.3437   32.7933   44.1092 H   0  0  0  0  0  0  0  0  0  0  0  0
   58.5780   31.4830   44.2218 H   0  0  0  0  0  0  0  0  0  0  0  0
   57.6736   30.3503   42.2996 H   0  0  0  0  0  0  0  0  0  0  0  0
   56.2282   31.4387   42.2779 H   0  0  0  0  0  0  0  0  0  0  0  0
   58.5928   33.0728   42.1713 H   0  0  0  0  0  0  0  0  0  0  0  0
   58.7430   31.7819   40.9313 H   0  0  0  0  0  0  0  0  0  0  0  0
   57.3099   32.8649   40.9313 H   0  0  0  0  0  0  0  0  0  0  0  0
  1  2  2  0
  2  3  1  0
  2  4  1  0
  4  5  2  0
  4  6  1  0
  6  7  1  0
  7  8  1  0
  8  9  1  0
  1 10  1  0
  1 11  1  0
  3 12  1  0
  3 13  1  0
  3 14  1  0
  7 15  1  0
  7 16  1  0
  8 17  1  0
  8 18  1  0
  9 19  1  0
  9 20  1  0
  9 21  1  0
M  END
>  <UniqueID>  (37) 
37

>  <SMILES>  (37) 
C=C(C)C(=O)OCCC

>  <Energy>  (37) 
8.556623775430575

>  <Genealogy>  (37) 
C=C(C)C(=O)OCCC (3D coordinates assigned)
C=C(C)C(=O)OCCC (optimized conformer: 8.556623775430575 kcal/mol)

>  <smiles>  (37) 
C=C(C)C(=O)OCCC

>  <score_type>  (37) 
oracle

>  <origin>  (37) 
adg

>  <m_score__min__energy>  (37) 
-4.1900000000000004

>  <m_primary>  (37) 
energy

$$$$
37:0
     RDKit          3D

 48 48  0  0  0  0  0  0  0  0999 V2000
   55.0870   26.3010   45.9160 N   0  0  0  0  0  0  0  0  0  0  0  0
   54.4380   25.0280   45.6170 C   0  0  0  0  0  0  0  0  0  0  0  0
   55.4920   23.9490   45.3420 C   0  0  0  0  0  0  0  0  0  0  0  0
   56.0950   24.0650   43.9270 C   0  0  0  0  0  0  0  0  0  0  0  0
   57.3990   24.8740   43.8790 C   0  0  0  0  0  0  0  0  0  0  0  0
   57.3950   25.9450   44.8840 N   0  0  0  0  0  0  0  0  0  0  0  0
   58.7450   26.4950   45.0490 C   0  0  0  0  0  0  0  0  0  0  0  0
   58.6970   28.0270   45.0120 C   0  0  0  0  0  0  0  0  0  0  0  0
   57.6070   28.5860   45.9360 C   0  0  0  0  0  0  0  0  0  0  0  0
   56.3090   28.6710   45.2480 N   0  0  0  0  0  0  0  0  0  0  0  0
   56.2310   29.8020   44.3040 C   0  0  0  0  0  0  0  0  0  0  0  0
   57.4150   30.7600   44.5030 C   0  0  0  0  0  0  0  0  0  0  0  0
   57.0110   32.2450   44.4990 C   0  0  0  0  0  0  0  0  0  0  0  0
   57.9020   33.0840   45.3780 C   0  0  0  0  0  0  0  0  0  0  0  0
   58.5980   34.1850   44.8500 C   0  0  0  0  0  0  0  0  0  0  0  0
   59.4010   34.9740   45.6790 C   0  0  0  0  0  0  0  0  0  0  0  0
   59.5220   34.6660   47.0370 C   0  0  0  0  0  0  0  0  0  0  0  0
   58.8440   33.5660   47.5680 C   0  0  0  0  0  0  0  0  0  0  0  0
   58.0340   32.7780   46.7450 C   0  0  0  0  0  0  0  0  0  0  0  0
   55.9450   26.0970   46.4770 H   0  0  0  0  0  0  0  0  0  0  0  0
   55.4140   26.7190   45.0150 H   0  0  0  0  0  0  0  0  0  0  0  0
   53.8217   24.7236   46.4758 H   0  0  0  0  0  0  0  0  0  0  0  0
   53.8055   25.1480   44.7251 H   0  0  0  0  0  0  0  0  0  0  0  0
   56.3012   24.0489   46.0804 H   0  0  0  0  0  0  0  0  0  0  0  0
   54.9974   22.9693   45.4172 H   0  0  0  0  0  0  0  0  0  0  0  0
   56.3006   23.0514   43.5524 H   0  0  0  0  0  0  0  0  0  0  0  0
   55.3608   24.5994   43.3063 H   0  0  0  0  0  0  0  0  0  0  0  0
   58.2466   24.2009   44.0749 H   0  0  0  0  0  0  0  0  0  0  0  0
   57.4899   25.3308   42.8825 H   0  0  0  0  0  0  0  0  0  0  0  0
   56.7900   26.7160   44.5160 H   0  0  0  0  0  0  0  0  0  0  0  0
   59.1561   26.1670   46.0151 H   0  0  0  0  0  0  0  0  0  0  0  0
   59.3837   26.1345   44.2292 H   0  0  0  0  0  0  0  0  0  0  0  0
   59.6724   28.4215   45.3329 H   0  0  0  0  0  0  0  0  0  0  0  0
   58.4641   28.3368   43.9825 H   0  0  0  0  0  0  0  0  0  0  0  0
   57.5059   27.9257   46.8099 H   0  0  0  0  0  0  0  0  0  0  0  0
   57.9018   29.6001   46.2438 H   0  0  0  0  0  0  0  0  0  0  0  0
   56.1860   27.7850   44.7050 H   0  0  0  0  0  0  0  0  0  0  0  0
   56.2493   29.4147   43.2746 H   0  0  0  0  0  0  0  0  0  0  0  0
   55.2967   30.3524   44.4890 H   0  0  0  0  0  0  0  0  0  0  0  0
   57.8896   30.5310   45.4685 H   0  0  0  0  0  0  0  0  0  0  0  0
   58.0994   30.6088   43.6552 H   0  0  0  0  0  0  0  0  0  0  0  0
   57.0719   32.6251   43.4686 H   0  0  0  0  0  0  0  0  0  0  0  0
   55.9869   32.3155   44.8942 H   0  0  0  0  0  0  0  0  0  0  0  0
   58.5106   34.4268   43.7805 H   0  0  0  0  0  0  0  0  0  0  0  0
   59.9384   35.8385   45.2619 H   0  0  0  0  0  0  0  0  0  0  0  0
   60.1516   35.2902   47.6881 H   0  0  0  0  0  0  0  0  0  0  0  0
   58.9476   33.3196   48.6350 H   0  0  0  0  0  0  0  0  0  0  0  0
   57.4979   31.9155   47.1677 H   0  0  0  0  0  0  0  0  0  0  0  0
  1  2  1  0
  2  3  1  0
  3  4  1  0
  4  5  1  0
  5  6  1  0
  6  7  1  0
  7  8  1  0
  8  9  1  0
  9 10  1  0
 10 11  1  0
 11 12  1  0
 12 13  1  0
 13 14  1  0
 14 15  2  0
 15 16  1  0
 16 17  2  0
 17 18  1  0
 18 19  2  0
 19 14  1  0
  1 20  1  0
  1 21  1  0
  2 22  1  0
  2 23  1  0
  3 24  1  0
  3 25  1  0
  4 26  1  0
  4 27  1  0
  5 28  1  0
  5 29  1  0
  6 30  1  0
  7 31  1  0
  7 32  1  0
  8 33  1  0
  8 34  1  0
  9 35  1  0
  9 36  1  0
 10 37  1  0
 11 38  1  0
 11 39  1  0
 12 40  1  0
 12 41  1  0
 13 42  1  0
 13 43  1  0
 15 44  1  0
 16 45  1  0
 17 46  1  0
 18 47  1  0
 19 48  1  0
M  END
>  <UniqueID>  (38) 
38

>  <SMILES>  (38) 
NCCCCNCCCNCCCc1ccccc1

>  <Energy>  (38) 
30.346352536967274

>  <Genealogy>  (38) 
NCCCCNCCCNCCCc1ccccc1 (3D coordinates assigned)
NCCCCNCCCNCCCc1ccccc1 (optimized conformer: 30.346352536967274 kcal/mol)

>  <smiles>  (38) 
NCCCCNCCCNCCCc1ccccc1

>  <score_type>  (38) 
oracle

>  <origin>  (38) 
adg

>  <m_score__min__energy>  (38) 
-6.2000000000000002

>  <m_primary>  (38) 
energy

$$$$
38:0
     RDKit          3D

 45 48  0  0  0  0  0  0  0  0999 V2000
   66.3890   32.2550   50.4770 C   0  0  0  0  0  0  0  0  0  0  0  0
   65.2660   32.9830   49.9930 O   0  0  0  0  0  0  0  0  0  0  0  0
   64.1660   32.4040   49.3440 C   0  0  0  0  0  0  0  0  0  0  0  0
   63.9390   32.7270   48.0020 C   0  0  0  0  0  0  0  0  0  0  0  0
   62.8550   32.1790   47.3120 C   0  0  0  0  0  0  0  0  0  0  0  0
   61.9700   31.3050   47.9590 C   0  0  0  0  0  0  0  0  0  0  0  0
   60.8620   30.7400   47.2360 N   0  0  0  0  0  0  0  0  0  0  0  0
   60.7600   29.4390   46.9890 N   0  0  0  0  0  0  0  0  0  0  0  0
   59.6020   29.2610   46.3250 C   0  0  0  0  0  0  0  0  0  0  0  0
   58.9670   30.4470   46.1350 C   0  0  0  0  0  0  0  0  0  0  0  0
   59.7830   31.3950   46.7260 C   0  0  0  0  0  0  0  0  0  0  0  0
   59.5940   32.8600   46.7030 C   0  0  0  0  0  0  0  0  0  0  0  0
   59.4470   33.5750   47.9020 C   0  0  0  0  0  0  0  0  0  0  0  0
   59.2880   34.9640   47.8780 C   0  0  0  0  0  0  0  0  0  0  0  0
   59.2780   35.6470   46.6590 C   0  0  0  0  0  0  0  0  0  0  0  0
   59.4270   34.9420   45.4610 C   0  0  0  0  0  0  0  0  0  0  0  0
   59.5860   33.5530   45.4820 C   0  0  0  0  0  0  0  0  0  0  0  0
   57.7970   30.4990   45.3890 C   0  0  0  0  0  0  0  0  0  0  0  0
   57.2400   31.6060   45.1510 O   0  0  0  0  0  0  0  0  0  0  0  0
   57.2790   29.3220   44.9020 N   0  0  0  0  0  0  0  0  0  0  0  0
   56.0500   29.3440   44.0900 C   0  0  0  0  0  0  0  0  0  0  0  0
   57.9520   28.1270   45.1000 C   0  0  0  0  0  0  0  0  0  0  0  0
   57.5020   27.0620   44.5910 O   0  0  0  0  0  0  0  0  0  0  0  0
   59.1160   28.0880   45.8370 N   0  0  0  0  0  0  0  0  0  0  0  0
   59.8610   26.8350   46.0170 C   0  0  0  0  0  0  0  0  0  0  0  0
   62.2080   30.9610   49.3020 C   0  0  0  0  0  0  0  0  0  0  0  0
   63.2920   31.5110   49.9920 C   0  0  0  0  0  0  0  0  0  0  0  0
   66.3824   32.2593   51.5770 H   0  0  0  0  0  0  0  0  0  0  0  0
   66.3378   31.2179   50.1141 H   0  0  0  0  0  0  0  0  0  0  0  0
   67.3149   32.7251   50.1141 H   0  0  0  0  0  0  0  0  0  0  0  0
   64.6204   33.4189   47.4853 H   0  0  0  0  0  0  0  0  0  0  0  0
   62.6947   32.4349   46.2542 H   0  0  0  0  0  0  0  0  0  0  0  0
   59.4569   33.0409   48.8636 H   0  0  0  0  0  0  0  0  0  0  0  0
   59.1706   35.5198   48.8200 H   0  0  0  0  0  0  0  0  0  0  0  0
   59.1529   36.7397   46.6420 H   0  0  0  0  0  0  0  0  0  0  0  0
   59.4191   35.4801   44.5017 H   0  0  0  0  0  0  0  0  0  0  0  0
   59.7053   33.0010   44.5381 H   0  0  0  0  0  0  0  0  0  0  0  0
   55.1726   29.3597   44.7532 H   0  0  0  0  0  0  0  0  0  0  0  0
   56.0460   30.2424   43.4552 H   0  0  0  0  0  0  0  0  0  0  0  0
   56.0138   28.4464   43.4552 H   0  0  0  0  0  0  0  0  0  0  0  0
   59.9820   26.6315   47.0912 H   0  0  0  0  0  0  0  0  0  0  0  0
   59.3075   26.0086   45.5473 H   0  0  0  0  0  0  0  0  0  0  0  0
   60.8514   26.9266   45.5473 H   0  0  0  0  0  0  0  0  0  0  0  0
   61.5368   30.2547   49.8124 H   0  0  0  0  0  0  0  0  0  0  0  0
   63.4627   31.2449   51.0456 H   0  0  0  0  0  0  0  0  0  0  0  0
  1  2  1  0
  2  3  1  0
  3  4  2  0
  4  5  1  0
  5  6  2  0
  6  7  1  0
  7  8  1  0
  8  9  2  0
  9 10  1  0
 10 11  2  0
 11 12  1  0
 12 13  2  0
 13 14  1  0
 14 15  2  0
 15 16  1  0
 16 17  2  0
 10 18  1  0
 18 19  2  0
 18 20  1  0
 20 21  1  0
 20 22  1  0
 22 23  2  0
 22 24  1  0
 24 25  1  0
  6 26  1  0
 26 27  2  0
 27  3  1  0
 11  7  1  0
 17 12  1  0
 24  9  1  0
  1 28  1  0
  1 29  1  0
  1 30  1  0
  4 31  1  0
  5 32  1  0
 13 33  1  0
 14 34  1  0
 15 35  1  0
 16 36  1  0
 17 37  1  0
 21 38  1  0
 21 39  1  0
 21 40  1  0
 25 41  1  0
 25 42  1  0
 25 43  1  0
 26 44  1  0
 27 45  1  0
M  END
>  <UniqueID>  (39) 
39

>  <SMILES>  (39) 
COc1ccc(-n2nc3c(c2-c2ccccc2)c(=O)n(C)c(=O)n3C)cc1

>  <Energy>  (39) 
105.05667532703296

>  <Genealogy>  (39) 
COc1ccc(-n2nc3c(c2-c2ccccc2)c(=O)n(C)c(=O)n3C)cc1 (3D coordinates assigned)
COc1ccc(-n2nc3c(c2-c2ccccc2)c(=O)n(C)c(=O)n3C)cc1 (optimized conformer: 105.05667532703296 kcal/mol)

>  <smiles>  (39) 
COc1ccc(-n2nc3c(c2-c2ccccc2)c(=O)n(C)c(=O)n3C)cc1

>  <score_type>  (39) 
oracle

>  <origin>  (39) 
adg

>  <m_score__min__energy>  (39) 
-7.2800000000000002

>  <m_primary>  (39) 
energy

$$$$
39:0
     RDKit          3D

 60 61  0  0  0  0  0  0  0  0999 V2000
   60.3220   28.5110   45.7350 C   0  0  0  0  0  0  0  0  0  0  0  0
   59.0950   27.8740   46.3830 C   0  0  0  0  0  0  0  0  0  0  0  0
   57.8970   27.8740   45.4260 C   0  0  0  0  0  0  0  0  0  0  0  0
   58.2510   28.5690   44.1020 C   0  0  0  0  0  0  0  0  0  0  0  0
   57.0070   29.1250   43.3910 C   0  0  0  0  0  0  0  0  0  0  0  0
   56.1290   29.9140   44.3300 C   0  0  0  0  0  0  0  0  0  0  0  0
   55.1450   29.3480   44.8760 O   0  0  0  0  0  0  0  0  0  0  0  0
   56.3300   31.3170   44.5520 N   0  0  0  0  0  0  0  0  0  0  0  0
   57.4610   31.9150   45.1990 C   0  0  0  0  0  0  0  0  0  0  0  0
   57.8320   33.2190   44.8490 C   0  0  0  0  0  0  0  0  0  0  0  0
   58.9210   33.8350   45.4720 C   0  0  0  0  0  0  0  0  0  0  0  0
   59.6370   33.1660   46.4770 C   0  0  0  0  0  0  0  0  0  0  0  0
   60.7740   33.7910   47.1030 N   0  0  0  0  0  0  0  0  0  0  0  0
   62.1170   33.6020   46.5480 C   0  0  0  0  0  0  0  0  0  0  0  0
   63.1860   33.8480   47.6280 C   0  0  0  0  0  0  0  0  0  0  0  0
   62.7530   33.3390   48.9530 N   0  0  0  0  0  0  0  0  0  0  0  0
   62.5810   31.8590   48.9340 C   0  0  0  0  0  0  0  0  0  0  0  0
   63.2190   31.1920   50.1240 C   0  0  0  0  0  0  0  0  0  0  0  0
   62.8440   30.0450   50.4890 O   0  0  0  0  0  0  0  0  0  0  0  0
   64.2580   31.8510   50.7960 O   0  0  0  0  0  0  0  0  0  0  0  0
   65.5820   31.9740   50.2770 C   0  0  0  0  0  0  0  0  0  0  0  0
   66.4890   30.9770   50.9980 C   0  0  0  0  0  0  0  0  0  0  0  0
   66.0960   33.4030   50.4720 C   0  0  0  0  0  0  0  0  0  0  0  0
   61.5260   34.0400   49.4420 C   0  0  0  0  0  0  0  0  0  0  0  0
   60.6300   34.5970   48.3180 C   0  0  0  0  0  0  0  0  0  0  0  0
   59.2490   31.8660   46.8440 C   0  0  0  0  0  0  0  0  0  0  0  0
   58.1640   31.2490   46.2150 C   0  0  0  0  0  0  0  0  0  0  0  0
   61.0073   28.8668   46.5184 H   0  0  0  0  0  0  0  0  0  0  0  0
   60.8352   27.7654   45.1099 H   0  0  0  0  0  0  0  0  0  0  0  0
   60.0075   29.3597   45.1099 H   0  0  0  0  0  0  0  0  0  0  0  0
   59.3334   26.8362   46.6588 H   0  0  0  0  0  0  0  0  0  0  0  0
   58.8281   28.4616   47.2738 H   0  0  0  0  0  0  0  0  0  0  0  0
   57.6016   26.8348   45.2192 H   0  0  0  0  0  0  0  0  0  0  0  0
   57.0695   28.4224   45.8998 H   0  0  0  0  0  0  0  0  0  0  0  0
   58.9413   29.3996   44.3108 H   0  0  0  0  0  0  0  0  0  0  0  0
   58.7142   27.8222   43.4404 H   0  0  0  0  0  0  0  0  0  0  0  0
   57.3303   29.7818   42.5699 H   0  0  0  0  0  0  0  0  0  0  0  0
   56.4223   28.2742   43.0110 H   0  0  0  0  0  0  0  0  0  0  0  0
   57.2633   33.7616   44.0795 H   0  0  0  0  0  0  0  0  0  0  0  0
   59.2189   34.8507   45.1728 H   0  0  0  0  0  0  0  0  0  0  0  0
   62.2120   32.5724   46.1725 H   0  0  0  0  0  0  0  0  0  0  0  0
   62.2675   34.3199   45.7283 H   0  0  0  0  0  0  0  0  0  0  0  0
   64.1140   33.3353   47.3347 H   0  0  0  0  0  0  0  0  0  0  0  0
   63.3457   34.9331   47.7123 H   0  0  0  0  0  0  0  0  0  0  0  0
   63.5340   33.5660   49.6140 H   0  0  0  0  0  0  0  0  0  0  0  0
   61.5055   31.6282   48.9341 H   0  0  0  0  0  0  0  0  0  0  0  0
   63.0752   31.4753   48.0293 H   0  0  0  0  0  0  0  0  0  0  0  0
   65.5803   31.7557   49.1989 H   0  0  0  0  0  0  0  0  0  0  0  0
   66.3774   31.0997   52.0854 H   0  0  0  0  0  0  0  0  0  0  0  0
   66.2068   29.9525   50.7137 H   0  0  0  0  0  0  0  0  0  0  0  0
   67.5355   31.1613   50.7137 H   0  0  0  0  0  0  0  0  0  0  0  0
   66.1744   33.6209   51.5473 H   0  0  0  0  0  0  0  0  0  0  0  0
   67.0866   33.5034   50.0044 H   0  0  0  0  0  0  0  0  0  0  0  0
   65.3963   34.1114   50.0044 H   0  0  0  0  0  0  0  0  0  0  0  0
   60.9339   33.3272   50.0347 H   0  0  0  0  0  0  0  0  0  0  0  0
   61.8675   34.9028   50.0328 H   0  0  0  0  0  0  0  0  0  0  0  0
   59.5803   34.5736   48.6461 H   0  0  0  0  0  0  0  0  0  0  0  0
   60.9345   35.6309   48.0984 H   0  0  0  0  0  0  0  0  0  0  0  0
   59.8021   31.3314   47.6303 H   0  0  0  0  0  0  0  0  0  0  0  0
   57.8595   30.2363   46.5178 H   0  0  0  0  0  0  0  0  0  0  0  0
  1  2  1  0
  2  3  1  0
  3  4  1  0
  4  5  1  0
  5  6  1  0
  6  7  2  0
  6  8  1  0
  8  9  1  0
  9 10  2  0
 10 11  1  0
 11 12  2  0
 12 13  1  0
 13 14  1  0
 14 15  1  0
 15 16  1  0
 16 17  1  0
 17 18  1  0
 18 19  2  0
 18 20  1  0
 20 21  1  0
 21 22  1  0
 21 23  1  0
 16 24  1  0
 24 25  1  0
 12 26  1  0
 26 27  2  0
 27  9  1  0
 25 13  1  0
  1 28  1  0
  1 29  1  0
  1 30  1  0
  2 31  1  0
  2 32  1  0
  3 33  1  0
  3 34  1  0
  4 35  1  0
  4 36  1  0
  5 37  1  0
  5 38  1  0
 10 39  1  0
 11 40  1  0
 14 41  1  0
 14 42  1  0
 15 43  1  0
 15 44  1  0
 16 45  1  0
 17 46  1  0
 17 47  1  0
 21 48  1  0
 22 49  1  0
 22 50  1  0
 22 51  1  0
 23 52  1  0
 23 53  1  0
 23 54  1  0
 24 55  1  0
 24 56  1  0
 25 57  1  0
 25 58  1  0
 26 59  1  0
 27 60  1  0
M  CHG  2   8  -1  16   1
M  END
>  <UniqueID>  (40) 
40

>  <SMILES>  (40) 
CCCCCC(=O)[N-]c1ccc(N2CC[NH+](CC(=O)OC(C)C)CC2)cc1

>  <Energy>  (40) 
61.461790328339056

>  <Genealogy>  (40) 
CCCCCC(=O)[N-]c1ccc(N2CC[NH+](CC(=O)OC(C)C)CC2)cc1 (protonated)
CCCCCC(=O)[N-]c1ccc(N2CC[NH+](CC(=O)OC(C)C)CC2)cc1 (3D coordinates assigned)
CCCCCC(=O)[N-]c1ccc(N2CC[NH+](CC(=O)OC(C)C)CC2)cc1 (nonaromatic ring conformer: 61.461790328339056 kcal/mol)

>  <smiles>  (40) 
CCCCCC(=O)Nc1ccc(N2CCN(CC(=O)OC(C)C)CC2)cc1

>  <score_type>  (40) 
oracle

>  <origin>  (40) 
adg

>  <m_score__min__energy>  (40) 
-7.5

>  <m_primary>  (40) 
energy

$$$$
40:0
     RDKit          3D

 45 47  0  0  0  0  0  0  0  0999 V2000
   60.7350   26.3510   46.3600 C   0  0  0  0  0  0  0  0  0  0  0  0
   59.8990   27.5400   45.9700 C   0  0  0  0  0  0  0  0  0  0  0  0
   60.4540   28.8290   46.0470 C   0  0  0  0  0  0  0  0  0  0  0  0
   59.6980   29.9480   45.6960 C   0  0  0  0  0  0  0  0  0  0  0  0
   58.3840   29.7980   45.2430 C   0  0  0  0  0  0  0  0  0  0  0  0
   57.4290   31.2190   44.8250 S   0  0  0  0  0  0  0  0  0  0  0  0
   58.0400   31.8620   43.6100 O   0  0  0  0  0  0  0  0  0  0  0  0
   56.0260   30.8040   44.4810 O   0  0  0  0  0  0  0  0  0  0  0  0
   57.4220   32.3720   46.1430 N   0  0  0  0  0  0  0  0  0  0  0  0
   57.0130   33.7220   45.7040 C   0  0  0  0  0  0  0  0  0  0  0  0
   58.1050   34.4420   44.8890 C   0  0  0  0  0  0  0  0  0  0  0  0
   59.5220   34.2030   45.4370 C   0  0  0  0  0  0  0  0  0  0  0  0
   59.5000   33.6440   46.8600 C   0  0  0  0  0  0  0  0  0  0  0  0
   58.6900   32.3360   46.9170 C   0  0  0  0  0  0  0  0  0  0  0  0
   57.8250   28.5180   45.1530 C   0  0  0  0  0  0  0  0  0  0  0  0
   58.5660   27.3820   45.5250 C   0  0  0  0  0  0  0  0  0  0  0  0
   57.9820   26.0710   45.4120 N   0  0  0  0  0  0  0  0  0  0  0  0
   57.7140   25.4370   44.1490 C   0  0  0  0  0  0  0  0  0  0  0  0
   57.7760   26.1080   43.0820 O   0  0  0  0  0  0  0  0  0  0  0  0
   57.3350   24.0080   44.0950 C   0  0  0  0  0  0  0  0  0  0  0  0
   56.5740   23.4940   43.0310 C   0  0  0  0  0  0  0  0  0  0  0  0
   56.2490   22.1740   43.0160 N   0  0  0  0  0  0  0  0  0  0  0  0
   56.6480   21.3380   44.0090 C   0  0  0  0  0  0  0  0  0  0  0  0
   57.4050   21.8430   45.0660 C   0  0  0  0  0  0  0  0  0  0  0  0
   57.7310   23.1610   45.0840 N   0  0  0  0  0  0  0  0  0  0  0  0
   60.7841   26.2812   47.4567 H   0  0  0  0  0  0  0  0  0  0  0  0
   60.2813   25.4348   45.9542 H   0  0  0  0  0  0  0  0  0  0  0  0
   61.7507   26.4680   45.9542 H   0  0  0  0  0  0  0  0  0  0  0  0
   61.4924   28.9566   46.3866 H   0  0  0  0  0  0  0  0  0  0  0  0
   60.1380   30.9530   45.7761 H   0  0  0  0  0  0  0  0  0  0  0  0
   56.1118   33.6305   45.0800 H   0  0  0  0  0  0  0  0  0  0  0  0
   56.8252   34.3210   46.6073 H   0  0  0  0  0  0  0  0  0  0  0  0
   58.0648   34.0784   43.8516 H   0  0  0  0  0  0  0  0  0  0  0  0
   57.9054   35.5217   44.9546 H   0  0  0  0  0  0  0  0  0  0  0  0
   60.0397   33.4866   44.7822 H   0  0  0  0  0  0  0  0  0  0  0  0
   60.0445   35.1707   45.4605 H   0  0  0  0  0  0  0  0  0  0  0  0
   60.5315   33.4447   47.1859 H   0  0  0  0  0  0  0  0  0  0  0  0
   59.0268   34.3828   47.5235 H   0  0  0  0  0  0  0  0  0  0  0  0
   59.3158   31.5247   46.5168 H   0  0  0  0  0  0  0  0  0  0  0  0
   58.4137   32.1803   47.9703 H   0  0  0  0  0  0  0  0  0  0  0  0
   56.7944   28.3992   44.7872 H   0  0  0  0  0  0  0  0  0  0  0  0
   57.6850   25.5850   46.2870 H   0  0  0  0  0  0  0  0  0  0  0  0
   56.2437   24.1551   42.2162 H   0  0  0  0  0  0  0  0  0  0  0  0
   56.3767   20.2724   43.9800 H   0  0  0  0  0  0  0  0  0  0  0  0
   57.7352   21.1790   45.8784 H   0  0  0  0  0  0  0  0  0  0  0  0
  1  2  1  0
  2  3  2  0
  3  4  1  0
  4  5  2  0
  5  6  1  0
  6  7  2  0
  6  8  2  0
  6  9  1  0
  9 10  1  0
 10 11  1  0
 11 12  1  0
 12 13  1  0
 13 14  1  0
  5 15  1  0
 15 16  2  0
 16 17  1  0
 17 18  1  0
 18 19  2  0
 18 20  1  0
 20 21  2  0
 21 22  1  0
 22 23  2  0
 23 24  1  0
 24 25  2  0
 16  2  1  0
 25 20  1  0
 14  9  1  0
  1 26  1  0
  1 27  1  0
  1 28  1  0
  3 29  1  0
  4 30  1  0
 10 31  1  0
 10 32  1  0
 11 33  1  0
 11 34  1  0
 12 35  1  0
 12 36  1  0
 13 37  1  0
 13 38  1  0
 14 39  1  0
 14 40  1  0
 15 41  1  0
 17 42  1  0
 21 43  1  0
 23 44  1  0
 24 45  1  0
M  END
>  <UniqueID>  (41) 
41

>  <SMILES>  (41) 
Cc1ccc(S(=O)(=O)N2CCCCC2)cc1NC(=O)c1cnccn1

>  <Energy>  (41) 
59.01572155935945

>  <Genealogy>  (41) 
Cc1ccc(S(=O)(=O)N2CCCCC2)cc1NC(=O)c1cnccn1 (3D coordinates assigned)
Cc1ccc(S(=O)(=O)N2CCCCC2)cc1NC(=O)c1cnccn1 (nonaromatic ring conformer: 59.01572155935945 kcal/mol)

>  <smiles>  (41) 
Cc1ccc(S(=O)(=O)N2CCCCC2)cc1NC(=O)c1cnccn1

>  <score_type>  (41) 
oracle

>  <origin>  (41) 
adg

>  <m_score__min__energy>  (41) 
-8.9800000000000004

>  <m_primary>  (41) 
energy

$$$$
41:0
     RDKit          3D

 62 65  0  0  0  0  0  0  0  0999 V2000
   62.1380   32.3190   47.4890 C   0  0  0  0  0  0  0  0  0  0  0  0
   61.4730   30.9490   47.3430 C   0  0  0  0  0  0  0  0  0  0  0  0
   60.4510   30.7390   48.3960 N   0  0  0  0  0  0  0  0  0  0  0  0
   60.6310   31.7000   49.5110 C   0  0  0  0  0  0  0  0  0  0  0  0
   59.3280   31.8690   50.2880 C   0  0  0  0  0  0  0  0  0  0  0  0
   60.4820   29.3390   48.8880 C   0  0  0  0  0  0  0  0  0  0  0  0
   59.7140   28.3850   47.9550 C   0  0  0  0  0  0  0  0  0  0  0  0
   58.5390   29.0620   47.2180 C   0  0  0  0  0  0  0  0  0  0  0  0
   58.3210   28.4680   45.8930 N   0  0  0  0  0  0  0  0  0  0  0  0
   58.4340   29.0670   44.6720 C   0  0  0  0  0  0  0  0  0  0  0  0
   58.8100   30.5060   44.4400 C   0  0  0  0  0  0  0  0  0  0  0  0
   57.7150   31.4730   44.9130 C   0  0  0  0  0  0  0  0  0  0  0  0
   58.2940   32.6870   45.5940 C   0  0  0  0  0  0  0  0  0  0  0  0
   58.7760   33.7660   44.8310 C   0  0  0  0  0  0  0  0  0  0  0  0
   59.2720   34.9120   45.4620 C   0  0  0  0  0  0  0  0  0  0  0  0
   59.2820   34.9930   46.8580 C   0  0  0  0  0  0  0  0  0  0  0  0
   58.7950   33.9270   47.6230 C   0  0  0  0  0  0  0  0  0  0  0  0
   58.3010   32.7780   46.9950 C   0  0  0  0  0  0  0  0  0  0  0  0
   58.2160   28.2040   43.6480 N   0  0  0  0  0  0  0  0  0  0  0  0
   57.9430   27.0350   44.2490 C   0  0  0  0  0  0  0  0  0  0  0  0
   57.6660   25.8080   43.6500 C   0  0  0  0  0  0  0  0  0  0  0  0
   57.4530   24.6890   44.4900 C   0  0  0  0  0  0  0  0  0  0  0  0
   57.1900   23.3940   43.9190 N   0  0  0  0  0  0  0  0  0  0  0  0
   57.8830   22.2580   44.1230 C   0  0  0  0  0  0  0  0  0  0  0  0
   57.3170   21.2680   43.3520 C   0  0  0  0  0  0  0  0  0  0  0  0
   56.2700   21.7710   42.6700 N   0  0  0  0  0  0  0  0  0  0  0  0
   56.2190   23.0690   43.0430 C   0  0  0  0  0  0  0  0  0  0  0  0
   57.5130   24.8540   45.9010 C   0  0  0  0  0  0  0  0  0  0  0  0
   57.7820   26.1120   46.4700 C   0  0  0  0  0  0  0  0  0  0  0  0
   58.0030   27.1870   45.6050 C   0  0  0  0  0  0  0  0  0  0  0  0
   62.2542   32.5583   48.5563 H   0  0  0  0  0  0  0  0  0  0  0  0
   63.1270   32.2997   47.0078 H   0  0  0  0  0  0  0  0  0  0  0  0
   61.5110   33.0841   47.0078 H   0  0  0  0  0  0  0  0  0  0  0  0
   60.9908   30.8867   46.3563 H   0  0  0  0  0  0  0  0  0  0  0  0
   62.2452   30.1723   47.4446 H   0  0  0  0  0  0  0  0  0  0  0  0
   61.4110   31.3247   50.1898 H   0  0  0  0  0  0  0  0  0  0  0  0
   60.9261   32.6749   49.0957 H   0  0  0  0  0  0  0  0  0  0  0  0
   59.5385   31.8417   51.3673 H   0  0  0  0  0  0  0  0  0  0  0  0
   58.8688   32.8342   50.0283 H   0  0  0  0  0  0  0  0  0  0  0  0
   58.6377   31.0529   50.0283 H   0  0  0  0  0  0  0  0  0  0  0  0
   61.5290   29.0076   48.9517 H   0  0  0  0  0  0  0  0  0  0  0  0
   59.9971   29.3139   49.8750 H   0  0  0  0  0  0  0  0  0  0  0  0
   60.4156   27.9912   47.2048 H   0  0  0  0  0  0  0  0  0  0  0  0
   59.2876   27.5895   48.5838 H   0  0  0  0  0  0  0  0  0  0  0  0
   57.6247   28.9430   47.8179 H   0  0  0  0  0  0  0  0  0  0  0  0
   58.7832   30.1260   47.0833 H   0  0  0  0  0  0  0  0  0  0  0  0
   59.7372   30.7235   44.9905 H   0  0  0  0  0  0  0  0  0  0  0  0
   58.9449   30.6505   43.3579 H   0  0  0  0  0  0  0  0  0  0  0  0
   57.1283   31.7997   44.0418 H   0  0  0  0  0  0  0  0  0  0  0  0
   57.0825   30.9429   45.6403 H   0  0  0  0  0  0  0  0  0  0  0  0
   58.7629   33.7085   43.7326 H   0  0  0  0  0  0  0  0  0  0  0  0
   59.6542   35.7495   44.8599 H   0  0  0  0  0  0  0  0  0  0  0  0
   59.6723   35.8937   47.3544 H   0  0  0  0  0  0  0  0  0  0  0  0
   58.8005   33.9925   48.7210 H   0  0  0  0  0  0  0  0  0  0  0  0
   57.9171   31.9439   47.6007 H   0  0  0  0  0  0  0  0  0  0  0  0
   58.2640   28.4000   42.6230 H   0  0  0  0  0  0  0  0  0  0  0  0
   57.6143   25.7117   42.5554 H   0  0  0  0  0  0  0  0  0  0  0  0
   58.7502   22.1413   44.7895 H   0  0  0  0  0  0  0  0  0  0  0  0
   57.6661   20.2261   43.3007 H   0  0  0  0  0  0  0  0  0  0  0  0
   55.4676   23.7817   42.6723 H   0  0  0  0  0  0  0  0  0  0  0  0
   57.3468   23.9863   46.5564 H   0  0  0  0  0  0  0  0  0  0  0  0
   57.8173   26.2453   47.5613 H   0  0  0  0  0  0  0  0  0  0  0  0
  1  2  1  0
  2  3  1  0
  3  4  1  0
  4  5  1  0
  3  6  1  0
  6  7  1  0
  7  8  1  0
  8  9  1  0
  9 10  1  0
 10 11  1  0
 11 12  1  0
 12 13  1  0
 13 14  2  0
 14 15  1  0
 15 16  2  0
 16 17  1  0
 17 18  2  0
 10 19  2  0
 19 20  1  0
 20 21  2  0
 21 22  1  0
 22 23  1  0
 23 24  1  0
 24 25  2  0
 25 26  1  0
 26 27  2  0
 22 28  2  0
 28 29  1  0
 29 30  2  0
 30  9  1  0
 18 13  1  0
 30 20  1  0
 27 23  1  0
  1 31  1  0
  1 32  1  0
  1 33  1  0
  2 34  1  0
  2 35  1  0
  4 36  1  0
  4 37  1  0
  5 38  1  0
  5 39  1  0
  5 40  1  0
  6 41  1  0
  6 42  1  0
  7 43  1  0
  7 44  1  0
  8 45  1  0
  8 46  1  0
 11 47  1  0
 11 48  1  0
 12 49  1  0
 12 50  1  0
 14 51  1  0
 15 52  1  0
 16 53  1  0
 17 54  1  0
 18 55  1  0
 19 56  1  0
 21 57  1  0
 24 58  1  0
 25 59  1  0
 27 60  1  0
 28 61  1  0
 29 62  1  0
M  CHG  1  19   1
M  END
>  <UniqueID>  (42) 
42

>  <SMILES>  (42) 
CCN(CC)CCCn1c(CCc2ccccc2)[nH+]c2cc(-n3ccnc3)ccc21

>  <Energy>  (42) 
129.4863107493538

>  <Genealogy>  (42) 
CCN(CC)CCCn1c(CCc2ccccc2)[nH+]c2cc(-n3ccnc3)ccc21 (protonated)
CCN(CC)CCCn1c(CCc2ccccc2)[nH+]c2cc(-n3ccnc3)ccc21 (3D coordinates assigned)
CCN(CC)CCCn1c(CCc2ccccc2)[nH+]c2cc(-n3ccnc3)ccc21 (optimized conformer: 129.4863107493538 kcal/mol)

>  <smiles>  (42) 
CCN(CC)CCCn1c(CCc2ccccc2)nc2cc(-n3ccnc3)ccc21

>  <score_type>  (42) 
oracle

>  <origin>  (42) 
adg

>  <m_score__min__energy>  (42) 
-7.1500000000000004

>  <m_primary>  (42) 
energy

$$$$
42:0
     RDKit          3D

 42 44  0  0  0  0  0  0  0  0999 V2000
   63.0580   33.4970   46.7270 C   0  0  0  0  0  0  0  0  0  0  0  0
   61.6060   33.6920   47.0460 C   0  0  0  0  0  0  0  0  0  0  0  0
   61.1900   33.8520   48.3750 C   0  0  0  0  0  0  0  0  0  0  0  0
   59.8440   34.0670   48.6680 C   0  0  0  0  0  0  0  0  0  0  0  0
   58.9040   34.1390   47.6380 C   0  0  0  0  0  0  0  0  0  0  0  0
   59.2980   34.0050   46.2970 C   0  0  0  0  0  0  0  0  0  0  0  0
   58.2970   34.0920   45.2610 N   0  0  0  0  0  0  0  0  0  0  0  0
   57.5180   32.9510   44.7570 C   0  0  1  0  0  0  0  0  0  0  0  0
   57.7900   32.7150   43.2510 C   0  0  0  0  0  0  0  0  0  0  0  0
   57.5470   31.2570   42.8170 C   0  0  0  0  0  0  0  0  0  0  0  0
   56.5390   30.5470   43.7340 C   0  0  0  0  0  0  0  0  0  0  0  0
   56.9600   30.5580   45.1590 N   0  0  0  0  0  0  0  0  0  0  0  0
   57.4250   29.2480   45.6610 C   0  0  0  0  0  0  0  0  0  0  0  0
   58.6150   29.3530   46.5760 C   0  0  0  0  0  0  0  0  0  0  0  0
   59.9390   29.2400   46.2010 C   0  0  0  0  0  0  0  0  0  0  0  0
   60.6680   29.4160   47.3570 C   0  0  0  0  0  0  0  0  0  0  0  0
   59.7470   29.6210   48.3640 C   0  0  0  0  0  0  0  0  0  0  0  0
   58.5320   29.5770   47.8680 O   0  0  0  0  0  0  0  0  0  0  0  0
   57.8510   31.6760   45.5490 C   0  0  0  0  0  0  0  0  0  0  0  0
   60.6620   33.7820   46.0100 C   0  0  0  0  0  0  0  0  0  0  0  0
   63.6318   33.4199   47.6623 H   0  0  0  0  0  0  0  0  0  0  0  0
   63.1842   32.5738   46.1423 H   0  0  0  0  0  0  0  0  0  0  0  0
   63.4233   34.3542   46.1423 H   0  0  0  0  0  0  0  0  0  0  0  0
   61.9280   33.8078   49.1895 H   0  0  0  0  0  0  0  0  0  0  0  0
   59.5216   34.1802   49.7136 H   0  0  0  0  0  0  0  0  0  0  0  0
   57.8434   34.3025   47.8797 H   0  0  0  0  0  0  0  0  0  0  0  0
   58.1200   35.0360   44.8490 H   0  0  0  0  0  0  0  0  0  0  0  0
   56.4523   33.1889   44.8896 H   0  0  0  0  0  0  0  0  0  0  0  0
   57.1256   33.3697   42.6679 H   0  0  0  0  0  0  0  0  0  0  0  0
   58.8512   32.9401   43.0689 H   0  0  0  0  0  0  0  0  0  0  0  0
   57.1568   31.2524   41.7885 H   0  0  0  0  0  0  0  0  0  0  0  0
   58.5040   30.7183   42.8804 H   0  0  0  0  0  0  0  0  0  0  0  0
   55.5668   31.0547   43.6495 H   0  0  0  0  0  0  0  0  0  0  0  0
   56.4764   29.4970   43.4121 H   0  0  0  0  0  0  0  0  0  0  0  0
   56.6007   28.7722   46.2125 H   0  0  0  0  0  0  0  0  0  0  0  0
   57.7347   28.6544   44.7883 H   0  0  0  0  0  0  0  0  0  0  0  0
   60.3301   29.0493   45.1907 H   0  0  0  0  0  0  0  0  0  0  0  0
   61.7633   29.3969   47.4570 H   0  0  0  0  0  0  0  0  0  0  0  0
   59.9934   29.7949   49.4219 H   0  0  0  0  0  0  0  0  0  0  0  0
   57.7258   31.8773   46.6232 H   0  0  0  0  0  0  0  0  0  0  0  0
   58.8896   31.3886   45.3281 H   0  0  0  0  0  0  0  0  0  0  0  0
   60.9887   33.6777   44.9648 H   0  0  0  0  0  0  0  0  0  0  0  0
  1  2  1  0
  2  3  2  0
  3  4  1  0
  4  5  2  0
  5  6  1  0
  6  7  1  0
  7  8  1  0
  8  9  1  0
  9 10  1  0
 10 11  1  0
 11 12  1  0
 12 13  1  0
 13 14  1  0
 14 15  2  0
 15 16  1  0
 16 17  2  0
 17 18  1  0
 12 19  1  0
  6 20  2  0
 20  2  1  0
 19  8  1  0
 18 14  1  0
  1 21  1  0
  1 22  1  0
  1 23  1  0
  3 24  1  0
  4 25  1  0
  5 26  1  0
  7 27  1  0
  8 28  1  6
  9 29  1  0
  9 30  1  0
 10 31  1  0
 10 32  1  0
 11 33  1  0
 11 34  1  0
 13 35  1  0
 13 36  1  0
 15 37  1  0
 16 38  1  0
 17 39  1  0
 19 40  1  0
 19 41  1  0
 20 42  1  0
M  END
>  <UniqueID>  (43) 
43

>  <SMILES>  (43) 
Cc1cccc(N[C@H]2CCCN(Cc3ccco3)C2)c1

>  <Energy>  (43) 
77.6780112288583

>  <Genealogy>  (43) 
Cc1cccc(N[C@H]2CCCN(Cc3ccco3)C2)c1 (chirality)
Cc1cccc(N[C@H]2CCCN(Cc3ccco3)C2)c1 (3D coordinates assigned)
Cc1cccc(N[C@H]2CCCN(Cc3ccco3)C2)c1 (nonaromatic ring conformer: 77.6780112288583 kcal/mol)

>  <smiles>  (43) 
Cc1cccc(NC2CCCN(Cc3ccco3)C2)c1

>  <score_type>  (43) 
oracle

>  <origin>  (43) 
adg

>  <m_score__min__energy>  (43) 
-8.0500000000000007

>  <m_primary>  (43) 
energy

$$$$
43:0
     RDKit          3D

 37 39  0  0  0  0  0  0  0  0999 V2000
   60.7020   27.6970   49.4330 C   0  0  0  0  0  0  0  0  0  0  0  0
   60.7500   27.1160   48.1340 O   0  0  0  0  0  0  0  0  0  0  0  0
   59.9080   27.4800   47.0730 C   0  0  0  0  0  0  0  0  0  0  0  0
   60.4020   27.9480   45.8410 C   0  0  0  0  0  0  0  0  0  0  0  0
   59.5200   28.2960   44.8140 C   0  0  0  0  0  0  0  0  0  0  0  0
   58.1330   28.1820   44.9920 C   0  0  0  0  0  0  0  0  0  0  0  0
   57.2550   28.5420   43.9100 N   0  0  0  0  0  0  0  0  0  0  0  0
   56.4940   30.0930   43.7550 S   0  0  0  0  0  0  0  0  0  0  0  0
   56.2630   30.3910   42.3000 O   0  0  0  0  0  0  0  0  0  0  0  0
   55.1720   30.0730   44.4680 O   0  0  0  0  0  0  0  0  0  0  0  0
   57.5060   31.3300   44.4770 C   0  0  0  0  0  0  0  0  0  0  0  0
   57.8150   32.5580   43.9140 C   0  0  0  0  0  0  0  0  0  0  0  0
   58.6700   33.3270   44.7120 C   0  0  0  0  0  0  0  0  0  0  0  0
   59.0350   32.6990   45.9050 C   0  0  0  0  0  0  0  0  0  0  0  0
   59.9220   33.2260   46.9640 C   0  0  0  0  0  0  0  0  0  0  0  0
   59.4170   33.7420   48.1710 C   0  0  0  0  0  0  0  0  0  0  0  0
   60.3030   34.2280   49.1340 C   0  0  0  0  0  0  0  0  0  0  0  0
   61.6780   34.1980   48.8950 C   0  0  0  0  0  0  0  0  0  0  0  0
   62.1470   33.6790   47.6880 C   0  0  0  0  0  0  0  0  0  0  0  0
   61.2700   33.2100   46.7620 N   0  0  0  0  0  0  0  0  0  0  0  0
   58.2860   31.1880   45.9560 S   0  0  0  0  0  0  0  0  0  0  0  0
   57.6420   27.7210   46.2280 C   0  0  0  0  0  0  0  0  0  0  0  0
   58.5250   27.3730   47.2540 C   0  0  0  0  0  0  0  0  0  0  0  0
   60.7675   26.9037   50.1922 H   0  0  0  0  0  0  0  0  0  0  0  0
   61.5458   28.3921   49.5552 H   0  0  0  0  0  0  0  0  0  0  0  0
   59.7556   28.2442   49.5552 H   0  0  0  0  0  0  0  0  0  0  0  0
   61.4871   28.0403   45.6856 H   0  0  0  0  0  0  0  0  0  0  0  0
   59.9175   28.6631   43.8563 H   0  0  0  0  0  0  0  0  0  0  0  0
   56.9890   27.8130   43.2100 H   0  0  0  0  0  0  0  0  0  0  0  0
   57.4283   32.8937   42.9405 H   0  0  0  0  0  0  0  0  0  0  0  0
   59.0208   34.3298   44.4269 H   0  0  0  0  0  0  0  0  0  0  0  0
   58.3326   33.7624   48.3547 H   0  0  0  0  0  0  0  0  0  0  0  0
   59.9178   34.6345   50.0808 H   0  0  0  0  0  0  0  0  0  0  0  0
   62.3828   34.5788   49.6489 H   0  0  0  0  0  0  0  0  0  0  0  0
   63.2278   33.6494   47.4857 H   0  0  0  0  0  0  0  0  0  0  0  0
   56.5571   27.6341   46.3873 H   0  0  0  0  0  0  0  0  0  0  0  0
   58.1282   27.0111   48.2140 H   0  0  0  0  0  0  0  0  0  0  0  0
  1  2  1  0
  2  3  1  0
  3  4  2  0
  4  5  1  0
  5  6  2  0
  6  7  1  0
  7  8  1  0
  8  9  2  0
  8 10  2  0
  8 11  1  0
 11 12  2  0
 12 13  1  0
 13 14  2  0
 14 15  1  0
 15 16  2  0
 16 17  1  0
 17 18  2  0
 18 19  1  0
 19 20  2  0
 14 21  1  0
  6 22  1  0
 22 23  2  0
 23  3  1  0
 21 11  1  0
 20 15  1  0
  1 24  1  0
  1 25  1  0
  1 26  1  0
  4 27  1  0
  5 28  1  0
  7 29  1  0
 12 30  1  0
 13 31  1  0
 16 32  1  0
 17 33  1  0
 18 34  1  0
 19 35  1  0
 22 36  1  0
 23 37  1  0
M  END
>  <UniqueID>  (44) 
44

>  <SMILES>  (44) 
COc1ccc(NS(=O)(=O)c2ccc(-c3ccccn3)s2)cc1

>  <Energy>  (44) 
69.45039503205474

>  <Genealogy>  (44) 
COc1ccc(NS(=O)(=O)c2ccc(-c3ccccn3)s2)cc1 (3D coordinates assigned)
COc1ccc(NS(=O)(=O)c2ccc(-c3ccccn3)s2)cc1 (optimized conformer: 69.45039503205474 kcal/mol)

>  <smiles>  (44) 
COc1ccc(NS(=O)(=O)c2ccc(-c3ccccn3)s2)cc1

>  <score_type>  (44) 
oracle

>  <origin>  (44) 
adg

>  <m_score__min__energy>  (44) 
-8

>  <m_primary>  (44) 
energy

$$$$
44:0
     RDKit          3D

 53 55  0  0  0  0  0  0  0  0999 V2000
   56.2320   22.8900   42.9900 C   0  0  0  0  0  0  0  0  0  0  0  0
   55.7630   23.8030   44.1230 C   0  0  0  0  0  0  0  0  0  0  0  0
   56.9190   24.4880   44.8680 C   0  0  0  0  0  0  0  0  0  0  0  0
   56.4160   25.6600   46.1390 S   0  0  0  0  0  0  0  0  0  0  0  0
   56.4280   24.9200   47.4480 O   0  0  0  0  0  0  0  0  0  0  0  0
   55.0100   26.1270   45.8840 O   0  0  0  0  0  0  0  0  0  0  0  0
   57.4810   27.0390   46.3040 N   0  0  0  0  0  0  0  0  0  0  0  0
   58.8770   26.6790   46.0370 C   0  0  0  0  0  0  0  0  0  0  0  0
   59.8100   27.7900   46.5530 C   0  0  0  0  0  0  0  0  0  0  0  0
   59.2000   29.2350   46.4330 C   0  0  0  0  0  0  0  0  0  0  0  0
   58.5170   29.6750   47.7560 C   0  0  0  0  0  0  0  0  0  0  0  0
   59.4910   29.8110   48.9360 C   0  0  0  0  0  0  0  0  0  0  0  0
   60.9390   30.1290   48.5200 C   0  0  0  0  0  0  0  0  0  0  0  0
   61.0380   30.8460   47.2360 N   0  0  0  0  0  0  0  0  0  0  0  0
   61.0970   32.3210   47.3190 C   0  0  0  0  0  0  0  0  0  0  0  0
   59.8820   33.0040   46.7360 C   0  0  0  0  0  0  0  0  0  0  0  0
   59.9980   33.8530   45.6240 C   0  0  0  0  0  0  0  0  0  0  0  0
   58.8570   34.4640   45.0980 C   0  0  0  0  0  0  0  0  0  0  0  0
   57.6430   34.2500   45.6730 N   0  0  0  0  0  0  0  0  0  0  0  0
   57.5030   33.4500   46.7620 C   0  0  0  0  0  0  0  0  0  0  0  0
   58.6180   32.8190   47.3170 C   0  0  0  0  0  0  0  0  0  0  0  0
   60.3040   30.2860   46.0740 C   0  0  0  0  0  0  0  0  0  0  0  0
   58.1400   29.2410   45.2910 C   0  0  0  0  0  0  0  0  0  0  0  0
   57.0320   28.1800   45.4830 C   0  0  0  0  0  0  0  0  0  0  0  0
   56.6957   21.9874   43.4146 H   0  0  0  0  0  0  0  0  0  0  0  0
   55.3700   22.6025   42.3701 H   0  0  0  0  0  0  0  0  0  0  0  0
   56.9678   23.4232   42.3701 H   0  0  0  0  0  0  0  0  0  0  0  0
   55.1117   24.5809   43.6979 H   0  0  0  0  0  0  0  0  0  0  0  0
   55.2331   23.1724   44.8521 H   0  0  0  0  0  0  0  0  0  0  0  0
   57.5277   23.7064   45.3461 H   0  0  0  0  0  0  0  0  0  0  0  0
   57.4694   25.0695   44.1137 H   0  0  0  0  0  0  0  0  0  0  0  0
   59.1151   25.7351   46.5492 H   0  0  0  0  0  0  0  0  0  0  0  0
   59.0201   26.5589   44.9530 H   0  0  0  0  0  0  0  0  0  0  0  0
   60.0312   27.5934   47.6124 H   0  0  0  0  0  0  0  0  0  0  0  0
   60.7126   27.7691   45.9247 H   0  0  0  0  0  0  0  0  0  0  0  0
   58.0334   30.6490   47.5904 H   0  0  0  0  0  0  0  0  0  0  0  0
   57.7951   28.8891   48.0229 H   0  0  0  0  0  0  0  0  0  0  0  0
   59.1328   30.6210   49.5884 H   0  0  0  0  0  0  0  0  0  0  0  0
   59.5130   28.8357   49.4443 H   0  0  0  0  0  0  0  0  0  0  0  0
   61.3973   30.7515   49.3026 H   0  0  0  0  0  0  0  0  0  0  0  0
   61.4581   29.1674   48.3944 H   0  0  0  0  0  0  0  0  0  0  0  0
   61.1837   32.6074   48.3775 H   0  0  0  0  0  0  0  0  0  0  0  0
   61.9664   32.6449   46.7280 H   0  0  0  0  0  0  0  0  0  0  0  0
   60.9826   34.0363   45.1690 H   0  0  0  0  0  0  0  0  0  0  0  0
   58.9405   35.1187   44.2180 H   0  0  0  0  0  0  0  0  0  0  0  0
   56.5087   33.2990   47.2076 H   0  0  0  0  0  0  0  0  0  0  0  0
   58.5062   32.1800   48.2053 H   0  0  0  0  0  0  0  0  0  0  0  0
   59.8219   31.1189   45.5412 H   0  0  0  0  0  0  0  0  0  0  0  0
   61.0503   29.7529   45.4667 H   0  0  0  0  0  0  0  0  0  0  0  0
   57.6700   30.2349   45.2555 H   0  0  0  0  0  0  0  0  0  0  0  0
   58.6658   28.9990   44.3556 H   0  0  0  0  0  0  0  0  0  0  0  0
   56.1712   28.6538   45.9776 H   0  0  0  0  0  0  0  0  0  0  0  0
   56.7633   27.7925   44.4892 H   0  0  0  0  0  0  0  0  0  0  0  0
  1  2  1  0
  2  3  1  0
  3  4  1  0
  4  5  2  0
  4  6  2  0
  4  7  1  0
  7  8  1  0
  8  9  1  0
  9 10  1  0
 10 11  1  0
 11 12  1  0
 12 13  1  0
 13 14  1  0
 14 15  1  0
 15 16  1  0
 16 17  2  0
 17 18  1  0
 18 19  2  0
 19 20  1  0
 20 21  2  0
 14 22  1  0
 10 23  1  0
 23 24  1  0
 24  7  1  0
 22 10  1  0
 21 16  1  0
  1 25  1  0
  1 26  1  0
  1 27  1  0
  2 28  1  0
  2 29  1  0
  3 30  1  0
  3 31  1  0
  8 32  1  0
  8 33  1  0
  9 34  1  0
  9 35  1  0
 11 36  1  0
 11 37  1  0
 12 38  1  0
 12 39  1  0
 13 40  1  0
 13 41  1  0
 15 42  1  0
 15 43  1  0
 17 44  1  0
 18 45  1  0
 20 46  1  0
 21 47  1  0
 22 48  1  0
 22 49  1  0
 23 50  1  0
 23 51  1  0
 24 52  1  0
 24 53  1  0
M  END
>  <UniqueID>  (45) 
45

>  <SMILES>  (45) 
CCCS(=O)(=O)N1CCC2(CCCN(Cc3ccncc3)C2)CC1

>  <Energy>  (45) 
71.17047630302699

>  <Genealogy>  (45) 
CCCS(=O)(=O)N1CCC2(CCCN(Cc3ccncc3)C2)CC1 (3D coordinates assigned)
CCCS(=O)(=O)N1CCC2(CCCN(Cc3ccncc3)C2)CC1 (nonaromatic ring conformer: 71.17047630302699 kcal/mol)

>  <smiles>  (45) 
CCCS(=O)(=O)N1CCC2(CCCN(Cc3ccncc3)C2)CC1

>  <score_type>  (45) 
oracle

>  <origin>  (45) 
adg

>  <m_score__min__energy>  (45) 
-8.4900000000000002

>  <m_primary>  (45) 
energy

$$$$
45:0
     RDKit          3D

 49 49  0  0  0  0  0  0  0  0999 V2000
   57.0320   20.1370   43.3700 H   0  0  0  0  0  0  0  0  0  0  0  0
   56.2920   20.7710   43.1880 O   0  0  0  0  0  0  0  0  0  0  0  0
   56.9320   22.2800   43.5520 S   0  0  0  0  0  0  0  0  0  0  0  0
   58.1820   22.1190   44.7920 C   0  0  0  0  0  0  0  0  0  0  0  0
   59.1620   22.4146   44.3893 H   0  0  0  0  0  0  0  0  0  0  0  0
   58.2765   21.0800   45.1408 H   0  0  0  0  0  0  0  0  0  0  0  0
   57.7660   23.0570   45.9220 C   0  0  0  0  0  0  0  0  0  0  0  0
   58.2072   24.0516   45.7603 H   0  0  0  0  0  0  0  0  0  0  0  0
   58.1194   22.6650   46.8871 H   0  0  0  0  0  0  0  0  0  0  0  0
   56.2340   23.1640   45.9260 C   0  0  1  0  0  0  0  0  0  0  0  0
   55.7873   22.2897   46.4221 H   0  0  0  0  0  0  0  0  0  0  0  0
   55.8180   24.3540   46.6650 N   0  0  0  0  0  0  0  0  0  0  0  0
   55.8450   25.6770   46.1210 C   0  0  0  0  0  0  0  0  0  0  0  0
   54.7800   26.3400   45.9920 O   0  0  0  0  0  0  0  0  0  0  0  0
   57.1410   26.2450   45.6430 C   0  0  0  0  0  0  0  0  0  0  0  0
   57.0359   26.5609   44.5946 H   0  0  0  0  0  0  0  0  0  0  0  0
   57.9241   25.4768   45.7240 H   0  0  0  0  0  0  0  0  0  0  0  0
   57.5230   27.4300   46.4840 C   0  0  0  0  0  0  0  0  0  0  0  0
   56.8182   27.7995   47.2435 H   0  0  0  0  0  0  0  0  0  0  0  0
   58.7040   28.0480   46.3300 C   0  0  0  0  0  0  0  0  0  0  0  0
   59.5071   27.8665   47.0595 H   0  0  0  0  0  0  0  0  0  0  0  0
   58.9520   28.9890   45.1730 C   0  0  1  0  0  0  0  0  0  0  0  0
   58.9109   30.0084   45.5842 H   0  0  0  0  0  0  0  0  0  0  0  0
   60.3560   28.7790   44.5830 C   0  0  0  0  0  0  0  0  0  0  0  0
   61.0845   28.6700   45.4000 H   0  0  0  0  0  0  0  0  0  0  0  0
   60.3612   27.8701   43.9634 H   0  0  0  0  0  0  0  0  0  0  0  0
   60.6269   29.6466   43.9634 H   0  0  0  0  0  0  0  0  0  0  0  0
   57.8350   28.9570   44.0900 C   0  0  0  0  0  0  0  0  0  0  0  0
   57.2804   28.0154   44.2156 H   0  0  0  0  0  0  0  0  0  0  0  0
   58.3673   29.0636   43.1333 H   0  0  0  0  0  0  0  0  0  0  0  0
   56.8020   30.1090   44.0990 C   0  0  0  0  0  0  0  0  0  0  0  0
   56.2979   30.1015   45.0767 H   0  0  0  0  0  0  0  0  0  0  0  0
   56.1340   29.9151   43.2468 H   0  0  0  0  0  0  0  0  0  0  0  0
   57.3660   31.5220   43.8710 C   0  0  0  0  0  0  0  0  0  0  0  0
   56.6834   32.0689   43.2040 H   0  0  0  0  0  0  0  0  0  0  0  0
   58.3674   31.4104   43.4298 H   0  0  0  0  0  0  0  0  0  0  0  0
   57.5230   32.3220   45.1760 C   0  0  0  0  0  0  0  0  0  0  0  0
   58.3881   31.9284   45.7298 H   0  0  0  0  0  0  0  0  0  0  0  0
   56.5920   32.2115   45.7513 H   0  0  0  0  0  0  0  0  0  0  0  0
   57.7410   33.8210   44.9210 C   0  0  0  0  0  0  0  0  0  0  0  0
   56.8214   34.3612   45.1902 H   0  0  0  0  0  0  0  0  0  0  0  0
   57.9884   33.9444   43.8563 H   0  0  0  0  0  0  0  0  0  0  0  0
   58.9010   34.3950   45.7340 C   0  0  0  0  0  0  0  0  0  0  0  0
   58.6848   34.2880   46.8072 H   0  0  0  0  0  0  0  0  0  0  0  0
   59.8248   33.8501   45.4899 H   0  0  0  0  0  0  0  0  0  0  0  0
   59.0282   35.4600   45.4899 H   0  0  0  0  0  0  0  0  0  0  0  0
   55.7580   23.2280   44.4730 C   0  0  0  0  0  0  0  0  0  0  0  0
   55.7416   24.2693   44.1189 H   0  0  0  0  0  0  0  0  0  0  0  0
   54.7365   22.8359   44.3596 H   0  0  0  0  0  0  0  0  0  0  0  0
  1  2  1  0
  3  2  1  1
  3  4  1  0
  4  5  1  0
  4  6  1  0
  4  7  1  0
  7  8  1  0
  7  9  1  0
  7 10  1  0
 10 11  1  1
 10 12  1  0
 12 13  1  0
 13 14  2  0
 13 15  1  0
 15 16  1  0
 15 17  1  0
 15 18  1  0
 18 19  1  0
 18 20  2  0
 20 21  1  0
 20 22  1  0
 22 23  1  1
 22 24  1  0
 24 25  1  0
 24 26  1  0
 24 27  1  0
 22 28  1  0
 28 29  1  0
 28 30  1  0
 28 31  1  0
 31 32  1  0
 31 33  1  0
 31 34  1  0
 34 35  1  0
 34 36  1  0
 34 37  1  0
 37 38  1  0
 37 39  1  0
 37 40  1  0
 40 41  1  0
 40 42  1  0
 40 43  1  0
 43 44  1  0
 43 45  1  0
 43 46  1  0
 10 47  1  0
 47 48  1  0
 47 49  1  0
 47  3  1  0
M  CHG  2   3   1  12  -1
M  END
>  <UniqueID>  (46) 
46

>  <SMILES>  (46) 
CCCCCC[C@H](C)/C=C/CC(=O)[N-][C@@H]1CC[S+](O)C1

>  <Energy>  (46) 
28.178064278937203

>  <Genealogy>  (46) 
CCCCCCC(C)C=CCC(=O)[N-]C1CC[S+](O)C1 (protonated)
CCCCCC[C@H](C)C=CCC(=O)[N-][C@@H]1CC[S+](O)C1 (chirality)
CCCCCC[C@H](C)/C=C/CC(=O)[N-][C@@H]1CC[S+](O)C1 (cis-trans isomerization)
CCCCCC[C@H](C)/C=C/CC(=O)[N-][C@@H]1CC[S+](O)C1 (3D coordinates assigned)
CCCCCC[C@H](C)/C=C/CC(=O)[N-][C@@H]1CC[S+](O)C1 (nonaromatic ring conformer: 28.178064278937203 kcal/mol)

>  <smiles>  (46) 
CCCCCCC(C)C=CCC(=O)NC1CC[S+]([O-])C1

>  <score_type>  (46) 
oracle

>  <origin>  (46) 
adg

>  <m_score__min__energy>  (46) 
-8.2899999999999991

>  <m_primary>  (46) 
energy

$$$$
46:0
     RDKit          3D

 44 46  0  0  0  0  0  0  0  0999 V2000
   55.4960   18.9000   45.6610 C   0  0  0  0  0  0  0  0  0  0  0  0
   55.3080   20.1120   44.9440 O   0  0  0  0  0  0  0  0  0  0  0  0
   56.3740   20.8650   44.4440 C   0  0  0  0  0  0  0  0  0  0  0  0
   56.2670   21.4850   43.3510 O   0  0  0  0  0  0  0  0  0  0  0  0
   57.6700   20.9010   45.1920 C   0  0  0  0  0  0  0  0  0  0  0  0
   57.6300   21.8900   46.2220 O   0  0  0  0  0  0  0  0  0  0  0  0
   57.4090   23.2620   46.0190 C   0  0  0  0  0  0  0  0  0  0  0  0
   56.8700   24.0980   47.0150 C   0  0  0  0  0  0  0  0  0  0  0  0
   56.6870   25.4630   46.7690 C   0  0  0  0  0  0  0  0  0  0  0  0
   57.0450   26.0140   45.5240 C   0  0  0  0  0  0  0  0  0  0  0  0
   56.9080   27.3820   45.2340 O   0  0  0  0  0  0  0  0  0  0  0  0
   57.8560   28.1680   44.5120 C   0  0  0  0  0  0  0  0  0  0  0  0
   57.6080   29.6350   44.7190 C   0  0  0  0  0  0  0  0  0  0  0  0
   58.5100   30.4770   45.2620 N   0  0  0  0  0  0  0  0  0  0  0  0
   57.8550   31.6620   45.2260 C   0  0  0  0  0  0  0  0  0  0  0  0
   58.4220   32.9260   45.7400 C   0  0  0  0  0  0  0  0  0  0  0  0
   58.7490   33.9720   44.8610 C   0  0  0  0  0  0  0  0  0  0  0  0
   59.2800   35.1610   45.3690 C   0  0  0  0  0  0  0  0  0  0  0  0
   59.4770   35.3030   46.7060 N   0  0  0  0  0  0  0  0  0  0  0  0
   59.1700   34.3100   47.5820 C   0  0  0  0  0  0  0  0  0  0  0  0
   58.6370   33.1050   47.1160 C   0  0  0  0  0  0  0  0  0  0  0  0
   56.6260   31.5570   44.6800 N   0  0  0  0  0  0  0  0  0  0  0  0
   56.4870   30.2860   44.3540 N   0  0  0  0  0  0  0  0  0  0  0  0
   55.2830   29.7180   43.7590 C   0  0  0  0  0  0  0  0  0  0  0  0
   57.5660   25.1760   44.5320 C   0  0  0  0  0  0  0  0  0  0  0  0
   57.7450   23.8120   44.7780 C   0  0  0  0  0  0  0  0  0  0  0  0
   55.4643   19.1044   46.7414 H   0  0  0  0  0  0  0  0  0  0  0  0
   54.6971   18.1909   45.3984 H   0  0  0  0  0  0  0  0  0  0  0  0
   56.4722   18.4663   45.3984 H   0  0  0  0  0  0  0  0  0  0  0  0
   57.8535   19.9153   45.6445 H   0  0  0  0  0  0  0  0  0  0  0  0
   58.4776   21.1540   44.4893 H   0  0  0  0  0  0  0  0  0  0  0  0
   56.5912   23.6759   47.9918 H   0  0  0  0  0  0  0  0  0  0  0  0
   56.2616   26.1084   47.5516 H   0  0  0  0  0  0  0  0  0  0  0  0
   58.8691   27.9215   44.8626 H   0  0  0  0  0  0  0  0  0  0  0  0
   57.7538   27.9431   43.4401 H   0  0  0  0  0  0  0  0  0  0  0  0
   58.5881   33.8559   43.7790 H   0  0  0  0  0  0  0  0  0  0  0  0
   59.5388   35.9830   44.6854 H   0  0  0  0  0  0  0  0  0  0  0  0
   59.3413   34.4550   48.6589 H   0  0  0  0  0  0  0  0  0  0  0  0
   58.3872   32.3008   47.8237 H   0  0  0  0  0  0  0  0  0  0  0  0
   54.5975   29.3946   44.5562 H   0  0  0  0  0  0  0  0  0  0  0  0
   54.7884   30.4777   43.1360 H   0  0  0  0  0  0  0  0  0  0  0  0
   55.5548   28.8532   43.1360 H   0  0  0  0  0  0  0  0  0  0  0  0
   57.8367   25.5939   43.5512 H   0  0  0  0  0  0  0  0  0  0  0  0
   58.1540   23.1650   43.9880 H   0  0  0  0  0  0  0  0  0  0  0  0
  1  2  1  0
  2  3  1  0
  3  4  2  0
  3  5  1  0
  5  6  1  0
  6  7  1  0
  7  8  2  0
  8  9  1  0
  9 10  2  0
 10 11  1  0
 11 12  1  0
 12 13  1  0
 13 14  2  0
 14 15  1  0
 15 16  1  0
 16 17  2  0
 17 18  1  0
 18 19  2  0
 19 20  1  0
 20 21  2  0
 15 22  2  0
 22 23  1  0
 23 24  1  0
 10 25  1  0
 25 26  2  0
 26  7  1  0
 23 13  1  0
 21 16  1  0
  1 27  1  0
  1 28  1  0
  1 29  1  0
  5 30  1  0
  5 31  1  0
  8 32  1  0
  9 33  1  0
 12 34  1  0
 12 35  1  0
 17 36  1  0
 18 37  1  0
 20 38  1  0
 21 39  1  0
 24 40  1  0
 24 41  1  0
 24 42  1  0
 25 43  1  0
 26 44  1  0
M  END
>  <UniqueID>  (47) 
47

>  <SMILES>  (47) 
COC(=O)COc1ccc(OCc2nc(-c3ccncc3)nn2C)cc1

>  <Energy>  (47) 
75.45556184697242

>  <Genealogy>  (47) 
COC(=O)COc1ccc(OCc2nc(-c3ccncc3)nn2C)cc1 (3D coordinates assigned)
COC(=O)COc1ccc(OCc2nc(-c3ccncc3)nn2C)cc1 (optimized conformer: 75.45556184697242 kcal/mol)

>  <smiles>  (47) 
COC(=O)COc1ccc(OCc2nc(-c3ccncc3)nn2C)cc1

>  <score_type>  (47) 
oracle

>  <origin>  (47) 
adg

>  <m_score__min__energy>  (47) 
-6.9800000000000004

>  <m_primary>  (47) 
energy

$$$$
47:0
     RDKit          3D

 22 23  0  0  0  0  0  0  0  0999 V2000
   56.6800   30.4630   43.3130 C   0  0  0  0  0  0  0  0  0  0  0  0
   56.6130   30.8600   44.6800 O   0  0  0  0  0  0  0  0  0  0  0  0
   57.3750   31.8960   45.2410 C   0  0  0  0  0  0  0  0  0  0  0  0
   57.3970   33.1960   44.6980 C   0  0  0  0  0  0  0  0  0  0  0  0
   58.1710   34.1970   45.2910 C   0  0  0  0  0  0  0  0  0  0  0  0
   58.9330   33.9150   46.4320 C   0  0  0  0  0  0  0  0  0  0  0  0
   59.7160   34.9020   47.0420 C   0  0  0  0  0  0  0  0  0  0  0  0
   60.4650   34.5910   48.1780 C   0  0  0  0  0  0  0  0  0  0  0  0
   60.4230   33.2940   48.6950 C   0  0  0  0  0  0  0  0  0  0  0  0
   59.6600   32.3390   48.0970 N   0  0  0  0  0  0  0  0  0  0  0  0
   58.9170   32.6130   46.9850 C   0  0  0  0  0  0  0  0  0  0  0  0
   58.1370   31.6150   46.3820 C   0  0  0  0  0  0  0  0  0  0  0  0
   56.8628   29.3799   43.2543 H   0  0  0  0  0  0  0  0  0  0  0  0
   55.7288   30.7019   42.8148 H   0  0  0  0  0  0  0  0  0  0  0  0
   57.5001   31.0008   42.8148 H   0  0  0  0  0  0  0  0  0  0  0  0
   56.8013   33.4243   43.8019 H   0  0  0  0  0  0  0  0  0  0  0  0
   58.1819   35.2092   44.8606 H   0  0  0  0  0  0  0  0  0  0  0  0
   59.7410   35.9204   46.6270 H   0  0  0  0  0  0  0  0  0  0  0  0
   61.0834   35.3611   48.6623 H   0  0  0  0  0  0  0  0  0  0  0  0
   61.0101   33.0431   49.5907 H   0  0  0  0  0  0  0  0  0  0  0  0
   59.6530   31.3780   48.5090 H   0  0  0  0  0  0  0  0  0  0  0  0
   58.1237   30.6016   46.8096 H   0  0  0  0  0  0  0  0  0  0  0  0
  1  2  1  0
  2  3  1  0
  3  4  2  0
  4  5  1  0
  5  6  2  0
  6  7  1  0
  7  8  2  0
  8  9  1  0
  9 10  2  0
 10 11  1  0
 11 12  2  0
 12  3  1  0
 11  6  1  0
  1 13  1  0
  1 14  1  0
  1 15  1  0
  4 16  1  0
  5 17  1  0
  7 18  1  0
  8 19  1  0
  9 20  1  0
 10 21  1  0
 12 22  1  0
M  CHG  1  10   1
M  END
>  <UniqueID>  (48) 
48

>  <SMILES>  (48) 
COc1ccc2ccc[nH+]c2c1

>  <Energy>  (48) 
24.946102714486802

>  <Genealogy>  (48) 
COc1ccc2ccc[nH+]c2c1 (protonated)
COc1ccc2ccc[nH+]c2c1 (3D coordinates assigned)
COc1ccc2ccc[nH+]c2c1 (optimized conformer: 24.946102714486802 kcal/mol)

>  <smiles>  (48) 
COc1ccc2cccnc2c1

>  <score_type>  (48) 
oracle

>  <origin>  (48) 
adg

>  <m_score__min__energy>  (48) 
-3.5600000000000001

>  <m_primary>  (48) 
energy

$$$$
48:0
     RDKit          3D

 53 56  0  0  0  0  0  0  0  0999 V2000
   55.8710   27.8780   44.5330 H   0  0  0  0  0  0  0  0  0  0  0  0
   55.8650   28.8680   44.8660 N   0  0  0  0  0  0  0  0  0  0  0  0
   56.8660   29.3690   45.5140 C   0  0  0  0  0  0  0  0  0  0  0  0
   57.1000   30.7110   45.4850 N   0  0  0  0  0  0  0  0  0  0  0  0
   58.1410   31.2720   46.1560 C   0  0  0  0  0  0  0  0  0  0  0  0
   58.3033   32.3590   46.1102 H   0  0  0  0  0  0  0  0  0  0  0  0
   59.0060   30.4660   46.9050 C   0  0  0  0  0  0  0  0  0  0  0  0
   60.1060   31.0480   47.6240 C   0  0  0  0  0  0  0  0  0  0  0  0
   61.0390   31.5240   48.2210 C   0  0  0  0  0  0  0  0  0  0  0  0
   62.1710   32.0790   48.9310 C   0  0  0  0  0  0  0  0  0  0  0  0
   62.1410   32.2400   50.3340 C   0  0  0  0  0  0  0  0  0  0  0  0
   60.9440   31.9210   51.1480 C   0  0  0  0  0  0  0  0  0  0  0  0
   60.8190   30.6530   51.7340 C   0  0  0  0  0  0  0  0  0  0  0  0
   61.6087   29.9018   51.5856 H   0  0  0  0  0  0  0  0  0  0  0  0
   59.6960   30.3380   52.5060 C   0  0  0  0  0  0  0  0  0  0  0  0
   59.5984   29.3341   52.9449 H   0  0  0  0  0  0  0  0  0  0  0  0
   58.6930   31.2950   52.7240 C   0  0  0  0  0  0  0  0  0  0  0  0
   57.5100   30.9440   53.5400 C   0  0  0  0  0  0  0  0  0  0  0  0
   57.5470   31.1340   54.7860 O   0  0  0  0  0  0  0  0  0  0  0  0
   56.3180   30.4010   52.9420 N   0  0  0  0  0  0  0  0  0  0  0  0
   55.8700   30.8510   51.6150 C   0  0  0  0  0  0  0  0  0  0  0  0
   56.3663   31.8004   51.3653 H   0  0  0  0  0  0  0  0  0  0  0  0
   56.1297   30.0871   50.8674 H   0  0  0  0  0  0  0  0  0  0  0  0
   54.3530   31.0570   51.6180 C   0  0  0  0  0  0  0  0  0  0  0  0
   54.1094   31.8752   52.3118 H   0  0  0  0  0  0  0  0  0  0  0  0
   54.0459   31.2946   50.5888 H   0  0  0  0  0  0  0  0  0  0  0  0
   53.5860   29.7920   52.0560 C   0  0  0  0  0  0  0  0  0  0  0  0
   52.7495   30.0996   52.7007 H   0  0  0  0  0  0  0  0  0  0  0  0
   53.2477   29.2889   51.1382 H   0  0  0  0  0  0  0  0  0  0  0  0
   54.4490   28.7780   52.8310 C   0  0  0  0  0  0  0  0  0  0  0  0
   53.7923   28.1636   53.4644 H   0  0  0  0  0  0  0  0  0  0  0  0
   54.9871   28.1591   52.0979 H   0  0  0  0  0  0  0  0  0  0  0  0
   55.4880   29.4700   53.7200 C   0  0  0  0  0  0  0  0  0  0  0  0
   54.9676   30.0290   54.5116 H   0  0  0  0  0  0  0  0  0  0  0  0
   56.1424   28.7001   54.1548 H   0  0  0  0  0  0  0  0  0  0  0  0
   58.8180   32.5680   52.1390 C   0  0  0  0  0  0  0  0  0  0  0  0
   57.8370   33.4950   52.2750 F   0  0  0  0  0  0  0  0  0  0  0  0
   59.9430   32.8810   51.3700 C   0  0  0  0  0  0  0  0  0  0  0  0
   60.0449   33.8865   50.9357 H   0  0  0  0  0  0  0  0  0  0  0  0
   63.2560   32.6820   50.9730 N   0  0  0  0  0  0  0  0  0  0  0  0
   64.3870   32.9960   50.2960 C   0  0  0  0  0  0  0  0  0  0  0  0
   65.2723   33.3524   50.8430 H   0  0  0  0  0  0  0  0  0  0  0  0
   64.4310   32.8720   48.9440 N   0  0  0  0  0  0  0  0  0  0  0  0
   65.3160   33.1230   48.4500 H   0  0  0  0  0  0  0  0  0  0  0  0
   63.3520   32.4200   48.2420 C   0  0  0  0  0  0  0  0  0  0  0  0
   63.4480   32.2730   46.7470 C   0  0  0  0  0  0  0  0  0  0  0  0
   64.0346   31.3748   46.5038 H   0  0  0  0  0  0  0  0  0  0  0  0
   62.4378   32.1773   46.3224 H   0  0  0  0  0  0  0  0  0  0  0  0
   63.9418   33.1595   46.3224 H   0  0  0  0  0  0  0  0  0  0  0  0
   58.7870   29.0850   46.9480 C   0  0  0  0  0  0  0  0  0  0  0  0
   59.4601   28.4379   47.5295 H   0  0  0  0  0  0  0  0  0  0  0  0
   57.7120   28.5300   46.2510 C   0  0  0  0  0  0  0  0  0  0  0  0
   57.5312   27.4454   46.2802 H   0  0  0  0  0  0  0  0  0  0  0  0
  1  2  1  0
  2  3  2  0
  3  4  1  0
  4  5  1  0
  5  6  1  0
  5  7  2  0
  7  8  1  0
  8  9  3  0
  9 10  1  0
 10 11  1  0
 11 12  1  0
 12 13  2  0
 13 14  1  0
 13 15  1  0
 15 16  1  0
 15 17  2  0
 17 18  1  0
 18 19  2  0
 18 20  1  0
 20 21  1  0
 21 22  1  0
 21 23  1  0
 21 24  1  0
 24 25  1  0
 24 26  1  0
 24 27  1  0
 27 28  1  0
 27 29  1  0
 27 30  1  0
 30 31  1  0
 30 32  1  0
 30 33  1  0
 33 34  1  0
 33 35  1  0
 17 36  1  0
 36 37  1  0
 36 38  2  0
 38 39  1  0
 11 40  2  0
 40 41  1  0
 41 42  1  0
 41 43  2  0
 43 44  1  0
 43 45  1  0
 45 46  1  0
 46 47  1  0
 46 48  1  0
 46 49  1  0
  7 50  1  0
 50 51  1  0
 50 52  2  0
 52 53  1  0
 52  3  1  0
 45 10  2  0
 38 12  1  0
 33 20  1  0
M  CHG  2   4  -1  43   1
M  END
>  <UniqueID>  (49) 
49

>  <SMILES>  (49) 
[H]/N=c1/ccc(C#Cc2c(-c3ccc(C(=O)N4CCCCC4)c(F)c3)nc[nH+]c2C)c[n-]1

>  <Energy>  (49) 
66.29103349649168

>  <Genealogy>  (49) 
Cc1[nH+]cnc(-c2ccc(C(=O)N3CCCCC3)c(F)c2)c1C#Cc1ccc(=N)[n-]c1 (protonated)
[H]/N=c1/ccc(C#Cc2c(-c3ccc(C(=O)N4CCCCC4)c(F)c3)nc[nH+]c2C)c[n-]1 (cis-trans isomerization)
[H]/N=c1/ccc(C#Cc2c(-c3ccc(C(=O)N4CCCCC4)c(F)c3)nc[nH+]c2C)c[n-]1 (3D coordinates assigned)
[H]/N=c1/ccc(C#Cc2c(-c3ccc(C(=O)N4CCCCC4)c(F)c3)nc[nH+]c2C)c[n-]1 (nonaromatic ring conformer: 66.29103349649168 kcal/mol)

>  <smiles>  (49) 
Cc1ncnc(-c2ccc(C(=O)N3CCCCC3)c(F)c2)c1C#Cc1ccc(=N)[nH]c1

>  <score_type>  (49) 
oracle

>  <origin>  (49) 
adg

>  <m_score__min__energy>  (49) 
-10.27

>  <m_primary>  (49) 
energy

$$$$
