0:0
     RDKit          3D

 48 49  0  0  0  0  0  0  0  0999 V2000
   58.5650   32.0170   50.8190 C   0  0  0  0  0  0  0  0  0  0  0  0
   59.4970   33.2310   50.7540 C   0  0  0  0  0  0  0  0  0  0  0  0
   59.8080   33.6160   49.3640 N   0  0  0  0  0  0  0  0  0  0  0  0
   61.0810   34.3660   49.2470 C   0  0  0  0  0  0  0  0  0  0  0  0
   62.0610   33.7270   48.2410 C   0  0  0  0  0  0  0  0  0  0  0  0
   61.3870   33.2480   46.9450 C   0  0  0  0  0  0  0  0  0  0  0  0
   61.0720   31.8130   47.0080 N   0  0  0  0  0  0  0  0  0  0  0  0
   59.6330   31.4840   46.8750 C   0  0  2  0  0  0  0  0  0  0  0  0
   59.3260   30.4030   45.8440 C   0  0  0  0  0  0  0  0  0  0  0  0
   60.0650   29.2040   45.8190 C   0  0  0  0  0  0  0  0  0  0  0  0
   59.6930   28.1550   44.9740 C   0  0  0  0  0  0  0  0  0  0  0  0
   58.5550   28.2730   44.1690 C   0  0  0  0  0  0  0  0  0  0  0  0
   58.1640   27.1860   43.3090 C   0  0  0  0  0  0  0  0  0  0  0  0
   57.8490   26.3140   42.6170 N   0  0  0  0  0  0  0  0  0  0  0  0
   57.7940   29.4450   44.2100 C   0  0  0  0  0  0  0  0  0  0  0  0
   58.1790   30.5060   45.0350 C   0  0  0  0  0  0  0  0  0  0  0  0
   57.4120   31.6710   45.0450 O   0  0  0  0  0  0  0  0  0  0  0  0
   57.9590   32.9280   45.4340 C   0  0  0  0  0  0  0  0  0  0  0  0
   58.8640   33.4390   44.2940 C   0  0  0  0  0  0  0  0  0  0  0  0
   56.7940   33.9260   45.5900 C   0  0  0  0  0  0  0  0  0  0  0  0
   58.7480   32.7770   46.7790 C   0  0  1  0  0  0  0  0  0  0  0  0
   57.8370   32.7760   47.8530 O   0  0  0  0  0  0  0  0  0  0  0  0
   58.3687   31.7613   51.8707 H   0  0  0  0  0  0  0  0  0  0  0  0
   57.6161   32.2559   50.3165 H   0  0  0  0  0  0  0  0  0  0  0  0
   59.0409   31.1620   50.3165 H   0  0  0  0  0  0  0  0  0  0  0  0
   59.0103   34.0796   51.2570 H   0  0  0  0  0  0  0  0  0  0  0  0
   60.4407   32.9616   51.2509 H   0  0  0  0  0  0  0  0  0  0  0  0
   59.8310   32.7490   48.7790 H   0  0  0  0  0  0  0  0  0  0  0  0
   59.0260   34.2010   48.9850 H   0  0  0  0  0  0  0  0  0  0  0  0
   60.8561   35.3907   48.9162 H   0  0  0  0  0  0  0  0  0  0  0  0
   61.5650   34.3532   50.2347 H   0  0  0  0  0  0  0  0  0  0  0  0
   62.8266   34.4724   47.9799 H   0  0  0  0  0  0  0  0  0  0  0  0
   62.4906   32.8394   48.7284 H   0  0  0  0  0  0  0  0  0  0  0  0
   60.4555   33.8135   46.7949 H   0  0  0  0  0  0  0  0  0  0  0  0
   62.0817   33.4156   46.1088 H   0  0  0  0  0  0  0  0  0  0  0  0
   61.6120   31.3030   46.2700 H   0  0  0  0  0  0  0  0  0  0  0  0
   59.3344   30.9954   47.8142 H   0  0  0  0  0  0  0  0  0  0  0  0
   60.9437   29.0923   46.4712 H   0  0  0  0  0  0  0  0  0  0  0  0
   60.2957   27.2354   44.9418 H   0  0  0  0  0  0  0  0  0  0  0  0
   56.8890   29.5327   43.5909 H   0  0  0  0  0  0  0  0  0  0  0  0
   59.7465   33.9373   44.7217 H   0  0  0  0  0  0  0  0  0  0  0  0
   59.1870   32.5900   43.6737 H   0  0  0  0  0  0  0  0  0  0  0  0
   58.3038   34.1541   43.6737 H   0  0  0  0  0  0  0  0  0  0  0  0
   56.5967   34.0951   46.6589 H   0  0  0  0  0  0  0  0  0  0  0  0
   57.0614   34.8795   45.1112 H   0  0  0  0  0  0  0  0  0  0  0  0
   55.8928   33.5154   45.1112 H   0  0  0  0  0  0  0  0  0  0  0  0
   59.4378   33.6329   46.8199 H   0  0  0  0  0  0  0  0  0  0  0  0
   56.9770   32.4190   47.5080 H   0  0  0  0  0  0  0  0  0  0  0  0
  1  2  1  0
  2  3  1  0
  3  4  1  0
  4  5  1  0
  5  6  1  0
  6  7  1  0
  7  8  1  0
  8  9  1  0
  9 10  2  0
 10 11  1  0
 11 12  2  0
 12 13  1  0
 13 14  3  0
 12 15  1  0
 15 16  2  0
 16 17  1  0
 17 18  1  0
 18 19  1  0
 18 20  1  0
 18 21  1  0
 21 22  1  0
 21  8  1  0
 16  9  1  0
  1 23  1  0
  1 24  1  0
  1 25  1  0
  2 26  1  0
  2 27  1  0
  3 28  1  0
  3 29  1  0
  4 30  1  0
  4 31  1  0
  5 32  1  0
  5 33  1  0
  6 34  1  0
  6 35  1  0
  7 36  1  0
  8 37  1  1
 10 38  1  0
 11 39  1  0
 15 40  1  0
 19 41  1  0
 19 42  1  0
 19 43  1  0
 20 44  1  0
 20 45  1  0
 20 46  1  0
 21 47  1  1
 22 48  1  0
M  CHG  1   3   1
M  END
>  <UniqueID>  (1) 
1

>  <SMILES>  (1) 
CC[NH2+]CCCN[C@@H]1c2ccc(C#N)cc2OC(C)(C)[C@H]1O

>  <Energy>  (1) 
55.206086594507

>  <Genealogy>  (1) 
CC[NH2+]CCCNC1c2ccc(C#N)cc2OC(C)(C)C1O (protonated)
CC[NH2+]CCCN[C@@H]1c2ccc(C#N)cc2OC(C)(C)[C@H]1O (chirality)
CC[NH2+]CCCN[C@@H]1c2ccc(C#N)cc2OC(C)(C)[C@H]1O (3D coordinates assigned)
CC[NH2+]CCCN[C@@H]1c2ccc(C#N)cc2OC(C)(C)[C@H]1O (nonaromatic ring conformer: 55.206086594507 kcal/mol)

>  <smiles>  (1) 
CCNCCCNC1c2ccc(C#N)cc2OC(C)(C)C1O

>  <score_type>  (1) 
oracle

>  <origin>  (1) 
adg

>  <m_score__min__energy>  (1) 
-5.0300000000000002

>  <m_primary>  (1) 
energy

$$$$
1:0
     RDKit          3D

 50 52  0  0  0  0  0  0  0  0999 V2000
   63.3130   33.8560   46.3780 C   0  0  0  0  0  0  0  0  0  0  0  0
   63.1130   32.5530   47.1490 C   0  0  0  0  0  0  0  0  0  0  0  0
   63.6220   32.6780   48.5900 C   0  0  0  0  0  0  0  0  0  0  0  0
   62.7600   33.6560   49.3980 C   0  0  0  0  0  0  0  0  0  0  0  0
   61.8250   32.9290   50.2700 N   0  0  0  0  0  0  0  0  0  0  0  0
   60.4420   33.3580   50.0150 C   0  0  0  0  0  0  0  0  0  0  0  0
   59.5700   32.1670   49.6000 C   0  0  0  0  0  0  0  0  0  0  0  0
   60.1380   31.5020   48.4280 N   0  0  0  0  0  0  0  0  0  0  0  0
   59.4220   31.4460   47.1810 C   0  0  0  0  0  0  0  0  0  0  0  0
   59.2620   32.6060   46.4020 C   0  0  0  0  0  0  0  0  0  0  0  0
   59.8400   33.8310   46.7990 C   0  0  0  0  0  0  0  0  0  0  0  0
   59.6220   34.9930   46.0650 C   0  0  0  0  0  0  0  0  0  0  0  0
   58.8250   34.9580   44.9280 C   0  0  0  0  0  0  0  0  0  0  0  0
   58.2750   33.7530   44.4940 C   0  0  0  0  0  0  0  0  0  0  0  0
   58.5200   32.5420   45.1920 C   0  0  0  0  0  0  0  0  0  0  0  0
   58.0510   31.3270   44.7280 N   0  0  0  0  0  0  0  0  0  0  0  0
   57.5370   31.2130   43.3430 C   0  0  0  0  0  0  0  0  0  0  0  0
   58.0980   30.2090   45.5410 C   0  0  0  0  0  0  0  0  0  0  0  0
   57.4110   29.0130   45.2050 C   0  0  0  0  0  0  0  0  0  0  0  0
   57.5080   27.8750   46.0060 C   0  0  0  0  0  0  0  0  0  0  0  0
   56.8470   26.7440   45.6590 F   0  0  0  0  0  0  0  0  0  0  0  0
   58.2760   27.9010   47.1640 C   0  0  0  0  0  0  0  0  0  0  0  0
   58.9240   29.0720   47.5450 C   0  0  0  0  0  0  0  0  0  0  0  0
   58.8280   30.2410   46.7600 C   0  0  0  0  0  0  0  0  0  0  0  0
   63.4405   34.6864   47.0881 H   0  0  0  0  0  0  0  0  0  0  0  0
   64.2090   33.7738   45.7453 H   0  0  0  0  0  0  0  0  0  0  0  0
   62.4336   34.0463   45.7453 H   0  0  0  0  0  0  0  0  0  0  0  0
   62.0409   32.3077   47.1671 H   0  0  0  0  0  0  0  0  0  0  0  0
   63.6839   31.7590   46.6454 H   0  0  0  0  0  0  0  0  0  0  0  0
   63.5884   31.6887   49.0698 H   0  0  0  0  0  0  0  0  0  0  0  0
   64.6530   33.0607   48.5641 H   0  0  0  0  0  0  0  0  0  0  0  0
   63.4144   34.2870   50.0173 H   0  0  0  0  0  0  0  0  0  0  0  0
   62.1805   34.2766   48.6987 H   0  0  0  0  0  0  0  0  0  0  0  0
   61.9080   31.9010   50.0830 H   0  0  0  0  0  0  0  0  0  0  0  0
   62.0660   33.1210   51.2710 H   0  0  0  0  0  0  0  0  0  0  0  0
   60.0287   33.8057   50.9308 H   0  0  0  0  0  0  0  0  0  0  0  0
   60.4462   34.0937   49.1972 H   0  0  0  0  0  0  0  0  0  0  0  0
   59.5159   31.4501   50.4326 H   0  0  0  0  0  0  0  0  0  0  0  0
   58.5633   32.5326   49.3493 H   0  0  0  0  0  0  0  0  0  0  0  0
   60.9330   30.8410   48.5770 H   0  0  0  0  0  0  0  0  0  0  0  0
   60.4705   33.8676   47.6996 H   0  0  0  0  0  0  0  0  0  0  0  0
   60.0812   35.9398   46.3855 H   0  0  0  0  0  0  0  0  0  0  0  0
   58.6272   35.8841   44.3683 H   0  0  0  0  0  0  0  0  0  0  0  0
   57.6405   33.7406   43.5955 H   0  0  0  0  0  0  0  0  0  0  0  0
   56.4634   30.9749   43.3688 H   0  0  0  0  0  0  0  0  0  0  0  0
   57.6885   32.1666   42.8160 H   0  0  0  0  0  0  0  0  0  0  0  0
   58.0775   30.4129   42.8160 H   0  0  0  0  0  0  0  0  0  0  0  0
   56.7911   28.9831   44.2968 H   0  0  0  0  0  0  0  0  0  0  0  0
   58.3717   26.9948   47.7801 H   0  0  0  0  0  0  0  0  0  0  0  0
   59.5189   29.0868   48.4701 H   0  0  0  0  0  0  0  0  0  0  0  0
  1  2  1  0
  2  3  1  0
  3  4  1  0
  4  5  1  0
  5  6  1  0
  6  7  1  0
  7  8  1  0
  8  9  1  0
  9 10  2  0
 10 11  1  0
 11 12  2  0
 12 13  1  0
 13 14  2  0
 14 15  1  0
 15 16  2  0
 16 17  1  0
 16 18  1  0
 18 19  2  0
 19 20  1  0
 20 21  1  0
 20 22  2  0
 22 23  1  0
 23 24  2  0
 24  9  1  0
 15 10  1  0
 24 18  1  0
  1 25  1  0
  1 26  1  0
  1 27  1  0
  2 28  1  0
  2 29  1  0
  3 30  1  0
  3 31  1  0
  4 32  1  0
  4 33  1  0
  5 34  1  0
  5 35  1  0
  6 36  1  0
  6 37  1  0
  7 38  1  0
  7 39  1  0
  8 40  1  0
 11 41  1  0
 12 42  1  0
 13 43  1  0
 14 44  1  0
 17 45  1  0
 17 46  1  0
 17 47  1  0
 19 48  1  0
 22 49  1  0
 23 50  1  0
M  CHG  2   5   1  16   1
M  END
>  <UniqueID>  (2) 
2

>  <SMILES>  (2) 
CCCC[NH2+]CCNc1c2ccccc2[n+](C)c2cc(F)ccc12

>  <Energy>  (2) 
67.49635793862905

>  <Genealogy>  (2) 
CCCC[NH2+]CCNc1c2ccccc2[n+](C)c2cc(F)ccc12 (protonated)
CCCC[NH2+]CCNc1c2ccccc2[n+](C)c2cc(F)ccc12 (3D coordinates assigned)
CCCC[NH2+]CCNc1c2ccccc2[n+](C)c2cc(F)ccc12 (optimized conformer: 67.49635793862905 kcal/mol)

>  <smiles>  (2) 
CCCCNCCNc1c2ccccc2[n+](C)c2cc(F)ccc12

>  <score_type>  (2) 
oracle

>  <origin>  (2) 
adg

>  <m_score__min__energy>  (2) 
-4.3399999999999999

>  <m_primary>  (2) 
energy

$$$$
2:0
     RDKit          3D

 47 49  0  0  0  0  0  0  0  0999 V2000
   57.7540   31.2960   43.1270 C   0  0  0  0  0  0  0  0  0  0  0  0
   56.6580   30.8110   42.1730 C   0  0  0  0  0  0  0  0  0  0  0  0
   56.1410   29.4790   42.5370 N   0  0  0  0  0  0  0  0  0  0  0  0
   57.1330   28.6860   43.2890 C   0  0  0  0  0  0  0  0  0  0  0  0
   56.8330   28.6230   44.8050 C   0  0  2  0  0  0  0  0  0  0  0  0
   55.6660   29.3440   45.1180 O   0  0  0  0  0  0  0  0  0  0  0  0
   58.0350   29.0540   45.6730 C   0  0  0  0  0  0  0  0  0  0  0  0
   57.7740   30.3030   46.3170 O   0  0  0  0  0  0  0  0  0  0  0  0
   58.7870   31.0730   46.9090 C   0  0  0  0  0  0  0  0  0  0  0  0
   59.5920   30.5430   47.9290 C   0  0  0  0  0  0  0  0  0  0  0  0
   59.2970   29.2890   48.5000 C   0  0  0  0  0  0  0  0  0  0  0  0
   60.0760   28.7800   49.5350 C   0  0  0  0  0  0  0  0  0  0  0  0
   61.1420   29.5210   50.0340 C   0  0  0  0  0  0  0  0  0  0  0  0
   61.4420   30.7710   49.4960 C   0  0  0  0  0  0  0  0  0  0  0  0
   60.6890   31.3030   48.4180 C   0  0  0  0  0  0  0  0  0  0  0  0
   60.9800   32.5360   47.8610 N   0  0  0  0  0  0  0  0  0  0  0  0
   62.2690   33.1980   48.1610 C   0  0  0  0  0  0  0  0  0  0  0  0
   60.0710   33.1420   47.0140 C   0  0  0  0  0  0  0  0  0  0  0  0
   60.1890   34.5040   46.6350 C   0  0  0  0  0  0  0  0  0  0  0  0
   59.2860   35.0830   45.7430 C   0  0  0  0  0  0  0  0  0  0  0  0
   58.2410   34.3310   45.2160 C   0  0  0  0  0  0  0  0  0  0  0  0
   58.0770   33.0020   45.5970 C   0  0  0  0  0  0  0  0  0  0  0  0
   58.9720   32.4010   46.5050 C   0  0  0  0  0  0  0  0  0  0  0  0
   57.4257   31.1507   44.1668 H   0  0  0  0  0  0  0  0  0  0  0  0
   58.6751   30.7215   42.9496 H   0  0  0  0  0  0  0  0  0  0  0  0
   57.9482   32.3641   42.9496 H   0  0  0  0  0  0  0  0  0  0  0  0
   55.8263   31.5306   42.1963 H   0  0  0  0  0  0  0  0  0  0  0  0
   57.0993   30.7350   41.1683 H   0  0  0  0  0  0  0  0  0  0  0  0
   55.2630   29.5900   43.0940 H   0  0  0  0  0  0  0  0  0  0  0  0
   55.9080   28.9830   41.6460 H   0  0  0  0  0  0  0  0  0  0  0  0
   57.1377   27.6610   42.8898 H   0  0  0  0  0  0  0  0  0  0  0  0
   58.1088   29.1789   43.1670 H   0  0  0  0  0  0  0  0  0  0  0  0
   56.6515   27.5668   45.0531 H   0  0  0  0  0  0  0  0  0  0  0  0
   55.7670   29.7190   46.0310 H   0  0  0  0  0  0  0  0  0  0  0  0
   58.2213   28.2858   46.4380 H   0  0  0  0  0  0  0  0  0  0  0  0
   58.9154   29.1693   45.0238 H   0  0  0  0  0  0  0  0  0  0  0  0
   58.4428   28.7067   48.1241 H   0  0  0  0  0  0  0  0  0  0  0  0
   59.8484   27.7907   49.9587 H   0  0  0  0  0  0  0  0  0  0  0  0
   61.7510   29.1186   50.8569 H   0  0  0  0  0  0  0  0  0  0  0  0
   62.2758   31.3543   49.9138 H   0  0  0  0  0  0  0  0  0  0  0  0
   62.4014   33.2660   49.2509 H   0  0  0  0  0  0  0  0  0  0  0  0
   63.0922   32.6111   47.7276 H   0  0  0  0  0  0  0  0  0  0  0  0
   62.2716   34.2090   47.7276 H   0  0  0  0  0  0  0  0  0  0  0  0
   61.0052   35.1130   47.0509 H   0  0  0  0  0  0  0  0  0  0  0  0
   59.4008   36.1385   45.4552 H   0  0  0  0  0  0  0  0  0  0  0  0
   57.5437   34.7868   44.4977 H   0  0  0  0  0  0  0  0  0  0  0  0
   57.2418   32.4160   45.1859 H   0  0  0  0  0  0  0  0  0  0  0  0
  1  2  1  0
  2  3  1  0
  3  4  1  0
  4  5  1  0
  5  6  1  0
  5  7  1  0
  7  8  1  0
  8  9  1  0
  9 10  2  0
 10 11  1  0
 11 12  2  0
 12 13  1  0
 13 14  2  0
 14 15  1  0
 15 16  2  0
 16 17  1  0
 16 18  1  0
 18 19  2  0
 19 20  1  0
 20 21  2  0
 21 22  1  0
 22 23  2  0
 23  9  1  0
 15 10  1  0
 23 18  1  0
  1 24  1  0
  1 25  1  0
  1 26  1  0
  2 27  1  0
  2 28  1  0
  3 29  1  0
  3 30  1  0
  4 31  1  0
  4 32  1  0
  5 33  1  1
  6 34  1  0
  7 35  1  0
  7 36  1  0
 11 37  1  0
 12 38  1  0
 13 39  1  0
 14 40  1  0
 17 41  1  0
 17 42  1  0
 17 43  1  0
 19 44  1  0
 20 45  1  0
 21 46  1  0
 22 47  1  0
M  CHG  2   3   1  16   1
M  END
>  <UniqueID>  (3) 
3

>  <SMILES>  (3) 
CC[NH2+]C[C@H](O)COc1c2ccccc2[n+](C)c2ccccc12

>  <Energy>  (3) 
72.34541889473917

>  <Genealogy>  (3) 
CC[NH2+]CC(O)COc1c2ccccc2[n+](C)c2ccccc12 (protonated)
CC[NH2+]C[C@H](O)COc1c2ccccc2[n+](C)c2ccccc12 (chirality)
CC[NH2+]C[C@H](O)COc1c2ccccc2[n+](C)c2ccccc12 (3D coordinates assigned)
CC[NH2+]C[C@H](O)COc1c2ccccc2[n+](C)c2ccccc12 (optimized conformer: 72.34541889473917 kcal/mol)

>  <smiles>  (3) 
CCNCC(O)COc1c2ccccc2[n+](C)c2ccccc12

>  <score_type>  (3) 
oracle

>  <origin>  (3) 
adg

>  <m_score__min__energy>  (3) 
-5

>  <m_primary>  (3) 
energy

$$$$
3:0
     RDKit          3D

 95 99  0  0  0  0  0  0  0  0999 V2000
   60.0844   29.3464   47.9052 H   0  0  0  0  0  0  0  0  0  0  0  0
   60.1710   30.2940   48.4570 C   0  0  0  0  0  0  0  0  0  0  0  0
   59.5680   31.3920   47.9540 C   0  0  0  0  0  0  0  0  0  0  0  0
   58.7270   31.2430   46.7110 C   0  0  0  0  0  0  0  0  0  0  0  0
   59.3923   31.2077   45.8357 H   0  0  0  0  0  0  0  0  0  0  0  0
   58.1428   30.3161   46.8087 H   0  0  0  0  0  0  0  0  0  0  0  0
   57.7450   32.3980   46.5350 C   0  0  2  0  0  0  0  0  0  0  0  0
   57.0250   32.4155   47.3665 H   0  0  0  0  0  0  0  0  0  0  0  0
   57.0740   32.2240   45.2960 O   0  0  0  0  0  0  0  0  0  0  0  0
   57.8910   32.5810   44.1960 C   0  0  0  0  0  0  0  0  0  0  0  0
   57.5856   33.5729   43.8315 H   0  0  0  0  0  0  0  0  0  0  0  0
   58.9378   32.5920   44.5339 H   0  0  0  0  0  0  0  0  0  0  0  0
   57.7670   31.5680   43.0480 C   0  0  0  0  0  0  0  0  0  0  0  0
   57.5096   32.1071   42.1243 H   0  0  0  0  0  0  0  0  0  0  0  0
   58.7305   31.0469   42.9477 H   0  0  0  0  0  0  0  0  0  0  0  0
   56.6840   30.5160   43.3270 C   0  0  0  0  0  0  0  0  0  0  0  0
   55.7989   31.0154   43.7479 H   0  0  0  0  0  0  0  0  0  0  0  0
   56.4336   30.0149   42.3803 H   0  0  0  0  0  0  0  0  0  0  0  0
   57.1830   29.4520   44.3250 C   0  0  0  0  0  0  0  0  0  0  0  0
   57.4851   29.9565   45.2546 H   0  0  0  0  0  0  0  0  0  0  0  0
   56.3582   28.7441   44.4940 H   0  0  0  0  0  0  0  0  0  0  0  0
   58.3420   28.6740   43.8080 N   0  0  0  0  0  0  0  0  0  0  0  0
   58.4610   28.9380   42.8010 H   0  0  0  0  0  0  0  0  0  0  0  0
   59.6030   29.0510   44.5030 C   0  0  0  0  0  0  0  0  0  0  0  0
   60.4301   28.9918   43.7802 H   0  0  0  0  0  0  0  0  0  0  0  0
   59.4641   30.0691   44.8956 H   0  0  0  0  0  0  0  0  0  0  0  0
   59.9390   28.1420   45.7060 C   0  0  0  0  0  0  0  0  0  0  0  0
   60.6029   27.3307   45.3729 H   0  0  0  0  0  0  0  0  0  0  0  0
   60.4370   28.7443   46.4801 H   0  0  0  0  0  0  0  0  0  0  0  0
   58.7100   27.5620   46.2700 N   0  0  0  0  0  0  0  0  0  0  0  0
   59.0060   26.8370   47.5160 C   0  0  0  0  0  0  0  0  0  0  0  0
   58.7478   27.4693   48.3783 H   0  0  0  0  0  0  0  0  0  0  0  0
   58.4142   25.9104   47.5505 H   0  0  0  0  0  0  0  0  0  0  0  0
   60.0772   26.5894   47.5505 H   0  0  0  0  0  0  0  0  0  0  0  0
   58.0500   26.6670   45.2960 C   0  0  0  0  0  0  0  0  0  0  0  0
   58.5356   25.6808   45.3361 H   0  0  0  0  0  0  0  0  0  0  0  0
   56.9857   26.6017   45.5661 H   0  0  0  0  0  0  0  0  0  0  0  0
   58.1390   27.2060   43.8520 C   0  0  0  0  0  0  0  0  0  0  0  0
   58.9834   26.7173   43.3440 H   0  0  0  0  0  0  0  0  0  0  0  0
   57.1846   26.9843   43.3519 H   0  0  0  0  0  0  0  0  0  0  0  0
   58.5150   33.7140   46.5000 C   0  0  0  0  0  0  0  0  0  0  0  0
   59.2438   33.6743   45.6770 H   0  0  0  0  0  0  0  0  0  0  0  0
   57.7850   34.5241   46.3558 H   0  0  0  0  0  0  0  0  0  0  0  0
   59.2700   33.9930   47.8160 C   0  0  0  0  0  0  0  0  0  0  0  0
   60.1488   34.6069   47.5695 H   0  0  0  0  0  0  0  0  0  0  0  0
   58.5304   34.4784   48.4697 H   0  0  0  0  0  0  0  0  0  0  0  0
   59.7810   32.7370   48.6390 C   0  0  1  0  0  0  0  0  0  0  0  0
   58.9070   32.7460   49.9360 C   0  0  0  0  0  0  0  0  0  0  0  0
   59.5621   32.7393   50.8196 H   0  0  0  0  0  0  0  0  0  0  0  0
   58.2814   33.6506   49.9503 H   0  0  0  0  0  0  0  0  0  0  0  0
   58.2629   31.8544   49.9503 H   0  0  0  0  0  0  0  0  0  0  0  0
   61.3200   32.8250   49.0280 C   0  0  2  0  0  0  0  0  0  0  0  0
   61.3721   33.8479   49.4291 H   0  0  0  0  0  0  0  0  0  0  0  0
   62.4370   32.8160   47.8920 C   0  0  1  0  0  0  0  0  0  0  0  0
   62.4055   31.7810   47.5208 H   0  0  0  0  0  0  0  0  0  0  0  0
   62.1800   33.6700   46.6350 C   0  0  0  0  0  0  0  0  0  0  0  0
   61.6572   33.0492   45.8925 H   0  0  0  0  0  0  0  0  0  0  0  0
   61.5799   34.5370   46.9484 H   0  0  0  0  0  0  0  0  0  0  0  0
   63.4620   34.2140   45.9970 C   0  0  0  0  0  0  0  0  0  0  0  0
   64.1665   34.5129   46.7871 H   0  0  0  0  0  0  0  0  0  0  0  0
   63.9209   33.4331   45.3729 H   0  0  0  0  0  0  0  0  0  0  0  0
   63.2192   35.0866   45.3729 H   0  0  0  0  0  0  0  0  0  0  0  0
   63.8430   33.1840   48.5020 C   0  0  0  0  0  0  0  0  0  0  0  0
   64.6230   32.7406   47.8656 H   0  0  0  0  0  0  0  0  0  0  0  0
   63.8978   34.2821   48.5359 H   0  0  0  0  0  0  0  0  0  0  0  0
   64.0530   32.6770   49.9590 C   0  0  2  0  0  0  0  0  0  0  0  0
   63.7830   33.7850   51.0200 C   0  0  0  0  0  0  0  0  0  0  0  0
   63.8867   33.3595   52.0291 H   0  0  0  0  0  0  0  0  0  0  0  0
   64.5084   34.6016   50.8901 H   0  0  0  0  0  0  0  0  0  0  0  0
   62.7632   34.1763   50.8901 H   0  0  0  0  0  0  0  0  0  0  0  0
   65.4140   32.1320   50.2720 C   0  0  0  0  0  0  0  0  0  0  0  0
   66.5020   32.6920   49.8150 N   0  0  0  0  0  0  0  0  0  0  0  0
   67.7180   32.8890   50.4560 O   0  0  0  0  0  0  0  0  0  0  0  0
   68.2780   34.1520   50.7950 C   0  0  0  0  0  0  0  0  0  0  0  0
   68.5086   34.7123   49.8769 H   0  0  0  0  0  0  0  0  0  0  0  0
   69.2046   34.0072   51.3698 H   0  0  0  0  0  0  0  0  0  0  0  0
   67.3090   34.8990   51.5960 C   0  0  0  0  0  0  0  0  0  0  0  0
   66.5100   35.5150   52.2550 C   0  0  0  0  0  0  0  0  0  0  0  0
   65.5380   36.2610   53.0550 C   0  0  0  0  0  0  0  0  0  0  0  0
   65.7442   36.1027   54.1238 H   0  0  0  0  0  0  0  0  0  0  0  0
   65.6164   37.3330   52.8213 H   0  0  0  0  0  0  0  0  0  0  0  0
   64.5227   35.9080   52.8213 H   0  0  0  0  0  0  0  0  0  0  0  0
   65.3190   30.9210   51.1640 C   0  0  0  0  0  0  0  0  0  0  0  0
   65.7939   30.0495   50.6896 H   0  0  0  0  0  0  0  0  0  0  0  0
   65.8333   31.0661   52.1255 H   0  0  0  0  0  0  0  0  0  0  0  0
   63.8080   30.6920   51.3350 C   0  0  0  0  0  0  0  0  0  0  0  0
   63.5655   29.6193   51.3117 H   0  0  0  0  0  0  0  0  0  0  0  0
   63.4198   31.0595   52.2964 H   0  0  0  0  0  0  0  0  0  0  0  0
   63.2140   31.4140   50.1320 C   0  0  1  0  0  0  0  0  0  0  0  0
   63.2761   30.7198   49.2809 H   0  0  0  0  0  0  0  0  0  0  0  0
   61.6820   31.6660   50.0640 C   0  0  2  0  0  0  0  0  0  0  0  0
   61.3221   32.0280   51.0384 H   0  0  0  0  0  0  0  0  0  0  0  0
   60.9600   30.3110   49.7460 C   0  0  0  0  0  0  0  0  0  0  0  0
   61.7247   29.5224   49.6883 H   0  0  0  0  0  0  0  0  0  0  0  0
   60.2308   30.1545   50.5545 H   0  0  0  0  0  0  0  0  0  0  0  0
  1  2  1  0
  2  3  2  0
  3  4  1  0
  4  5  1  0
  4  6  1  0
  4  7  1  0
  7  8  1  1
  7  9  1  0
  9 10  1  0
 10 11  1  0
 10 12  1  0
 10 13  1  0
 13 14  1  0
 13 15  1  0
 13 16  1  0
 16 17  1  0
 16 18  1  0
 16 19  1  0
 19 20  1  0
 19 21  1  0
 19 22  1  0
 22 23  1  0
 22 24  1  0
 24 25  1  0
 24 26  1  0
 24 27  1  0
 27 28  1  0
 27 29  1  0
 27 30  1  0
 30 31  1  0
 31 32  1  0
 31 33  1  0
 31 34  1  0
 30 35  1  0
 35 36  1  0
 35 37  1  0
 35 38  1  0
 38 39  1  0
 38 40  1  0
  7 41  1  0
 41 42  1  0
 41 43  1  0
 41 44  1  0
 44 45  1  0
 44 46  1  0
 44 47  1  0
 47 48  1  1
 48 49  1  0
 48 50  1  0
 48 51  1  0
 47 52  1  0
 52 53  1  1
 52 54  1  0
 54 55  1  6
 54 56  1  0
 56 57  1  0
 56 58  1  0
 56 59  1  0
 59 60  1  0
 59 61  1  0
 59 62  1  0
 54 63  1  0
 63 64  1  0
 63 65  1  0
 63 66  1  0
 66 67  1  1
 67 68  1  0
 67 69  1  0
 67 70  1  0
 66 71  1  0
 71 72  2  0
 72 73  1  0
 73 74  1  0
 74 75  1  0
 74 76  1  0
 74 77  1  0
 77 78  3  0
 78 79  1  0
 79 80  1  0
 79 81  1  0
 79 82  1  0
 71 83  1  0
 83 84  1  0
 83 85  1  0
 83 86  1  0
 86 87  1  0
 86 88  1  0
 86 89  1  0
 89 90  1  6
 89 91  1  0
 91 92  1  1
 91 93  1  0
 93 94  1  0
 93 95  1  0
 93  2  1  0
 47  3  1  0
 91 52  1  0
 38 22  1  0
 89 66  1  0
M  CHG  1  22   1
M  END
>  <UniqueID>  (4) 
4

>  <SMILES>  (4) 
CC#CCO/N=C1\CC[C@H]2[C@@H]3CC=C4CC(OCCCC[NH+]5CCN(C)CC5)CCC4(C)C3C(CC)CC12C

>  <Energy>  (4) 
153.598935419739

>  <Genealogy>  (4) 
CC#CCON=C1CCC2C3CC=C4CC(OCCCC[NH+]5CCN(C)CC5)CCC4(C)C3C(CC)CC12C (protonated)
CC#CCON=C1CC[C@H]2[C@@H]3CC=C4CC(OCCCC[NH+]5CCN(C)CC5)CCC4(C)C3C(CC)CC12C (chirality)
CC#CCO/N=C1\CC[C@H]2[C@@H]3CC=C4CC(OCCCC[NH+]5CCN(C)CC5)CCC4(C)C3C(CC)CC12C (cis-trans isomerization)
CC#CCO/N=C1\CC[C@H]2[C@@H]3CC=C4CC(OCCCC[NH+]5CCN(C)CC5)CCC4(C)C3C(CC)CC12C (3D coordinates assigned)
CC#CCO/N=C1\CC[C@H]2[C@@H]3CC=C4CC(OCCCC[NH+]5CCN(C)CC5)CCC4(C)C3C(CC)CC12C (nonaromatic ring conformer: 153.598935419739 kcal/mol)

>  <smiles>  (4) 
CC#CCON=C1CCC2C3CC=C4CC(OCCCCN5CCN(C)CC5)CCC4(C)C3C(CC)CC12C

>  <score_type>  (4) 
oracle

>  <origin>  (4) 
adg

>  <m_score__min__energy>  (4) 
-9.9700000000000006

>  <m_primary>  (4) 
energy

$$$$
4:0
     RDKit          3D

 47 49  0  0  0  0  0  0  0  0999 V2000
   63.1490   33.8490   46.3750 C   0  0  0  0  0  0  0  0  0  0  0  0
   63.7290   33.5020   47.7380 C   0  0  0  0  0  0  0  0  0  0  0  0
   63.0160   34.2010   48.7360 O   0  0  0  0  0  0  0  0  0  0  0  0
   62.9100   33.3940   49.8890 C   0  0  0  0  0  0  0  0  0  0  0  0
   63.3900   31.9880   49.5590 C   0  0  0  0  0  0  0  0  0  0  0  0
   62.2720   31.1100   49.4790 O   0  0  0  0  0  0  0  0  0  0  0  0
   60.9540   31.5410   49.6650 C   0  0  0  0  0  0  0  0  0  0  0  0
   60.5210   31.7420   50.8330 O   0  0  0  0  0  0  0  0  0  0  0  0
   60.0640   31.7650   48.4950 C   0  0  0  0  0  0  0  0  0  0  0  0
   60.1220   32.9780   47.7910 C   0  0  0  0  0  0  0  0  0  0  0  0
   59.2860   33.1890   46.6920 C   0  0  0  0  0  0  0  0  0  0  0  0
   59.3190   34.3900   45.9690 C   0  0  0  0  0  0  0  0  0  0  0  0
   58.4690   34.5680   44.8750 C   0  0  0  0  0  0  0  0  0  0  0  0
   57.5840   33.5540   44.4980 C   0  0  0  0  0  0  0  0  0  0  0  0
   57.5400   32.3420   45.2170 C   0  0  0  0  0  0  0  0  0  0  0  0
   56.6670   31.2990   44.8710 O   0  0  0  0  0  0  0  0  0  0  0  0
   56.9810   30.2480   43.9630 C   0  0  0  0  0  0  0  0  0  0  0  0
   57.8730   29.2550   44.6500 C   0  0  0  0  0  0  0  0  0  0  0  0
   59.2680   29.3660   44.5440 C   0  0  0  0  0  0  0  0  0  0  0  0
   60.0990   28.4640   45.2180 C   0  0  0  0  0  0  0  0  0  0  0  0
   59.5420   27.4550   46.0080 C   0  0  0  0  0  0  0  0  0  0  0  0
   58.1540   27.3490   46.1320 C   0  0  0  0  0  0  0  0  0  0  0  0
   57.3200   28.2490   45.4610 C   0  0  0  0  0  0  0  0  0  0  0  0
   58.3950   32.1650   46.3150 C   0  0  0  0  0  0  0  0  0  0  0  0
   58.3630   31.0270   47.0010 O   0  0  0  0  0  0  0  0  0  0  0  0
   59.1430   30.7900   48.0520 C   0  0  0  0  0  0  0  0  0  0  0  0
   59.0410   29.6800   48.6400 O   0  0  0  0  0  0  0  0  0  0  0  0
   62.2119   34.4097   46.5072 H   0  0  0  0  0  0  0  0  0  0  0  0
   63.8690   34.4649   45.8161 H   0  0  0  0  0  0  0  0  0  0  0  0
   62.9468   32.9234   45.8161 H   0  0  0  0  0  0  0  0  0  0  0  0
   63.6395   32.4195   47.9114 H   0  0  0  0  0  0  0  0  0  0  0  0
   64.7906   33.7882   47.7723 H   0  0  0  0  0  0  0  0  0  0  0  0
   63.5314   33.8162   50.6925 H   0  0  0  0  0  0  0  0  0  0  0  0
   61.8621   33.3591   50.2217 H   0  0  0  0  0  0  0  0  0  0  0  0
   63.9178   31.9981   48.5939 H   0  0  0  0  0  0  0  0  0  0  0  0
   64.0732   31.6399   50.3477 H   0  0  0  0  0  0  0  0  0  0  0  0
   60.8261   33.7627   48.1049 H   0  0  0  0  0  0  0  0  0  0  0  0
   60.0134   35.1909   46.2630 H   0  0  0  0  0  0  0  0  0  0  0  0
   58.4962   35.5101   44.3078 H   0  0  0  0  0  0  0  0  0  0  0  0
   56.9179   33.7024   43.6353 H   0  0  0  0  0  0  0  0  0  0  0  0
   56.0544   29.7500   43.6415 H   0  0  0  0  0  0  0  0  0  0  0  0
   57.4950   30.6605   43.0823 H   0  0  0  0  0  0  0  0  0  0  0  0
   59.7095   30.1643   43.9294 H   0  0  0  0  0  0  0  0  0  0  0  0
   61.1918   28.5494   45.1258 H   0  0  0  0  0  0  0  0  0  0  0  0
   60.1965   26.7435   46.5328 H   0  0  0  0  0  0  0  0  0  0  0  0
   57.7171   26.5570   46.7579 H   0  0  0  0  0  0  0  0  0  0  0  0
   56.2281   28.1694   45.5682 H   0  0  0  0  0  0  0  0  0  0  0  0
  1  2  1  0
  2  3  1  0
  3  4  1  0
  4  5  1  0
  5  6  1  0
  6  7  1  0
  7  8  2  0
  7  9  1  0
  9 10  2  0
 10 11  1  0
 11 12  2  0
 12 13  1  0
 13 14  2  0
 14 15  1  0
 15 16  1  0
 16 17  1  0
 17 18  1  0
 18 19  2  0
 19 20  1  0
 20 21  2  0
 21 22  1  0
 22 23  2  0
 15 24  2  0
 24 25  1  0
 25 26  1  0
 26 27  2  0
 26  9  1  0
 24 11  1  0
 23 18  1  0
  1 28  1  0
  1 29  1  0
  1 30  1  0
  2 31  1  0
  2 32  1  0
  4 33  1  0
  4 34  1  0
  5 35  1  0
  5 36  1  0
 10 37  1  0
 12 38  1  0
 13 39  1  0
 14 40  1  0
 17 41  1  0
 17 42  1  0
 19 43  1  0
 20 44  1  0
 21 45  1  0
 22 46  1  0
 23 47  1  0
M  END
>  <UniqueID>  (5) 
5

>  <SMILES>  (5) 
CCOCCOC(=O)c1cc2cccc(OCc3ccccc3)c2oc1=O

>  <Energy>  (5) 
48.000675556166826

>  <Genealogy>  (5) 
CCOCCOC(=O)c1cc2cccc(OCc3ccccc3)c2oc1=O (3D coordinates assigned)
CCOCCOC(=O)c1cc2cccc(OCc3ccccc3)c2oc1=O (optimized conformer: 48.000675556166826 kcal/mol)

>  <smiles>  (5) 
CCOCCOC(=O)c1cc2cccc(OCc3ccccc3)c2oc1=O

>  <score_type>  (5) 
oracle

>  <origin>  (5) 
adg

>  <m_score__min__energy>  (5) 
-8.8699999999999992

>  <m_primary>  (5) 
energy

$$$$
5:0
     RDKit          3D

 32 33  0  0  0  0  0  0  0  0999 V2000
   59.9730   34.5170   48.9900 C   0  0  0  0  0  0  0  0  0  0  0  0
   61.0100   33.8430   48.4480 C   0  0  0  0  0  0  0  0  0  0  0  0
   62.2790   33.6900   49.2530 C   0  0  0  0  0  0  0  0  0  0  0  0
   63.2500   32.9190   48.4370 N   0  0  1  0  0  0  0  0  0  0  0  0
   64.5130   32.7420   49.1840 C   0  0  0  0  0  0  0  0  0  0  0  0
   62.6560   31.5940   48.1120 C   0  0  0  0  0  0  0  0  0  0  0  0
   61.3290   31.7770   47.3170 C   0  0  0  0  0  0  0  0  0  0  0  0
   61.0290   33.2240   47.1090 N   0  0  1  0  0  0  0  0  0  0  0  0
   59.7400   33.4140   46.3680 C   0  0  0  0  0  0  0  0  0  0  0  0
   59.5760   34.7570   45.6330 C   0  0  0  0  0  0  0  0  0  0  0  0
   62.1740   33.8370   46.3760 C   0  0  0  0  0  0  0  0  0  0  0  0
   63.5020   33.6570   47.1700 C   0  0  0  0  0  0  0  0  0  0  0  0
   59.0396   34.6402   48.4212 H   0  0  0  0  0  0  0  0  0  0  0  0
   60.0617   34.9428   50.0003 H   0  0  0  0  0  0  0  0  0  0  0  0
   62.6935   34.6814   49.4884 H   0  0  0  0  0  0  0  0  0  0  0  0
   62.0715   33.1650   50.1971 H   0  0  0  0  0  0  0  0  0  0  0  0
   64.3072   32.7708   50.2642 H   0  0  0  0  0  0  0  0  0  0  0  0
   64.9612   31.7723   48.9219 H   0  0  0  0  0  0  0  0  0  0  0  0
   65.2105   33.5512   48.9219 H   0  0  0  0  0  0  0  0  0  0  0  0
   62.4478   31.0508   49.0456 H   0  0  0  0  0  0  0  0  0  0  0  0
   63.3670   31.0246   47.4954 H   0  0  0  0  0  0  0  0  0  0  0  0
   60.5048   31.3155   47.8806 H   0  0  0  0  0  0  0  0  0  0  0  0
   61.4385   31.2956   46.3340 H   0  0  0  0  0  0  0  0  0  0  0  0
   59.6590   32.6098   45.6218 H   0  0  0  0  0  0  0  0  0  0  0  0
   58.9516   33.3973   47.1349 H   0  0  0  0  0  0  0  0  0  0  0  0
   59.4769   35.5682   46.3693 H   0  0  0  0  0  0  0  0  0  0  0  0
   60.4585   34.9400   45.0023 H   0  0  0  0  0  0  0  0  0  0  0  0
   58.6754   34.7222   45.0023 H   0  0  0  0  0  0  0  0  0  0  0  0
   61.9797   34.9108   46.2376 H   0  0  0  0  0  0  0  0  0  0  0  0
   62.2762   33.3366   45.4017 H   0  0  0  0  0  0  0  0  0  0  0  0
   63.9220   34.6464   47.4037 H   0  0  0  0  0  0  0  0  0  0  0  0
   64.2109   33.0822   46.5560 H   0  0  0  0  0  0  0  0  0  0  0  0
  1  2  2  0
  2  3  1  0
  3  4  1  0
  4  5  1  1
  4  6  1  0
  6  7  1  0
  7  8  1  0
  8  9  1  6
  9 10  1  0
  8 11  1  0
 11 12  1  0
  8  2  1  0
 12  4  1  0
  1 13  1  0
  1 14  1  0
  3 15  1  0
  3 16  1  0
  5 17  1  0
  5 18  1  0
  5 19  1  0
  6 20  1  0
  6 21  1  0
  7 22  1  0
  7 23  1  0
  9 24  1  0
  9 25  1  0
 10 26  1  0
 10 27  1  0
 10 28  1  0
 11 29  1  0
 11 30  1  0
 12 31  1  0
 12 32  1  0
M  CHG  2   4   1   8   1
M  END
>  <UniqueID>  (6) 
6

>  <SMILES>  (6) 
C=C1C[N+]2(C)CC[N+]1(CC)CC2

>  <Energy>  (6) 
59.4466943518447

>  <Genealogy>  (6) 
C=C1C[N+]2(C)CC[N+]1(CC)CC2 (3D coordinates assigned)
C=C1C[N+]2(C)CC[N+]1(CC)CC2 (nonaromatic ring conformer: 59.4466943518447 kcal/mol)

>  <smiles>  (6) 
C=C1C[N+]2(C)CC[N+]1(CC)CC2

>  <score_type>  (6) 
oracle

>  <origin>  (6) 
adg

>  <m_score__min__energy>  (6) 
-1.78

>  <m_primary>  (6) 
energy

$$$$
6:0
     RDKit          3D

 66 69  0  0  0  0  0  0  0  0999 V2000
   55.2930   30.7560   51.9720 C   0  0  0  0  0  0  0  0  0  0  0  0
   56.4880   31.7090   52.0370 C   0  0  0  0  0  0  0  0  0  0  0  0
   57.7210   31.0770   51.5070 N   0  0  0  0  0  0  0  0  0  0  0  0
   57.9980   29.8400   52.2690 C   0  0  0  0  0  0  0  0  0  0  0  0
   58.8700   32.0090   51.6010 C   0  0  0  0  0  0  0  0  0  0  0  0
   59.1980   32.6960   50.2640 C   0  0  0  0  0  0  0  0  0  0  0  0
   58.2770   32.2850   49.1990 N   0  0  0  0  0  0  0  0  0  0  0  0
   58.7370   32.0600   47.8500 C   0  0  0  0  0  0  0  0  0  0  0  0
   58.9650   33.1630   47.0060 C   0  0  0  0  0  0  0  0  0  0  0  0
   59.3140   34.4210   47.5420 C   0  0  0  0  0  0  0  0  0  0  0  0
   59.5890   35.5000   46.7040 C   0  0  0  0  0  0  0  0  0  0  0  0
   59.5390   35.3350   45.3220 C   0  0  0  0  0  0  0  0  0  0  0  0
   59.1940   34.1000   44.7740 C   0  0  0  0  0  0  0  0  0  0  0  0
   58.8830   32.9930   45.6030 C   0  0  0  0  0  0  0  0  0  0  0  0
   58.5120   31.7670   45.0830 N   0  0  0  0  0  0  0  0  0  0  0  0
   58.0560   31.6700   43.6790 C   0  0  0  0  0  0  0  0  0  0  0  0
   58.5670   30.6370   45.8840 C   0  0  0  0  0  0  0  0  0  0  0  0
   58.4490   29.3410   45.3320 C   0  0  0  0  0  0  0  0  0  0  0  0
   58.5230   28.2090   46.1320 C   0  0  0  0  0  0  0  0  0  0  0  0
   58.8070   28.3200   47.4820 C   0  0  0  0  0  0  0  0  0  0  0  0
   58.9660   29.5820   48.0880 C   0  0  0  0  0  0  0  0  0  0  0  0
   59.5830   29.6650   49.3940 N   0  0  0  0  0  0  0  0  0  0  0  0
   60.9810   29.3480   49.7100 C   0  0  0  0  0  0  0  0  0  0  0  0
   61.8420   30.6320   49.8310 C   0  0  0  0  0  0  0  0  0  0  0  0
   61.6800   31.6130   48.7350 N   0  0  0  0  0  0  0  0  0  0  0  0
   62.2720   31.2220   47.4450 C   0  0  0  0  0  0  0  0  0  0  0  0
   63.3760   32.2160   47.1180 C   0  0  0  0  0  0  0  0  0  0  0  0
   63.0360   33.4500   47.9230 C   0  0  0  0  0  0  0  0  0  0  0  0
   62.1740   32.9550   49.0770 C   0  0  0  0  0  0  0  0  0  0  0  0
   58.7630   30.7590   47.2940 C   0  0  0  0  0  0  0  0  0  0  0  0
   54.9721   30.5001   52.9926 H   0  0  0  0  0  0  0  0  0  0  0  0
   54.4638   31.2435   51.4383 H   0  0  0  0  0  0  0  0  0  0  0  0
   55.5838   29.8391   51.4383 H   0  0  0  0  0  0  0  0  0  0  0  0
   56.2622   32.6056   51.4411 H   0  0  0  0  0  0  0  0  0  0  0  0
   56.6618   31.9708   53.0911 H   0  0  0  0  0  0  0  0  0  0  0  0
   57.9499   30.0547   53.3468 H   0  0  0  0  0  0  0  0  0  0  0  0
   57.2486   29.0764   52.0135 H   0  0  0  0  0  0  0  0  0  0  0  0
   59.0015   29.4689   52.0135 H   0  0  0  0  0  0  0  0  0  0  0  0
   58.6326   32.7842   52.3444 H   0  0  0  0  0  0  0  0  0  0  0  0
   59.7506   31.4173   51.8915 H   0  0  0  0  0  0  0  0  0  0  0  0
   59.1253   33.7856   50.3965 H   0  0  0  0  0  0  0  0  0  0  0  0
   60.2155   32.4002   49.9686 H   0  0  0  0  0  0  0  0  0  0  0  0
   57.3200   31.9880   49.4860 H   0  0  0  0  0  0  0  0  0  0  0  0
   59.3695   34.5512   48.6328 H   0  0  0  0  0  0  0  0  0  0  0  0
   59.8450   36.4799   47.1332 H   0  0  0  0  0  0  0  0  0  0  0  0
   59.7725   36.1821   44.6602 H   0  0  0  0  0  0  0  0  0  0  0  0
   59.1627   33.9829   43.6807 H   0  0  0  0  0  0  0  0  0  0  0  0
   56.9803   31.4412   43.6578 H   0  0  0  0  0  0  0  0  0  0  0  0
   58.2375   32.6268   43.1676 H   0  0  0  0  0  0  0  0  0  0  0  0
   58.6112   30.8699   43.1676 H   0  0  0  0  0  0  0  0  0  0  0  0
   58.2957   29.2275   44.2487 H   0  0  0  0  0  0  0  0  0  0  0  0
   58.3546   27.2161   45.6896 H   0  0  0  0  0  0  0  0  0  0  0  0
   58.9101   27.4096   48.0908 H   0  0  0  0  0  0  0  0  0  0  0  0
   59.0520   30.1540   50.1490 H   0  0  0  0  0  0  0  0  0  0  0  0
   61.0168   28.8025   50.6645 H   0  0  0  0  0  0  0  0  0  0  0  0
   61.3889   28.7349   48.8928 H   0  0  0  0  0  0  0  0  0  0  0  0
   61.5758   31.1309   50.7745 H   0  0  0  0  0  0  0  0  0  0  0  0
   62.8893   30.2988   49.7859 H   0  0  0  0  0  0  0  0  0  0  0  0
   62.6916   30.2078   47.5182 H   0  0  0  0  0  0  0  0  0  0  0  0
   61.5066   31.2252   46.6550 H   0  0  0  0  0  0  0  0  0  0  0  0
   64.3570   31.8173   47.4158 H   0  0  0  0  0  0  0  0  0  0  0  0
   63.4383   32.4275   46.0403 H   0  0  0  0  0  0  0  0  0  0  0  0
   63.9519   33.9259   48.3033 H   0  0  0  0  0  0  0  0  0  0  0  0
   62.5132   34.2035   47.3157 H   0  0  0  0  0  0  0  0  0  0  0  0
   62.7744   32.9080   49.9975 H   0  0  0  0  0  0  0  0  0  0  0  0
   61.3302   33.6407   49.2439 H   0  0  0  0  0  0  0  0  0  0  0  0
  1  2  1  0
  2  3  1  0
  3  4  1  0
  3  5  1  0
  5  6  1  0
  6  7  1  0
  7  8  1  0
  8  9  2  0
  9 10  1  0
 10 11  2  0
 11 12  1  0
 12 13  2  0
 13 14  1  0
 14 15  2  0
 15 16  1  0
 15 17  1  0
 17 18  2  0
 18 19  1  0
 19 20  2  0
 20 21  1  0
 21 22  1  0
 22 23  1  0
 23 24  1  0
 24 25  1  0
 25 26  1  0
 26 27  1  0
 27 28  1  0
 28 29  1  0
 21 30  2  0
 30  8  1  0
 14  9  1  0
 30 17  1  0
 29 25  1  0
  1 31  1  0
  1 32  1  0
  1 33  1  0
  2 34  1  0
  2 35  1  0
  4 36  1  0
  4 37  1  0
  4 38  1  0
  5 39  1  0
  5 40  1  0
  6 41  1  0
  6 42  1  0
  7 43  1  0
 10 44  1  0
 11 45  1  0
 12 46  1  0
 13 47  1  0
 16 48  1  0
 16 49  1  0
 16 50  1  0
 18 51  1  0
 19 52  1  0
 20 53  1  0
 22 54  1  0
 23 55  1  0
 23 56  1  0
 24 57  1  0
 24 58  1  0
 26 59  1  0
 26 60  1  0
 27 61  1  0
 27 62  1  0
 28 63  1  0
 28 64  1  0
 29 65  1  0
 29 66  1  0
M  CHG  1  15   1
M  END
>  <UniqueID>  (7) 
7

>  <SMILES>  (7) 
CCN(C)CCNc1c2ccccc2[n+](C)c2cccc(NCCN3CCCC3)c12

>  <Energy>  (7) 
110.98691908650666

>  <Genealogy>  (7) 
CCN(C)CCNc1c2ccccc2[n+](C)c2cccc(NCCN3CCCC3)c12 (3D coordinates assigned)
CCN(C)CCNc1c2ccccc2[n+](C)c2cccc(NCCN3CCCC3)c12 (nonaromatic ring conformer: 110.98691908650666 kcal/mol)

>  <smiles>  (7) 
CCN(C)CCNc1c2ccccc2[n+](C)c2cccc(NCCN3CCCC3)c12

>  <score_type>  (7) 
oracle

>  <origin>  (7) 
adg

>  <m_score__min__energy>  (7) 
-5.7599999999999998

>  <m_primary>  (7) 
energy

$$$$
7:0
     RDKit          3D

 60 62  0  0  0  0  0  0  0  0999 V2000
   60.7010   29.6520   47.6090 C   0  0  0  0  0  0  0  0  0  0  0  0
   59.1800   29.5970   47.7370 C   0  0  0  0  0  0  0  0  0  0  0  0
   58.5310   29.8600   46.4440 N   0  0  0  0  0  0  0  0  0  0  0  0
   57.7200   28.7220   45.9710 C   0  0  0  0  0  0  0  0  0  0  0  0
   57.5550   28.8150   44.4500 C   0  0  0  0  0  0  0  0  0  0  0  0
   56.5630   29.9080   44.0210 C   0  0  0  0  0  0  0  0  0  0  0  0
   57.2620   31.2020   43.5800 C   0  0  0  0  0  0  0  0  0  0  0  0
   58.0300   31.7670   44.7010 N   0  0  0  0  0  0  0  0  0  0  0  0
   58.3260   33.2000   44.5230 C   0  0  0  0  0  0  0  0  0  0  0  0
   57.5300   34.0820   45.5040 C   0  0  0  0  0  0  0  0  0  0  0  0
   58.2190   34.1790   46.8690 C   0  0  0  0  0  0  0  0  0  0  0  0
   58.7740   32.8890   47.2820 N   0  0  0  0  0  0  0  0  0  0  0  0
   59.7840   32.8220   48.2970 C   0  0  0  0  0  0  0  0  0  0  0  0
   61.1220   33.1070   47.9790 C   0  0  0  0  0  0  0  0  0  0  0  0
   61.4850   33.4830   46.6690 C   0  0  0  0  0  0  0  0  0  0  0  0
   62.8010   33.8270   46.3670 C   0  0  0  0  0  0  0  0  0  0  0  0
   63.7690   33.8150   47.3650 C   0  0  0  0  0  0  0  0  0  0  0  0
   63.4360   33.4310   48.6630 C   0  0  0  0  0  0  0  0  0  0  0  0
   62.1140   33.0340   48.9930 C   0  0  0  0  0  0  0  0  0  0  0  0
   61.7770   32.6030   50.2640 N   0  0  0  0  0  0  0  0  0  0  0  0
   62.8420   32.2620   51.2340 C   0  0  0  0  0  0  0  0  0  0  0  0
   60.4480   32.4600   50.6180 C   0  0  0  0  0  0  0  0  0  0  0  0
   60.0480   32.2600   51.9650 C   0  0  0  0  0  0  0  0  0  0  0  0
   58.7090   32.0520   52.2950 C   0  0  0  0  0  0  0  0  0  0  0  0
   57.7360   32.0470   51.3040 C   0  0  0  0  0  0  0  0  0  0  0  0
   58.0890   32.2840   49.9780 C   0  0  0  0  0  0  0  0  0  0  0  0
   59.4340   32.5220   49.6240 C   0  0  0  0  0  0  0  0  0  0  0  0
   61.1530   29.6683   48.6117 H   0  0  0  0  0  0  0  0  0  0  0  0
   61.0552   28.7661   47.0616 H   0  0  0  0  0  0  0  0  0  0  0  0
   60.9903   30.5612   47.0616 H   0  0  0  0  0  0  0  0  0  0  0  0
   58.8850   28.5981   48.0907 H   0  0  0  0  0  0  0  0  0  0  0  0
   58.8610   30.3696   48.4521 H   0  0  0  0  0  0  0  0  0  0  0  0
   57.9010   30.6860   46.5710 H   0  0  0  0  0  0  0  0  0  0  0  0
   58.2243   27.7791   46.2289 H   0  0  0  0  0  0  0  0  0  0  0  0
   56.7308   28.7497   46.4513 H   0  0  0  0  0  0  0  0  0  0  0  0
   58.5357   29.0364   44.0036 H   0  0  0  0  0  0  0  0  0  0  0  0
   57.1547   27.8513   44.1022 H   0  0  0  0  0  0  0  0  0  0  0  0
   55.9626   29.5284   43.1811 H   0  0  0  0  0  0  0  0  0  0  0  0
   55.9365   30.1490   44.8924 H   0  0  0  0  0  0  0  0  0  0  0  0
   57.9442   30.9813   42.7458 H   0  0  0  0  0  0  0  0  0  0  0  0
   56.5031   31.9307   43.2589 H   0  0  0  0  0  0  0  0  0  0  0  0
   58.9250   31.2340   44.8110 H   0  0  0  0  0  0  0  0  0  0  0  0
   59.4007   33.3638   44.6906 H   0  0  0  0  0  0  0  0  0  0  0  0
   58.0343   33.4819   43.5005 H   0  0  0  0  0  0  0  0  0  0  0  0
   57.4371   35.0925   45.0794 H   0  0  0  0  0  0  0  0  0  0  0  0
   56.5413   33.6229   45.6517 H   0  0  0  0  0  0  0  0  0  0  0  0
   59.0338   34.9153   46.8067 H   0  0  0  0  0  0  0  0  0  0  0  0
   57.4696   34.4867   47.6131 H   0  0  0  0  0  0  0  0  0  0  0  0
   58.5650   32.0220   46.7350 H   0  0  0  0  0  0  0  0  0  0  0  0
   60.7213   33.5049   45.8776 H   0  0  0  0  0  0  0  0  0  0  0  0
   63.0741   34.1080   45.3392 H   0  0  0  0  0  0  0  0  0  0  0  0
   64.8022   34.1098   47.1292 H   0  0  0  0  0  0  0  0  0  0  0  0
   64.2104   33.4358   49.4442 H   0  0  0  0  0  0  0  0  0  0  0  0
   62.4586   32.3848   52.2577 H   0  0  0  0  0  0  0  0  0  0  0  0
   63.1555   31.2186   51.0825 H   0  0  0  0  0  0  0  0  0  0  0  0
   63.7033   32.9293   51.0825 H   0  0  0  0  0  0  0  0  0  0  0  0
   60.8064   32.2692   52.7617 H   0  0  0  0  0  0  0  0  0  0  0  0
   58.4223   31.8912   53.3447 H   0  0  0  0  0  0  0  0  0  0  0  0
   56.6852   31.8556   51.5669 H   0  0  0  0  0  0  0  0  0  0  0  0
   57.3121   32.2857   49.1993 H   0  0  0  0  0  0  0  0  0  0  0  0
  1  2  1  0
  2  3  1  0
  3  4  1  0
  4  5  1  0
  5  6  1  0
  6  7  1  0
  7  8  1  0
  8  9  1  0
  9 10  1  0
 10 11  1  0
 11 12  1  0
 12 13  1  0
 13 14  2  0
 14 15  1  0
 15 16  2  0
 16 17  1  0
 17 18  2  0
 18 19  1  0
 19 20  2  0
 20 21  1  0
 20 22  1  0
 22 23  2  0
 23 24  1  0
 24 25  2  0
 25 26  1  0
 26 27  2  0
 27 13  1  0
 19 14  1  0
 27 22  1  0
  1 28  1  0
  1 29  1  0
  1 30  1  0
  2 31  1  0
  2 32  1  0
  3 33  1  0
  4 34  1  0
  4 35  1  0
  5 36  1  0
  5 37  1  0
  6 38  1  0
  6 39  1  0
  7 40  1  0
  7 41  1  0
  8 42  1  0
  9 43  1  0
  9 44  1  0
 10 45  1  0
 10 46  1  0
 11 47  1  0
 11 48  1  0
 12 49  1  0
 15 50  1  0
 16 51  1  0
 17 52  1  0
 18 53  1  0
 21 54  1  0
 21 55  1  0
 21 56  1  0
 23 57  1  0
 24 58  1  0
 25 59  1  0
 26 60  1  0
M  CHG  1  20   1
M  END
>  <UniqueID>  (8) 
8

>  <SMILES>  (8) 
CCNCCCCNCCCNc1c2ccccc2[n+](C)c2ccccc12

>  <Energy>  (8) 
79.02684205655629

>  <Genealogy>  (8) 
CCNCCCCNCCCNc1c2ccccc2[n+](C)c2ccccc12 (3D coordinates assigned)
CCNCCCCNCCCNc1c2ccccc2[n+](C)c2ccccc12 (optimized conformer: 79.02684205655629 kcal/mol)

>  <smiles>  (8) 
CCNCCCCNCCCNc1c2ccccc2[n+](C)c2ccccc12

>  <score_type>  (8) 
oracle

>  <origin>  (8) 
adg

>  <m_score__min__energy>  (8) 
-5.96

>  <m_primary>  (8) 
energy

$$$$
8:0
     RDKit          3D

 37 38  0  0  0  0  0  0  0  0999 V2000
   57.5030   27.3780   46.1850 C   0  0  0  0  0  0  0  0  0  0  0  0
   58.5110   26.9210   45.1360 C   0  0  0  0  0  0  0  0  0  0  0  0
   58.1550   27.4760   43.7460 C   0  0  0  0  0  0  0  0  0  0  0  0
   58.0150   28.9470   43.7550 N   0  0  0  0  0  0  0  0  0  0  0  0
   56.6810   29.4090   43.3270 C   0  0  0  0  0  0  0  0  0  0  0  0
   56.1980   30.6710   44.0650 C   0  0  0  0  0  0  0  0  0  0  0  0
   57.0410   30.9800   45.1780 O   0  0  0  0  0  0  0  0  0  0  0  0
   57.8050   32.1490   45.3650 C   0  0  0  0  0  0  0  0  0  0  0  0
   57.3860   33.4110   44.8910 C   0  0  0  0  0  0  0  0  0  0  0  0
   58.1720   34.5450   45.0970 C   0  0  0  0  0  0  0  0  0  0  0  0
   59.3830   34.4520   45.7800 C   0  0  0  0  0  0  0  0  0  0  0  0
   59.8230   33.2130   46.2660 C   0  0  0  0  0  0  0  0  0  0  0  0
   61.0420   33.1160   46.9540 C   0  0  0  0  0  0  0  0  0  0  0  0
   61.4810   31.8810   47.4360 C   0  0  0  0  0  0  0  0  0  0  0  0
   60.7080   30.7360   47.2360 C   0  0  0  0  0  0  0  0  0  0  0  0
   59.4910   30.8160   46.5540 C   0  0  0  0  0  0  0  0  0  0  0  0
   59.0320   32.0530   46.0600 C   0  0  0  0  0  0  0  0  0  0  0  0
   57.9104   27.1933   47.1899 H   0  0  0  0  0  0  0  0  0  0  0  0
   57.3066   28.4532   46.0609 H   0  0  0  0  0  0  0  0  0  0  0  0
   56.5649   26.8172   46.0609 H   0  0  0  0  0  0  0  0  0  0  0  0
   59.5118   27.2785   45.4199 H   0  0  0  0  0  0  0  0  0  0  0  0
   58.4916   25.8222   45.0886 H   0  0  0  0  0  0  0  0  0  0  0  0
   58.9511   27.1996   43.0390 H   0  0  0  0  0  0  0  0  0  0  0  0
   57.1883   27.0451   43.4462 H   0  0  0  0  0  0  0  0  0  0  0  0
   58.7510   29.3690   43.1440 H   0  0  0  0  0  0  0  0  0  0  0  0
   58.1980   29.3100   44.7200 H   0  0  0  0  0  0  0  0  0  0  0  0
   56.7186   29.6293   42.2499 H   0  0  0  0  0  0  0  0  0  0  0  0
   55.9698   28.6045   43.5657 H   0  0  0  0  0  0  0  0  0  0  0  0
   56.2045   31.5194   43.3649 H   0  0  0  0  0  0  0  0  0  0  0  0
   55.1818   30.4836   44.4422 H   0  0  0  0  0  0  0  0  0  0  0  0
   56.4303   33.5011   44.3539 H   0  0  0  0  0  0  0  0  0  0  0  0
   57.8331   35.5202   44.7173 H   0  0  0  0  0  0  0  0  0  0  0  0
   59.9948   35.3524   45.9381 H   0  0  0  0  0  0  0  0  0  0  0  0
   61.6540   34.0159   47.1143 H   0  0  0  0  0  0  0  0  0  0  0  0
   62.4377   31.8104   47.9743 H   0  0  0  0  0  0  0  0  0  0  0  0
   61.0587   29.7656   47.6173 H   0  0  0  0  0  0  0  0  0  0  0  0
   58.8882   29.9085   46.4020 H   0  0  0  0  0  0  0  0  0  0  0  0
  1  2  1  0
  2  3  1  0
  3  4  1  0
  4  5  1  0
  5  6  1  0
  6  7  1  0
  7  8  1  0
  8  9  2  0
  9 10  1  0
 10 11  2  0
 11 12  1  0
 12 13  2  0
 13 14  1  0
 14 15  2  0
 15 16  1  0
 16 17  2  0
 17  8  1  0
 17 12  1  0
  1 18  1  0
  1 19  1  0
  1 20  1  0
  2 21  1  0
  2 22  1  0
  3 23  1  0
  3 24  1  0
  4 25  1  0
  4 26  1  0
  5 27  1  0
  5 28  1  0
  6 29  1  0
  6 30  1  0
  9 31  1  0
 10 32  1  0
 11 33  1  0
 13 34  1  0
 14 35  1  0
 15 36  1  0
 16 37  1  0
M  CHG  1   4   1
M  END
>  <UniqueID>  (9) 
9

>  <SMILES>  (9) 
CCC[NH2+]CCOc1cccc2ccccc12

>  <Energy>  (9) 
39.478660169333295

>  <Genealogy>  (9) 
CCC[NH2+]CCOc1cccc2ccccc12 (protonated)
CCC[NH2+]CCOc1cccc2ccccc12 (3D coordinates assigned)
CCC[NH2+]CCOc1cccc2ccccc12 (optimized conformer: 39.478660169333295 kcal/mol)

>  <smiles>  (9) 
CCCNCCOc1cccc2ccccc12

>  <score_type>  (9) 
oracle

>  <origin>  (9) 
adg

>  <m_score__min__energy>  (9) 
-4.7699999999999996

>  <m_primary>  (9) 
energy

$$$$
9:0
     RDKit          3D

 76 79  0  0  0  0  0  0  0  0999 V2000
   63.7740   33.1050   46.8320 C   0  0  0  0  0  0  0  0  0  0  0  0
   62.2880   32.9270   47.1670 C   0  0  0  0  0  0  0  0  0  0  0  0
   62.0830   32.1140   48.4040 N   0  0  0  0  0  0  0  0  0  0  0  0
   63.2160   32.2610   49.3550 C   0  0  0  0  0  0  0  0  0  0  0  0
   63.2460   33.6100   50.0940 C   0  0  0  0  0  0  0  0  0  0  0  0
   61.8200   30.6790   48.1090 C   0  0  0  0  0  0  0  0  0  0  0  0
   60.7470   30.0530   49.0160 C   0  0  0  0  0  0  0  0  0  0  0  0
   59.4270   30.6510   48.7900 N   0  0  0  0  0  0  0  0  0  0  0  0
   59.0370   31.1280   47.4900 C   0  0  0  0  0  0  0  0  0  0  0  0
   58.7560   30.1970   46.4730 C   0  0  0  0  0  0  0  0  0  0  0  0
   58.7450   28.8110   46.7430 C   0  0  0  0  0  0  0  0  0  0  0  0
   58.5440   27.8850   45.7250 C   0  0  0  0  0  0  0  0  0  0  0  0
   58.3630   28.3180   44.4170 C   0  0  0  0  0  0  0  0  0  0  0  0
   58.1400   27.0400   43.0140 Br  0  0  0  0  0  0  0  0  0  0  0  0
   58.3470   29.6830   44.1280 C   0  0  0  0  0  0  0  0  0  0  0  0
   58.5030   30.6530   45.1540 C   0  0  0  0  0  0  0  0  0  0  0  0
   58.4380   32.0050   44.8870 N   0  0  0  0  0  0  0  0  0  0  0  0
   57.9040   32.4750   43.5880 C   0  0  0  0  0  0  0  0  0  0  0  0
   58.8260   32.9230   45.8460 C   0  0  0  0  0  0  0  0  0  0  0  0
   59.0270   34.2860   45.5180 C   0  0  0  0  0  0  0  0  0  0  0  0
   59.3190   35.2270   46.4960 C   0  0  0  0  0  0  0  0  0  0  0  0
   59.4090   34.8480   47.8260 C   0  0  0  0  0  0  0  0  0  0  0  0
   59.2620   33.5000   48.1990 C   0  0  0  0  0  0  0  0  0  0  0  0
   59.3050   33.1230   49.5550 O   0  0  0  0  0  0  0  0  0  0  0  0
   59.8320   33.8960   50.6330 C   0  0  0  0  0  0  0  0  0  0  0  0
   58.9570   33.7140   51.8970 C   0  0  0  0  0  0  0  0  0  0  0  0
   58.5890   32.3000   52.2450 N   0  0  0  0  0  0  0  0  0  0  0  0
   59.7660   31.4130   52.0230 C   0  0  0  0  0  0  0  0  0  0  0  0
   58.1660   32.2350   53.6780 C   0  0  0  0  0  0  0  0  0  0  0  0
   57.6710   30.8380   54.1110 C   0  0  0  0  0  0  0  0  0  0  0  0
   56.8350   30.1280   53.0380 C   0  0  0  0  0  0  0  0  0  0  0  0
   56.3150   31.1090   51.9980 C   0  0  0  0  0  0  0  0  0  0  0  0
   57.4680   31.8810   51.3240 C   0  0  0  0  0  0  0  0  0  0  0  0
   59.0490   32.5130   47.1930 C   0  0  0  0  0  0  0  0  0  0  0  0
   64.3542   33.1745   47.7640 H   0  0  0  0  0  0  0  0  0  0  0  0
   64.1236   32.2423   46.2459 H   0  0  0  0  0  0  0  0  0  0  0  0
   63.9100   34.0259   46.2459 H   0  0  0  0  0  0  0  0  0  0  0  0
   61.8369   33.9191   47.3160 H   0  0  0  0  0  0  0  0  0  0  0  0
   61.8139   32.3941   46.3296 H   0  0  0  0  0  0  0  0  0  0  0  0
   61.2550   32.4850   48.9240 H   0  0  0  0  0  0  0  0  0  0  0  0
   63.1445   31.4585   50.1040 H   0  0  0  0  0  0  0  0  0  0  0  0
   64.1390   32.2056   48.7591 H   0  0  0  0  0  0  0  0  0  0  0  0
   63.2421   33.4335   51.1797 H   0  0  0  0  0  0  0  0  0  0  0  0
   64.1566   34.1606   49.8153 H   0  0  0  0  0  0  0  0  0  0  0  0
   62.3608   34.2005   49.8153 H   0  0  0  0  0  0  0  0  0  0  0  0
   61.4859   30.5938   47.0644 H   0  0  0  0  0  0  0  0  0  0  0  0
   62.7575   30.1337   48.2929 H   0  0  0  0  0  0  0  0  0  0  0  0
   60.6897   28.9744   48.8078 H   0  0  0  0  0  0  0  0  0  0  0  0
   61.0323   30.2389   50.0620 H   0  0  0  0  0  0  0  0  0  0  0  0
   58.7040   30.5940   49.5410 H   0  0  0  0  0  0  0  0  0  0  0  0
   58.8977   28.4585   47.7738 H   0  0  0  0  0  0  0  0  0  0  0  0
   58.5283   26.8095   45.9553 H   0  0  0  0  0  0  0  0  0  0  0  0
   58.2112   30.0137   43.0877 H   0  0  0  0  0  0  0  0  0  0  0  0
   57.0890   33.1923   43.7645 H   0  0  0  0  0  0  0  0  0  0  0  0
   58.7066   32.9651   43.0173 H   0  0  0  0  0  0  0  0  0  0  0  0
   57.5198   31.6167   43.0173 H   0  0  0  0  0  0  0  0  0  0  0  0
   58.9503   34.6052   44.4681 H   0  0  0  0  0  0  0  0  0  0  0  0
   59.4796   36.2780   46.2140 H   0  0  0  0  0  0  0  0  0  0  0  0
   59.5973   35.6091   48.5976 H   0  0  0  0  0  0  0  0  0  0  0  0
   60.8582   33.5648   50.8503 H   0  0  0  0  0  0  0  0  0  0  0  0
   59.8337   34.9581   50.3467 H   0  0  0  0  0  0  0  0  0  0  0  0
   59.5060   34.1386   52.7504 H   0  0  0  0  0  0  0  0  0  0  0  0
   58.0067   34.2218   51.6755 H   0  0  0  0  0  0  0  0  0  0  0  0
   60.1789   31.1018   52.9939 H   0  0  0  0  0  0  0  0  0  0  0  0
   59.4533   30.5240   51.4556 H   0  0  0  0  0  0  0  0  0  0  0  0
   60.5344   31.9585   51.4556 H   0  0  0  0  0  0  0  0  0  0  0  0
   59.0249   32.5106   54.3075 H   0  0  0  0  0  0  0  0  0  0  0  0
   57.3212   32.9293   53.7979 H   0  0  0  0  0  0  0  0  0  0  0  0
   58.5469   30.2134   54.3404 H   0  0  0  0  0  0  0  0  0  0  0  0
   57.0212   30.9809   54.9870 H   0  0  0  0  0  0  0  0  0  0  0  0
   57.4610   29.3746   52.5374 H   0  0  0  0  0  0  0  0  0  0  0  0
   55.9717   29.6554   53.5293 H   0  0  0  0  0  0  0  0  0  0  0  0
   55.7590   30.5532   51.2286 H   0  0  0  0  0  0  0  0  0  0  0  0
   55.6623   31.8354   52.5042 H   0  0  0  0  0  0  0  0  0  0  0  0
   57.8946   31.2383   50.5398 H   0  0  0  0  0  0  0  0  0  0  0  0
   57.0266   32.8120   50.9389 H   0  0  0  0  0  0  0  0  0  0  0  0
  1  2  1  0
  2  3  1  0
  3  4  1  0
  4  5  1  0
  3  6  1  0
  6  7  1  0
  7  8  1  0
  8  9  1  0
  9 10  2  0
 10 11  1  0
 11 12  2  0
 12 13  1  0
 13 14  1  0
 13 15  2  0
 15 16  1  0
 16 17  2  0
 17 18  1  0
 17 19  1  0
 19 20  2  0
 20 21  1  0
 21 22  2  0
 22 23  1  0
 23 24  1  0
 24 25  1  0
 25 26  1  0
 26 27  1  0
 27 28  1  0
 27 29  1  0
 29 30  1  0
 30 31  1  0
 31 32  1  0
 32 33  1  0
 23 34  2  0
 34  9  1  0
 16 10  1  0
 34 19  1  0
 33 27  1  0
  1 35  1  0
  1 36  1  0
  1 37  1  0
  2 38  1  0
  2 39  1  0
  3 40  1  0
  4 41  1  0
  4 42  1  0
  5 43  1  0
  5 44  1  0
  5 45  1  0
  6 46  1  0
  6 47  1  0
  7 48  1  0
  7 49  1  0
  8 50  1  0
 11 51  1  0
 12 52  1  0
 15 53  1  0
 18 54  1  0
 18 55  1  0
 18 56  1  0
 20 57  1  0
 21 58  1  0
 22 59  1  0
 25 60  1  0
 25 61  1  0
 26 62  1  0
 26 63  1  0
 28 64  1  0
 28 65  1  0
 28 66  1  0
 29 67  1  0
 29 68  1  0
 30 69  1  0
 30 70  1  0
 31 71  1  0
 31 72  1  0
 32 73  1  0
 32 74  1  0
 33 75  1  0
 33 76  1  0
M  CHG  3   3   1  17   1  27   1
M  END
>  <UniqueID>  (10) 
10

>  <SMILES>  (10) 
CC[NH+](CC)CCNc1c2ccc(Br)cc2[n+](C)c2cccc(OCC[N+]3(C)CCCCC3)c12

>  <Energy>  (10) 
127.63805697398638

>  <Genealogy>  (10) 
CC[NH+](CC)CCNc1c2ccc(Br)cc2[n+](C)c2cccc(OCC[N+]3(C)CCCCC3)c12 (protonated)
CC[NH+](CC)CCNc1c2ccc(Br)cc2[n+](C)c2cccc(OCC[N+]3(C)CCCCC3)c12 (3D coordinates assigned)
CC[NH+](CC)CCNc1c2ccc(Br)cc2[n+](C)c2cccc(OCC[N+]3(C)CCCCC3)c12 (nonaromatic ring conformer: 127.63805697398638 kcal/mol)

>  <smiles>  (10) 
CCN(CC)CCNc1c2ccc(Br)cc2[n+](C)c2cccc(OCC[N+]3(C)CCCCC3)c12

>  <score_type>  (10) 
oracle

>  <origin>  (10) 
adg

>  <m_score__min__energy>  (10) 
-4.3700000000000001

>  <m_primary>  (10) 
energy

$$$$
10:0
     RDKit          3D

 36 38  0  0  0  0  0  0  0  0999 V2000
   56.4540   26.0420   46.2020 C   0  0  0  0  0  0  0  0  0  0  0  0
   56.9800   27.2440   45.4260 C   0  0  0  0  0  0  0  0  0  0  0  0
   55.9320   28.2500   45.2490 N   0  0  0  0  0  0  0  0  0  0  0  0
   56.5210   29.6850   44.4570 S   0  0  0  0  0  0  0  0  0  0  0  0
   57.0200   29.2880   43.0950 O   0  0  0  0  0  0  0  0  0  0  0  0
   55.4060   30.6690   44.2520 O   0  0  0  0  0  0  0  0  0  0  0  0
   57.8750   30.4070   45.3510 C   0  0  0  0  0  0  0  0  0  0  0  0
   58.8940   29.5310   45.8260 C   0  0  0  0  0  0  0  0  0  0  0  0
   60.0230   30.0160   46.5180 C   0  0  0  0  0  0  0  0  0  0  0  0
   60.1150   31.3870   46.7390 C   0  0  0  0  0  0  0  0  0  0  0  0
   59.1310   32.2220   46.2910 C   0  0  0  0  0  0  0  0  0  0  0  0
   59.4140   33.5210   46.5920 C   0  0  0  0  0  0  0  0  0  0  0  0
   58.5440   34.5430   46.2240 C   0  0  0  0  0  0  0  0  0  0  0  0
   57.3620   34.1820   45.5420 C   0  0  0  0  0  0  0  0  0  0  0  0
   57.0840   32.8250   45.2330 C   0  0  0  0  0  0  0  0  0  0  0  0
   57.9980   31.8050   45.6020 C   0  0  0  0  0  0  0  0  0  0  0  0
   60.7000   33.4910   47.2820 C   0  0  0  0  0  0  0  0  0  0  0  0
   61.3480   34.4930   47.6840 O   0  0  0  0  0  0  0  0  0  0  0  0
   61.1430   32.1310   47.4090 N   0  0  0  0  0  0  0  0  0  0  0  0
   62.5060   31.6860   47.6850 C   0  0  0  0  0  0  0  0  0  0  0  0
   63.5150   32.6840   47.1300 C   0  0  0  0  0  0  0  0  0  0  0  0
   56.5391   26.2365   47.2813 H   0  0  0  0  0  0  0  0  0  0  0  0
   55.3988   25.8711   45.9423 H   0  0  0  0  0  0  0  0  0  0  0  0
   57.0445   25.1510   45.9423 H   0  0  0  0  0  0  0  0  0  0  0  0
   57.8188   27.6912   45.9796 H   0  0  0  0  0  0  0  0  0  0  0  0
   57.3123   26.9041   44.4340 H   0  0  0  0  0  0  0  0  0  0  0  0
   58.7974   28.4497   45.6484 H   0  0  0  0  0  0  0  0  0  0  0  0
   60.8075   29.3312   46.8725 H   0  0  0  0  0  0  0  0  0  0  0  0
   58.7693   35.5943   46.4562 H   0  0  0  0  0  0  0  0  0  0  0  0
   56.6465   34.9633   45.2459 H   0  0  0  0  0  0  0  0  0  0  0  0
   56.1553   32.5630   44.7049 H   0  0  0  0  0  0  0  0  0  0  0  0
   62.6448   31.5975   48.7726 H   0  0  0  0  0  0  0  0  0  0  0  0
   62.6670   30.7109   47.2020 H   0  0  0  0  0  0  0  0  0  0  0  0
   64.0263   33.1898   47.9623 H   0  0  0  0  0  0  0  0  0  0  0  0
   64.2551   32.1528   46.5135 H   0  0  0  0  0  0  0  0  0  0  0  0
   62.9919   33.4299   46.5135 H   0  0  0  0  0  0  0  0  0  0  0  0
  1  2  1  0
  2  3  1  0
  3  4  1  0
  4  5  2  0
  4  6  2  0
  4  7  1  0
  7  8  2  0
  8  9  1  0
  9 10  2  0
 10 11  1  0
 11 12  2  0
 12 13  1  0
 13 14  2  0
 14 15  1  0
 15 16  2  0
 12 17  1  0
 17 18  2  0
 17 19  1  0
 19 20  1  0
 20 21  1  0
 16  7  1  0
 19 10  1  0
 16 11  1  0
  1 22  1  0
  1 23  1  0
  1 24  1  0
  2 25  1  0
  2 26  1  0
  8 27  1  0
  9 28  1  0
 13 29  1  0
 14 30  1  0
 15 31  1  0
 20 32  1  0
 20 33  1  0
 21 34  1  0
 21 35  1  0
 21 36  1  0
M  CHG  1   3  -1
M  END
>  <UniqueID>  (11) 
11

>  <SMILES>  (11) 
CC[N-]S(=O)(=O)c1ccc2c3c(cccc13)C(=O)N2CC

>  <Energy>  (11) 
77.66584048764793

>  <Genealogy>  (11) 
CC[N-]S(=O)(=O)c1ccc2c3c(cccc13)C(=O)N2CC (protonated)
CC[N-]S(=O)(=O)c1ccc2c3c(cccc13)C(=O)N2CC (3D coordinates assigned)
CC[N-]S(=O)(=O)c1ccc2c3c(cccc13)C(=O)N2CC (nonaromatic ring conformer: 77.66584048764793 kcal/mol)

>  <smiles>  (11) 
CCNS(=O)(=O)c1ccc2c3c(cccc13)C(=O)N2CC

>  <score_type>  (11) 
oracle

>  <origin>  (11) 
adg

>  <m_score__min__energy>  (11) 
-9.6300000000000008

>  <m_primary>  (11) 
energy

$$$$
11:0
     RDKit          3D

 36 37  0  0  0  0  0  0  0  0999 V2000
   58.4350   29.9120   46.2570 C   0  0  0  0  0  0  0  0  0  0  0  0
   57.3480   29.4910   45.2740 C   0  0  0  0  0  0  0  0  0  0  0  0
   56.5420   30.6530   44.8710 N   0  0  0  0  0  0  0  0  0  0  0  0
   57.0120   31.2180   43.5980 C   0  0  0  0  0  0  0  0  0  0  0  0
   58.0310   32.3330   43.8540 C   0  0  0  0  0  0  0  0  0  0  0  0
   57.3950   33.5320   44.5670 C   0  0  0  0  0  0  0  0  0  0  0  0
   57.4630   33.3660   45.9840 O   0  0  0  0  0  0  0  0  0  0  0  0
   58.6400   33.3700   46.7510 C   0  0  0  0  0  0  0  0  0  0  0  0
   58.5300   33.1150   48.1220 C   0  0  0  0  0  0  0  0  0  0  0  0
   59.6620   33.1050   48.9420 C   0  0  0  0  0  0  0  0  0  0  0  0
   60.9290   33.3500   48.3950 C   0  0  0  0  0  0  0  0  0  0  0  0
   62.0730   33.3440   49.2080 C   0  0  0  0  0  0  0  0  0  0  0  0
   63.3310   33.5900   48.6510 C   0  0  0  0  0  0  0  0  0  0  0  0
   63.4570   33.8420   47.2820 C   0  0  0  0  0  0  0  0  0  0  0  0
   62.3260   33.8520   46.4620 C   0  0  0  0  0  0  0  0  0  0  0  0
   61.0550   33.6060   47.0090 C   0  0  0  0  0  0  0  0  0  0  0  0
   59.9120   33.6120   46.1950 C   0  0  0  0  0  0  0  0  0  0  0  0
   58.0729   29.7718   47.2862 H   0  0  0  0  0  0  0  0  0  0  0  0
   59.3325   29.2964   46.0970 H   0  0  0  0  0  0  0  0  0  0  0  0
   58.6837   30.9715   46.0970 H   0  0  0  0  0  0  0  0  0  0  0  0
   57.8171   29.0488   44.3827 H   0  0  0  0  0  0  0  0  0  0  0  0
   56.6925   28.7544   45.7615 H   0  0  0  0  0  0  0  0  0  0  0  0
   56.6560   31.3910   45.6060 H   0  0  0  0  0  0  0  0  0  0  0  0
   57.4853   30.4241   43.0016 H   0  0  0  0  0  0  0  0  0  0  0  0
   56.1527   31.6372   43.0541 H   0  0  0  0  0  0  0  0  0  0  0  0
   58.8435   31.9361   44.4804 H   0  0  0  0  0  0  0  0  0  0  0  0
   58.4137   32.6767   42.8817 H   0  0  0  0  0  0  0  0  0  0  0  0
   57.9332   34.4486   44.2838 H   0  0  0  0  0  0  0  0  0  0  0  0
   56.3389   33.6042   44.2679 H   0  0  0  0  0  0  0  0  0  0  0  0
   57.5402   32.9199   48.5604 H   0  0  0  0  0  0  0  0  0  0  0  0
   59.5583   32.9045   50.0186 H   0  0  0  0  0  0  0  0  0  0  0  0
   61.9793   33.1453   50.2858 H   0  0  0  0  0  0  0  0  0  0  0  0
   64.2248   33.5853   49.2921 H   0  0  0  0  0  0  0  0  0  0  0  0
   64.4499   34.0331   46.8488 H   0  0  0  0  0  0  0  0  0  0  0  0
   62.4305   34.0529   45.3856 H   0  0  0  0  0  0  0  0  0  0  0  0
   60.0095   33.8067   45.1168 H   0  0  0  0  0  0  0  0  0  0  0  0
  1  2  1  0
  2  3  1  0
  3  4  1  0
  4  5  1  0
  5  6  1  0
  6  7  1  0
  7  8  1  0
  8  9  2  0
  9 10  1  0
 10 11  2  0
 11 12  1  0
 12 13  2  0
 13 14  1  0
 14 15  2  0
 15 16  1  0
 16 17  2  0
 17  8  1  0
 16 11  1  0
  1 18  1  0
  1 19  1  0
  1 20  1  0
  2 21  1  0
  2 22  1  0
  3 23  1  0
  4 24  1  0
  4 25  1  0
  5 26  1  0
  5 27  1  0
  6 28  1  0
  6 29  1  0
  9 30  1  0
 10 31  1  0
 12 32  1  0
 13 33  1  0
 14 34  1  0
 15 35  1  0
 17 36  1  0
M  END
>  <UniqueID>  (12) 
12

>  <SMILES>  (12) 
CCNCCCOc1ccc2ccccc2c1

>  <Energy>  (12) 
32.184530283891725

>  <Genealogy>  (12) 
CCNCCCOc1ccc2ccccc2c1 (3D coordinates assigned)
CCNCCCOc1ccc2ccccc2c1 (optimized conformer: 32.184530283891725 kcal/mol)

>  <smiles>  (12) 
CCNCCCOc1ccc2ccccc2c1

>  <score_type>  (12) 
oracle

>  <origin>  (12) 
adg

>  <m_score__min__energy>  (12) 
-6.3300000000000001

>  <m_primary>  (12) 
energy

$$$$
12:0
     RDKit          3D

 43 45  0  0  0  0  0  0  0  0999 V2000
   62.2770   33.4840   47.2800 C   0  0  0  0  0  0  0  0  0  0  0  0
   60.8610   33.7340   47.8210 C   0  0  0  0  0  0  0  0  0  0  0  0
   59.7970   33.6960   46.7940 N   0  0  0  0  0  0  0  0  0  0  0  0
   58.5580   33.0440   47.2620 C   0  0  0  0  0  0  0  0  0  0  0  0
   57.3880   33.2670   46.2790 C   0  0  0  0  0  0  0  0  0  0  0  0
   57.8520   33.5750   44.9080 N   0  0  0  0  0  0  0  0  0  0  0  0
   58.4920   32.4190   44.2380 C   0  0  0  0  0  0  0  0  0  0  0  0
   57.8220   31.1210   44.6360 C   0  0  0  0  0  0  0  0  0  0  0  0
   56.5420   30.8390   44.1370 C   0  0  0  0  0  0  0  0  0  0  0  0
   55.9170   29.6390   44.4810 C   0  0  0  0  0  0  0  0  0  0  0  0
   54.7680   29.3800   44.0400 O   0  0  0  0  0  0  0  0  0  0  0  0
   56.5290   28.7640   45.2710 O   0  0  0  0  0  0  0  0  0  0  0  0
   57.7440   28.9730   45.7680 C   0  0  0  0  0  0  0  0  0  0  0  0
   58.3230   28.0000   46.5910 C   0  0  0  0  0  0  0  0  0  0  0  0
   59.6090   28.1890   47.1170 C   0  0  0  0  0  0  0  0  0  0  0  0
   60.2090   27.1610   48.0290 C   0  0  0  0  0  0  0  0  0  0  0  0
   60.3000   29.3750   46.8400 C   0  0  0  0  0  0  0  0  0  0  0  0
   59.7320   30.3540   46.0190 C   0  0  0  0  0  0  0  0  0  0  0  0
   58.4470   30.1660   45.4710 C   0  0  0  0  0  0  0  0  0  0  0  0
   58.7020   34.7920   44.8740 C   0  0  0  0  0  0  0  0  0  0  0  0
   59.5310   34.9950   46.1590 C   0  0  0  0  0  0  0  0  0  0  0  0
   62.9746   33.3608   48.1215 H   0  0  0  0  0  0  0  0  0  0  0  0
   62.2790   32.5716   46.6655 H   0  0  0  0  0  0  0  0  0  0  0  0
   62.5913   34.3405   46.6655 H   0  0  0  0  0  0  0  0  0  0  0  0
   60.6397   32.9632   48.5739 H   0  0  0  0  0  0  0  0  0  0  0  0
   60.8596   34.7528   48.2357 H   0  0  0  0  0  0  0  0  0  0  0  0
   58.7393   31.9636   47.3609 H   0  0  0  0  0  0  0  0  0  0  0  0
   58.2817   33.4879   48.2298 H   0  0  0  0  0  0  0  0  0  0  0  0
   56.7747   32.3544   46.2474 H   0  0  0  0  0  0  0  0  0  0  0  0
   56.8089   34.1305   46.6383 H   0  0  0  0  0  0  0  0  0  0  0  0
   58.4120   32.5455   43.1482 H   0  0  0  0  0  0  0  0  0  0  0  0
   59.5474   32.3767   44.5450 H   0  0  0  0  0  0  0  0  0  0  0  0
   56.0337   31.5589   43.4787 H   0  0  0  0  0  0  0  0  0  0  0  0
   57.7657   27.0814   46.8266 H   0  0  0  0  0  0  0  0  0  0  0  0
   60.0378   27.4544   49.0752 H   0  0  0  0  0  0  0  0  0  0  0  0
   59.7390   26.1845   47.8404 H   0  0  0  0  0  0  0  0  0  0  0  0
   61.2904   27.0900   47.8404 H   0  0  0  0  0  0  0  0  0  0  0  0
   61.2984   29.5379   47.2721 H   0  0  0  0  0  0  0  0  0  0  0  0
   60.2909   31.2757   45.7996 H   0  0  0  0  0  0  0  0  0  0  0  0
   59.3931   34.7112   44.0221 H   0  0  0  0  0  0  0  0  0  0  0  0
   58.0284   35.6567   44.7816 H   0  0  0  0  0  0  0  0  0  0  0  0
   60.4856   35.4787   45.9045 H   0  0  0  0  0  0  0  0  0  0  0  0
   58.9664   35.6303   46.8573 H   0  0  0  0  0  0  0  0  0  0  0  0
  1  2  1  0
  2  3  1  0
  3  4  1  0
  4  5  1  0
  5  6  1  0
  6  7  1  0
  7  8  1  0
  8  9  2  0
  9 10  1  0
 10 11  2  0
 10 12  1  0
 12 13  1  0
 13 14  2  0
 14 15  1  0
 15 16  1  0
 15 17  2  0
 17 18  1  0
 18 19  2  0
  6 20  1  0
 20 21  1  0
 21  3  1  0
 19  8  1  0
 19 13  1  0
  1 22  1  0
  1 23  1  0
  1 24  1  0
  2 25  1  0
  2 26  1  0
  4 27  1  0
  4 28  1  0
  5 29  1  0
  5 30  1  0
  7 31  1  0
  7 32  1  0
  9 33  1  0
 14 34  1  0
 16 35  1  0
 16 36  1  0
 16 37  1  0
 17 38  1  0
 18 39  1  0
 20 40  1  0
 20 41  1  0
 21 42  1  0
 21 43  1  0
M  END
>  <UniqueID>  (13) 
13

>  <SMILES>  (13) 
CCN1CCN(Cc2cc(=O)oc3cc(C)ccc23)CC1

>  <Energy>  (13) 
61.80507754308429

>  <Genealogy>  (13) 
CCN1CCN(Cc2cc(=O)oc3cc(C)ccc23)CC1 (3D coordinates assigned)
CCN1CCN(Cc2cc(=O)oc3cc(C)ccc23)CC1 (nonaromatic ring conformer: 61.80507754308429 kcal/mol)

>  <smiles>  (13) 
CCN1CCN(Cc2cc(=O)oc3cc(C)ccc23)CC1

>  <score_type>  (13) 
oracle

>  <origin>  (13) 
adg

>  <m_score__min__energy>  (13) 
-7.6500000000000004

>  <m_primary>  (13) 
energy

$$$$
13:0
     RDKit          3D

 50 52  0  0  0  0  0  0  0  0999 V2000
   57.7640   31.7910   42.7160 C   0  0  0  0  0  0  0  0  0  0  0  0
   56.6490   30.7500   42.7900 C   0  0  0  0  0  0  0  0  0  0  0  0
   56.8000   29.8070   43.9970 C   0  0  0  0  0  0  0  0  0  0  0  0
   57.5890   28.6120   43.6580 N   0  0  0  0  0  0  0  0  0  0  0  0
   58.3640   28.1470   44.8180 C   0  0  0  0  0  0  0  0  0  0  0  0
   58.9250   29.3210   45.6440 C   0  0  0  0  0  0  0  0  0  0  0  0
   58.8800   29.0800   47.1670 C   0  0  0  0  0  0  0  0  0  0  0  0
   58.7750   30.3420   47.9030 N   0  0  0  0  0  0  0  0  0  0  0  0
   59.6950   31.4270   47.6820 C   0  0  0  0  0  0  0  0  0  0  0  0
   59.3640   32.4720   46.7990 C   0  0  0  0  0  0  0  0  0  0  0  0
   58.0590   32.5860   46.2710 C   0  0  0  0  0  0  0  0  0  0  0  0
   57.7260   33.6340   45.4170 C   0  0  0  0  0  0  0  0  0  0  0  0
   58.6760   34.5960   45.0920 C   0  0  0  0  0  0  0  0  0  0  0  0
   59.9670   34.5110   45.6110 C   0  0  0  0  0  0  0  0  0  0  0  0
   60.3460   33.4390   46.4590 C   0  0  0  0  0  0  0  0  0  0  0  0
   61.6270   33.3330   46.9680 N   0  0  0  0  0  0  0  0  0  0  0  0
   62.7230   34.1390   46.3860 C   0  0  0  0  0  0  0  0  0  0  0  0
   61.8860   32.4560   48.0030 C   0  0  0  0  0  0  0  0  0  0  0  0
   63.0950   32.5170   48.7430 C   0  0  0  0  0  0  0  0  0  0  0  0
   63.3790   31.5780   49.7330 C   0  0  0  0  0  0  0  0  0  0  0  0
   62.4690   30.5690   50.0210 C   0  0  0  0  0  0  0  0  0  0  0  0
   61.2540   30.5100   49.3440 C   0  0  0  0  0  0  0  0  0  0  0  0
   60.9330   31.4610   48.3510 C   0  0  0  0  0  0  0  0  0  0  0  0
   58.0684   32.0752   43.7341 H   0  0  0  0  0  0  0  0  0  0  0  0
   58.6263   31.3673   42.1803 H   0  0  0  0  0  0  0  0  0  0  0  0
   57.4004   32.6803   42.1803 H   0  0  0  0  0  0  0  0  0  0  0  0
   55.6840   31.2721   42.8692 H   0  0  0  0  0  0  0  0  0  0  0  0
   56.7043   30.1366   41.8786 H   0  0  0  0  0  0  0  0  0  0  0  0
   57.3042   30.3480   44.8113 H   0  0  0  0  0  0  0  0  0  0  0  0
   55.7959   29.4794   44.3043 H   0  0  0  0  0  0  0  0  0  0  0  0
   58.2470   28.8600   42.8850 H   0  0  0  0  0  0  0  0  0  0  0  0
   56.9450   27.8470   43.3520 H   0  0  0  0  0  0  0  0  0  0  0  0
   57.7105   27.5398   45.4617 H   0  0  0  0  0  0  0  0  0  0  0  0
   59.2138   27.5566   44.4450 H   0  0  0  0  0  0  0  0  0  0  0  0
   59.9717   29.4856   45.3485 H   0  0  0  0  0  0  0  0  0  0  0  0
   58.2900   30.1948   45.4362 H   0  0  0  0  0  0  0  0  0  0  0  0
   58.0081   28.4529   47.4049 H   0  0  0  0  0  0  0  0  0  0  0  0
   59.8127   28.5799   47.4669 H   0  0  0  0  0  0  0  0  0  0  0  0
   58.1500   30.3700   48.7390 H   0  0  0  0  0  0  0  0  0  0  0  0
   57.2973   31.8385   46.5374 H   0  0  0  0  0  0  0  0  0  0  0  0
   56.7107   33.7010   44.9991 H   0  0  0  0  0  0  0  0  0  0  0  0
   58.4079   35.4270   44.4230 H   0  0  0  0  0  0  0  0  0  0  0  0
   60.7038   35.2879   45.3588 H   0  0  0  0  0  0  0  0  0  0  0  0
   63.3232   34.5804   47.1953 H   0  0  0  0  0  0  0  0  0  0  0  0
   63.3624   33.4943   45.7650 H   0  0  0  0  0  0  0  0  0  0  0  0
   62.2982   34.9414   45.7650 H   0  0  0  0  0  0  0  0  0  0  0  0
   63.8193   33.3176   48.5321 H   0  0  0  0  0  0  0  0  0  0  0  0
   64.3269   31.6362   50.2881 H   0  0  0  0  0  0  0  0  0  0  0  0
   62.7088   29.8152   50.7854 H   0  0  0  0  0  0  0  0  0  0  0  0
   60.5355   29.7129   49.5856 H   0  0  0  0  0  0  0  0  0  0  0  0
  1  2  1  0
  2  3  1  0
  3  4  1  0
  4  5  1  0
  5  6  1  0
  6  7  1  0
  7  8  1  0
  8  9  1  0
  9 10  2  0
 10 11  1  0
 11 12  2  0
 12 13  1  0
 13 14  2  0
 14 15  1  0
 15 16  2  0
 16 17  1  0
 16 18  1  0
 18 19  2  0
 19 20  1  0
 20 21  2  0
 21 22  1  0
 22 23  2  0
 23  9  1  0
 15 10  1  0
 23 18  1  0
  1 24  1  0
  1 25  1  0
  1 26  1  0
  2 27  1  0
  2 28  1  0
  3 29  1  0
  3 30  1  0
  4 31  1  0
  4 32  1  0
  5 33  1  0
  5 34  1  0
  6 35  1  0
  6 36  1  0
  7 37  1  0
  7 38  1  0
  8 39  1  0
 11 40  1  0
 12 41  1  0
 13 42  1  0
 14 43  1  0
 17 44  1  0
 17 45  1  0
 17 46  1  0
 19 47  1  0
 20 48  1  0
 21 49  1  0
 22 50  1  0
M  CHG  2   4   1  16   1
M  END
>  <UniqueID>  (14) 
14

>  <SMILES>  (14) 
CCC[NH2+]CCCNc1c2ccccc2[n+](C)c2ccccc12

>  <Energy>  (14) 
67.74703129130503

>  <Genealogy>  (14) 
CCC[NH2+]CCCNc1c2ccccc2[n+](C)c2ccccc12 (protonated)
CCC[NH2+]CCCNc1c2ccccc2[n+](C)c2ccccc12 (3D coordinates assigned)
CCC[NH2+]CCCNc1c2ccccc2[n+](C)c2ccccc12 (optimized conformer: 67.74703129130503 kcal/mol)

>  <smiles>  (14) 
CCCNCCCNc1c2ccccc2[n+](C)c2ccccc12

>  <score_type>  (14) 
oracle

>  <origin>  (14) 
adg

>  <m_score__min__energy>  (14) 
-4.4500000000000002

>  <m_primary>  (14) 
energy

$$$$
