0:0
     RDKit          3D

 35 37  0  0  0  0  0  0  0  0999 V2000
   62.1043   33.3723   45.6959 H   0  0  0  0  0  0  0  0  0  0  0  0
   62.2840   33.5530   46.7660 C   0  0  0  0  0  0  0  0  0  0  0  0
   63.4110   33.1930   47.3050 N   0  0  0  0  0  0  0  0  0  0  0  0
   63.6930   33.4080   48.6950 C   0  0  0  0  0  0  0  0  0  0  0  0
   64.9160   33.0030   49.2420 C   0  0  0  0  0  0  0  0  0  0  0  0
   65.6651   32.5080   48.6065 H   0  0  0  0  0  0  0  0  0  0  0  0
   65.1880   33.2280   50.6020 C   0  0  0  0  0  0  0  0  0  0  0  0
   66.4810   32.7590   51.2010 C   0  0  0  0  0  0  0  0  0  0  0  0
   66.4078   32.7856   52.2982 H   0  0  0  0  0  0  0  0  0  0  0  0
   66.6854   31.7295   50.8720 H   0  0  0  0  0  0  0  0  0  0  0  0
   67.2979   33.4181   50.8720 H   0  0  0  0  0  0  0  0  0  0  0  0
   64.2120   33.8330   51.4130 C   0  0  0  0  0  0  0  0  0  0  0  0
   64.4102   33.9885   52.4838 H   0  0  0  0  0  0  0  0  0  0  0  0
   62.9910   34.2380   50.8660 C   0  0  0  0  0  0  0  0  0  0  0  0
   62.2358   34.7221   51.5027 H   0  0  0  0  0  0  0  0  0  0  0  0
   62.7310   34.0270   49.5090 C   0  0  0  0  0  0  0  0  0  0  0  0
   61.5140   34.4260   48.9480 O   0  0  0  0  0  0  0  0  0  0  0  0
   61.2420   34.2060   47.5910 C   0  0  0  0  0  0  0  0  0  0  0  0
   60.0840   34.5970   47.0420 C   0  0  0  0  0  0  0  0  0  0  0  0
   59.8180   35.6627   47.1012 H   0  0  0  0  0  0  0  0  0  0  0  0
   59.1400   33.6810   46.3600 C   0  0  0  0  0  0  0  0  0  0  0  0
   59.0480   32.3520   46.7980 C   0  0  0  0  0  0  0  0  0  0  0  0
   59.6858   32.0051   47.6243 H   0  0  0  0  0  0  0  0  0  0  0  0
   58.1530   31.4640   46.1940 C   0  0  0  0  0  0  0  0  0  0  0  0
   58.1010   30.4202   46.5372 H   0  0  0  0  0  0  0  0  0  0  0  0
   57.3180   31.9010   45.1480 C   0  0  0  0  0  0  0  0  0  0  0  0
   56.4050   31.0490   44.5080 O   0  0  0  0  0  0  0  0  0  0  0  0
   56.6710   30.3490   43.2980 C   0  0  0  0  0  0  0  0  0  0  0  0
   57.0528   29.3443   43.5320 H   0  0  0  0  0  0  0  0  0  0  0  0
   55.7433   30.2618   42.7133 H   0  0  0  0  0  0  0  0  0  0  0  0
   57.4225   30.8998   42.7133 H   0  0  0  0  0  0  0  0  0  0  0  0
   57.3910   33.2330   44.7290 C   0  0  0  0  0  0  0  0  0  0  0  0
   56.7383   33.5854   43.9167 H   0  0  0  0  0  0  0  0  0  0  0  0
   58.2860   34.1210   45.3330 C   0  0  0  0  0  0  0  0  0  0  0  0
   58.3224   35.1697   45.0031 H   0  0  0  0  0  0  0  0  0  0  0  0
  1  2  1  0
  2  3  2  0
  3  4  1  0
  4  5  2  0
  5  6  1  0
  5  7  1  0
  7  8  1  0
  8  9  1  0
  8 10  1  0
  8 11  1  0
  7 12  2  0
 12 13  1  0
 12 14  1  0
 14 15  1  0
 14 16  2  0
 16 17  1  0
 17 18  1  0
 18 19  2  0
 19 20  1  0
 19 21  1  0
 21 22  2  0
 22 23  1  0
 22 24  1  0
 24 25  1  0
 24 26  2  0
 26 27  1  0
 27 28  1  0
 28 29  1  0
 28 30  1  0
 28 31  1  0
 26 32  1  0
 32 33  1  0
 32 34  2  0
 34 35  1  0
 18  2  1  0
 34 21  1  0
 16  4  1  0
M  END
>  <UniqueID>  (1) 
1

>  <SMILES>  (1) 
COc1ccc(/C=C2/C=Nc3cc(C)ccc3O2)cc1

>  <Energy>  (1) 
40.64560688838148

>  <Genealogy>  (1) 
COc1ccc(/C=C2/C=Nc3cc(C)ccc3O2)cc1 (cis-trans isomerization)
COc1ccc(/C=C2/C=Nc3cc(C)ccc3O2)cc1 (3D coordinates assigned)
COc1ccc(/C=C2/C=Nc3cc(C)ccc3O2)cc1 (nonaromatic ring conformer: 40.64560688838148 kcal/mol)

>  <smiles>  (1) 
COc1ccc(C=C2C=Nc3cc(C)ccc3O2)cc1

>  <score_type>  (1) 
oracle

>  <origin>  (1) 
adg

>  <m_score__min__energy>  (1) 
-7.0199999999999996

>  <m_primary>  (1) 
energy

$$$$
1:0
     RDKit          3D

 30 30  0  0  0  0  0  0  0  0999 V2000
   64.0160   33.0770   48.5760 C   0  0  0  0  0  0  0  0  0  0  0  0
   63.7180   33.0930   47.0770 C   0  0  0  0  0  0  0  0  0  0  0  0
   62.4210   33.8410   46.7510 C   0  0  0  0  0  0  0  0  0  0  0  0
   61.2870   33.8490   48.1920 S   0  0  0  0  0  0  0  0  0  0  0  0
   59.8900   34.7040   47.3790 C   0  0  0  0  0  0  0  0  0  0  0  0
   59.1100   33.7420   46.5270 C   0  0  0  0  0  0  0  0  0  0  0  0
   58.0680   34.2010   45.7110 C   0  0  0  0  0  0  0  0  0  0  0  0
   57.4020   33.3040   44.8790 C   0  0  0  0  0  0  0  0  0  0  0  0
   57.7720   31.9570   44.8600 C   0  0  0  0  0  0  0  0  0  0  0  0
   56.9210   30.8300   43.7450 S   0  0  0  0  0  0  0  0  0  0  0  0
   57.3960   31.7620   42.2550 C   0  0  0  0  0  0  0  0  0  0  0  0
   58.8040   31.5220   45.7100 C   0  0  0  0  0  0  0  0  0  0  0  0
   59.2130   30.1380   45.7280 C   0  0  0  0  0  0  0  0  0  0  0  0
   59.5410   29.0280   45.7440 N   0  0  0  0  0  0  0  0  0  0  0  0
   59.4420   32.4180   46.5180 N   0  0  0  0  0  0  0  0  0  0  0  0
   63.0718   33.1277   49.1381 H   0  0  0  0  0  0  0  0  0  0  0  0
   64.5472   32.1490   48.8344 H   0  0  0  0  0  0  0  0  0  0  0  0
   64.6435   33.9428   48.8344 H   0  0  0  0  0  0  0  0  0  0  0  0
   64.5516   33.5862   46.5556 H   0  0  0  0  0  0  0  0  0  0  0  0
   63.5983   32.0508   46.7461 H   0  0  0  0  0  0  0  0  0  0  0  0
   62.6631   34.8787   46.4780 H   0  0  0  0  0  0  0  0  0  0  0  0
   61.9218   33.3291   45.9151 H   0  0  0  0  0  0  0  0  0  0  0  0
   59.2268   35.1266   48.1482 H   0  0  0  0  0  0  0  0  0  0  0  0
   60.2867   35.5060   46.7392 H   0  0  0  0  0  0  0  0  0  0  0  0
   57.7778   35.2619   45.7271 H   0  0  0  0  0  0  0  0  0  0  0  0
   56.5828   33.6571   44.2354 H   0  0  0  0  0  0  0  0  0  0  0  0
   57.8771   32.7060   42.5508 H   0  0  0  0  0  0  0  0  0  0  0  0
   58.0992   31.1638   41.6570 H   0  0  0  0  0  0  0  0  0  0  0  0
   56.4987   31.9794   41.6570 H   0  0  0  0  0  0  0  0  0  0  0  0
   60.2180   32.0840   47.1360 H   0  0  0  0  0  0  0  0  0  0  0  0
  1  2  1  0
  2  3  1  0
  3  4  1  0
  4  5  1  0
  5  6  1  0
  6  7  2  0
  7  8  1  0
  8  9  2  0
  9 10  1  0
 10 11  1  0
  9 12  1  0
 12 13  1  0
 13 14  3  0
 12 15  2  0
 15  6  1  0
  1 16  1  0
  1 17  1  0
  1 18  1  0
  2 19  1  0
  2 20  1  0
  3 21  1  0
  3 22  1  0
  5 23  1  0
  5 24  1  0
  7 25  1  0
  8 26  1  0
 11 27  1  0
 11 28  1  0
 11 29  1  0
 15 30  1  0
M  CHG  1  15   1
M  END
>  <UniqueID>  (2) 
2

>  <SMILES>  (2) 
CCCSCc1ccc(SC)c(C#N)[nH+]1

>  <Energy>  (2) 
15.244120756130913

>  <Genealogy>  (2) 
CCCSCc1ccc(SC)c(C#N)[nH+]1 (protonated)
CCCSCc1ccc(SC)c(C#N)[nH+]1 (3D coordinates assigned)
CCCSCc1ccc(SC)c(C#N)[nH+]1 (optimized conformer: 15.244120756130913 kcal/mol)

>  <smiles>  (2) 
CCCSCc1ccc(SC)c(C#N)n1

>  <score_type>  (2) 
oracle

>  <origin>  (2) 
adg

>  <m_score__min__energy>  (2) 
-4.04

>  <m_primary>  (2) 
energy

$$$$
2:0
     RDKit          3D

 52 55  0  0  0  0  0  0  0  0999 V2000
   58.8680   32.8760   48.9040 O   0  0  0  0  0  0  0  0  0  0  0  0
   59.4630   33.2090   47.8400 C   0  0  0  0  0  0  0  0  0  0  0  0
   58.7400   33.0560   46.5480 C   0  0  0  0  0  0  0  0  0  0  0  0
   58.5440   34.1780   45.7210 C   0  0  0  0  0  0  0  0  0  0  0  0
   57.8810   34.0520   44.4990 C   0  0  0  0  0  0  0  0  0  0  0  0
   57.4060   32.8070   44.0830 C   0  0  0  0  0  0  0  0  0  0  0  0
   57.5920   31.6780   44.8890 C   0  0  0  0  0  0  0  0  0  0  0  0
   56.9920   30.1030   44.3650 S   0  0  0  0  0  0  0  0  0  0  0  0
   55.8070   29.7200   45.2080 O   0  0  0  0  0  0  0  0  0  0  0  0
   56.5250   30.2100   42.9410 O   0  0  0  0  0  0  0  0  0  0  0  0
   58.2110   28.8520   44.4740 N   0  0  0  0  0  0  0  0  0  0  0  0
   59.5910   29.3890   44.5410 C   0  0  0  0  0  0  0  0  0  0  0  0
   60.3950   28.8880   45.7500 C   0  0  0  0  0  0  0  0  0  0  0  0
   59.5460   28.9800   47.0110 C   0  0  0  0  0  0  0  0  0  0  0  0
   58.2830   28.1140   46.9010 C   0  0  0  0  0  0  0  0  0  0  0  0
   57.8740   27.7910   45.4470 C   0  0  0  0  0  0  0  0  0  0  0  0
   58.2370   31.8090   46.1260 C   0  0  0  0  0  0  0  0  0  0  0  0
   60.8290   33.7030   47.8950 N   0  0  1  0  0  0  0  0  0  0  0  0
   61.4520   33.5320   49.2480 C   0  0  0  0  0  0  0  0  0  0  0  0
   62.8500   32.8780   49.1380 C   0  0  2  0  0  0  0  0  0  0  0  0
   63.7100   33.7380   48.1810 C   0  0  0  0  0  0  0  0  0  0  0  0
   63.0280   33.8430   46.7910 C   0  0  0  0  0  0  0  0  0  0  0  0
   61.6700   33.0990   46.8200 C   0  0  1  0  0  0  0  0  0  0  0  0
   61.9710   31.6070   47.1300 C   0  0  0  0  0  0  0  0  0  0  0  0
   62.6610   31.4800   48.5100 C   0  0  0  0  0  0  0  0  0  0  0  0
   58.9164   35.1625   46.0404 H   0  0  0  0  0  0  0  0  0  0  0  0
   57.7324   34.9364   43.8620 H   0  0  0  0  0  0  0  0  0  0  0  0
   56.8842   32.7130   43.1192 H   0  0  0  0  0  0  0  0  0  0  0  0
   60.1228   29.0932   43.6246 H   0  0  0  0  0  0  0  0  0  0  0  0
   59.5045   30.4807   44.6449 H   0  0  0  0  0  0  0  0  0  0  0  0
   60.6892   27.8412   45.5839 H   0  0  0  0  0  0  0  0  0  0  0  0
   61.2929   29.5117   45.8715 H   0  0  0  0  0  0  0  0  0  0  0  0
   60.1419   28.6363   47.8694 H   0  0  0  0  0  0  0  0  0  0  0  0
   59.2369   30.0272   47.1443 H   0  0  0  0  0  0  0  0  0  0  0  0
   58.4652   27.1663   47.4288 H   0  0  0  0  0  0  0  0  0  0  0  0
   57.4587   28.6913   47.3452 H   0  0  0  0  0  0  0  0  0  0  0  0
   58.3865   26.8669   45.1414 H   0  0  0  0  0  0  0  0  0  0  0  0
   56.7785   27.6920   45.4408 H   0  0  0  0  0  0  0  0  0  0  0  0
   58.3521   30.9284   46.7751 H   0  0  0  0  0  0  0  0  0  0  0  0
   60.7920   34.7360   47.7280 H   0  0  0  0  0  0  0  0  0  0  0  0
   61.5531   34.5183   49.7244 H   0  0  0  0  0  0  0  0  0  0  0  0
   60.8057   32.8766   49.8503 H   0  0  0  0  0  0  0  0  0  0  0  0
   63.3352   32.8026   50.1224 H   0  0  0  0  0  0  0  0  0  0  0  0
   64.6998   33.2723   48.0652 H   0  0  0  0  0  0  0  0  0  0  0  0
   63.8156   34.7476   48.6048 H   0  0  0  0  0  0  0  0  0  0  0  0
   63.6782   33.3882   46.0291 H   0  0  0  0  0  0  0  0  0  0  0  0
   62.8587   34.9021   46.5467 H   0  0  0  0  0  0  0  0  0  0  0  0
   61.1319   33.1791   45.8639 H   0  0  0  0  0  0  0  0  0  0  0  0
   62.6345   31.2004   46.3525 H   0  0  0  0  0  0  0  0  0  0  0  0
   61.0258   31.0445   47.1465 H   0  0  0  0  0  0  0  0  0  0  0  0
   63.6436   31.0020   48.3831 H   0  0  0  0  0  0  0  0  0  0  0  0
   62.0311   30.8690   49.1732 H   0  0  0  0  0  0  0  0  0  0  0  0
  1  2  2  0
  2  3  1  0
  3  4  2  0
  4  5  1  0
  5  6  2  0
  6  7  1  0
  7  8  1  0
  8  9  2  0
  8 10  2  0
  8 11  1  0
 11 12  1  0
 12 13  1  0
 13 14  1  0
 14 15  1  0
 15 16  1  0
  7 17  2  0
  2 18  1  0
 18 19  1  0
 19 20  1  0
 20 21  1  0
 21 22  1  0
 22 23  1  0
 23 24  1  0
 24 25  1  0
 17  3  1  0
 23 18  1  0
 16 11  1  0
 25 20  1  0
  4 26  1  0
  5 27  1  0
  6 28  1  0
 12 29  1  0
 12 30  1  0
 13 31  1  0
 13 32  1  0
 14 33  1  0
 14 34  1  0
 15 35  1  0
 15 36  1  0
 16 37  1  0
 16 38  1  0
 17 39  1  0
 18 40  1  6
 19 41  1  0
 19 42  1  0
 20 43  1  1
 21 44  1  0
 21 45  1  0
 22 46  1  0
 22 47  1  0
 23 48  1  6
 24 49  1  0
 24 50  1  0
 25 51  1  0
 25 52  1  0
M  CHG  1  18   1
M  END
>  <UniqueID>  (3) 
3

>  <SMILES>  (3) 
O=C(c1cccc(S(=O)(=O)N2CCCCC2)c1)[N@H+]1CC2CCC1CC2

>  <Energy>  (3) 
80.6400664951504

>  <Genealogy>  (3) 
O=C(c1cccc(S(=O)(=O)N2CCCCC2)c1)[NH+]1CC2CCC1CC2 (protonated)
O=C(c1cccc(S(=O)(=O)N2CCCCC2)c1)[N@H+]1CC2CCC1CC2 (chirality)
O=C(c1cccc(S(=O)(=O)N2CCCCC2)c1)[N@H+]1CC2CCC1CC2 (3D coordinates assigned)
O=C(c1cccc(S(=O)(=O)N2CCCCC2)c1)[N@H+]1CC2CCC1CC2 (nonaromatic ring conformer: 80.6400664951504 kcal/mol)

>  <smiles>  (3) 
O=C(c1cccc(S(=O)(=O)N2CCCCC2)c1)N1CC2CCC1CC2

>  <score_type>  (3) 
oracle

>  <origin>  (3) 
adg

>  <m_score__min__energy>  (3) 
-8.2400000000000002

>  <m_primary>  (3) 
energy

$$$$
3:0
     RDKit          3D

 40 42  0  0  0  0  0  0  0  0999 V2000
   59.1697   25.7070   46.3708 H   0  0  0  0  0  0  0  0  0  0  0  0
   58.4240   26.3790   45.9210 C   0  0  0  0  0  0  0  0  0  0  0  0
   58.8540   27.4760   45.3630 N   0  0  0  0  0  0  0  0  0  0  0  0
   58.0570   28.5530   44.8440 C   0  0  0  0  0  0  0  0  0  0  0  0
   57.5630   28.4580   43.5410 C   0  0  0  0  0  0  0  0  0  0  0  0
   57.7851   27.5685   42.9332 H   0  0  0  0  0  0  0  0  0  0  0  0
   56.7900   29.4870   43.0100 C   0  0  0  0  0  0  0  0  0  0  0  0
   56.3804   29.4051   41.9924 H   0  0  0  0  0  0  0  0  0  0  0  0
   56.5400   30.6210   43.7790 C   0  0  0  0  0  0  0  0  0  0  0  0
   55.9262   31.4362   43.3682 H   0  0  0  0  0  0  0  0  0  0  0  0
   57.0510   30.7260   45.0360 N   0  0  0  0  0  0  0  0  0  0  0  0
   56.8830   31.6230   45.5410 H   0  0  0  0  0  0  0  0  0  0  0  0
   57.8050   29.7250   45.5930 C   0  0  0  0  0  0  0  0  0  0  0  0
   58.3350   29.8450   46.7790 N   0  0  0  0  0  0  0  0  0  0  0  0
   59.4490   30.6670   47.1540 C   0  0  0  0  0  0  0  0  0  0  0  0
   60.5140   30.1410   47.9000 C   0  0  0  0  0  0  0  0  0  0  0  0
   60.4757   29.0991   48.2506 H   0  0  0  0  0  0  0  0  0  0  0  0
   61.6220   30.9350   48.1990 C   0  0  0  0  0  0  0  0  0  0  0  0
   62.4444   30.5211   48.8009 H   0  0  0  0  0  0  0  0  0  0  0  0
   61.6940   32.2630   47.7350 C   0  0  0  0  0  0  0  0  0  0  0  0
   62.7900   33.0930   48.0190 O   0  0  0  0  0  0  0  0  0  0  0  0
   63.7760   33.4800   47.0680 C   0  0  0  0  0  0  0  0  0  0  0  0
   64.6749   33.8328   47.5947 H   0  0  0  0  0  0  0  0  0  0  0  0
   64.0356   32.6171   46.4372 H   0  0  0  0  0  0  0  0  0  0  0  0
   63.3794   34.2892   46.4372 H   0  0  0  0  0  0  0  0  0  0  0  0
   60.6470   32.7810   46.9560 C   0  0  0  0  0  0  0  0  0  0  0  0
   60.7510   34.1040   46.4950 O   0  0  0  0  0  0  0  0  0  0  0  0
   59.6440   34.9170   46.1210 C   0  0  0  0  0  0  0  0  0  0  0  0
   59.1392   35.2877   47.0253 H   0  0  0  0  0  0  0  0  0  0  0  0
   60.0003   35.7697   45.5243 H   0  0  0  0  0  0  0  0  0  0  0  0
   58.9370   34.3219   45.5243 H   0  0  0  0  0  0  0  0  0  0  0  0
   59.5320   31.9720   46.6590 C   0  0  0  0  0  0  0  0  0  0  0  0
   58.7203   32.3705   46.0326 H   0  0  0  0  0  0  0  0  0  0  0  0
   57.0040   25.9760   45.9910 C   0  0  0  0  0  0  0  0  0  0  0  0
   56.5320   24.6820   45.9880 C   0  0  0  0  0  0  0  0  0  0  0  0
   57.1552   23.7756   45.9782 H   0  0  0  0  0  0  0  0  0  0  0  0
   55.1860   24.7040   45.9990 N   0  0  0  0  0  0  0  0  0  0  0  0
   54.7850   25.9670   45.9920 N   0  0  0  0  0  0  0  0  0  0  0  0
   55.8690   26.7640   45.9790 C   0  0  0  0  0  0  0  0  0  0  0  0
   55.8541   27.8638   45.9616 H   0  0  0  0  0  0  0  0  0  0  0  0
  1  2  1  0
  2  3  2  0
  3  4  1  0
  4  5  2  0
  5  6  1  0
  5  7  1  0
  7  8  1  0
  7  9  2  0
  9 10  1  0
  9 11  1  0
 11 12  1  0
 11 13  1  0
 13 14  2  0
 14 15  1  0
 15 16  2  0
 16 17  1  0
 16 18  1  0
 18 19  1  0
 18 20  2  0
 20 21  1  0
 21 22  1  0
 22 23  1  0
 22 24  1  0
 22 25  1  0
 20 26  1  0
 26 27  1  0
 27 28  1  0
 28 29  1  0
 28 30  1  0
 28 31  1  0
 26 32  2  0
 32 33  1  0
  2 34  1  0
 34 35  1  0
 35 36  1  0
 35 37  2  0
 37 38  1  0
 38 39  1  0
 39 40  1  0
 13  4  1  0
 32 15  1  0
 39 34  2  0
M  CHG  1  38  -1
M  END
>  <UniqueID>  (4) 
4

>  <SMILES>  (4) 
COc1ccc(/N=c2\[nH]cccc2/N=C\c2cn[n-]c2)cc1OC

>  <Energy>  (4) 
90.249630257577

>  <Genealogy>  (4) 
COc1ccc(N=c2[nH]cccc2N=Cc2cn[n-]c2)cc1OC (protonated)
COc1ccc(/N=c2\[nH]cccc2/N=C\c2cn[n-]c2)cc1OC (cis-trans isomerization)
COc1ccc(/N=c2\[nH]cccc2/N=C\c2cn[n-]c2)cc1OC (3D coordinates assigned)
COc1ccc(/N=c2\[nH]cccc2/N=C\c2cn[n-]c2)cc1OC (optimized conformer: 90.249630257577 kcal/mol)

>  <smiles>  (4) 
COc1ccc(N=c2[nH]cccc2N=Cc2cn[nH]c2)cc1OC

>  <score_type>  (4) 
oracle

>  <origin>  (4) 
adg

>  <m_score__min__energy>  (4) 
-8.7599999999999998

>  <m_primary>  (4) 
energy

$$$$
4:0
     RDKit          3D

 43 47  0  0  0  0  0  0  0  0999 V2000
   62.0130   33.3220   50.2140 O   0  0  0  0  0  0  0  0  0  0  0  0
   61.1070   33.3440   51.0910 C   0  0  0  0  0  0  0  0  0  0  0  0
   61.4820   33.5080   52.5370 C   0  0  0  0  0  0  0  0  0  0  0  0
   60.4520   33.0580   53.3970 O   0  0  0  0  0  0  0  0  0  0  0  0
   59.2490   33.7430   53.1060 C   0  0  0  0  0  0  0  0  0  0  0  0
   58.6870   33.2690   51.7610 C   0  0  0  0  0  0  0  0  0  0  0  0
   59.7180   33.3090   50.7150 N   0  0  0  0  0  0  0  0  0  0  0  0
   59.3280   33.1140   49.3450 C   0  0  0  0  0  0  0  0  0  0  0  0
   58.9400   31.8440   48.8930 C   0  0  0  0  0  0  0  0  0  0  0  0
   58.5710   31.6510   47.5590 C   0  0  0  0  0  0  0  0  0  0  0  0
   58.5860   32.7240   46.6530 C   0  0  0  0  0  0  0  0  0  0  0  0
   58.2080   32.5230   45.2780 N   0  0  0  0  0  0  0  0  0  0  0  0
   58.4600   33.3180   44.2010 C   0  0  0  0  0  0  0  0  0  0  0  0
   59.0710   34.4160   44.2790 O   0  0  0  0  0  0  0  0  0  0  0  0
   57.9700   32.8390   43.0260 N   0  0  0  0  0  0  0  0  0  0  0  0
   57.3870   31.6890   43.4100 C   0  0  0  0  0  0  0  0  0  0  0  0
   56.7340   30.7410   42.6390 C   0  0  0  0  0  0  0  0  0  0  0  0
   56.2520   29.6330   43.2750 N   0  0  0  0  0  0  0  0  0  0  0  0
   56.4060   29.4470   44.6280 C   0  0  0  0  0  0  0  0  0  0  0  0
   55.9510   28.3850   45.2350 N   0  0  0  0  0  0  0  0  0  0  0  0
   56.6150   27.2460   45.8990 C   0  0  0  0  0  0  0  0  0  0  0  0
   57.7710   26.5900   45.1620 C   0  0  0  0  0  0  0  0  0  0  0  0
   58.0370   27.4620   46.3900 C   0  0  0  0  0  0  0  0  0  0  0  0
   57.0570   30.3930   45.3700 N   0  0  0  0  0  0  0  0  0  0  0  0
   57.5230   31.5010   44.7420 C   0  0  0  0  0  0  0  0  0  0  0  0
   58.9780   33.9940   47.1060 C   0  0  0  0  0  0  0  0  0  0  0  0
   59.3480   34.1870   48.4400 C   0  0  0  0  0  0  0  0  0  0  0  0
   62.3939   32.9263   52.7374 H   0  0  0  0  0  0  0  0  0  0  0  0
   61.6481   34.5781   52.7299 H   0  0  0  0  0  0  0  0  0  0  0  0
   58.5141   33.5412   53.8992 H   0  0  0  0  0  0  0  0  0  0  0  0
   59.4527   34.8226   53.0515 H   0  0  0  0  0  0  0  0  0  0  0  0
   58.3226   32.2366   51.8674 H   0  0  0  0  0  0  0  0  0  0  0  0
   57.8657   33.9399   51.4688 H   0  0  0  0  0  0  0  0  0  0  0  0
   58.9261   30.9952   49.5926 H   0  0  0  0  0  0  0  0  0  0  0  0
   58.2665   30.6512   47.2160 H   0  0  0  0  0  0  0  0  0  0  0  0
   56.6085   30.8759   41.5545 H   0  0  0  0  0  0  0  0  0  0  0  0
   55.6821   26.8852   46.3568 H   0  0  0  0  0  0  0  0  0  0  0  0
   57.9131   25.5007   45.2190 H   0  0  0  0  0  0  0  0  0  0  0  0
   58.1265   26.5811   44.1211 H   0  0  0  0  0  0  0  0  0  0  0  0
   58.3706   27.0005   47.3312 H   0  0  0  0  0  0  0  0  0  0  0  0
   58.6635   28.3414   46.6001 H   0  0  0  0  0  0  0  0  0  0  0  0
   58.9940   34.8427   46.4063 H   0  0  0  0  0  0  0  0  0  0  0  0
   59.6567   35.1856   48.7827 H   0  0  0  0  0  0  0  0  0  0  0  0
  1  2  2  0
  2  3  1  0
  3  4  1  0
  4  5  1  0
  5  6  1  0
  6  7  1  0
  7  8  1  0
  8  9  2  0
  9 10  1  0
 10 11  2  0
 11 12  1  0
 12 13  1  0
 13 14  2  0
 13 15  1  0
 15 16  1  0
 16 17  2  0
 17 18  1  0
 18 19  1  0
 19 20  2  3
 20 21  1  0
 21 22  1  0
 22 23  1  0
 19 24  1  0
 24 25  2  0
 11 26  1  0
 26 27  2  0
  7  2  1  0
 27  8  1  0
 25 12  1  0
 25 16  1  0
 23 21  1  0
  3 28  1  0
  3 29  1  0
  5 30  1  0
  5 31  1  0
  6 32  1  0
  6 33  1  0
  9 34  1  0
 10 35  1  0
 17 36  1  0
 21 37  1  0
 22 38  1  0
 22 39  1  0
 23 40  1  0
 23 41  1  0
 26 42  1  0
 27 43  1  0
M  CHG  2  15  -1  18  -1
M  END
>  <UniqueID>  (5) 
5

>  <SMILES>  (5) 
O=C1COCCN1c1ccc(-n2c(=O)[n-]c3c[n-]c(=NC4CC4)nc32)cc1

>  <Energy>  (5) 
378.18602431510266

>  <Genealogy>  (5) 
O=C1COCCN1c1ccc(-n2c(=O)[n-]c3c[n-]c(=NC4CC4)nc32)cc1 (protonated)
O=C1COCCN1c1ccc(-n2c(=O)[n-]c3c[n-]c(=NC4CC4)nc32)cc1 (3D coordinates assigned)
O=C1COCCN1c1ccc(-n2c(=O)[n-]c3c[n-]c(=NC4CC4)nc32)cc1 (nonaromatic ring conformer: 378.18602431510266 kcal/mol)

>  <smiles>  (5) 
O=C1COCCN1c1ccc(-n2c(=O)[nH]c3c[nH]c(=NC4CC4)nc32)cc1

>  <score_type>  (5) 
oracle

>  <origin>  (5) 
adg

>  <m_score__min__energy>  (5) 
-10.119999999999999

>  <m_primary>  (5) 
energy

$$$$
5:0
     RDKit          3D

 35 37  0  0  1  0  0  0  0  0999 V2000
   57.4030   32.1860   41.7680 C   0  0  0  0  0  0  0  0  0  0  0  0
   57.2360   31.2490   42.8760 C   0  0  0  0  0  0  0  0  0  0  0  0
   56.4370   30.0950   42.6210 C   0  0  0  0  0  0  0  0  0  0  0  0
   56.4090   29.3010   43.6820 N   0  0  0  0  0  0  0  0  0  0  0  0
   57.1370   29.8570   44.6220 C   0  0  0  0  0  0  0  0  0  0  0  0
   57.4140   29.4070   45.8750 N   0  0  0  0  0  0  0  0  0  0  0  0
   58.2020   30.1260   46.6970 C   0  0  0  0  0  0  0  0  0  0  0  0
   58.6830   31.2820   46.2140 N   0  0  0  0  0  0  0  0  0  0  0  0
   58.4280   31.7540   44.9830 C   0  0  0  0  0  0  0  0  0  0  0  0
   58.8420   32.8340   44.6250 N   0  0  0  0  0  0  0  0  0  0  0  0
   58.8820   34.1170   44.9320 C   0  0  1  0  0  0  0  0  0  0  0  0
   57.3600   34.2470   45.5140 C   0  0  0  0  0  0  0  0  0  0  0  0
   59.6590   34.1630   46.2960 C   0  0  0  0  0  0  0  0  0  0  0  0
   58.9450   34.5050   47.4240 C   0  0  0  0  0  0  0  0  0  0  0  0
   59.6430   34.5100   48.6180 C   0  0  0  0  0  0  0  0  0  0  0  0
   60.9800   34.1840   48.6370 C   0  0  0  0  0  0  0  0  0  0  0  0
   61.6780   33.8430   47.4920 C   0  0  0  0  0  0  0  0  0  0  0  0
   60.9870   33.8340   46.2880 C   0  0  0  0  0  0  0  0  0  0  0  0
   57.6400   31.0460   44.1340 C   0  0  0  0  0  0  0  0  0  0  0  0
   57.5830   33.1957   42.1656 H   0  0  0  0  0  0  0  0  0  0  0  0
   58.2601   31.8764   41.1520 H   0  0  0  0  0  0  0  0  0  0  0  0
   56.4917   32.1916   41.1520 H   0  0  0  0  0  0  0  0  0  0  0  0
   55.9157   29.8920   41.6739 H   0  0  0  0  0  0  0  0  0  0  0  0
   55.9020   28.4010   43.7550 H   0  0  0  0  0  0  0  0  0  0  0  0
   58.4398   29.7825   47.7146 H   0  0  0  0  0  0  0  0  0  0  0  0
   59.2910   31.8310   46.8530 H   0  0  0  0  0  0  0  0  0  0  0  0
   59.2499   34.7976   44.1500 H   0  0  0  0  0  0  0  0  0  0  0  0
   57.3865   34.2447   46.6137 H   0  0  0  0  0  0  0  0  0  0  0  0
   56.9111   35.1868   45.1600 H   0  0  0  0  0  0  0  0  0  0  0  0
   56.7582   33.3970   45.1600 H   0  0  0  0  0  0  0  0  0  0  0  0
   57.8761   34.7606   47.3772 H   0  0  0  0  0  0  0  0  0  0  0  0
   59.1289   34.7749   49.5537 H   0  0  0  0  0  0  0  0  0  0  0  0
   61.5138   34.1949   49.5987 H   0  0  0  0  0  0  0  0  0  0  0  0
   62.7470   33.5871   47.5344 H   0  0  0  0  0  0  0  0  0  0  0  0
   61.4954   33.5685   45.3493 H   0  0  0  0  0  0  0  0  0  0  0  0
  1  2  1  0
  2  3  2  0
  3  4  1  0
  4  5  1  0
  5  6  1  0
  6  7  2  0
  7  8  1  0
  8  9  1  0
  9 10  2  0
 10 11  1  0
 11 12  1  0
 11 13  1  0
 13 14  2  0
 14 15  1  0
 15 16  2  0
 16 17  1  0
 17 18  2  0
  9 19  1  0
 19  2  1  0
 19  5  2  0
 18 13  1  0
  1 20  1  0
  1 21  1  0
  1 22  1  0
  3 23  1  0
  4 24  1  0
  7 25  1  0
  8 26  1  0
 11 27  1  6
 12 28  1  0
 12 29  1  0
 12 30  1  0
 14 31  1  0
 15 32  1  0
 16 33  1  0
 17 34  1  0
 18 35  1  0
M  END
>  <smiles>  (6) 
Cc1c[nH]c2nc[nH]c(=NC(C)c3ccccc3)c12

>  <score_type>  (6) 
oracle

>  <origin>  (6) 
adg

>  <m_score__min__energy>  (6) 
-7.0199999999999996

>  <m_primary>  (6) 
energy

$$$$
6:0
     RDKit          3D

 29 30  0  0  0  0  0  0  0  0999 V2000
   56.4170   29.7120   43.1310 C   0  0  0  0  0  0  0  0  0  0  0  0
   56.9890   30.9650   43.6040 N   0  0  0  0  0  0  0  0  0  0  0  0
   57.6990   31.8370   42.8650 C   0  0  0  0  0  0  0  0  0  0  0  0
   58.1290   32.8540   43.6890 C   0  0  0  0  0  0  0  0  0  0  0  0
   57.6370   32.5220   44.9420 C   0  0  0  0  0  0  0  0  0  0  0  0
   57.8660   33.2860   46.1850 C   0  0  0  0  0  0  0  0  0  0  0  0
   56.8910   33.4640   46.9650 O   0  0  0  0  0  0  0  0  0  0  0  0
   59.1610   33.8260   46.5280 N   0  0  0  0  0  0  0  0  0  0  0  0
   59.2640   34.9720   47.4440 C   0  0  0  0  0  0  0  0  0  0  0  0
   60.0280   34.5750   48.7180 C   0  0  0  0  0  0  0  0  0  0  0  0
   61.1820   33.5840   48.4530 C   0  0  0  0  0  0  0  0  0  0  0  0
   61.5960   33.5430   46.9770 C   0  0  0  0  0  0  0  0  0  0  0  0
   60.3980   33.1510   46.0980 C   0  0  0  0  0  0  0  0  0  0  0  0
   56.9590   31.3590   44.8670 N   0  0  0  0  0  0  0  0  0  0  0  0
   56.1331   29.0901   43.9928 H   0  0  0  0  0  0  0  0  0  0  0  0
   55.5259   29.9227   42.5215 H   0  0  0  0  0  0  0  0  0  0  0  0
   57.1600   29.1768   42.5215 H   0  0  0  0  0  0  0  0  0  0  0  0
   57.9015   31.7523   41.7871 H   0  0  0  0  0  0  0  0  0  0  0  0
   58.7292   33.7338   43.4139 H   0  0  0  0  0  0  0  0  0  0  0  0
   59.7994   35.7907   46.9410 H   0  0  0  0  0  0  0  0  0  0  0  0
   58.2509   35.2971   47.7230 H   0  0  0  0  0  0  0  0  0  0  0  0
   60.4465   35.4852   49.1723 H   0  0  0  0  0  0  0  0  0  0  0  0
   59.3120   34.0715   49.3842 H   0  0  0  0  0  0  0  0  0  0  0  0
   62.0517   33.8867   49.0547 H   0  0  0  0  0  0  0  0  0  0  0  0
   60.8286   32.5793   48.7282 H   0  0  0  0  0  0  0  0  0  0  0  0
   61.9588   34.5363   46.6741 H   0  0  0  0  0  0  0  0  0  0  0  0
   62.3932   32.7958   46.8495 H   0  0  0  0  0  0  0  0  0  0  0  0
   60.6134   33.4317   45.0565 H   0  0  0  0  0  0  0  0  0  0  0  0
   60.2458   32.0656   46.1910 H   0  0  0  0  0  0  0  0  0  0  0  0
  1  2  1  0
  2  3  1  0
  3  4  2  0
  4  5  1  0
  5  6  1  0
  6  7  2  0
  6  8  1  0
  8  9  1  0
  9 10  1  0
 10 11  1  0
 11 12  1  0
 12 13  1  0
  5 14  2  0
 14  2  1  0
 13  8  1  0
  1 15  1  0
  1 16  1  0
  1 17  1  0
  3 18  1  0
  4 19  1  0
  9 20  1  0
  9 21  1  0
 10 22  1  0
 10 23  1  0
 11 24  1  0
 11 25  1  0
 12 26  1  0
 12 27  1  0
 13 28  1  0
 13 29  1  0
M  END
>  <UniqueID>  (7) 
6

>  <SMILES>  (7) 
Cn1ccc(C(=O)N2CCCCC2)n1

>  <Energy>  (7) 
59.668433331842415

>  <Genealogy>  (7) 
Cn1ccc(C(=O)N2CCCCC2)n1 (3D coordinates assigned)
Cn1ccc(C(=O)N2CCCCC2)n1 (nonaromatic ring conformer: 59.668433331842415 kcal/mol)

>  <smiles>  (7) 
Cn1ccc(C(=O)N2CCCCC2)n1

>  <score_type>  (7) 
oracle

>  <origin>  (7) 
adg

>  <m_score__min__energy>  (7) 
-5.9299999999999997

>  <m_primary>  (7) 
energy

$$$$
7:0
     RDKit          3D

 47 49  0  0  0  0  0  0  0  0999 V2000
   55.9860   27.0910   46.8872 H   0  0  0  0  0  0  0  0  0  0  0  0
   56.6050   26.8960   45.9990 C   0  0  0  0  0  0  0  0  0  0  0  0
   57.3500   31.6580   45.1280 C   0  0  0  0  0  0  0  0  0  0  0  0
   56.8840   29.1990   45.2120 C   0  0  0  0  0  0  0  0  0  0  0  0
   55.6650   29.3030   44.9040 O   0  0  0  0  0  0  0  0  0  0  0  0
   57.7890   30.3810   45.1250 C   0  0  0  0  0  0  0  0  0  0  0  0
   57.4390   27.8720   45.5840 C   0  0  0  0  0  0  0  0  0  0  0  0
   56.3174   31.8374   44.7939 H   0  0  0  0  0  0  0  0  0  0  0  0
   58.1420   32.8340   45.5430 C   0  0  0  0  0  0  0  0  0  0  0  0
   58.5310   33.8090   44.6110 C   0  0  0  0  0  0  0  0  0  0  0  0
   58.2794   33.6821   43.5477 H   0  0  0  0  0  0  0  0  0  0  0  0
   55.2150   23.5360   44.9980 C   0  0  0  0  0  0  0  0  0  0  0  0
   54.3628   22.8906   45.2574 H   0  0  0  0  0  0  0  0  0  0  0  0
   56.1290   23.1200   44.0230 C   0  0  0  0  0  0  0  0  0  0  0  0
   55.9240   21.8770   43.4040 O   0  0  0  0  0  0  0  0  0  0  0  0
   56.9690   21.0000   42.9990 C   0  0  0  0  0  0  0  0  0  0  0  0
   57.4643   20.5843   43.8889 H   0  0  0  0  0  0  0  0  0  0  0  0
   56.5478   20.1809   42.3975 H   0  0  0  0  0  0  0  0  0  0  0  0
   57.7026   21.5569   42.3975 H   0  0  0  0  0  0  0  0  0  0  0  0
   57.2150   23.9560   43.6970 C   0  0  0  0  0  0  0  0  0  0  0  0
   57.9388   23.6416   42.9306 H   0  0  0  0  0  0  0  0  0  0  0  0
   58.4220   33.0300   46.9050 C   0  0  0  0  0  0  0  0  0  0  0  0
   58.0847   32.2890   47.6447 H   0  0  0  0  0  0  0  0  0  0  0  0
   59.2840   30.1510   45.0800 C   0  0  0  0  0  0  0  0  0  0  0  0
   59.7058   30.3745   46.0710 H   0  0  0  0  0  0  0  0  0  0  0  0
   59.7017   30.8114   44.3058 H   0  0  0  0  0  0  0  0  0  0  0  0
   59.6420   28.7100   44.7070 C   0  0  0  0  0  0  0  0  0  0  0  0
   60.7308   28.5777   44.7906 H   0  0  0  0  0  0  0  0  0  0  0  0
   59.3065   28.5235   43.6761 H   0  0  0  0  0  0  0  0  0  0  0  0
   58.9450   27.7090   45.6320 C   0  0  0  0  0  0  0  0  0  0  0  0
   59.2906   27.8732   46.6633 H   0  0  0  0  0  0  0  0  0  0  0  0
   59.1953   26.6922   45.2952 H   0  0  0  0  0  0  0  0  0  0  0  0
   56.4700   25.5840   45.3380 C   0  0  0  0  0  0  0  0  0  0  0  0
   55.3760   24.7650   45.6450 C   0  0  0  0  0  0  0  0  0  0  0  0
   54.6417   25.0895   46.3970 H   0  0  0  0  0  0  0  0  0  0  0  0
   59.2360   34.9390   45.0290 C   0  0  0  0  0  0  0  0  0  0  0  0
   59.5535   35.6915   44.2922 H   0  0  0  0  0  0  0  0  0  0  0  0
   59.5390   35.1160   46.3810 C   0  0  0  0  0  0  0  0  0  0  0  0
   60.1012   36.0052   46.7023 H   0  0  0  0  0  0  0  0  0  0  0  0
   59.1330   34.1710   47.3300 C   0  0  0  0  0  0  0  0  0  0  0  0
   59.4510   34.4000   48.6770 O   0  0  0  0  0  0  0  0  0  0  0  0
   60.5990   33.8720   49.3330 C   0  0  0  0  0  0  0  0  0  0  0  0
   60.4605   33.9357   50.4224 H   0  0  0  0  0  0  0  0  0  0  0  0
   60.7364   32.8202   49.0417 H   0  0  0  0  0  0  0  0  0  0  0  0
   61.4870   34.4522   49.0417 H   0  0  0  0  0  0  0  0  0  0  0  0
   57.3750   25.1840   44.3450 C   0  0  0  0  0  0  0  0  0  0  0  0
   58.2155   25.8400   44.0744 H   0  0  0  0  0  0  0  0  0  0  0  0
  1  2  1  0
  2  3  2  0
  3  4  1  0
  4  5  2  0
  4  6  1  0
  6  7  2  0
  7  8  1  0
  7  9  1  0
  9 10  2  0
 10 11  1  0
 10 12  1  0
 12 13  1  0
 12 14  2  0
 14 15  1  0
 15 16  1  0
 16 17  1  0
 16 18  1  0
 16 19  1  0
 14 20  1  0
 20 21  1  0
 20 22  2  0
 22 23  1  0
  6 24  1  0
 24 25  1  0
 24 26  1  0
 24 27  1  0
 27 28  1  0
 27 29  1  0
 27 30  1  0
 30 31  1  0
 30 32  1  0
  2 33  1  0
 33 34  2  0
 34 35  1  0
 34 36  1  0
 36 37  1  0
 36 38  2  0
 38 39  1  0
 38 40  1  0
 40 41  1  0
 41 42  1  0
 42 43  1  0
 42 44  1  0
 42 45  1  0
 40 46  2  0
 46 47  1  0
 30  3  1  0
 46 33  1  0
 22  9  1  0
M  END
>  <UniqueID>  (8) 
7

>  <SMILES>  (8) 
COc1ccc(/C=C2\CCC/C(=C/c3cccc(OC)c3)C2=O)cc1

>  <Energy>  (8) 
64.23648091540467

>  <Genealogy>  (8) 
COc1ccc(/C=C2\CCC/C(=C/c3cccc(OC)c3)C2=O)cc1 (cis-trans isomerization)
COc1ccc(/C=C2\CCC/C(=C/c3cccc(OC)c3)C2=O)cc1 (3D coordinates assigned)
COc1ccc(/C=C2\CCC/C(=C/c3cccc(OC)c3)C2=O)cc1 (nonaromatic ring conformer: 64.23648091540467 kcal/mol)

>  <smiles>  (8) 
COc1ccc(C=C2CCCC(=Cc3cccc(OC)c3)C2=O)cc1

>  <score_type>  (8) 
oracle

>  <origin>  (8) 
adg

>  <m_score__min__energy>  (8) 
-9.3100000000000005

>  <m_primary>  (8) 
energy

$$$$
8:0
     RDKit          3D

 60 66  0  0  0  0  0  0  0  0999 V2000
   60.7410   26.4880   49.7520 O   0  0  0  0  0  0  0  0  0  0  0  0
   60.5060   27.5700   48.9110 C   0  0  0  0  0  0  0  0  0  0  0  0
   60.8490   28.8780   49.1350 C   0  0  0  0  0  0  0  0  0  0  0  0
   60.3530   29.6320   48.1640 C   0  0  0  0  0  0  0  0  0  0  0  0
   60.6460   30.9360   48.5240 C   0  0  0  0  0  0  0  0  0  0  0  0
   60.4020   32.1720   47.7690 C   0  0  0  0  0  0  0  0  0  0  0  0
   61.2370   32.6880   46.7840 C   0  0  0  0  0  0  0  0  0  0  0  0
   60.7210   33.8330   46.1650 C   0  0  0  0  0  0  0  0  0  0  0  0
   59.4730   34.2100   46.6400 C   0  0  0  0  0  0  0  0  0  0  0  0
   59.0100   33.1170   47.8290 S   0  0  0  0  0  0  0  0  0  0  0  0
   61.2770   30.8970   49.7330 N   0  0  0  0  0  0  0  0  0  0  0  0
   61.3980   29.6230   50.1070 N   0  0  0  0  0  0  0  0  0  0  0  0
   62.0030   29.1960   51.3370 C   0  0  0  0  0  0  0  0  0  0  0  0
   61.2380   28.5070   52.2920 C   0  0  0  0  0  0  0  0  0  0  0  0
   61.8140   28.1010   53.4990 C   0  0  0  0  0  0  0  0  0  0  0  0
   63.1530   28.3920   53.7680 C   0  0  0  0  0  0  0  0  0  0  0  0
   63.9170   29.0970   52.8340 C   0  0  0  0  0  0  0  0  0  0  0  0
   63.3440   29.5030   51.6260 C   0  0  0  0  0  0  0  0  0  0  0  0
   59.6930   28.7970   47.2770 C   0  0  0  0  0  0  0  0  0  0  0  0
   58.8920   29.2060   46.1110 C   0  0  0  0  0  0  0  0  0  0  0  0
   58.7750   28.3550   45.0020 C   0  0  0  0  0  0  0  0  0  0  0  0
   57.9880   28.7300   43.9090 C   0  0  0  0  0  0  0  0  0  0  0  0
   57.3090   29.9530   43.9190 C   0  0  0  0  0  0  0  0  0  0  0  0
   56.3240   30.4230   42.5460 Cl  0  0  0  0  0  0  0  0  0  0  0  0
   57.4140   30.8000   45.0280 C   0  0  0  0  0  0  0  0  0  0  0  0
   58.1990   30.4270   46.1230 C   0  0  0  0  0  0  0  0  0  0  0  0
   59.8060   27.5130   47.7450 N   0  0  0  0  0  0  0  0  0  0  0  0
   59.2050   26.3280   47.1960 C   0  0  0  0  0  0  0  0  0  0  0  0
   59.9510   25.4860   46.3580 C   0  0  0  0  0  0  0  0  0  0  0  0
   59.3720   24.3370   45.8150 C   0  0  0  0  0  0  0  0  0  0  0  0
   58.0370   24.0020   46.1060 C   0  0  0  0  0  0  0  0  0  0  0  0
   57.4200   22.7830   45.5270 C   0  0  0  0  0  0  0  0  0  0  0  0
   57.2440   22.6600   44.1360 C   0  0  0  0  0  0  0  0  0  0  0  0
   56.6620   21.5100   43.5940 C   0  0  0  0  0  0  0  0  0  0  0  0
   56.2500   20.4700   44.4320 C   0  0  0  0  0  0  0  0  0  0  0  0
   55.5200   19.0280   43.7490 Cl  0  0  0  0  0  0  0  0  0  0  0  0
   56.4190   20.5800   45.8140 C   0  0  0  0  0  0  0  0  0  0  0  0
   57.0000   21.7280   46.3610 C   0  0  0  0  0  0  0  0  0  0  0  0
   57.2970   24.8430   46.9580 C   0  0  0  0  0  0  0  0  0  0  0  0
   57.8770   25.9930   47.5000 C   0  0  0  0  0  0  0  0  0  0  0  0
   62.2062   32.2412   46.5177 H   0  0  0  0  0  0  0  0  0  0  0  0
   61.2551   34.3824   45.3758 H   0  0  0  0  0  0  0  0  0  0  0  0
   58.8874   35.0757   46.2970 H   0  0  0  0  0  0  0  0  0  0  0  0
   60.1798   28.2856   52.0891 H   0  0  0  0  0  0  0  0  0  0  0  0
   61.2120   27.5517   54.2378 H   0  0  0  0  0  0  0  0  0  0  0  0
   63.6067   28.0661   54.7156 H   0  0  0  0  0  0  0  0  0  0  0  0
   64.9696   29.3323   53.0499 H   0  0  0  0  0  0  0  0  0  0  0  0
   63.9456   30.0659   50.8972 H   0  0  0  0  0  0  0  0  0  0  0  0
   59.3037   27.3904   44.9923 H   0  0  0  0  0  0  0  0  0  0  0  0
   57.9025   28.0619   43.0393 H   0  0  0  0  0  0  0  0  0  0  0  0
   56.8781   31.7606   45.0382 H   0  0  0  0  0  0  0  0  0  0  0  0
   58.2739   31.0918   46.9962 H   0  0  0  0  0  0  0  0  0  0  0  0
   60.9980   25.7322   46.1273 H   0  0  0  0  0  0  0  0  0  0  0  0
   59.9651   23.6881   45.1538 H   0  0  0  0  0  0  0  0  0  0  0  0
   57.5666   23.4743   43.4706 H   0  0  0  0  0  0  0  0  0  0  0  0
   56.5281   21.4236   42.5056 H   0  0  0  0  0  0  0  0  0  0  0  0
   56.0943   19.7617   46.4735 H   0  0  0  0  0  0  0  0  0  0  0  0
   57.1301   21.8081   47.4503 H   0  0  0  0  0  0  0  0  0  0  0  0
   56.2533   24.5929   47.1993 H   0  0  0  0  0  0  0  0  0  0  0  0
   57.2892   26.6391   48.1686 H   0  0  0  0  0  0  0  0  0  0  0  0
  1  2  1  0
  2  3  2  0
  3  4  1  0
  4  5  1  0
  5  6  1  0
  6  7  2  0
  7  8  1  0
  8  9  2  0
  9 10  1  0
  5 11  2  0
 11 12  1  0
 12 13  1  0
 13 14  2  0
 14 15  1  0
 15 16  2  0
 16 17  1  0
 17 18  2  0
  4 19  2  0
 19 20  1  0
 20 21  2  0
 21 22  1  0
 22 23  2  0
 23 24  1  0
 23 25  1  0
 25 26  2  0
 19 27  1  0
 27 28  1  0
 28 29  2  0
 29 30  1  0
 30 31  2  0
 31 32  1  0
 32 33  2  0
 33 34  1  0
 34 35  2  0
 35 36  1  0
 35 37  1  0
 37 38  2  0
 31 39  1  0
 39 40  2  0
 27  2  1  0
 40 28  1  0
 12  3  1  0
 18 13  1  0
 26 20  1  0
 38 32  1  0
 10  6  1  0
  7 41  1  0
  8 42  1  0
  9 43  1  0
 14 44  1  0
 15 45  1  0
 16 46  1  0
 17 47  1  0
 18 48  1  0
 21 49  1  0
 22 50  1  0
 25 51  1  0
 26 52  1  0
 29 53  1  0
 30 54  1  0
 33 55  1  0
 34 56  1  0
 37 57  1  0
 38 58  1  0
 39 59  1  0
 40 60  1  0
M  CHG  1   1  -1
M  END
>  <UniqueID>  (9) 
8

>  <SMILES>  (9) 
[O-]c1c2c(c(-c3cccs3)nn2-c2ccccc2)c(-c2ccc(Cl)cc2)n1-c1ccc(-c2ccc(Cl)cc2)cc1

>  <Energy>  (9) 
211.44643754191995

>  <Genealogy>  (9) 
[O-]c1c2c(c(-c3cccs3)nn2-c2ccccc2)c(-c2ccc(Cl)cc2)n1-c1ccc(-c2ccc(Cl)cc2)cc1 (protonated)
[O-]c1c2c(c(-c3cccs3)nn2-c2ccccc2)c(-c2ccc(Cl)cc2)n1-c1ccc(-c2ccc(Cl)cc2)cc1 (3D coordinates assigned)
[O-]c1c2c(c(-c3cccs3)nn2-c2ccccc2)c(-c2ccc(Cl)cc2)n1-c1ccc(-c2ccc(Cl)cc2)cc1 (optimized conformer: 211.44643754191995 kcal/mol)

>  <smiles>  (9) 
Oc1c2c(c(-c3cccs3)nn2-c2ccccc2)c(-c2ccc(Cl)cc2)n1-c1ccc(-c2ccc(Cl)cc2)cc1

>  <score_type>  (9) 
oracle

>  <origin>  (9) 
adg

>  <m_score__min__energy>  (9) 
-9.7799999999999994

>  <m_primary>  (9) 
energy

$$$$
9:0
     RDKit          3D

 34 36  0  0  0  0  0  0  0  0999 V2000
   56.0120   26.5480   45.9800 C   0  0  0  0  0  0  0  0  0  0  0  0
   57.0410   27.5420   45.6090 N   0  0  0  0  0  0  0  0  0  0  0  0
   56.6560   28.7540   45.0760 C   0  0  0  0  0  0  0  0  0  0  0  0
   55.4330   29.0050   44.8850 O   0  0  0  0  0  0  0  0  0  0  0  0
   57.6130   29.7220   44.7160 C   0  0  0  0  0  0  0  0  0  0  0  0
   57.2110   31.0350   44.1450 C   0  0  0  0  0  0  0  0  0  0  0  0
   57.1350   31.1700   42.8950 O   0  0  0  0  0  0  0  0  0  0  0  0
   56.8390   32.1420   44.9780 N   0  0  0  0  0  0  0  0  0  0  0  0
   57.7330   33.0930   45.5740 C   0  0  0  0  0  0  0  0  0  0  0  0
   58.3850   34.0190   44.7490 C   0  0  0  0  0  0  0  0  0  0  0  0
   59.2710   34.9530   45.2960 C   0  0  0  0  0  0  0  0  0  0  0  0
   59.5210   34.9580   46.6700 C   0  0  0  0  0  0  0  0  0  0  0  0
   58.8940   34.0230   47.4990 C   0  0  0  0  0  0  0  0  0  0  0  0
   58.0090   33.0860   46.9540 C   0  0  0  0  0  0  0  0  0  0  0  0
   58.9650   29.4450   44.9170 C   0  0  0  0  0  0  0  0  0  0  0  0
   59.3620   28.2170   45.4430 C   0  0  0  0  0  0  0  0  0  0  0  0
   60.7270   27.9410   45.6250 C   0  0  0  0  0  0  0  0  0  0  0  0
   61.1330   26.7160   46.1480 C   0  0  0  0  0  0  0  0  0  0  0  0
   60.1830   25.7570   46.4940 C   0  0  0  0  0  0  0  0  0  0  0  0
   58.8230   26.0160   46.3200 C   0  0  0  0  0  0  0  0  0  0  0  0
   58.3810   27.2550   45.7910 C   0  0  0  0  0  0  0  0  0  0  0  0
   55.9440   26.4823   47.0759 H   0  0  0  0  0  0  0  0  0  0  0  0
   55.0391   26.8569   45.5701 H   0  0  0  0  0  0  0  0  0  0  0  0
   56.2871   25.5650   45.5701 H   0  0  0  0  0  0  0  0  0  0  0  0
   58.1990   34.0114   43.6649 H   0  0  0  0  0  0  0  0  0  0  0  0
   59.7711   35.6839   44.6436 H   0  0  0  0  0  0  0  0  0  0  0  0
   60.2117   35.6981   47.1003 H   0  0  0  0  0  0  0  0  0  0  0  0
   59.0965   34.0239   48.5802 H   0  0  0  0  0  0  0  0  0  0  0  0
   57.5278   32.3420   47.6059 H   0  0  0  0  0  0  0  0  0  0  0  0
   59.7222   30.2000   44.6589 H   0  0  0  0  0  0  0  0  0  0  0  0
   61.4791   28.6963   45.3531 H   0  0  0  0  0  0  0  0  0  0  0  0
   62.2035   26.5053   46.2880 H   0  0  0  0  0  0  0  0  0  0  0  0
   60.5071   24.7902   46.9067 H   0  0  0  0  0  0  0  0  0  0  0  0
   58.0844   25.2492   46.5967 H   0  0  0  0  0  0  0  0  0  0  0  0
  1  2  1  0
  2  3  1  0
  3  4  2  0
  3  5  1  0
  5  6  1  0
  6  7  2  0
  6  8  1  0
  8  9  1  0
  9 10  2  0
 10 11  1  0
 11 12  2  0
 12 13  1  0
 13 14  2  0
  5 15  2  0
 15 16  1  0
 16 17  2  0
 17 18  1  0
 18 19  2  0
 19 20  1  0
 20 21  2  0
 21  2  1  0
 14  9  1  0
 21 16  1  0
  1 22  1  0
  1 23  1  0
  1 24  1  0
 10 25  1  0
 11 26  1  0
 12 27  1  0
 13 28  1  0
 14 29  1  0
 15 30  1  0
 17 31  1  0
 18 32  1  0
 19 33  1  0
 20 34  1  0
M  CHG  1   8  -1
M  END
>  <UniqueID>  (10) 
9

>  <SMILES>  (10) 
Cn1c(=O)c(C(=O)[N-]c2ccccc2)cc2ccccc21

>  <Energy>  (10) 
54.882003141696785

>  <Genealogy>  (10) 
Cn1c(=O)c(C(=O)[N-]c2ccccc2)cc2ccccc21 (protonated)
Cn1c(=O)c(C(=O)[N-]c2ccccc2)cc2ccccc21 (3D coordinates assigned)
Cn1c(=O)c(C(=O)[N-]c2ccccc2)cc2ccccc21 (optimized conformer: 54.882003141696785 kcal/mol)

>  <smiles>  (10) 
Cn1c(=O)c(C(=O)Nc2ccccc2)cc2ccccc21

>  <score_type>  (10) 
oracle

>  <origin>  (10) 
adg

>  <m_score__min__energy>  (10) 
-8.9000000000000004

>  <m_primary>  (10) 
energy

$$$$
10:0
     RDKit          3D

 25 26  0  0  0  0  0  0  0  0999 V2000
   57.0120   31.6690   45.2290 O   0  0  0  0  0  0  0  0  0  0  0  0
   57.7430   30.6420   45.2670 C   0  0  0  0  0  0  0  0  0  0  0  0
   57.5390   29.6160   44.3370 C   0  0  0  0  0  0  0  0  0  0  0  0
   56.2830   29.7710   43.1080 Cl  0  0  0  0  0  0  0  0  0  0  0  0
   58.3400   28.4730   44.3990 C   0  0  0  0  0  0  0  0  0  0  0  0
   58.1440   27.1430   43.2650 Cl  0  0  0  0  0  0  0  0  0  0  0  0
   59.3120   28.3860   45.3900 C   0  0  0  0  0  0  0  0  0  0  0  0
   59.4750   29.4060   46.2720 N   0  0  0  0  0  0  0  0  0  0  0  0
   58.7290   30.5190   46.2150 N   0  0  0  0  0  0  0  0  0  0  0  0
   58.9690   31.5970   47.1910 C   0  0  0  0  0  0  0  0  0  0  0  0
   60.3890   32.1110   47.1000 C   0  0  0  0  0  0  0  0  0  0  0  0
   61.4460   31.2970   47.5470 C   0  0  0  0  0  0  0  0  0  0  0  0
   62.7660   31.7520   47.4950 C   0  0  0  0  0  0  0  0  0  0  0  0
   63.0480   33.0230   46.9960 C   0  0  0  0  0  0  0  0  0  0  0  0
   62.0110   33.8410   46.5430 C   0  0  0  0  0  0  0  0  0  0  0  0
   60.6850   33.3960   46.5900 C   0  0  0  0  0  0  0  0  0  0  0  0
   59.4320   34.4700   45.9790 Cl  0  0  0  0  0  0  0  0  0  0  0  0
   59.9485   27.4915   45.4594 H   0  0  0  0  0  0  0  0  0  0  0  0
   60.2080   29.2970   47.0090 H   0  0  0  0  0  0  0  0  0  0  0  0
   58.2739   32.4253   46.9890 H   0  0  0  0  0  0  0  0  0  0  0  0
   58.8085   31.1939   48.2018 H   0  0  0  0  0  0  0  0  0  0  0  0
   61.2311   30.2928   47.9412 H   0  0  0  0  0  0  0  0  0  0  0  0
   63.5838   31.1066   47.8482 H   0  0  0  0  0  0  0  0  0  0  0  0
   64.0874   33.3813   46.9592 H   0  0  0  0  0  0  0  0  0  0  0  0
   62.2378   34.8417   46.1466 H   0  0  0  0  0  0  0  0  0  0  0  0
  1  2  2  0
  2  3  1  0
  3  4  1  0
  3  5  2  0
  5  6  1  0
  5  7  1  0
  7  8  2  0
  8  9  1  0
  9 10  1  0
 10 11  1  0
 11 12  2  0
 12 13  1  0
 13 14  2  0
 14 15  1  0
 15 16  2  0
 16 17  1  0
  9  2  1  0
 16 11  1  0
  7 18  1  0
  8 19  1  0
 10 20  1  0
 10 21  1  0
 12 22  1  0
 13 23  1  0
 14 24  1  0
 15 25  1  0
M  CHG  1   8   1
M  END
>  <UniqueID>  (11) 
10

>  <SMILES>  (11) 
O=c1c(Cl)c(Cl)c[nH+]n1Cc1ccccc1Cl

>  <Energy>  (11) 
30.16073061236361

>  <Genealogy>  (11) 
O=c1c(Cl)c(Cl)c[nH+]n1Cc1ccccc1Cl (protonated)
O=c1c(Cl)c(Cl)c[nH+]n1Cc1ccccc1Cl (3D coordinates assigned)
O=c1c(Cl)c(Cl)c[nH+]n1Cc1ccccc1Cl (optimized conformer: 30.16073061236361 kcal/mol)

>  <smiles>  (11) 
O=c1c(Cl)c(Cl)cnn1Cc1ccccc1Cl

>  <score_type>  (11) 
oracle

>  <origin>  (11) 
adg

>  <m_score__min__energy>  (11) 
-5.5

>  <m_primary>  (11) 
energy

$$$$
11:0
     RDKit          3D

 39 41  0  0  0  0  0  0  0  0999 V2000
   56.6700   30.3100   43.2040 C   0  0  0  0  0  0  0  0  0  0  0  0
   56.5100   30.8880   44.4960 O   0  0  0  0  0  0  0  0  0  0  0  0
   57.3990   31.8100   45.0720 C   0  0  0  0  0  0  0  0  0  0  0  0
   57.2730   33.1960   44.8570 C   0  0  0  0  0  0  0  0  0  0  0  0
   58.1760   34.0880   45.4410 C   0  0  0  0  0  0  0  0  0  0  0  0
   59.2080   33.6190   46.2620 C   0  0  0  0  0  0  0  0  0  0  0  0
   60.1400   34.5550   46.8270 N   0  0  0  0  0  0  0  0  0  0  0  0
   61.2230   34.1890   47.6950 C   0  0  0  0  0  0  0  0  0  0  0  0
   62.5090   33.8430   47.3010 C   0  0  0  0  0  0  0  0  0  0  0  0
   63.1690   33.5100   48.4170 N   0  0  0  0  0  0  0  0  0  0  0  0
   64.4480   33.0940   48.5850 C   0  0  0  0  0  0  0  0  0  0  0  0
   64.8690   32.7990   49.8940 C   0  0  0  0  0  0  0  0  0  0  0  0
   66.2610   32.3220   50.1550 C   0  0  0  0  0  0  0  0  0  0  0  0
   63.9830   32.9290   50.9300 N   0  0  0  0  0  0  0  0  0  0  0  0
   62.6980   33.3480   50.7360 C   0  0  0  0  0  0  0  0  0  0  0  0
   61.7570   33.4720   51.8930 C   0  0  0  0  0  0  0  0  0  0  0  0
   62.2990   33.6420   49.4300 C   0  0  0  0  0  0  0  0  0  0  0  0
   61.0750   34.0510   49.0350 N   0  0  0  0  0  0  0  0  0  0  0  0
   59.3530   32.2360   46.4580 C   0  0  0  0  0  0  0  0  0  0  0  0
   58.4460   31.3310   45.8820 C   0  0  0  0  0  0  0  0  0  0  0  0
   58.6180   29.8540   46.1010 C   0  0  0  0  0  0  0  0  0  0  0  0
   56.9621   29.2546   43.3081 H   0  0  0  0  0  0  0  0  0  0  0  0
   55.7201   30.3749   42.6531 H   0  0  0  0  0  0  0  0  0  0  0  0
   57.4513   30.8541   42.6531 H   0  0  0  0  0  0  0  0  0  0  0  0
   56.4582   33.5789   44.2250 H   0  0  0  0  0  0  0  0  0  0  0  0
   58.0751   35.1673   45.2541 H   0  0  0  0  0  0  0  0  0  0  0  0
   59.9920   35.5730   46.6460 H   0  0  0  0  0  0  0  0  0  0  0  0
   62.9064   33.8427   46.2753 H   0  0  0  0  0  0  0  0  0  0  0  0
   65.1314   32.9910   47.7292 H   0  0  0  0  0  0  0  0  0  0  0  0
   66.4312   32.2637   51.2402 H   0  0  0  0  0  0  0  0  0  0  0  0
   66.3971   31.3260   49.7085 H   0  0  0  0  0  0  0  0  0  0  0  0
   66.9794   33.0252   49.7085 H   0  0  0  0  0  0  0  0  0  0  0  0
   62.3214   33.3976   52.8342 H   0  0  0  0  0  0  0  0  0  0  0  0
   61.2463   34.4452   51.8476 H   0  0  0  0  0  0  0  0  0  0  0  0
   61.0116   32.6643   51.8476 H   0  0  0  0  0  0  0  0  0  0  0  0
   60.1856   31.8573   47.0690 H   0  0  0  0  0  0  0  0  0  0  0  0
   58.6425   29.6438   47.1805 H   0  0  0  0  0  0  0  0  0  0  0  0
   57.7766   29.3147   45.6414 H   0  0  0  0  0  0  0  0  0  0  0  0
   59.5608   29.5225   45.6414 H   0  0  0  0  0  0  0  0  0  0  0  0
  1  2  1  0
  2  3  1  0
  3  4  2  0
  4  5  1  0
  5  6  2  0
  6  7  1  0
  7  8  1  0
  8  9  2  0
  9 10  1  0
 10 11  1  0
 11 12  2  0
 12 13  1  0
 12 14  1  0
 14 15  2  0
 15 16  1  0
 15 17  1  0
 17 18  2  0
  6 19  1  0
 19 20  2  0
 20 21  1  0
 20  3  1  0
 18  8  1  0
 17 10  1  0
  1 22  1  0
  1 23  1  0
  1 24  1  0
  4 25  1  0
  5 26  1  0
  7 27  1  0
  9 28  1  0
 11 29  1  0
 13 30  1  0
 13 31  1  0
 13 32  1  0
 16 33  1  0
 16 34  1  0
 16 35  1  0
 19 36  1  0
 21 37  1  0
 21 38  1  0
 21 39  1  0
M  END
>  <UniqueID>  (12) 
11

>  <SMILES>  (12) 
COc1ccc(Nc2cn3cc(C)nc(C)c3n2)cc1C

>  <Energy>  (12) 
78.29383895055493

>  <Genealogy>  (12) 
COc1ccc(Nc2cn3cc(C)nc(C)c3n2)cc1C (3D coordinates assigned)
COc1ccc(Nc2cn3cc(C)nc(C)c3n2)cc1C (optimized conformer: 78.29383895055493 kcal/mol)

>  <smiles>  (12) 
COc1ccc(Nc2cn3cc(C)nc(C)c3n2)cc1C

>  <score_type>  (12) 
oracle

>  <origin>  (12) 
adg

>  <m_score__min__energy>  (12) 
-6.54

>  <m_primary>  (12) 
energy

$$$$
12:0
     RDKit          3D

 39 42  0  0  0  0  0  0  0  0999 V2000
   57.4700   32.0150   44.5940 C   0  0  0  0  0  0  0  0  0  0  0  0
   58.1500   32.9690   43.8320 C   0  0  0  0  0  0  0  0  0  0  0  0
   58.9430   33.9310   44.4620 C   0  0  0  0  0  0  0  0  0  0  0  0
   59.0630   33.9380   45.8570 C   0  0  0  0  0  0  0  0  0  0  0  0
   58.4220   32.9440   46.6260 C   0  0  0  0  0  0  0  0  0  0  0  0
   57.6010   32.0070   45.9860 C   0  0  0  0  0  0  0  0  0  0  0  0
   58.5570   32.8850   48.0560 N   0  0  0  0  0  0  0  0  0  0  0  0
   59.6610   32.9740   48.7530 C   0  0  0  0  0  0  0  0  0  0  0  0
   59.5830   32.9170   50.1930 N   0  0  0  0  0  0  0  0  0  0  0  0
   60.5600   33.6480   51.0120 C   0  0  0  0  0  0  0  0  0  0  0  0
   60.0400   33.8360   52.4430 C   0  0  0  0  0  0  0  0  0  0  0  0
   58.6080   34.1640   52.4200 N   0  0  0  0  0  0  0  0  0  0  0  0
   57.7780   33.0620   51.8870 C   0  0  0  0  0  0  0  0  0  0  0  0
   58.5160   32.1680   50.8690 C   0  0  0  0  0  0  0  0  0  0  0  0
   60.9950   33.0630   48.0960 C   0  0  0  0  0  0  0  0  0  0  0  0
   61.9950   32.1380   48.4390 C   0  0  0  0  0  0  0  0  0  0  0  0
   63.2410   32.1750   47.8050 C   0  0  0  0  0  0  0  0  0  0  0  0
   63.4960   33.1290   46.8190 C   0  0  0  0  0  0  0  0  0  0  0  0
   62.5110   34.0550   46.4680 C   0  0  0  0  0  0  0  0  0  0  0  0
   61.2680   34.0340   47.1120 C   0  0  0  0  0  0  0  0  0  0  0  0
   60.0160   35.2260   46.6540 S   0  0  0  0  0  0  0  0  0  0  0  0
   56.8310   31.2696   44.0981 H   0  0  0  0  0  0  0  0  0  0  0  0
   58.0607   32.9623   42.7357 H   0  0  0  0  0  0  0  0  0  0  0  0
   59.4740   34.6842   43.8613 H   0  0  0  0  0  0  0  0  0  0  0  0
   57.0560   31.2603   46.5821 H   0  0  0  0  0  0  0  0  0  0  0  0
   61.5017   33.0803   51.0423 H   0  0  0  0  0  0  0  0  0  0  0  0
   60.7243   34.6390   50.5638 H   0  0  0  0  0  0  0  0  0  0  0  0
   60.1913   32.9058   53.0104 H   0  0  0  0  0  0  0  0  0  0  0  0
   60.5907   34.6594   52.9213 H   0  0  0  0  0  0  0  0  0  0  0  0
   58.4620   35.0230   51.8390 H   0  0  0  0  0  0  0  0  0  0  0  0
   58.2970   34.3830   53.3960 H   0  0  0  0  0  0  0  0  0  0  0  0
   57.4521   32.4338   52.7291 H   0  0  0  0  0  0  0  0  0  0  0  0
   56.9321   33.5235   51.3565 H   0  0  0  0  0  0  0  0  0  0  0  0
   58.9569   31.3093   51.3965 H   0  0  0  0  0  0  0  0  0  0  0  0
   57.7940   31.8244   50.1136 H   0  0  0  0  0  0  0  0  0  0  0  0
   61.7968   31.3799   49.2110 H   0  0  0  0  0  0  0  0  0  0  0  0
   64.0210   31.4512   48.0839 H   0  0  0  0  0  0  0  0  0  0  0  0
   64.4746   33.1518   46.3172 H   0  0  0  0  0  0  0  0  0  0  0  0
   62.7120   34.8012   45.6852 H   0  0  0  0  0  0  0  0  0  0  0  0
  1  2  2  0
  2  3  1  0
  3  4  2  0
  4  5  1  0
  5  6  2  0
  5  7  1  0
  7  8  2  0
  8  9  1  0
  9 10  1  0
 10 11  1  0
 11 12  1  0
 12 13  1  0
 13 14  1  0
  8 15  1  0
 15 16  2  0
 16 17  1  0
 17 18  2  0
 18 19  1  0
 19 20  2  0
 20 21  1  0
  6  1  1  0
 14  9  1  0
 20 15  1  0
 21  4  1  0
  1 22  1  0
  2 23  1  0
  3 24  1  0
  6 25  1  0
 10 26  1  0
 10 27  1  0
 11 28  1  0
 11 29  1  0
 12 30  1  0
 12 31  1  0
 13 32  1  0
 13 33  1  0
 14 34  1  0
 14 35  1  0
 16 36  1  0
 17 37  1  0
 18 38  1  0
 19 39  1  0
M  CHG  1  12   1
M  END
>  <UniqueID>  (13) 
12

>  <SMILES>  (13) 
c1ccc2c(c1)N=C(N1CC[NH2+]CC1)c1ccccc1S2

>  <Energy>  (13) 
62.90327884113689

>  <Genealogy>  (13) 
c1ccc2c(c1)N=C(N1CC[NH2+]CC1)c1ccccc1S2 (protonated)
c1ccc2c(c1)N=C(N1CC[NH2+]CC1)c1ccccc1S2 (3D coordinates assigned)
c1ccc2c(c1)N=C(N1CC[NH2+]CC1)c1ccccc1S2 (nonaromatic ring conformer: 62.90327884113689 kcal/mol)

>  <smiles>  (13) 
c1ccc2c(c1)N=C(N1CCNCC1)c1ccccc1S2

>  <score_type>  (13) 
oracle

>  <origin>  (13) 
adg

>  <m_score__min__energy>  (13) 
-6.4900000000000002

>  <m_primary>  (13) 
energy

$$$$
13:0
     RDKit          3D

 49 53  0  0  0  0  0  0  0  0999 V2000
   60.7570   27.3870   45.6620 F   0  0  0  0  0  0  0  0  0  0  0  0
   59.4820   27.8170   45.5000 C   0  0  0  0  0  0  0  0  0  0  0  0
   58.4210   27.1200   46.1200 C   0  0  0  0  0  0  0  0  0  0  0  0
   57.0930   27.5570   45.9650 C   0  0  0  0  0  0  0  0  0  0  0  0
   56.8660   28.6870   45.1810 C   0  0  0  0  0  0  0  0  0  0  0  0
   55.6860   29.2770   44.9220 N   0  0  0  0  0  0  0  0  0  0  0  0
   55.9650   30.3460   44.1410 C   0  0  0  0  0  0  0  0  0  0  0  0
   57.3330   30.4220   43.8940 C   0  0  0  0  0  0  0  0  0  0  0  0
   58.0460   31.4990   43.1350 C   0  0  0  0  0  0  0  0  0  0  0  0
   57.6340   32.8830   43.6460 C   0  0  0  0  0  0  0  0  0  0  0  0
   58.2790   33.1610   44.9470 N   0  0  0  0  0  0  0  0  0  0  0  0
   57.2880   33.2410   46.0370 C   0  0  0  0  0  0  0  0  0  0  0  0
   58.0200   33.1830   47.3800 C   0  0  0  0  0  0  0  0  0  0  0  0
   59.2890   33.9170   47.3110 N   0  0  0  0  0  0  0  0  0  0  0  0
   60.2160   33.8160   48.4010 C   0  0  0  0  0  0  0  0  0  0  0  0
   59.8180   33.9460   49.6960 N   0  0  0  0  0  0  0  0  0  0  0  0
   61.1760   33.7780   50.6450 S   0  0  0  0  0  0  0  0  0  0  0  0
   62.2900   33.5230   49.4330 C   0  0  0  0  0  0  0  0  0  0  0  0
   63.6570   33.2790   49.5080 C   0  0  0  0  0  0  0  0  0  0  0  0
   64.3500   33.0640   48.3070 C   0  0  0  0  0  0  0  0  0  0  0  0
   63.6660   33.0880   47.0750 C   0  0  0  0  0  0  0  0  0  0  0  0
   62.2820   33.3350   47.0300 C   0  0  0  0  0  0  0  0  0  0  0  0
   61.5990   33.5670   48.2300 C   0  0  0  0  0  0  0  0  0  0  0  0
   59.4810   34.9380   46.2750 C   0  0  0  0  0  0  0  0  0  0  0  0
   59.0800   34.4060   44.8820 C   0  0  0  0  0  0  0  0  0  0  0  0
   57.8950   29.3610   44.5760 C   0  0  0  0  0  0  0  0  0  0  0  0
   59.2230   28.9560   44.7160 C   0  0  0  0  0  0  0  0  0  0  0  0
   58.6350   26.2290   46.7285 H   0  0  0  0  0  0  0  0  0  0  0  0
   56.2602   27.0240   46.4471 H   0  0  0  0  0  0  0  0  0  0  0  0
   54.7440   28.9830   45.2650 H   0  0  0  0  0  0  0  0  0  0  0  0
   55.2170   31.0546   43.7558 H   0  0  0  0  0  0  0  0  0  0  0  0
   59.1312   31.3744   43.2644 H   0  0  0  0  0  0  0  0  0  0  0  0
   57.7776   31.4198   42.0712 H   0  0  0  0  0  0  0  0  0  0  0  0
   57.9434   33.6463   42.9168 H   0  0  0  0  0  0  0  0  0  0  0  0
   56.5419   32.9069   43.7750 H   0  0  0  0  0  0  0  0  0  0  0  0
   56.7312   34.1866   45.9608 H   0  0  0  0  0  0  0  0  0  0  0  0
   56.5828   32.4002   45.9611 H   0  0  0  0  0  0  0  0  0  0  0  0
   57.3846   33.6325   48.1573 H   0  0  0  0  0  0  0  0  0  0  0  0
   58.2324   32.1312   47.6220 H   0  0  0  0  0  0  0  0  0  0  0  0
   58.8480   34.1350   50.0330 H   0  0  0  0  0  0  0  0  0  0  0  0
   64.1777   33.2553   50.4766 H   0  0  0  0  0  0  0  0  0  0  0  0
   65.4336   32.8756   48.3272 H   0  0  0  0  0  0  0  0  0  0  0  0
   64.2192   32.9121   46.1406 H   0  0  0  0  0  0  0  0  0  0  0  0
   61.7460   33.3457   46.0695 H   0  0  0  0  0  0  0  0  0  0  0  0
   58.8611   35.8141   46.5161 H   0  0  0  0  0  0  0  0  0  0  0  0
   60.5464   35.2104   46.2492 H   0  0  0  0  0  0  0  0  0  0  0  0
   58.4874   35.1779   44.3691 H   0  0  0  0  0  0  0  0  0  0  0  0
   60.0077   34.1728   44.3390 H   0  0  0  0  0  0  0  0  0  0  0  0
   60.0401   29.5089   44.2295 H   0  0  0  0  0  0  0  0  0  0  0  0
  1  2  1  0
  2  3  2  0
  3  4  1  0
  4  5  2  0
  5  6  1  0
  6  7  1  0
  7  8  2  0
  8  9  1  0
  9 10  1  0
 10 11  1  0
 11 12  1  0
 12 13  1  0
 13 14  1  0
 14 15  1  0
 15 16  2  0
 16 17  1  0
 17 18  1  0
 18 19  2  0
 19 20  1  0
 20 21  2  0
 21 22  1  0
 22 23  2  0
 14 24  1  0
 24 25  1  0
  8 26  1  0
 26 27  2  0
 27  2  1  0
 26  5  1  0
 25 11  1  0
 23 15  1  0
 23 18  1  0
  3 28  1  0
  4 29  1  0
  6 30  1  0
  7 31  1  0
  9 32  1  0
  9 33  1  0
 10 34  1  0
 10 35  1  0
 12 36  1  0
 12 37  1  0
 13 38  1  0
 13 39  1  0
 16 40  1  0
 19 41  1  0
 20 42  1  0
 21 43  1  0
 22 44  1  0
 24 45  1  0
 24 46  1  0
 25 47  1  0
 25 48  1  0
 27 49  1  0
M  CHG  1  16   1
M  END
>  <UniqueID>  (14) 
13

>  <SMILES>  (14) 
Fc1ccc2[nH]cc(CCN3CCN(c4[nH+]sc5ccccc45)CC3)c2c1

>  <Energy>  (14) 
132.99191322622062

>  <Genealogy>  (14) 
Fc1ccc2[nH]cc(CCN3CCN(c4[nH+]sc5ccccc45)CC3)c2c1 (protonated)
Fc1ccc2[nH]cc(CCN3CCN(c4[nH+]sc5ccccc45)CC3)c2c1 (3D coordinates assigned)
Fc1ccc2[nH]cc(CCN3CCN(c4[nH+]sc5ccccc45)CC3)c2c1 (nonaromatic ring conformer: 132.99191322622062 kcal/mol)

>  <smiles>  (14) 
Fc1ccc2[nH]cc(CCN3CCN(c4nsc5ccccc45)CC3)c2c1

>  <score_type>  (14) 
oracle

>  <origin>  (14) 
adg

>  <m_score__min__energy>  (14) 
-8.7699999999999996

>  <m_primary>  (14) 
energy

$$$$
14:0
     RDKit          3D

 68 71  0  0  0  0  0  0  0  0999 V2000
   57.0790   34.3620   45.3060 C   0  0  0  0  0  0  0  0  0  0  0  0
   58.4130   33.9430   45.8500 C   0  0  0  0  0  0  0  0  0  0  0  0
   59.2510   34.8830   46.4710 C   0  0  0  0  0  0  0  0  0  0  0  0
   60.4690   34.4840   47.0320 C   0  0  0  0  0  0  0  0  0  0  0  0
   60.8520   33.1350   46.9970 C   0  0  0  0  0  0  0  0  0  0  0  0
   62.3560   32.6050   47.7470 S   0  0  0  0  0  0  0  0  0  0  0  0
   63.3890   33.6950   47.6310 O   0  0  0  0  0  0  0  0  0  0  0  0
   62.8520   31.3780   47.0340 O   0  0  0  0  0  0  0  0  0  0  0  0
   62.0460   32.2260   49.4210 N   0  0  0  0  0  0  0  0  0  0  0  0
   62.4160   33.3320   50.3140 C   0  0  0  0  0  0  0  0  0  0  0  0
   61.2300   33.8050   51.1650 C   0  0  0  0  0  0  0  0  0  0  0  0
   59.9080   33.8040   50.3610 C   0  0  0  0  0  0  0  0  0  0  0  0
   59.0710   32.6010   50.5770 N   0  0  0  0  0  0  0  0  0  0  0  0
   58.4800   32.0310   49.3440 C   0  0  0  0  0  0  0  0  0  0  0  0
   59.1810   30.7290   48.9320 C   0  0  0  0  0  0  0  0  0  0  0  0
   59.0750   29.6890   49.9810 N   0  0  0  0  0  0  0  0  0  0  0  0
   60.1470   28.6800   49.8180 C   0  0  0  0  0  0  0  0  0  0  0  0
   60.3280   28.2770   48.3470 C   0  0  0  0  0  0  0  0  0  0  0  0
   60.2350   26.7580   48.1440 C   0  0  0  0  0  0  0  0  0  0  0  0
   59.6140   26.4540   46.8540 N   0  0  0  0  0  0  0  0  0  0  0  0
   58.3890   26.7170   46.4780 C   0  0  0  0  0  0  0  0  0  0  0  0
   57.2990   25.9070   46.8640 C   0  0  0  0  0  0  0  0  0  0  0  0
   56.0140   26.2090   46.4180 C   0  0  0  0  0  0  0  0  0  0  0  0
   55.8000   27.2840   45.6190 N   0  0  0  0  0  0  0  0  0  0  0  0
   56.8130   28.1010   45.2320 C   0  0  0  0  0  0  0  0  0  0  0  0
   56.5390   29.2010   44.4100 C   0  0  0  0  0  0  0  0  0  0  0  0
   57.5700   30.0510   44.0050 C   0  0  0  0  0  0  0  0  0  0  0  0
   57.2210   31.4250   42.9700 Cl  0  0  0  0  0  0  0  0  0  0  0  0
   58.8830   29.8020   44.4160 C   0  0  0  0  0  0  0  0  0  0  0  0
   59.1690   28.7060   45.2350 C   0  0  0  0  0  0  0  0  0  0  0  0
   58.1390   27.8410   45.6550 C   0  0  0  0  0  0  0  0  0  0  0  0
   59.0150   30.2380   51.3610 C   0  0  0  0  0  0  0  0  0  0  0  0
   59.6960   31.6080   51.4800 C   0  0  0  0  0  0  0  0  0  0  0  0
   60.0170   32.1960   46.3780 C   0  0  0  0  0  0  0  0  0  0  0  0
   58.8010   32.5960   45.8120 C   0  0  0  0  0  0  0  0  0  0  0  0
   56.3942   34.5771   46.1396 H   0  0  0  0  0  0  0  0  0  0  0  0
   57.2015   35.2649   44.6898 H   0  0  0  0  0  0  0  0  0  0  0  0
   56.6632   33.5512   44.6898 H   0  0  0  0  0  0  0  0  0  0  0  0
   58.9481   35.9395   46.5167 H   0  0  0  0  0  0  0  0  0  0  0  0
   61.1276   35.2296   47.5014 H   0  0  0  0  0  0  0  0  0  0  0  0
   61.0120   32.0860   49.5120 H   0  0  0  0  0  0  0  0  0  0  0  0
   63.2209   32.9940   50.9832 H   0  0  0  0  0  0  0  0  0  0  0  0
   62.7451   34.1765   49.6907 H   0  0  0  0  0  0  0  0  0  0  0  0
   61.1215   33.1330   52.0291 H   0  0  0  0  0  0  0  0  0  0  0  0
   61.4320   34.8367   51.4888 H   0  0  0  0  0  0  0  0  0  0  0  0
   59.3241   34.6887   50.6548 H   0  0  0  0  0  0  0  0  0  0  0  0
   60.1837   33.8122   49.2962 H   0  0  0  0  0  0  0  0  0  0  0  0
   57.4148   31.8222   49.5220 H   0  0  0  0  0  0  0  0  0  0  0  0
   58.6062   32.7620   48.5318 H   0  0  0  0  0  0  0  0  0  0  0  0
   58.7166   30.3517   48.0090 H   0  0  0  0  0  0  0  0  0  0  0  0
   60.2474   30.9501   48.7776 H   0  0  0  0  0  0  0  0  0  0  0  0
   61.0923   29.1006   50.1914 H   0  0  0  0  0  0  0  0  0  0  0  0
   59.8631   27.7826   50.3872 H   0  0  0  0  0  0  0  0  0  0  0  0
   59.5437   28.7627   47.7479 H   0  0  0  0  0  0  0  0  0  0  0  0
   61.3314   28.5982   48.0308 H   0  0  0  0  0  0  0  0  0  0  0  0
   61.2463   26.3260   48.1705 H   0  0  0  0  0  0  0  0  0  0  0  0
   59.6194   26.3271   48.9474 H   0  0  0  0  0  0  0  0  0  0  0  0
   57.4642   25.0373   47.5170 H   0  0  0  0  0  0  0  0  0  0  0  0
   55.1681   25.5719   46.7156 H   0  0  0  0  0  0  0  0  0  0  0  0
   55.5073   29.3962   44.0820 H   0  0  0  0  0  0  0  0  0  0  0  0
   59.6942   30.4713   44.0935 H   0  0  0  0  0  0  0  0  0  0  0  0
   60.2048   28.5175   45.5537 H   0  0  0  0  0  0  0  0  0  0  0  0
   57.9597   30.3423   51.6533 H   0  0  0  0  0  0  0  0  0  0  0  0
   59.5512   29.5404   52.0212 H   0  0  0  0  0  0  0  0  0  0  0  0
   59.6084   31.9625   52.5176 H   0  0  0  0  0  0  0  0  0  0  0  0
   60.7523   31.4961   51.1942 H   0  0  0  0  0  0  0  0  0  0  0  0
   60.3185   31.1389   46.3365 H   0  0  0  0  0  0  0  0  0  0  0  0
   58.1471   31.8508   45.3355 H   0  0  0  0  0  0  0  0  0  0  0  0
  1  2  1  0
  2  3  2  0
  3  4  1  0
  4  5  2  0
  5  6  1  0
  6  7  2  0
  6  8  2  0
  6  9  1  0
  9 10  1  0
 10 11  1  0
 11 12  1  0
 12 13  1  0
 13 14  1  0
 14 15  1  0
 15 16  1  0
 16 17  1  0
 17 18  1  0
 18 19  1  0
 19 20  1  0
 20 21  2  3
 21 22  1  0
 22 23  2  0
 23 24  1  0
 24 25  1  0
 25 26  2  0
 26 27  1  0
 27 28  1  0
 27 29  2  0
 29 30  1  0
 30 31  2  0
 16 32  1  0
 32 33  1  0
  5 34  1  0
 34 35  2  0
 35  2  1  0
 33 13  1  0
 31 21  1  0
 31 25  1  0
  1 36  1  0
  1 37  1  0
  1 38  1  0
  3 39  1  0
  4 40  1  0
  9 41  1  0
 10 42  1  0
 10 43  1  0
 11 44  1  0
 11 45  1  0
 12 46  1  0
 12 47  1  0
 14 48  1  0
 14 49  1  0
 15 50  1  0
 15 51  1  0
 17 52  1  0
 17 53  1  0
 18 54  1  0
 18 55  1  0
 19 56  1  0
 19 57  1  0
 22 58  1  0
 23 59  1  0
 26 60  1  0
 29 61  1  0
 30 62  1  0
 32 63  1  0
 32 64  1  0
 33 65  1  0
 33 66  1  0
 34 67  1  0
 35 68  1  0
M  CHG  1  24  -1
M  END
>  <UniqueID>  (15) 
14

>  <SMILES>  (15) 
Cc1ccc(S(=O)(=O)NCCCN2CCN(CCCN=c3cc[n-]c4cc(Cl)ccc34)CC2)cc1

>  <Energy>  (15) 
86.82310386005844

>  <Genealogy>  (15) 
Cc1ccc(S(=O)(=O)NCCCN2CCN(CCCN=c3cc[n-]c4cc(Cl)ccc34)CC2)cc1 (protonated)
Cc1ccc(S(=O)(=O)NCCCN2CCN(CCCN=c3cc[n-]c4cc(Cl)ccc34)CC2)cc1 (3D coordinates assigned)
Cc1ccc(S(=O)(=O)NCCCN2CCN(CCCN=c3cc[n-]c4cc(Cl)ccc34)CC2)cc1 (nonaromatic ring conformer: 86.82310386005844 kcal/mol)

>  <smiles>  (15) 
Cc1ccc(S(=O)(=O)NCCCN2CCN(CCCN=c3cc[nH]c4cc(Cl)ccc34)CC2)cc1

>  <score_type>  (15) 
oracle

>  <origin>  (15) 
adg

>  <m_score__min__energy>  (15) 
-11.359999999999999

>  <m_primary>  (15) 
energy

$$$$
15:0
     RDKit          3D

 30 32  0  0  0  0  0  0  0  0999 V2000
   58.0400   32.6950   43.3510 C   0  0  0  0  0  0  0  0  0  0  0  0
   58.5270   33.1490   44.7030 C   0  0  0  0  0  0  0  0  0  0  0  0
   58.8390   34.5080   44.8820 C   0  0  0  0  0  0  0  0  0  0  0  0
   59.3360   34.9690   46.1030 C   0  0  0  0  0  0  0  0  0  0  0  0
   59.6440   36.2800   46.2580 F   0  0  0  0  0  0  0  0  0  0  0  0
   59.5260   34.0800   47.1600 C   0  0  0  0  0  0  0  0  0  0  0  0
   59.2020   32.7310   47.0080 C   0  0  0  0  0  0  0  0  0  0  0  0
   58.6770   32.2540   45.7940 C   0  0  0  0  0  0  0  0  0  0  0  0
   58.3250   30.8210   45.7030 C   0  0  0  0  0  0  0  0  0  0  0  0
   59.2510   29.8550   45.9650 N   0  0  0  0  0  0  0  0  0  0  0  0
   58.9160   28.5390   45.8780 C   0  0  0  0  0  0  0  0  0  0  0  0
   59.8600   27.5380   46.1530 C   0  0  0  0  0  0  0  0  0  0  0  0
   59.5000   26.1890   46.0600 C   0  0  0  0  0  0  0  0  0  0  0  0
   58.2000   25.8330   45.6890 C   0  0  0  0  0  0  0  0  0  0  0  0
   57.2520   26.8220   45.4100 C   0  0  0  0  0  0  0  0  0  0  0  0
   57.6060   28.1790   45.5020 C   0  0  0  0  0  0  0  0  0  0  0  0
   56.7040   29.2170   45.2270 C   0  0  0  0  0  0  0  0  0  0  0  0
   55.5190   28.9670   44.8770 O   0  0  0  0  0  0  0  0  0  0  0  0
   57.0940   30.4820   45.3340 O   0  0  0  0  0  0  0  0  0  0  0  0
   57.2410   31.9501   43.4802 H   0  0  0  0  0  0  0  0  0  0  0  0
   57.6493   33.5587   42.7930 H   0  0  0  0  0  0  0  0  0  0  0  0
   58.8742   32.2448   42.7930 H   0  0  0  0  0  0  0  0  0  0  0  0
   58.6903   35.2150   44.0525 H   0  0  0  0  0  0  0  0  0  0  0  0
   59.9321   34.4426   48.1158 H   0  0  0  0  0  0  0  0  0  0  0  0
   59.3587   32.0349   47.8452 H   0  0  0  0  0  0  0  0  0  0  0  0
   60.2310   30.1260   46.2080 H   0  0  0  0  0  0  0  0  0  0  0  0
   60.8848   27.8142   46.4422 H   0  0  0  0  0  0  0  0  0  0  0  0
   60.2417   25.4068   46.2793 H   0  0  0  0  0  0  0  0  0  0  0  0
   57.9220   24.7712   45.6163 H   0  0  0  0  0  0  0  0  0  0  0  0
   56.2299   26.5383   45.1187 H   0  0  0  0  0  0  0  0  0  0  0  0
  1  2  1  0
  2  3  2  0
  3  4  1  0
  4  5  1  0
  4  6  2  0
  6  7  1  0
  7  8  2  0
  8  9  1  0
  9 10  2  0
 10 11  1  0
 11 12  2  0
 12 13  1  0
 13 14  2  0
 14 15  1  0
 15 16  2  0
 16 17  1  0
 17 18  2  0
 17 19  1  0
  8  2  1  0
 19  9  1  0
 16 11  1  0
  1 20  1  0
  1 21  1  0
  1 22  1  0
  3 23  1  0
  6 24  1  0
  7 25  1  0
 10 26  1  0
 12 27  1  0
 13 28  1  0
 14 29  1  0
 15 30  1  0
M  CHG  1  10   1
M  END
>  <UniqueID>  (16) 
15

>  <SMILES>  (16) 
Cc1cc(F)ccc1-c1[nH+]c2ccccc2c(=O)o1

>  <Energy>  (16) 
44.17480886242592

>  <Genealogy>  (16) 
Cc1cc(F)ccc1-c1[nH+]c2ccccc2c(=O)o1 (protonated)
Cc1cc(F)ccc1-c1[nH+]c2ccccc2c(=O)o1 (3D coordinates assigned)
Cc1cc(F)ccc1-c1[nH+]c2ccccc2c(=O)o1 (optimized conformer: 44.17480886242592 kcal/mol)

>  <smiles>  (16) 
Cc1cc(F)ccc1-c1nc2ccccc2c(=O)o1

>  <score_type>  (16) 
oracle

>  <origin>  (16) 
adg

>  <m_score__min__energy>  (16) 
-5.8799999999999999

>  <m_primary>  (16) 
energy

$$$$
16:0
     RDKit          3D

 38 39  0  0  0  0  0  0  0  0999 V2000
   53.6280   23.8130   44.7480 C   0  0  0  0  0  0  0  0  0  0  0  0
   54.6270   24.6200   45.5080 C   0  0  0  0  0  0  0  0  0  0  0  0
   55.7730   24.1430   46.1050 C   0  0  0  0  0  0  0  0  0  0  0  0
   56.3480   25.2790   46.6380 C   0  0  0  0  0  0  0  0  0  0  0  0
   57.6650   25.3500   47.3460 C   0  0  0  0  0  0  0  0  0  0  0  0
   58.4560   26.4910   46.8650 N   0  0  0  0  0  0  0  0  0  0  0  0
   59.1810   26.1910   45.6150 C   0  0  0  0  0  0  0  0  0  0  0  0
   58.4600   26.8510   44.4310 C   0  0  0  0  0  0  0  0  0  0  0  0
   57.2810   27.6290   44.8530 N   0  0  0  0  0  0  0  0  0  0  0  0
   57.3450   29.0050   44.3980 C   0  0  0  0  0  0  0  0  0  0  0  0
   56.6550   29.3670   43.2220 C   0  0  0  0  0  0  0  0  0  0  0  0
   56.6770   30.6800   42.7530 C   0  0  0  0  0  0  0  0  0  0  0  0
   57.3940   31.6550   43.4430 C   0  0  0  0  0  0  0  0  0  0  0  0
   58.0990   31.3190   44.6000 C   0  0  0  0  0  0  0  0  0  0  0  0
   58.0880   30.0010   45.0910 C   0  0  0  0  0  0  0  0  0  0  0  0
   58.9000   29.6840   46.3200 C   0  0  0  0  0  0  0  0  0  0  0  0
   55.5880   26.3540   46.3520 N   0  0  0  0  0  0  0  0  0  0  0  0
   54.5640   25.9190   45.6770 O   0  0  0  0  0  0  0  0  0  0  0  0
   52.9717   23.2828   45.4538 H   0  0  0  0  0  0  0  0  0  0  0  0
   53.0236   24.4793   44.1150 H   0  0  0  0  0  0  0  0  0  0  0  0
   54.1524   23.0820   44.1150 H   0  0  0  0  0  0  0  0  0  0  0  0
   56.1410   23.1072   46.1469 H   0  0  0  0  0  0  0  0  0  0  0  0
   57.4882   25.4636   48.4257 H   0  0  0  0  0  0  0  0  0  0  0  0
   58.2237   24.4241   47.1444 H   0  0  0  0  0  0  0  0  0  0  0  0
   59.1610   26.7140   47.6060 H   0  0  0  0  0  0  0  0  0  0  0  0
   60.2067   26.5826   45.6836 H   0  0  0  0  0  0  0  0  0  0  0  0
   59.2123   25.1020   45.4629 H   0  0  0  0  0  0  0  0  0  0  0  0
   59.1635   27.5250   43.9204 H   0  0  0  0  0  0  0  0  0  0  0  0
   58.1112   26.0501   43.7624 H   0  0  0  0  0  0  0  0  0  0  0  0
   57.2540   27.6350   45.8990 H   0  0  0  0  0  0  0  0  0  0  0  0
   56.4110   27.1440   44.5430 H   0  0  0  0  0  0  0  0  0  0  0  0
   56.0915   28.6025   42.6670 H   0  0  0  0  0  0  0  0  0  0  0  0
   56.1279   30.9461   41.8377 H   0  0  0  0  0  0  0  0  0  0  0  0
   57.4046   32.6917   43.0754 H   0  0  0  0  0  0  0  0  0  0  0  0
   58.6694   32.0935   45.1336 H   0  0  0  0  0  0  0  0  0  0  0  0
   58.3096   29.9145   47.2191 H   0  0  0  0  0  0  0  0  0  0  0  0
   59.1650   28.6164   46.3191 H   0  0  0  0  0  0  0  0  0  0  0  0
   59.8182   30.2897   46.3191 H   0  0  0  0  0  0  0  0  0  0  0  0
  1  2  1  0
  2  3  2  0
  3  4  1  0
  4  5  1  0
  5  6  1  0
  6  7  1  0
  7  8  1  0
  8  9  1  0
  9 10  1  0
 10 11  2  0
 11 12  1  0
 12 13  2  0
 13 14  1  0
 14 15  2  0
 15 16  1  0
  4 17  2  0
 17 18  1  0
 18  2  1  0
 15 10  1  0
  1 19  1  0
  1 20  1  0
  1 21  1  0
  3 22  1  0
  5 23  1  0
  5 24  1  0
  6 25  1  0
  7 26  1  0
  7 27  1  0
  8 28  1  0
  8 29  1  0
  9 30  1  0
  9 31  1  0
 11 32  1  0
 12 33  1  0
 13 34  1  0
 14 35  1  0
 16 36  1  0
 16 37  1  0
 16 38  1  0
M  CHG  1   9   1
M  END
>  <UniqueID>  (17) 
16

>  <SMILES>  (17) 
Cc1cc(CNCC[NH2+]c2ccccc2C)no1

>  <Energy>  (17) 
67.52987815203754

>  <Genealogy>  (17) 
Cc1cc(CNCC[NH2+]c2ccccc2C)no1 (protonated)
Cc1cc(CNCC[NH2+]c2ccccc2C)no1 (3D coordinates assigned)
Cc1cc(CNCC[NH2+]c2ccccc2C)no1 (optimized conformer: 67.52987815203754 kcal/mol)

>  <smiles>  (17) 
Cc1cc(CNCCNc2ccccc2C)no1

>  <score_type>  (17) 
oracle

>  <origin>  (17) 
adg

>  <m_score__min__energy>  (17) 
-4.7400000000000002

>  <m_primary>  (17) 
energy

$$$$
17:0
     RDKit          3D

 33 34  0  0  0  0  0  0  0  0999 V2000
   55.1660   26.7250   46.0000 O   0  0  0  0  0  0  0  0  0  0  0  0
   55.9320   25.7360   46.1510 C   0  0  0  0  0  0  0  0  0  0  0  0
   57.4080   25.9050   45.9750 C   0  0  0  0  0  0  0  0  0  0  0  0
   57.8210   26.3520   44.2500 S   0  0  0  0  0  0  0  0  0  0  0  0
   57.7930   28.1260   44.5330 C   0  0  0  0  0  0  0  0  0  0  0  0
   57.0700   28.9610   43.6730 C   0  0  0  0  0  0  0  0  0  0  0  0
   57.0510   30.3420   43.8870 C   0  0  0  0  0  0  0  0  0  0  0  0
   57.7610   30.8930   44.9590 C   0  0  0  0  0  0  0  0  0  0  0  0
   58.4920   30.0620   45.8170 C   0  0  0  0  0  0  0  0  0  0  0  0
   59.4620   30.8130   47.2780 Br  0  0  0  0  0  0  0  0  0  0  0  0
   58.5090   28.6780   45.6010 C   0  0  0  0  0  0  0  0  0  0  0  0
   55.4010   24.4560   46.4990 N   0  0  0  0  0  0  0  0  0  0  0  0
   54.5800   23.6640   45.5940 C   0  0  0  0  0  0  0  0  0  0  0  0
   55.0230   22.2020   45.6350 C   0  0  0  0  0  0  0  0  0  0  0  0
   56.4240   22.0740   45.2170 N   0  0  0  0  0  0  0  0  0  0  0  0
   57.4940   22.2550   46.0470 C   0  0  0  0  0  0  0  0  0  0  0  0
   57.3450   22.5370   47.4030 O   0  0  0  0  0  0  0  0  0  0  0  0
   58.7420   22.1480   45.4350 C   0  0  0  0  0  0  0  0  0  0  0  0
   58.4940   21.8280   43.7990 S   0  0  0  0  0  0  0  0  0  0  0  0
   56.8210   21.8390   43.9440 C   0  0  0  0  0  0  0  0  0  0  0  0
   56.0270   21.6610   42.9820 O   0  0  0  0  0  0  0  0  0  0  0  0
   57.7606   26.7018   46.6465 H   0  0  0  0  0  0  0  0  0  0  0  0
   57.8992   24.9504   46.2148 H   0  0  0  0  0  0  0  0  0  0  0  0
   56.5155   28.5292   42.8268 H   0  0  0  0  0  0  0  0  0  0  0  0
   56.4779   30.9954   43.2127 H   0  0  0  0  0  0  0  0  0  0  0  0
   57.7451   31.9798   45.1281 H   0  0  0  0  0  0  0  0  0  0  0  0
   59.0859   28.0244   46.2718 H   0  0  0  0  0  0  0  0  0  0  0  0
   53.5262   23.7346   45.9013 H   0  0  0  0  0  0  0  0  0  0  0  0
   54.6952   24.0488   44.5700 H   0  0  0  0  0  0  0  0  0  0  0  0
   54.9158   21.8206   46.6612 H   0  0  0  0  0  0  0  0  0  0  0  0
   54.3930   21.6215   44.9450 H   0  0  0  0  0  0  0  0  0  0  0  0
   56.6390   23.1860   47.7270 H   0  0  0  0  0  0  0  0  0  0  0  0
   59.7173   22.2538   45.9325 H   0  0  0  0  0  0  0  0  0  0  0  0
  1  2  2  0
  2  3  1  0
  3  4  1  0
  4  5  1  0
  5  6  2  0
  6  7  1  0
  7  8  2  0
  8  9  1  0
  9 10  1  0
  9 11  2  0
  2 12  1  0
 12 13  1  0
 13 14  1  0
 14 15  1  0
 15 16  1  0
 16 17  1  0
 16 18  2  0
 18 19  1  0
 19 20  1  0
 20 21  2  0
 11  5  1  0
 20 15  1  0
  3 22  1  0
  3 23  1  0
  6 24  1  0
  7 25  1  0
  8 26  1  0
 11 27  1  0
 13 28  1  0
 13 29  1  0
 14 30  1  0
 14 31  1  0
 17 32  1  0
 18 33  1  0
M  CHG  1  12  -1
M  END
>  <UniqueID>  (18) 
17

>  <SMILES>  (18) 
O=C(CSc1cccc(Br)c1)[N-]CCn1c(O)csc1=O

>  <Energy>  (18) 
51.25564516415324

>  <Genealogy>  (18) 
O=C(CSc1cccc(Br)c1)[N-]CCn1c(O)csc1=O (protonated)
O=C(CSc1cccc(Br)c1)[N-]CCn1c(O)csc1=O (3D coordinates assigned)
O=C(CSc1cccc(Br)c1)[N-]CCn1c(O)csc1=O (optimized conformer: 51.25564516415324 kcal/mol)

>  <smiles>  (18) 
O=C(CSc1cccc(Br)c1)NCCn1c(O)csc1=O

>  <score_type>  (18) 
oracle

>  <origin>  (18) 
adg

>  <m_score__min__energy>  (18) 
-10.52

>  <m_primary>  (18) 
energy

$$$$
18:0
     RDKit          3D

 35 37  0  0  0  0  0  0  0  0999 V2000
   54.5135   30.4665   43.9696 H   0  0  0  0  0  0  0  0  0  0  0  0
   55.4580   30.1180   44.4130 C   0  0  0  0  0  0  0  0  0  0  0  0
   55.5580   28.8490   44.8800 N   0  0  0  0  0  0  0  0  0  0  0  0
   56.6880   28.3930   45.4790 C   0  0  0  0  0  0  0  0  0  0  0  0
   56.7030   27.0930   45.9980 C   0  0  0  0  0  0  0  0  0  0  0  0
   55.8422   26.4279   45.8345 H   0  0  0  0  0  0  0  0  0  0  0  0
   57.8040   26.6380   46.7210 C   0  0  0  0  0  0  0  0  0  0  0  0
   57.8246   25.6062   47.1018 H   0  0  0  0  0  0  0  0  0  0  0  0
   58.8790   27.4920   46.9610 C   0  0  0  0  0  0  0  0  0  0  0  0
   59.7298   27.1438   47.5650 H   0  0  0  0  0  0  0  0  0  0  0  0
   58.8820   28.7870   46.4390 C   0  0  0  0  0  0  0  0  0  0  0  0
   59.7195   29.4627   46.6672 H   0  0  0  0  0  0  0  0  0  0  0  0
   57.8210   29.2410   45.6200 C   0  0  0  0  0  0  0  0  0  0  0  0
   57.7680   30.5390   45.0190 C   0  0  0  0  0  0  0  0  0  0  0  0
   58.7860   31.3490   44.8750 N   0  0  0  0  0  0  0  0  0  0  0  0
   59.2140   32.4480   45.6900 C   0  0  0  0  0  0  0  0  0  0  0  0
   58.5100   33.6630   45.6860 C   0  0  0  0  0  0  0  0  0  0  0  0
   57.6508   33.7976   45.0124 H   0  0  0  0  0  0  0  0  0  0  0  0
   58.8990   34.7010   46.5360 C   0  0  0  0  0  0  0  0  0  0  0  0
   58.3550   35.6569   46.5193 H   0  0  0  0  0  0  0  0  0  0  0  0
   59.9770   34.5280   47.4070 C   0  0  0  0  0  0  0  0  0  0  0  0
   60.2778   35.3484   48.0752 H   0  0  0  0  0  0  0  0  0  0  0  0
   60.6800   33.3100   47.4340 C   0  0  0  0  0  0  0  0  0  0  0  0
   61.7680   33.0910   48.3490 N   0  0  0  0  0  0  0  0  0  0  0  0
   61.5370   32.7920   49.3240 H   0  0  0  0  0  0  0  0  0  0  0  0
   63.1540   33.1450   47.9790 C   0  0  0  0  0  0  0  0  0  0  0  0
   63.4970   33.1480   46.7660 O   0  0  0  0  0  0  0  0  0  0  0  0
   64.2080   33.0960   49.0360 C   0  0  0  0  0  0  0  0  0  0  0  0
   63.7336   33.1181   50.0282 H   0  0  0  0  0  0  0  0  0  0  0  0
   64.7917   32.1698   48.9292 H   0  0  0  0  0  0  0  0  0  0  0  0
   64.8751   33.9641   48.9292 H   0  0  0  0  0  0  0  0  0  0  0  0
   60.2680   32.2640   46.5920 C   0  0  0  0  0  0  0  0  0  0  0  0
   60.7786   31.2910   46.6421 H   0  0  0  0  0  0  0  0  0  0  0  0
   56.5460   30.9800   44.4930 C   0  0  0  0  0  0  0  0  0  0  0  0
   56.4468   32.0172   44.1404 H   0  0  0  0  0  0  0  0  0  0  0  0
  1  2  1  0
  2  3  1  0
  3  4  1  0
  4  5  2  0
  5  6  1  0
  5  7  1  0
  7  8  1  0
  7  9  2  0
  9 10  1  0
  9 11  1  0
 11 12  1  0
 11 13  2  0
 13 14  1  0
 14 15  2  0
 15 16  1  0
 16 17  2  0
 17 18  1  0
 17 19  1  0
 19 20  1  0
 19 21  2  0
 21 22  1  0
 21 23  1  0
 23 24  1  0
 24 25  1  0
 24 26  1  0
 26 27  2  0
 26 28  1  0
 28 29  1  0
 28 30  1  0
 28 31  1  0
 23 32  2  0
 32 33  1  0
 14 34  1  0
 34 35  1  0
 34  2  2  0
 13  4  1  0
 32 16  1  0
M  CHG  1   3  -1
M  END
>  <UniqueID>  (19) 
18

>  <SMILES>  (19) 
CC(=O)Nc1cccc(/N=c2/cc[n-]c3ccccc23)c1

>  <Energy>  (19) 
62.62173589508586

>  <Genealogy>  (19) 
CC(=O)Nc1cccc(N=c2cc[n-]c3ccccc23)c1 (protonated)
CC(=O)Nc1cccc(/N=c2/cc[n-]c3ccccc23)c1 (cis-trans isomerization)
CC(=O)Nc1cccc(/N=c2/cc[n-]c3ccccc23)c1 (3D coordinates assigned)
CC(=O)Nc1cccc(/N=c2/cc[n-]c3ccccc23)c1 (optimized conformer: 62.62173589508586 kcal/mol)

>  <smiles>  (19) 
CC(=O)Nc1cccc(N=c2cc[nH]c3ccccc23)c1

>  <score_type>  (19) 
oracle

>  <origin>  (19) 
adg

>  <m_score__min__energy>  (19) 
-9.2200000000000006

>  <m_primary>  (19) 
energy

$$$$
19:0
     RDKit          3D

 47 49  0  0  1  0  0  0  0  0999 V2000
   57.1490   25.1550   46.3770 C   0  0  0  0  0  0  0  0  0  0  0  0
   56.3540   26.3410   45.9960 C   0  0  0  0  0  0  0  0  0  0  0  0
   55.1060   26.2370   46.0150 O   0  0  0  0  0  0  0  0  0  0  0  0
   57.0200   27.4910   45.6430 O   0  0  0  0  0  0  0  0  0  0  0  0
   58.3600   27.7850   45.8610 C   0  0  0  0  0  0  0  0  0  0  0  0
   58.6960   29.1680   46.2920 C   0  0  1  0  0  0  0  0  0  0  0  0
   60.0370   29.3210   46.4710 O   0  0  0  0  0  0  0  0  0  0  0  0
   60.3610   30.6760   46.4320 C   0  0  2  0  0  0  0  0  0  0  0  0
   60.5600   31.2300   47.7630 N   0  0  0  0  0  0  0  0  0  0  0  0
   59.8690   30.9990   48.8940 C   0  0  0  0  0  0  0  0  0  0  0  0
   60.4310   31.7400   49.8510 N   0  0  0  0  0  0  0  0  0  0  0  0
   61.4620   32.4370   49.3650 C   0  0  0  0  0  0  0  0  0  0  0  0
   62.3880   33.3410   49.8740 C   0  0  0  0  0  0  0  0  0  0  0  0
   62.2900   33.6280   51.1170 N   0  0  0  0  0  0  0  0  0  0  0  0
   63.3490   33.8900   49.0770 N   0  0  0  0  0  0  0  0  0  0  0  0
   63.3950   33.5400   47.7620 C   0  0  0  0  0  0  0  0  0  0  0  0
   62.5100   32.6680   47.2490 N   0  0  0  0  0  0  0  0  0  0  0  0
   61.5460   32.1120   48.0260 C   0  0  0  0  0  0  0  0  0  0  0  0
   59.2910   31.3280   45.6420 C   0  0  2  0  0  0  0  0  0  0  0  0
   58.6490   32.3990   46.2820 O   0  0  0  0  0  0  0  0  0  0  0  0
   58.2480   33.5040   45.5510 C   0  0  0  0  0  0  0  0  0  0  0  0
   59.2590   34.5750   45.3370 C   0  0  0  0  0  0  0  0  0  0  0  0
   57.0960   33.6190   45.0820 O   0  0  0  0  0  0  0  0  0  0  0  0
   58.3470   30.2150   45.2600 C   0  0  2  0  0  0  0  0  0  0  0  0
   57.0040   30.5860   45.2360 O   0  0  0  0  0  0  0  0  0  0  0  0
   56.1500   30.0000   44.2940 C   0  0  0  0  0  0  0  0  0  0  0  0
   56.3720   30.0860   42.8430 C   0  0  0  0  0  0  0  0  0  0  0  0
   55.1270   29.3570   44.7000 O   0  0  0  0  0  0  0  0  0  0  0  0
   57.1974   25.0828   47.4736 H   0  0  0  0  0  0  0  0  0  0  0  0
   56.6747   24.2496   45.9705 H   0  0  0  0  0  0  0  0  0  0  0  0
   58.1667   25.2498   45.9705 H   0  0  0  0  0  0  0  0  0  0  0  0
   58.7260   27.0989   46.6390 H   0  0  0  0  0  0  0  0  0  0  0  0
   58.8362   27.6740   44.8756 H   0  0  0  0  0  0  0  0  0  0  0  0
   58.1158   29.3050   47.2165 H   0  0  0  0  0  0  0  0  0  0  0  0
   61.3316   30.8556   45.9465 H   0  0  0  0  0  0  0  0  0  0  0  0
   59.0054   30.3273   49.0081 H   0  0  0  0  0  0  0  0  0  0  0  0
   61.6770   33.2070   51.8190 H   0  0  0  0  0  0  0  0  0  0  0  0
   64.0310   34.5660   49.4880 H   0  0  0  0  0  0  0  0  0  0  0  0
   64.1666   33.9766   47.1108 H   0  0  0  0  0  0  0  0  0  0  0  0
   59.7231   31.8244   44.7606 H   0  0  0  0  0  0  0  0  0  0  0  0
   59.6104   34.9473   46.3106 H   0  0  0  0  0  0  0  0  0  0  0  0
   60.1100   34.1681   44.7711 H   0  0  0  0  0  0  0  0  0  0  0  0
   58.8038   35.4012   44.7711 H   0  0  0  0  0  0  0  0  0  0  0  0
   58.4676   29.8644   44.2244 H   0  0  0  0  0  0  0  0  0  0  0  0
   57.3817   30.4771   42.6491 H   0  0  0  0  0  0  0  0  0  0  0  0
   56.2746   29.0851   42.3972 H   0  0  0  0  0  0  0  0  0  0  0  0
   55.6258   30.7601   42.3972 H   0  0  0  0  0  0  0  0  0  0  0  0
  1  2  1  0
  2  3  2  0
  2  4  1  0
  4  5  1  0
  5  6  1  0
  6  7  1  0
  7  8  1  0
  8  9  1  0
  9 10  1  0
 10 11  2  0
 11 12  1  0
 12 13  1  0
 13 14  2  3
 13 15  1  0
 15 16  1  0
 16 17  2  0
 17 18  1  0
  8 19  1  0
 19 20  1  0
 20 21  1  0
 21 22  1  0
 21 23  2  0
 19 24  1  0
 24 25  1  0
 25 26  1  0
 26 27  1  0
 26 28  2  0
 24  6  1  0
 18  9  1  0
 18 12  2  0
  1 29  1  0
  1 30  1  0
  1 31  1  0
  5 32  1  0
  5 33  1  0
  6 34  1  1
  8 35  1  6
 10 36  1  0
 14 37  1  0
 15 38  1  0
 16 39  1  0
 19 40  1  6
 22 41  1  0
 22 42  1  0
 22 43  1  0
 24 44  1  6
 27 45  1  0
 27 46  1  0
 27 47  1  0
M  END
>  <smiles>  (20) 
CC(=O)OCC1OC(n2cnc3c(=N)[nH]cnc32)C(OC(C)=O)C1OC(C)=O

>  <score_type>  (20) 
oracle

>  <origin>  (20) 
adg

>  <m_score__min__energy>  (20) 
-7.3200000000000003

>  <m_primary>  (20) 
energy

$$$$
20:0
     RDKit          3D

 30 32  0  0  0  0  0  0  0  0999 V2000
   55.6850   29.7260   43.7720 C   0  0  0  0  0  0  0  0  0  0  0  0
   57.0770   29.4650   44.2610 C   0  0  0  0  0  0  0  0  0  0  0  0
   57.4750   28.3570   45.0310 C   0  0  0  0  0  0  0  0  0  0  0  0
   56.6290   27.3500   45.6160 C   0  0  0  0  0  0  0  0  0  0  0  0
   55.9500   26.5410   46.0850 N   0  0  0  0  0  0  0  0  0  0  0  0
   58.7660   28.6700   45.3980 C   0  0  0  0  0  0  0  0  0  0  0  0
   59.4360   28.3860   46.5340 N   0  0  0  0  0  0  0  0  0  0  0  0
   60.2460   29.4820   46.6290 C   0  0  0  0  0  0  0  0  0  0  0  0
   60.0070   30.3920   45.6530 N   0  0  0  0  0  0  0  0  0  0  0  0
   59.1060   29.8250   44.8820 N   0  0  0  0  0  0  0  0  0  0  0  0
   58.0920   30.3770   44.2380 N   0  0  0  0  0  0  0  0  0  0  0  0
   58.0700   31.7400   43.7030 C   0  0  0  0  0  0  0  0  0  0  0  0
   58.3090   32.7290   44.8110 C   0  0  0  0  0  0  0  0  0  0  0  0
   57.7740   32.4970   46.0890 C   0  0  0  0  0  0  0  0  0  0  0  0
   58.0200   33.3980   47.1300 C   0  0  0  0  0  0  0  0  0  0  0  0
   58.8060   34.5310   46.9050 C   0  0  0  0  0  0  0  0  0  0  0  0
   59.3460   34.7650   45.6370 C   0  0  0  0  0  0  0  0  0  0  0  0
   59.1030   33.8670   44.5940 C   0  0  0  0  0  0  0  0  0  0  0  0
   55.0117   29.8522   44.6326 H   0  0  0  0  0  0  0  0  0  0  0  0
   55.6762   30.6414   43.1622 H   0  0  0  0  0  0  0  0  0  0  0  0
   55.3452   28.8759   43.1622 H   0  0  0  0  0  0  0  0  0  0  0  0
   61.0083   29.6118   47.4114 H   0  0  0  0  0  0  0  0  0  0  0  0
   60.3520   31.3760   45.5950 H   0  0  0  0  0  0  0  0  0  0  0  0
   58.8581   31.8463   42.9430 H   0  0  0  0  0  0  0  0  0  0  0  0
   57.0871   31.9351   43.2493 H   0  0  0  0  0  0  0  0  0  0  0  0
   57.1592   31.6033   46.2717 H   0  0  0  0  0  0  0  0  0  0  0  0
   57.5940   33.2144   48.1274 H   0  0  0  0  0  0  0  0  0  0  0  0
   58.9997   35.2383   47.7249 H   0  0  0  0  0  0  0  0  0  0  0  0
   59.9635   35.6579   45.4597 H   0  0  0  0  0  0  0  0  0  0  0  0
   59.5352   34.0522   43.5995 H   0  0  0  0  0  0  0  0  0  0  0  0
  1  2  1  0
  2  3  2  0
  3  4  1  0
  4  5  3  0
  3  6  1  0
  6  7  2  0
  7  8  1  0
  8  9  2  0
  9 10  1  0
 10 11  1  0
 11 12  1  0
 12 13  1  0
 13 14  2  0
 14 15  1  0
 15 16  2  0
 16 17  1  0
 17 18  2  0
 11  2  1  0
 18 13  1  0
 10  6  1  0
  1 19  1  0
  1 20  1  0
  1 21  1  0
  8 22  1  0
  9 23  1  0
 12 24  1  0
 12 25  1  0
 14 26  1  0
 15 27  1  0
 16 28  1  0
 17 29  1  0
 18 30  1  0
M  CHG  1   9   1
M  END
>  <UniqueID>  (21) 
19

>  <SMILES>  (21) 
Cc1c(C#N)c2nc[nH+]n2n1Cc1ccccc1

>  <Energy>  (21) 
126.49733783256936

>  <Genealogy>  (21) 
Cc1c(C#N)c2nc[nH+]n2n1Cc1ccccc1 (protonated)
Cc1c(C#N)c2nc[nH+]n2n1Cc1ccccc1 (3D coordinates assigned)
Cc1c(C#N)c2nc[nH+]n2n1Cc1ccccc1 (optimized conformer: 126.49733783256936 kcal/mol)

>  <smiles>  (21) 
Cc1c(C#N)c2ncnn2n1Cc1ccccc1

>  <score_type>  (21) 
oracle

>  <origin>  (21) 
adg

>  <m_score__min__energy>  (21) 
-5.1100000000000003

>  <m_primary>  (21) 
energy

$$$$
21:0
     RDKit          3D

 29 30  0  0  0  0  0  0  0  0999 V2000
   58.1492   27.0695   45.1258 H   0  0  0  0  0  0  0  0  0  0  0  0
   58.4560   27.9100   44.4860 C   0  0  0  0  0  0  0  0  0  0  0  0
   59.7020   28.2480   44.4840 N   0  0  0  0  0  0  0  0  0  0  0  0
   60.3230   29.1200   45.4560 C   0  0  0  0  0  0  0  0  0  0  0  0
   60.0761   28.7733   46.4703 H   0  0  0  0  0  0  0  0  0  0  0  0
   61.4143   29.1041   45.3186 H   0  0  0  0  0  0  0  0  0  0  0  0
   59.9511   30.1461   45.3186 H   0  0  0  0  0  0  0  0  0  0  0  0
   57.3940   28.6000   43.6620 C   0  0  0  0  0  0  0  0  0  0  0  0
   57.8580   29.0066   42.7513 H   0  0  0  0  0  0  0  0  0  0  0  0
   56.6188   27.8601   43.4137 H   0  0  0  0  0  0  0  0  0  0  0  0
   56.7420   29.7250   44.4210 C   0  0  0  0  0  0  0  0  0  0  0  0
   55.5920   29.5300   44.8990 O   0  0  0  0  0  0  0  0  0  0  0  0
   57.4030   31.0460   44.6240 C   0  0  0  0  0  0  0  0  0  0  0  0
   57.6600   31.8730   43.5140 C   0  0  0  0  0  0  0  0  0  0  0  0
   57.3698   31.5371   42.5075 H   0  0  0  0  0  0  0  0  0  0  0  0
   58.2790   33.1150   43.6750 C   0  0  0  0  0  0  0  0  0  0  0  0
   58.4736   33.7474   42.7962 H   0  0  0  0  0  0  0  0  0  0  0  0
   58.6530   33.5590   44.9490 C   0  0  0  0  0  0  0  0  0  0  0  0
   59.2760   34.8050   45.1190 C   0  0  0  0  0  0  0  0  0  0  0  0
   59.4765   35.4430   44.2456 H   0  0  0  0  0  0  0  0  0  0  0  0
   59.6420   35.2360   46.3980 C   0  0  0  0  0  0  0  0  0  0  0  0
   60.1304   36.2130   46.5279 H   0  0  0  0  0  0  0  0  0  0  0  0
   59.3900   34.4310   47.5110 C   0  0  0  0  0  0  0  0  0  0  0  0
   59.6803   34.7761   48.5143 H   0  0  0  0  0  0  0  0  0  0  0  0
   58.7700   33.1880   47.3540 C   0  0  0  0  0  0  0  0  0  0  0  0
   58.5737   32.5576   48.2338 H   0  0  0  0  0  0  0  0  0  0  0  0
   58.3970   32.7420   46.0750 C   0  0  0  0  0  0  0  0  0  0  0  0
   57.7740   31.4960   45.9070 C   0  0  0  0  0  0  0  0  0  0  0  0
   57.5733   30.8645   46.7850 H   0  0  0  0  0  0  0  0  0  0  0  0
  1  2  1  0
  2  3  2  0
  3  4  1  0
  4  5  1  0
  4  6  1  0
  4  7  1  0
  2  8  1  0
  8  9  1  0
  8 10  1  0
  8 11  1  0
 11 12  2  0
 11 13  1  0
 13 14  2  0
 14 15  1  0
 14 16  1  0
 16 17  1  0
 16 18  2  0
 18 19  1  0
 19 20  1  0
 19 21  2  0
 21 22  1  0
 21 23  1  0
 23 24  1  0
 23 25  2  0
 25 26  1  0
 25 27  1  0
 27 28  2  0
 28 29  1  0
 28 13  1  0
 27 18  1  0
M  END
>  <UniqueID>  (22) 
20

>  <SMILES>  (22) 
C/N=C\CC(=O)c1ccc2ccccc2c1

>  <Energy>  (22) 
32.178497242734835

>  <Genealogy>  (22) 
C/N=C\CC(=O)c1ccc2ccccc2c1 (cis-trans isomerization)
C/N=C\CC(=O)c1ccc2ccccc2c1 (3D coordinates assigned)
C/N=C\CC(=O)c1ccc2ccccc2c1 (optimized conformer: 32.178497242734835 kcal/mol)

>  <smiles>  (22) 
CN=CCC(=O)c1ccc2ccccc2c1

>  <score_type>  (22) 
oracle

>  <origin>  (22) 
adg

>  <m_score__min__energy>  (22) 
-7.0199999999999996

>  <m_primary>  (22) 
energy

$$$$
22:0
     RDKit          3D

 44 46  0  0  0  0  0  0  0  0999 V2000
   60.1373   34.9543   49.0464 H   0  0  0  0  0  0  0  0  0  0  0  0
   59.6820   34.2630   48.3220 C   0  0  0  0  0  0  0  0  0  0  0  0
   59.2350   34.7410   47.0940 C   0  0  0  0  0  0  0  0  0  0  0  0
   59.3567   35.8060   46.8470 H   0  0  0  0  0  0  0  0  0  0  0  0
   58.6300   33.8770   46.1670 C   0  0  0  0  0  0  0  0  0  0  0  0
   58.1400   34.4420   44.8590 C   0  0  0  0  0  0  0  0  0  0  0  0
   57.4309   35.2597   45.0555 H   0  0  0  0  0  0  0  0  0  0  0  0
   58.9942   34.8279   44.2833 H   0  0  0  0  0  0  0  0  0  0  0  0
   57.6372   33.6510   44.2833 H   0  0  0  0  0  0  0  0  0  0  0  0
   58.4910   32.5000   46.4810 C   0  0  0  0  0  0  0  0  0  0  0  0
   57.8330   31.5820   45.5170 C   0  0  0  0  0  0  0  0  0  0  0  0
   56.6410   31.8000   45.1760 O   0  0  0  0  0  0  0  0  0  0  0  0
   58.5340   30.4850   44.9140 N   0  0  0  0  0  0  0  0  0  0  0  0
   58.3320   29.0890   45.1870 C   0  0  0  0  0  0  0  0  0  0  0  0
   59.4520   28.2150   45.2050 C   0  0  0  0  0  0  0  0  0  0  0  0
   60.8380   28.7520   44.9730 C   0  0  0  0  0  0  0  0  0  0  0  0
   61.3249   28.9407   45.9411 H   0  0  0  0  0  0  0  0  0  0  0  0
   61.4257   28.0165   44.4041 H   0  0  0  0  0  0  0  0  0  0  0  0
   60.7768   29.6915   44.4041 H   0  0  0  0  0  0  0  0  0  0  0  0
   59.2720   26.8450   45.4840 C   0  0  0  0  0  0  0  0  0  0  0  0
   60.1325   26.1606   45.5189 H   0  0  0  0  0  0  0  0  0  0  0  0
   57.9830   26.3780   45.7140 C   0  0  0  0  0  0  0  0  0  0  0  0
   57.4840   24.8100   46.0590 S   0  0  0  0  0  0  0  0  0  0  0  0
   55.8510   25.2770   46.1390 C   0  0  0  0  0  0  0  0  0  0  0  0
   54.8470   24.4880   46.3840 N   0  0  0  0  0  0  0  0  0  0  0  0
   54.0690   23.7750   45.3710 C   0  0  0  0  0  0  0  0  0  0  0  0
   53.1628   24.3536   45.1385 H   0  0  0  0  0  0  0  0  0  0  0  0
   53.7989   22.7843   45.7654 H   0  0  0  0  0  0  0  0  0  0  0  0
   54.8850   23.5890   44.0960 C   0  0  0  0  0  0  0  0  0  0  0  0
   55.9265   23.3516   44.3586 H   0  0  0  0  0  0  0  0  0  0  0  0
   54.4589   22.7649   43.5049 H   0  0  0  0  0  0  0  0  0  0  0  0
   54.8581   24.5163   43.5049 H   0  0  0  0  0  0  0  0  0  0  0  0
   55.6900   26.6010   45.9040 N   0  0  0  0  0  0  0  0  0  0  0  0
   54.7670   27.0890   45.9050 H   0  0  0  0  0  0  0  0  0  0  0  0
   56.8800   27.2130   45.6700 C   0  0  0  0  0  0  0  0  0  0  0  0
   57.0340   28.5720   45.3980 C   0  0  0  0  0  0  0  0  0  0  0  0
   56.1562   29.2331   45.3483 H   0  0  0  0  0  0  0  0  0  0  0  0
   58.9870   32.0140   47.7200 C   0  0  0  0  0  0  0  0  0  0  0  0
   58.9080   30.5590   48.1060 C   0  0  0  0  0  0  0  0  0  0  0  0
   58.9032   30.4703   49.2024 H   0  0  0  0  0  0  0  0  0  0  0  0
   57.9848   30.1212   47.6986 H   0  0  0  0  0  0  0  0  0  0  0  0
   59.7784   30.0238   47.6986 H   0  0  0  0  0  0  0  0  0  0  0  0
   59.5550   32.9130   48.6370 C   0  0  0  0  0  0  0  0  0  0  0  0
   59.9031   32.5468   49.6141 H   0  0  0  0  0  0  0  0  0  0  0  0
  1  2  1  0
  2  3  2  0
  3  4  1  0
  3  5  1  0
  5  6  1  0
  6  7  1  0
  6  8  1  0
  6  9  1  0
  5 10  2  0
 10 11  1  0
 11 12  2  0
 11 13  1  0
 13 14  1  0
 14 15  2  0
 15 16  1  0
 16 17  1  0
 16 18  1  0
 16 19  1  0
 15 20  1  0
 20 21  1  0
 20 22  2  0
 22 23  1  0
 23 24  1  0
 24 25  2  0
 25 26  1  0
 26 27  1  0
 26 28  1  0
 26 29  1  0
 29 30  1  0
 29 31  1  0
 29 32  1  0
 24 33  1  0
 33 34  1  0
 33 35  1  0
 35 36  2  0
 36 37  1  0
 10 38  1  0
 38 39  1  0
 39 40  1  0
 39 41  1  0
 39 42  1  0
 38 43  2  0
 43 44  1  0
 43  2  1  0
 36 14  1  0
 35 22  1  0
M  CHG  1  13  -1
M  END
>  <UniqueID>  (23) 
21

>  <SMILES>  (23) 
CC/N=c1/[nH]c2cc([N-]C(=O)c3c(C)cccc3C)c(C)cc2s1

>  <Energy>  (23) 
87.94885676562541

>  <Genealogy>  (23) 
CCN=c1[nH]c2cc([N-]C(=O)c3c(C)cccc3C)c(C)cc2s1 (protonated)
CC/N=c1/[nH]c2cc([N-]C(=O)c3c(C)cccc3C)c(C)cc2s1 (cis-trans isomerization)
CC/N=c1/[nH]c2cc([N-]C(=O)c3c(C)cccc3C)c(C)cc2s1 (3D coordinates assigned)
CC/N=c1/[nH]c2cc([N-]C(=O)c3c(C)cccc3C)c(C)cc2s1 (optimized conformer: 87.94885676562541 kcal/mol)

>  <smiles>  (23) 
CCN=c1[nH]c2cc(NC(=O)c3c(C)cccc3C)c(C)cc2s1

>  <score_type>  (23) 
oracle

>  <origin>  (23) 
adg

>  <m_score__min__energy>  (23) 
-9.5999999999999996

>  <m_primary>  (23) 
energy

$$$$
23:0
     RDKit          3D

 27 28  0  0  0  0  0  0  0  0999 V2000
   58.0520   21.5790   43.7460 C   0  0  0  0  0  0  0  0  0  0  0  0
   56.8730   22.4700   43.9410 C   0  0  0  0  0  0  0  0  0  0  0  0
   56.6160   23.2520   45.0440 C   0  0  0  0  0  0  0  0  0  0  0  0
   55.4090   23.8540   44.7390 C   0  0  0  0  0  0  0  0  0  0  0  0
   54.6390   24.7890   45.5830 C   0  0  0  0  0  0  0  0  0  0  0  0
   53.4960   24.4450   45.9810 O   0  0  0  0  0  0  0  0  0  0  0  0
   55.1570   26.0610   45.9960 N   0  0  0  0  0  0  0  0  0  0  0  0
   56.5440   26.4040   46.1280 C   0  0  0  0  0  0  0  0  0  0  0  0
   57.0540   27.4180   45.3080 C   0  0  0  0  0  0  0  0  0  0  0  0
   58.3880   27.8150   45.4170 C   0  0  0  0  0  0  0  0  0  0  0  0
   59.2290   27.1910   46.3390 C   0  0  0  0  0  0  0  0  0  0  0  0
   58.7450   26.1530   47.1370 C   0  0  0  0  0  0  0  0  0  0  0  0
   57.4100   25.7270   47.0240 C   0  0  0  0  0  0  0  0  0  0  0  0
   56.9470   24.5650   47.8590 C   0  0  0  0  0  0  0  0  0  0  0  0
   54.9870   23.4260   43.5330 N   0  0  0  0  0  0  0  0  0  0  0  0
   55.8870   22.6020   43.0830 O   0  0  0  0  0  0  0  0  0  0  0  0
   58.4502   21.2780   44.7262 H   0  0  0  0  0  0  0  0  0  0  0  0
   57.7464   20.6842   43.1839 H   0  0  0  0  0  0  0  0  0  0  0  0
   58.8294   22.1173   43.1839 H   0  0  0  0  0  0  0  0  0  0  0  0
   57.2256   23.3700   45.9520 H   0  0  0  0  0  0  0  0  0  0  0  0
   56.3981   27.9058   44.5719 H   0  0  0  0  0  0  0  0  0  0  0  0
   58.7762   28.6201   44.7758 H   0  0  0  0  0  0  0  0  0  0  0  0
   60.2748   27.5175   46.4372 H   0  0  0  0  0  0  0  0  0  0  0  0
   59.4139   25.6641   47.8605 H   0  0  0  0  0  0  0  0  0  0  0  0
   57.0473   24.8166   48.9251 H   0  0  0  0  0  0  0  0  0  0  0  0
   55.8932   24.3467   47.6313 H   0  0  0  0  0  0  0  0  0  0  0  0
   57.5619   23.6818   47.6313 H   0  0  0  0  0  0  0  0  0  0  0  0
  1  2  1  0
  2  3  2  0
  3  4  1  0
  4  5  1  0
  5  6  2  0
  5  7  1  0
  7  8  1  0
  8  9  2  0
  9 10  1  0
 10 11  2  0
 11 12  1  0
 12 13  2  0
 13 14  1  0
  4 15  2  0
 15 16  1  0
 16  2  1  0
 13  8  1  0
  1 17  1  0
  1 18  1  0
  1 19  1  0
  3 20  1  0
  9 21  1  0
 10 22  1  0
 11 23  1  0
 12 24  1  0
 14 25  1  0
 14 26  1  0
 14 27  1  0
M  CHG  1   7  -1
M  END
>  <UniqueID>  (24) 
22

>  <SMILES>  (24) 
Cc1cc(C(=O)[N-]c2ccccc2C)no1

>  <Energy>  (24) 
63.49251582242832

>  <Genealogy>  (24) 
Cc1cc(C(=O)[N-]c2ccccc2C)no1 (protonated)
Cc1cc(C(=O)[N-]c2ccccc2C)no1 (3D coordinates assigned)
Cc1cc(C(=O)[N-]c2ccccc2C)no1 (optimized conformer: 63.49251582242832 kcal/mol)

>  <smiles>  (24) 
Cc1cc(C(=O)Nc2ccccc2C)no1

>  <score_type>  (24) 
oracle

>  <origin>  (24) 
adg

>  <m_score__min__energy>  (24) 
-7.8799999999999999

>  <m_primary>  (24) 
energy

$$$$
24:0
     RDKit          3D

 29 31  0  0  0  0  0  0  0  0999 V2000
   57.3150   32.7130   40.0290 N   0  0  0  0  0  0  0  0  0  0  0  0
   57.3940   32.3300   41.1180 C   0  0  0  0  0  0  0  0  0  0  0  0
   57.4930   31.8520   42.4730 C   0  0  0  0  0  0  0  0  0  0  0  0
   56.9690   30.5990   42.8060 C   0  0  0  0  0  0  0  0  0  0  0  0
   57.0690   30.1450   44.1190 C   0  0  0  0  0  0  0  0  0  0  0  0
   57.6860   30.9400   45.0860 C   0  0  0  0  0  0  0  0  0  0  0  0
   58.2040   32.1960   44.7250 C   0  0  0  0  0  0  0  0  0  0  0  0
   58.8640   33.0600   45.7310 C   0  0  0  0  0  0  0  0  0  0  0  0
   60.0470   32.7560   46.3090 N   0  0  0  0  0  0  0  0  0  0  0  0
   60.4610   33.6980   47.2030 C   0  0  0  0  0  0  0  0  0  0  0  0
   61.7430   33.5450   47.9460 C   0  0  0  0  0  0  0  0  0  0  0  0
   62.9180   33.2100   47.2470 C   0  0  0  0  0  0  0  0  0  0  0  0
   64.1310   33.0620   47.9220 C   0  0  0  0  0  0  0  0  0  0  0  0
   64.1980   33.2450   49.3060 C   0  0  0  0  0  0  0  0  0  0  0  0
   65.7450   33.0490   50.1180 Cl  0  0  0  0  0  0  0  0  0  0  0  0
   63.0360   33.5790   50.0180 C   0  0  0  0  0  0  0  0  0  0  0  0
   63.0770   33.8190   51.7610 Cl  0  0  0  0  0  0  0  0  0  0  0  0
   61.8190   33.7280   49.3420 C   0  0  0  0  0  0  0  0  0  0  0  0
   59.5840   34.7800   47.3430 C   0  0  0  0  0  0  0  0  0  0  0  0
   58.2780   34.5240   46.3160 S   0  0  0  0  0  0  0  0  0  0  0  0
   58.0930   32.6190   43.4290 N   0  0  0  0  0  0  0  0  0  0  0  0
   56.4829   29.9783   42.0389 H   0  0  0  0  0  0  0  0  0  0  0  0
   56.6620   29.1606   44.3935 H   0  0  0  0  0  0  0  0  0  0  0  0
   57.7665   30.5859   46.1243 H   0  0  0  0  0  0  0  0  0  0  0  0
   62.8800   33.0633   46.1575 H   0  0  0  0  0  0  0  0  0  0  0  0
   65.0400   32.7996   47.3609 H   0  0  0  0  0  0  0  0  0  0  0  0
   60.9120   33.9908   49.9063 H   0  0  0  0  0  0  0  0  0  0  0  0
   59.7246   35.6451   48.0077 H   0  0  0  0  0  0  0  0  0  0  0  0
   58.4750   33.5520   43.1540 H   0  0  0  0  0  0  0  0  0  0  0  0
  1  2  3  0
  2  3  1  0
  3  4  2  0
  4  5  1  0
  5  6  2  0
  6  7  1  0
  7  8  1  0
  8  9  2  0
  9 10  1  0
 10 11  1  0
 11 12  2  0
 12 13  1  0
 13 14  2  0
 14 15  1  0
 14 16  1  0
 16 17  1  0
 16 18  2  0
 10 19  2  0
 19 20  1  0
  7 21  2  0
 21  3  1  0
 20  8  1  0
 18 11  1  0
  4 22  1  0
  5 23  1  0
  6 24  1  0
 12 25  1  0
 13 26  1  0
 18 27  1  0
 19 28  1  0
 21 29  1  0
M  CHG  1  21   1
M  END
>  <UniqueID>  (25) 
23

>  <SMILES>  (25) 
N#Cc1cccc(-c2nc(-c3ccc(Cl)c(Cl)c3)cs2)[nH+]1

>  <Energy>  (25) 
65.0213444718387

>  <Genealogy>  (25) 
N#Cc1cccc(-c2nc(-c3ccc(Cl)c(Cl)c3)cs2)[nH+]1 (protonated)
N#Cc1cccc(-c2nc(-c3ccc(Cl)c(Cl)c3)cs2)[nH+]1 (3D coordinates assigned)
N#Cc1cccc(-c2nc(-c3ccc(Cl)c(Cl)c3)cs2)[nH+]1 (optimized conformer: 65.0213444718387 kcal/mol)

>  <smiles>  (25) 
N#Cc1cccc(-c2nc(-c3ccc(Cl)c(Cl)c3)cs2)n1

>  <score_type>  (25) 
oracle

>  <origin>  (25) 
adg

>  <m_score__min__energy>  (25) 
-6.2000000000000002

>  <m_primary>  (25) 
energy

$$$$
25:0
     RDKit          3D

 37 39  0  0  0  0  0  0  0  0999 V2000
   57.6384   34.9101   44.0368 H   0  0  0  0  0  0  0  0  0  0  0  0
   57.7620   33.9650   44.5860 C   0  0  0  0  0  0  0  0  0  0  0  0
   57.8950   32.7100   43.8170 C   0  0  0  0  0  0  0  0  0  0  0  0
   58.4610   32.7640   42.6920 O   0  0  0  0  0  0  0  0  0  0  0  0
   57.4110   31.3990   44.3130 C   0  0  0  0  0  0  0  0  0  0  0  0
   58.1180   30.6950   45.3020 C   0  0  0  0  0  0  0  0  0  0  0  0
   59.0355   31.1264   45.7287 H   0  0  0  0  0  0  0  0  0  0  0  0
   57.6640   29.4500   45.7480 C   0  0  0  0  0  0  0  0  0  0  0  0
   58.2206   28.9119   46.5294 H   0  0  0  0  0  0  0  0  0  0  0  0
   56.4970   28.8820   45.2010 C   0  0  0  0  0  0  0  0  0  0  0  0
   56.0000   27.6380   45.6160 O   0  0  0  0  0  0  0  0  0  0  0  0
   56.8120   26.5080   45.9200 C   0  0  0  0  0  0  0  0  0  0  0  0
   56.8919   26.3969   47.0115 H   0  0  0  0  0  0  0  0  0  0  0  0
   56.3563   25.6031   45.4917 H   0  0  0  0  0  0  0  0  0  0  0  0
   57.8150   26.6513   45.4917 H   0  0  0  0  0  0  0  0  0  0  0  0
   55.8050   29.5770   44.2040 C   0  0  0  0  0  0  0  0  0  0  0  0
   54.8949   29.1399   43.7673 H   0  0  0  0  0  0  0  0  0  0  0  0
   56.2580   30.8210   43.7570 C   0  0  0  0  0  0  0  0  0  0  0  0
   55.7083   31.3507   42.9650 H   0  0  0  0  0  0  0  0  0  0  0  0
   57.7860   33.9980   45.9280 C   0  0  0  0  0  0  0  0  0  0  0  0
   56.8378   34.1703   46.4583 H   0  0  0  0  0  0  0  0  0  0  0  0
   59.0150   33.8160   46.7380 C   0  0  0  0  0  0  0  0  0  0  0  0
   58.8830   33.6610   48.1290 C   0  0  0  0  0  0  0  0  0  0  0  0
   57.8814   33.6729   48.5836 H   0  0  0  0  0  0  0  0  0  0  0  0
   60.0070   33.4920   48.9420 C   0  0  0  0  0  0  0  0  0  0  0  0
   59.8862   33.3629   50.0277 H   0  0  0  0  0  0  0  0  0  0  0  0
   61.2880   33.4870   48.3740 C   0  0  0  0  0  0  0  0  0  0  0  0
   61.4350   33.6570   46.9830 C   0  0  0  0  0  0  0  0  0  0  0  0
   62.6800   33.6630   46.4400 N   0  0  0  0  0  0  0  0  0  0  0  0
   63.7850   33.5020   47.2140 C   0  0  0  0  0  0  0  0  0  0  0  0
   64.7859   33.5078   46.7578 H   0  0  0  0  0  0  0  0  0  0  0  0
   63.6420   33.3290   48.5930 C   0  0  0  0  0  0  0  0  0  0  0  0
   64.5305   33.1957   49.2277 H   0  0  0  0  0  0  0  0  0  0  0  0
   62.4000   33.3260   49.1480 N   0  0  0  0  0  0  0  0  0  0  0  0
   62.3120   33.1990   50.1820 H   0  0  0  0  0  0  0  0  0  0  0  0
   60.3070   33.8250   46.1710 C   0  0  0  0  0  0  0  0  0  0  0  0
   60.4284   33.9646   45.0867 H   0  0  0  0  0  0  0  0  0  0  0  0
  1  2  1  0
  2  3  1  0
  3  4  2  0
  3  5  1  0
  5  6  2  0
  6  7  1  0
  6  8  1  0
  8  9  1  0
  8 10  2  0
 10 11  1  0
 11 12  1  0
 12 13  1  0
 12 14  1  0
 12 15  1  0
 10 16  1  0
 16 17  1  0
 16 18  2  0
 18 19  1  0
  2 20  2  0
 20 21  1  0
 20 22  1  0
 22 23  2  0
 23 24  1  0
 23 25  1  0
 25 26  1  0
 25 27  2  0
 27 28  1  0
 28 29  1  0
 29 30  2  0
 30 31  1  0
 30 32  1  0
 32 33  1  0
 32 34  2  0
 34 35  1  0
 28 36  2  0
 36 37  1  0
 18  5  1  0
 36 22  1  0
 34 27  1  0
M  CHG  1  34   1
M  END
>  <UniqueID>  (26) 
24

>  <SMILES>  (26) 
COc1ccc(C(=O)/C=C/c2ccc3[nH+]ccnc3c2)cc1

>  <Energy>  (26) 
50.01719986995054

>  <Genealogy>  (26) 
COc1ccc(C(=O)C=Cc2ccc3[nH+]ccnc3c2)cc1 (protonated)
COc1ccc(C(=O)/C=C/c2ccc3[nH+]ccnc3c2)cc1 (cis-trans isomerization)
COc1ccc(C(=O)/C=C/c2ccc3[nH+]ccnc3c2)cc1 (3D coordinates assigned)
COc1ccc(C(=O)/C=C/c2ccc3[nH+]ccnc3c2)cc1 (optimized conformer: 50.01719986995054 kcal/mol)

>  <smiles>  (26) 
COc1ccc(C(=O)C=Cc2ccc3nccnc3c2)cc1

>  <score_type>  (26) 
oracle

>  <origin>  (26) 
adg

>  <m_score__min__energy>  (26) 
-6.5999999999999996

>  <m_primary>  (26) 
energy

$$$$
26:0
     RDKit          3D

 31 33  0  0  1  0  0  0  0  0999 V2000
   56.3590   25.8180   46.0130 C   0  0  0  0  0  0  0  0  0  0  0  0
   56.8470   27.1950   45.8450 C   0  0  0  0  0  0  0  0  0  0  0  0
   58.0960   27.6000   46.2860 C   0  0  0  0  0  0  0  0  0  0  0  0
   58.5480   28.8900   46.1270 C   0  0  0  0  0  0  0  0  0  0  0  0
   59.6930   29.1910   46.5370 N   0  0  0  0  0  0  0  0  0  0  0  0
   60.0920   29.9240   47.6660 C   0  0  0  0  0  0  0  0  0  0  0  0
   60.7670   31.2230   47.4110 C   0  0  0  0  0  0  0  0  0  0  0  0
   60.3660   32.4140   46.9960 C   0  0  0  0  0  0  0  0  0  0  0  0
   61.2170   33.4450   46.8560 C   0  0  0  0  0  0  0  0  0  0  0  0
   62.5390   33.2270   47.1630 C   0  0  0  0  0  0  0  0  0  0  0  0
   63.7340   34.1120   47.1270 C   0  0  0  0  0  0  0  0  0  0  0  0
   62.5820   31.4630   47.6760 S   0  0  0  0  0  0  0  0  0  0  0  0
   57.7900   29.7990   45.5370 N   0  0  0  0  0  0  0  0  0  0  0  0
   57.9850   31.0800   45.2760 C   0  0  0  0  0  0  0  0  0  0  0  0
   56.8240   31.4790   44.6520 N   0  0  0  0  0  0  0  0  0  0  0  0
   55.9840   30.4820   44.5530 N   0  0  0  0  0  0  0  0  0  0  0  0
   56.5730   29.4040   45.1080 C   0  0  0  0  0  0  0  0  0  0  0  0
   56.1010   28.1570   45.2460 N   0  0  0  0  0  0  0  0  0  0  0  0
   56.2769   25.5863   47.0852 H   0  0  0  0  0  0  0  0  0  0  0  0
   55.3710   25.7188   45.5397 H   0  0  0  0  0  0  0  0  0  0  0  0
   57.0641   25.1188   45.5397 H   0  0  0  0  0  0  0  0  0  0  0  0
   58.7489   26.8654   46.7802 H   0  0  0  0  0  0  0  0  0  0  0  0
   59.1933   30.1271   48.2668 H   0  0  0  0  0  0  0  0  0  0  0  0
   60.8459   29.2986   48.1665 H   0  0  0  0  0  0  0  0  0  0  0  0
   59.3027   32.5650   46.7581 H   0  0  0  0  0  0  0  0  0  0  0  0
   60.8678   34.4284   46.5081 H   0  0  0  0  0  0  0  0  0  0  0  0
   64.0487   34.3451   48.1549 H   0  0  0  0  0  0  0  0  0  0  0  0
   64.5530   33.6009   46.5997 H   0  0  0  0  0  0  0  0  0  0  0  0
   63.4840   35.0445   46.5997 H   0  0  0  0  0  0  0  0  0  0  0  0
   58.8723   31.6885   45.5050 H   0  0  0  0  0  0  0  0  0  0  0  0
   55.1470   27.9040   44.8940 H   0  0  0  0  0  0  0  0  0  0  0  0
  1  2  1  0
  2  3  2  0
  3  4  1  0
  4  5  2  0
  5  6  1  0
  6  7  1  0
  7  8  2  0
  8  9  1  0
  9 10  2  0
 10 11  1  0
 10 12  1  0
  4 13  1  0
 13 14  1  0
 14 15  2  0
 15 16  1  0
 16 17  2  0
 17 18  1  0
 18  2  1  0
 12  7  1  0
 17 13  1  0
  1 19  1  0
  1 20  1  0
  1 21  1  0
  3 22  1  0
  6 23  1  0
  6 24  1  0
  8 25  1  0
  9 26  1  0
 11 27  1  0
 11 28  1  0
 11 29  1  0
 14 30  1  0
 18 31  1  0
M  END
>  <smiles>  (27) 
Cc1cc(=NCc2ccc(C)s2)n2cnnc2[nH]1

>  <score_type>  (27) 
oracle

>  <origin>  (27) 
adg

>  <m_score__min__energy>  (27) 
-6.8899999999999997

>  <m_primary>  (27) 
energy

$$$$
27:0
     RDKit          3D

 29 31  0  0  0  0  0  0  0  0999 V2000
   56.3020   22.4881   46.6630 H   0  0  0  0  0  0  0  0  0  0  0  0
   56.6300   23.5030   46.3940 C   0  0  0  0  0  0  0  0  0  0  0  0
   55.7320   24.5220   46.3670 N   0  0  0  0  0  0  0  0  0  0  0  0
   56.0950   25.7930   46.0460 C   0  0  0  0  0  0  0  0  0  0  0  0
   55.1390   26.7550   45.9960 F   0  0  0  0  0  0  0  0  0  0  0  0
   57.4360   26.0860   45.7300 C   0  0  0  0  0  0  0  0  0  0  0  0
   57.8620   27.4630   45.3820 C   0  0  0  0  0  0  0  0  0  0  0  0
   59.1560   27.7780   44.9600 C   0  0  0  0  0  0  0  0  0  0  0  0
   59.9810   27.0634   44.8231 H   0  0  0  0  0  0  0  0  0  0  0  0
   59.2360   29.4390   44.6970 S   0  0  0  0  0  0  0  0  0  0  0  0
   57.6320   29.6910   45.1150 C   0  0  0  0  0  0  0  0  0  0  0  0
   57.0780   30.8680   45.1430 N   0  0  0  0  0  0  0  0  0  0  0  0
   57.7240   32.1050   45.4810 C   0  0  0  0  0  0  0  0  0  0  0  0
   57.6980   33.1600   44.5620 C   0  0  0  0  0  0  0  0  0  0  0  0
   57.2192   33.0201   43.5816 H   0  0  0  0  0  0  0  0  0  0  0  0
   58.2780   34.3920   44.8840 C   0  0  0  0  0  0  0  0  0  0  0  0
   58.2709   35.2117   44.1505 H   0  0  0  0  0  0  0  0  0  0  0  0
   58.8660   34.5810   46.1370 C   0  0  0  0  0  0  0  0  0  0  0  0
   59.3299   35.5466   46.3867 H   0  0  0  0  0  0  0  0  0  0  0  0
   58.8650   33.5440   47.0730 C   0  0  0  0  0  0  0  0  0  0  0  0
   59.3199   33.6973   48.0628 H   0  0  0  0  0  0  0  0  0  0  0  0
   58.2870   32.3120   46.7540 C   0  0  0  0  0  0  0  0  0  0  0  0
   58.2722   31.5030   47.4992 H   0  0  0  0  0  0  0  0  0  0  0  0
   57.0250   28.5360   45.4770 N   0  0  0  0  0  0  0  0  0  0  0  0
   56.0550   28.4720   45.8580 H   0  0  0  0  0  0  0  0  0  0  0  0
   58.3690   25.0370   45.7450 C   0  0  0  0  0  0  0  0  0  0  0  0
   59.4207   25.2355   45.4910 H   0  0  0  0  0  0  0  0  0  0  0  0
   57.9670   23.7430   46.0810 C   0  0  0  0  0  0  0  0  0  0  0  0
   58.6979   22.9211   46.0986 H   0  0  0  0  0  0  0  0  0  0  0  0
  1  2  1  0
  2  3  2  0
  3  4  1  0
  4  5  1  0
  4  6  2  0
  6  7  1  0
  7  8  2  0
  8  9  1  0
  8 10  1  0
 10 11  1  0
 11 12  2  0
 12 13  1  0
 13 14  2  0
 14 15  1  0
 14 16  1  0
 16 17  1  0
 16 18  2  0
 18 19  1  0
 18 20  1  0
 20 21  1  0
 20 22  2  0
 22 23  1  0
 11 24  1  0
 24 25  1  0
  6 26  1  0
 26 27  1  0
 26 28  2  0
 28 29  1  0
 28  2  1  0
 24  7  1  0
 22 13  1  0
M  END
>  <UniqueID>  (28) 
25

>  <SMILES>  (28) 
Fc1ncccc1-c1cs/c(=N/c2ccccc2)[nH]1

>  <Energy>  (28) 
74.0870425935775

>  <Genealogy>  (28) 
Fc1ncccc1-c1cs/c(=N/c2ccccc2)[nH]1 (cis-trans isomerization)
Fc1ncccc1-c1cs/c(=N/c2ccccc2)[nH]1 (3D coordinates assigned)
Fc1ncccc1-c1cs/c(=N/c2ccccc2)[nH]1 (optimized conformer: 74.0870425935775 kcal/mol)

>  <smiles>  (28) 
Fc1ncccc1-c1csc(=Nc2ccccc2)[nH]1

>  <score_type>  (28) 
oracle

>  <origin>  (28) 
adg

>  <m_score__min__energy>  (28) 
-7.0199999999999996

>  <m_primary>  (28) 
energy

$$$$
28:0
     RDKit          3D

 35 37  0  0  0  0  0  0  0  0999 V2000
   61.2633   27.5066   46.3208 H   0  0  0  0  0  0  0  0  0  0  0  0
   60.3130   27.9680   46.0140 C   0  0  0  0  0  0  0  0  0  0  0  0
   59.1860   27.7540   46.7450 N   0  0  0  0  0  0  0  0  0  0  0  0
   57.9920   28.3030   46.3950 C   0  0  0  0  0  0  0  0  0  0  0  0
   57.1013   28.1145   47.0124 H   0  0  0  0  0  0  0  0  0  0  0  0
   57.8900   29.1090   45.2500 C   0  0  0  0  0  0  0  0  0  0  0  0
   56.5910   29.7160   44.8700 C   0  0  0  0  0  0  0  0  0  0  0  0
   55.5500   29.0060   44.8760 O   0  0  0  0  0  0  0  0  0  0  0  0
   56.4650   31.1130   44.5620 N   0  0  0  0  0  0  0  0  0  0  0  0
   57.3780   32.0200   44.7580 C   0  0  0  0  0  0  0  0  0  0  0  0
   58.0210   32.7860   43.7940 C   0  0  0  0  0  0  0  0  0  0  0  0
   57.8849   32.7549   42.7029 H   0  0  0  0  0  0  0  0  0  0  0  0
   58.8730   33.5980   44.5240 C   0  0  0  0  0  0  0  0  0  0  0  0
   59.5661   34.3415   44.1034 H   0  0  0  0  0  0  0  0  0  0  0  0
   58.7130   33.3270   45.8360 N   0  0  0  0  0  0  0  0  0  0  0  0
   59.4800   33.9100   46.9330 C   0  0  0  0  0  0  0  0  0  0  0  0
   59.6714   34.9723   46.7210 H   0  0  0  0  0  0  0  0  0  0  0  0
   58.9071   33.8167   47.8674 H   0  0  0  0  0  0  0  0  0  0  0  0
   60.7890   33.1860   47.0780 C   0  0  0  0  0  0  0  0  0  0  0  0
   60.8210   31.8780   47.5890 C   0  0  0  0  0  0  0  0  0  0  0  0
   59.8818   31.3687   47.8509 H   0  0  0  0  0  0  0  0  0  0  0  0
   62.0430   31.2210   47.7660 C   0  0  0  0  0  0  0  0  0  0  0  0
   62.0628   30.1935   48.1582 H   0  0  0  0  0  0  0  0  0  0  0  0
   63.2390   31.8690   47.4450 C   0  0  0  0  0  0  0  0  0  0  0  0
   64.1993   31.3499   47.5805 H   0  0  0  0  0  0  0  0  0  0  0  0
   63.2150   33.1760   46.9520 C   0  0  0  0  0  0  0  0  0  0  0  0
   64.1573   33.6864   46.7040 H   0  0  0  0  0  0  0  0  0  0  0  0
   61.9950   33.8370   46.7730 C   0  0  0  0  0  0  0  0  0  0  0  0
   61.9806   34.8690   46.3925 H   0  0  0  0  0  0  0  0  0  0  0  0
   57.8120   32.3700   45.9810 N   0  0  0  0  0  0  0  0  0  0  0  0
   57.5120   31.9580   46.8930 H   0  0  0  0  0  0  0  0  0  0  0  0
   59.0510   29.3470   44.4960 C   0  0  0  0  0  0  0  0  0  0  0  0
   59.0037   29.9884   43.6036 H   0  0  0  0  0  0  0  0  0  0  0  0
   60.2640   28.7720   44.8760 C   0  0  0  0  0  0  0  0  0  0  0  0
   61.1732   28.9513   44.2833 H   0  0  0  0  0  0  0  0  0  0  0  0
  1  2  1  0
  2  3  2  0
  3  4  1  0
  4  5  1  0
  4  6  2  0
  6  7  1  0
  7  8  2  0
  7  9  1  0
  9 10  2  0
 10 11  1  0
 11 12  1  0
 11 13  2  0
 13 14  1  0
 13 15  1  0
 15 16  1  0
 16 17  1  0
 16 18  1  0
 16 19  1  0
 19 20  2  0
 20 21  1  0
 20 22  1  0
 22 23  1  0
 22 24  2  0
 24 25  1  0
 24 26  1  0
 26 27  1  0
 26 28  2  0
 28 29  1  0
 15 30  1  0
 30 31  1  0
  6 32  1  0
 32 33  1  0
 32 34  2  0
 34 35  1  0
 34  2  1  0
 30 10  1  0
 28 19  1  0
M  END
>  <UniqueID>  (29) 
26

>  <SMILES>  (29) 
O=C(/N=c1\ccn(Cc2ccccc2)[nH]1)c1cccnc1

>  <Energy>  (29) 
76.30258725828534

>  <Genealogy>  (29) 
O=C(/N=c1\ccn(Cc2ccccc2)[nH]1)c1cccnc1 (cis-trans isomerization)
O=C(/N=c1\ccn(Cc2ccccc2)[nH]1)c1cccnc1 (3D coordinates assigned)
O=C(/N=c1\ccn(Cc2ccccc2)[nH]1)c1cccnc1 (optimized conformer: 76.30258725828534 kcal/mol)

>  <smiles>  (29) 
O=C(N=c1ccn(Cc2ccccc2)[nH]1)c1cccnc1

>  <score_type>  (29) 
oracle

>  <origin>  (29) 
adg

>  <m_score__min__energy>  (29) 
-7.9100000000000001

>  <m_primary>  (29) 
energy

$$$$
29:0
     RDKit          3D

 28 30  0  0  0  0  0  0  0  0999 V2000
   55.4950   30.0870   43.7690 S   0  0  0  0  0  0  0  0  0  0  0  0
   56.4310   29.0860   44.6660 C   0  0  0  0  0  0  0  0  0  0  0  0
   55.9600   27.9960   45.2470 O   0  0  0  0  0  0  0  0  0  0  0  0
   56.9780   27.4490   45.8650 C   0  0  0  0  0  0  0  0  0  0  0  0
   57.0070   26.2810   46.6200 C   0  0  0  0  0  0  0  0  0  0  0  0
   58.2390   25.8990   47.1840 C   0  0  0  0  0  0  0  0  0  0  0  0
   59.3950   26.6880   46.9790 C   0  0  0  0  0  0  0  0  0  0  0  0
   59.3300   27.8660   46.2090 C   0  0  0  0  0  0  0  0  0  0  0  0
   58.0920   28.2150   45.6630 C   0  0  0  0  0  0  0  0  0  0  0  0
   57.7590   29.2740   44.9000 N   0  0  0  0  0  0  0  0  0  0  0  0
   58.6340   30.3260   44.3740 C   0  0  0  0  0  0  0  0  0  0  0  0
   58.3210   31.6440   45.0310 C   0  0  0  0  0  0  0  0  0  0  0  0
   57.9450   32.7560   44.2570 C   0  0  0  0  0  0  0  0  0  0  0  0
   57.6830   33.9850   44.8700 C   0  0  0  0  0  0  0  0  0  0  0  0
   57.7970   34.1150   46.2560 C   0  0  0  0  0  0  0  0  0  0  0  0
   58.1720   33.0160   47.0330 C   0  0  0  0  0  0  0  0  0  0  0  0
   58.4360   31.7850   46.4250 C   0  0  0  0  0  0  0  0  0  0  0  0
   56.0998   25.6775   46.7709 H   0  0  0  0  0  0  0  0  0  0  0  0
   58.3031   24.9816   47.7876 H   0  0  0  0  0  0  0  0  0  0  0  0
   60.3523   26.3793   47.4243 H   0  0  0  0  0  0  0  0  0  0  0  0
   60.2217   28.4886   46.0436 H   0  0  0  0  0  0  0  0  0  0  0  0
   59.6823   30.0602   44.5753 H   0  0  0  0  0  0  0  0  0  0  0  0
   58.4698   30.4189   43.2903 H   0  0  0  0  0  0  0  0  0  0  0  0
   57.8566   32.6587   43.1649 H   0  0  0  0  0  0  0  0  0  0  0  0
   57.3866   34.8509   44.2598 H   0  0  0  0  0  0  0  0  0  0  0  0
   57.5914   35.0831   46.7361 H   0  0  0  0  0  0  0  0  0  0  0  0
   58.2596   33.1194   48.1246 H   0  0  0  0  0  0  0  0  0  0  0  0
   58.7349   30.9233   47.0399 H   0  0  0  0  0  0  0  0  0  0  0  0
  1  2  2  0
  2  3  1  0
  3  4  1  0
  4  5  2  0
  5  6  1  0
  6  7  2  0
  7  8  1  0
  8  9  2  0
  9 10  1  0
 10 11  1  0
 11 12  1  0
 12 13  2  0
 13 14  1  0
 14 15  2  0
 15 16  1  0
 16 17  2  0
 10  2  1  0
 17 12  1  0
  9  4  1  0
  5 18  1  0
  6 19  1  0
  7 20  1  0
  8 21  1  0
 11 22  1  0
 11 23  1  0
 13 24  1  0
 14 25  1  0
 15 26  1  0
 16 27  1  0
 17 28  1  0
M  END
>  <UniqueID>  (30) 
27

>  <SMILES>  (30) 
S=c1oc2ccccc2n1Cc1ccccc1

>  <Energy>  (30) 
70.73398909298196

>  <Genealogy>  (30) 
S=c1oc2ccccc2n1Cc1ccccc1 (3D coordinates assigned)
S=c1oc2ccccc2n1Cc1ccccc1 (optimized conformer: 70.73398909298196 kcal/mol)

>  <smiles>  (30) 
S=c1oc2ccccc2n1Cc1ccccc1

>  <score_type>  (30) 
oracle

>  <origin>  (30) 
adg

>  <m_score__min__energy>  (30) 
-6.5599999999999996

>  <m_primary>  (30) 
energy

$$$$
30:0
     RDKit          3D

 32 33  0  0  0  0  0  0  0  0999 V2000
   56.2690   29.5140   42.7620 C   0  0  0  0  0  0  0  0  0  0  0  0
   56.0120   29.3830   44.2610 C   0  0  0  0  0  0  0  0  0  0  0  0
   57.0860   28.5460   44.9250 C   0  0  0  0  0  0  0  0  0  0  0  0
   58.4610   28.8920   44.8650 C   0  0  0  0  0  0  0  0  0  0  0  0
   58.9110   30.0520   44.1230 N   0  0  0  0  0  0  0  0  0  0  0  0
   58.5090   31.2910   44.7540 C   0  0  0  0  0  0  0  0  0  0  0  0
   58.5530   31.3970   46.1580 C   0  0  0  0  0  0  0  0  0  0  0  0
   58.1540   32.5720   46.7970 C   0  0  0  0  0  0  0  0  0  0  0  0
   57.6990   33.6560   46.0480 C   0  0  0  0  0  0  0  0  0  0  0  0
   57.6360   33.5680   44.6560 C   0  0  0  0  0  0  0  0  0  0  0  0
   58.0250   32.3900   43.9940 C   0  0  0  0  0  0  0  0  0  0  0  0
   57.9430   32.3320   42.4910 C   0  0  0  0  0  0  0  0  0  0  0  0
   59.3730   28.0670   45.4550 N   0  0  0  0  0  0  0  0  0  0  0  0
   59.0000   26.9590   46.1390 C   0  0  0  0  0  0  0  0  0  0  0  0
   57.6880   26.6370   46.2450 N   0  0  0  0  0  0  0  0  0  0  0  0
   56.7290   27.3980   45.6620 C   0  0  0  0  0  0  0  0  0  0  0  0
   55.5210   27.0620   45.7860 O   0  0  0  0  0  0  0  0  0  0  0  0
   57.2381   30.0080   42.5979 H   0  0  0  0  0  0  0  0  0  0  0  0
   56.2849   28.5140   42.3039 H   0  0  0  0  0  0  0  0  0  0  0  0
   55.4692   30.1144   42.3039 H   0  0  0  0  0  0  0  0  0  0  0  0
   56.0059   30.3854   44.7139 H   0  0  0  0  0  0  0  0  0  0  0  0
   55.0409   28.8877   44.4080 H   0  0  0  0  0  0  0  0  0  0  0  0
   59.9530   30.0060   44.0480 H   0  0  0  0  0  0  0  0  0  0  0  0
   58.5310   30.0410   43.1500 H   0  0  0  0  0  0  0  0  0  0  0  0
   58.9056   30.5446   46.7572 H   0  0  0  0  0  0  0  0  0  0  0  0
   58.1987   32.6427   47.8938 H   0  0  0  0  0  0  0  0  0  0  0  0
   57.3891   34.5821   46.5544 H   0  0  0  0  0  0  0  0  0  0  0  0
   57.2786   34.4286   44.0715 H   0  0  0  0  0  0  0  0  0  0  0  0
   57.0782   31.7203   42.1943 H   0  0  0  0  0  0  0  0  0  0  0  0
   57.8268   33.3499   42.0906 H   0  0  0  0  0  0  0  0  0  0  0  0
   58.8641   31.8834   42.0906 H   0  0  0  0  0  0  0  0  0  0  0  0
   59.7625   26.3202   46.6087 H   0  0  0  0  0  0  0  0  0  0  0  0
  1  2  1  0
  2  3  1  0
  3  4  2  0
  4  5  1  0
  5  6  1  0
  6  7  2  0
  7  8  1  0
  8  9  2  0
  9 10  1  0
 10 11  2  0
 11 12  1  0
  4 13  1  0
 13 14  1  0
 14 15  2  0
 15 16  1  0
 16 17  2  0
 16  3  1  0
 11  6  1  0
  1 18  1  0
  1 19  1  0
  1 20  1  0
  2 21  1  0
  2 22  1  0
  5 23  1  0
  5 24  1  0
  7 25  1  0
  8 26  1  0
  9 27  1  0
 10 28  1  0
 12 29  1  0
 12 30  1  0
 12 31  1  0
 14 32  1  0
M  CHG  2   5   1  13  -1
M  END
>  <UniqueID>  (31) 
28

>  <SMILES>  (31) 
CCc1c([NH2+]c2ccccc2C)[n-]cnc1=O

>  <Energy>  (31) 
37.049842616162174

>  <Genealogy>  (31) 
CCc1c([NH2+]c2ccccc2C)[n-]cnc1=O (protonated)
CCc1c([NH2+]c2ccccc2C)[n-]cnc1=O (3D coordinates assigned)
CCc1c([NH2+]c2ccccc2C)[n-]cnc1=O (optimized conformer: 37.049842616162174 kcal/mol)

>  <smiles>  (31) 
CCc1c(Nc2ccccc2C)[nH]cnc1=O

>  <score_type>  (31) 
oracle

>  <origin>  (31) 
adg

>  <m_score__min__energy>  (31) 
-6.46

>  <m_primary>  (31) 
energy

$$$$
31:0
     RDKit          3D

 36 38  0  0  1  0  0  0  0  0999 V2000
   58.2470   24.2930   45.6790 C   0  0  0  0  0  0  0  0  0  0  0  0
   57.7800   25.2850   46.6050 O   0  0  0  0  0  0  0  0  0  0  0  0
   57.7720   26.6210   46.2250 C   0  0  0  0  0  0  0  0  0  0  0  0
   56.6660   27.1940   45.6250 C   0  0  0  0  0  0  0  0  0  0  0  0
   56.6410   28.5250   45.2410 C   0  0  0  0  0  0  0  0  0  0  0  0
   55.5830   29.1010   44.6580 N   0  0  0  0  0  0  0  0  0  0  0  0
   55.6060   30.4000   44.3030 C   0  0  0  0  0  0  0  0  0  0  0  0
   56.7030   31.1630   44.5240 N   0  0  0  0  0  0  0  0  0  0  0  0
   57.7840   30.6040   45.1100 C   0  0  0  0  0  0  0  0  0  0  0  0
   58.8480   31.2820   45.3420 N   0  0  0  0  0  0  0  0  0  0  0  0
   59.0200   31.9780   46.5630 C   0  0  0  0  0  0  0  0  0  0  0  0
   59.4070   31.3770   47.7370 C   0  0  0  0  0  0  0  0  0  0  0  0
   59.5600   32.1160   48.9100 C   0  0  0  0  0  0  0  0  0  0  0  0
   59.3110   33.4740   48.8620 C   0  0  0  0  0  0  0  0  0  0  0  0
   58.9200   34.1050   47.6930 C   0  0  0  0  0  0  0  0  0  0  0  0
   58.7770   33.3490   46.5480 C   0  0  0  0  0  0  0  0  0  0  0  0
   58.2390   34.2080   44.9330 Br  0  0  0  0  0  0  0  0  0  0  0  0
   57.7720   29.2740   45.4790 C   0  0  0  0  0  0  0  0  0  0  0  0
   58.8780   28.7040   46.0780 C   0  0  0  0  0  0  0  0  0  0  0  0
   58.8990   27.3780   46.4610 C   0  0  0  0  0  0  0  0  0  0  0  0
   59.9930   26.7740   47.0640 O   0  0  0  0  0  0  0  0  0  0  0  0
   60.4650   27.0770   48.3390 C   0  0  0  0  0  0  0  0  0  0  0  0
   58.6513   23.4341   46.2347 H   0  0  0  0  0  0  0  0  0  0  0  0
   57.4112   23.9597   45.0463 H   0  0  0  0  0  0  0  0  0  0  0  0
   59.0364   24.7248   45.0463 H   0  0  0  0  0  0  0  0  0  0  0  0
   55.7762   26.5724   45.4465 H   0  0  0  0  0  0  0  0  0  0  0  0
   54.7490   28.5090   44.4940 H   0  0  0  0  0  0  0  0  0  0  0  0
   54.7212   30.8476   43.8268 H   0  0  0  0  0  0  0  0  0  0  0  0
   59.5995   30.2941   47.7517 H   0  0  0  0  0  0  0  0  0  0  0  0
   59.8703   31.6310   49.8473 H   0  0  0  0  0  0  0  0  0  0  0  0
   59.4266   34.0711   49.7786 H   0  0  0  0  0  0  0  0  0  0  0  0
   58.7272   35.1879   47.6777 H   0  0  0  0  0  0  0  0  0  0  0  0
   59.7685   29.3249   46.2552 H   0  0  0  0  0  0  0  0  0  0  0  0
   59.7904   26.6439   49.0922 H   0  0  0  0  0  0  0  0  0  0  0  0
   61.4739   26.6574   48.4658 H   0  0  0  0  0  0  0  0  0  0  0  0
   60.5035   28.1690   48.4658 H   0  0  0  0  0  0  0  0  0  0  0  0
  1  2  1  0
  2  3  1  0
  3  4  2  0
  4  5  1  0
  5  6  1  0
  6  7  1  0
  7  8  2  0
  8  9  1  0
  9 10  2  0
 10 11  1  0
 11 12  2  0
 12 13  1  0
 13 14  2  0
 14 15  1  0
 15 16  2  0
 16 17  1  0
  9 18  1  0
 18 19  1  0
 19 20  2  0
 20 21  1  0
 21 22  1  0
 20  3  1  0
 18  5  2  0
 16 11  1  0
  1 23  1  0
  1 24  1  0
  1 25  1  0
  4 26  1  0
  6 27  1  0
  7 28  1  0
 12 29  1  0
 13 30  1  0
 14 31  1  0
 15 32  1  0
 19 33  1  0
 22 34  1  0
 22 35  1  0
 22 36  1  0
M  END
>  <smiles>  (32) 
COc1cc2[nH]cnc(=Nc3ccccc3Br)c2cc1OC

>  <score_type>  (32) 
oracle

>  <origin>  (32) 
adg

>  <m_score__min__energy>  (32) 
-7.4199999999999999

>  <m_primary>  (32) 
energy

$$$$
32:0
     RDKit          3D

 33 34  0  0  0  0  0  0  0  0999 V2000
   56.7570   29.5110   42.7060 N   0  0  0  0  0  0  0  0  0  0  0  0
   56.3800   29.7610   44.3730 S   0  0  0  0  0  0  0  0  0  0  0  0
   55.5650   28.6070   44.8890 O   0  0  0  0  0  0  0  0  0  0  0  0
   55.5630   31.0170   44.4990 O   0  0  0  0  0  0  0  0  0  0  0  0
   57.8730   29.9000   45.3200 C   0  0  0  0  0  0  0  0  0  0  0  0
   58.5530   31.1290   45.3140 C   0  0  0  0  0  0  0  0  0  0  0  0
   59.7150   31.3050   46.0660 C   0  0  0  0  0  0  0  0  0  0  0  0
   60.2120   30.2590   46.8400 C   0  0  0  0  0  0  0  0  0  0  0  0
   59.5520   29.0310   46.8590 C   0  0  0  0  0  0  0  0  0  0  0  0
   58.3850   28.8270   46.1000 C   0  0  0  0  0  0  0  0  0  0  0  0
   57.7440   27.4600   46.1540 C   0  0  0  0  0  0  0  0  0  0  0  0
   58.1760   26.5090   44.7070 S   0  0  0  0  0  0  0  0  0  0  0  0
   57.7380   27.2630   43.2700 O   0  0  0  0  0  0  0  0  0  0  0  0
   57.5600   24.8690   44.7880 C   0  0  0  0  0  0  0  0  0  0  0  0
   57.3040   24.1540   43.6130 C   0  0  0  0  0  0  0  0  0  0  0  0
   56.8100   22.8500   43.6800 C   0  0  0  0  0  0  0  0  0  0  0  0
   56.5680   22.2500   44.9220 C   0  0  0  0  0  0  0  0  0  0  0  0
   55.9450   20.6060   44.9680 Cl  0  0  0  0  0  0  0  0  0  0  0  0
   56.8240   22.9670   46.1040 C   0  0  0  0  0  0  0  0  0  0  0  0
   56.5340   22.2520   47.6850 Cl  0  0  0  0  0  0  0  0  0  0  0  0
   57.3190   24.2740   46.0320 C   0  0  0  0  0  0  0  0  0  0  0  0
   57.7850   29.3400   42.6460 H   0  0  0  0  0  0  0  0  0  0  0  0
   56.2860   28.6240   42.4170 H   0  0  0  0  0  0  0  0  0  0  0  0
   58.1650   31.9622   44.7096 H   0  0  0  0  0  0  0  0  0  0  0  0
   60.2396   32.2717   46.0476 H   0  0  0  0  0  0  0  0  0  0  0  0
   61.1253   30.4018   47.4363 H   0  0  0  0  0  0  0  0  0  0  0  0
   59.9489   28.2109   47.4754 H   0  0  0  0  0  0  0  0  0  0  0  0
   58.0945   26.9311   47.0526 H   0  0  0  0  0  0  0  0  0  0  0  0
   56.6511   27.5808   46.1869 H   0  0  0  0  0  0  0  0  0  0  0  0
   56.7840   27.5010   43.3870 H   0  0  0  0  0  0  0  0  0  0  0  0
   57.4923   24.6202   42.6346 H   0  0  0  0  0  0  0  0  0  0  0  0
   56.6101   22.2916   42.7536 H   0  0  0  0  0  0  0  0  0  0  0  0
   57.5194   24.8358   46.9562 H   0  0  0  0  0  0  0  0  0  0  0  0
  1  2  1  0
  2  3  2  0
  2  4  2  0
  2  5  1  0
  5  6  2  0
  6  7  1  0
  7  8  2  0
  8  9  1  0
  9 10  2  0
 10 11  1  0
 11 12  1  0
 12 13  1  6
 12 14  1  0
 14 15  2  0
 15 16  1  0
 16 17  2  0
 17 18  1  0
 17 19  1  0
 19 20  1  0
 19 21  2  0
 10  5  1  0
 21 14  1  0
  1 22  1  0
  1 23  1  0
  6 24  1  0
  7 25  1  0
  8 26  1  0
  9 27  1  0
 11 28  1  0
 11 29  1  0
 13 30  1  0
 15 31  1  0
 16 32  1  0
 21 33  1  0
M  CHG  1  12   1
M  END
>  <UniqueID>  (33) 
29

>  <SMILES>  (33) 
NS(=O)(=O)c1ccccc1C[S@+](O)c1ccc(Cl)c(Cl)c1

>  <Energy>  (33) 
31.04776866980024

>  <Genealogy>  (33) 
NS(=O)(=O)c1ccccc1C[S+](O)c1ccc(Cl)c(Cl)c1 (protonated)
NS(=O)(=O)c1ccccc1C[S@+](O)c1ccc(Cl)c(Cl)c1 (chirality)
NS(=O)(=O)c1ccccc1C[S@+](O)c1ccc(Cl)c(Cl)c1 (3D coordinates assigned)
NS(=O)(=O)c1ccccc1C[S@+](O)c1ccc(Cl)c(Cl)c1 (optimized conformer: 31.04776866980024 kcal/mol)

>  <smiles>  (33) 
NS(=O)(=O)c1ccccc1C[S+]([O-])c1ccc(Cl)c(Cl)c1

>  <score_type>  (33) 
oracle

>  <origin>  (33) 
adg

>  <m_score__min__energy>  (33) 
-7.1699999999999999

>  <m_primary>  (33) 
energy

$$$$
33:0
     RDKit          3D

 34 36  0  0  0  0  0  0  0  0999 V2000
   56.1650   34.9300   45.6330 H   0  0  0  0  0  0  0  0  0  0  0  0
   56.6560   34.3890   44.8900 N   0  0  0  0  0  0  0  0  0  0  0  0
   57.6990   33.6450   45.1060 C   0  0  0  0  0  0  0  0  0  0  0  0
   57.6520   32.1580   44.9940 C   0  0  0  0  0  0  0  0  0  0  0  0
   56.6710   31.5050   44.2210 C   0  0  0  0  0  0  0  0  0  0  0  0
   55.9142   32.0971   43.6856 H   0  0  0  0  0  0  0  0  0  0  0  0
   56.6530   30.1120   44.1300 C   0  0  0  0  0  0  0  0  0  0  0  0
   55.8774   29.6121   43.5312 H   0  0  0  0  0  0  0  0  0  0  0  0
   57.6140   29.3520   44.7950 C   0  0  0  0  0  0  0  0  0  0  0  0
   57.5921   28.2545   44.7239 H   0  0  0  0  0  0  0  0  0  0  0  0
   58.6040   29.9820   45.5510 C   0  0  0  0  0  0  0  0  0  0  0  0
   59.3635   29.3782   46.0692 H   0  0  0  0  0  0  0  0  0  0  0  0
   58.6360   31.3850   45.6540 C   0  0  0  0  0  0  0  0  0  0  0  0
   59.6930   32.0540   46.4530 C   0  0  0  0  0  0  0  0  0  0  0  0
   60.6080   31.3700   46.9870 O   0  0  0  0  0  0  0  0  0  0  0  0
   59.6970   33.5360   46.5540 C   0  0  0  0  0  0  0  0  0  0  0  0
   60.3670   34.1960   47.4590 N   0  0  0  0  0  0  0  0  0  0  0  0
   61.6510   33.8690   48.0110 C   0  0  0  0  0  0  0  0  0  0  0  0
   61.8080   33.8370   49.4010 C   0  0  0  0  0  0  0  0  0  0  0  0
   60.9627   34.1032   50.0526 H   0  0  0  0  0  0  0  0  0  0  0  0
   63.0320   33.4690   49.9670 C   0  0  0  0  0  0  0  0  0  0  0  0
   63.1549   33.4756   51.0601 H   0  0  0  0  0  0  0  0  0  0  0  0
   64.1050   33.0910   49.1440 C   0  0  0  0  0  0  0  0  0  0  0  0
   65.4310   32.7320   49.7490 C   0  0  0  0  0  0  0  0  0  0  0  0
   65.3514   32.7535   50.8459 H   0  0  0  0  0  0  0  0  0  0  0  0
   65.7219   31.7228   49.4222 H   0  0  0  0  0  0  0  0  0  0  0  0
   66.1914   33.4566   49.4222 H   0  0  0  0  0  0  0  0  0  0  0  0
   63.9430   33.1050   47.7500 C   0  0  0  0  0  0  0  0  0  0  0  0
   64.7833   32.8242   47.0981 H   0  0  0  0  0  0  0  0  0  0  0  0
   62.7190   33.4740   47.1870 C   0  0  0  0  0  0  0  0  0  0  0  0
   62.5905   33.4554   46.0947 H   0  0  0  0  0  0  0  0  0  0  0  0
   58.9950   34.3100   45.4780 C   0  0  0  0  0  0  0  0  0  0  0  0
   59.6421   34.3625   44.5900 H   0  0  0  0  0  0  0  0  0  0  0  0
   58.7793   35.3215   45.8527 H   0  0  0  0  0  0  0  0  0  0  0  0
  1  2  1  0
  2  3  2  0
  3  4  1  0
  4  5  2  0
  5  6  1  0
  5  7  1  0
  7  8  1  0
  7  9  2  0
  9 10  1  0
  9 11  1  0
 11 12  1  0
 11 13  2  0
 13 14  1  0
 14 15  2  0
 14 16  1  0
 16 17  2  0
 17 18  1  0
 18 19  2  0
 19 20  1  0
 19 21  1  0
 21 22  1  0
 21 23  2  0
 23 24  1  0
 24 25  1  0
 24 26  1  0
 24 27  1  0
 23 28  1  0
 28 29  1  0
 28 30  2  0
 30 31  1  0
 16 32  1  0
 32 33  1  0
 32 34  1  0
 32  3  1  0
 13  4  1  0
 30 18  1  0
M  END
>  <UniqueID>  (34) 
30

>  <SMILES>  (34) 
[H]/N=C1/C/C(=N/c2ccc(C)cc2)C(=O)c2ccccc21

>  <Energy>  (34) 
50.48428920083966

>  <Genealogy>  (34) 
[H]/N=C1/C/C(=N/c2ccc(C)cc2)C(=O)c2ccccc21 (cis-trans isomerization)
[H]/N=C1/C/C(=N/c2ccc(C)cc2)C(=O)c2ccccc21 (3D coordinates assigned)
[H]/N=C1/C/C(=N/c2ccc(C)cc2)C(=O)c2ccccc21 (nonaromatic ring conformer: 50.48428920083966 kcal/mol)

>  <smiles>  (34) 
Cc1ccc(N=C2CC(=N)c3ccccc3C2=O)cc1

>  <score_type>  (34) 
oracle

>  <origin>  (34) 
adg

>  <m_score__min__energy>  (34) 
-7.7599999999999998

>  <m_primary>  (34) 
energy

$$$$
34:0
     RDKit          3D

 48 51  0  0  0  0  0  0  0  0999 V2000
   57.8534   32.0563   40.4433 H   0  0  0  0  0  0  0  0  0  0  0  0
   57.7510   31.9990   41.5370 C   0  0  0  0  0  0  0  0  0  0  0  0
   58.4330   32.8660   42.3270 N   0  0  0  0  0  0  0  0  0  0  0  0
   58.3320   32.8310   43.6810 C   0  0  0  0  0  0  0  0  0  0  0  0
   58.8990   33.5512   44.2892 H   0  0  0  0  0  0  0  0  0  0  0  0
   57.5080   31.8810   44.3120 C   0  0  0  0  0  0  0  0  0  0  0  0
   57.4410   31.8060   45.7480 N   0  0  0  0  0  0  0  0  0  0  0  0
   57.0270   30.9640   46.2070 H   0  0  0  0  0  0  0  0  0  0  0  0
   57.8910   33.1220   46.7830 S   0  0  0  0  0  0  0  0  0  0  0  0
   57.6740   34.4220   46.0590 O   0  0  0  0  0  0  0  0  0  0  0  0
   57.0300   33.0990   48.0150 O   0  0  0  0  0  0  0  0  0  0  0  0
   59.5950   32.9900   47.2050 C   0  0  0  0  0  0  0  0  0  0  0  0
   60.3540   31.8900   46.7810 C   0  0  0  0  0  0  0  0  0  0  0  0
   59.8802   31.0899   46.1933 H   0  0  0  0  0  0  0  0  0  0  0  0
   61.7130   31.8080   47.1040 C   0  0  0  0  0  0  0  0  0  0  0  0
   62.3028   30.9401   46.7740 H   0  0  0  0  0  0  0  0  0  0  0  0
   62.3270   32.8280   47.8470 C   0  0  0  0  0  0  0  0  0  0  0  0
   63.7750   32.7160   48.2190 C   0  0  0  0  0  0  0  0  0  0  0  0
   63.8726   32.7085   49.3146 H   0  0  0  0  0  0  0  0  0  0  0  0
   64.1882   31.7832   47.8077 H   0  0  0  0  0  0  0  0  0  0  0  0
   64.3267   33.5742   47.8077 H   0  0  0  0  0  0  0  0  0  0  0  0
   61.5610   33.9200   48.2830 C   0  0  0  0  0  0  0  0  0  0  0  0
   62.0301   34.7142   48.8824 H   0  0  0  0  0  0  0  0  0  0  0  0
   60.2030   34.0020   47.9580 C   0  0  0  0  0  0  0  0  0  0  0  0
   59.6102   34.8650   48.2953 H   0  0  0  0  0  0  0  0  0  0  0  0
   56.7960   30.9660   43.5040 C   0  0  0  0  0  0  0  0  0  0  0  0
   55.8840   29.9570   44.0890 C   0  0  0  0  0  0  0  0  0  0  0  0
   54.7870   29.7230   43.5170 O   0  0  0  0  0  0  0  0  0  0  0  0
   56.2350   29.1880   45.2520 N   0  0  0  0  0  0  0  0  0  0  0  0
   57.4400   28.9500   45.6770 C   0  0  0  0  0  0  0  0  0  0  0  0
   57.8330   29.0800   46.9620 N   0  0  0  0  0  0  0  0  0  0  0  0
   59.1420   28.7490   47.1360 C   0  0  0  0  0  0  0  0  0  0  0  0
   59.7820   28.8360   48.4770 C   0  0  0  0  0  0  0  0  0  0  0  0
   60.4880   27.7500   49.0350 C   0  0  0  0  0  0  0  0  0  0  0  0
   60.5777   26.8099   48.4710 H   0  0  0  0  0  0  0  0  0  0  0  0
   61.0750   27.8590   50.3000 C   0  0  0  0  0  0  0  0  0  0  0  0
   61.6230   27.0056   50.7260 H   0  0  0  0  0  0  0  0  0  0  0  0
   60.9670   29.0480   51.0230 C   0  0  0  0  0  0  0  0  0  0  0  0
   61.4303   29.1305   52.0172 H   0  0  0  0  0  0  0  0  0  0  0  0
   60.2720   30.1320   50.4860 C   0  0  0  0  0  0  0  0  0  0  0  0
   60.1880   31.0684   51.0571 H   0  0  0  0  0  0  0  0  0  0  0  0
   59.6820   30.0290   49.2220 C   0  0  0  0  0  0  0  0  0  0  0  0
   59.1346   30.8872   48.8050 H   0  0  0  0  0  0  0  0  0  0  0  0
   59.7900   28.3400   45.9640 C   0  0  0  0  0  0  0  0  0  0  0  0
   60.8427   28.0310   45.8844 H   0  0  0  0  0  0  0  0  0  0  0  0
   58.6820   28.4020   44.6970 S   0  0  0  0  0  0  0  0  0  0  0  0
   56.9210   31.0360   42.1080 C   0  0  0  0  0  0  0  0  0  0  0  0
   56.3666   30.3342   41.4676 H   0  0  0  0  0  0  0  0  0  0  0  0
  1  2  1  0
  2  3  2  0
  3  4  1  0
  4  5  1  0
  4  6  2  0
  6  7  1  0
  7  8  1  0
  7  9  1  0
  9 10  2  0
  9 11  2  0
  9 12  1  0
 12 13  2  0
 13 14  1  0
 13 15  1  0
 15 16  1  0
 15 17  2  0
 17 18  1  0
 18 19  1  0
 18 20  1  0
 18 21  1  0
 17 22  1  0
 22 23  1  0
 22 24  2  0
 24 25  1  0
  6 26  1  0
 26 27  1  0
 27 28  2  0
 27 29  1  0
 29 30  2  0
 30 31  1  0
 31 32  1  0
 32 33  1  0
 33 34  2  0
 34 35  1  0
 34 36  1  0
 36 37  1  0
 36 38  2  0
 38 39  1  0
 38 40  1  0
 40 41  1  0
 40 42  2  0
 42 43  1  0
 32 44  2  0
 44 45  1  0
 44 46  1  0
 26 47  2  0
 47 48  1  0
 47  2  1  0
 24 12  1  0
 46 30  1  0
 42 33  1  0
M  CHG  1  31  -1
M  END
>  <UniqueID>  (35) 
31

>  <SMILES>  (35) 
Cc1ccc(S(=O)(=O)Nc2cnccc2C(=O)/N=c2\[n-]c(-c3ccccc3)cs2)cc1

>  <Energy>  (35) 
96.27855490450759

>  <Genealogy>  (35) 
Cc1ccc(S(=O)(=O)Nc2cnccc2C(=O)N=c2[n-]c(-c3ccccc3)cs2)cc1 (protonated)
Cc1ccc(S(=O)(=O)Nc2cnccc2C(=O)/N=c2\[n-]c(-c3ccccc3)cs2)cc1 (cis-trans isomerization)
Cc1ccc(S(=O)(=O)Nc2cnccc2C(=O)/N=c2\[n-]c(-c3ccccc3)cs2)cc1 (3D coordinates assigned)
Cc1ccc(S(=O)(=O)Nc2cnccc2C(=O)/N=c2\[n-]c(-c3ccccc3)cs2)cc1 (optimized conformer: 96.27855490450759 kcal/mol)

>  <smiles>  (35) 
Cc1ccc(S(=O)(=O)Nc2cnccc2C(=O)N=c2[nH]c(-c3ccccc3)cs2)cc1

>  <score_type>  (35) 
oracle

>  <origin>  (35) 
adg

>  <m_score__min__energy>  (35) 
-11.42

>  <m_primary>  (35) 
energy

$$$$
35:0
     RDKit          3D

 28 29  0  0  0  0  0  0  0  0999 V2000
   59.4803   26.7818   45.2774 H   0  0  0  0  0  0  0  0  0  0  0  0
   58.8550   27.6470   45.0120 C   0  0  0  0  0  0  0  0  0  0  0  0
   58.6130   29.0150   45.9580 S   0  0  0  0  0  0  0  0  0  0  0  0
   57.5930   29.7520   44.8350 C   0  0  0  0  0  0  0  0  0  0  0  0
   57.0110   30.9080   44.9820 N   0  0  0  0  0  0  0  0  0  0  0  0
   57.5100   32.1630   44.5000 C   0  0  0  0  0  0  0  0  0  0  0  0
   57.4020   32.4230   43.2730 O   0  0  0  0  0  0  0  0  0  0  0  0
   58.2080   33.1230   45.3910 C   0  0  0  0  0  0  0  0  0  0  0  0
   58.2210   32.9320   46.7850 C   0  0  0  0  0  0  0  0  0  0  0  0
   57.7026   32.0665   47.2233 H   0  0  0  0  0  0  0  0  0  0  0  0
   58.8890   33.8360   47.6160 C   0  0  0  0  0  0  0  0  0  0  0  0
   58.8894   33.6831   48.7053 H   0  0  0  0  0  0  0  0  0  0  0  0
   59.5560   34.9330   47.0660 C   0  0  0  0  0  0  0  0  0  0  0  0
   60.0769   35.6460   47.7220 H   0  0  0  0  0  0  0  0  0  0  0  0
   59.5610   35.1240   45.6820 C   0  0  0  0  0  0  0  0  0  0  0  0
   60.0913   35.9850   45.2490 H   0  0  0  0  0  0  0  0  0  0  0  0
   58.8940   34.2240   44.8460 C   0  0  0  0  0  0  0  0  0  0  0  0
   58.9054   34.3772   43.7568 H   0  0  0  0  0  0  0  0  0  0  0  0
   57.4040   28.9590   43.7480 N   0  0  0  0  0  0  0  0  0  0  0  0
   56.5930   29.3370   42.5850 C   0  0  0  0  0  0  0  0  0  0  0  0
   55.6453   29.7787   42.9268 H   0  0  0  0  0  0  0  0  0  0  0  0
   57.1423   30.0719   41.9782 H   0  0  0  0  0  0  0  0  0  0  0  0
   56.3834   28.4438   41.9782 H   0  0  0  0  0  0  0  0  0  0  0  0
   58.1260   27.7980   43.8320 C   0  0  0  0  0  0  0  0  0  0  0  0
   58.1220   26.7480   42.7610 C   0  0  0  0  0  0  0  0  0  0  0  0
   58.1182   25.7508   43.2252 H   0  0  0  0  0  0  0  0  0  0  0  0
   57.2243   26.8650   42.1362 H   0  0  0  0  0  0  0  0  0  0  0  0
   59.0206   26.8582   42.1362 H   0  0  0  0  0  0  0  0  0  0  0  0
  1  2  1  0
  2  3  1  0
  3  4  1  0
  4  5  2  0
  5  6  1  0
  6  7  2  0
  6  8  1  0
  8  9  2  0
  9 10  1  0
  9 11  1  0
 11 12  1  0
 11 13  2  0
 13 14  1  0
 13 15  1  0
 15 16  1  0
 15 17  2  0
 17 18  1  0
  4 19  1  0
 19 20  1  0
 20 21  1  0
 20 22  1  0
 20 23  1  0
 19 24  1  0
 24 25  1  0
 25 26  1  0
 25 27  1  0
 25 28  1  0
 24  2  2  0
 17  8  1  0
M  END
>  <UniqueID>  (36) 
32

>  <SMILES>  (36) 
Cc1cs/c(=N\C(=O)c2ccccc2)n1C

>  <Energy>  (36) 
66.90619724123816

>  <Genealogy>  (36) 
Cc1cs/c(=N\C(=O)c2ccccc2)n1C (cis-trans isomerization)
Cc1cs/c(=N\C(=O)c2ccccc2)n1C (3D coordinates assigned)
Cc1cs/c(=N\C(=O)c2ccccc2)n1C (optimized conformer: 66.90619724123816 kcal/mol)

>  <smiles>  (36) 
Cc1csc(=NC(=O)c2ccccc2)n1C

>  <score_type>  (36) 
oracle

>  <origin>  (36) 
adg

>  <m_score__min__energy>  (36) 
-6.5099999999999998

>  <m_primary>  (36) 
energy

$$$$
36:0
     RDKit          3D

 49 53  0  0  1  0  0  0  0  0999 V2000
   61.4080   28.0100   51.2160 N   0  0  0  0  0  0  0  0  0  0  0  0
   60.8720   28.1410   50.1930 C   0  0  0  0  0  0  0  0  0  0  0  0
   60.2290   28.2990   48.9170 C   0  0  0  0  0  0  0  0  0  0  0  0
   59.7740   29.5200   48.4520 C   0  0  0  0  0  0  0  0  0  0  0  0
   59.1720   29.6250   47.2390 N   0  0  0  0  0  0  0  0  0  0  0  0
   59.0160   28.5290   46.4810 C   0  0  0  0  0  0  0  0  0  0  0  0
   59.4640   27.3050   46.9310 C   0  0  0  0  0  0  0  0  0  0  0  0
   59.1630   26.3960   45.9440 C   0  0  0  0  0  0  0  0  0  0  0  0
   58.5550   27.0850   44.9500 N   0  0  0  0  0  0  0  0  0  0  0  0
   58.4640   28.3620   45.2640 N   0  0  0  0  0  0  0  0  0  0  0  0
   57.8660   29.3300   44.4050 C   0  0  0  0  0  0  0  0  0  0  0  0
   58.1620   30.6770   44.5070 C   0  0  0  0  0  0  0  0  0  0  0  0
   57.5340   31.5510   43.6280 C   0  0  0  0  0  0  0  0  0  0  0  0
   57.7820   32.8330   43.6860 N   0  0  0  0  0  0  0  0  0  0  0  0
   58.1780   33.3390   44.9570 C   0  0  0  0  0  0  0  0  0  0  0  0
   57.3200   33.5120   46.0260 C   0  0  0  0  0  0  0  0  0  0  0  0
   57.9970   34.0040   47.0760 N   0  0  0  0  0  0  0  0  0  0  0  0
   59.2660   34.1410   46.6750 N   0  0  0  0  0  0  0  0  0  0  0  0
   60.3500   34.6400   47.4720 C   0  0  0  0  0  0  0  0  0  0  0  0
   61.5830   33.8770   47.3350 C   0  0  0  0  0  0  0  0  0  0  0  0
   62.3160   34.2010   46.3090 O   0  0  0  0  0  0  0  0  0  0  0  0
   62.1170   32.8470   48.1170 N   0  0  0  0  0  0  0  0  0  0  0  0
   63.4140   32.2270   47.7510 C   0  0  0  0  0  0  0  0  0  0  0  0
   64.0820   32.1390   49.1080 C   0  0  0  0  0  0  0  0  0  0  0  0
   62.9410   31.4770   49.8940 C   0  0  0  0  0  0  0  0  0  0  0  0
   61.7020   32.1430   49.2960 C   0  0  0  0  0  0  0  0  0  0  0  0
   59.4030   33.7460   45.3980 C   0  0  0  0  0  0  0  0  0  0  0  0
   56.6730   31.0710   42.7200 N   0  0  0  0  0  0  0  0  0  0  0  0
   56.3930   29.7580   42.6290 C   0  0  0  0  0  0  0  0  0  0  0  0
   56.9930   28.8960   43.4750 N   0  0  0  0  0  0  0  0  0  0  0  0
   60.0830   27.1380   48.1550 C   0  0  0  0  0  0  0  0  0  0  0  0
   59.9016   30.4186   49.0735 H   0  0  0  0  0  0  0  0  0  0  0  0
   59.3754   25.3168   45.9593 H   0  0  0  0  0  0  0  0  0  0  0  0
   58.8730   31.0454   45.2611 H   0  0  0  0  0  0  0  0  0  0  0  0
   56.2445   33.2814   46.0181 H   0  0  0  0  0  0  0  0  0  0  0  0
   60.5506   35.6792   47.1722 H   0  0  0  0  0  0  0  0  0  0  0  0
   60.0380   34.5566   48.5235 H   0  0  0  0  0  0  0  0  0  0  0  0
   63.2746   31.2319   47.3035 H   0  0  0  0  0  0  0  0  0  0  0  0
   63.9881   32.7854   46.9970 H   0  0  0  0  0  0  0  0  0  0  0  0
   64.9848   31.5110   49.0835 H   0  0  0  0  0  0  0  0  0  0  0  0
   64.4486   33.0917   49.5178 H   0  0  0  0  0  0  0  0  0  0  0  0
   62.9252   30.3890   49.7325 H   0  0  0  0  0  0  0  0  0  0  0  0
   63.0260   31.6038   50.9834 H   0  0  0  0  0  0  0  0  0  0  0  0
   60.9548   31.3794   49.0339 H   0  0  0  0  0  0  0  0  0  0  0  0
   61.2467   32.8348   50.0200 H   0  0  0  0  0  0  0  0  0  0  0  0
   60.3349   33.7501   44.8136 H   0  0  0  0  0  0  0  0  0  0  0  0
   55.6827   29.3919   41.8731 H   0  0  0  0  0  0  0  0  0  0  0  0
   56.7510   27.8780   43.3780 H   0  0  0  0  0  0  0  0  0  0  0  0
   60.4367   26.1571   48.5053 H   0  0  0  0  0  0  0  0  0  0  0  0
  1  2  3  0
  2  3  1  0
  3  4  2  0
  4  5  1  0
  5  6  2  0
  6  7  1  0
  7  8  1  0
  8  9  2  0
  9 10  1  0
 10 11  1  0
 11 12  2  0
 12 13  1  0
 13 14  2  0
 14 15  1  0
 15 16  1  0
 16 17  2  0
 17 18  1  0
 18 19  1  0
 19 20  1  0
 20 21  2  0
 20 22  1  0
 22 23  1  0
 23 24  1  0
 24 25  1  0
 25 26  1  0
 18 27  1  0
 13 28  1  0
 28 29  2  0
 29 30  1  0
  7 31  2  0
 31  3  1  0
 10  6  1  0
 30 11  1  0
 27 15  2  0
 26 22  1  0
  4 32  1  0
  8 33  1  0
 12 34  1  0
 16 35  1  0
 19 36  1  0
 19 37  1  0
 23 38  1  0
 23 39  1  0
 24 40  1  0
 24 41  1  0
 25 42  1  0
 25 43  1  0
 26 44  1  0
 26 45  1  0
 27 46  1  0
 29 47  1  0
 30 48  1  0
 31 49  1  0
M  END
>  <smiles>  (37) 
N#Cc1cnc2c(cnn2-c2cc(=Nc3cnn(CC(=O)N4CCCC4)c3)nc[nH]2)c1

>  <score_type>  (37) 
oracle

>  <origin>  (37) 
adg

>  <m_score__min__energy>  (37) 
-9.2699999999999996

>  <m_primary>  (37) 
energy

$$$$
37:0
     RDKit          3D

 38 40  0  0  0  0  0  0  0  0999 V2000
   55.4700   29.3980   44.8690 O   0  0  0  0  0  0  0  0  0  0  0  0
   56.7020   29.1780   44.7430 C   0  0  0  0  0  0  0  0  0  0  0  0
   57.3220   27.8770   45.0640 C   0  0  0  0  0  0  0  0  0  0  0  0
   58.8090   28.1100   44.7700 C   0  0  0  0  0  0  0  0  0  0  0  0
   58.9860   29.6150   44.4970 C   0  0  0  0  0  0  0  0  0  0  0  0
   57.6470   30.1660   44.3620 N   0  0  0  0  0  0  0  0  0  0  0  0
   57.3980   31.5450   44.0260 C   0  0  0  0  0  0  0  0  0  0  0  0
   57.4070   31.8900   42.8140 O   0  0  0  0  0  0  0  0  0  0  0  0
   57.0330   32.5770   45.0600 C   0  0  0  0  0  0  0  0  0  0  0  0
   58.2420   33.2490   45.5700 N   0  0  0  0  0  0  0  0  0  0  0  0
   58.4940   34.5350   45.1800 C   0  0  0  0  0  0  0  0  0  0  0  0
   59.6060   35.2240   45.6630 C   0  0  0  0  0  0  0  0  0  0  0  0
   60.4680   34.5950   46.5550 C   0  0  0  0  0  0  0  0  0  0  0  0
   60.2230   33.2760   46.9580 C   0  0  0  0  0  0  0  0  0  0  0  0
   61.0980   32.6390   47.9120 N   0  0  0  0  0  0  0  0  0  0  0  0
   62.4170   32.4320   47.2940 C   0  0  0  0  0  0  0  0  0  0  0  0
   63.5800   32.3010   48.2690 C   0  0  0  0  0  0  0  0  0  0  0  0
   63.3800   33.5930   47.4880 C   0  0  0  0  0  0  0  0  0  0  0  0
   59.0800   32.6150   46.4580 C   0  0  0  0  0  0  0  0  0  0  0  0
   58.8300   31.4370   46.8360 O   0  0  0  0  0  0  0  0  0  0  0  0
   57.1658   27.6167   46.1213 H   0  0  0  0  0  0  0  0  0  0  0  0
   56.8954   27.0437   44.4864 H   0  0  0  0  0  0  0  0  0  0  0  0
   59.4165   27.8097   45.6364 H   0  0  0  0  0  0  0  0  0  0  0  0
   59.1352   27.5141   43.9048 H   0  0  0  0  0  0  0  0  0  0  0  0
   59.5125   30.0947   45.3353 H   0  0  0  0  0  0  0  0  0  0  0  0
   59.5831   29.7891   43.5897 H   0  0  0  0  0  0  0  0  0  0  0  0
   56.3678   33.3256   44.6048 H   0  0  0  0  0  0  0  0  0  0  0  0
   56.5249   32.0764   45.8974 H   0  0  0  0  0  0  0  0  0  0  0  0
   57.8107   35.0326   44.4761 H   0  0  0  0  0  0  0  0  0  0  0  0
   59.8000   36.2577   45.3408 H   0  0  0  0  0  0  0  0  0  0  0  0
   61.3439   35.1344   46.9448 H   0  0  0  0  0  0  0  0  0  0  0  0
   60.6690   31.7420   48.2440 H   0  0  0  0  0  0  0  0  0  0  0  0
   61.2160   33.2490   48.7520 H   0  0  0  0  0  0  0  0  0  0  0  0
   62.0566   31.8425   46.4381 H   0  0  0  0  0  0  0  0  0  0  0  0
   63.3900   32.2778   49.3522 H   0  0  0  0  0  0  0  0  0  0  0  0
   64.4099   31.5910   48.3997 H   0  0  0  0  0  0  0  0  0  0  0  0
   63.0461   34.5034   48.0074 H   0  0  0  0  0  0  0  0  0  0  0  0
   64.0066   34.2031   46.8209 H   0  0  0  0  0  0  0  0  0  0  0  0
  1  2  2  0
  2  3  1  0
  3  4  1  0
  4  5  1  0
  5  6  1  0
  6  7  1  0
  7  8  2  0
  7  9  1  0
  9 10  1  0
 10 11  1  0
 11 12  2  0
 12 13  1  0
 13 14  2  0
 14 15  1  0
 15 16  1  0
 16 17  1  0
 17 18  1  0
 14 19  1  0
 19 20  2  0
  6  2  1  0
 19 10  1  0
 18 16  1  0
  3 21  1  0
  3 22  1  0
  4 23  1  0
  4 24  1  0
  5 25  1  0
  5 26  1  0
  9 27  1  0
  9 28  1  0
 11 29  1  0
 12 30  1  0
 13 31  1  0
 15 32  1  0
 15 33  1  0
 16 34  1  0
 17 35  1  0
 17 36  1  0
 18 37  1  0
 18 38  1  0
M  CHG  1  15   1
M  END
>  <UniqueID>  (38) 
33

>  <SMILES>  (38) 
O=C1CCCN1C(=O)Cn1cccc([NH2+]C2CC2)c1=O

>  <Energy>  (38) 
316.1012831485932

>  <Genealogy>  (38) 
O=C1CCCN1C(=O)Cn1cccc([NH2+]C2CC2)c1=O (protonated)
O=C1CCCN1C(=O)Cn1cccc([NH2+]C2CC2)c1=O (3D coordinates assigned)
O=C1CCCN1C(=O)Cn1cccc([NH2+]C2CC2)c1=O (nonaromatic ring conformer: 316.1012831485932 kcal/mol)

>  <smiles>  (38) 
O=C1CCCN1C(=O)Cn1cccc(NC2CC2)c1=O

>  <score_type>  (38) 
oracle

>  <origin>  (38) 
adg

>  <m_score__min__energy>  (38) 
-5.6500000000000004

>  <m_primary>  (38) 
energy

$$$$
38:0
     RDKit          3D

 30 31  0  0  0  0  0  0  0  0999 V2000
   57.7338   32.0922   42.5039 H   0  0  0  0  0  0  0  0  0  0  0  0
   57.3860   31.4070   43.2910 C   0  0  0  0  0  0  0  0  0  0  0  0
   56.5720   29.9560   43.0450 S   0  0  0  0  0  0  0  0  0  0  0  0
   56.4540   29.6200   44.6920 C   0  0  0  0  0  0  0  0  0  0  0  0
   55.8980   28.5760   45.2360 N   0  0  0  0  0  0  0  0  0  0  0  0
   56.5380   27.3570   45.6470 C   0  0  0  0  0  0  0  0  0  0  0  0
   55.9140   26.4760   46.2990 O   0  0  0  0  0  0  0  0  0  0  0  0
   57.9830   27.1350   45.2910 C   0  0  0  0  0  0  0  0  0  0  0  0
   58.5550   28.0295   45.5786 H   0  0  0  0  0  0  0  0  0  0  0  0
   58.5500   25.9410   46.0640 C   0  0  0  0  0  0  0  0  0  0  0  0
   58.4612   26.1280   47.1443 H   0  0  0  0  0  0  0  0  0  0  0  0
   57.9868   25.0333   45.8015 H   0  0  0  0  0  0  0  0  0  0  0  0
   59.6094   25.8039   45.8015 H   0  0  0  0  0  0  0  0  0  0  0  0
   58.1410   26.9370   43.7800 C   0  0  0  0  0  0  0  0  0  0  0  0
   58.8168   26.0901   43.5899 H   0  0  0  0  0  0  0  0  0  0  0  0
   57.1578   26.7292   43.3326 H   0  0  0  0  0  0  0  0  0  0  0  0
   58.5619   27.8495   43.3326 H   0  0  0  0  0  0  0  0  0  0  0  0
   57.0240   30.5910   45.4340 N   0  0  0  0  0  0  0  0  0  0  0  0
   57.5450   31.5930   44.6690 C   0  0  0  0  0  0  0  0  0  0  0  0
   58.2270   32.7610   45.2860 C   0  0  0  0  0  0  0  0  0  0  0  0
   58.4890   32.7690   46.6700 C   0  0  0  0  0  0  0  0  0  0  0  0
   58.1884   31.9087   47.2861 H   0  0  0  0  0  0  0  0  0  0  0  0
   59.1270   33.8590   47.2680 C   0  0  0  0  0  0  0  0  0  0  0  0
   59.3269   33.8522   48.3497 H   0  0  0  0  0  0  0  0  0  0  0  0
   59.5110   34.9560   46.4960 C   0  0  0  0  0  0  0  0  0  0  0  0
   60.0158   35.8116   46.9683 H   0  0  0  0  0  0  0  0  0  0  0  0
   59.2540   34.9670   45.1230 C   0  0  0  0  0  0  0  0  0  0  0  0
   59.5548   35.8332   44.5154 H   0  0  0  0  0  0  0  0  0  0  0  0
   58.6150   33.8790   44.5190 C   0  0  0  0  0  0  0  0  0  0  0  0
   58.4137   33.8956   43.4377 H   0  0  0  0  0  0  0  0  0  0  0  0
  1  2  1  0
  2  3  1  0
  3  4  1  0
  4  5  2  0
  5  6  1  0
  6  7  2  0
  6  8  1  0
  8  9  1  0
  8 10  1  0
 10 11  1  0
 10 12  1  0
 10 13  1  0
  8 14  1  0
 14 15  1  0
 14 16  1  0
 14 17  1  0
  4 18  1  0
 18 19  1  0
 19 20  1  0
 20 21  2  0
 21 22  1  0
 21 23  1  0
 23 24  1  0
 23 25  2  0
 25 26  1  0
 25 27  1  0
 27 28  1  0
 27 29  2  0
 29 30  1  0
 19  2  2  0
 29 20  1  0
M  CHG  1  18  -1
M  END
>  <UniqueID>  (39) 
34

>  <SMILES>  (39) 
CC(C)C(=O)/N=c1/[n-]c(-c2ccccc2)cs1

>  <Energy>  (39) 
60.812665394094886

>  <Genealogy>  (39) 
CC(C)C(=O)N=c1[n-]c(-c2ccccc2)cs1 (protonated)
CC(C)C(=O)/N=c1/[n-]c(-c2ccccc2)cs1 (cis-trans isomerization)
CC(C)C(=O)/N=c1/[n-]c(-c2ccccc2)cs1 (3D coordinates assigned)
CC(C)C(=O)/N=c1/[n-]c(-c2ccccc2)cs1 (optimized conformer: 60.812665394094886 kcal/mol)

>  <smiles>  (39) 
CC(C)C(=O)N=c1[nH]c(-c2ccccc2)cs1

>  <score_type>  (39) 
oracle

>  <origin>  (39) 
adg

>  <m_score__min__energy>  (39) 
-9.4499999999999993

>  <m_primary>  (39) 
energy

$$$$
39:0
     RDKit          3D

 63 67  0  0  0  0  0  0  0  0999 V2000
   54.8310   29.4940   52.6500 C   0  0  0  0  0  0  0  0  0  0  0  0
   55.0440   30.8720   52.0230 C   0  0  0  0  0  0  0  0  0  0  0  0
   56.4480   31.4340   52.2930 C   0  0  0  0  0  0  0  0  0  0  0  0
   57.4100   31.0860   51.1970 C   0  0  0  0  0  0  0  0  0  0  0  0
   57.9110   29.8270   51.1090 N   0  0  0  0  0  0  0  0  0  0  0  0
   58.7980   29.4900   50.1410 C   0  0  0  0  0  0  0  0  0  0  0  0
   59.2120   30.4400   49.1990 C   0  0  0  0  0  0  0  0  0  0  0  0
   60.2620   30.0700   48.1700 C   0  0  0  0  0  0  0  0  0  0  0  0
   61.4670   30.9730   48.2640 C   0  0  0  0  0  0  0  0  0  0  0  0
   61.9730   31.6060   47.1150 C   0  0  0  0  0  0  0  0  0  0  0  0
   63.0590   32.4820   47.2120 C   0  0  0  0  0  0  0  0  0  0  0  0
   63.6560   32.7210   48.4520 C   0  0  0  0  0  0  0  0  0  0  0  0
   63.1740   32.0790   49.5960 C   0  0  0  0  0  0  0  0  0  0  0  0
   62.0880   31.2050   49.5040 C   0  0  0  0  0  0  0  0  0  0  0  0
   58.6570   31.7380   49.2900 C   0  0  0  0  0  0  0  0  0  0  0  0
   59.0220   32.8050   48.3420 C   0  0  0  0  0  0  0  0  0  0  0  0
   59.7390   33.9250   48.7840 C   0  0  0  0  0  0  0  0  0  0  0  0
   60.0180   34.9700   47.9010 C   0  0  0  0  0  0  0  0  0  0  0  0
   59.5870   34.9000   46.5760 C   0  0  0  0  0  0  0  0  0  0  0  0
   58.8950   33.7750   46.1080 C   0  0  0  0  0  0  0  0  0  0  0  0
   58.5120   33.7560   44.7580 O   0  0  0  0  0  0  0  0  0  0  0  0
   57.4620   32.9720   44.1870 C   0  0  0  0  0  0  0  0  0  0  0  0
   58.0130   31.7120   43.5110 C   0  0  0  0  0  0  0  0  0  0  0  0
   57.4810   30.4530   44.1330 C   0  0  0  0  0  0  0  0  0  0  0  0
   56.1400   30.1300   44.3140 C   0  0  0  0  0  0  0  0  0  0  0  0
   56.0240   28.9600   44.9830 N   0  0  0  0  0  0  0  0  0  0  0  0
   57.2780   28.5510   45.2410 C   0  0  0  0  0  0  0  0  0  0  0  0
   57.6650   27.4200   45.9580 C   0  0  0  0  0  0  0  0  0  0  0  0
   59.0420   27.2000   46.1450 C   0  0  0  0  0  0  0  0  0  0  0  0
   59.9890   28.1050   45.6150 C   0  0  0  0  0  0  0  0  0  0  0  0
   59.5700   29.2380   44.8960 C   0  0  0  0  0  0  0  0  0  0  0  0
   58.1970   29.4320   44.7300 C   0  0  0  0  0  0  0  0  0  0  0  0
   58.6120   32.7240   47.0030 C   0  0  0  0  0  0  0  0  0  0  0  0
   57.7850   32.0270   50.2920 N   0  0  0  0  0  0  0  0  0  0  0  0
   54.8449   29.5838   53.7462 H   0  0  0  0  0  0  0  0  0  0  0  0
   53.8598   29.0905   52.3274 H   0  0  0  0  0  0  0  0  0  0  0  0
   55.6350   28.8161   52.3274 H   0  0  0  0  0  0  0  0  0  0  0  0
   54.9006   30.7901   50.9355 H   0  0  0  0  0  0  0  0  0  0  0  0
   54.3167   31.5606   52.4777 H   0  0  0  0  0  0  0  0  0  0  0  0
   56.3830   32.5290   52.3747 H   0  0  0  0  0  0  0  0  0  0  0  0
   56.8198   30.9879   53.2272 H   0  0  0  0  0  0  0  0  0  0  0  0
   59.1947   28.4650   50.0951 H   0  0  0  0  0  0  0  0  0  0  0  0
   60.5794   29.0307   48.3403 H   0  0  0  0  0  0  0  0  0  0  0  0
   59.8210   30.1843   47.1688 H   0  0  0  0  0  0  0  0  0  0  0  0
   61.5126   31.4113   46.1352 H   0  0  0  0  0  0  0  0  0  0  0  0
   63.4432   32.9830   46.3113 H   0  0  0  0  0  0  0  0  0  0  0  0
   64.5061   33.4150   48.5281 H   0  0  0  0  0  0  0  0  0  0  0  0
   63.6505   32.2621   50.5704 H   0  0  0  0  0  0  0  0  0  0  0  0
   61.7170   30.6960   50.4058 H   0  0  0  0  0  0  0  0  0  0  0  0
   60.0823   33.9809   49.8276 H   0  0  0  0  0  0  0  0  0  0  0  0
   60.5784   35.8496   48.2506 H   0  0  0  0  0  0  0  0  0  0  0  0
   59.7925   35.7364   45.8917 H   0  0  0  0  0  0  0  0  0  0  0  0
   56.7629   32.6752   44.9828 H   0  0  0  0  0  0  0  0  0  0  0  0
   56.9499   33.5789   43.4258 H   0  0  0  0  0  0  0  0  0  0  0  0
   57.7303   31.7283   42.4481 H   0  0  0  0  0  0  0  0  0  0  0  0
   59.1059   31.7135   43.6359 H   0  0  0  0  0  0  0  0  0  0  0  0
   55.2942   30.7394   43.9630 H   0  0  0  0  0  0  0  0  0  0  0  0
   55.1390   28.4810   45.2550 H   0  0  0  0  0  0  0  0  0  0  0  0
   56.9181   26.7222   46.3644 H   0  0  0  0  0  0  0  0  0  0  0  0
   59.3834   26.3183   46.7071 H   0  0  0  0  0  0  0  0  0  0  0  0
   61.0630   27.9214   45.7663 H   0  0  0  0  0  0  0  0  0  0  0  0
   60.2991   29.9479   44.4782 H   0  0  0  0  0  0  0  0  0  0  0  0
   58.0671   31.8360   46.6500 H   0  0  0  0  0  0  0  0  0  0  0  0
  1  2  1  0
  2  3  1  0
  3  4  1  0
  4  5  2  0
  5  6  1  0
  6  7  2  0
  7  8  1  0
  8  9  1  0
  9 10  2  0
 10 11  1  0
 11 12  2  0
 12 13  1  0
 13 14  2  0
  7 15  1  0
 15 16  1  0
 16 17  2  0
 17 18  1  0
 18 19  2  0
 19 20  1  0
 20 21  1  0
 21 22  1  0
 22 23  1  0
 23 24  1  0
 24 25  2  0
 25 26  1  0
 26 27  1  0
 27 28  2  0
 28 29  1  0
 29 30  2  0
 30 31  1  0
 31 32  2  0
 20 33  2  0
 15 34  2  0
 34  4  1  0
 14  9  1  0
 33 16  1  0
 32 24  1  0
 32 27  1  0
  1 35  1  0
  1 36  1  0
  1 37  1  0
  2 38  1  0
  2 39  1  0
  3 40  1  0
  3 41  1  0
  6 42  1  0
  8 43  1  0
  8 44  1  0
 10 45  1  0
 11 46  1  0
 12 47  1  0
 13 48  1  0
 14 49  1  0
 17 50  1  0
 18 51  1  0
 19 52  1  0
 22 53  1  0
 22 54  1  0
 23 55  1  0
 23 56  1  0
 25 57  1  0
 26 58  1  0
 28 59  1  0
 29 60  1  0
 30 61  1  0
 31 62  1  0
 33 63  1  0
M  END
>  <UniqueID>  (40) 
35

>  <SMILES>  (40) 
CCCc1ncc(Cc2ccccc2)c(-c2cccc(OCCc3c[nH]c4ccccc34)c2)n1

>  <Energy>  (40) 
94.96245333808986

>  <Genealogy>  (40) 
CCCc1ncc(Cc2ccccc2)c(-c2cccc(OCCc3c[nH]c4ccccc34)c2)n1 (3D coordinates assigned)
CCCc1ncc(Cc2ccccc2)c(-c2cccc(OCCc3c[nH]c4ccccc34)c2)n1 (optimized conformer: 94.96245333808986 kcal/mol)

>  <smiles>  (40) 
CCCc1ncc(Cc2ccccc2)c(-c2cccc(OCCc3c[nH]c4ccccc34)c2)n1

>  <score_type>  (40) 
oracle

>  <origin>  (40) 
adg

>  <m_score__min__energy>  (40) 
-10.85

>  <m_primary>  (40) 
energy

$$$$
40:0
     RDKit          3D

 24 25  0  0  0  0  0  0  0  0999 V2000
   56.5230   31.0346   42.0384 H   0  0  0  0  0  0  0  0  0  0  0  0
   57.0370   31.2100   42.9950 C   0  0  0  0  0  0  0  0  0  0  0  0
   56.8120   30.2310   44.0770 C   0  0  0  0  0  0  0  0  0  0  0  0
   55.6380   30.0900   44.5130 O   0  0  0  0  0  0  0  0  0  0  0  0
   57.8960   29.3670   44.6140 C   0  0  0  0  0  0  0  0  0  0  0  0
   58.0060   28.0120   44.2470 C   0  0  0  0  0  0  0  0  0  0  0  0
   57.2755   27.5722   43.5521 H   0  0  0  0  0  0  0  0  0  0  0  0
   59.0100   27.2450   44.7470 N   0  0  0  0  0  0  0  0  0  0  0  0
   59.9310   27.7460   45.6120 C   0  0  0  0  0  0  0  0  0  0  0  0
   60.7346   27.0995   45.9944 H   0  0  0  0  0  0  0  0  0  0  0  0
   59.8580   29.0790   46.0150 C   0  0  0  0  0  0  0  0  0  0  0  0
   60.5990   29.4886   46.7173 H   0  0  0  0  0  0  0  0  0  0  0  0
   58.8350   29.8880   45.5180 C   0  0  0  0  0  0  0  0  0  0  0  0
   58.7643   30.9386   45.8362 H   0  0  0  0  0  0  0  0  0  0  0  0
   57.8190   32.2970   43.0860 C   0  0  0  0  0  0  0  0  0  0  0  0
   58.2708   32.6726   42.1560 H   0  0  0  0  0  0  0  0  0  0  0  0
   58.1230   33.0300   44.3300 C   0  0  0  0  0  0  0  0  0  0  0  0
   57.1850   33.0870   45.7300 S   0  0  0  0  0  0  0  0  0  0  0  0
   58.1390   34.2000   46.5520 C   0  0  0  0  0  0  0  0  0  0  0  0
   57.9594   34.5765   47.5698 H   0  0  0  0  0  0  0  0  0  0  0  0
   59.1930   34.5620   45.7240 C   0  0  0  0  0  0  0  0  0  0  0  0
   59.9682   35.2848   46.0184 H   0  0  0  0  0  0  0  0  0  0  0  0
   59.1770   33.9210   44.4790 C   0  0  0  0  0  0  0  0  0  0  0  0
   59.9266   34.1056   43.6954 H   0  0  0  0  0  0  0  0  0  0  0  0
  1  2  1  0
  2  3  1  0
  3  4  2  0
  3  5  1  0
  5  6  2  0
  6  7  1  0
  6  8  1  0
  8  9  2  0
  9 10  1  0
  9 11  1  0
 11 12  1  0
 11 13  2  0
 13 14  1  0
  2 15  2  0
 15 16  1  0
 15 17  1  0
 17 18  1  0
 18 19  1  0
 19 20  1  0
 19 21  2  0
 21 22  1  0
 21 23  1  0
 23 24  1  0
 13  5  1  0
 23 17  2  0
M  END
>  <UniqueID>  (41) 
36

>  <SMILES>  (41) 
O=C(/C=C\c1cccs1)c1cccnc1

>  <Energy>  (41) 
60.90911092986728

>  <Genealogy>  (41) 
O=C(/C=C\c1cccs1)c1cccnc1 (cis-trans isomerization)
O=C(/C=C\c1cccs1)c1cccnc1 (3D coordinates assigned)
O=C(/C=C\c1cccs1)c1cccnc1 (optimized conformer: 60.90911092986728 kcal/mol)

>  <smiles>  (41) 
O=C(C=Cc1cccs1)c1cccnc1

>  <score_type>  (41) 
oracle

>  <origin>  (41) 
adg

>  <m_score__min__energy>  (41) 
-6.2400000000000002

>  <m_primary>  (41) 
energy

$$$$
41:0
     RDKit          3D

 31 33  0  0  0  0  0  0  0  0999 V2000
   59.8880   34.2260   44.5690 O   0  0  0  0  0  0  0  0  0  0  0  0
   59.7150   34.5910   46.0180 S   0  0  0  0  0  0  0  0  0  0  0  0
   59.6440   36.0890   46.1140 O   0  0  0  0  0  0  0  0  0  0  0  0
   61.1350   34.0560   46.9100 C   0  0  0  0  0  0  0  0  0  0  0  0
   62.3850   33.7840   46.3720 C   0  0  0  0  0  0  0  0  0  0  0  0
   63.3170   33.3770   47.3330 C   0  0  0  0  0  0  0  0  0  0  0  0
   62.8090   33.3430   48.6260 C   0  0  0  0  0  0  0  0  0  0  0  0
   61.1980   33.8220   48.5730 S   0  0  0  0  0  0  0  0  0  0  0  0
   58.2140   33.9220   46.6360 N   0  0  0  0  0  0  0  0  0  0  0  0
   57.1300   33.8870   45.6400 C   0  0  0  0  0  0  0  0  0  0  0  0
   57.3980   32.8850   44.5100 C   0  0  0  0  0  0  0  0  0  0  0  0
   57.9670   31.5840   45.0130 C   0  0  0  0  0  0  0  0  0  0  0  0
   58.0640   30.4970   44.1310 C   0  0  0  0  0  0  0  0  0  0  0  0
   58.6440   29.2970   44.5510 C   0  0  0  0  0  0  0  0  0  0  0  0
   59.1340   29.1740   45.8530 C   0  0  0  0  0  0  0  0  0  0  0  0
   59.0520   30.2530   46.7350 C   0  0  0  0  0  0  0  0  0  0  0  0
   58.4900   31.4700   46.3190 C   0  0  0  0  0  0  0  0  0  0  0  0
   58.4010   32.6180   47.2970 C   0  0  0  0  0  0  0  0  0  0  0  0
   62.6188   33.8785   45.3013 H   0  0  0  0  0  0  0  0  0  0  0  0
   64.3553   33.1089   47.0878 H   0  0  0  0  0  0  0  0  0  0  0  0
   63.3654   33.0525   49.5294 H   0  0  0  0  0  0  0  0  0  0  0  0
   56.1953   33.6047   46.1466 H   0  0  0  0  0  0  0  0  0  0  0  0
   57.0609   34.8875   45.1881 H   0  0  0  0  0  0  0  0  0  0  0  0
   56.4507   32.6779   43.9906 H   0  0  0  0  0  0  0  0  0  0  0  0
   58.1407   33.3348   43.8347 H   0  0  0  0  0  0  0  0  0  0  0  0
   57.6816   30.5899   43.1038 H   0  0  0  0  0  0  0  0  0  0  0  0
   58.7147   28.4481   43.8551 H   0  0  0  0  0  0  0  0  0  0  0  0
   59.5847   28.2266   46.1836 H   0  0  0  0  0  0  0  0  0  0  0  0
   59.4303   30.1487   47.7626 H   0  0  0  0  0  0  0  0  0  0  0  0
   57.5492   32.4404   47.9700 H   0  0  0  0  0  0  0  0  0  0  0  0
   59.3541   32.6594   47.8447 H   0  0  0  0  0  0  0  0  0  0  0  0
  1  2  2  0
  2  3  2  0
  2  4  1  0
  4  5  2  0
  5  6  1  0
  6  7  2  0
  7  8  1  0
  2  9  1  0
  9 10  1  0
 10 11  1  0
 11 12  1  0
 12 13  2  0
 13 14  1  0
 14 15  2  0
 15 16  1  0
 16 17  2  0
 17 18  1  0
  8  4  1  0
 18  9  1  0
 17 12  1  0
  5 19  1  0
  6 20  1  0
  7 21  1  0
 10 22  1  0
 10 23  1  0
 11 24  1  0
 11 25  1  0
 13 26  1  0
 14 27  1  0
 15 28  1  0
 16 29  1  0
 18 30  1  0
 18 31  1  0
M  END
>  <UniqueID>  (42) 
37

>  <SMILES>  (42) 
O=S(=O)(c1cccs1)N1CCc2ccccc2C1

>  <Energy>  (42) 
62.22137027776185

>  <Genealogy>  (42) 
O=S(=O)(c1cccs1)N1CCc2ccccc2C1 (3D coordinates assigned)
O=S(=O)(c1cccs1)N1CCc2ccccc2C1 (nonaromatic ring conformer: 62.22137027776185 kcal/mol)

>  <smiles>  (42) 
O=S(=O)(c1cccs1)N1CCc2ccccc2C1

>  <score_type>  (42) 
oracle

>  <origin>  (42) 
adg

>  <m_score__min__energy>  (42) 
-7.0899999999999999

>  <m_primary>  (42) 
energy

$$$$
42:0
     RDKit          3D

 23 24  0  0  0  0  0  0  0  0999 V2000
   56.0065   23.2404   46.1580 H   0  0  0  0  0  0  0  0  0  0  0  0
   55.9930   24.3400   46.1330 C   0  0  0  0  0  0  0  0  0  0  0  0
   57.0940   25.1060   46.2570 N   0  0  0  0  0  0  0  0  0  0  0  0
   56.5750   26.3450   46.1670 C   0  0  0  0  0  0  0  0  0  0  0  0
   57.5570   27.8400   46.2680 S   0  0  0  0  0  0  0  0  0  0  0  0
   57.3510   28.2630   44.5030 C   0  0  0  0  0  0  0  0  0  0  0  0
   57.0222   27.3678   43.9548 H   0  0  0  0  0  0  0  0  0  0  0  0
   58.3156   28.6212   44.1142 H   0  0  0  0  0  0  0  0  0  0  0  0
   56.3290   29.3520   44.3240 C   0  0  0  0  0  0  0  0  0  0  0  0
   55.1960   29.2260   44.8610 O   0  0  0  0  0  0  0  0  0  0  0  0
   56.6230   30.5620   43.6130 N   0  0  0  0  0  0  0  0  0  0  0  0
   57.2700   31.5930   44.0700 C   0  0  0  0  0  0  0  0  0  0  0  0
   57.2490   31.9270   45.3780 N   0  0  0  0  0  0  0  0  0  0  0  0
   57.9590   33.0650   45.6180 C   0  0  0  0  0  0  0  0  0  0  0  0
   58.0520   33.6590   46.9840 C   0  0  0  0  0  0  0  0  0  0  0  0
   57.9280   32.8671   47.7374 H   0  0  0  0  0  0  0  0  0  0  0  0
   59.0356   34.1349   47.1107 H   0  0  0  0  0  0  0  0  0  0  0  0
   57.2609   34.4128   47.1107 H   0  0  0  0  0  0  0  0  0  0  0  0
   58.5250   33.6610   44.4950 C   0  0  0  0  0  0  0  0  0  0  0  0
   59.1209   34.5855   44.4842 H   0  0  0  0  0  0  0  0  0  0  0  0
   58.1370   32.7180   43.1570 S   0  0  0  0  0  0  0  0  0  0  0  0
   55.2420   26.3410   45.9970 N   0  0  0  0  0  0  0  0  0  0  0  0
   54.8740   25.0720   45.9750 N   0  0  0  0  0  0  0  0  0  0  0  0
  1  2  1  0
  2  3  2  0
  3  4  1  0
  4  5  1  0
  5  6  1  0
  6  7  1  0
  6  8  1  0
  6  9  1  0
  9 10  2  0
  9 11  1  0
 11 12  2  0
 12 13  1  0
 13 14  1  0
 14 15  1  0
 15 16  1  0
 15 17  1  0
 15 18  1  0
 14 19  2  0
 19 20  1  0
 19 21  1  0
  4 22  2  0
 22 23  1  0
 23  2  1  0
 21 12  1  0
M  CHG  2  13  -1  23  -1
M  END
>  <UniqueID>  (43) 
38

>  <SMILES>  (43) 
Cc1cs/c(=N\C(=O)CSc2nc[n-]n2)[n-]1

>  <Energy>  (43) 
85.80540293102902

>  <Genealogy>  (43) 
Cc1csc(=NC(=O)CSc2nc[n-]n2)[n-]1 (protonated)
Cc1cs/c(=N\C(=O)CSc2nc[n-]n2)[n-]1 (cis-trans isomerization)
Cc1cs/c(=N\C(=O)CSc2nc[n-]n2)[n-]1 (3D coordinates assigned)
Cc1cs/c(=N\C(=O)CSc2nc[n-]n2)[n-]1 (optimized conformer: 85.80540293102902 kcal/mol)

>  <smiles>  (43) 
Cc1csc(=NC(=O)CSc2nc[nH]n2)[nH]1

>  <score_type>  (43) 
oracle

>  <origin>  (43) 
adg

>  <m_score__min__energy>  (43) 
-9.9600000000000009

>  <m_primary>  (43) 
energy

$$$$
43:0
     RDKit          3D

 38 40  0  0  0  0  0  0  0  0999 V2000
   62.0370   30.9550   47.1420 C   0  0  0  0  0  0  0  0  0  0  0  0
   61.0510   32.0920   47.1630 C   0  0  0  0  0  0  0  0  0  0  0  0
   61.4830   33.3520   47.6100 C   0  0  0  0  0  0  0  0  0  0  0  0
   60.5870   34.4200   47.6990 C   0  0  0  0  0  0  0  0  0  0  0  0
   59.2500   34.2410   47.3460 C   0  0  0  0  0  0  0  0  0  0  0  0
   58.8090   33.0020   46.8800 C   0  0  0  0  0  0  0  0  0  0  0  0
   59.7040   31.9300   46.7460 C   0  0  0  0  0  0  0  0  0  0  0  0
   59.2100   30.6890   46.2200 N   0  0  0  0  0  0  0  0  0  0  0  0
   57.9370   30.5320   45.5740 C   0  0  0  0  0  0  0  0  0  0  0  0
   57.3360   31.5210   44.9480 O   0  0  0  0  0  0  0  0  0  0  0  0
   56.1790   31.0960   44.4910 C   0  0  0  0  0  0  0  0  0  0  0  0
   56.0260   29.7700   44.8290 C   0  0  0  0  0  0  0  0  0  0  0  0
   54.9430   28.9660   44.4920 O   0  0  0  0  0  0  0  0  0  0  0  0
   57.1550   29.3820   45.5180 C   0  0  0  0  0  0  0  0  0  0  0  0
   57.4670   28.0200   45.9860 C   0  0  0  0  0  0  0  0  0  0  0  0
   58.3670   27.8500   46.8520 O   0  0  0  0  0  0  0  0  0  0  0  0
   56.7340   26.8970   45.4710 N   0  0  0  0  0  0  0  0  0  0  0  0
   57.0910   25.5270   45.7170 C   0  0  0  0  0  0  0  0  0  0  0  0
   57.7490   24.7530   44.7430 C   0  0  0  0  0  0  0  0  0  0  0  0
   58.0680   23.4160   45.0010 C   0  0  0  0  0  0  0  0  0  0  0  0
   57.7220   22.8360   46.2250 C   0  0  0  0  0  0  0  0  0  0  0  0
   58.0300   21.5390   46.4720 F   0  0  0  0  0  0  0  0  0  0  0  0
   57.0490   23.5910   47.1880 C   0  0  0  0  0  0  0  0  0  0  0  0
   56.7290   24.9280   46.9330 C   0  0  0  0  0  0  0  0  0  0  0  0
   62.2867   30.6671   48.1739 H   0  0  0  0  0  0  0  0  0  0  0  0
   61.5939   30.0951   46.6184 H   0  0  0  0  0  0  0  0  0  0  0  0
   62.9510   31.2719   46.6184 H   0  0  0  0  0  0  0  0  0  0  0  0
   62.5360   33.4988   47.8923 H   0  0  0  0  0  0  0  0  0  0  0  0
   60.9365   35.4030   48.0478 H   0  0  0  0  0  0  0  0  0  0  0  0
   58.5418   35.0780   47.4350 H   0  0  0  0  0  0  0  0  0  0  0  0
   57.7502   32.8645   46.6153 H   0  0  0  0  0  0  0  0  0  0  0  0
   59.8110   29.8400   46.3180 H   0  0  0  0  0  0  0  0  0  0  0  0
   55.4516   31.7011   43.9300 H   0  0  0  0  0  0  0  0  0  0  0  0
   55.8190   27.0870   45.0030 H   0  0  0  0  0  0  0  0  0  0  0  0
   58.0136   25.2018   43.7742 H   0  0  0  0  0  0  0  0  0  0  0  0
   58.5921   22.8198   44.2395 H   0  0  0  0  0  0  0  0  0  0  0  0
   56.7702   23.1332   48.1486 H   0  0  0  0  0  0  0  0  0  0  0  0
   56.1895   25.5145   47.6913 H   0  0  0  0  0  0  0  0  0  0  0  0
  1  2  1  0
  2  3  2  0
  3  4  1  0
  4  5  2  0
  5  6  1  0
  6  7  2  0
  7  8  1  0
  8  9  1  0
  9 10  1  0
 10 11  1  0
 11 12  2  0
 12 13  1  0
 12 14  1  0
 14 15  1  0
 15 16  2  0
 15 17  1  0
 17 18  1  0
 18 19  2  0
 19 20  1  0
 20 21  2  0
 21 22  1  0
 21 23  1  0
 23 24  2  0
  7  2  1  0
 14  9  2  0
 24 18  1  0
  1 25  1  0
  1 26  1  0
  1 27  1  0
  3 28  1  0
  4 29  1  0
  5 30  1  0
  6 31  1  0
  8 32  1  0
 11 33  1  0
 17 34  1  0
 19 35  1  0
 20 36  1  0
 23 37  1  0
 24 38  1  0
M  CHG  1  13  -1
M  END
>  <UniqueID>  (44) 
39

>  <SMILES>  (44) 
Cc1ccccc1Nc1occ([O-])c1C(=O)Nc1ccc(F)cc1

>  <Energy>  (44) 
82.32762068620751

>  <Genealogy>  (44) 
Cc1ccccc1Nc1occ([O-])c1C(=O)Nc1ccc(F)cc1 (protonated)
Cc1ccccc1Nc1occ([O-])c1C(=O)Nc1ccc(F)cc1 (3D coordinates assigned)
Cc1ccccc1Nc1occ([O-])c1C(=O)Nc1ccc(F)cc1 (optimized conformer: 82.32762068620751 kcal/mol)

>  <smiles>  (44) 
Cc1ccccc1Nc1occ(O)c1C(=O)Nc1ccc(F)cc1

>  <score_type>  (44) 
oracle

>  <origin>  (44) 
adg

>  <m_score__min__energy>  (44) 
-10.640000000000001

>  <m_primary>  (44) 
energy

$$$$
44:0
     RDKit          3D

 29 31  0  0  0  0  0  0  0  0999 V2000
   55.0330   26.4880   46.0020 O   0  0  0  0  0  0  0  0  0  0  0  0
   56.3980   26.7740   46.0710 C   0  0  0  0  0  0  0  0  0  0  0  0
   57.2470   25.8120   46.6300 C   0  0  0  0  0  0  0  0  0  0  0  0
   58.6200   26.0450   46.7310 C   0  0  0  0  0  0  0  0  0  0  0  0
   59.1540   27.2660   46.3050 C   0  0  0  0  0  0  0  0  0  0  0  0
   58.3050   28.2650   45.8050 C   0  0  0  0  0  0  0  0  0  0  0  0
   56.9360   27.9960   45.6030 C   0  0  0  0  0  0  0  0  0  0  0  0
   56.0850   29.0120   44.8820 C   0  0  0  0  0  0  0  0  0  0  0  0
   56.9540   29.9240   44.0170 C   0  0  0  0  0  0  0  0  0  0  0  0
   57.9820   30.5590   44.8440 N   0  0  0  0  0  0  0  0  0  0  0  0
   58.9370   29.5920   45.4280 C   0  0  2  0  0  0  0  0  0  0  0  0
   60.1620   29.3380   44.5220 C   0  0  0  0  0  0  0  0  0  0  0  0
   61.1110   28.2300   45.0610 C   0  0  0  0  0  0  0  0  0  0  0  0
   60.6340   27.5420   46.3600 C   0  0  0  0  0  0  0  0  0  0  0  0
   54.3840   26.7040   46.7470 H   0  0  0  0  0  0  0  0  0  0  0  0
   56.8281   24.8621   46.9937 H   0  0  0  0  0  0  0  0  0  0  0  0
   59.2811   25.2694   47.1450 H   0  0  0  0  0  0  0  0  0  0  0  0
   55.3612   28.4877   44.2408 H   0  0  0  0  0  0  0  0  0  0  0  0
   55.5580   29.6262   45.6270 H   0  0  0  0  0  0  0  0  0  0  0  0
   57.4364   29.3282   43.2281 H   0  0  0  0  0  0  0  0  0  0  0  0
   56.3233   30.7012   43.5608 H   0  0  0  0  0  0  0  0  0  0  0  0
   58.4940   31.2640   44.2630 H   0  0  0  0  0  0  0  0  0  0  0  0
   59.2769   30.0788   46.3540 H   0  0  0  0  0  0  0  0  0  0  0  0
   59.8030   29.0357   43.5272 H   0  0  0  0  0  0  0  0  0  0  0  0
   60.7406   30.2729   44.4894 H   0  0  0  0  0  0  0  0  0  0  0  0
   61.2129   27.4589   44.2832 H   0  0  0  0  0  0  0  0  0  0  0  0
   62.0605   28.7285   45.3059 H   0  0  0  0  0  0  0  0  0  0  0  0
   61.1740   26.5918   46.4844 H   0  0  0  0  0  0  0  0  0  0  0  0
   60.8373   28.2110   47.2092 H   0  0  0  0  0  0  0  0  0  0  0  0
  1  2  1  0
  2  3  2  0
  3  4  1  0
  4  5  2  0
  5  6  1  0
  6  7  2  0
  7  8  1  0
  8  9  1  0
  9 10  1  0
 10 11  1  0
 11 12  1  0
 12 13  1  0
 13 14  1  0
  7  2  1  0
 14  5  1  0
 11  6  1  0
  1 15  1  0
  3 16  1  0
  4 17  1  0
  8 18  1  0
  8 19  1  0
  9 20  1  0
  9 21  1  0
 10 22  1  0
 11 23  1  1
 12 24  1  0
 12 25  1  0
 13 26  1  0
 13 27  1  0
 14 28  1  0
 14 29  1  0
M  END
>  <UniqueID>  (45) 
40

>  <SMILES>  (45) 
Oc1ccc2c3c1CCN[C@@H]3CCC2

>  <Energy>  (45) 
42.03046444429968

>  <Genealogy>  (45) 
Oc1ccc2c3c1CCN[C@@H]3CCC2 (chirality)
Oc1ccc2c3c1CCN[C@@H]3CCC2 (3D coordinates assigned)
Oc1ccc2c3c1CCN[C@@H]3CCC2 (nonaromatic ring conformer: 42.03046444429968 kcal/mol)

>  <smiles>  (45) 
Oc1ccc2c3c1CCNC3CCC2

>  <score_type>  (45) 
oracle

>  <origin>  (45) 
adg

>  <m_score__min__energy>  (45) 
-6.7000000000000002

>  <m_primary>  (45) 
energy

$$$$
45:0
     RDKit          3D

 36 39  0  0  0  0  0  0  0  0999 V2000
   58.3114   33.0225   42.6628 H   0  0  0  0  0  0  0  0  0  0  0  0
   57.8720   32.2910   43.3570 C   0  0  0  0  0  0  0  0  0  0  0  0
   56.9550   30.9480   42.9270 S   0  0  0  0  0  0  0  0  0  0  0  0
   56.7160   30.4670   44.5150 C   0  0  0  0  0  0  0  0  0  0  0  0
   56.0110   29.2710   44.8790 N   0  0  0  0  0  0  0  0  0  0  0  0
   56.4930   28.1090   45.2160 C   0  0  0  0  0  0  0  0  0  0  0  0
   58.1160   27.6980   44.9750 S   0  0  0  0  0  0  0  0  0  0  0  0
   57.9040   26.1630   45.6230 C   0  0  0  0  0  0  0  0  0  0  0  0
   58.8440   25.1500   45.7840 C   0  0  0  0  0  0  0  0  0  0  0  0
   59.8896   25.2943   45.4744 H   0  0  0  0  0  0  0  0  0  0  0  0
   58.4200   23.9380   46.3530 C   0  0  0  0  0  0  0  0  0  0  0  0
   59.1398   23.1182   46.4941 H   0  0  0  0  0  0  0  0  0  0  0  0
   57.0770   23.7670   46.7440 C   0  0  0  0  0  0  0  0  0  0  0  0
   56.7548   22.8138   47.1885 H   0  0  0  0  0  0  0  0  0  0  0  0
   56.1460   24.8060   46.5700 C   0  0  0  0  0  0  0  0  0  0  0  0
   55.0968   24.6750   46.8734 H   0  0  0  0  0  0  0  0  0  0  0  0
   56.5790   26.0090   46.0040 C   0  0  0  0  0  0  0  0  0  0  0  0
   55.7870   27.0880   45.7780 N   0  0  0  0  0  0  0  0  0  0  0  0
   54.7700   27.0850   45.9980 H   0  0  0  0  0  0  0  0  0  0  0  0
   57.3330   31.2970   45.3820 N   0  0  0  0  0  0  0  0  0  0  0  0
   57.9780   32.3150   44.7490 C   0  0  0  0  0  0  0  0  0  0  0  0
   58.7150   33.3660   45.4950 C   0  0  0  0  0  0  0  0  0  0  0  0
   58.9740   34.5990   44.8650 C   0  0  0  0  0  0  0  0  0  0  0  0
   58.6387   34.7621   43.8301 H   0  0  0  0  0  0  0  0  0  0  0  0
   59.6520   35.6170   45.5400 C   0  0  0  0  0  0  0  0  0  0  0  0
   59.8478   36.5745   45.0352 H   0  0  0  0  0  0  0  0  0  0  0  0
   60.0810   35.4220   46.8520 C   0  0  0  0  0  0  0  0  0  0  0  0
   60.6115   36.2267   47.3822 H   0  0  0  0  0  0  0  0  0  0  0  0
   59.8380   34.2070   47.4930 C   0  0  0  0  0  0  0  0  0  0  0  0
   60.1792   34.0585   48.5282 H   0  0  0  0  0  0  0  0  0  0  0  0
   59.1620   33.1730   46.8280 C   0  0  0  0  0  0  0  0  0  0  0  0
   58.9390   31.6180   47.7120 S   0  0  0  0  0  0  0  0  0  0  0  0
   60.2970   30.7840   46.8340 C   0  0  0  0  0  0  0  0  0  0  0  0
   60.9971   30.3540   47.5654 H   0  0  0  0  0  0  0  0  0  0  0  0
   59.8874   29.9815   46.2029 H   0  0  0  0  0  0  0  0  0  0  0  0
   60.8275   31.5122   46.2029 H   0  0  0  0  0  0  0  0  0  0  0  0
  1  2  1  0
  2  3  1  0
  3  4  1  0
  4  5  1  0
  5  6  2  0
  6  7  1  0
  7  8  1  0
  8  9  2  0
  9 10  1  0
  9 11  1  0
 11 12  1  0
 11 13  2  0
 13 14  1  0
 13 15  1  0
 15 16  1  0
 15 17  2  0
 17 18  1  0
 18 19  1  0
  4 20  2  0
 20 21  1  0
 21 22  1  0
 22 23  2  0
 23 24  1  0
 23 25  1  0
 25 26  1  0
 25 27  2  0
 27 28  1  0
 27 29  1  0
 29 30  1  0
 29 31  2  0
 31 32  1  0
 32 33  1  0
 33 34  1  0
 33 35  1  0
 33 36  1  0
 21  2  2  0
 31 22  1  0
 18  6  1  0
 17  8  1  0
M  END
>  <UniqueID>  (46) 
41

>  <SMILES>  (46) 
CSc1ccccc1-c1csc(/N=c2\[nH]c3ccccc3s2)n1

>  <Energy>  (46) 
110.54121240049419

>  <Genealogy>  (46) 
CSc1ccccc1-c1csc(/N=c2\[nH]c3ccccc3s2)n1 (cis-trans isomerization)
CSc1ccccc1-c1csc(/N=c2\[nH]c3ccccc3s2)n1 (3D coordinates assigned)
CSc1ccccc1-c1csc(/N=c2\[nH]c3ccccc3s2)n1 (optimized conformer: 110.54121240049419 kcal/mol)

>  <smiles>  (46) 
CSc1ccccc1-c1csc(N=c2[nH]c3ccccc3s2)n1

>  <score_type>  (46) 
oracle

>  <origin>  (46) 
adg

>  <m_score__min__energy>  (46) 
-8.4100000000000001

>  <m_primary>  (46) 
energy

$$$$
46:0
     RDKit          3D

 45 46  0  0  0  0  0  0  0  0999 V2000
   60.2700   33.7380   49.9180 C   0  0  0  0  0  0  0  0  0  0  0  0
   59.6080   34.6480   48.9890 N   0  0  0  0  0  0  0  0  0  0  0  0
   59.2370   34.2810   47.6480 C   0  0  0  0  0  0  0  0  0  0  0  0
   58.2430   33.3090   47.4510 C   0  0  0  0  0  0  0  0  0  0  0  0
   57.8700   32.9250   46.1600 C   0  0  0  0  0  0  0  0  0  0  0  0
   58.4850   33.5080   45.0420 C   0  0  0  0  0  0  0  0  0  0  0  0
   58.1200   33.0640   43.6450 C   0  0  0  0  0  0  0  0  0  0  0  0
   58.1470   31.5960   43.5140 N   0  0  0  0  0  0  0  0  0  0  0  0
   57.1190   31.1120   42.5740 C   0  0  0  0  0  0  0  0  0  0  0  0
   56.5960   29.7260   42.9740 C   0  0  0  0  0  0  0  0  0  0  0  0
   56.3000   29.6580   44.4390 C   0  0  0  0  0  0  0  0  0  0  0  0
   55.1420   29.3400   44.8280 O   0  0  0  0  0  0  0  0  0  0  0  0
   57.3000   29.9850   45.3600 O   0  0  0  0  0  0  0  0  0  0  0  0
   58.1350   29.0130   45.9850 C   0  0  0  0  0  0  0  0  0  0  0  0
   59.1820   29.6870   46.8300 C   0  0  0  0  0  0  0  0  0  0  0  0
   60.3220   30.2560   46.2380 C   0  0  0  0  0  0  0  0  0  0  0  0
   61.2940   30.8730   47.0330 C   0  0  0  0  0  0  0  0  0  0  0  0
   61.1340   30.9240   48.4190 C   0  0  0  0  0  0  0  0  0  0  0  0
   60.0100   30.3480   49.0160 C   0  0  0  0  0  0  0  0  0  0  0  0
   59.0390   29.7250   48.2260 C   0  0  0  0  0  0  0  0  0  0  0  0
   59.4760   34.4810   45.2340 C   0  0  0  0  0  0  0  0  0  0  0  0
   59.8450   34.8710   46.5240 C   0  0  0  0  0  0  0  0  0  0  0  0
   60.0479   34.0433   50.9512 H   0  0  0  0  0  0  0  0  0  0  0  0
   59.9043   32.7140   49.7515 H   0  0  0  0  0  0  0  0  0  0  0  0
   61.3568   33.7707   49.7515 H   0  0  0  0  0  0  0  0  0  0  0  0
   59.3760   35.6070   49.3330 H   0  0  0  0  0  0  0  0  0  0  0  0
   57.7536   32.8457   48.3204 H   0  0  0  0  0  0  0  0  0  0  0  0
   57.0903   32.1618   46.0198 H   0  0  0  0  0  0  0  0  0  0  0  0
   57.1076   33.4242   43.4098 H   0  0  0  0  0  0  0  0  0  0  0  0
   58.8601   33.4837   42.9479 H   0  0  0  0  0  0  0  0  0  0  0  0
   59.0890   31.3210   43.1530 H   0  0  0  0  0  0  0  0  0  0  0  0
   58.0150   31.1570   44.4550 H   0  0  0  0  0  0  0  0  0  0  0  0
   56.2790   31.8222   42.5669 H   0  0  0  0  0  0  0  0  0  0  0  0
   57.5749   31.0330   41.5761 H   0  0  0  0  0  0  0  0  0  0  0  0
   55.6741   29.5151   42.4121 H   0  0  0  0  0  0  0  0  0  0  0  0
   57.3723   28.9820   42.7420 H   0  0  0  0  0  0  0  0  0  0  0  0
   57.5188   28.3617   46.6223 H   0  0  0  0  0  0  0  0  0  0  0  0
   58.6338   28.4172   45.2064 H   0  0  0  0  0  0  0  0  0  0  0  0
   60.4507   30.2163   45.1463 H   0  0  0  0  0  0  0  0  0  0  0  0
   62.1848   31.3182   46.5658 H   0  0  0  0  0  0  0  0  0  0  0  0
   61.8940   31.4184   49.0418 H   0  0  0  0  0  0  0  0  0  0  0  0
   59.8887   30.3846   50.1087 H   0  0  0  0  0  0  0  0  0  0  0  0
   58.1603   29.2632   48.6999 H   0  0  0  0  0  0  0  0  0  0  0  0
   59.9664   34.9405   44.3631 H   0  0  0  0  0  0  0  0  0  0  0  0
   60.6154   35.6439   46.6620 H   0  0  0  0  0  0  0  0  0  0  0  0
  1  2  1  0
  2  3  1  0
  3  4  2  0
  4  5  1  0
  5  6  2  0
  6  7  1  0
  7  8  1  0
  8  9  1  0
  9 10  1  0
 10 11  1  0
 11 12  2  0
 11 13  1  0
 13 14  1  0
 14 15  1  0
 15 16  2  0
 16 17  1  0
 17 18  2  0
 18 19  1  0
 19 20  2  0
  6 21  1  0
 21 22  2  0
 22  3  1  0
 20 15  1  0
  1 23  1  0
  1 24  1  0
  1 25  1  0
  2 26  1  0
  4 27  1  0
  5 28  1  0
  7 29  1  0
  7 30  1  0
  8 31  1  0
  8 32  1  0
  9 33  1  0
  9 34  1  0
 10 35  1  0
 10 36  1  0
 14 37  1  0
 14 38  1  0
 16 39  1  0
 17 40  1  0
 18 41  1  0
 19 42  1  0
 20 43  1  0
 21 44  1  0
 22 45  1  0
M  CHG  1   8   1
M  END
>  <UniqueID>  (47) 
42

>  <SMILES>  (47) 
CNc1ccc(C[NH2+]CCC(=O)OCc2ccccc2)cc1

>  <Energy>  (47) 
34.0010065304875

>  <Genealogy>  (47) 
CNc1ccc(C[NH2+]CCC(=O)OCc2ccccc2)cc1 (protonated)
CNc1ccc(C[NH2+]CCC(=O)OCc2ccccc2)cc1 (3D coordinates assigned)
CNc1ccc(C[NH2+]CCC(=O)OCc2ccccc2)cc1 (optimized conformer: 34.0010065304875 kcal/mol)

>  <smiles>  (47) 
CNc1ccc(CNCCC(=O)OCc2ccccc2)cc1

>  <score_type>  (47) 
oracle

>  <origin>  (47) 
adg

>  <m_score__min__energy>  (47) 
-5.7000000000000002

>  <m_primary>  (47) 
energy

$$$$
47:0
     RDKit          3D

 46 49  0  0  0  0  0  0  0  0999 V2000
   57.0782   34.6635   43.8805 H   0  0  0  0  0  0  0  0  0  0  0  0
   57.6480   34.2610   44.7310 C   0  0  0  0  0  0  0  0  0  0  0  0
   58.9970   34.1350   44.6440 N   0  0  0  0  0  0  0  0  0  0  0  0
   59.7190   33.6220   45.6740 C   0  0  0  0  0  0  0  0  0  0  0  0
   60.8124   33.5357   45.5907 H   0  0  0  0  0  0  0  0  0  0  0  0
   59.0680   33.2020   46.8450 C   0  0  0  0  0  0  0  0  0  0  0  0
   59.7750   32.6930   47.9890 N   0  0  0  0  0  0  0  0  0  0  0  0
   59.4320   32.8000   49.2410 C   0  0  0  0  0  0  0  0  0  0  0  0
   59.6230   33.9650   49.9180 N   0  0  0  0  0  0  0  0  0  0  0  0
   59.3440   34.0860   51.2410 C   0  0  0  0  0  0  0  0  0  0  0  0
   59.4930   35.0481   51.7531 H   0  0  0  0  0  0  0  0  0  0  0  0
   58.8630   32.9720   51.9520 C   0  0  0  0  0  0  0  0  0  0  0  0
   58.5330   32.9830   53.4300 C   0  0  0  0  0  0  0  0  0  0  0  0
   57.5456   32.5231   53.2765 H   0  0  0  0  0  0  0  0  0  0  0  0
   59.6830   32.7650   54.4040 C   0  0  0  0  0  0  0  0  0  0  0  0
   59.5214   32.1859   55.3251 H   0  0  0  0  0  0  0  0  0  0  0  0
   60.7015   32.3569   54.3262 H   0  0  0  0  0  0  0  0  0  0  0  0
   59.0620   34.1490   54.2550 C   0  0  0  0  0  0  0  0  0  0  0  0
   58.4521   34.5688   55.0685 H   0  0  0  0  0  0  0  0  0  0  0  0
   59.4465   35.1537   54.0251 H   0  0  0  0  0  0  0  0  0  0  0  0
   58.6810   31.8080   51.2750 N   0  0  0  0  0  0  0  0  0  0  0  0
   58.9350   31.6820   49.9450 C   0  0  0  0  0  0  0  0  0  0  0  0
   58.7040   30.3650   49.3090 C   0  0  0  0  0  0  0  0  0  0  0  0
   58.3390   29.3960   50.0290 O   0  0  0  0  0  0  0  0  0  0  0  0
   58.8370   30.1880   47.8890 N   0  0  0  0  0  0  0  0  0  0  0  0
   58.7170   31.0230   47.2730 H   0  0  0  0  0  0  0  0  0  0  0  0
   58.7930   28.8900   47.2760 C   0  0  0  0  0  0  0  0  0  0  0  0
   59.5910   27.8650   47.8110 C   0  0  0  0  0  0  0  0  0  0  0  0
   60.3580   28.0960   48.9050 F   0  0  0  0  0  0  0  0  0  0  0  0
   59.6310   26.6090   47.2020 C   0  0  0  0  0  0  0  0  0  0  0  0
   60.2625   25.8139   47.6252 H   0  0  0  0  0  0  0  0  0  0  0  0
   58.8720   26.3600   46.0580 C   0  0  0  0  0  0  0  0  0  0  0  0
   58.9170   25.1400   45.4700 F   0  0  0  0  0  0  0  0  0  0  0  0
   58.0540   27.3610   45.5300 C   0  0  0  0  0  0  0  0  0  0  0  0
   57.4561   27.1562   44.6297 H   0  0  0  0  0  0  0  0  0  0  0  0
   57.9860   28.6290   46.1370 C   0  0  0  0  0  0  0  0  0  0  0  0
   57.0310   29.6270   45.6000 C   0  0  0  0  0  0  0  0  0  0  0  0
   57.3210   30.8550   45.6070 O   0  0  0  0  0  0  0  0  0  0  0  0
   55.7580   29.2030   45.1010 N   0  0  0  0  0  0  0  0  0  0  0  0
   55.1840   29.7190   43.8680 C   0  0  0  0  0  0  0  0  0  0  0  0
   54.3856   30.4367   44.1075 H   0  0  0  0  0  0  0  0  0  0  0  0
   55.9666   30.2232   43.2821 H   0  0  0  0  0  0  0  0  0  0  0  0
   54.7657   28.8873   43.2821 H   0  0  0  0  0  0  0  0  0  0  0  0
   57.6840   33.3760   46.9220 C   0  0  0  0  0  0  0  0  0  0  0  0
   57.1459   33.0955   47.8395 H   0  0  0  0  0  0  0  0  0  0  0  0
   57.0010   33.8910   45.8660 N   0  0  0  0  0  0  0  0  0  0  0  0
  1  2  1  0
  2  3  2  0
  3  4  1  0
  4  5  1  0
  4  6  2  0
  6  7  1  0
  7  8  2  0
  8  9  1  0
  9 10  1  0
 10 11  1  0
 10 12  2  0
 12 13  1  0
 13 14  1  0
 13 15  1  0
 15 16  1  0
 15 17  1  0
 15 18  1  0
 18 19  1  0
 18 20  1  0
 12 21  1  0
 21 22  2  0
 22 23  1  0
 23 24  2  0
 23 25  1  0
 25 26  1  0
 25 27  1  0
 27 28  2  0
 28 29  1  0
 28 30  1  0
 30 31  1  0
 30 32  2  0
 32 33  1  0
 32 34  1  0
 34 35  1  0
 34 36  2  0
 36 37  1  0
 37 38  2  0
 37 39  1  0
 39 40  1  0
 40 41  1  0
 40 42  1  0
 40 43  1  0
  6 44  1  0
 44 45  1  0
 44 46  2  0
 46  2  1  0
 22  8  1  0
 36 27  1  0
 18 13  1  0
M  CHG  2   9  -1  39  -1
M  END
>  <UniqueID>  (48) 
43

>  <SMILES>  (48) 
C[N-]C(=O)c1cc(F)cc(F)c1NC(=O)c1nc(C2CC2)c[n-]/c1=N\c1cncnc1

>  <Energy>  (48) 
336.04650686439237

>  <Genealogy>  (48) 
C[N-]C(=O)c1cc(F)cc(F)c1NC(=O)c1nc(C2CC2)c[n-]c1=Nc1cncnc1 (protonated)
C[N-]C(=O)c1cc(F)cc(F)c1NC(=O)c1nc(C2CC2)c[n-]/c1=N\c1cncnc1 (cis-trans isomerization)
C[N-]C(=O)c1cc(F)cc(F)c1NC(=O)c1nc(C2CC2)c[n-]/c1=N\c1cncnc1 (3D coordinates assigned)
C[N-]C(=O)c1cc(F)cc(F)c1NC(=O)c1nc(C2CC2)c[n-]/c1=N\c1cncnc1 (nonaromatic ring conformer: 336.04650686439237 kcal/mol)

>  <smiles>  (48) 
CNC(=O)c1cc(F)cc(F)c1NC(=O)c1nc(C2CC2)c[nH]c1=Nc1cncnc1

>  <score_type>  (48) 
oracle

>  <origin>  (48) 
adg

>  <m_score__min__energy>  (48) 
-11.15

>  <m_primary>  (48) 
energy

$$$$
