0:0
     RDKit          3D

 27 29  0  0  0  0  0  0  0  0999 V2000
   54.7336   29.8982   43.7469 H   0  0  0  0  0  0  0  0  0  0  0  0
   55.6380   29.7920   44.3640 C   0  0  0  0  0  0  0  0  0  0  0  0
   56.4390   30.8450   44.6820 N   0  0  0  0  0  0  0  0  0  0  0  0
   57.3880   30.2660   45.4320 C   0  0  0  0  0  0  0  0  0  0  0  0
   58.5050   30.8320   46.0400 C   0  0  0  0  0  0  0  0  0  0  0  0
   58.7980   32.2390   45.9290 N   0  0  0  0  0  0  0  0  0  0  0  0
   58.4970   32.8640   44.7500 C   0  0  0  0  0  0  0  0  0  0  0  0
   58.0536   32.2852   43.9264 H   0  0  0  0  0  0  0  0  0  0  0  0
   58.7450   34.2250   44.5790 C   0  0  0  0  0  0  0  0  0  0  0  0
   58.4960   34.7194   43.6284 H   0  0  0  0  0  0  0  0  0  0  0  0
   59.3100   34.9520   45.6210 C   0  0  0  0  0  0  0  0  0  0  0  0
   59.5030   36.0282   45.5008 H   0  0  0  0  0  0  0  0  0  0  0  0
   59.6310   34.3150   46.8170 C   0  0  0  0  0  0  0  0  0  0  0  0
   60.0816   34.8864   47.6419 H   0  0  0  0  0  0  0  0  0  0  0  0
   59.3770   32.9340   46.9690 C   0  0  0  0  0  0  0  0  0  0  0  0
   59.6980   32.3020   48.0670 N   0  0  0  0  0  0  0  0  0  0  0  0
   58.9040   32.2230   49.2900 C   0  0  0  0  0  0  0  0  0  0  0  0
   59.5689   32.2892   50.1638 H   0  0  0  0  0  0  0  0  0  0  0  0
   58.1836   33.0539   49.3137 H   0  0  0  0  0  0  0  0  0  0  0  0
   58.3614   31.2664   49.3137 H   0  0  0  0  0  0  0  0  0  0  0  0
   59.3440   29.9930   46.7250 N   0  0  0  0  0  0  0  0  0  0  0  0
   60.1950   30.3780   47.1930 H   0  0  0  0  0  0  0  0  0  0  0  0
   59.0820   28.6490   46.8200 C   0  0  0  0  0  0  0  0  0  0  0  0
   59.7671   27.9986   47.3835 H   0  0  0  0  0  0  0  0  0  0  0  0
   57.9780   28.1120   46.2210 N   0  0  0  0  0  0  0  0  0  0  0  0
   57.1540   28.9410   45.5380 C   0  0  0  0  0  0  0  0  0  0  0  0
   56.0460   28.5970   44.8710 N   0  0  0  0  0  0  0  0  0  0  0  0
  1  2  1  0
  2  3  2  0
  3  4  1  0
  4  5  2  0
  5  6  1  0
  6  7  1  0
  7  8  1  0
  7  9  2  0
  9 10  1  0
  9 11  1  0
 11 12  1  0
 11 13  2  0
 13 14  1  0
 13 15  1  0
 15 16  2  0
 16 17  1  0
 17 18  1  0
 17 19  1  0
 17 20  1  0
  5 21  1  0
 21 22  1  0
 21 23  2  0
 23 24  1  0
 23 25  1  0
 25 26  2  0
 26 27  1  0
 27  2  1  0
 26  4  1  0
 15  6  1  0
M  CHG  2  21   1  27  -1
M  END
>  <UniqueID>  (1) 
1

>  <SMILES>  (1) 
C/N=c1\ccccn1-c1[nH+]cnc2[n-]cnc12

>  <Energy>  (1) 
77.09328730088744

>  <Genealogy>  (1) 
CN=c1ccccn1-c1[nH+]cnc2[n-]cnc12 (protonated)
C/N=c1\ccccn1-c1[nH+]cnc2[n-]cnc12 (cis-trans isomerization)
C/N=c1\ccccn1-c1[nH+]cnc2[n-]cnc12 (3D coordinates assigned)
C/N=c1\ccccn1-c1[nH+]cnc2[n-]cnc12 (optimized conformer: 77.09328730088744 kcal/mol)

>  <smiles>  (1) 
CN=c1ccccn1-c1ncnc2[nH]cnc12

>  <score_type>  (1) 
oracle

>  <origin>  (1) 
adg

>  <m_score__min__energy>  (1) 
-6.0300000000000002

>  <m_primary>  (1) 
energy

$$$$
1:0
     RDKit          3D

 29 30  0  0  0  0  0  0  0  0999 V2000
   58.5030   27.5320   43.5290 C   0  0  0  0  0  0  0  0  0  0  0  0
   57.4210   28.4650   43.9710 C   0  0  0  0  0  0  0  0  0  0  0  0
   56.7110   29.3330   43.1670 C   0  0  0  0  0  0  0  0  0  0  0  0
   55.8360   29.9900   44.0100 C   0  0  0  0  0  0  0  0  0  0  0  0
   56.0000   29.5660   45.2440 O   0  0  0  0  0  0  0  0  0  0  0  0
   56.9520   28.6610   45.2580 C   0  0  0  0  0  0  0  0  0  0  0  0
   57.4150   27.9530   46.4970 C   0  0  0  0  0  0  0  0  0  0  0  0
   57.7840   26.5700   46.1910 N   0  0  0  0  0  0  0  0  0  0  0  0
   56.3910   25.5270   46.2330 S   0  0  0  0  0  0  0  0  0  0  0  0
   56.2900   24.8970   47.5930 O   0  0  0  0  0  0  0  0  0  0  0  0
   55.1470   26.3380   45.9920 O   0  0  0  0  0  0  0  0  0  0  0  0
   56.5300   24.2520   45.0240 C   0  0  0  0  0  0  0  0  0  0  0  0
   55.5170   24.0880   44.0690 C   0  0  0  0  0  0  0  0  0  0  0  0
   55.5870   23.0440   43.1420 C   0  0  0  0  0  0  0  0  0  0  0  0
   56.6710   22.1600   43.1640 C   0  0  0  0  0  0  0  0  0  0  0  0
   56.7350   21.1430   42.2700 F   0  0  0  0  0  0  0  0  0  0  0  0
   57.6860   22.3240   44.1120 C   0  0  0  0  0  0  0  0  0  0  0  0
   57.6190   23.3680   45.0390 C   0  0  0  0  0  0  0  0  0  0  0  0
   59.0004   27.1031   44.4114 H   0  0  0  0  0  0  0  0  0  0  0  0
   58.0657   26.7231   42.9252 H   0  0  0  0  0  0  0  0  0  0  0  0
   59.2387   28.0835   42.9252 H   0  0  0  0  0  0  0  0  0  0  0  0
   56.8192   29.4726   42.0813 H   0  0  0  0  0  0  0  0  0  0  0  0
   55.1099   30.7543   43.6958 H   0  0  0  0  0  0  0  0  0  0  0  0
   58.2896   28.4782   46.9083 H   0  0  0  0  0  0  0  0  0  0  0  0
   56.5953   27.9480   47.2306 H   0  0  0  0  0  0  0  0  0  0  0  0
   54.6645   24.7829   44.0490 H   0  0  0  0  0  0  0  0  0  0  0  0
   54.7895   22.9176   42.3950 H   0  0  0  0  0  0  0  0  0  0  0  0
   58.5391   21.6298   44.1282 H   0  0  0  0  0  0  0  0  0  0  0  0
   58.4209   23.4965   45.7809 H   0  0  0  0  0  0  0  0  0  0  0  0
  1  2  1  0
  2  3  1  0
  3  4  2  0
  4  5  1  0
  5  6  1  0
  6  7  1  0
  7  8  1  0
  8  9  1  0
  9 10  2  0
  9 11  2  0
  9 12  1  0
 12 13  2  0
 13 14  1  0
 14 15  2  0
 15 16  1  0
 15 17  1  0
 17 18  2  0
  6  2  2  0
 18 12  1  0
  1 19  1  0
  1 20  1  0
  1 21  1  0
  3 22  1  0
  4 23  1  0
  7 24  1  0
  7 25  1  0
 13 26  1  0
 14 27  1  0
 17 28  1  0
 18 29  1  0
M  CHG  1   8  -1
M  END
>  <UniqueID>  (2) 
2

>  <SMILES>  (2) 
Cc1ccoc1C[N-]S(=O)(=O)c1ccc(F)cc1

>  <Energy>  (2) 
50.09272934505449

>  <Genealogy>  (2) 
Cc1ccoc1C[N-]S(=O)(=O)c1ccc(F)cc1 (protonated)
Cc1ccoc1C[N-]S(=O)(=O)c1ccc(F)cc1 (3D coordinates assigned)
Cc1ccoc1C[N-]S(=O)(=O)c1ccc(F)cc1 (optimized conformer: 50.09272934505449 kcal/mol)

>  <smiles>  (2) 
Cc1ccoc1CNS(=O)(=O)c1ccc(F)cc1

>  <score_type>  (2) 
oracle

>  <origin>  (2) 
adg

>  <m_score__min__energy>  (2) 
-8.4900000000000002

>  <m_primary>  (2) 
energy

$$$$
2:0
     RDKit          3D

 36 38  0  0  0  0  0  0  0  0999 V2000
   58.1410   32.0870   42.4140 C   0  0  0  0  0  0  0  0  0  0  0  0
   56.9230   31.2180   42.1210 C   0  0  0  0  0  0  0  0  0  0  0  0
   56.8820   30.0970   43.0020 O   0  0  0  0  0  0  0  0  0  0  0  0
   56.6240   30.2040   44.3740 C   0  0  0  0  0  0  0  0  0  0  0  0
   55.5620   29.7240   44.8580 O   0  0  0  0  0  0  0  0  0  0  0  0
   57.6400   30.8390   45.2410 C   0  0  0  0  0  0  0  0  0  0  0  0
   57.6350   32.1680   45.2980 O   0  0  0  0  0  0  0  0  0  0  0  0
   58.5080   32.8750   46.0050 C   0  0  0  0  0  0  0  0  0  0  0  0
   58.4290   34.2720   46.0030 C   0  0  0  0  0  0  0  0  0  0  0  0
   59.3460   35.0280   46.7390 C   0  0  0  0  0  0  0  0  0  0  0  0
   60.3450   34.3910   47.4810 C   0  0  0  0  0  0  0  0  0  0  0  0
   60.4310   32.9960   47.4910 C   0  0  0  0  0  0  0  0  0  0  0  0
   59.5120   32.2270   46.7530 C   0  0  0  0  0  0  0  0  0  0  0  0
   59.5500   30.8240   46.7400 C   0  0  0  0  0  0  0  0  0  0  0  0
   60.4210   30.2040   47.4140 O   0  0  0  0  0  0  0  0  0  0  0  0
   58.6020   30.1080   45.9860 C   0  0  0  0  0  0  0  0  0  0  0  0
   58.6040   28.6270   46.0340 C   0  0  0  0  0  0  0  0  0  0  0  0
   58.6970   27.8870   44.8450 C   0  0  0  0  0  0  0  0  0  0  0  0
   58.7050   26.4890   44.8850 C   0  0  0  0  0  0  0  0  0  0  0  0
   58.6270   25.8230   46.1120 C   0  0  0  0  0  0  0  0  0  0  0  0
   58.5430   26.5540   47.3010 C   0  0  0  0  0  0  0  0  0  0  0  0
   58.5340   27.9520   47.2670 C   0  0  0  0  0  0  0  0  0  0  0  0
   58.4610   28.6470   48.4300 F   0  0  0  0  0  0  0  0  0  0  0  0
   58.2717   32.1802   43.5022 H   0  0  0  0  0  0  0  0  0  0  0  0
   59.0367   31.6227   41.9756 H   0  0  0  0  0  0  0  0  0  0  0  0
   57.9934   33.0850   41.9756 H   0  0  0  0  0  0  0  0  0  0  0  0
   56.0105   31.8173   42.2559 H   0  0  0  0  0  0  0  0  0  0  0  0
   56.9890   30.8528   41.0855 H   0  0  0  0  0  0  0  0  0  0  0  0
   57.6436   34.7764   45.4210 H   0  0  0  0  0  0  0  0  0  0  0  0
   59.2814   36.1261   46.7343 H   0  0  0  0  0  0  0  0  0  0  0  0
   61.0652   34.9892   48.0584 H   0  0  0  0  0  0  0  0  0  0  0  0
   61.2181   32.4985   48.0766 H   0  0  0  0  0  0  0  0  0  0  0  0
   58.7638   28.4082   43.8786 H   0  0  0  0  0  0  0  0  0  0  0  0
   58.7727   25.9129   43.9504 H   0  0  0  0  0  0  0  0  0  0  0  0
   58.6317   24.7234   46.1419 H   0  0  0  0  0  0  0  0  0  0  0  0
   58.4839   26.0282   48.2654 H   0  0  0  0  0  0  0  0  0  0  0  0
  1  2  1  0
  2  3  1  0
  3  4  1  0
  4  5  2  0
  4  6  1  0
  6  7  1  0
  7  8  1  0
  8  9  2  0
  9 10  1  0
 10 11  2  0
 11 12  1  0
 12 13  2  0
 13 14  1  0
 14 15  2  0
 14 16  1  0
 16 17  1  0
 17 18  2  0
 18 19  1  0
 19 20  2  0
 20 21  1  0
 21 22  2  0
 22 23  1  0
 16  6  2  0
 22 17  1  0
 13  8  1  0
  1 24  1  0
  1 25  1  0
  1 26  1  0
  2 27  1  0
  2 28  1  0
  9 29  1  0
 10 30  1  0
 11 31  1  0
 12 32  1  0
 18 33  1  0
 19 34  1  0
 20 35  1  0
 21 36  1  0
M  END
>  <UniqueID>  (3) 
3

>  <SMILES>  (3) 
CCOC(=O)c1oc2ccccc2c(=O)c1-c1ccccc1F

>  <Energy>  (3) 
50.708636822525065

>  <Genealogy>  (3) 
CCOC(=O)c1oc2ccccc2c(=O)c1-c1ccccc1F (3D coordinates assigned)
CCOC(=O)c1oc2ccccc2c(=O)c1-c1ccccc1F (optimized conformer: 50.708636822525065 kcal/mol)

>  <smiles>  (3) 
CCOC(=O)c1oc2ccccc2c(=O)c1-c1ccccc1F

>  <score_type>  (3) 
oracle

>  <origin>  (3) 
adg

>  <m_score__min__energy>  (3) 
-7.29

>  <m_primary>  (3) 
energy

$$$$
3:0
     RDKit          3D

 56 57  0  0  0  0  0  0  0  0999 V2000
   55.4131   30.4128   43.9224 H   0  0  0  0  0  0  0  0  0  0  0  0
   56.1100   29.8480   44.5590 C   0  0  0  0  0  0  0  0  0  0  0  0
   55.8360   28.5600   44.8820 N   0  0  0  0  0  0  0  0  0  0  0  0
   56.6680   27.8260   45.6640 C   0  0  0  0  0  0  0  0  0  0  0  0
   56.3360   26.5020   45.9730 C   0  0  0  0  0  0  0  0  0  0  0  0
   55.4082   26.0630   45.5776 H   0  0  0  0  0  0  0  0  0  0  0  0
   57.1790   25.7360   46.7820 C   0  0  0  0  0  0  0  0  0  0  0  0
   56.7550   24.0800   47.1690 Cl  0  0  0  0  0  0  0  0  0  0  0  0
   58.3600   26.2910   47.2850 C   0  0  0  0  0  0  0  0  0  0  0  0
   59.0184   25.6879   47.9274 H   0  0  0  0  0  0  0  0  0  0  0  0
   58.7070   27.6080   46.9750 C   0  0  0  0  0  0  0  0  0  0  0  0
   59.6436   28.0329   47.3652 H   0  0  0  0  0  0  0  0  0  0  0  0
   57.8640   28.3960   46.1650 C   0  0  0  0  0  0  0  0  0  0  0  0
   58.1690   29.7380   45.8390 C   0  0  0  0  0  0  0  0  0  0  0  0
   59.2670   30.2770   46.2880 N   0  0  0  0  0  0  0  0  0  0  0  0
   60.6180   29.7250   46.1810 C   0  0  0  0  0  0  0  0  0  0  0  0
   60.8616   29.5610   45.1209 H   0  0  0  0  0  0  0  0  0  0  0  0
   60.6622   28.7705   46.7260 H   0  0  0  0  0  0  0  0  0  0  0  0
   61.6340   30.7010   46.7910 C   0  0  0  0  0  0  0  0  0  0  0  0
   62.0369   31.3341   45.9867 H   0  0  0  0  0  0  0  0  0  0  0  0
   62.4170   30.0979   47.2739 H   0  0  0  0  0  0  0  0  0  0  0  0
   61.0250   31.6140   47.8750 C   0  0  0  0  0  0  0  0  0  0  0  0
   61.3201   31.2306   48.8629 H   0  0  0  0  0  0  0  0  0  0  0  0
   59.9334   31.6027   47.7402 H   0  0  0  0  0  0  0  0  0  0  0  0
   61.4760   33.0360   47.7610 N   0  0  2  0  0  0  0  0  0  0  0  0
   61.3220   33.3610   46.7760 H   0  0  0  0  0  0  0  0  0  0  0  0
   62.9420   33.1470   47.9960 C   0  0  0  0  0  0  0  0  0  0  0  0
   63.1217   33.9642   48.7101 H   0  0  0  0  0  0  0  0  0  0  0  0
   63.2871   32.1780   48.3857 H   0  0  0  0  0  0  0  0  0  0  0  0
   63.7350   33.4350   46.7130 C   0  0  0  0  0  0  0  0  0  0  0  0
   64.7388   33.7996   46.9765 H   0  0  0  0  0  0  0  0  0  0  0  0
   63.8237   32.5117   46.1217 H   0  0  0  0  0  0  0  0  0  0  0  0
   63.2105   34.2001   46.1217 H   0  0  0  0  0  0  0  0  0  0  0  0
   60.6610   33.9440   48.6190 C   0  0  0  0  0  0  0  0  0  0  0  0
   61.2530   34.8492   48.8190 H   0  0  0  0  0  0  0  0  0  0  0  0
   60.4178   33.3761   49.5291 H   0  0  0  0  0  0  0  0  0  0  0  0
   59.3110   34.3780   48.0010 C   0  0  0  0  0  0  0  0  0  0  0  0
   59.3324   35.4591   47.7992 H   0  0  0  0  0  0  0  0  0  0  0  0
   58.4982   34.1488   48.7059 H   0  0  0  0  0  0  0  0  0  0  0  0
   59.0810   33.6450   46.7330 N   0  0  0  0  0  0  0  0  0  0  0  0
   59.5630   34.4140   45.5670 C   0  0  0  0  0  0  0  0  0  0  0  0
   58.7527   34.4943   44.8274 H   0  0  0  0  0  0  0  0  0  0  0  0
   60.4271   33.8911   45.1313 H   0  0  0  0  0  0  0  0  0  0  0  0
   59.9970   35.8110   45.9860 C   0  0  0  0  0  0  0  0  0  0  0  0
   60.0169   35.8749   47.0840 H   0  0  0  0  0  0  0  0  0  0  0  0
   61.0016   36.0175   45.5885 H   0  0  0  0  0  0  0  0  0  0  0  0
   59.2862   36.5504   45.5885 H   0  0  0  0  0  0  0  0  0  0  0  0
   57.6510   33.2940   46.5770 C   0  0  0  0  0  0  0  0  0  0  0  0
   57.5432   32.1993   46.5791 H   0  0  0  0  0  0  0  0  0  0  0  0
   57.0815   33.7290   47.4115 H   0  0  0  0  0  0  0  0  0  0  0  0
   57.1130   33.8500   45.2650 C   0  0  0  0  0  0  0  0  0  0  0  0
   56.3623   34.6258   45.4760 H   0  0  0  0  0  0  0  0  0  0  0  0
   57.9395   34.2874   44.6858 H   0  0  0  0  0  0  0  0  0  0  0  0
   56.6486   33.0383   44.6858 H   0  0  0  0  0  0  0  0  0  0  0  0
   57.2710   30.4600   45.0300 C   0  0  0  0  0  0  0  0  0  0  0  0
   57.4853   31.5070   44.7695 H   0  0  0  0  0  0  0  0  0  0  0  0
  1  2  1  0
  2  3  1  0
  3  4  1  0
  4  5  2  0
  5  6  1  0
  5  7  1  0
  7  8  1  0
  7  9  2  0
  9 10  1  0
  9 11  1  0
 11 12  1  0
 11 13  2  0
 13 14  1  0
 14 15  2  0
 15 16  1  0
 16 17  1  0
 16 18  1  0
 16 19  1  0
 19 20  1  0
 19 21  1  0
 19 22  1  0
 22 23  1  0
 22 24  1  0
 22 25  1  0
 25 26  1  6
 25 27  1  0
 27 28  1  0
 27 29  1  0
 27 30  1  0
 30 31  1  0
 30 32  1  0
 30 33  1  0
 25 34  1  0
 34 35  1  0
 34 36  1  0
 34 37  1  0
 37 38  1  0
 37 39  1  0
 37 40  1  0
 40 41  1  0
 41 42  1  0
 41 43  1  0
 41 44  1  0
 44 45  1  0
 44 46  1  0
 44 47  1  0
 40 48  1  0
 48 49  1  0
 48 50  1  0
 48 51  1  0
 51 52  1  0
 51 53  1  0
 51 54  1  0
 14 55  1  0
 55 56  1  0
 55  2  2  0
 13  4  1  0
M  CHG  2   3  -1  25   1
M  END
>  <UniqueID>  (4) 
4

>  <SMILES>  (4) 
CCN(CC)CC[N@@H+](CC)CCC/N=c1\cc[n-]c2cc(Cl)ccc12

>  <Energy>  (4) 
59.65986541826169

>  <Genealogy>  (4) 
CCN(CC)CC[NH+](CC)CCCN=c1cc[n-]c2cc(Cl)ccc12 (protonated)
CCN(CC)CC[N@@H+](CC)CCCN=c1cc[n-]c2cc(Cl)ccc12 (chirality)
CCN(CC)CC[N@@H+](CC)CCC/N=c1\cc[n-]c2cc(Cl)ccc12 (cis-trans isomerization)
CCN(CC)CC[N@@H+](CC)CCC/N=c1\cc[n-]c2cc(Cl)ccc12 (3D coordinates assigned)
CCN(CC)CC[N@@H+](CC)CCC/N=c1\cc[n-]c2cc(Cl)ccc12 (optimized conformer: 59.65986541826169 kcal/mol)

>  <smiles>  (4) 
CCN(CC)CCN(CC)CCCN=c1cc[nH]c2cc(Cl)ccc12

>  <score_type>  (4) 
oracle

>  <origin>  (4) 
adg

>  <m_score__min__energy>  (4) 
-6.9100000000000001

>  <m_primary>  (4) 
energy

$$$$
4:0
     RDKit          3D

 58 61  0  0  0  0  0  0  0  0999 V2000
   61.0941   30.2176   49.5192 H   0  0  0  0  0  0  0  0  0  0  0  0
   61.2040   30.5260   48.4690 C   0  0  0  0  0  0  0  0  0  0  0  0
   60.5190   29.8360   47.5410 C   0  0  0  0  0  0  0  0  0  0  0  0
   60.3455   30.2851   46.5519 H   0  0  0  0  0  0  0  0  0  0  0  0
   59.9860   28.4610   47.8320 C   0  0  0  0  0  0  0  0  0  0  0  0
   58.8878   28.5024   47.8789 H   0  0  0  0  0  0  0  0  0  0  0  0
   60.3977   28.1194   48.7932 H   0  0  0  0  0  0  0  0  0  0  0  0
   60.3910   27.5060   46.7760 N   0  0  0  0  0  0  0  0  0  0  0  0
   60.5790   28.1830   45.4780 C   0  0  0  0  0  0  0  0  0  0  0  0
   61.1518   27.5216   44.8113 H   0  0  0  0  0  0  0  0  0  0  0  0
   61.1173   29.1251   45.6590 H   0  0  0  0  0  0  0  0  0  0  0  0
   59.2330   28.5220   44.8080 C   0  0  0  0  0  0  0  0  0  0  0  0
   59.4307   28.8263   43.7696 H   0  0  0  0  0  0  0  0  0  0  0  0
   58.7739   29.3239   45.4049 H   0  0  0  0  0  0  0  0  0  0  0  0
   58.2630   27.3910   44.7880 N   0  0  0  0  0  0  0  0  0  0  0  0
   56.9840   27.7030   45.4690 C   0  0  0  0  0  0  0  0  0  0  0  0
   57.1057   27.5388   46.5498 H   0  0  0  0  0  0  0  0  0  0  0  0
   56.2051   27.0445   45.0570 H   0  0  0  0  0  0  0  0  0  0  0  0
   56.5650   29.1340   45.2350 C   0  0  0  0  0  0  0  0  0  0  0  0
   55.6970   29.3790   44.3560 O   0  0  0  0  0  0  0  0  0  0  0  0
   57.1830   30.2320   45.9240 N   0  0  0  0  0  0  0  0  0  0  0  0
   57.7350   31.3950   45.2910 C   0  0  0  0  0  0  0  0  0  0  0  0
   57.7420   31.5090   43.8900 C   0  0  0  0  0  0  0  0  0  0  0  0
   57.3398   30.6892   43.2767 H   0  0  0  0  0  0  0  0  0  0  0  0
   58.2540   32.6520   43.2650 C   0  0  0  0  0  0  0  0  0  0  0  0
   58.2250   32.7130   41.8630 O   0  0  0  0  0  0  0  0  0  0  0  0
   57.1050   32.3390   41.0670 C   0  0  0  0  0  0  0  0  0  0  0  0
   56.2668   32.0591   41.7220 H   0  0  0  0  0  0  0  0  0  0  0  0
   56.8071   33.1864   40.4321 H   0  0  0  0  0  0  0  0  0  0  0  0
   57.3760   31.4826   40.4321 H   0  0  0  0  0  0  0  0  0  0  0  0
   58.7720   33.6970   44.0540 C   0  0  0  0  0  0  0  0  0  0  0  0
   59.1698   34.6020   43.5715 H   0  0  0  0  0  0  0  0  0  0  0  0
   58.7830   33.5890   45.4520 C   0  0  0  0  0  0  0  0  0  0  0  0
   59.2810   34.6250   46.2560 C   0  0  0  0  0  0  0  0  0  0  0  0
   59.6773   35.5402   45.7920 H   0  0  0  0  0  0  0  0  0  0  0  0
   59.2730   34.4930   47.6460 C   0  0  0  0  0  0  0  0  0  0  0  0
   59.6624   35.3017   48.2819 H   0  0  0  0  0  0  0  0  0  0  0  0
   58.7670   33.3270   48.2220 C   0  0  0  0  0  0  0  0  0  0  0  0
   58.7578   33.2146   49.3162 H   0  0  0  0  0  0  0  0  0  0  0  0
   58.2850   32.3290   47.4330 N   0  0  0  0  0  0  0  0  0  0  0  0
   58.2770   32.4250   46.0730 C   0  0  0  0  0  0  0  0  0  0  0  0
   58.8410   26.1320   45.3010 C   0  0  0  0  0  0  0  0  0  0  0  0
   59.6064   25.7782   44.5947 H   0  0  0  0  0  0  0  0  0  0  0  0
   58.0268   25.3994   45.4028 H   0  0  0  0  0  0  0  0  0  0  0  0
   59.4910   26.3210   46.6880 C   0  0  0  0  0  0  0  0  0  0  0  0
   60.0793   25.4211   46.9205 H   0  0  0  0  0  0  0  0  0  0  0  0
   58.6730   26.4870   47.4044 H   0  0  0  0  0  0  0  0  0  0  0  0
   62.1010   31.6780   48.1770 C   0  0  0  0  0  0  0  0  0  0  0  0
   63.2450   31.9880   48.9530 C   0  0  0  0  0  0  0  0  0  0  0  0
   63.4869   31.3801   49.8373 H   0  0  0  0  0  0  0  0  0  0  0  0
   64.0700   33.0640   48.6010 C   0  0  0  0  0  0  0  0  0  0  0  0
   64.9549   33.3005   49.2101 H   0  0  0  0  0  0  0  0  0  0  0  0
   63.7690   33.8380   47.4750 C   0  0  0  0  0  0  0  0  0  0  0  0
   64.4221   34.6778   47.1952 H   0  0  0  0  0  0  0  0  0  0  0  0
   62.6410   33.5460   46.7060 C   0  0  0  0  0  0  0  0  0  0  0  0
   62.4046   34.1584   45.8234 H   0  0  0  0  0  0  0  0  0  0  0  0
   61.8110   32.4760   47.0560 C   0  0  0  0  0  0  0  0  0  0  0  0
   60.9214   32.2562   46.4475 H   0  0  0  0  0  0  0  0  0  0  0  0
  1  2  1  0
  2  3  2  0
  3  4  1  0
  3  5  1  0
  5  6  1  0
  5  7  1  0
  5  8  1  0
  8  9  1  0
  9 10  1  0
  9 11  1  0
  9 12  1  0
 12 13  1  0
 12 14  1  0
 12 15  1  0
 15 16  1  0
 16 17  1  0
 16 18  1  0
 16 19  1  0
 19 20  2  0
 19 21  1  0
 21 22  1  0
 22 23  2  0
 23 24  1  0
 23 25  1  0
 25 26  1  0
 26 27  1  0
 27 28  1  0
 27 29  1  0
 27 30  1  0
 25 31  2  0
 31 32  1  0
 31 33  1  0
 33 34  2  0
 34 35  1  0
 34 36  1  0
 36 37  1  0
 36 38  2  0
 38 39  1  0
 38 40  1  0
 40 41  2  0
 15 42  1  0
 42 43  1  0
 42 44  1  0
 42 45  1  0
 45 46  1  0
 45 47  1  0
  2 48  1  0
 48 49  2  0
 49 50  1  0
 49 51  1  0
 51 52  1  0
 51 53  2  0
 53 54  1  0
 53 55  1  0
 55 56  1  0
 55 57  2  0
 57 58  1  0
 45  8  1  0
 57 48  1  0
 41 22  1  0
 41 33  1  0
M  CHG  1  21  -1
M  END
>  <UniqueID>  (5) 
5

>  <SMILES>  (5) 
COc1cc([N-]C(=O)CN2CCN(C/C=C/c3ccccc3)CC2)c2ncccc2c1

>  <Energy>  (5) 
81.53568091626846

>  <Genealogy>  (5) 
COc1cc([N-]C(=O)CN2CCN(CC=Cc3ccccc3)CC2)c2ncccc2c1 (protonated)
COc1cc([N-]C(=O)CN2CCN(C/C=C/c3ccccc3)CC2)c2ncccc2c1 (cis-trans isomerization)
COc1cc([N-]C(=O)CN2CCN(C/C=C/c3ccccc3)CC2)c2ncccc2c1 (3D coordinates assigned)
COc1cc([N-]C(=O)CN2CCN(C/C=C/c3ccccc3)CC2)c2ncccc2c1 (nonaromatic ring conformer: 81.53568091626846 kcal/mol)

>  <smiles>  (5) 
COc1cc(NC(=O)CN2CCN(CC=Cc3ccccc3)CC2)c2ncccc2c1

>  <score_type>  (5) 
oracle

>  <origin>  (5) 
adg

>  <m_score__min__energy>  (5) 
-10.65

>  <m_primary>  (5) 
energy

$$$$
5:0
     RDKit          3D

 38 40  0  0  0  0  0  0  0  0999 V2000
   56.8752   34.0318   43.6479 H   0  0  0  0  0  0  0  0  0  0  0  0
   57.4330   33.6080   44.4960 C   0  0  0  0  0  0  0  0  0  0  0  0
   58.1210   34.4540   45.3680 C   0  0  0  0  0  0  0  0  0  0  0  0
   58.1038   35.5418   45.2053 H   0  0  0  0  0  0  0  0  0  0  0  0
   58.8360   33.9180   46.4540 C   0  0  0  0  0  0  0  0  0  0  0  0
   59.5440   34.7240   47.3590 O   0  0  0  0  0  0  0  0  0  0  0  0
   60.3420   34.2250   48.4270 C   0  0  0  0  0  0  0  0  0  0  0  0
   59.8878   34.5090   49.3878 H   0  0  0  0  0  0  0  0  0  0  0  0
   60.4012   33.1287   48.3593 H   0  0  0  0  0  0  0  0  0  0  0  0
   61.3536   34.6517   48.3593 H   0  0  0  0  0  0  0  0  0  0  0  0
   58.8490   32.5310   46.6510 C   0  0  0  0  0  0  0  0  0  0  0  0
   59.4066   32.1082   47.4997 H   0  0  0  0  0  0  0  0  0  0  0  0
   58.1570   31.6710   45.7760 C   0  0  0  0  0  0  0  0  0  0  0  0
   58.1700   30.2020   45.9750 C   0  0  0  0  0  0  0  0  0  0  0  0
   57.1020   29.3990   45.7750 N   0  0  0  0  0  0  0  0  0  0  0  0
   57.5030   28.1680   46.0470 N   0  0  0  0  0  0  0  0  0  0  0  0
   56.8940   27.3230   45.9640 H   0  0  0  0  0  0  0  0  0  0  0  0
   58.7710   28.1490   46.4210 N   0  0  0  0  0  0  0  0  0  0  0  0
   59.5440   26.9460   46.7220 C   0  0  0  0  0  0  0  0  0  0  0  0
   60.4398   26.9241   46.0840 H   0  0  0  0  0  0  0  0  0  0  0  0
   59.8301   26.9677   47.7839 H   0  0  0  0  0  0  0  0  0  0  0  0
   58.7270   25.7070   46.4680 C   0  0  0  0  0  0  0  0  0  0  0  0
   59.1630   24.8620   45.6420 O   0  0  0  0  0  0  0  0  0  0  0  0
   57.4480   25.4620   47.0800 N   0  0  0  0  0  0  0  0  0  0  0  0
   56.2780   25.4030   46.5140 C   0  0  0  0  0  0  0  0  0  0  0  0
   55.4930   26.4610   46.2330 N   0  0  0  0  0  0  0  0  0  0  0  0
   54.4130   25.9820   45.6860 O   0  0  0  0  0  0  0  0  0  0  0  0
   54.4660   24.6720   45.6070 C   0  0  0  0  0  0  0  0  0  0  0  0
   53.3890   23.8130   45.0380 C   0  0  0  0  0  0  0  0  0  0  0  0
   52.8145   23.3548   45.8566 H   0  0  0  0  0  0  0  0  0  0  0  0
   52.7188   24.4273   44.4187 H   0  0  0  0  0  0  0  0  0  0  0  0
   53.8388   23.0230   44.4187 H   0  0  0  0  0  0  0  0  0  0  0  0
   55.6600   24.2320   46.1380 C   0  0  0  0  0  0  0  0  0  0  0  0
   56.0278   23.2000   46.2367 H   0  0  0  0  0  0  0  0  0  0  0  0
   59.2350   29.4100   46.3730 C   0  0  0  0  0  0  0  0  0  0  0  0
   60.2567   29.7460   46.6038 H   0  0  0  0  0  0  0  0  0  0  0  0
   57.4500   32.2260   44.6960 C   0  0  0  0  0  0  0  0  0  0  0  0
   56.9060   31.5672   44.0031 H   0  0  0  0  0  0  0  0  0  0  0  0
  1  2  1  0
  2  3  2  0
  3  4  1  0
  3  5  1  0
  5  6  1  0
  6  7  1  0
  7  8  1  0
  7  9  1  0
  7 10  1  0
  5 11  2  0
 11 12  1  0
 11 13  1  0
 13 14  1  0
 14 15  1  0
 15 16  2  0
 16 17  1  0
 16 18  1  0
 18 19  1  0
 19 20  1  0
 19 21  1  0
 19 22  1  0
 22 23  2  0
 22 24  1  0
 24 25  2  0
 25 26  1  0
 26 27  1  0
 27 28  1  0
 28 29  1  0
 29 30  1  0
 29 31  1  0
 29 32  1  0
 28 33  2  0
 33 34  1  0
 18 35  1  0
 35 36  1  0
 13 37  2  0
 37 38  1  0
 37  2  1  0
 35 14  2  0
 33 25  1  0
M  CHG  2  16   1  26  -1
M  END
>  <UniqueID>  (6) 
6

>  <SMILES>  (6) 
COc1cccc(-c2cn(CC(=O)/N=c3/cc(C)o[n-]3)[nH+]n2)c1

>  <Energy>  (6) 
107.7240356998377

>  <Genealogy>  (6) 
COc1cccc(-c2cn(CC(=O)N=c3cc(C)o[n-]3)[nH+]n2)c1 (protonated)
COc1cccc(-c2cn(CC(=O)/N=c3/cc(C)o[n-]3)[nH+]n2)c1 (cis-trans isomerization)
COc1cccc(-c2cn(CC(=O)/N=c3/cc(C)o[n-]3)[nH+]n2)c1 (3D coordinates assigned)
COc1cccc(-c2cn(CC(=O)/N=c3/cc(C)o[n-]3)[nH+]n2)c1 (optimized conformer: 107.7240356998377 kcal/mol)

>  <smiles>  (6) 
COc1cccc(-c2cn(CC(=O)N=c3cc(C)o[nH]3)nn2)c1

>  <score_type>  (6) 
oracle

>  <origin>  (6) 
adg

>  <m_score__min__energy>  (6) 
-8.7699999999999996

>  <m_primary>  (6) 
energy

$$$$
6:0
     RDKit          3D

 53 57  0  0  0  0  0  0  0  0999 V2000
   68.2430   33.8510   50.5880 C   0  0  0  0  0  0  0  0  0  0  0  0
   67.2570   33.1040   51.2950 O   0  0  0  0  0  0  0  0  0  0  0  0
   65.9040   33.0240   50.9290 C   0  0  0  0  0  0  0  0  0  0  0  0
   65.4890   33.0770   49.5870 C   0  0  0  0  0  0  0  0  0  0  0  0
   64.1290   33.0000   49.2560 C   0  0  0  0  0  0  0  0  0  0  0  0
   63.1650   32.8150   50.2670 C   0  0  0  0  0  0  0  0  0  0  0  0
   63.5830   32.7960   51.6120 C   0  0  0  0  0  0  0  0  0  0  0  0
   64.9480   32.8930   51.9440 C   0  0  0  0  0  0  0  0  0  0  0  0
   65.3940   32.8660   53.2760 O   0  0  0  0  0  0  0  0  0  0  0  0
   65.8760   33.9980   53.9920 C   0  0  0  0  0  0  0  0  0  0  0  0
   61.7240   32.7060   49.8820 C   0  0  0  0  0  0  0  0  0  0  0  0
   60.8020   32.1510   50.7280 N   0  0  0  0  0  0  0  0  0  0  0  0
   59.4770   32.0760   50.4110 C   0  0  0  0  0  0  0  0  0  0  0  0
   58.5080   31.4910   51.3740 C   0  0  0  0  0  0  0  0  0  0  0  0
   58.2090   32.1500   52.5770 C   0  0  0  0  0  0  0  0  0  0  0  0
   57.2980   31.5910   53.4760 C   0  0  0  0  0  0  0  0  0  0  0  0
   56.6930   30.3740   53.1670 C   0  0  0  0  0  0  0  0  0  0  0  0
   56.9910   29.7420   52.0010 N   0  0  0  0  0  0  0  0  0  0  0  0
   57.8720   30.2650   51.1080 C   0  0  0  0  0  0  0  0  0  0  0  0
   59.0350   32.5610   49.1740 C   0  0  0  0  0  0  0  0  0  0  0  0
   59.9510   33.0910   48.2610 C   0  0  0  0  0  0  0  0  0  0  0  0
   59.4450   33.5860   46.9680 C   0  0  0  0  0  0  0  0  0  0  0  0
   59.7520   34.8880   46.5400 C   0  0  0  0  0  0  0  0  0  0  0  0
   59.2800   35.3490   45.3080 C   0  0  0  0  0  0  0  0  0  0  0  0
   58.5070   34.5140   44.4950 C   0  0  0  0  0  0  0  0  0  0  0  0
   58.2070   33.2150   44.9140 C   0  0  0  0  0  0  0  0  0  0  0  0
   58.6760   32.7490   46.1460 C   0  0  0  0  0  0  0  0  0  0  0  0
   61.3200   33.1460   48.6020 C   0  0  0  0  0  0  0  0  0  0  0  0
   62.3500   33.7590   47.6730 C   0  0  0  0  0  0  0  0  0  0  0  0
   63.7020   33.0520   47.8130 C   0  0  0  0  0  0  0  0  0  0  0  0
   68.9069   34.3540   51.3065 H   0  0  0  0  0  0  0  0  0  0  0  0
   68.8340   33.1720   49.9559 H   0  0  0  0  0  0  0  0  0  0  0  0
   67.7493   34.6038   49.9559 H   0  0  0  0  0  0  0  0  0  0  0  0
   66.2388   33.1799   48.7887 H   0  0  0  0  0  0  0  0  0  0  0  0
   62.8342   32.7043   52.4125 H   0  0  0  0  0  0  0  0  0  0  0  0
   65.7958   33.8096   55.0728 H   0  0  0  0  0  0  0  0  0  0  0  0
   66.9287   34.1777   53.7282 H   0  0  0  0  0  0  0  0  0  0  0  0
   65.2760   34.8814   53.7282 H   0  0  0  0  0  0  0  0  0  0  0  0
   61.1150   31.7260   51.6280 H   0  0  0  0  0  0  0  0  0  0  0  0
   58.6935   33.1091   52.8122 H   0  0  0  0  0  0  0  0  0  0  0  0
   57.0604   32.1060   54.4185 H   0  0  0  0  0  0  0  0  0  0  0  0
   55.9737   29.9245   53.8674 H   0  0  0  0  0  0  0  0  0  0  0  0
   58.0886   29.7272   50.1732 H   0  0  0  0  0  0  0  0  0  0  0  0
   57.9652   32.5248   48.9204 H   0  0  0  0  0  0  0  0  0  0  0  0
   60.3643   35.5453   47.1749 H   0  0  0  0  0  0  0  0  0  0  0  0
   59.5170   36.3709   44.9770 H   0  0  0  0  0  0  0  0  0  0  0  0
   58.1354   34.8795   43.5263 H   0  0  0  0  0  0  0  0  0  0  0  0
   57.6007   32.5578   44.2733 H   0  0  0  0  0  0  0  0  0  0  0  0
   58.4416   31.7246   46.4711 H   0  0  0  0  0  0  0  0  0  0  0  0
   61.9999   33.6643   46.6345 H   0  0  0  0  0  0  0  0  0  0  0  0
   62.4780   34.8183   47.9403 H   0  0  0  0  0  0  0  0  0  0  0  0
   63.6149   32.0264   47.4251 H   0  0  0  0  0  0  0  0  0  0  0  0
   64.4555   33.6137   47.2414 H   0  0  0  0  0  0  0  0  0  0  0  0
  1  2  1  0
  2  3  1  0
  3  4  2  0
  4  5  1  0
  5  6  2  0
  6  7  1  0
  7  8  2  0
  8  9  1  0
  9 10  1  0
  6 11  1  0
 11 12  2  0
 12 13  1  0
 13 14  1  0
 14 15  2  0
 15 16  1  0
 16 17  2  0
 17 18  1  0
 18 19  2  0
 13 20  2  0
 20 21  1  0
 21 22  1  0
 22 23  2  0
 23 24  1  0
 24 25  2  0
 25 26  1  0
 26 27  2  0
 21 28  2  0
 28 29  1  0
 29 30  1  0
  8  3  1  0
 28 11  1  0
 30  5  1  0
 19 14  1  0
 27 22  1  0
  1 31  1  0
  1 32  1  0
  1 33  1  0
  4 34  1  0
  7 35  1  0
 10 36  1  0
 10 37  1  0
 10 38  1  0
 12 39  1  0
 15 40  1  0
 16 41  1  0
 17 42  1  0
 19 43  1  0
 20 44  1  0
 23 45  1  0
 24 46  1  0
 25 47  1  0
 26 48  1  0
 27 49  1  0
 29 50  1  0
 29 51  1  0
 30 52  1  0
 30 53  1  0
M  CHG  1  12   1
M  END
>  <UniqueID>  (7) 
7

>  <SMILES>  (7) 
COc1cc2c(cc1OC)-c1[nH+]c(-c3cccnc3)cc(-c3ccccc3)c1CC2

>  <Energy>  (7) 
78.620870909135

>  <Genealogy>  (7) 
COc1cc2c(cc1OC)-c1[nH+]c(-c3cccnc3)cc(-c3ccccc3)c1CC2 (protonated)
COc1cc2c(cc1OC)-c1[nH+]c(-c3cccnc3)cc(-c3ccccc3)c1CC2 (3D coordinates assigned)
COc1cc2c(cc1OC)-c1[nH+]c(-c3cccnc3)cc(-c3ccccc3)c1CC2 (nonaromatic ring conformer: 78.620870909135 kcal/mol)

>  <smiles>  (7) 
COc1cc2c(cc1OC)-c1nc(-c3cccnc3)cc(-c3ccccc3)c1CC2

>  <score_type>  (7) 
oracle

>  <origin>  (7) 
adg

>  <m_score__min__energy>  (7) 
-6.7800000000000002

>  <m_primary>  (7) 
energy

$$$$
7:0
     RDKit          3D

 32 34  0  0  0  0  0  0  0  0999 V2000
   55.8180   29.7050   43.4960 C   0  0  0  0  0  0  0  0  0  0  0  0
   56.2300   29.6440   44.8570 O   0  0  0  0  0  0  0  0  0  0  0  0
   57.3980   30.2360   45.3600 C   0  0  0  0  0  0  0  0  0  0  0  0
   58.3380   29.4170   45.9950 C   0  0  0  0  0  0  0  0  0  0  0  0
   59.5200   29.9600   46.5070 C   0  0  0  0  0  0  0  0  0  0  0  0
   59.7700   31.3280   46.3930 C   0  0  0  0  0  0  0  0  0  0  0  0
   58.8310   32.1700   45.7750 C   0  0  0  0  0  0  0  0  0  0  0  0
   59.0850   33.5780   45.6400 N   0  0  0  0  0  0  0  0  0  0  0  0
   58.3790   34.3970   44.8800 N   0  0  0  0  0  0  0  0  0  0  0  0
   58.9410   35.5940   44.8680 N   0  0  0  0  0  0  0  0  0  0  0  0
   60.0250   35.5810   45.6300 N   0  0  0  0  0  0  0  0  0  0  0  0
   60.1110   34.3230   46.1130 C   0  0  0  0  0  0  0  0  0  0  0  0
   61.1470   33.8900   47.0740 C   0  0  0  0  0  0  0  0  0  0  0  0
   60.8400   33.8140   48.4420 C   0  0  0  0  0  0  0  0  0  0  0  0
   61.8070   33.3930   49.3600 C   0  0  0  0  0  0  0  0  0  0  0  0
   63.0830   33.0310   48.9190 C   0  0  0  0  0  0  0  0  0  0  0  0
   64.4020   32.4560   50.1750 Br  0  0  0  0  0  0  0  0  0  0  0  0
   63.3900   33.0820   47.5560 C   0  0  0  0  0  0  0  0  0  0  0  0
   62.4250   33.5020   46.6350 C   0  0  0  0  0  0  0  0  0  0  0  0
   57.6530   31.6180   45.2470 C   0  0  0  0  0  0  0  0  0  0  0  0
   54.7309   29.8660   43.4489 H   0  0  0  0  0  0  0  0  0  0  0  0
   56.3339   30.5366   42.9936 H   0  0  0  0  0  0  0  0  0  0  0  0
   56.0708   28.7596   42.9936 H   0  0  0  0  0  0  0  0  0  0  0  0
   58.1456   28.3383   46.0920 H   0  0  0  0  0  0  0  0  0  0  0  0
   60.2548   29.3072   47.0010 H   0  0  0  0  0  0  0  0  0  0  0  0
   60.7062   31.7487   46.7887 H   0  0  0  0  0  0  0  0  0  0  0  0
   57.5300   34.1360   44.3330 H   0  0  0  0  0  0  0  0  0  0  0  0
   59.8339   34.0870   48.7932 H   0  0  0  0  0  0  0  0  0  0  0  0
   61.5630   33.3466   50.4316 H   0  0  0  0  0  0  0  0  0  0  0  0
   64.3920   32.7914   47.2075 H   0  0  0  0  0  0  0  0  0  0  0  0
   62.6670   33.5289   45.5623 H   0  0  0  0  0  0  0  0  0  0  0  0
   56.9239   32.2684   44.7416 H   0  0  0  0  0  0  0  0  0  0  0  0
  1  2  1  0
  2  3  1  0
  3  4  2  0
  4  5  1  0
  5  6  2  0
  6  7  1  0
  7  8  1  0
  8  9  1  0
  9 10  2  0
 10 11  1  0
 11 12  2  0
 12 13  1  0
 13 14  2  0
 14 15  1  0
 15 16  2  0
 16 17  1  0
 16 18  1  0
 18 19  2  0
  7 20  2  0
 20  3  1  0
 12  8  1  0
 19 13  1  0
  1 21  1  0
  1 22  1  0
  1 23  1  0
  4 24  1  0
  5 25  1  0
  6 26  1  0
  9 27  1  0
 14 28  1  0
 15 29  1  0
 18 30  1  0
 19 31  1  0
 20 32  1  0
M  CHG  1   9   1
M  END
>  <UniqueID>  (8) 
8

>  <SMILES>  (8) 
COc1cccc(-n2[nH+]nnc2-c2ccc(Br)cc2)c1

>  <Energy>  (8) 
82.88474641032666

>  <Genealogy>  (8) 
COc1cccc(-n2[nH+]nnc2-c2ccc(Br)cc2)c1 (protonated)
COc1cccc(-n2[nH+]nnc2-c2ccc(Br)cc2)c1 (3D coordinates assigned)
COc1cccc(-n2[nH+]nnc2-c2ccc(Br)cc2)c1 (optimized conformer: 82.88474641032666 kcal/mol)

>  <smiles>  (8) 
COc1cccc(-n2nnnc2-c2ccc(Br)cc2)c1

>  <score_type>  (8) 
oracle

>  <origin>  (8) 
adg

>  <m_score__min__energy>  (8) 
-6.7400000000000002

>  <m_primary>  (8) 
energy

$$$$
8:0
     RDKit          3D

 44 48  0  0  0  0  0  0  0  0999 V2000
   54.9476   24.4746   46.2025 H   0  0  0  0  0  0  0  0  0  0  0  0
   55.7310   25.2450   46.1510 C   0  0  0  0  0  0  0  0  0  0  0  0
   55.4250   26.4960   45.7250 N   0  0  0  0  0  0  0  0  0  0  0  0
   56.3430   27.4970   45.6240 C   0  0  0  0  0  0  0  0  0  0  0  0
   55.8890   28.6650   45.2490 N   0  0  0  0  0  0  0  0  0  0  0  0
   55.9610   29.3930   43.9820 C   0  0  0  0  0  0  0  0  0  0  0  0
   56.4074   28.7358   43.2212 H   0  0  0  0  0  0  0  0  0  0  0  0
   54.9385   29.6902   43.7060 H   0  0  0  0  0  0  0  0  0  0  0  0
   56.7880   30.6390   44.0880 C   0  0  0  0  0  0  0  0  0  0  0  0
   57.2890   31.0470   45.2850 N   0  0  0  0  0  0  0  0  0  0  0  0
   58.0310   32.1720   45.1780 C   0  0  0  0  0  0  0  0  0  0  0  0
   58.6500   32.8510   46.3370 C   0  0  0  0  0  0  0  0  0  0  0  0
   59.5540   33.9280   46.1280 C   0  0  0  0  0  0  0  0  0  0  0  0
   59.7811   34.2565   45.1030 H   0  0  0  0  0  0  0  0  0  0  0  0
   60.1610   34.5780   47.2170 C   0  0  0  0  0  0  0  0  0  0  0  0
   60.8638   35.4099   47.0619 H   0  0  0  0  0  0  0  0  0  0  0  0
   59.8440   34.1350   48.4970 C   0  0  0  0  0  0  0  0  0  0  0  0
   58.9840   33.1090   48.7090 C   0  0  0  0  0  0  0  0  0  0  0  0
   58.3620   32.4360   47.6600 C   0  0  0  0  0  0  0  0  0  0  0  0
   57.6669   31.6058   47.8537 H   0  0  0  0  0  0  0  0  0  0  0  0
   58.8560   32.8890   50.0660 O   0  0  0  0  0  0  0  0  0  0  0  0
   59.6870   33.8390   50.7490 C   0  0  0  0  0  0  0  0  0  0  0  0
   59.0805   34.4839   51.4018 H   0  0  0  0  0  0  0  0  0  0  0  0
   60.4310   33.3482   51.3936 H   0  0  0  0  0  0  0  0  0  0  0  0
   60.3020   34.6110   49.7090 O   0  0  0  0  0  0  0  0  0  0  0  0
   58.1080   32.6830   43.5740 S   0  0  0  0  0  0  0  0  0  0  0  0
   57.1590   31.4220   42.9970 C   0  0  0  0  0  0  0  0  0  0  0  0
   56.8809   31.2464   41.9473 H   0  0  0  0  0  0  0  0  0  0  0  0
   57.7020   27.2060   45.9630 C   0  0  0  0  0  0  0  0  0  0  0  0
   58.8350   28.1360   45.8460 C   0  0  0  0  0  0  0  0  0  0  0  0
   59.4710   28.3830   44.7230 O   0  0  0  0  0  0  0  0  0  0  0  0
   60.3700   29.3030   44.9050 N   0  0  0  0  0  0  0  0  0  0  0  0
   61.0230   29.6580   44.1710 H   0  0  0  0  0  0  0  0  0  0  0  0
   60.3110   29.6910   46.1930 C   0  0  0  0  0  0  0  0  0  0  0  0
   61.2340   30.6800   46.8210 C   0  0  0  0  0  0  0  0  0  0  0  0
   61.1630   30.6039   47.9161 H   0  0  0  0  0  0  0  0  0  0  0  0
   62.2665   30.4700   46.5051 H   0  0  0  0  0  0  0  0  0  0  0  0
   60.9533   31.6956   46.5051 H   0  0  0  0  0  0  0  0  0  0  0  0
   59.3300   28.9630   46.8390 C   0  0  0  0  0  0  0  0  0  0  0  0
   59.0171   29.0259   47.8917 H   0  0  0  0  0  0  0  0  0  0  0  0
   58.0150   25.9180   46.4280 C   0  0  0  0  0  0  0  0  0  0  0  0
   59.0486   25.6823   46.7213 H   0  0  0  0  0  0  0  0  0  0  0  0
   57.0330   24.9370   46.5220 C   0  0  0  0  0  0  0  0  0  0  0  0
   57.2850   23.9299   46.8857 H   0  0  0  0  0  0  0  0  0  0  0  0
  1  2  1  0
  2  3  1  0
  3  4  1  0
  4  5  2  0
  5  6  1  0
  6  7  1  0
  6  8  1  0
  6  9  1  0
  9 10  1  0
 10 11  2  0
 11 12  1  0
 12 13  2  0
 13 14  1  0
 13 15  1  0
 15 16  1  0
 15 17  2  0
 17 18  1  0
 18 19  2  0
 19 20  1  0
 18 21  1  0
 21 22  1  0
 22 23  1  0
 22 24  1  0
 22 25  1  0
 11 26  1  0
 26 27  1  0
 27 28  1  0
  4 29  1  0
 29 30  1  0
 30 31  1  0
 31 32  1  0
 32 33  1  0
 32 34  2  0
 34 35  1  0
 35 36  1  0
 35 37  1  0
 35 38  1  0
 34 39  1  0
 39 40  1  0
 29 41  2  0
 41 42  1  0
 41 43  1  0
 43 44  1  0
 43  2  2  0
 27  9  2  0
 39 30  2  0
 19 12  1  0
 25 17  1  0
M  CHG  2   3  -1  32   1
M  END
>  <UniqueID>  (9) 
9

>  <SMILES>  (9) 
Cc1cc(-c2ccc[n-]/c2=N/Cc2csc(-c3ccc4c(c3)OCO4)n2)o[nH+]1

>  <Energy>  (9) 
152.29302618048644

>  <Genealogy>  (9) 
Cc1cc(-c2ccc[n-]c2=NCc2csc(-c3ccc4c(c3)OCO4)n2)o[nH+]1 (protonated)
Cc1cc(-c2ccc[n-]/c2=N/Cc2csc(-c3ccc4c(c3)OCO4)n2)o[nH+]1 (cis-trans isomerization)
Cc1cc(-c2ccc[n-]/c2=N/Cc2csc(-c3ccc4c(c3)OCO4)n2)o[nH+]1 (3D coordinates assigned)
Cc1cc(-c2ccc[n-]/c2=N/Cc2csc(-c3ccc4c(c3)OCO4)n2)o[nH+]1 (nonaromatic ring conformer: 152.29302618048644 kcal/mol)

>  <smiles>  (9) 
Cc1cc(-c2ccc[nH]c2=NCc2csc(-c3ccc4c(c3)OCO4)n2)on1

>  <score_type>  (9) 
oracle

>  <origin>  (9) 
adg

>  <m_score__min__energy>  (9) 
-9.7300000000000004

>  <m_primary>  (9) 
energy

$$$$
9:0
     RDKit          3D

 49 50  0  0  0  0  0  0  0  0999 V2000
   59.9470   27.3340   48.1180 C   0  0  0  0  0  0  0  0  0  0  0  0
   59.1110   28.5960   47.9220 C   0  0  0  0  0  0  0  0  0  0  0  0
   58.9820   28.9280   46.4860 N   0  0  0  0  0  0  0  0  0  0  0  0
   60.2200   29.4540   45.8720 C   0  0  0  0  0  0  0  0  0  0  0  0
   60.9750   30.4460   46.7600 C   0  0  0  0  0  0  0  0  0  0  0  0
   58.2200   27.9740   45.6400 C   0  0  0  0  0  0  0  0  0  0  0  0
   58.4360   28.1320   44.1220 C   0  0  0  0  0  0  0  0  0  0  0  0
   57.5440   29.1110   43.5920 O   0  0  0  0  0  0  0  0  0  0  0  0
   56.8780   30.0580   44.3820 C   0  0  0  0  0  0  0  0  0  0  0  0
   55.7490   29.7870   44.8770 O   0  0  0  0  0  0  0  0  0  0  0  0
   57.5050   31.3730   44.6390 C   0  0  0  0  0  0  0  0  0  0  0  0
   57.8460   32.2160   43.5690 C   0  0  0  0  0  0  0  0  0  0  0  0
   58.4360   33.4580   43.8080 C   0  0  0  0  0  0  0  0  0  0  0  0
   58.6980   33.8710   45.1140 C   0  0  0  0  0  0  0  0  0  0  0  0
   58.3740   33.0460   46.2020 C   0  0  0  0  0  0  0  0  0  0  0  0
   58.6660   33.5010   47.5380 N   0  0  0  0  0  0  0  0  0  0  0  0
   59.6580   34.5250   47.8680 C   0  0  0  0  0  0  0  0  0  0  0  0
   61.0550   33.9700   47.7570 C   0  0  0  0  0  0  0  0  0  0  0  0
   61.7300   33.4870   48.8870 C   0  0  0  0  0  0  0  0  0  0  0  0
   63.0250   32.9810   48.7630 C   0  0  0  0  0  0  0  0  0  0  0  0
   63.6380   32.9700   47.5090 C   0  0  0  0  0  0  0  0  0  0  0  0
   62.9770   33.4520   46.4230 N   0  0  0  0  0  0  0  0  0  0  0  0
   61.7150   33.9490   46.5180 C   0  0  0  0  0  0  0  0  0  0  0  0
   57.7680   31.7990   45.9550 C   0  0  0  0  0  0  0  0  0  0  0  0
   60.0743   27.1419   49.1936 H   0  0  0  0  0  0  0  0  0  0  0  0
   59.4358   26.4793   47.6508 H   0  0  0  0  0  0  0  0  0  0  0  0
   60.9333   27.4713   47.6508 H   0  0  0  0  0  0  0  0  0  0  0  0
   58.1088   28.4331   48.3451 H   0  0  0  0  0  0  0  0  0  0  0  0
   59.6128   29.4318   48.4315 H   0  0  0  0  0  0  0  0  0  0  0  0
   60.8865   28.6065   45.6539 H   0  0  0  0  0  0  0  0  0  0  0  0
   59.9217   29.9986   44.9640 H   0  0  0  0  0  0  0  0  0  0  0  0
   60.7915   30.2048   47.8174 H   0  0  0  0  0  0  0  0  0  0  0  0
   62.0528   30.3791   46.5504 H   0  0  0  0  0  0  0  0  0  0  0  0
   60.6234   31.4670   46.5504 H   0  0  0  0  0  0  0  0  0  0  0  0
   58.5187   26.9537   45.9226 H   0  0  0  0  0  0  0  0  0  0  0  0
   57.1558   28.1843   45.8222 H   0  0  0  0  0  0  0  0  0  0  0  0
   59.4730   28.4472   43.9343 H   0  0  0  0  0  0  0  0  0  0  0  0
   58.2394   27.1673   43.6313 H   0  0  0  0  0  0  0  0  0  0  0  0
   57.6468   31.8954   42.5358 H   0  0  0  0  0  0  0  0  0  0  0  0
   58.6952   34.1133   42.9634 H   0  0  0  0  0  0  0  0  0  0  0  0
   59.1626   34.8519   45.2928 H   0  0  0  0  0  0  0  0  0  0  0  0
   58.1070   33.1100   48.3300 H   0  0  0  0  0  0  0  0  0  0  0  0
   59.5492   35.3704   47.1726 H   0  0  0  0  0  0  0  0  0  0  0  0
   59.4913   34.8578   48.9031 H   0  0  0  0  0  0  0  0  0  0  0  0
   61.2391   33.5068   49.8712 H   0  0  0  0  0  0  0  0  0  0  0  0
   63.5572   32.5947   49.6448 H   0  0  0  0  0  0  0  0  0  0  0  0
   64.6571   32.5709   47.3993 H   0  0  0  0  0  0  0  0  0  0  0  0
   61.2094   34.3360   45.6210 H   0  0  0  0  0  0  0  0  0  0  0  0
   57.4968   31.1498   46.8006 H   0  0  0  0  0  0  0  0  0  0  0  0
  1  2  1  0
  2  3  1  0
  3  4  1  0
  4  5  1  0
  3  6  1  0
  6  7  1  0
  7  8  1  0
  8  9  1  0
  9 10  2  0
  9 11  1  0
 11 12  2  0
 12 13  1  0
 13 14  2  0
 14 15  1  0
 15 16  1  0
 16 17  1  0
 17 18  1  0
 18 19  2  0
 19 20  1  0
 20 21  2  0
 21 22  1  0
 22 23  2  0
 15 24  2  0
 24 11  1  0
 23 18  1  0
  1 25  1  0
  1 26  1  0
  1 27  1  0
  2 28  1  0
  2 29  1  0
  4 30  1  0
  4 31  1  0
  5 32  1  0
  5 33  1  0
  5 34  1  0
  6 35  1  0
  6 36  1  0
  7 37  1  0
  7 38  1  0
 12 39  1  0
 13 40  1  0
 14 41  1  0
 16 42  1  0
 17 43  1  0
 17 44  1  0
 19 45  1  0
 20 46  1  0
 21 47  1  0
 23 48  1  0
 24 49  1  0
M  END
>  <UniqueID>  (10) 
10

>  <SMILES>  (10) 
CCN(CC)CCOC(=O)c1cccc(NCc2cccnc2)c1

>  <Energy>  (10) 
52.066894829818025

>  <Genealogy>  (10) 
CCN(CC)CCOC(=O)c1cccc(NCc2cccnc2)c1 (3D coordinates assigned)
CCN(CC)CCOC(=O)c1cccc(NCc2cccnc2)c1 (optimized conformer: 52.066894829818025 kcal/mol)

>  <smiles>  (10) 
CCN(CC)CCOC(=O)c1cccc(NCc2cccnc2)c1

>  <score_type>  (10) 
oracle

>  <origin>  (10) 
adg

>  <m_score__min__energy>  (10) 
-6.9500000000000002

>  <m_primary>  (10) 
energy

$$$$
10:0
     RDKit          3D

 32 33  0  0  0  0  0  0  0  0999 V2000
   57.3900   32.6770   44.9310 C   0  0  0  0  0  0  0  0  0  0  0  0
   58.0170   31.9360   43.7500 C   0  0  0  0  0  0  0  0  0  0  0  0
   57.0740   30.8860   43.1520 C   0  0  0  0  0  0  0  0  0  0  0  0
   57.0560   29.6280   43.9650 C   0  0  0  0  0  0  0  0  0  0  0  0
   57.5710   28.4040   43.6050 C   0  0  0  0  0  0  0  0  0  0  0  0
   57.3860   27.5890   44.6610 N   0  0  0  0  0  0  0  0  0  0  0  0
   57.7610   26.2010   44.7910 C   0  0  0  0  0  0  0  0  0  0  0  0
   57.3190   25.2350   43.8670 C   0  0  0  0  0  0  0  0  0  0  0  0
   57.6910   23.8950   44.0080 C   0  0  0  0  0  0  0  0  0  0  0  0
   58.5200   23.4950   45.0670 C   0  0  0  0  0  0  0  0  0  0  0  0
   58.8900   22.0480   45.2380 C   0  0  0  0  0  0  0  0  0  0  0  0
   60.3170   21.9300   45.5180 N   0  0  0  0  0  0  0  0  0  0  0  0
   58.9480   24.4500   46.0000 C   0  0  0  0  0  0  0  0  0  0  0  0
   58.5760   25.7900   45.8610 C   0  0  0  0  0  0  0  0  0  0  0  0
   56.7960   28.2920   45.6190 N   0  0  0  0  0  0  0  0  0  0  0  0
   56.5850   29.5380   45.2240 N   0  0  0  0  0  0  0  0  0  0  0  0
   57.7571   32.2431   45.8728 H   0  0  0  0  0  0  0  0  0  0  0  0
   57.6665   33.7407   44.8850 H   0  0  0  0  0  0  0  0  0  0  0  0
   56.2952   32.5804   44.8850 H   0  0  0  0  0  0  0  0  0  0  0  0
   58.2719   32.6675   42.9691 H   0  0  0  0  0  0  0  0  0  0  0  0
   58.9112   31.4124   44.1191 H   0  0  0  0  0  0  0  0  0  0  0  0
   56.0560   31.3011   43.1155 H   0  0  0  0  0  0  0  0  0  0  0  0
   57.4352   30.6365   42.1434 H   0  0  0  0  0  0  0  0  0  0  0  0
   58.0406   28.1429   42.6452 H   0  0  0  0  0  0  0  0  0  0  0  0
   56.6758   25.5372   43.0274 H   0  0  0  0  0  0  0  0  0  0  0  0
   57.3314   23.1491   43.2839 H   0  0  0  0  0  0  0  0  0  0  0  0
   58.3176   21.6216   46.0750 H   0  0  0  0  0  0  0  0  0  0  0  0
   58.6564   21.5026   44.3117 H   0  0  0  0  0  0  0  0  0  0  0  0
   60.8340   22.3790   44.7280 H   0  0  0  0  0  0  0  0  0  0  0  0
   60.5700   20.9150   45.4980 H   0  0  0  0  0  0  0  0  0  0  0  0
   59.5802   24.1429   46.8462 H   0  0  0  0  0  0  0  0  0  0  0  0
   58.9242   26.5307   46.5959 H   0  0  0  0  0  0  0  0  0  0  0  0
  1  2  1  0
  2  3  1  0
  3  4  1  0
  4  5  2  0
  5  6  1  0
  6  7  1  0
  7  8  2  0
  8  9  1  0
  9 10  2  0
 10 11  1  0
 11 12  1  0
 10 13  1  0
 13 14  2  0
  6 15  1  0
 15 16  2  0
 16  4  1  0
 14  7  1  0
  1 17  1  0
  1 18  1  0
  1 19  1  0
  2 20  1  0
  2 21  1  0
  3 22  1  0
  3 23  1  0
  5 24  1  0
  8 25  1  0
  9 26  1  0
 11 27  1  0
 11 28  1  0
 12 29  1  0
 12 30  1  0
 13 31  1  0
 14 32  1  0
M  END
>  <UniqueID>  (11) 
11

>  <SMILES>  (11) 
CCCc1cn(-c2ccc(CN)cc2)nn1

>  <Energy>  (11) 
61.71206520617807

>  <Genealogy>  (11) 
CCCc1cn(-c2ccc(CN)cc2)nn1 (3D coordinates assigned)
CCCc1cn(-c2ccc(CN)cc2)nn1 (optimized conformer: 61.71206520617807 kcal/mol)

>  <smiles>  (11) 
CCCc1cn(-c2ccc(CN)cc2)nn1

>  <score_type>  (11) 
oracle

>  <origin>  (11) 
adg

>  <m_score__min__energy>  (11) 
-6.4699999999999998

>  <m_primary>  (11) 
energy

$$$$
11:0
     RDKit          3D

 29 31  0  0  0  0  0  0  0  0999 V2000
   61.4380   30.8580   47.0900 C   0  0  0  0  0  0  0  0  0  0  0  0
   59.9760   30.9870   46.8110 C   0  0  0  0  0  0  0  0  0  0  0  0
   59.2310   32.1640   46.7660 C   0  0  0  0  0  0  0  0  0  0  0  0
   58.0030   31.8550   46.2240 C   0  0  0  0  0  0  0  0  0  0  0  0
   57.9810   30.5450   45.9250 N   0  0  0  0  0  0  0  0  0  0  0  0
   59.1430   30.0160   46.2760 C   0  0  0  0  0  0  0  0  0  0  0  0
   59.5330   28.4270   45.5570 S   0  0  0  0  0  0  0  0  0  0  0  0
   57.9420   28.5000   44.6060 C   0  0  0  0  0  0  0  0  0  0  0  0
   57.2590   29.7760   44.9870 C   0  0  0  0  0  0  0  0  0  0  0  0
   56.1610   30.1520   44.4950 O   0  0  0  0  0  0  0  0  0  0  0  0
   57.0490   32.9000   45.7340 C   0  0  0  0  0  0  0  0  0  0  0  0
   57.3400   34.2160   46.3400 N   0  0  0  0  0  0  0  0  0  0  0  0
   58.7770   34.5830   46.3160 C   0  0  2  0  0  0  0  0  0  0  0  0
   59.2750   34.7900   44.8770 C   0  0  0  0  0  0  0  0  0  0  0  0
   59.6530   33.5620   47.0870 C   0  0  0  0  0  0  0  0  0  0  0  0
   61.6039   30.8434   48.1773 H   0  0  0  0  0  0  0  0  0  0  0  0
   61.8143   29.9232   46.6491 H   0  0  0  0  0  0  0  0  0  0  0  0
   61.9722   31.7125   46.6491 H   0  0  0  0  0  0  0  0  0  0  0  0
   58.1477   28.4903   43.5254 H   0  0  0  0  0  0  0  0  0  0  0  0
   57.3073   27.6321   44.8381 H   0  0  0  0  0  0  0  0  0  0  0  0
   57.1366   32.9813   44.6405 H   0  0  0  0  0  0  0  0  0  0  0  0
   56.0295   32.6025   46.0205 H   0  0  0  0  0  0  0  0  0  0  0  0
   57.0250   34.1950   47.3380 H   0  0  0  0  0  0  0  0  0  0  0  0
   58.8763   35.5435   46.8428 H   0  0  0  0  0  0  0  0  0  0  0  0
   60.2906   35.2121   44.8976 H   0  0  0  0  0  0  0  0  0  0  0  0
   59.2902   33.8237   44.3517 H   0  0  0  0  0  0  0  0  0  0  0  0
   58.6007   35.4824   44.3517 H   0  0  0  0  0  0  0  0  0  0  0  0
   60.7059   33.6977   46.7989 H   0  0  0  0  0  0  0  0  0  0  0  0
   59.5311   33.7319   48.1669 H   0  0  0  0  0  0  0  0  0  0  0  0
  1  2  1  0
  2  3  1  0
  3  4  2  0
  4  5  1  0
  5  6  1  0
  6  7  1  0
  7  8  1  0
  8  9  1  0
  9 10  2  0
  4 11  1  0
 11 12  1  0
 12 13  1  0
 13 14  1  0
 13 15  1  0
  6  2  2  0
 15  3  1  0
  9  5  1  0
  1 16  1  0
  1 17  1  0
  1 18  1  0
  8 19  1  0
  8 20  1  0
 11 21  1  0
 11 22  1  0
 12 23  1  0
 13 24  1  1
 14 25  1  0
 14 26  1  0
 14 27  1  0
 15 28  1  0
 15 29  1  0
M  END
>  <UniqueID>  (12) 
12

>  <SMILES>  (12) 
Cc1c2c(n3c1SCC3=O)CN[C@H](C)C2

>  <Energy>  (12) 
78.92572375415627

>  <Genealogy>  (12) 
Cc1c2c(n3c1SCC3=O)CN[C@H](C)C2 (chirality)
Cc1c2c(n3c1SCC3=O)CN[C@H](C)C2 (3D coordinates assigned)
Cc1c2c(n3c1SCC3=O)CN[C@H](C)C2 (nonaromatic ring conformer: 78.92572375415627 kcal/mol)

>  <smiles>  (12) 
Cc1c2c(n3c1SCC3=O)CNC(C)C2

>  <score_type>  (12) 
oracle

>  <origin>  (12) 
adg

>  <m_score__min__energy>  (12) 
-6.4299999999999997

>  <m_primary>  (12) 
energy

$$$$
12:0
     RDKit          3D

 50 53  0  0  0  0  0  0  0  0999 V2000
   58.1030   27.1190   43.7730 C   0  0  0  0  0  0  0  0  0  0  0  0
   57.9130   27.4770   45.1380 O   0  0  0  0  0  0  0  0  0  0  0  0
   58.7340   28.3710   45.8430 C   0  0  0  0  0  0  0  0  0  0  0  0
   58.4120   28.8360   47.1330 C   0  0  0  0  0  0  0  0  0  0  0  0
   59.2630   29.7260   47.7930 C   0  0  0  0  0  0  0  0  0  0  0  0
   60.4530   30.1610   47.1850 C   0  0  0  0  0  0  0  0  0  0  0  0
   61.3190   31.0920   47.8610 N   0  0  0  0  0  0  0  0  0  0  0  0
   62.2830   31.9120   47.1230 C   0  0  0  0  0  0  0  0  0  0  0  0
   62.0360   33.4100   47.3920 C   0  0  0  0  0  0  0  0  0  0  0  0
   61.4240   33.6950   48.7240 N   0  0  0  0  0  0  0  0  0  0  0  0
   59.9540   33.8980   48.6370 C   0  0  0  0  0  0  0  0  0  0  0  0
   59.4880   34.0190   47.2120 C   0  0  0  0  0  0  0  0  0  0  0  0
   59.6450   35.1770   46.4560 C   0  0  0  0  0  0  0  0  0  0  0  0
   59.0180   34.8760   44.9270 S   0  0  0  0  0  0  0  0  0  0  0  0
   58.5740   33.2890   45.2840 C   0  0  0  0  0  0  0  0  0  0  0  0
   57.9250   32.3370   44.3540 C   0  0  0  0  0  0  0  0  0  0  0  0
   57.2220   31.2270   44.8580 C   0  0  0  0  0  0  0  0  0  0  0  0
   56.6070   30.3230   43.9860 C   0  0  0  0  0  0  0  0  0  0  0  0
   56.6860   30.5160   42.6050 C   0  0  0  0  0  0  0  0  0  0  0  0
   57.3810   31.6140   42.0940 C   0  0  0  0  0  0  0  0  0  0  0  0
   57.9990   32.5210   42.9600 C   0  0  0  0  0  0  0  0  0  0  0  0
   58.8980   32.9800   46.5600 N   0  0  0  0  0  0  0  0  0  0  0  0
   61.7600   32.6530   49.7250 C   0  0  0  0  0  0  0  0  0  0  0  0
   61.2240   31.2700   49.3130 C   0  0  0  0  0  0  0  0  0  0  0  0
   60.7660   29.7020   45.8950 C   0  0  0  0  0  0  0  0  0  0  0  0
   59.9140   28.8120   45.2340 C   0  0  0  0  0  0  0  0  0  0  0  0
   58.6180   26.1486   43.7167 H   0  0  0  0  0  0  0  0  0  0  0  0
   57.1256   27.0448   43.2739 H   0  0  0  0  0  0  0  0  0  0  0  0
   58.7122   27.8869   43.2739 H   0  0  0  0  0  0  0  0  0  0  0  0
   57.4871   28.4971   47.6226 H   0  0  0  0  0  0  0  0  0  0  0  0
   58.9993   30.0894   48.7972 H   0  0  0  0  0  0  0  0  0  0  0  0
   63.3019   31.6498   47.4441 H   0  0  0  0  0  0  0  0  0  0  0  0
   62.1631   31.7195   46.0466 H   0  0  0  0  0  0  0  0  0  0  0  0
   63.0008   33.9353   47.3351 H   0  0  0  0  0  0  0  0  0  0  0  0
   61.3199   33.7560   46.6321 H   0  0  0  0  0  0  0  0  0  0  0  0
   61.8460   34.5840   49.0820 H   0  0  0  0  0  0  0  0  0  0  0  0
   59.4483   33.0405   49.1050 H   0  0  0  0  0  0  0  0  0  0  0  0
   59.7079   34.8356   49.1570 H   0  0  0  0  0  0  0  0  0  0  0  0
   60.0979   36.1193   46.7981 H   0  0  0  0  0  0  0  0  0  0  0  0
   57.1558   31.0694   45.9446 H   0  0  0  0  0  0  0  0  0  0  0  0
   56.0598   29.4579   44.3887 H   0  0  0  0  0  0  0  0  0  0  0  0
   56.2014   29.8040   41.9208 H   0  0  0  0  0  0  0  0  0  0  0  0
   57.4425   31.7659   41.0063 H   0  0  0  0  0  0  0  0  0  0  0  0
   58.5459   33.3829   42.5502 H   0  0  0  0  0  0  0  0  0  0  0  0
   62.8539   32.5954   49.8254 H   0  0  0  0  0  0  0  0  0  0  0  0
   61.2893   32.9315   50.6794 H   0  0  0  0  0  0  0  0  0  0  0  0
   61.8162   30.4892   49.8126 H   0  0  0  0  0  0  0  0  0  0  0  0
   60.1678   31.1955   49.6113 H   0  0  0  0  0  0  0  0  0  0  0  0
   61.6874   30.0449   45.4016 H   0  0  0  0  0  0  0  0  0  0  0  0
   60.1737   28.4554   44.2263 H   0  0  0  0  0  0  0  0  0  0  0  0
  1  2  1  0
  2  3  1  0
  3  4  2  0
  4  5  1  0
  5  6  2  0
  6  7  1  0
  7  8  1  0
  8  9  1  0
  9 10  1  0
 10 11  1  0
 11 12  1  0
 12 13  2  0
 13 14  1  0
 14 15  1  0
 15 16  1  0
 16 17  2  0
 17 18  1  0
 18 19  2  0
 19 20  1  0
 20 21  2  0
 15 22  2  0
 10 23  1  0
 23 24  1  0
  6 25  1  0
 25 26  2  0
 26  3  1  0
 24  7  1  0
 22 12  1  0
 21 16  1  0
  1 27  1  0
  1 28  1  0
  1 29  1  0
  4 30  1  0
  5 31  1  0
  8 32  1  0
  8 33  1  0
  9 34  1  0
  9 35  1  0
 10 36  1  0
 11 37  1  0
 11 38  1  0
 13 39  1  0
 17 40  1  0
 18 41  1  0
 19 42  1  0
 20 43  1  0
 21 44  1  0
 23 45  1  0
 23 46  1  0
 24 47  1  0
 24 48  1  0
 25 49  1  0
 26 50  1  0
M  CHG  1  10   1
M  END
>  <UniqueID>  (13) 
13

>  <SMILES>  (13) 
COc1ccc(N2CC[NH+](Cc3csc(-c4ccccc4)n3)CC2)cc1

>  <Energy>  (13) 
94.95329756829085

>  <Genealogy>  (13) 
COc1ccc(N2CC[NH+](Cc3csc(-c4ccccc4)n3)CC2)cc1 (protonated)
COc1ccc(N2CC[NH+](Cc3csc(-c4ccccc4)n3)CC2)cc1 (3D coordinates assigned)
COc1ccc(N2CC[NH+](Cc3csc(-c4ccccc4)n3)CC2)cc1 (nonaromatic ring conformer: 94.95329756829085 kcal/mol)

>  <smiles>  (13) 
COc1ccc(N2CCN(Cc3csc(-c4ccccc4)n3)CC2)cc1

>  <score_type>  (13) 
oracle

>  <origin>  (13) 
adg

>  <m_score__min__energy>  (13) 
-6.3600000000000003

>  <m_primary>  (13) 
energy

$$$$
13:0
     RDKit          3D

 24 26  0  0  0  0  0  0  0  0999 V2000
   59.3300   34.9070   46.4310 C   0  0  0  0  0  0  0  0  0  0  0  0
   58.7300   34.0850   47.3920 C   0  0  0  0  0  0  0  0  0  0  0  0
   58.0340   32.9360   47.0000 C   0  0  0  0  0  0  0  0  0  0  0  0
   57.9400   32.6090   45.6430 C   0  0  0  0  0  0  0  0  0  0  0  0
   57.2710   31.4960   45.2420 N   0  0  0  0  0  0  0  0  0  0  0  0
   57.1770   31.1690   43.9260 C   0  0  0  0  0  0  0  0  0  0  0  0
   56.2950   29.6910   43.4360 S   0  0  0  0  0  0  0  0  0  0  0  0
   57.4000   28.6300   44.3600 C   0  0  0  0  0  0  0  0  0  0  0  0
   57.6970   28.8040   45.6640 N   0  0  0  0  0  0  0  0  0  0  0  0
   58.5680   27.8680   46.1250 C   0  0  0  0  0  0  0  0  0  0  0  0
   58.9720   26.9340   45.1780 C   0  0  0  0  0  0  0  0  0  0  0  0
   58.2080   27.3030   43.7220 S   0  0  0  0  0  0  0  0  0  0  0  0
   57.7750   31.9920   42.9650 C   0  0  0  0  0  0  0  0  0  0  0  0
   58.4460   33.1060   43.3600 N   0  0  0  0  0  0  0  0  0  0  0  0
   58.5460   33.4360   44.6750 C   0  0  0  0  0  0  0  0  0  0  0  0
   59.2390   34.5850   45.0720 C   0  0  0  0  0  0  0  0  0  0  0  0
   59.8751   35.8094   46.7450 H   0  0  0  0  0  0  0  0  0  0  0  0
   58.8058   34.3430   48.4586 H   0  0  0  0  0  0  0  0  0  0  0  0
   57.5622   32.2918   47.7566 H   0  0  0  0  0  0  0  0  0  0  0  0
   57.3050   29.5720   46.2530 H   0  0  0  0  0  0  0  0  0  0  0  0
   58.9250   27.8509   47.1653 H   0  0  0  0  0  0  0  0  0  0  0  0
   59.6685   26.1000   45.3491 H   0  0  0  0  0  0  0  0  0  0  0  0
   57.7025   31.7390   41.8970 H   0  0  0  0  0  0  0  0  0  0  0  0
   59.7106   35.2330   44.3185 H   0  0  0  0  0  0  0  0  0  0  0  0
  1  2  2  0
  2  3  1  0
  3  4  2  0
  4  5  1  0
  5  6  2  0
  6  7  1  0
  7  8  1  0
  8  9  2  0
  9 10  1  0
 10 11  2  0
 11 12  1  0
  6 13  1  0
 13 14  2  0
 14 15  1  0
 15 16  2  0
 16  1  1  0
 15  4  1  0
 12  8  1  0
  1 17  1  0
  2 18  1  0
  3 19  1  0
  9 20  1  0
 10 21  1  0
 11 22  1  0
 13 23  1  0
 16 24  1  0
M  CHG  1   9   1
M  END
>  <UniqueID>  (14) 
14

>  <SMILES>  (14) 
c1ccc2nc(Sc3[nH+]ccs3)cnc2c1

>  <Energy>  (14) 
55.5795854701279

>  <Genealogy>  (14) 
c1ccc2nc(Sc3[nH+]ccs3)cnc2c1 (protonated)
c1ccc2nc(Sc3[nH+]ccs3)cnc2c1 (3D coordinates assigned)
c1ccc2nc(Sc3[nH+]ccs3)cnc2c1 (optimized conformer: 55.5795854701279 kcal/mol)

>  <smiles>  (14) 
c1ccc2nc(Sc3nccs3)cnc2c1

>  <score_type>  (14) 
oracle

>  <origin>  (14) 
adg

>  <m_score__min__energy>  (14) 
-5.9699999999999998

>  <m_primary>  (14) 
energy

$$$$
14:0
     RDKit          3D

 31 33  0  0  0  0  0  0  0  0999 V2000
   59.5710   35.3450   46.7290 C   0  0  0  0  0  0  0  0  0  0  0  0
   58.9770   34.2090   45.9500 C   0  0  0  0  0  0  0  0  0  0  0  0
   58.4420   33.0970   46.6170 C   0  0  0  0  0  0  0  0  0  0  0  0
   57.9220   32.0220   45.8920 C   0  0  0  0  0  0  0  0  0  0  0  0
   57.9540   32.0310   44.4870 C   0  0  0  0  0  0  0  0  0  0  0  0
   57.3940   30.9090   43.7050 C   0  0  0  0  0  0  0  0  0  0  0  0
   56.6440   31.0820   42.5970 N   0  0  0  0  0  0  0  0  0  0  0  0
   56.2670   29.8590   42.2560 N   0  0  0  0  0  0  0  0  0  0  0  0
   56.7530   28.9600   43.0960 N   0  0  0  0  0  0  0  0  0  0  0  0
   57.4660   29.5920   44.0130 N   0  0  0  0  0  0  0  0  0  0  0  0
   58.2280   28.9240   45.0310 C   0  0  0  0  0  0  0  0  0  0  0  0
   59.6320   28.9950   45.0450 C   0  0  0  0  0  0  0  0  0  0  0  0
   60.3630   28.3270   46.0310 C   0  0  0  0  0  0  0  0  0  0  0  0
   59.7000   27.5700   47.0020 C   0  0  0  0  0  0  0  0  0  0  0  0
   60.6190   26.7300   48.2400 Cl  0  0  0  0  0  0  0  0  0  0  0  0
   58.3050   27.4750   46.9810 C   0  0  0  0  0  0  0  0  0  0  0  0
   57.5720   28.1440   45.9960 C   0  0  0  0  0  0  0  0  0  0  0  0
   58.4840   33.1470   43.8210 C   0  0  0  0  0  0  0  0  0  0  0  0
   59.0030   34.2220   44.5470 C   0  0  0  0  0  0  0  0  0  0  0  0
   59.4666   35.1454   47.8057 H   0  0  0  0  0  0  0  0  0  0  0  0
   60.6369   35.4451   46.4763 H   0  0  0  0  0  0  0  0  0  0  0  0
   59.0451   36.2775   46.4763 H   0  0  0  0  0  0  0  0  0  0  0  0
   58.4319   33.0713   47.7167 H   0  0  0  0  0  0  0  0  0  0  0  0
   57.4851   31.1638   46.4237 H   0  0  0  0  0  0  0  0  0  0  0  0
   55.6670   29.6340   41.4320 H   0  0  0  0  0  0  0  0  0  0  0  0
   60.1579   29.5795   44.2757 H   0  0  0  0  0  0  0  0  0  0  0  0
   61.4607   28.3967   46.0433 H   0  0  0  0  0  0  0  0  0  0  0  0
   57.7838   26.8733   47.7402 H   0  0  0  0  0  0  0  0  0  0  0  0
   56.4755   28.0585   45.9773 H   0  0  0  0  0  0  0  0  0  0  0  0
   58.4908   33.1754   42.7214 H   0  0  0  0  0  0  0  0  0  0  0  0
   59.4344   35.0833   44.0159 H   0  0  0  0  0  0  0  0  0  0  0  0
  1  2  1  0
  2  3  2  0
  3  4  1  0
  4  5  2  0
  5  6  1  0
  6  7  2  0
  7  8  1  0
  8  9  2  0
  9 10  1  0
 10 11  1  0
 11 12  2  0
 12 13  1  0
 13 14  2  0
 14 15  1  0
 14 16  1  0
 16 17  2  0
  5 18  1  0
 18 19  2  0
 19  2  1  0
 10  6  1  0
 17 11  1  0
  1 20  1  0
  1 21  1  0
  1 22  1  0
  3 23  1  0
  4 24  1  0
  8 25  1  0
 12 26  1  0
 13 27  1  0
 16 28  1  0
 17 29  1  0
 18 30  1  0
 19 31  1  0
M  CHG  1   8   1
M  END
>  <UniqueID>  (15) 
15

>  <SMILES>  (15) 
Cc1ccc(-c2n[nH+]nn2-c2ccc(Cl)cc2)cc1

>  <Energy>  (15) 
81.30406088288046

>  <Genealogy>  (15) 
Cc1ccc(-c2n[nH+]nn2-c2ccc(Cl)cc2)cc1 (protonated)
Cc1ccc(-c2n[nH+]nn2-c2ccc(Cl)cc2)cc1 (3D coordinates assigned)
Cc1ccc(-c2n[nH+]nn2-c2ccc(Cl)cc2)cc1 (optimized conformer: 81.30406088288046 kcal/mol)

>  <smiles>  (15) 
Cc1ccc(-c2nnnn2-c2ccc(Cl)cc2)cc1

>  <score_type>  (15) 
oracle

>  <origin>  (15) 
adg

>  <m_score__min__energy>  (15) 
-6.6299999999999999

>  <m_primary>  (15) 
energy

$$$$
15:0
     RDKit          3D

 46 49  0  0  0  0  0  0  0  0999 V2000
   56.6604   25.3353   47.3891 H   0  0  0  0  0  0  0  0  0  0  0  0
   56.3060   25.6610   46.4000 C   0  0  0  0  0  0  0  0  0  0  0  0
   55.3230   24.8000   45.7190 C   0  0  0  0  0  0  0  0  0  0  0  0
   54.0060   24.8440   45.9920 N   0  0  0  0  0  0  0  0  0  0  0  0
   53.4550   23.9980   45.1010 C   0  0  0  0  0  0  0  0  0  0  0  0
   52.3761   23.7886   45.0553 H   0  0  0  0  0  0  0  0  0  0  0  0
   54.3530   23.4330   44.2710 N   0  0  0  0  0  0  0  0  0  0  0  0
   55.5440   23.9330   44.6560 C   0  0  0  0  0  0  0  0  0  0  0  0
   56.8620   23.5840   43.9660 C   0  0  0  0  0  0  0  0  0  0  0  0
   57.9040   23.0840   44.9900 C   0  0  0  0  0  0  0  0  0  0  0  0
   57.5314   23.2628   46.0094 H   0  0  0  0  0  0  0  0  0  0  0  0
   58.0729   22.0068   44.8450 H   0  0  0  0  0  0  0  0  0  0  0  0
   58.8500   23.6262   44.8450 H   0  0  0  0  0  0  0  0  0  0  0  0
   57.4040   24.8220   43.2250 C   0  0  0  0  0  0  0  0  0  0  0  0
   57.7329   25.5733   43.9581 H   0  0  0  0  0  0  0  0  0  0  0  0
   58.2557   24.5279   42.5940 H   0  0  0  0  0  0  0  0  0  0  0  0
   56.6102   25.2483   42.5940 H   0  0  0  0  0  0  0  0  0  0  0  0
   56.6300   22.4590   42.9320 C   0  0  0  0  0  0  0  0  0  0  0  0
   56.4348   21.5125   43.4575 H   0  0  0  0  0  0  0  0  0  0  0  0
   55.7654   22.7133   42.3013 H   0  0  0  0  0  0  0  0  0  0  0  0
   57.5247   22.3505   42.3013 H   0  0  0  0  0  0  0  0  0  0  0  0
   56.8080   26.8140   45.9140 C   0  0  0  0  0  0  0  0  0  0  0  0
   55.9280   27.8080   45.6190 N   0  0  0  0  0  0  0  0  0  0  0  0
   56.3120   29.0140   45.1290 C   0  0  0  0  0  0  0  0  0  0  0  0
   55.4230   29.8560   44.8360 O   0  0  0  0  0  0  0  0  0  0  0  0
   57.6890   29.2700   44.9210 C   0  0  0  0  0  0  0  0  0  0  0  0
   58.1940   30.4290   44.4520 C   0  0  0  0  0  0  0  0  0  0  0  0
   58.7521   30.3819   43.5053 H   0  0  0  0  0  0  0  0  0  0  0  0
   58.0690   31.7540   45.0880 C   0  0  0  0  0  0  0  0  0  0  0  0
   57.0150   32.6570   44.9570 C   0  0  0  0  0  0  0  0  0  0  0  0
   56.1665   32.5354   44.2676 H   0  0  0  0  0  0  0  0  0  0  0  0
   57.1830   33.7050   45.7980 N   0  0  0  0  0  0  0  0  0  0  0  0
   56.5460   34.5240   45.9100 H   0  0  0  0  0  0  0  0  0  0  0  0
   58.3180   33.4570   46.4760 C   0  0  0  0  0  0  0  0  0  0  0  0
   58.8960   34.2460   47.4690 C   0  0  0  0  0  0  0  0  0  0  0  0
   58.4359   35.1955   47.7801 H   0  0  0  0  0  0  0  0  0  0  0  0
   60.0890   33.7870   48.0610 C   0  0  0  0  0  0  0  0  0  0  0  0
   60.5769   34.3872   48.8431 H   0  0  0  0  0  0  0  0  0  0  0  0
   60.6630   32.5610   47.6570 C   0  0  0  0  0  0  0  0  0  0  0  0
   61.5931   32.2115   48.1290 H   0  0  0  0  0  0  0  0  0  0  0  0
   60.0530   31.7840   46.6550 C   0  0  0  0  0  0  0  0  0  0  0  0
   60.4886   30.8261   46.3347 H   0  0  0  0  0  0  0  0  0  0  0  0
   58.8770   32.2690   46.0810 C   0  0  0  0  0  0  0  0  0  0  0  0
   58.5650   28.2600   45.1710 N   0  0  0  0  0  0  0  0  0  0  0  0
   58.1790   27.0500   45.6520 C   0  0  0  0  0  0  0  0  0  0  0  0
   59.0550   26.1610   45.8250 O   0  0  0  0  0  0  0  0  0  0  0  0
  1  2  1  0
  2  3  1  0
  3  4  1  0
  4  5  2  0
  5  6  1  0
  5  7  1  0
  7  8  1  0
  8  9  1  0
  9 10  1  0
 10 11  1  0
 10 12  1  0
 10 13  1  0
  9 14  1  0
 14 15  1  0
 14 16  1  0
 14 17  1  0
  9 18  1  0
 18 19  1  0
 18 20  1  0
 18 21  1  0
  2 22  2  0
 22 23  1  0
 23 24  1  0
 24 25  2  0
 24 26  1  0
 26 27  2  0
 27 28  1  0
 27 29  1  0
 29 30  2  0
 30 31  1  0
 30 32  1  0
 32 33  1  0
 32 34  1  0
 34 35  2  0
 35 36  1  0
 35 37  1  0
 37 38  1  0
 37 39  2  0
 39 40  1  0
 39 41  1  0
 41 42  1  0
 41 43  2  0
 26 44  1  0
 44 45  1  0
 45 46  2  0
  8  3  2  0
 45 22  1  0
 43 29  1  0
 43 34  1  0
M  CHG  3   7  -1  23  -1  44  -1
M  END
>  <UniqueID>  (16) 
16

>  <SMILES>  (16) 
CC(C)(C)c1[n-]cnc1/C=c1/[n-]c(=O)/c(=C\c2c[nH]c3ccccc23)[n-]c1=O

>  <Energy>  (16) 
133.21685627732822

>  <Genealogy>  (16) 
CC(C)(C)c1[n-]cnc1C=c1[n-]c(=O)c(=Cc2c[nH]c3ccccc23)[n-]c1=O (protonated)
CC(C)(C)c1[n-]cnc1/C=c1/[n-]c(=O)/c(=C\c2c[nH]c3ccccc23)[n-]c1=O (cis-trans isomerization)
CC(C)(C)c1[n-]cnc1/C=c1/[n-]c(=O)/c(=C\c2c[nH]c3ccccc23)[n-]c1=O (3D coordinates assigned)
CC(C)(C)c1[n-]cnc1/C=c1/[n-]c(=O)/c(=C\c2c[nH]c3ccccc23)[n-]c1=O (optimized conformer: 133.21685627732822 kcal/mol)

>  <smiles>  (16) 
CC(C)(C)c1[nH]cnc1C=c1[nH]c(=O)c(=Cc2c[nH]c3ccccc23)[nH]c1=O

>  <score_type>  (16) 
oracle

>  <origin>  (16) 
adg

>  <m_score__min__energy>  (16) 
-14.08

>  <m_primary>  (16) 
energy

$$$$
16:0
     RDKit          3D

 39 41  0  0  1  0  0  0  0  0999 V2000
   55.2260   25.1260   45.6360 C   0  0  0  0  0  0  0  0  0  0  0  0
   55.2960   26.4960   45.9700 O   0  0  0  0  0  0  0  0  0  0  0  0
   56.5310   27.1320   45.9660 C   0  0  0  0  0  0  0  0  0  0  0  0
   57.6400   26.5220   46.5100 C   0  0  0  0  0  0  0  0  0  0  0  0
   58.8710   27.1760   46.4980 C   0  0  0  0  0  0  0  0  0  0  0  0
   59.0230   28.4290   45.9530 C   0  0  0  0  0  0  0  0  0  0  0  0
   60.3510   29.1400   45.9380 C   0  0  0  0  0  0  0  0  0  0  0  0
   60.4200   30.1350   46.9560 N   0  0  0  0  0  0  0  0  0  0  0  0
   60.4290   31.4080   46.7790 C   0  0  0  0  0  0  0  0  0  0  0  0
   59.2650   32.0470   46.4170 C   0  0  0  0  0  0  0  0  0  0  0  0
   59.3110   33.4010   46.2380 C   0  0  0  0  0  0  0  0  0  0  0  0
   58.0520   34.0930   45.8470 C   0  0  0  0  0  0  0  0  0  0  0  0
   60.4470   34.0960   46.4080 N   0  0  0  0  0  0  0  0  0  0  0  0
   61.5910   33.4600   46.7660 C   0  0  0  0  0  0  0  0  0  0  0  0
   62.8540   33.8590   47.0060 N   0  0  0  0  0  0  0  0  0  0  0  0
   63.5760   32.7610   47.3290 C   0  0  0  0  0  0  0  0  0  0  0  0
   62.7660   31.6870   47.2900 N   0  0  0  0  0  0  0  0  0  0  0  0
   61.5610   32.1090   46.9470 N   0  0  0  0  0  0  0  0  0  0  0  0
   57.8870   29.0110   45.4130 C   0  0  0  0  0  0  0  0  0  0  0  0
   56.6550   28.3890   45.4120 C   0  0  0  0  0  0  0  0  0  0  0  0
   55.5120   28.9630   44.8750 O   0  0  0  0  0  0  0  0  0  0  0  0
   55.5160   29.7400   43.6970 C   0  0  0  0  0  0  0  0  0  0  0  0
   55.1953   24.5252   46.5569 H   0  0  0  0  0  0  0  0  0  0  0  0
   54.3171   24.9385   45.0454 H   0  0  0  0  0  0  0  0  0  0  0  0
   56.1111   24.8469   45.0454 H   0  0  0  0  0  0  0  0  0  0  0  0
   57.5541   25.5191   46.9537 H   0  0  0  0  0  0  0  0  0  0  0  0
   59.7462   26.6750   46.9374 H   0  0  0  0  0  0  0  0  0  0  0  0
   61.1525   28.4046   46.1015 H   0  0  0  0  0  0  0  0  0  0  0  0
   60.4678   29.6344   44.9624 H   0  0  0  0  0  0  0  0  0  0  0  0
   58.3290   31.4866   46.2765 H   0  0  0  0  0  0  0  0  0  0  0  0
   57.5033   34.3946   46.7514 H   0  0  0  0  0  0  0  0  0  0  0  0
   58.2939   34.9849   45.2504 H   0  0  0  0  0  0  0  0  0  0  0  0
   57.4287   33.4107   45.2504 H   0  0  0  0  0  0  0  0  0  0  0  0
   60.4590   35.1410   46.2650 H   0  0  0  0  0  0  0  0  0  0  0  0
   64.6466   32.7484   47.5814 H   0  0  0  0  0  0  0  0  0  0  0  0
   57.9710   30.0124   44.9657 H   0  0  0  0  0  0  0  0  0  0  0  0
   55.5215   30.8076   43.9620 H   0  0  0  0  0  0  0  0  0  0  0  0
   56.4129   29.5044   43.1054 H   0  0  0  0  0  0  0  0  0  0  0  0
   54.6167   29.5137   43.1054 H   0  0  0  0  0  0  0  0  0  0  0  0
  1  2  1  0
  2  3  1  0
  3  4  2  0
  4  5  1  0
  5  6  2  0
  6  7  1  0
  7  8  1  0
  8  9  2  0
  9 10  1  0
 10 11  2  0
 11 12  1  0
 11 13  1  0
 13 14  1  0
 14 15  2  0
 15 16  1  0
 16 17  2  0
 17 18  1  0
  6 19  1  0
 19 20  2  0
 20 21  1  0
 21 22  1  0
 20  3  1  0
 18  9  1  0
 18 14  1  0
  1 23  1  0
  1 24  1  0
  1 25  1  0
  4 26  1  0
  5 27  1  0
  7 28  1  0
  7 29  1  0
 10 30  1  0
 12 31  1  0
 12 32  1  0
 12 33  1  0
 13 34  1  0
 16 35  1  0
 19 36  1  0
 22 37  1  0
 22 38  1  0
 22 39  1  0
M  END
>  <smiles>  (17) 
COc1ccc(CN=c2cc(C)[nH]c3ncnn23)cc1OC

>  <score_type>  (17) 
oracle

>  <origin>  (17) 
adg

>  <m_score__min__energy>  (17) 
-7.4699999999999998

>  <m_primary>  (17) 
energy

$$$$
17:0
     RDKit          3D

100105  0  0  0  0  0  0  0  0999 V2000
   62.9190   29.3420   54.3880 C   0  0  0  0  0  0  0  0  0  0  0  0
   64.3920   29.3580   53.9210 C   0  0  0  0  0  0  0  0  0  0  0  0
   65.1870   28.4180   54.8620 C   0  0  0  0  0  0  0  0  0  0  0  0
   64.9300   30.8080   54.0420 C   0  0  0  0  0  0  0  0  0  0  0  0
   66.2300   31.0250   53.2530 C   0  0  0  0  0  0  0  0  0  0  0  0
   66.1460   30.6640   51.7130 C   0  0  2  0  0  0  0  0  0  0  0  0
   67.3110   29.7150   51.4010 C   0  0  0  0  0  0  0  0  0  0  0  0
   68.4010   29.7830   52.0320 O   0  0  0  0  0  0  0  0  0  0  0  0
   67.1350   28.6760   50.4940 O   0  0  0  0  0  0  0  0  0  0  0  0
   66.3940   31.9410   50.8290 C   0  0  0  0  0  0  0  0  0  0  0  0
   65.3030   32.2380   49.7960 C   0  0  0  0  0  0  0  0  0  0  0  0
   63.8540   32.2490   50.3840 C   0  0  2  0  0  0  0  0  0  0  0  0
   63.8090   33.3730   51.4740 C   0  0  0  0  0  0  0  0  0  0  0  0
   63.5830   30.8980   51.0840 C   0  0  0  0  0  0  0  0  0  0  0  0
   62.3080   30.4130   51.1480 C   0  0  0  0  0  0  0  0  0  0  0  0
   61.1030   30.9790   50.4300 C   0  0  0  0  0  0  0  0  0  0  0  0
   61.3280   32.3790   49.8240 C   0  0  2  0  0  0  0  0  0  0  0  0
   60.1150   33.0270   48.9680 C   0  0  2  0  0  0  0  0  0  0  0  0
   59.6590   34.3170   49.7170 C   0  0  0  0  0  0  0  0  0  0  0  0
   58.8920   32.0610   48.8790 C   0  0  0  0  0  0  0  0  0  0  0  0
   57.7650   32.5450   47.9540 C   0  0  0  0  0  0  0  0  0  0  0  0
   58.2600   32.8110   46.5160 C   0  0  2  0  0  0  0  0  0  0  0  0
   58.7020   31.5720   45.9700 O   0  0  0  0  0  0  0  0  0  0  0  0
   58.4550   31.4350   44.5770 C   0  0  2  0  0  0  0  0  0  0  0  0
   56.9450   31.3900   44.2700 C   0  0  0  0  0  0  0  0  0  0  0  0
   56.3050   30.0240   44.6190 C   0  0  1  0  0  0  0  0  0  0  0  0
   55.8430   29.3800   43.4540 O   0  0  0  0  0  0  0  0  0  0  0  0
   57.2680   29.1180   45.4200 C   0  0  1  0  0  0  0  0  0  0  0  0
   56.7240   27.8320   45.6020 O   0  0  0  0  0  0  0  0  0  0  0  0
   58.6840   29.0630   44.7570 C   0  0  2  0  0  0  0  0  0  0  0  0
   59.7830   28.6540   45.7520 C   0  0  0  0  0  0  0  0  0  0  0  0
   60.5880   29.7540   46.0880 O   0  0  0  0  0  0  0  0  0  0  0  0
   59.0790   30.2590   44.0860 O   0  0  0  0  0  0  0  0  0  0  0  0
   59.4380   33.8460   46.4910 C   0  0  0  0  0  0  0  0  0  0  0  0
   60.0240   33.8680   45.0500 C   0  0  0  0  0  0  0  0  0  0  0  0
   58.8960   35.2830   46.7740 C   0  0  0  0  0  0  0  0  0  0  0  0
   60.5680   33.3620   47.4970 C   0  0  1  0  0  0  0  0  0  0  0  0
   61.8920   34.1670   47.4190 C   0  0  0  0  0  0  0  0  0  0  0  0
   62.8960   33.8800   48.5520 C   0  0  0  0  0  0  0  0  0  0  0  0
   62.7700   32.4690   49.2050 C   0  0  1  0  0  0  0  0  0  0  0  0
   62.9810   31.3510   48.1150 C   0  0  0  0  0  0  0  0  0  0  0  0
   64.7700   29.9460   51.3820 C   0  0  2  0  0  0  0  0  0  0  0  0
   64.5070   28.8370   52.4510 C   0  0  0  0  0  0  0  0  0  0  0  0
   62.8829   29.3416   55.4874 H   0  0  0  0  0  0  0  0  0  0  0  0
   62.4030   30.2346   54.0045 H   0  0  0  0  0  0  0  0  0  0  0  0
   62.4226   28.4384   54.0045 H   0  0  0  0  0  0  0  0  0  0  0  0
   64.9684   28.6764   55.9086 H   0  0  0  0  0  0  0  0  0  0  0  0
   64.8927   27.3751   54.6727 H   0  0  0  0  0  0  0  0  0  0  0  0
   66.2642   28.5351   54.6727 H   0  0  0  0  0  0  0  0  0  0  0  0
   64.1658   31.5002   53.6587 H   0  0  0  0  0  0  0  0  0  0  0  0
   65.1504   30.9934   55.1036 H   0  0  0  0  0  0  0  0  0  0  0  0
   66.5093   32.0854   53.3403 H   0  0  0  0  0  0  0  0  0  0  0  0
   66.9725   30.3407   53.6893 H   0  0  0  0  0  0  0  0  0  0  0  0
   66.4739   32.8093   51.4995 H   0  0  0  0  0  0  0  0  0  0  0  0
   67.3123   31.7436   50.2565 H   0  0  0  0  0  0  0  0  0  0  0  0
   65.5044   33.2253   49.3548 H   0  0  0  0  0  0  0  0  0  0  0  0
   65.3386   31.4264   49.0544 H   0  0  0  0  0  0  0  0  0  0  0  0
   63.8273   32.9150   52.4739 H   0  0  0  0  0  0  0  0  0  0  0  0
   64.6815   34.0326   51.3568 H   0  0  0  0  0  0  0  0  0  0  0  0
   62.8866   33.9607   51.3568 H   0  0  0  0  0  0  0  0  0  0  0  0
   62.1419   29.5285   51.7805 H   0  0  0  0  0  0  0  0  0  0  0  0
   60.8315   30.2905   49.6162 H   0  0  0  0  0  0  0  0  0  0  0  0
   60.3075   31.0845   51.1824 H   0  0  0  0  0  0  0  0  0  0  0  0
   61.2921   33.0917   50.6611 H   0  0  0  0  0  0  0  0  0  0  0  0
   59.7178   34.1507   50.8028 H   0  0  0  0  0  0  0  0  0  0  0  0
   60.3156   35.1543   49.4382 H   0  0  0  0  0  0  0  0  0  0  0  0
   58.6220   34.5557   49.4382 H   0  0  0  0  0  0  0  0  0  0  0  0
   59.2481   31.0889   48.5073 H   0  0  0  0  0  0  0  0  0  0  0  0
   58.4640   32.0036   49.8907 H   0  0  0  0  0  0  0  0  0  0  0  0
   56.9796   31.7755   47.9210 H   0  0  0  0  0  0  0  0  0  0  0  0
   57.3819   33.4934   48.3586 H   0  0  0  0  0  0  0  0  0  0  0  0
   57.4360   33.2361   45.9242 H   0  0  0  0  0  0  0  0  0  0  0  0
   58.8787   32.3165   44.0736 H   0  0  0  0  0  0  0  0  0  0  0  0
   56.4431   32.1739   44.8563 H   0  0  0  0  0  0  0  0  0  0  0  0
   56.8208   31.5486   43.1886 H   0  0  0  0  0  0  0  0  0  0  0  0
   55.4407   30.2203   45.2706 H   0  0  0  0  0  0  0  0  0  0  0  0
   56.1170   28.4270   43.5090 H   0  0  0  0  0  0  0  0  0  0  0  0
   57.3959   29.5629   46.4178 H   0  0  0  0  0  0  0  0  0  0  0  0
   56.2630   27.5690   44.7630 H   0  0  0  0  0  0  0  0  0  0  0  0
   58.5734   28.2849   43.9874 H   0  0  0  0  0  0  0  0  0  0  0  0
   59.3136   28.2588   46.6649 H   0  0  0  0  0  0  0  0  0  0  0  0
   60.4150   27.8860   45.2821 H   0  0  0  0  0  0  0  0  0  0  0  0
   60.0190   30.5650   46.0030 H   0  0  0  0  0  0  0  0  0  0  0  0
   61.1220   33.9092   45.1013 H   0  0  0  0  0  0  0  0  0  0  0  0
   59.7158   32.9577   44.5149 H   0  0  0  0  0  0  0  0  0  0  0  0
   59.6485   34.7527   44.5149 H   0  0  0  0  0  0  0  0  0  0  0  0
   58.8351   35.4445   47.8604 H   0  0  0  0  0  0  0  0  0  0  0  0
   59.5759   36.0253   46.3305 H   0  0  0  0  0  0  0  0  0  0  0  0
   57.8952   35.3914   46.3305 H   0  0  0  0  0  0  0  0  0  0  0  0
   60.8049   32.3680   47.0898 H   0  0  0  0  0  0  0  0  0  0  0  0
   62.3800   33.9294   46.4622 H   0  0  0  0  0  0  0  0  0  0  0  0
   61.6137   35.2268   47.5158 H   0  0  0  0  0  0  0  0  0  0  0  0
   63.9114   33.9755   48.1400 H   0  0  0  0  0  0  0  0  0  0  0  0
   62.6764   34.6070   49.3478 H   0  0  0  0  0  0  0  0  0  0  0  0
   63.1632   30.3858   48.6102 H   0  0  0  0  0  0  0  0  0  0  0  0
   62.0810   31.2768   47.4869 H   0  0  0  0  0  0  0  0  0  0  0  0
   63.8461   31.6099   47.4869 H   0  0  0  0  0  0  0  0  0  0  0  0
   64.8631   29.4486   50.4053 H   0  0  0  0  0  0  0  0  0  0  0  0
   63.5658   28.3293   52.1931 H   0  0  0  0  0  0  0  0  0  0  0  0
   65.3808   28.1693   52.4263 H   0  0  0  0  0  0  0  0  0  0  0  0
  1  2  1  0
  2  3  1  0
  2  4  1  0
  4  5  1  0
  5  6  1  0
  6  7  1  6
  7  8  2  0
  7  9  1  0
  6 10  1  0
 10 11  1  0
 11 12  1  0
 12 13  1  1
 12 14  1  0
 14 15  2  0
 15 16  1  0
 16 17  1  0
 17 18  1  0
 18 19  1  1
 18 20  1  0
 20 21  1  0
 21 22  1  0
 22 23  1  0
 23 24  1  0
 24 25  1  0
 25 26  1  0
 26 27  1  0
 26 28  1  0
 28 29  1  0
 28 30  1  0
 30 31  1  0
 31 32  1  0
 30 33  1  0
 22 34  1  0
 34 35  1  0
 34 36  1  0
 34 37  1  0
 37 38  1  0
 38 39  1  0
 39 40  1  0
 40 41  1  6
 14 42  1  0
 42 43  1  0
 43  2  1  0
 42  6  1  0
 40 12  1  0
 40 17  1  0
 37 18  1  0
 33 24  1  0
  1 44  1  0
  1 45  1  0
  1 46  1  0
  3 47  1  0
  3 48  1  0
  3 49  1  0
  4 50  1  0
  4 51  1  0
  5 52  1  0
  5 53  1  0
 10 54  1  0
 10 55  1  0
 11 56  1  0
 11 57  1  0
 13 58  1  0
 13 59  1  0
 13 60  1  0
 15 61  1  0
 16 62  1  0
 16 63  1  0
 17 64  1  1
 19 65  1  0
 19 66  1  0
 19 67  1  0
 20 68  1  0
 20 69  1  0
 21 70  1  0
 21 71  1  0
 22 72  1  6
 24 73  1  6
 25 74  1  0
 25 75  1  0
 26 76  1  1
 27 77  1  0
 28 78  1  1
 29 79  1  0
 30 80  1  6
 31 81  1  0
 31 82  1  0
 32 83  1  0
 35 84  1  0
 35 85  1  0
 35 86  1  0
 36 87  1  0
 36 88  1  0
 36 89  1  0
 37 90  1  6
 38 91  1  0
 38 92  1  0
 39 93  1  0
 39 94  1  0
 41 95  1  0
 41 96  1  0
 41 97  1  0
 42 98  1  6
 43 99  1  0
 43100  1  0
M  CHG  1   9  -1
M  END
>  <UniqueID>  (18) 
17

>  <SMILES>  (18) 
CC1(C)CC[C@]2(C(=O)[O-])CC[C@]3(C)C(=CCC4C5(C)CCC(OC6CC(O)C(O)C(CO)O6)C(C)(C)C5CCC43C)C2C1

>  <Energy>  (18) 
200.43073387563746

>  <Genealogy>  (18) 
CC1(C)CCC2(C(=O)[O-])CCC3(C)C(=CCC4C5(C)CCC(OC6CC(O)C(O)C(CO)O6)C(C)(C)C5CCC43C)C2C1 (protonated)
CC1(C)CC[C@]2(C(=O)[O-])CC[C@]3(C)C(=CCC4C5(C)CCC(OC6CC(O)C(O)C(CO)O6)C(C)(C)C5CCC43C)C2C1 (chirality)
CC1(C)CC[C@]2(C(=O)[O-])CC[C@]3(C)C(=CCC4C5(C)CCC(OC6CC(O)C(O)C(CO)O6)C(C)(C)C5CCC43C)C2C1 (3D coordinates assigned)
CC1(C)CC[C@]2(C(=O)[O-])CC[C@]3(C)C(=CCC4C5(C)CCC(OC6CC(O)C(O)C(CO)O6)C(C)(C)C5CCC43C)C2C1 (nonaromatic ring conformer: 200.43073387563746 kcal/mol)

>  <smiles>  (18) 
CC1(C)CCC2(C(=O)O)CCC3(C)C(=CCC4C5(C)CCC(OC6CC(O)C(O)C(CO)O6)C(C)(C)C5CCC43C)C2C1

>  <score_type>  (18) 
oracle

>  <origin>  (18) 
adg

>  <m_score__min__energy>  (18) 
-10.699999999999999

>  <m_primary>  (18) 
energy

$$$$
18:0
     RDKit          3D

 48 50  0  0  0  0  0  0  0  0999 V2000
   59.5120   26.3060   46.1670 C   0  0  0  0  0  0  0  0  0  0  0  0
   58.4840   26.3450   45.0440 C   0  0  0  0  0  0  0  0  0  0  0  0
   58.1700   27.7270   44.6950 N   0  0  0  0  0  0  0  0  0  0  0  0
   58.5500   28.8240   45.3800 C   0  0  0  0  0  0  0  0  0  0  0  0
   57.9880   29.9240   44.7580 C   0  0  0  0  0  0  0  0  0  0  0  0
   58.1150   31.3030   45.1510 N   0  0  0  0  0  0  0  0  0  0  0  0
   58.4470   31.8170   46.4300 C   0  0  0  0  0  0  0  0  0  0  0  0
   58.6280   31.0970   47.4490 O   0  0  0  0  0  0  0  0  0  0  0  0
   58.5040   33.2430   46.4590 N   0  0  0  0  0  0  0  0  0  0  0  0
   58.8560   34.0470   47.6340 C   0  0  0  0  0  0  0  0  0  0  0  0
   60.2920   33.8200   48.0300 C   0  0  0  0  0  0  0  0  0  0  0  0
   61.2720   33.5880   47.0490 C   0  0  0  0  0  0  0  0  0  0  0  0
   62.6010   33.3650   47.4180 C   0  0  0  0  0  0  0  0  0  0  0  0
   62.9680   33.3820   48.7680 C   0  0  0  0  0  0  0  0  0  0  0  0
   64.6740   33.0910   49.2400 S   0  0  0  0  0  0  0  0  0  0  0  0
   64.4190   33.6390   50.9570 C   0  0  0  0  0  0  0  0  0  0  0  0
   61.9990   33.6180   49.7490 C   0  0  0  0  0  0  0  0  0  0  0  0
   60.6680   33.8400   49.3830 C   0  0  0  0  0  0  0  0  0  0  0  0
   58.1620   33.7420   45.1150 C   0  0  0  0  0  0  0  0  0  0  0  0
   59.3250   34.5380   44.5060 C   0  0  0  0  0  0  0  0  0  0  0  0
   56.8690   34.5700   45.1500 C   0  0  0  0  0  0  0  0  0  0  0  0
   57.9420   32.4650   44.3430 C   0  0  0  0  0  0  0  0  0  0  0  0
   57.6530   32.4230   43.1170 O   0  0  0  0  0  0  0  0  0  0  0  0
   57.2550   29.4250   43.6940 C   0  0  0  0  0  0  0  0  0  0  0  0
   57.3850   28.0850   43.6900 N   0  0  0  0  0  0  0  0  0  0  0  0
   58.9953   26.3256   47.1379 H   0  0  0  0  0  0  0  0  0  0  0  0
   60.1075   25.3846   46.0871 H   0  0  0  0  0  0  0  0  0  0  0  0
   60.1756   27.1796   46.0871 H   0  0  0  0  0  0  0  0  0  0  0  0
   58.8911   25.8309   44.1609 H   0  0  0  0  0  0  0  0  0  0  0  0
   57.5653   25.8426   45.3811 H   0  0  0  0  0  0  0  0  0  0  0  0
   59.1918   28.8412   46.2732 H   0  0  0  0  0  0  0  0  0  0  0  0
   58.7113   35.1117   47.3984 H   0  0  0  0  0  0  0  0  0  0  0  0
   58.2088   33.7476   48.4716 H   0  0  0  0  0  0  0  0  0  0  0  0
   60.9910   33.5820   45.9855 H   0  0  0  0  0  0  0  0  0  0  0  0
   63.3606   33.1756   46.6453 H   0  0  0  0  0  0  0  0  0  0  0  0
   64.7804   32.8625   51.6472 H   0  0  0  0  0  0  0  0  0  0  0  0
   64.9756   34.5718   51.1307 H   0  0  0  0  0  0  0  0  0  0  0  0
   63.3470   33.8139   51.1307 H   0  0  0  0  0  0  0  0  0  0  0  0
   62.2850   33.6289   50.8111 H   0  0  0  0  0  0  0  0  0  0  0  0
   59.9117   34.0312   50.1585 H   0  0  0  0  0  0  0  0  0  0  0  0
   59.9422   34.9605   45.3126 H   0  0  0  0  0  0  0  0  0  0  0  0
   59.9403   33.8708   43.8845 H   0  0  0  0  0  0  0  0  0  0  0  0
   58.9257   35.3531   43.8845 H   0  0  0  0  0  0  0  0  0  0  0  0
   56.5802   34.7549   46.1952 H   0  0  0  0  0  0  0  0  0  0  0  0
   57.0347   35.5304   44.6399 H   0  0  0  0  0  0  0  0  0  0  0  0
   56.0660   34.0177   44.6399 H   0  0  0  0  0  0  0  0  0  0  0  0
   56.6691   30.0195   42.9776 H   0  0  0  0  0  0  0  0  0  0  0  0
   56.9320   27.4250   43.0190 H   0  0  0  0  0  0  0  0  0  0  0  0
  1  2  1  0
  2  3  1  0
  3  4  1  0
  4  5  2  0
  5  6  1  0
  6  7  1  0
  7  8  2  0
  7  9  1  0
  9 10  1  0
 10 11  1  0
 11 12  2  0
 12 13  1  0
 13 14  2  0
 14 15  1  0
 15 16  1  0
 14 17  1  0
 17 18  2  0
  9 19  1  0
 19 20  1  0
 19 21  1  0
 19 22  1  0
 22 23  2  0
  5 24  1  0
 24 25  2  0
 25  3  1  0
 22  6  1  0
 18 11  1  0
  1 26  1  0
  1 27  1  0
  1 28  1  0
  2 29  1  0
  2 30  1  0
  4 31  1  0
 10 32  1  0
 10 33  1  0
 12 34  1  0
 13 35  1  0
 16 36  1  0
 16 37  1  0
 16 38  1  0
 17 39  1  0
 18 40  1  0
 20 41  1  0
 20 42  1  0
 20 43  1  0
 21 44  1  0
 21 45  1  0
 21 46  1  0
 24 47  1  0
 25 48  1  0
M  CHG  1  25   1
M  END
>  <UniqueID>  (19) 
18

>  <SMILES>  (19) 
CCn1cc(N2C(=O)N(Cc3ccc(SC)cc3)C(C)(C)C2=O)c[nH+]1

>  <Energy>  (19) 
88.99153647844385

>  <Genealogy>  (19) 
CCn1cc(N2C(=O)N(Cc3ccc(SC)cc3)C(C)(C)C2=O)c[nH+]1 (protonated)
CCn1cc(N2C(=O)N(Cc3ccc(SC)cc3)C(C)(C)C2=O)c[nH+]1 (3D coordinates assigned)
CCn1cc(N2C(=O)N(Cc3ccc(SC)cc3)C(C)(C)C2=O)c[nH+]1 (nonaromatic ring conformer: 88.99153647844385 kcal/mol)

>  <smiles>  (19) 
CCn1cc(N2C(=O)N(Cc3ccc(SC)cc3)C(C)(C)C2=O)cn1

>  <score_type>  (19) 
oracle

>  <origin>  (19) 
adg

>  <m_score__min__energy>  (19) 
-6.7400000000000002

>  <m_primary>  (19) 
energy

$$$$
19:0
     RDKit          3D

 38 40  0  0  0  0  0  0  0  0999 V2000
   65.9530   33.4610   50.6940 C   0  0  0  0  0  0  0  0  0  0  0  0
   65.7180   32.2810   49.7560 C   0  0  0  0  0  0  0  0  0  0  0  0
   64.3500   32.3620   49.1320 C   0  0  0  0  0  0  0  0  0  0  0  0
   64.1330   33.1680   48.0040 C   0  0  0  0  0  0  0  0  0  0  0  0
   62.8560   33.2670   47.4430 C   0  0  0  0  0  0  0  0  0  0  0  0
   61.7740   32.5790   48.0130 C   0  0  0  0  0  0  0  0  0  0  0  0
   60.4280   32.6800   47.4060 C   0  0  0  0  0  0  0  0  0  0  0  0
   60.0060   31.8080   46.3740 C   0  0  0  0  0  0  0  0  0  0  0  0
   58.6990   32.0440   45.9340 C   0  0  0  0  0  0  0  0  0  0  0  0
   57.9380   31.3170   44.8860 C   0  0  0  0  0  0  0  0  0  0  0  0
   57.3870   30.0440   45.1370 C   0  0  0  0  0  0  0  0  0  0  0  0
   56.6750   29.3710   44.1400 C   0  0  0  0  0  0  0  0  0  0  0  0
   56.5020   29.9540   42.8840 C   0  0  0  0  0  0  0  0  0  0  0  0
   57.0430   31.2140   42.6210 C   0  0  0  0  0  0  0  0  0  0  0  0
   57.7570   31.8930   43.6140 C   0  0  0  0  0  0  0  0  0  0  0  0
   58.1550   33.3350   46.8520 S   0  0  0  0  0  0  0  0  0  0  0  0
   59.5040   33.6120   47.7750 N   0  0  0  0  0  0  0  0  0  0  0  0
   59.6250   34.6660   48.7750 C   0  0  0  0  0  0  0  0  0  0  0  0
   61.9930   31.7710   49.1410 C   0  0  0  0  0  0  0  0  0  0  0  0
   63.2700   31.6710   49.7010 C   0  0  0  0  0  0  0  0  0  0  0  0
   65.8849   33.1192   51.7373 H   0  0  0  0  0  0  0  0  0  0  0  0
   66.9526   33.8819   50.5105 H   0  0  0  0  0  0  0  0  0  0  0  0
   65.1909   34.2327   50.5105 H   0  0  0  0  0  0  0  0  0  0  0  0
   66.4787   32.2941   48.9616 H   0  0  0  0  0  0  0  0  0  0  0  0
   65.7879   31.3488   50.3357 H   0  0  0  0  0  0  0  0  0  0  0  0
   64.9712   33.7244   47.5591 H   0  0  0  0  0  0  0  0  0  0  0  0
   62.6986   33.8883   46.5490 H   0  0  0  0  0  0  0  0  0  0  0  0
   60.6467   31.0174   45.9563 H   0  0  0  0  0  0  0  0  0  0  0  0
   57.5183   29.5770   46.1243 H   0  0  0  0  0  0  0  0  0  0  0  0
   56.2494   28.3779   44.3463 H   0  0  0  0  0  0  0  0  0  0  0  0
   55.9402   29.4217   42.1023 H   0  0  0  0  0  0  0  0  0  0  0  0
   56.9075   31.6737   41.6309 H   0  0  0  0  0  0  0  0  0  0  0  0
   58.1806   32.8852   43.3993 H   0  0  0  0  0  0  0  0  0  0  0  0
   59.5743   34.2244   49.7812 H   0  0  0  0  0  0  0  0  0  0  0  0
   60.5883   35.1820   48.6492 H   0  0  0  0  0  0  0  0  0  0  0  0
   58.8037   35.3869   48.6492 H   0  0  0  0  0  0  0  0  0  0  0  0
   61.1553   31.2140   49.5860 H   0  0  0  0  0  0  0  0  0  0  0  0
   63.4288   31.0470   50.5928 H   0  0  0  0  0  0  0  0  0  0  0  0
  1  2  1  0
  2  3  1  0
  3  4  2  0
  4  5  1  0
  5  6  2  0
  6  7  1  0
  7  8  1  0
  8  9  2  0
  9 10  1  0
 10 11  2  0
 11 12  1  0
 12 13  2  0
 13 14  1  0
 14 15  2  0
  9 16  1  0
 16 17  1  0
 17 18  1  0
  6 19  1  0
 19 20  2  0
 20  3  1  0
 17  7  2  0
 15 10  1  0
  1 21  1  0
  1 22  1  0
  1 23  1  0
  2 24  1  0
  2 25  1  0
  4 26  1  0
  5 27  1  0
  8 28  1  0
 11 29  1  0
 12 30  1  0
 13 31  1  0
 14 32  1  0
 15 33  1  0
 18 34  1  0
 18 35  1  0
 18 36  1  0
 19 37  1  0
 20 38  1  0
M  CHG  1  17   1
M  END
>  <UniqueID>  (20) 
19

>  <SMILES>  (20) 
CCc1ccc(-c2cc(-c3ccccc3)s[n+]2C)cc1

>  <Energy>  (20) 
76.7893431607277

>  <Genealogy>  (20) 
CCc1ccc(-c2cc(-c3ccccc3)s[n+]2C)cc1 (3D coordinates assigned)
CCc1ccc(-c2cc(-c3ccccc3)s[n+]2C)cc1 (optimized conformer: 76.7893431607277 kcal/mol)

>  <smiles>  (20) 
CCc1ccc(-c2cc(-c3ccccc3)s[n+]2C)cc1

>  <score_type>  (20) 
oracle

>  <origin>  (20) 
adg

>  <m_score__min__energy>  (20) 
-6.0099999999999998

>  <m_primary>  (20) 
energy

$$$$
20:0
     RDKit          3D

 56 59  0  0  0  0  0  0  0  0999 V2000
   59.4430   28.6340   45.4310 C   0  0  0  0  0  0  0  0  0  0  0  0
   59.9290   29.3380   46.6620 C   0  0  0  0  0  0  0  0  0  0  0  0
   59.3650   29.0520   47.9090 C   0  0  0  0  0  0  0  0  0  0  0  0
   59.8710   29.6700   49.0520 C   0  0  0  0  0  0  0  0  0  0  0  0
   60.9140   30.5360   48.9600 N   0  0  0  0  0  0  0  0  0  0  0  0
   61.4860   30.8400   47.7580 C   0  0  0  0  0  0  0  0  0  0  0  0
   62.6070   31.7440   47.6970 N   0  0  0  0  0  0  0  0  0  0  0  0
   63.7640   31.5860   48.5830 C   0  0  0  0  0  0  0  0  0  0  0  0
   64.0190   32.8840   49.3750 C   0  0  0  0  0  0  0  0  0  0  0  0
   63.5470   34.1140   48.6830 N   0  0  0  0  0  0  0  0  0  0  0  0
   62.2420   34.5900   49.1970 C   0  0  0  0  0  0  0  0  0  0  0  0
   61.8340   33.8090   50.4530 C   0  0  0  0  0  0  0  0  0  0  0  0
   60.3180   33.5800   50.5310 C   0  0  0  0  0  0  0  0  0  0  0  0
   59.6290   34.3240   49.5250 O   0  0  0  0  0  0  0  0  0  0  0  0
   59.2400   33.8330   48.2690 C   0  0  0  0  0  0  0  0  0  0  0  0
   58.4940   32.6510   48.2260 C   0  0  0  0  0  0  0  0  0  0  0  0
   58.0750   32.1150   47.0060 C   0  0  0  0  0  0  0  0  0  0  0  0
   58.3990   32.7520   45.7960 C   0  0  0  0  0  0  0  0  0  0  0  0
   57.9590   32.1910   44.4930 C   0  0  0  0  0  0  0  0  0  0  0  0
   58.2190   32.7160   43.2260 C   0  0  0  0  0  0  0  0  0  0  0  0
   57.6750   31.9570   42.1820 C   0  0  0  0  0  0  0  0  0  0  0  0
   56.9840   30.8310   42.6080 C   0  0  0  0  0  0  0  0  0  0  0  0
   57.0550   30.7810   44.2860 S   0  0  0  0  0  0  0  0  0  0  0  0
   59.1600   33.9340   45.8390 C   0  0  0  0  0  0  0  0  0  0  0  0
   59.5750   34.4720   47.0610 C   0  0  0  0  0  0  0  0  0  0  0  0
   63.5520   33.9740   47.2110 C   0  0  0  0  0  0  0  0  0  0  0  0
   62.5940   32.8610   46.7470 C   0  0  0  0  0  0  0  0  0  0  0  0
   61.0080   30.2270   46.5890 C   0  0  0  0  0  0  0  0  0  0  0  0
   58.8403   27.7609   45.7217 H   0  0  0  0  0  0  0  0  0  0  0  0
   58.8269   29.3225   44.8340 H   0  0  0  0  0  0  0  0  0  0  0  0
   60.3052   28.3020   44.8340 H   0  0  0  0  0  0  0  0  0  0  0  0
   58.5271   28.3437   47.9879 H   0  0  0  0  0  0  0  0  0  0  0  0
   59.4233   29.4553   50.0336 H   0  0  0  0  0  0  0  0  0  0  0  0
   61.2640   30.9880   49.8340 H   0  0  0  0  0  0  0  0  0  0  0  0
   63.5706   30.7640   49.2879 H   0  0  0  0  0  0  0  0  0  0  0  0
   64.6513   31.3615   47.9728 H   0  0  0  0  0  0  0  0  0  0  0  0
   63.4984   32.8084   50.3410 H   0  0  0  0  0  0  0  0  0  0  0  0
   65.1088   32.9798   49.4896 H   0  0  0  0  0  0  0  0  0  0  0  0
   62.3205   35.6585   49.4463 H   0  0  0  0  0  0  0  0  0  0  0  0
   61.4787   34.4333   48.4206 H   0  0  0  0  0  0  0  0  0  0  0  0
   62.3390   32.8319   50.4414 H   0  0  0  0  0  0  0  0  0  0  0  0
   62.1296   34.4041   51.3296 H   0  0  0  0  0  0  0  0  0  0  0  0
   60.1096   32.5091   50.3907 H   0  0  0  0  0  0  0  0  0  0  0  0
   59.9656   33.9189   51.5164 H   0  0  0  0  0  0  0  0  0  0  0  0
   58.2342   32.1375   49.1635 H   0  0  0  0  0  0  0  0  0  0  0  0
   57.4862   31.1860   46.9923 H   0  0  0  0  0  0  0  0  0  0  0  0
   58.7962   33.6381   43.0630 H   0  0  0  0  0  0  0  0  0  0  0  0
   57.7853   32.2284   41.1217 H   0  0  0  0  0  0  0  0  0  0  0  0
   56.4785   30.0995   41.9604 H   0  0  0  0  0  0  0  0  0  0  0  0
   59.4316   34.4406   44.9012 H   0  0  0  0  0  0  0  0  0  0  0  0
   60.1663   35.3994   47.0781 H   0  0  0  0  0  0  0  0  0  0  0  0
   63.2379   34.9270   46.7602 H   0  0  0  0  0  0  0  0  0  0  0  0
   64.5707   33.7075   46.8930 H   0  0  0  0  0  0  0  0  0  0  0  0
   61.5738   33.2665   46.6788 H   0  0  0  0  0  0  0  0  0  0  0  0
   62.9229   32.4954   45.7631 H   0  0  0  0  0  0  0  0  0  0  0  0
   61.4795   30.4444   45.6193 H   0  0  0  0  0  0  0  0  0  0  0  0
  1  2  1  0
  2  3  2  0
  3  4  1  0
  4  5  2  0
  5  6  1  0
  6  7  1  0
  7  8  1  0
  8  9  1  0
  9 10  1  0
 10 11  1  0
 11 12  1  0
 12 13  1  0
 13 14  1  0
 14 15  1  0
 15 16  2  0
 16 17  1  0
 17 18  2  0
 18 19  1  0
 19 20  2  0
 20 21  1  0
 21 22  2  0
 22 23  1  0
 18 24  1  0
 24 25  2  0
 10 26  1  0
 26 27  1  0
  6 28  2  0
 28  2  1  0
 27  7  1  0
 25 15  1  0
 23 19  1  0
  1 29  1  0
  1 30  1  0
  1 31  1  0
  3 32  1  0
  4 33  1  0
  5 34  1  0
  8 35  1  0
  8 36  1  0
  9 37  1  0
  9 38  1  0
 11 39  1  0
 11 40  1  0
 12 41  1  0
 12 42  1  0
 13 43  1  0
 13 44  1  0
 16 45  1  0
 17 46  1  0
 20 47  1  0
 21 48  1  0
 22 49  1  0
 24 50  1  0
 25 51  1  0
 26 52  1  0
 26 53  1  0
 27 54  1  0
 27 55  1  0
 28 56  1  0
M  CHG  1   5   1
M  END
>  <UniqueID>  (21) 
20

>  <SMILES>  (21) 
Cc1cc[nH+]c(N2CCN(CCCOc3ccc(-c4cccs4)cc3)CC2)c1

>  <Energy>  (21) 
95.56838382137853

>  <Genealogy>  (21) 
Cc1cc[nH+]c(N2CCN(CCCOc3ccc(-c4cccs4)cc3)CC2)c1 (protonated)
Cc1cc[nH+]c(N2CCN(CCCOc3ccc(-c4cccs4)cc3)CC2)c1 (3D coordinates assigned)
Cc1cc[nH+]c(N2CCN(CCCOc3ccc(-c4cccs4)cc3)CC2)c1 (nonaromatic ring conformer: 95.56838382137853 kcal/mol)

>  <smiles>  (21) 
Cc1ccnc(N2CCN(CCCOc3ccc(-c4cccs4)cc3)CC2)c1

>  <score_type>  (21) 
oracle

>  <origin>  (21) 
adg

>  <m_score__min__energy>  (21) 
-6.8200000000000003

>  <m_primary>  (21) 
energy

$$$$
21:0
     RDKit          3D

 52 54  0  0  0  0  0  0  0  0999 V2000
   66.2070   31.8100   50.5430 C   0  0  0  0  0  0  0  0  0  0  0  0
   65.5050   32.9200   49.7390 C   0  0  0  0  0  0  0  0  0  0  0  0
   64.0450   32.7080   49.5040 N   0  0  2  0  0  0  0  0  0  0  0  0
   63.7530   32.7380   48.0460 C   0  0  0  0  0  0  0  0  0  0  0  0
   62.2520   32.7160   47.7700 C   0  0  0  0  0  0  0  0  0  0  0  0
   61.6020   33.9340   48.2910 N   0  0  0  0  0  0  0  0  0  0  0  0
   60.1440   33.7580   48.4440 C   0  0  0  0  0  0  0  0  0  0  0  0
   59.5240   33.4260   47.1200 C   0  0  0  0  0  0  0  0  0  0  0  0
   58.9660   32.2250   46.7410 C   0  0  0  0  0  0  0  0  0  0  0  0
   58.4550   32.3660   45.4960 N   0  0  0  0  0  0  0  0  0  0  0  0
   57.7620   31.3660   44.7210 C   0  0  0  0  0  0  0  0  0  0  0  0
   57.4020   31.6360   43.3860 C   0  0  0  0  0  0  0  0  0  0  0  0
   56.7340   30.6750   42.6220 C   0  0  0  0  0  0  0  0  0  0  0  0
   56.4190   29.4330   43.1750 C   0  0  0  0  0  0  0  0  0  0  0  0
   56.7750   29.1490   44.4950 C   0  0  0  0  0  0  0  0  0  0  0  0
   57.4420   30.1060   45.2660 C   0  0  0  0  0  0  0  0  0  0  0  0
   58.6580   33.6070   45.0750 N   0  0  0  0  0  0  0  0  0  0  0  0
   59.3190   34.2700   46.0440 C   0  0  0  0  0  0  0  0  0  0  0  0
   59.6600   35.7230   45.9750 C   0  0  0  0  0  0  0  0  0  0  0  0
   62.2570   34.5270   49.4850 C   0  0  0  0  0  0  0  0  0  0  0  0
   63.0670   33.5120   50.3530 C   0  0  0  0  0  0  0  0  0  0  0  0
   62.0670   32.5570   51.0700 C   0  0  0  0  0  0  0  0  0  0  0  0
   63.7330   34.3240   51.5070 C   0  0  0  0  0  0  0  0  0  0  0  0
   66.0847   32.0033   51.6190 H   0  0  0  0  0  0  0  0  0  0  0  0
   65.7598   30.8368   50.2922 H   0  0  0  0  0  0  0  0  0  0  0  0
   67.2779   31.7969   50.2922 H   0  0  0  0  0  0  0  0  0  0  0  0
   65.6278   33.8663   50.2862 H   0  0  0  0  0  0  0  0  0  0  0  0
   65.9771   32.9228   48.7455 H   0  0  0  0  0  0  0  0  0  0  0  0
   63.9150   31.7010   49.7670 H   0  0  0  0  0  0  0  0  0  0  0  0
   64.1811   33.6553   47.6156 H   0  0  0  0  0  0  0  0  0  0  0  0
   64.1988   31.8424   47.5886 H   0  0  0  0  0  0  0  0  0  0  0  0
   62.0865   32.6560   46.6842 H   0  0  0  0  0  0  0  0  0  0  0  0
   61.8151   31.8417   48.2746 H   0  0  0  0  0  0  0  0  0  0  0  0
   59.9486   32.9398   49.1528 H   0  0  0  0  0  0  0  0  0  0  0  0
   59.7060   34.6933   48.8225 H   0  0  0  0  0  0  0  0  0  0  0  0
   58.9402   31.3075   47.3472 H   0  0  0  0  0  0  0  0  0  0  0  0
   57.6487   32.6113   42.9412 H   0  0  0  0  0  0  0  0  0  0  0  0
   56.4557   30.8983   41.5815 H   0  0  0  0  0  0  0  0  0  0  0  0
   55.8913   28.6792   42.5722 H   0  0  0  0  0  0  0  0  0  0  0  0
   56.5298   28.1688   44.9299 H   0  0  0  0  0  0  0  0  0  0  0  0
   57.7189   29.8740   46.3050 H   0  0  0  0  0  0  0  0  0  0  0  0
   59.7546   36.1262   46.9940 H   0  0  0  0  0  0  0  0  0  0  0  0
   60.6126   35.8511   45.4401 H   0  0  0  0  0  0  0  0  0  0  0  0
   58.8638   36.2615   45.4401 H   0  0  0  0  0  0  0  0  0  0  0  0
   62.9464   35.3131   49.1433 H   0  0  0  0  0  0  0  0  0  0  0  0
   61.4493   34.9105   50.1257 H   0  0  0  0  0  0  0  0  0  0  0  0
   62.1768   32.6619   52.1595 H   0  0  0  0  0  0  0  0  0  0  0  0
   61.0387   32.8169   50.7784 H   0  0  0  0  0  0  0  0  0  0  0  0
   62.2793   31.5178   50.7784 H   0  0  0  0  0  0  0  0  0  0  0  0
   63.4031   33.9218   52.4762 H   0  0  0  0  0  0  0  0  0  0  0  0
   64.8272   34.2418   51.4292 H   0  0  0  0  0  0  0  0  0  0  0  0
   63.4383   35.3809   51.4292 H   0  0  0  0  0  0  0  0  0  0  0  0
  1  2  1  0
  2  3  1  0
  3  4  1  0
  4  5  1  0
  5  6  1  0
  6  7  1  0
  7  8  1  0
  8  9  2  0
  9 10  1  0
 10 11  1  0
 11 12  2  0
 12 13  1  0
 13 14  2  0
 14 15  1  0
 15 16  2  0
 10 17  1  0
 17 18  2  0
 18 19  1  0
  6 20  1  0
 20 21  1  0
 21 22  1  0
 21 23  1  0
 21  3  1  0
 18  8  1  0
 16 11  1  0
  1 24  1  0
  1 25  1  0
  1 26  1  0
  2 27  1  0
  2 28  1  0
  3 29  1  1
  4 30  1  0
  4 31  1  0
  5 32  1  0
  5 33  1  0
  7 34  1  0
  7 35  1  0
  9 36  1  0
 12 37  1  0
 13 38  1  0
 14 39  1  0
 15 40  1  0
 16 41  1  0
 19 42  1  0
 19 43  1  0
 19 44  1  0
 20 45  1  0
 20 46  1  0
 22 47  1  0
 22 48  1  0
 22 49  1  0
 23 50  1  0
 23 51  1  0
 23 52  1  0
M  CHG  1   3   1
M  END
>  <UniqueID>  (22) 
21

>  <SMILES>  (22) 
CC[N@@H+]1CCN(Cc2cn(-c3ccccc3)nc2C)CC1(C)C

>  <Energy>  (22) 
111.38325823929227

>  <Genealogy>  (22) 
CC[NH+]1CCN(Cc2cn(-c3ccccc3)nc2C)CC1(C)C (protonated)
CC[N@@H+]1CCN(Cc2cn(-c3ccccc3)nc2C)CC1(C)C (chirality)
CC[N@@H+]1CCN(Cc2cn(-c3ccccc3)nc2C)CC1(C)C (3D coordinates assigned)
CC[N@@H+]1CCN(Cc2cn(-c3ccccc3)nc2C)CC1(C)C (nonaromatic ring conformer: 111.38325823929227 kcal/mol)

>  <smiles>  (22) 
CCN1CCN(Cc2cn(-c3ccccc3)nc2C)CC1(C)C

>  <score_type>  (22) 
oracle

>  <origin>  (22) 
adg

>  <m_score__min__energy>  (22) 
-6.21

>  <m_primary>  (22) 
energy

$$$$
22:0
     RDKit          3D

 56 59  0  0  0  0  0  0  0  0999 V2000
   65.1270   31.7800   50.9040 C   0  0  0  0  0  0  0  0  0  0  0  0
   63.8680   31.4620   51.7020 C   0  0  0  0  0  0  0  0  0  0  0  0
   62.8650   30.7480   50.8470 C   0  0  0  0  0  0  0  0  0  0  0  0
   62.4130   29.4960   51.1110 N   0  0  0  0  0  0  0  0  0  0  0  0
   61.5540   29.2520   50.0960 C   0  0  0  0  0  0  0  0  0  0  0  0
   60.8140   28.0880   49.9220 C   0  0  0  0  0  0  0  0  0  0  0  0
   59.9620   28.0140   48.8090 C   0  0  0  0  0  0  0  0  0  0  0  0
   59.8750   29.0900   47.8910 C   0  0  0  0  0  0  0  0  0  0  0  0
   58.9740   29.0250   46.7160 C   0  0  0  0  0  0  0  0  0  0  0  0
   59.1580   28.1310   45.8490 O   0  0  0  0  0  0  0  0  0  0  0  0
   57.9320   29.9870   46.5000 N   0  0  0  0  0  0  0  0  0  0  0  0
   58.0930   31.3120   45.9690 C   0  0  0  0  0  0  0  0  0  0  0  0
   59.0420   32.2030   46.5030 C   0  0  0  0  0  0  0  0  0  0  0  0
   59.1780   33.4900   45.9760 C   0  0  0  0  0  0  0  0  0  0  0  0
   60.3810   34.5870   46.6330 Cl  0  0  0  0  0  0  0  0  0  0  0  0
   58.3520   33.9060   44.9290 C   0  0  0  0  0  0  0  0  0  0  0  0
   57.3910   33.0370   44.4060 C   0  0  0  0  0  0  0  0  0  0  0  0
   57.2490   31.7350   44.9270 C   0  0  0  0  0  0  0  0  0  0  0  0
   56.2950   30.8320   44.4280 O   0  0  0  0  0  0  0  0  0  0  0  0
   56.5740   29.8060   43.4820 C   0  0  0  0  0  0  0  0  0  0  0  0
   60.6380   30.2490   48.1350 C   0  0  0  0  0  0  0  0  0  0  0  0
   61.4480   30.2720   49.2260 N   0  0  0  0  0  0  0  0  0  0  0  0
   62.2650   31.2250   49.6930 C   0  0  0  0  0  0  0  0  0  0  0  0
   62.4750   32.5000   49.0710 N   0  0  0  0  0  0  0  0  0  0  0  0
   63.3670   32.5810   47.9120 C   0  0  0  0  0  0  0  0  0  0  0  0
   61.7480   33.6650   49.6050 C   0  0  0  0  0  0  0  0  0  0  0  0
   60.4800   33.2820   50.3340 C   0  0  0  0  0  0  0  0  0  0  0  0
   60.3780   33.4670   51.7260 C   0  0  0  0  0  0  0  0  0  0  0  0
   59.2120   33.0890   52.4050 C   0  0  0  0  0  0  0  0  0  0  0  0
   58.1440   32.5190   51.7020 C   0  0  0  0  0  0  0  0  0  0  0  0
   58.2410   32.3260   50.3190 C   0  0  0  0  0  0  0  0  0  0  0  0
   59.4060   32.7010   49.6360 C   0  0  0  0  0  0  0  0  0  0  0  0
   65.9563   31.9895   51.5956 H   0  0  0  0  0  0  0  0  0  0  0  0
   65.3866   30.9192   50.2702 H   0  0  0  0  0  0  0  0  0  0  0  0
   64.9467   32.6608   50.2702 H   0  0  0  0  0  0  0  0  0  0  0  0
   64.1341   30.8227   52.5567 H   0  0  0  0  0  0  0  0  0  0  0  0
   63.4249   32.4052   52.0542 H   0  0  0  0  0  0  0  0  0  0  0  0
   60.8936   27.2526   50.6331 H   0  0  0  0  0  0  0  0  0  0  0  0
   59.3552   27.1108   48.6476 H   0  0  0  0  0  0  0  0  0  0  0  0
   59.6806   31.8846   47.3402 H   0  0  0  0  0  0  0  0  0  0  0  0
   58.4584   34.9197   44.5155 H   0  0  0  0  0  0  0  0  0  0  0  0
   56.7417   33.3707   43.5832 H   0  0  0  0  0  0  0  0  0  0  0  0
   56.8268   28.8765   44.0131 H   0  0  0  0  0  0  0  0  0  0  0  0
   55.6888   29.6386   42.8509 H   0  0  0  0  0  0  0  0  0  0  0  0
   57.4221   30.1099   42.8509 H   0  0  0  0  0  0  0  0  0  0  0  0
   60.5795   31.1145   47.4587 H   0  0  0  0  0  0  0  0  0  0  0  0
   64.4075   32.6755   48.2560 H   0  0  0  0  0  0  0  0  0  0  0  0
   63.2629   31.6697   47.3048 H   0  0  0  0  0  0  0  0  0  0  0  0
   63.1004   33.4586   47.3048 H   0  0  0  0  0  0  0  0  0  0  0  0
   62.4073   34.2001   50.3043 H   0  0  0  0  0  0  0  0  0  0  0  0
   61.4607   34.2955   48.7507 H   0  0  0  0  0  0  0  0  0  0  0  0
   61.2169   33.9100   52.2827 H   0  0  0  0  0  0  0  0  0  0  0  0
   59.1358   33.2404   53.4919 H   0  0  0  0  0  0  0  0  0  0  0  0
   57.2291   32.2229   52.2361 H   0  0  0  0  0  0  0  0  0  0  0  0
   57.4010   31.8790   49.7670 H   0  0  0  0  0  0  0  0  0  0  0  0
   59.4806   32.5404   48.5504 H   0  0  0  0  0  0  0  0  0  0  0  0
  1  2  1  0
  2  3  1  0
  3  4  1  0
  4  5  2  0
  5  6  1  0
  6  7  2  0
  7  8  1  0
  8  9  1  0
  9 10  2  0
  9 11  1  0
 11 12  1  0
 12 13  2  0
 13 14  1  0
 14 15  1  0
 14 16  2  0
 16 17  1  0
 17 18  2  0
 18 19  1  0
 19 20  1  0
  8 21  2  0
 21 22  1  0
 22 23  1  0
 23 24  1  0
 24 25  1  0
 24 26  1  0
 26 27  1  0
 27 28  2  0
 28 29  1  0
 29 30  2  0
 30 31  1  0
 31 32  2  0
 23  3  2  0
 32 27  1  0
 22  5  1  0
 18 12  1  0
  1 33  1  0
  1 34  1  0
  1 35  1  0
  2 36  1  0
  2 37  1  0
  6 38  1  0
  7 39  1  0
 13 40  1  0
 16 41  1  0
 17 42  1  0
 20 43  1  0
 20 44  1  0
 20 45  1  0
 21 46  1  0
 25 47  1  0
 25 48  1  0
 25 49  1  0
 26 50  1  0
 26 51  1  0
 28 52  1  0
 29 53  1  0
 30 54  1  0
 31 55  1  0
 32 56  1  0
M  CHG  1  11  -1
M  END
>  <UniqueID>  (23) 
22

>  <SMILES>  (23) 
CCc1nc2ccc(C(=O)[N-]c3cc(Cl)ccc3OC)cn2c1N(C)Cc1ccccc1

>  <Energy>  (23) 
103.40186042791298

>  <Genealogy>  (23) 
CCc1nc2ccc(C(=O)[N-]c3cc(Cl)ccc3OC)cn2c1N(C)Cc1ccccc1 (protonated)
CCc1nc2ccc(C(=O)[N-]c3cc(Cl)ccc3OC)cn2c1N(C)Cc1ccccc1 (3D coordinates assigned)
CCc1nc2ccc(C(=O)[N-]c3cc(Cl)ccc3OC)cn2c1N(C)Cc1ccccc1 (optimized conformer: 103.40186042791298 kcal/mol)

>  <smiles>  (23) 
CCc1nc2ccc(C(=O)Nc3cc(Cl)ccc3OC)cn2c1N(C)Cc1ccccc1

>  <score_type>  (23) 
oracle

>  <origin>  (23) 
adg

>  <m_score__min__energy>  (23) 
-11.91

>  <m_primary>  (23) 
energy

$$$$
23:0
     RDKit          3D

 30 31  0  0  0  0  0  0  0  0999 V2000
   55.5280   29.7660   43.6170 C   0  0  0  0  0  0  0  0  0  0  0  0
   56.1970   29.7150   44.8730 O   0  0  0  0  0  0  0  0  0  0  0  0
   57.5060   29.2450   45.0620 C   0  0  0  0  0  0  0  0  0  0  0  0
   57.8220   27.8750   44.9530 C   0  0  0  0  0  0  0  0  0  0  0  0
   59.1260   27.4290   45.1800 C   0  0  0  0  0  0  0  0  0  0  0  0
   60.1280   28.3370   45.5170 C   0  0  0  0  0  0  0  0  0  0  0  0
   59.8310   29.6960   45.6240 C   0  0  0  0  0  0  0  0  0  0  0  0
   58.5270   30.1650   45.3910 C   0  0  0  0  0  0  0  0  0  0  0  0
   58.2450   31.5760   45.4950 N   0  0  0  0  0  0  0  0  0  0  0  0
   57.6570   32.2960   44.3590 C   0  0  0  0  0  0  0  0  0  0  0  0
   57.8900   33.8040   44.5100 C   0  0  0  0  0  0  0  0  0  0  0  0
   57.3790   34.3370   45.7870 N   0  0  0  0  0  0  0  0  0  0  0  0
   57.4150   33.3910   46.9210 C   0  0  0  0  0  0  0  0  0  0  0  0
   58.4750   32.2960   46.7520 C   0  0  0  0  0  0  0  0  0  0  0  0
   54.4436   29.8487   43.7822 H   0  0  0  0  0  0  0  0  0  0  0  0
   55.8801   30.6399   43.0493 H   0  0  0  0  0  0  0  0  0  0  0  0
   55.7435   28.8488   43.0493 H   0  0  0  0  0  0  0  0  0  0  0  0
   57.0361   27.1526   44.6874 H   0  0  0  0  0  0  0  0  0  0  0  0
   59.3626   26.3583   45.0925 H   0  0  0  0  0  0  0  0  0  0  0  0
   61.1532   27.9822   45.6987 H   0  0  0  0  0  0  0  0  0  0  0  0
   60.6255   30.4074   45.8934 H   0  0  0  0  0  0  0  0  0  0  0  0
   58.1250   31.9476   43.4265 H   0  0  0  0  0  0  0  0  0  0  0  0
   56.5748   32.1010   44.3318 H   0  0  0  0  0  0  0  0  0  0  0  0
   58.9711   33.9997   44.4551 H   0  0  0  0  0  0  0  0  0  0  0  0
   57.3423   34.3063   43.6990 H   0  0  0  0  0  0  0  0  0  0  0  0
   56.3860   34.6410   45.6470 H   0  0  0  0  0  0  0  0  0  0  0  0
   57.6351   33.9535   47.8403 H   0  0  0  0  0  0  0  0  0  0  0  0
   56.4339   32.8958   46.9687 H   0  0  0  0  0  0  0  0  0  0  0  0
   59.4747   32.7545   46.7333 H   0  0  0  0  0  0  0  0  0  0  0  0
   58.4081   31.5908   47.5936 H   0  0  0  0  0  0  0  0  0  0  0  0
  1  2  1  0
  2  3  1  0
  3  4  2  0
  4  5  1  0
  5  6  2  0
  6  7  1  0
  7  8  2  0
  8  9  1  0
  9 10  1  0
 10 11  1  0
 11 12  1  0
 12 13  1  0
 13 14  1  0
  8  3  1  0
 14  9  1  0
  1 15  1  0
  1 16  1  0
  1 17  1  0
  4 18  1  0
  5 19  1  0
  6 20  1  0
  7 21  1  0
 10 22  1  0
 10 23  1  0
 11 24  1  0
 11 25  1  0
 12 26  1  0
 13 27  1  0
 13 28  1  0
 14 29  1  0
 14 30  1  0
M  END
>  <UniqueID>  (24) 
23

>  <SMILES>  (24) 
COc1ccccc1N1CCNCC1

>  <Energy>  (24) 
37.77310025236719

>  <Genealogy>  (24) 
COc1ccccc1N1CCNCC1 (3D coordinates assigned)
COc1ccccc1N1CCNCC1 (nonaromatic ring conformer: 37.77310025236719 kcal/mol)

>  <smiles>  (24) 
COc1ccccc1N1CCNCC1

>  <score_type>  (24) 
oracle

>  <origin>  (24) 
adg

>  <m_score__min__energy>  (24) 
-5.2400000000000002

>  <m_primary>  (24) 
energy

$$$$
24:0
     RDKit          3D

 46 49  0  0  0  0  0  0  0  0999 V2000
   58.7560   23.2670   45.2570 C   0  0  0  0  0  0  0  0  0  0  0  0
   59.3320   24.4200   45.8630 O   0  0  0  0  0  0  0  0  0  0  0  0
   58.8820   25.7350   45.6610 C   0  0  0  0  0  0  0  0  0  0  0  0
   58.1450   26.1020   44.5310 C   0  0  0  0  0  0  0  0  0  0  0  0
   57.7340   27.4170   44.3640 C   0  0  0  0  0  0  0  0  0  0  0  0
   58.0540   28.3850   45.3300 C   0  0  0  0  0  0  0  0  0  0  0  0
   57.6320   29.7420   45.1520 C   0  0  0  0  0  0  0  0  0  0  0  0
   56.9290   30.1640   43.9740 N   0  0  0  0  0  0  0  0  0  0  0  0
   57.4820   31.2260   43.1330 C   0  0  0  0  0  0  0  0  0  0  0  0
   55.5460   29.7320   43.7820 C   0  0  0  0  0  0  0  0  0  0  0  0
   57.8900   30.6640   46.1210 N   0  0  0  0  0  0  0  0  0  0  0  0
   58.5660   30.2760   47.2200 C   0  0  0  0  0  0  0  0  0  0  0  0
   58.9870   28.9970   47.4060 C   0  0  0  0  0  0  0  0  0  0  0  0
   59.5470   28.9030   48.6340 N   0  0  0  0  0  0  0  0  0  0  0  0
   59.4460   30.1530   49.1520 C   0  0  0  0  0  0  0  0  0  0  0  0
   58.8550   31.0220   48.2960 N   0  0  0  0  0  0  0  0  0  0  0  0
   58.4780   32.4090   48.5560 C   0  0  0  0  0  0  0  0  0  0  0  0
   58.5900   33.2160   47.2910 C   0  0  0  0  0  0  0  0  0  0  0  0
   59.8450   33.6440   46.8280 C   0  0  0  0  0  0  0  0  0  0  0  0
   59.9490   34.3520   45.6270 C   0  0  0  0  0  0  0  0  0  0  0  0
   58.8030   34.6320   44.8780 C   0  0  0  0  0  0  0  0  0  0  0  0
   57.5520   34.1990   45.3260 C   0  0  0  0  0  0  0  0  0  0  0  0
   57.4440   33.4900   46.5260 C   0  0  0  0  0  0  0  0  0  0  0  0
   58.7560   28.0120   46.4730 N   0  0  0  0  0  0  0  0  0  0  0  0
   59.1820   26.7070   46.6260 C   0  0  0  0  0  0  0  0  0  0  0  0
   59.8620   26.3540   47.6250 O   0  0  0  0  0  0  0  0  0  0  0  0
   58.4105   22.5754   46.0395 H   0  0  0  0  0  0  0  0  0  0  0  0
   57.9028   23.5689   44.6317 H   0  0  0  0  0  0  0  0  0  0  0  0
   59.5098   22.7662   44.6317 H   0  0  0  0  0  0  0  0  0  0  0  0
   57.8904   25.3469   43.7727 H   0  0  0  0  0  0  0  0  0  0  0  0
   57.1560   27.7019   43.4725 H   0  0  0  0  0  0  0  0  0  0  0  0
   57.8959   32.0208   43.7709 H   0  0  0  0  0  0  0  0  0  0  0  0
   58.2795   30.8130   42.4979 H   0  0  0  0  0  0  0  0  0  0  0  0
   56.6863   31.6426   42.4979 H   0  0  0  0  0  0  0  0  0  0  0  0
   55.0690   29.5830   44.7619 H   0  0  0  0  0  0  0  0  0  0  0  0
   54.9963   30.5012   43.2198 H   0  0  0  0  0  0  0  0  0  0  0  0
   55.5319   28.7866   43.2198 H   0  0  0  0  0  0  0  0  0  0  0  0
   59.9380   28.0810   49.1400 H   0  0  0  0  0  0  0  0  0  0  0  0
   59.8038   30.4302   50.1546 H   0  0  0  0  0  0  0  0  0  0  0  0
   57.4404   32.4429   48.9196 H   0  0  0  0  0  0  0  0  0  0  0  0
   59.1522   32.8312   49.3157 H   0  0  0  0  0  0  0  0  0  0  0  0
   60.7497   33.4213   47.4127 H   0  0  0  0  0  0  0  0  0  0  0  0
   60.9338   34.6890   45.2713 H   0  0  0  0  0  0  0  0  0  0  0  0
   58.8856   35.1933   43.9356 H   0  0  0  0  0  0  0  0  0  0  0  0
   56.6510   34.4164   44.7335 H   0  0  0  0  0  0  0  0  0  0  0  0
   56.4584   33.1455   46.8724 H   0  0  0  0  0  0  0  0  0  0  0  0
  1  2  1  0
  2  3  1  0
  3  4  2  0
  4  5  1  0
  5  6  2  0
  6  7  1  0
  7  8  1  0
  8  9  1  0
  8 10  1  0
  7 11  2  0
 11 12  1  0
 12 13  2  0
 13 14  1  0
 14 15  2  0
 15 16  1  0
 16 17  1  0
 17 18  1  0
 18 19  2  0
 19 20  1  0
 20 21  2  0
 21 22  1  0
 22 23  2  0
 13 24  1  0
 24 25  1  0
 25 26  2  0
 25  3  1  0
 24  6  1  0
 16 12  1  0
 23 18  1  0
  1 27  1  0
  1 28  1  0
  1 29  1  0
  4 30  1  0
  5 31  1  0
  9 32  1  0
  9 33  1  0
  9 34  1  0
 10 35  1  0
 10 36  1  0
 10 37  1  0
 14 38  1  0
 15 39  1  0
 17 40  1  0
 17 41  1  0
 19 42  1  0
 20 43  1  0
 21 44  1  0
 22 45  1  0
 23 46  1  0
M  CHG  1  14   1
M  END
>  <UniqueID>  (25) 
24

>  <SMILES>  (25) 
COc1ccc2c(N(C)C)nc3c([nH+]cn3Cc3ccccc3)n2c1=O

>  <Energy>  (25) 
103.67878853622156

>  <Genealogy>  (25) 
COc1ccc2c(N(C)C)nc3c([nH+]cn3Cc3ccccc3)n2c1=O (protonated)
COc1ccc2c(N(C)C)nc3c([nH+]cn3Cc3ccccc3)n2c1=O (3D coordinates assigned)
COc1ccc2c(N(C)C)nc3c([nH+]cn3Cc3ccccc3)n2c1=O (optimized conformer: 103.67878853622156 kcal/mol)

>  <smiles>  (25) 
COc1ccc2c(N(C)C)nc3c(ncn3Cc3ccccc3)n2c1=O

>  <score_type>  (25) 
oracle

>  <origin>  (25) 
adg

>  <m_score__min__energy>  (25) 
-5.8600000000000003

>  <m_primary>  (25) 
energy

$$$$
25:0
     RDKit          3D

 40 43  0  0  0  0  0  0  0  0999 V2000
   54.6795   29.6985   43.8915 H   0  0  0  0  0  0  0  0  0  0  0  0
   55.6260   29.7870   44.4450 C   0  0  0  0  0  0  0  0  0  0  0  0
   56.1760   28.7700   45.1480 N   0  0  0  0  0  0  0  0  0  0  0  0
   57.2890   29.2630   45.6590 N   0  0  0  0  0  0  0  0  0  0  0  0
   58.2200   28.6450   46.4580 C   0  0  0  0  0  0  0  0  0  0  0  0
   58.1350   27.4060   46.8540 N   0  0  0  0  0  0  0  0  0  0  0  0
   58.6730   26.2270   46.1830 C   0  0  0  0  0  0  0  0  0  0  0  0
   59.3509   26.5400   45.3753 H   0  0  0  0  0  0  0  0  0  0  0  0
   59.2298   25.6114   46.9048 H   0  0  0  0  0  0  0  0  0  0  0  0
   57.5390   25.4300   45.6070 C   0  0  0  0  0  0  0  0  0  0  0  0
   57.7510   24.6010   44.4920 C   0  0  0  0  0  0  0  0  0  0  0  0
   58.7578   24.5128   44.0578 H   0  0  0  0  0  0  0  0  0  0  0  0
   56.6860   23.8880   43.9330 C   0  0  0  0  0  0  0  0  0  0  0  0
   56.8585   23.2337   43.0657 H   0  0  0  0  0  0  0  0  0  0  0  0
   55.4030   24.0050   44.4740 C   0  0  0  0  0  0  0  0  0  0  0  0
   54.5676   23.4392   44.0358 H   0  0  0  0  0  0  0  0  0  0  0  0
   55.1810   24.8410   45.5720 C   0  0  0  0  0  0  0  0  0  0  0  0
   54.1698   24.9365   45.9943 H   0  0  0  0  0  0  0  0  0  0  0  0
   56.2430   25.5560   46.1340 C   0  0  0  0  0  0  0  0  0  0  0  0
   56.0629   26.2199   46.9924 H   0  0  0  0  0  0  0  0  0  0  0  0
   59.3080   29.4400   46.8460 C   0  0  0  0  0  0  0  0  0  0  0  0
   59.4040   30.7220   46.4450 N   0  0  0  0  0  0  0  0  0  0  0  0
   60.5500   31.1530   47.0110 C   0  0  0  0  0  0  0  0  0  0  0  0
   61.0960   32.5490   46.9240 C   0  0  0  0  0  0  0  0  0  0  0  0
   60.4560   33.2195   47.5164 H   0  0  0  0  0  0  0  0  0  0  0  0
   61.1067   32.8472   45.8652 H   0  0  0  0  0  0  0  0  0  0  0  0
   62.5310   32.6320   47.4580 C   0  0  0  0  0  0  0  0  0  0  0  0
   63.0359   31.6744   47.2628 H   0  0  0  0  0  0  0  0  0  0  0  0
   62.4746   32.8475   48.5352 H   0  0  0  0  0  0  0  0  0  0  0  0
   63.3360   33.7530   46.8020 C   0  0  0  0  0  0  0  0  0  0  0  0
   63.7889   34.3836   47.5813 H   0  0  0  0  0  0  0  0  0  0  0  0
   64.1288   33.3173   46.1763 H   0  0  0  0  0  0  0  0  0  0  0  0
   62.6698   34.3651   46.1763 H   0  0  0  0  0  0  0  0  0  0  0  0
   61.1260   30.1680   47.7420 N   0  0  0  0  0  0  0  0  0  0  0  0
   60.3460   29.0990   47.6280 N   0  0  0  0  0  0  0  0  0  0  0  0
   60.5260   28.1760   48.0830 H   0  0  0  0  0  0  0  0  0  0  0  0
   58.4790   31.3350   45.6550 C   0  0  0  0  0  0  0  0  0  0  0  0
   58.5805   32.3852   45.3440 H   0  0  0  0  0  0  0  0  0  0  0  0
   57.3930   30.5470   45.2640 C   0  0  0  0  0  0  0  0  0  0  0  0
   56.3610   30.9280   44.4920 N   0  0  0  0  0  0  0  0  0  0  0  0
  1  2  1  0
  2  3  2  0
  3  4  1  0
  4  5  1  0
  5  6  2  0
  6  7  1  0
  7  8  1  0
  7  9  1  0
  7 10  1  0
 10 11  2  0
 11 12  1  0
 11 13  1  0
 13 14  1  0
 13 15  2  0
 15 16  1  0
 15 17  1  0
 17 18  1  0
 17 19  2  0
 19 20  1  0
  5 21  1  0
 21 22  1  0
 22 23  1  0
 23 24  1  0
 24 25  1  0
 24 26  1  0
 24 27  1  0
 27 28  1  0
 27 29  1  0
 27 30  1  0
 30 31  1  0
 30 32  1  0
 30 33  1  0
 23 34  2  0
 34 35  1  0
 35 36  1  0
 22 37  1  0
 37 38  1  0
 37 39  2  0
 39 40  1  0
 40  2  1  0
 39  4  1  0
 19 10  1  0
 35 21  2  0
M  CHG  2  35   1  40  -1
M  END
>  <UniqueID>  (26) 
25

>  <SMILES>  (26) 
CCCc1n[nH+]c2/c(=N/Cc3ccccc3)n3nc[n-]c3cn12

>  <Energy>  (26) 
122.22471581011737

>  <Genealogy>  (26) 
CCCc1n[nH+]c2c(=NCc3ccccc3)n3nc[n-]c3cn12 (protonated)
CCCc1n[nH+]c2/c(=N/Cc3ccccc3)n3nc[n-]c3cn12 (cis-trans isomerization)
CCCc1n[nH+]c2/c(=N/Cc3ccccc3)n3nc[n-]c3cn12 (3D coordinates assigned)
CCCc1n[nH+]c2/c(=N/Cc3ccccc3)n3nc[n-]c3cn12 (optimized conformer: 122.22471581011737 kcal/mol)

>  <smiles>  (26) 
CCCc1nnc2c(=NCc3ccccc3)n3nc[nH]c3cn12

>  <score_type>  (26) 
oracle

>  <origin>  (26) 
adg

>  <m_score__min__energy>  (26) 
-7.0099999999999998

>  <m_primary>  (26) 
energy

$$$$
26:0
     RDKit          3D

 45 47  0  0  0  0  0  0  0  0999 V2000
   57.3870   31.5300   43.0210 O   0  0  0  0  0  0  0  0  0  0  0  0
   57.0490   31.5580   44.2370 C   0  0  0  0  0  0  0  0  0  0  0  0
   56.0910   30.6200   44.7420 N   0  0  0  0  0  0  0  0  0  0  0  0
   56.2650   29.1730   44.6610 C   0  0  0  0  0  0  0  0  0  0  0  0
   57.6760   28.8000   45.0220 C   0  0  0  0  0  0  0  0  0  0  0  0
   57.9260   28.0260   46.1660 C   0  0  0  0  0  0  0  0  0  0  0  0
   59.2360   27.6480   46.4670 C   0  0  0  0  0  0  0  0  0  0  0  0
   60.2800   28.0320   45.6250 C   0  0  0  0  0  0  0  0  0  0  0  0
   59.9990   28.7950   44.4900 C   0  0  0  0  0  0  0  0  0  0  0  0
   58.7160   29.1640   44.2140 N   0  0  0  0  0  0  0  0  0  0  0  0
   57.6060   32.6210   45.1490 C   0  0  0  0  0  0  0  0  0  0  0  0
   58.1340   32.0090   46.4760 C   0  0  0  0  0  0  0  0  0  0  0  0
   59.6630   31.9740   46.5330 C   0  0  0  0  0  0  0  0  0  0  0  0
   60.1950   33.3300   46.3390 N   0  0  0  0  0  0  0  0  0  0  0  0
   61.3940   33.7440   47.0200 C   0  0  0  0  0  0  0  0  0  0  0  0
   62.3510   34.2240   46.3510 O   0  0  0  0  0  0  0  0  0  0  0  0
   61.5210   33.6340   48.4920 C   0  0  0  0  0  0  0  0  0  0  0  0
   60.3790   33.7060   49.3100 C   0  0  0  0  0  0  0  0  0  0  0  0
   60.4950   33.5880   50.6990 C   0  0  0  0  0  0  0  0  0  0  0  0
   61.7490   33.3900   51.2830 C   0  0  0  0  0  0  0  0  0  0  0  0
   62.8890   33.3070   50.4790 C   0  0  0  0  0  0  0  0  0  0  0  0
   62.7770   33.4230   49.0910 C   0  0  0  0  0  0  0  0  0  0  0  0
   59.6000   34.2160   45.3270 C   0  0  0  0  0  0  0  0  0  0  0  0
   58.6700   33.4430   44.3840 C   0  0  0  0  0  0  0  0  0  0  0  0
   55.5697   28.6836   45.3588 H   0  0  0  0  0  0  0  0  0  0  0  0
   56.0579   28.8431   43.6323 H   0  0  0  0  0  0  0  0  0  0  0  0
   57.0964   27.7197   46.8202 H   0  0  0  0  0  0  0  0  0  0  0  0
   59.4443   27.0490   47.3657 H   0  0  0  0  0  0  0  0  0  0  0  0
   61.3147   27.7364   45.8532 H   0  0  0  0  0  0  0  0  0  0  0  0
   60.8144   29.0990   43.8172 H   0  0  0  0  0  0  0  0  0  0  0  0
   58.5360   29.7330   43.3570 H   0  0  0  0  0  0  0  0  0  0  0  0
   56.8045   33.3125   45.4481 H   0  0  0  0  0  0  0  0  0  0  0  0
   57.7627   32.6136   47.3165 H   0  0  0  0  0  0  0  0  0  0  0  0
   57.7717   30.9721   46.5353 H   0  0  0  0  0  0  0  0  0  0  0  0
   59.9841   31.5916   47.5131 H   0  0  0  0  0  0  0  0  0  0  0  0
   60.0431   31.3154   45.7381 H   0  0  0  0  0  0  0  0  0  0  0  0
   59.3889   33.8560   48.8548 H   0  0  0  0  0  0  0  0  0  0  0  0
   59.5979   33.6512   51.3324 H   0  0  0  0  0  0  0  0  0  0  0  0
   61.8388   33.2995   52.3756 H   0  0  0  0  0  0  0  0  0  0  0  0
   63.8757   33.1502   50.9393 H   0  0  0  0  0  0  0  0  0  0  0  0
   63.6766   33.3489   48.4623 H   0  0  0  0  0  0  0  0  0  0  0  0
   59.0219   35.0020   45.8349 H   0  0  0  0  0  0  0  0  0  0  0  0
   60.4130   34.6540   44.7293 H   0  0  0  0  0  0  0  0  0  0  0  0
   58.1569   34.1607   43.7271 H   0  0  0  0  0  0  0  0  0  0  0  0
   59.2872   32.7387   43.8069 H   0  0  0  0  0  0  0  0  0  0  0  0
  1  2  2  0
  2  3  1  0
  3  4  1  0
  4  5  1  0
  5  6  2  0
  6  7  1  0
  7  8  2  0
  8  9  1  0
  9 10  2  0
  2 11  1  0
 11 12  1  0
 12 13  1  0
 13 14  1  0
 14 15  1  0
 15 16  2  0
 15 17  1  0
 17 18  2  0
 18 19  1  0
 19 20  2  0
 20 21  1  0
 21 22  2  0
 14 23  1  0
 23 24  1  0
 10  5  1  0
 24 11  1  0
 22 17  1  0
  4 25  1  0
  4 26  1  0
  6 27  1  0
  7 28  1  0
  8 29  1  0
  9 30  1  0
 10 31  1  0
 11 32  1  0
 12 33  1  0
 12 34  1  0
 13 35  1  0
 13 36  1  0
 18 37  1  0
 19 38  1  0
 20 39  1  0
 21 40  1  0
 22 41  1  0
 23 42  1  0
 23 43  1  0
 24 44  1  0
 24 45  1  0
M  CHG  2   3  -1  10   1
M  END
>  <UniqueID>  (27) 
26

>  <SMILES>  (27) 
O=C([N-]Cc1cccc[nH+]1)C1CCN(C(=O)c2ccccc2)CC1

>  <Energy>  (27) 
51.012269212212395

>  <Genealogy>  (27) 
O=C([N-]Cc1cccc[nH+]1)C1CCN(C(=O)c2ccccc2)CC1 (protonated)
O=C([N-]Cc1cccc[nH+]1)C1CCN(C(=O)c2ccccc2)CC1 (3D coordinates assigned)
O=C([N-]Cc1cccc[nH+]1)C1CCN(C(=O)c2ccccc2)CC1 (nonaromatic ring conformer: 51.012269212212395 kcal/mol)

>  <smiles>  (27) 
O=C(NCc1ccccn1)C1CCN(C(=O)c2ccccc2)CC1

>  <score_type>  (27) 
oracle

>  <origin>  (27) 
adg

>  <m_score__min__energy>  (27) 
-8.1400000000000006

>  <m_primary>  (27) 
energy

$$$$
27:0
     RDKit          3D

 57 60  0  0  0  0  0  0  0  0999 V2000
   57.0250   33.4110   46.0370 C   0  0  0  0  0  0  0  0  0  0  0  0
   57.5760   34.2170   44.8620 C   0  0  0  0  0  0  0  0  0  0  0  0
   58.9090   34.9090   45.1840 C   0  0  0  0  0  0  0  0  0  0  0  0
   59.9940   33.9220   45.6390 C   0  0  0  0  0  0  0  0  0  0  0  0
   60.6760   34.4350   46.8490 N   0  0  0  0  0  0  0  0  0  0  0  0
   61.9130   33.6710   47.1710 C   0  0  0  0  0  0  0  0  0  0  0  0
   61.7280   32.6280   48.2920 C   0  0  0  0  0  0  0  0  0  0  0  0
   60.3410   32.1560   48.3240 N   0  0  0  0  0  0  0  0  0  0  0  0
   60.0150   30.7570   48.2000 C   0  0  0  0  0  0  0  0  0  0  0  0
   60.4790   29.8370   49.1380 C   0  0  0  0  0  0  0  0  0  0  0  0
   60.1600   28.4910   48.9860 C   0  0  0  0  0  0  0  0  0  0  0  0
   60.5770   27.6710   49.8520 O   0  0  0  0  0  0  0  0  0  0  0  0
   59.4120   28.0710   47.9130 N   0  0  0  0  0  0  0  0  0  0  0  0
   59.0810   26.7450   47.7860 C   0  0  0  0  0  0  0  0  0  0  0  0
   58.3280   26.2890   46.7010 C   0  0  0  0  0  0  0  0  0  0  0  0
   57.9350   24.8440   46.6010 C   0  0  0  0  0  0  0  0  0  0  0  0
   57.8950   27.2040   45.7440 C   0  0  0  0  0  0  0  0  0  0  0  0
   58.2370   28.5550   45.8500 C   0  0  0  0  0  0  0  0  0  0  0  0
   57.8170   29.4720   44.7660 C   0  0  0  0  0  0  0  0  0  0  0  0
   56.6090   29.2540   44.0840 C   0  0  0  0  0  0  0  0  0  0  0  0
   56.2210   30.1100   43.0480 C   0  0  0  0  0  0  0  0  0  0  0  0
   57.0400   31.1820   42.6820 C   0  0  0  0  0  0  0  0  0  0  0  0
   56.6620   32.0110   41.6770 F   0  0  0  0  0  0  0  0  0  0  0  0
   58.2500   31.3980   43.3480 C   0  0  0  0  0  0  0  0  0  0  0  0
   58.6420   30.5430   44.3840 C   0  0  0  0  0  0  0  0  0  0  0  0
   58.9920   28.9890   46.9700 C   0  0  0  0  0  0  0  0  0  0  0  0
   59.2840   30.3170   47.1410 N   0  0  0  0  0  0  0  0  0  0  0  0
   59.2680   33.1470   48.4570 C   0  0  0  0  0  0  0  0  0  0  0  0
   59.7600   34.5350   48.0070 C   0  0  0  0  0  0  0  0  0  0  0  0
   57.3429   33.8760   46.9818 H   0  0  0  0  0  0  0  0  0  0  0  0
   55.9262   33.3952   45.9876 H   0  0  0  0  0  0  0  0  0  0  0  0
   57.4091   32.3814   45.9876 H   0  0  0  0  0  0  0  0  0  0  0  0
   57.7303   33.5367   44.0115 H   0  0  0  0  0  0  0  0  0  0  0  0
   56.8435   35.0040   44.6294 H   0  0  0  0  0  0  0  0  0  0  0  0
   59.2625   35.4292   44.2816 H   0  0  0  0  0  0  0  0  0  0  0  0
   58.7282   35.6095   46.0126 H   0  0  0  0  0  0  0  0  0  0  0  0
   59.5297   32.9513   45.8675 H   0  0  0  0  0  0  0  0  0  0  0  0
   60.7331   33.8039   44.8329 H   0  0  0  0  0  0  0  0  0  0  0  0
   62.2436   33.1476   46.2618 H   0  0  0  0  0  0  0  0  0  0  0  0
   62.6542   34.3996   47.5313 H   0  0  0  0  0  0  0  0  0  0  0  0
   62.3974   31.7748   48.1079 H   0  0  0  0  0  0  0  0  0  0  0  0
   61.9694   33.0948   49.2583 H   0  0  0  0  0  0  0  0  0  0  0  0
   61.0906   30.1709   49.9891 H   0  0  0  0  0  0  0  0  0  0  0  0
   59.4143   26.0290   48.5516 H   0  0  0  0  0  0  0  0  0  0  0  0
   57.8209   24.4243   47.6114 H   0  0  0  0  0  0  0  0  0  0  0  0
   56.9814   24.7600   46.0592 H   0  0  0  0  0  0  0  0  0  0  0  0
   58.7147   24.2886   46.0592 H   0  0  0  0  0  0  0  0  0  0  0  0
   57.2797   26.8609   44.8992 H   0  0  0  0  0  0  0  0  0  0  0  0
   55.9657   28.4073   44.3654 H   0  0  0  0  0  0  0  0  0  0  0  0
   55.2707   29.9394   42.5209 H   0  0  0  0  0  0  0  0  0  0  0  0
   58.8944   32.2408   43.0574 H   0  0  0  0  0  0  0  0  0  0  0  0
   59.5987   30.7099   44.9007 H   0  0  0  0  0  0  0  0  0  0  0  0
   58.9220   31.0310   46.4740 H   0  0  0  0  0  0  0  0  0  0  0  0
   58.4155   32.8443   47.8312 H   0  0  0  0  0  0  0  0  0  0  0  0
   58.9619   33.2019   49.5121 H   0  0  0  0  0  0  0  0  0  0  0  0
   58.8915   35.1480   47.7242 H   0  0  0  0  0  0  0  0  0  0  0  0
   60.3079   34.9952   48.8425 H   0  0  0  0  0  0  0  0  0  0  0  0
  1  2  1  0
  2  3  1  0
  3  4  1  0
  4  5  1  0
  5  6  1  0
  6  7  1  0
  7  8  1  0
  8  9  1  0
  9 10  2  0
 10 11  1  0
 11 12  2  0
 11 13  1  0
 13 14  1  0
 14 15  2  0
 15 16  1  0
 15 17  1  0
 17 18  2  0
 18 19  1  0
 19 20  2  0
 20 21  1  0
 21 22  2  0
 22 23  1  0
 22 24  1  0
 24 25  2  0
 18 26  1  0
 26 27  2  0
  8 28  1  0
 28 29  1  0
 29  5  1  0
 27  9  1  0
 26 13  1  0
 25 19  1  0
  1 30  1  0
  1 31  1  0
  1 32  1  0
  2 33  1  0
  2 34  1  0
  3 35  1  0
  3 36  1  0
  4 37  1  0
  4 38  1  0
  6 39  1  0
  6 40  1  0
  7 41  1  0
  7 42  1  0
 10 43  1  0
 14 44  1  0
 16 45  1  0
 16 46  1  0
 16 47  1  0
 17 48  1  0
 20 49  1  0
 21 50  1  0
 24 51  1  0
 25 52  1  0
 27 53  1  0
 28 54  1  0
 28 55  1  0
 29 56  1  0
 29 57  1  0
M  CHG  1  27   1
M  END
>  <UniqueID>  (28) 
27

>  <SMILES>  (28) 
CCCCN1CCN(c2cc(=O)n3cc(C)cc(-c4ccc(F)cc4)c3[nH+]2)CC1

>  <Energy>  (28) 
79.71927370523329

>  <Genealogy>  (28) 
CCCCN1CCN(c2cc(=O)n3cc(C)cc(-c4ccc(F)cc4)c3[nH+]2)CC1 (protonated)
CCCCN1CCN(c2cc(=O)n3cc(C)cc(-c4ccc(F)cc4)c3[nH+]2)CC1 (3D coordinates assigned)
CCCCN1CCN(c2cc(=O)n3cc(C)cc(-c4ccc(F)cc4)c3[nH+]2)CC1 (nonaromatic ring conformer: 79.71927370523329 kcal/mol)

>  <smiles>  (28) 
CCCCN1CCN(c2cc(=O)n3cc(C)cc(-c4ccc(F)cc4)c3n2)CC1

>  <score_type>  (28) 
oracle

>  <origin>  (28) 
adg

>  <m_score__min__energy>  (28) 
-6.96

>  <m_primary>  (28) 
energy

$$$$
28:0
     RDKit          3D

 52 55  0  0  1  0  0  0  0  0999 V2000
   63.1990   33.8290   46.7180 C   0  0  0  0  0  0  0  0  0  0  0  0
   62.1020   32.9730   47.2990 C   0  0  0  0  0  0  0  0  0  0  0  0
   60.8210   33.6080   47.2790 N   0  0  0  0  0  0  0  0  0  0  0  0
   60.6090   34.4370   48.4260 C   0  0  0  0  0  0  0  0  0  0  0  0
   60.7730   33.7680   49.7480 C   0  0  0  0  0  0  0  0  0  0  0  0
   60.5580   34.2500   46.0110 C   0  0  0  0  0  0  0  0  0  0  0  0
   59.3190   35.1160   46.0550 C   0  0  0  0  0  0  0  0  0  0  0  0
   58.3140   34.4900   45.1110 C   0  0  0  0  0  0  0  0  0  0  0  0
   57.6230   33.3720   45.5220 N   0  0  0  0  0  0  0  0  0  0  0  0
   57.9850   32.2710   45.9110 C   0  0  0  0  0  0  0  0  0  0  0  0
   58.5910   32.1470   47.1070 N   0  0  0  0  0  0  0  0  0  0  0  0
   58.9940   30.9910   47.6440 C   0  0  0  0  0  0  0  0  0  0  0  0
   59.6310   30.6770   48.8540 C   0  0  0  0  0  0  0  0  0  0  0  0
   59.7720   29.3080   48.8090 C   0  0  0  0  0  0  0  0  0  0  0  0
   60.3850   28.4420   49.8290 C   0  0  0  0  0  0  0  0  0  0  0  0
   60.7640   28.6970   51.0660 C   0  0  0  0  0  0  0  0  0  0  0  0
   61.3110   27.7240   51.8260 C   0  0  0  0  0  0  0  0  0  0  0  0
   61.4400   26.4850   51.2340 C   0  0  0  0  0  0  0  0  0  0  0  0
   60.7530   26.7100   49.5170 S   0  0  0  0  0  0  0  0  0  0  0  0
   59.2620   28.8490   47.6710 N   0  0  0  0  0  0  0  0  0  0  0  0
   58.7800   29.8680   46.9430 N   0  0  0  0  0  0  0  0  0  0  0  0
   58.1780   29.9510   45.7440 C   0  0  0  0  0  0  0  0  0  0  0  0
   57.9870   28.7660   45.0670 C   0  0  0  0  0  0  0  0  0  0  0  0
   57.3750   28.8620   43.8370 C   0  0  0  0  0  0  0  0  0  0  0  0
   56.9570   30.0190   43.2560 C   0  0  0  0  0  0  0  0  0  0  0  0
   57.1600   31.2260   43.9640 C   0  0  0  0  0  0  0  0  0  0  0  0
   57.7590   31.1380   45.1770 C   0  0  0  0  0  0  0  0  0  0  0  0
   63.7808   34.2830   47.5337 H   0  0  0  0  0  0  0  0  0  0  0  0
   63.8608   33.2062   46.0982 H   0  0  0  0  0  0  0  0  0  0  0  0
   62.7557   34.6223   46.0982 H   0  0  0  0  0  0  0  0  0  0  0  0
   62.0397   32.0419   46.7166 H   0  0  0  0  0  0  0  0  0  0  0  0
   62.3572   32.7855   48.3524 H   0  0  0  0  0  0  0  0  0  0  0  0
   61.3259   35.2699   48.3778 H   0  0  0  0  0  0  0  0  0  0  0  0
   59.5557   34.7506   48.3780 H   0  0  0  0  0  0  0  0  0  0  0  0
   60.5944   34.4967   50.5524 H   0  0  0  0  0  0  0  0  0  0  0  0
   60.0505   32.9430   49.8336 H   0  0  0  0  0  0  0  0  0  0  0  0
   61.7951   33.3706   49.8336 H   0  0  0  0  0  0  0  0  0  0  0  0
   61.4207   34.8792   45.7469 H   0  0  0  0  0  0  0  0  0  0  0  0
   60.3927   33.4620   45.2615 H   0  0  0  0  0  0  0  0  0  0  0  0
   58.9125   35.1438   47.0768 H   0  0  0  0  0  0  0  0  0  0  0  0
   59.5492   36.1497   45.7576 H   0  0  0  0  0  0  0  0  0  0  0  0
   57.5674   35.2627   44.8753 H   0  0  0  0  0  0  0  0  0  0  0  0
   58.9270   34.1295   44.2718 H   0  0  0  0  0  0  0  0  0  0  0  0
   58.7810   33.0120   47.6990 H   0  0  0  0  0  0  0  0  0  0  0  0
   59.9449   31.3647   49.6531 H   0  0  0  0  0  0  0  0  0  0  0  0
   60.6339   29.7074   51.4809 H   0  0  0  0  0  0  0  0  0  0  0  0
   61.6359   27.9094   52.8605 H   0  0  0  0  0  0  0  0  0  0  0  0
   61.8559   25.5681   51.6770 H   0  0  0  0  0  0  0  0  0  0  0  0
   58.3049   27.7994   45.4848 H   0  0  0  0  0  0  0  0  0  0  0  0
   57.2109   27.9281   43.2795 H   0  0  0  0  0  0  0  0  0  0  0  0
   56.4763   30.0156   42.2666 H   0  0  0  0  0  0  0  0  0  0  0  0
   56.8454   32.1947   43.5485 H   0  0  0  0  0  0  0  0  0  0  0  0
  1  2  1  0
  2  3  1  0
  3  4  1  0
  4  5  1  0
  3  6  1  0
  6  7  1  0
  7  8  1  0
  8  9  1  0
  9 10  2  0
 10 11  1  0
 11 12  1  0
 12 13  2  0
 13 14  1  0
 14 15  1  0
 15 16  2  0
 16 17  1  0
 17 18  2  0
 18 19  1  0
 14 20  2  0
 20 21  1  0
 21 22  1  0
 22 23  2  0
 23 24  1  0
 24 25  2  0
 25 26  1  0
 26 27  2  0
 27 10  1  0
 21 12  1  0
 27 22  1  0
 19 15  1  0
  1 28  1  0
  1 29  1  0
  1 30  1  0
  2 31  1  0
  2 32  1  0
  4 33  1  0
  4 34  1  0
  5 35  1  0
  5 36  1  0
  5 37  1  0
  6 38  1  0
  6 39  1  0
  7 40  1  0
  7 41  1  0
  8 42  1  0
  8 43  1  0
 11 44  1  0
 13 45  1  0
 16 46  1  0
 17 47  1  0
 18 48  1  0
 23 49  1  0
 24 50  1  0
 25 51  1  0
 26 52  1  0
M  END
>  <smiles>  (29) 
CCN(CC)CCCN=c1[nH]c2cc(-c3cccs3)nn2c2ccccc12

>  <score_type>  (29) 
oracle

>  <origin>  (29) 
adg

>  <m_score__min__energy>  (29) 
-7.5599999999999996

>  <m_primary>  (29) 
energy

$$$$
29:0
     RDKit          3D

 33 34  0  0  0  0  0  0  0  0999 V2000
   57.6890   25.9410   44.5750 C   0  0  0  0  0  0  0  0  0  0  0  0
   57.3010   26.9560   45.4960 O   0  0  0  0  0  0  0  0  0  0  0  0
   57.7620   28.2810   45.4610 C   0  0  0  0  0  0  0  0  0  0  0  0
   59.1130   28.6070   45.6860 C   0  0  0  0  0  0  0  0  0  0  0  0
   59.5370   29.9360   45.6450 C   0  0  0  0  0  0  0  0  0  0  0  0
   58.6230   30.9710   45.3820 C   0  0  0  0  0  0  0  0  0  0  0  0
   59.0760   32.4200   45.3240 C   0  0  0  0  0  0  0  0  0  0  0  0
   60.2040   32.6800   46.3480 C   0  0  0  0  0  0  0  0  0  0  0  0
   60.4550   34.1820   46.5060 C   0  0  0  0  0  0  0  0  0  0  0  0
   59.2070   34.9330   47.0210 C   0  0  0  0  0  0  0  0  0  0  0  0
   57.8880   34.1690   46.7980 C   0  0  0  0  0  0  0  0  0  0  0  0
   57.8840   33.4120   45.4630 C   0  0  0  0  0  0  0  0  0  0  0  0
   57.2760   30.6440   45.1530 C   0  0  0  0  0  0  0  0  0  0  0  0
   56.8450   29.3130   45.1920 C   0  0  0  0  0  0  0  0  0  0  0  0
   55.4980   29.0360   44.9610 O   0  0  0  0  0  0  0  0  0  0  0  0
   58.0283   25.0534   45.1291 H   0  0  0  0  0  0  0  0  0  0  0  0
   56.8302   25.6722   43.9423 H   0  0  0  0  0  0  0  0  0  0  0  0
   58.5081   26.3136   43.9423 H   0  0  0  0  0  0  0  0  0  0  0  0
   59.8397   27.8083   45.8957 H   0  0  0  0  0  0  0  0  0  0  0  0
   60.5962   30.1757   45.8201 H   0  0  0  0  0  0  0  0  0  0  0  0
   59.4979   32.6075   44.3256 H   0  0  0  0  0  0  0  0  0  0  0  0
   59.9126   32.2581   47.3212 H   0  0  0  0  0  0  0  0  0  0  0  0
   61.1270   32.2031   45.9865 H   0  0  0  0  0  0  0  0  0  0  0  0
   61.2774   34.3301   47.2213 H   0  0  0  0  0  0  0  0  0  0  0  0
   60.7072   34.5875   45.5151 H   0  0  0  0  0  0  0  0  0  0  0  0
   59.3283   35.1087   48.1001 H   0  0  0  0  0  0  0  0  0  0  0  0
   59.1366   35.8695   46.4483 H   0  0  0  0  0  0  0  0  0  0  0  0
   57.7524   33.4469   47.6167 H   0  0  0  0  0  0  0  0  0  0  0  0
   57.0685   34.9025   46.7765 H   0  0  0  0  0  0  0  0  0  0  0  0
   56.9447   32.8449   45.3841 H   0  0  0  0  0  0  0  0  0  0  0  0
   57.9810   34.1582   44.6607 H   0  0  0  0  0  0  0  0  0  0  0  0
   56.5513   31.4438   44.9405 H   0  0  0  0  0  0  0  0  0  0  0  0
   55.1480   28.0890   44.8800 H   0  0  0  0  0  0  0  0  0  0  0  0
  1  2  1  0
  2  3  1  0
  3  4  2  0
  4  5  1  0
  5  6  2  0
  6  7  1  0
  7  8  1  0
  8  9  1  0
  9 10  1  0
 10 11  1  0
 11 12  1  0
  6 13  1  0
 13 14  2  0
 14 15  1  0
 14  3  1  0
 12  7  1  0
  1 16  1  0
  1 17  1  0
  1 18  1  0
  4 19  1  0
  5 20  1  0
  7 21  1  0
  8 22  1  0
  8 23  1  0
  9 24  1  0
  9 25  1  0
 10 26  1  0
 10 27  1  0
 11 28  1  0
 11 29  1  0
 12 30  1  0
 12 31  1  0
 13 32  1  0
 15 33  1  0
M  END
>  <UniqueID>  (30) 
28

>  <SMILES>  (30) 
COc1ccc(C2CCCCC2)cc1O

>  <Energy>  (30) 
34.86578227012692

>  <Genealogy>  (30) 
COc1ccc(C2CCCCC2)cc1O (3D coordinates assigned)
COc1ccc(C2CCCCC2)cc1O (nonaromatic ring conformer: 34.86578227012692 kcal/mol)

>  <smiles>  (30) 
COc1ccc(C2CCCCC2)cc1O

>  <score_type>  (30) 
oracle

>  <origin>  (30) 
adg

>  <m_score__min__energy>  (30) 
-6.8099999999999996

>  <m_primary>  (30) 
energy

$$$$
30:0
     RDKit          3D

 43 46  0  0  0  0  0  0  0  0999 V2000
   60.2810   28.4990   47.8570 C   0  0  0  0  0  0  0  0  0  0  0  0
   59.0020   29.1120   47.7340 O   0  0  0  0  0  0  0  0  0  0  0  0
   58.7020   30.1560   46.8420 C   0  0  0  0  0  0  0  0  0  0  0  0
   58.9190   31.5120   47.1950 C   0  0  0  0  0  0  0  0  0  0  0  0
   58.5730   32.5010   46.2750 C   0  0  0  0  0  0  0  0  0  0  0  0
   58.0320   32.1880   45.0580 C   0  0  0  0  0  0  0  0  0  0  0  0
   57.8160   33.3670   44.3780 C   0  0  0  0  0  0  0  0  0  0  0  0
   58.2490   34.3700   45.2370 C   0  0  0  0  0  0  0  0  0  0  0  0
   58.7020   33.8380   46.3980 N   0  0  0  0  0  0  0  0  0  0  0  0
   59.2990   34.5830   47.5080 C   0  0  0  0  0  0  0  0  0  0  0  0
   60.7400   34.1830   47.6880 C   0  0  0  0  0  0  0  0  0  0  0  0
   61.3110   34.1760   48.9710 C   0  0  0  0  0  0  0  0  0  0  0  0
   62.6540   33.8300   49.1430 C   0  0  0  0  0  0  0  0  0  0  0  0
   63.4370   33.4910   48.0360 C   0  0  0  0  0  0  0  0  0  0  0  0
   62.8760   33.4970   46.7560 C   0  0  0  0  0  0  0  0  0  0  0  0
   61.5330   33.8410   46.5800 C   0  0  0  0  0  0  0  0  0  0  0  0
   57.8050   30.8730   44.6690 C   0  0  0  0  0  0  0  0  0  0  0  0
   58.1500   29.8370   45.5660 C   0  0  0  0  0  0  0  0  0  0  0  0
   57.9300   28.4280   45.1610 C   0  0  0  0  0  0  0  0  0  0  0  0
   58.3400   27.9840   43.8910 C   0  0  0  0  0  0  0  0  0  0  0  0
   58.1430   26.6540   43.5090 C   0  0  0  0  0  0  0  0  0  0  0  0
   57.5420   25.7540   44.3940 C   0  0  0  0  0  0  0  0  0  0  0  0
   57.1400   26.1820   45.6600 C   0  0  0  0  0  0  0  0  0  0  0  0
   57.3350   27.5120   46.0460 C   0  0  0  0  0  0  0  0  0  0  0  0
   60.5296   28.3798   48.9219 H   0  0  0  0  0  0  0  0  0  0  0  0
   60.2626   27.5118   47.3721 H   0  0  0  0  0  0  0  0  0  0  0  0
   61.0390   29.1317   47.3721 H   0  0  0  0  0  0  0  0  0  0  0  0
   59.3501   31.7775   48.1716 H   0  0  0  0  0  0  0  0  0  0  0  0
   57.3915   33.4883   43.3705 H   0  0  0  0  0  0  0  0  0  0  0  0
   58.2271   35.4454   45.0066 H   0  0  0  0  0  0  0  0  0  0  0  0
   59.2452   35.6604   47.2930 H   0  0  0  0  0  0  0  0  0  0  0  0
   58.7456   34.3560   48.4312 H   0  0  0  0  0  0  0  0  0  0  0  0
   60.6984   34.4440   49.8444 H   0  0  0  0  0  0  0  0  0  0  0  0
   63.0953   33.8245   50.1506 H   0  0  0  0  0  0  0  0  0  0  0  0
   64.4943   33.2196   48.1722 H   0  0  0  0  0  0  0  0  0  0  0  0
   63.4929   33.2304   45.8852 H   0  0  0  0  0  0  0  0  0  0  0  0
   61.0955   33.8440   45.5708 H   0  0  0  0  0  0  0  0  0  0  0  0
   57.3672   30.6442   43.6862 H   0  0  0  0  0  0  0  0  0  0  0  0
   58.8186   28.6877   43.1941 H   0  0  0  0  0  0  0  0  0  0  0  0
   58.4609   26.3154   42.5119 H   0  0  0  0  0  0  0  0  0  0  0  0
   57.3859   24.7078   44.0923 H   0  0  0  0  0  0  0  0  0  0  0  0
   56.6689   25.4719   46.3556 H   0  0  0  0  0  0  0  0  0  0  0  0
   57.0213   27.8430   47.0470 H   0  0  0  0  0  0  0  0  0  0  0  0
  1  2  1  0
  2  3  1  0
  3  4  2  0
  4  5  1  0
  5  6  2  0
  6  7  1  0
  7  8  2  0
  8  9  1  0
  9 10  1  0
 10 11  1  0
 11 12  2  0
 12 13  1  0
 13 14  2  0
 14 15  1  0
 15 16  2  0
  6 17  1  0
 17 18  2  0
 18 19  1  0
 19 20  2  0
 20 21  1  0
 21 22  2  0
 22 23  1  0
 23 24  2  0
 18  3  1  0
 24 19  1  0
  9  5  1  0
 16 11  1  0
  1 25  1  0
  1 26  1  0
  1 27  1  0
  4 28  1  0
  7 29  1  0
  8 30  1  0
 10 31  1  0
 10 32  1  0
 12 33  1  0
 13 34  1  0
 14 35  1  0
 15 36  1  0
 16 37  1  0
 17 38  1  0
 20 39  1  0
 21 40  1  0
 22 41  1  0
 23 42  1  0
 24 43  1  0
M  END
>  <UniqueID>  (31) 
29

>  <SMILES>  (31) 
COc1cc2c(ccn2Cc2ccccc2)cc1-c1ccccc1

>  <Energy>  (31) 
84.63609892235213

>  <Genealogy>  (31) 
COc1cc2c(ccn2Cc2ccccc2)cc1-c1ccccc1 (3D coordinates assigned)
COc1cc2c(ccn2Cc2ccccc2)cc1-c1ccccc1 (optimized conformer: 84.63609892235213 kcal/mol)

>  <smiles>  (31) 
COc1cc2c(ccn2Cc2ccccc2)cc1-c1ccccc1

>  <score_type>  (31) 
oracle

>  <origin>  (31) 
adg

>  <m_score__min__energy>  (31) 
-7.9500000000000002

>  <m_primary>  (31) 
energy

$$$$
31:0
     RDKit          3D

 48 50  0  0  0  0  0  0  0  0999 V2000
   63.0633   34.6068   46.3600 H   0  0  0  0  0  0  0  0  0  0  0  0
   62.9430   33.7490   47.0380 C   0  0  0  0  0  0  0  0  0  0  0  0
   61.9700   32.7840   46.7730 C   0  0  0  0  0  0  0  0  0  0  0  0
   61.3264   32.8852   45.8867 H   0  0  0  0  0  0  0  0  0  0  0  0
   61.8080   31.6840   47.6320 C   0  0  0  0  0  0  0  0  0  0  0  0
   60.7730   30.6610   47.3480 C   0  0  0  0  0  0  0  0  0  0  0  0
   60.8610   29.8980   46.1720 C   0  0  0  0  0  0  0  0  0  0  0  0
   61.6997   30.0604   45.4790 H   0  0  0  0  0  0  0  0  0  0  0  0
   59.8950   28.9360   45.8740 C   0  0  0  0  0  0  0  0  0  0  0  0
   59.9714   28.3533   44.9442 H   0  0  0  0  0  0  0  0  0  0  0  0
   58.8290   28.7090   46.7530 C   0  0  0  0  0  0  0  0  0  0  0  0
   57.7770   27.6780   46.4290 C   0  0  0  0  0  0  0  0  0  0  0  0
   58.2425   26.8513   45.8722 H   0  0  0  0  0  0  0  0  0  0  0  0
   57.3431   27.3110   47.3708 H   0  0  0  0  0  0  0  0  0  0  0  0
   56.7070   28.2600   45.6170 N   0  0  0  0  0  0  0  0  0  0  0  0
   56.8060   29.2660   44.7940 C   0  0  0  0  0  0  0  0  0  0  0  0
   57.1590   30.4800   45.2930 N   0  0  0  0  0  0  0  0  0  0  0  0
   57.2730   31.5690   44.4900 C   0  0  0  0  0  0  0  0  0  0  0  0
   57.7270   33.1150   45.1790 Cl  0  0  0  0  0  0  0  0  0  0  0  0
   57.0290   31.4520   43.1240 C   0  0  0  0  0  0  0  0  0  0  0  0
   57.1159   32.3241   42.4593 H   0  0  0  0  0  0  0  0  0  0  0  0
   56.6720   30.2030   42.6200 C   0  0  0  0  0  0  0  0  0  0  0  0
   56.4745   30.0817   41.5447 H   0  0  0  0  0  0  0  0  0  0  0  0
   56.5670   29.1340   43.4530 N   0  0  0  0  0  0  0  0  0  0  0  0
   56.3060   28.2160   43.0290 H   0  0  0  0  0  0  0  0  0  0  0  0
   58.7290   29.4710   47.9270 C   0  0  0  0  0  0  0  0  0  0  0  0
   57.8815   29.3095   48.6094 H   0  0  0  0  0  0  0  0  0  0  0  0
   59.7020   30.4410   48.2420 C   0  0  0  0  0  0  0  0  0  0  0  0
   59.6450   31.1820   49.4350 O   0  0  0  0  0  0  0  0  0  0  0  0
   58.9870   32.4370   49.5780 C   0  0  0  0  0  0  0  0  0  0  0  0
   58.8660   32.6679   50.6467 H   0  0  0  0  0  0  0  0  0  0  0  0
   59.5889   33.2233   49.0989 H   0  0  0  0  0  0  0  0  0  0  0  0
   57.9980   32.3892   49.0989 H   0  0  0  0  0  0  0  0  0  0  0  0
   62.6290   31.5760   48.7680 C   0  0  0  0  0  0  0  0  0  0  0  0
   62.4975   30.7266   49.4544 H   0  0  0  0  0  0  0  0  0  0  0  0
   63.6170   32.5410   49.0380 C   0  0  0  0  0  0  0  0  0  0  0  0
   64.5130   32.4220   50.2570 C   0  0  0  0  0  0  0  0  0  0  0  0
   64.1877   33.1779   50.9870 H   0  0  0  0  0  0  0  0  0  0  0  0
   65.9750   32.7140   49.8980 C   0  0  0  0  0  0  0  0  0  0  0  0
   66.5627   32.8314   50.8204 H   0  0  0  0  0  0  0  0  0  0  0  0
   66.3814   31.8793   49.3080 H   0  0  0  0  0  0  0  0  0  0  0  0
   66.0296   33.6408   49.3080 H   0  0  0  0  0  0  0  0  0  0  0  0
   64.3720   31.0450   50.9150 C   0  0  0  0  0  0  0  0  0  0  0  0
   64.3836   31.1585   52.0091 H   0  0  0  0  0  0  0  0  0  0  0  0
   63.4221   30.5856   50.6041 H   0  0  0  0  0  0  0  0  0  0  0  0
   65.2091   30.4026   50.6041 H   0  0  0  0  0  0  0  0  0  0  0  0
   63.7650   33.6290   48.1620 C   0  0  0  0  0  0  0  0  0  0  0  0
   64.5325   34.3912   48.3618 H   0  0  0  0  0  0  0  0  0  0  0  0
  1  2  1  0
  2  3  2  0
  3  4  1  0
  3  5  1  0
  5  6  1  0
  6  7  2  0
  7  8  1  0
  7  9  1  0
  9 10  1  0
  9 11  2  0
 11 12  1  0
 12 13  1  0
 12 14  1  0
 12 15  1  0
 15 16  2  0
 16 17  1  0
 17 18  2  0
 18 19  1  0
 18 20  1  0
 20 21  1  0
 20 22  2  0
 22 23  1  0
 22 24  1  0
 24 25  1  0
 11 26  1  0
 26 27  1  0
 26 28  2  0
 28 29  1  0
 29 30  1  0
 30 31  1  0
 30 32  1  0
 30 33  1  0
  5 34  2  0
 34 35  1  0
 34 36  1  0
 36 37  1  0
 37 38  1  0
 37 39  1  0
 39 40  1  0
 39 41  1  0
 39 42  1  0
 37 43  1  0
 43 44  1  0
 43 45  1  0
 43 46  1  0
 36 47  2  0
 47 48  1  0
 47  2  1  0
 28  6  1  0
 24 16  1  0
M  END
>  <UniqueID>  (32) 
30

>  <SMILES>  (32) 
COc1cc(C/N=c2/nc(Cl)cc[nH]2)ccc1-c1cccc(C(C)C)c1

>  <Energy>  (32) 
53.34843922123708

>  <Genealogy>  (32) 
COc1cc(C/N=c2/nc(Cl)cc[nH]2)ccc1-c1cccc(C(C)C)c1 (cis-trans isomerization)
COc1cc(C/N=c2/nc(Cl)cc[nH]2)ccc1-c1cccc(C(C)C)c1 (3D coordinates assigned)
COc1cc(C/N=c2/nc(Cl)cc[nH]2)ccc1-c1cccc(C(C)C)c1 (optimized conformer: 53.34843922123708 kcal/mol)

>  <smiles>  (32) 
COc1cc(CN=c2nc(Cl)cc[nH]2)ccc1-c1cccc(C(C)C)c1

>  <score_type>  (32) 
oracle

>  <origin>  (32) 
adg

>  <m_score__min__energy>  (32) 
-8.5800000000000001

>  <m_primary>  (32) 
energy

$$$$
32:0
     RDKit          3D

 54 56  0  0  0  0  0  0  0  0999 V2000
   54.0250   24.6910   45.4650 C   0  0  0  0  0  0  0  0  0  0  0  0
   54.6210   25.9260   45.7710 O   0  0  0  0  0  0  0  0  0  0  0  0
   55.7690   25.6380   46.4410 N   0  0  0  0  0  0  0  0  0  0  0  0
   56.6550   26.8020   46.3620 C   0  0  0  0  0  0  0  0  0  0  0  0
   57.5550   26.7520   45.1140 C   0  0  0  0  0  0  0  0  0  0  0  0
   58.2720   28.0850   44.8640 C   0  0  0  0  0  0  0  0  0  0  0  0
   57.3230   29.1970   44.8090 N   0  0  0  0  0  0  0  0  0  0  0  0
   56.0760   29.0960   44.3830 N   0  0  0  0  0  0  0  0  0  0  0  0
   55.5160   30.2960   44.4110 N   0  0  0  0  0  0  0  0  0  0  0  0
   56.3890   31.1940   44.8480 N   0  0  0  0  0  0  0  0  0  0  0  0
   57.5140   30.4980   45.1050 C   0  0  0  0  0  0  0  0  0  0  0  0
   58.8110   31.1210   45.5500 C   0  0  0  0  0  0  0  0  0  0  0  0
   58.8740   32.6280   45.2480 C   0  0  0  0  0  0  0  0  0  0  0  0
   58.9250   33.5020   46.4840 C   0  0  0  0  0  0  0  0  0  0  0  0
   57.8820   34.0970   46.8720 O   0  0  0  0  0  0  0  0  0  0  0  0
   60.1600   33.6800   47.2110 N   0  0  0  0  0  0  0  0  0  0  0  0
   61.4480   33.3660   46.5640 C   0  0  0  0  0  0  0  0  0  0  0  0
   62.6330   33.8280   47.4140 C   0  0  0  0  0  0  0  0  0  0  0  0
   62.4430   33.3890   48.8010 N   0  0  0  0  0  0  0  0  0  0  0  0
   63.4780   32.6620   49.4910 C   0  0  0  0  0  0  0  0  0  0  0  0
   64.8180   33.0820   49.4150 C   0  0  0  0  0  0  0  0  0  0  0  0
   65.8200   32.3720   50.0830 C   0  0  0  0  0  0  0  0  0  0  0  0
   65.4960   31.2390   50.8370 C   0  0  0  0  0  0  0  0  0  0  0  0
   66.7590   30.3350   51.6480 Cl  0  0  0  0  0  0  0  0  0  0  0  0
   64.1640   30.8210   50.9280 C   0  0  0  0  0  0  0  0  0  0  0  0
   63.1600   31.5300   50.2610 C   0  0  0  0  0  0  0  0  0  0  0  0
   61.1620   33.6520   49.4750 C   0  0  0  0  0  0  0  0  0  0  0  0
   60.1470   34.3230   48.5360 C   0  0  0  0  0  0  0  0  0  0  0  0
   53.7713   24.1653   46.3973 H   0  0  0  0  0  0  0  0  0  0  0  0
   53.1097   24.8608   44.8790 H   0  0  0  0  0  0  0  0  0  0  0  0
   54.7274   24.0801   44.8790 H   0  0  0  0  0  0  0  0  0  0  0  0
   55.5190   25.4680   47.4430 H   0  0  0  0  0  0  0  0  0  0  0  0
   56.0416   27.7143   46.3223 H   0  0  0  0  0  0  0  0  0  0  0  0
   57.3029   26.7994   47.2510 H   0  0  0  0  0  0  0  0  0  0  0  0
   58.3099   25.9641   45.2528 H   0  0  0  0  0  0  0  0  0  0  0  0
   56.9151   26.5439   44.2438 H   0  0  0  0  0  0  0  0  0  0  0  0
   58.9881   28.2651   45.6793 H   0  0  0  0  0  0  0  0  0  0  0  0
   58.7914   28.0237   43.8963 H   0  0  0  0  0  0  0  0  0  0  0  0
   58.9194   30.9736   46.6347 H   0  0  0  0  0  0  0  0  0  0  0  0
   59.6247   30.6338   44.9927 H   0  0  0  0  0  0  0  0  0  0  0  0
   59.7755   32.8234   44.6487 H   0  0  0  0  0  0  0  0  0  0  0  0
   57.9470   32.8848   44.7144 H   0  0  0  0  0  0  0  0  0  0  0  0
   61.5174   32.2782   46.4162 H   0  0  0  0  0  0  0  0  0  0  0  0
   61.4877   33.8967   45.6013 H   0  0  0  0  0  0  0  0  0  0  0  0
   63.5613   33.3925   47.0158 H   0  0  0  0  0  0  0  0  0  0  0  0
   62.6993   34.9256   47.3835 H   0  0  0  0  0  0  0  0  0  0  0  0
   65.0791   33.9741   48.8267 H   0  0  0  0  0  0  0  0  0  0  0  0
   66.8662   32.7051   50.0156 H   0  0  0  0  0  0  0  0  0  0  0  0
   63.9062   29.9337   51.5248 H   0  0  0  0  0  0  0  0  0  0  0  0
   62.1138   31.1994   50.3395 H   0  0  0  0  0  0  0  0  0  0  0  0
   60.7433   32.6979   49.8277 H   0  0  0  0  0  0  0  0  0  0  0  0
   61.3531   34.3361   50.3150 H   0  0  0  0  0  0  0  0  0  0  0  0
   59.1402   34.2350   48.9703 H   0  0  0  0  0  0  0  0  0  0  0  0
   60.4204   35.3819   48.4181 H   0  0  0  0  0  0  0  0  0  0  0  0
  1  2  1  0
  2  3  1  0
  3  4  1  0
  4  5  1  0
  5  6  1  0
  6  7  1  0
  7  8  1  0
  8  9  2  0
  9 10  1  0
 10 11  2  0
 11 12  1  0
 12 13  1  0
 13 14  1  0
 14 15  2  0
 14 16  1  0
 16 17  1  0
 17 18  1  0
 18 19  1  0
 19 20  1  0
 20 21  2  0
 21 22  1  0
 22 23  2  0
 23 24  1  0
 23 25  1  0
 25 26  2  0
 19 27  1  0
 27 28  1  0
 11  7  1  0
 28 16  1  0
 26 20  1  0
  1 29  1  0
  1 30  1  0
  1 31  1  0
  3 32  1  0
  4 33  1  0
  4 34  1  0
  5 35  1  0
  5 36  1  0
  6 37  1  0
  6 38  1  0
 12 39  1  0
 12 40  1  0
 13 41  1  0
 13 42  1  0
 17 43  1  0
 17 44  1  0
 18 45  1  0
 18 46  1  0
 21 47  1  0
 22 48  1  0
 25 49  1  0
 26 50  1  0
 27 51  1  0
 27 52  1  0
 28 53  1  0
 28 54  1  0
M  END
>  <UniqueID>  (33) 
31

>  <SMILES>  (33) 
CONCCCn1nnnc1CCC(=O)N1CCN(c2ccc(Cl)cc2)CC1

>  <Energy>  (33) 
91.75463390756715

>  <Genealogy>  (33) 
CONCCCn1nnnc1CCC(=O)N1CCN(c2ccc(Cl)cc2)CC1 (3D coordinates assigned)
CONCCCn1nnnc1CCC(=O)N1CCN(c2ccc(Cl)cc2)CC1 (nonaromatic ring conformer: 91.75463390756715 kcal/mol)

>  <smiles>  (33) 
CONCCCn1nnnc1CCC(=O)N1CCN(c2ccc(Cl)cc2)CC1

>  <score_type>  (33) 
oracle

>  <origin>  (33) 
adg

>  <m_score__min__energy>  (33) 
-9.8499999999999996

>  <m_primary>  (33) 
energy

$$$$
33:0
     RDKit          3D

 48 52  0  0  0  0  0  0  0  0999 V2000
   57.7540   24.7970   47.1240 C   0  0  0  0  0  0  0  0  0  0  0  0
   58.7010   25.8150   46.6420 N   0  0  0  0  0  0  0  0  0  0  0  0
   58.4960   26.1060   45.2010 C   0  0  0  0  0  0  0  0  0  0  0  0
   57.6210   27.3430   44.9520 C   0  0  0  0  0  0  0  0  0  0  0  0
   58.1410   28.5030   45.6840 N   0  0  0  0  0  0  0  0  0  0  0  0
   57.7530   29.8380   45.3130 C   0  0  0  0  0  0  0  0  0  0  0  0
   58.5520   30.9180   45.3860 N   0  0  0  0  0  0  0  0  0  0  0  0
   57.7500   31.9000   44.9340 C   0  0  0  0  0  0  0  0  0  0  0  0
   58.1390   33.3430   44.8820 C   0  0  0  0  0  0  0  0  0  0  0  0
   59.0180   33.6790   46.0540 C   0  0  0  0  0  0  0  0  0  0  0  0
   58.4690   34.2820   47.1980 C   0  0  0  0  0  0  0  0  0  0  0  0
   59.2900   34.6260   48.2760 C   0  0  0  0  0  0  0  0  0  0  0  0
   60.6650   34.3750   48.2230 C   0  0  0  0  0  0  0  0  0  0  0  0
   61.2290   33.8380   47.0520 C   0  0  0  0  0  0  0  0  0  0  0  0
   60.4050   33.4750   45.9820 C   0  0  0  0  0  0  0  0  0  0  0  0
   63.0100   33.8010   46.8470 S   0  0  0  0  0  0  0  0  0  0  0  0
   63.3660   33.3300   48.5410 C   0  0  0  0  0  0  0  0  0  0  0  0
   64.4650   32.5060   48.8120 C   0  0  0  0  0  0  0  0  0  0  0  0
   64.8710   32.2930   50.1330 C   0  0  0  0  0  0  0  0  0  0  0  0
   64.1860   32.9120   51.1830 C   0  0  0  0  0  0  0  0  0  0  0  0
   63.0750   33.7180   50.9170 C   0  0  0  0  0  0  0  0  0  0  0  0
   62.6400   33.9040   49.6000 C   0  0  0  0  0  0  0  0  0  0  0  0
   61.4460   34.5940   49.3650 O   0  0  0  0  0  0  0  0  0  0  0  0
   56.5220   31.4400   44.6170 N   0  0  0  0  0  0  0  0  0  0  0  0
   56.5660   30.1620   44.8580 O   0  0  0  0  0  0  0  0  0  0  0  0
   59.0720   28.2920   46.7940 C   0  0  0  0  0  0  0  0  0  0  0  0
   58.6940   27.0030   47.5310 C   0  0  0  0  0  0  0  0  0  0  0  0
   57.7494   24.7921   48.2240 H   0  0  0  0  0  0  0  0  0  0  0  0
   56.7447   25.0307   46.7542 H   0  0  0  0  0  0  0  0  0  0  0  0
   58.0600   23.8072   46.7542 H   0  0  0  0  0  0  0  0  0  0  0  0
   59.4783   26.2731   44.7349 H   0  0  0  0  0  0  0  0  0  0  0  0
   57.9729   25.2424   44.7644 H   0  0  0  0  0  0  0  0  0  0  0  0
   57.6137   27.5692   43.8755 H   0  0  0  0  0  0  0  0  0  0  0  0
   56.6009   27.1309   45.3048 H   0  0  0  0  0  0  0  0  0  0  0  0
   59.5420   30.9890   45.7100 H   0  0  0  0  0  0  0  0  0  0  0  0
   58.6856   33.5399   43.9480 H   0  0  0  0  0  0  0  0  0  0  0  0
   57.2318   33.9640   44.9202 H   0  0  0  0  0  0  0  0  0  0  0  0
   57.3888   34.4843   47.2457 H   0  0  0  0  0  0  0  0  0  0  0  0
   58.8529   35.0959   49.1694 H   0  0  0  0  0  0  0  0  0  0  0  0
   60.8460   33.0273   45.0792 H   0  0  0  0  0  0  0  0  0  0  0  0
   65.0093   32.0260   47.9854 H   0  0  0  0  0  0  0  0  0  0  0  0
   65.7291   31.6386   50.3461 H   0  0  0  0  0  0  0  0  0  0  0  0
   64.5217   32.7646   52.2201 H   0  0  0  0  0  0  0  0  0  0  0  0
   62.5414   34.2073   51.7452 H   0  0  0  0  0  0  0  0  0  0  0  0
   60.0966   28.2054   46.4033 H   0  0  0  0  0  0  0  0  0  0  0  0
   59.0184   29.1437   47.4881 H   0  0  0  0  0  0  0  0  0  0  0  0
   59.4151   26.8382   48.3451 H   0  0  0  0  0  0  0  0  0  0  0  0
   57.6705   27.1262   47.9147 H   0  0  0  0  0  0  0  0  0  0  0  0
  1  2  1  0
  2  3  1  0
  3  4  1  0
  4  5  1  0
  5  6  1  0
  6  7  2  0
  7  8  1  0
  8  9  1  0
  9 10  1  0
 10 11  2  0
 11 12  1  0
 12 13  2  0
 13 14  1  0
 14 15  2  0
 14 16  1  0
 16 17  1  0
 17 18  2  0
 18 19  1  0
 19 20  2  0
 20 21  1  0
 21 22  2  0
 22 23  1  0
  8 24  2  0
 24 25  1  0
  5 26  1  0
 26 27  1  0
 27  2  1  0
 25  6  1  0
 15 10  1  0
 22 17  1  0
 23 13  1  0
  1 28  1  0
  1 29  1  0
  1 30  1  0
  3 31  1  0
  3 32  1  0
  4 33  1  0
  4 34  1  0
  7 35  1  0
  9 36  1  0
  9 37  1  0
 11 38  1  0
 12 39  1  0
 15 40  1  0
 18 41  1  0
 19 42  1  0
 20 43  1  0
 21 44  1  0
 26 45  1  0
 26 46  1  0
 27 47  1  0
 27 48  1  0
M  CHG  1   7   1
M  END
>  <UniqueID>  (34) 
32

>  <SMILES>  (34) 
CN1CCN(c2[nH+]c(Cc3ccc4c(c3)Sc3ccccc3O4)no2)CC1

>  <Energy>  (34) 
108.65604125168034

>  <Genealogy>  (34) 
CN1CCN(c2[nH+]c(Cc3ccc4c(c3)Sc3ccccc3O4)no2)CC1 (protonated)
CN1CCN(c2[nH+]c(Cc3ccc4c(c3)Sc3ccccc3O4)no2)CC1 (3D coordinates assigned)
CN1CCN(c2[nH+]c(Cc3ccc4c(c3)Sc3ccccc3O4)no2)CC1 (nonaromatic ring conformer: 108.65604125168034 kcal/mol)

>  <smiles>  (34) 
CN1CCN(c2nc(Cc3ccc4c(c3)Sc3ccccc3O4)no2)CC1

>  <score_type>  (34) 
oracle

>  <origin>  (34) 
adg

>  <m_score__min__energy>  (34) 
-7.7000000000000002

>  <m_primary>  (34) 
energy

$$$$
34:0
     RDKit          3D

 42 44  0  0  0  0  0  0  0  0999 V2000
   55.8810   19.2960   44.1470 C   0  0  0  0  0  0  0  0  0  0  0  0
   56.2690   20.3950   43.3280 O   0  0  0  0  0  0  0  0  0  0  0  0
   56.6210   21.6610   43.8180 C   0  0  0  0  0  0  0  0  0  0  0  0
   57.3640   21.7330   45.0010 C   0  0  0  0  0  0  0  0  0  0  0  0
   57.7390   22.9720   45.5310 C   0  0  0  0  0  0  0  0  0  0  0  0
   57.3750   24.1650   44.8830 C   0  0  0  0  0  0  0  0  0  0  0  0
   57.7720   25.4810   45.4450 C   0  0  0  0  0  0  0  0  0  0  0  0
   58.8640   26.1890   44.9080 C   0  0  0  0  0  0  0  0  0  0  0  0
   59.2350   27.4280   45.4360 C   0  0  0  0  0  0  0  0  0  0  0  0
   58.5200   27.9830   46.5050 C   0  0  0  0  0  0  0  0  0  0  0  0
   58.9710   29.5540   47.1590 S   0  0  0  0  0  0  0  0  0  0  0  0
   58.9240   29.4870   48.6590 O   0  0  0  0  0  0  0  0  0  0  0  0
   60.3610   29.9300   46.7280 O   0  0  0  0  0  0  0  0  0  0  0  0
   57.8620   30.7690   46.6090 N   0  0  0  0  0  0  0  0  0  0  0  0
   57.8190   31.3300   45.2870 C   0  0  0  0  0  0  0  0  0  0  0  0
   58.4590   32.5540   45.0030 C   0  0  0  0  0  0  0  0  0  0  0  0
   58.4280   33.0910   43.7180 C   0  0  0  0  0  0  0  0  0  0  0  0
   57.7590   32.4230   42.6970 C   0  0  0  0  0  0  0  0  0  0  0  0
   57.1140   31.2140   42.9570 C   0  0  0  0  0  0  0  0  0  0  0  0
   57.1290   30.6500   44.2480 C   0  0  0  0  0  0  0  0  0  0  0  0
   56.4220   29.3610   44.4700 C   0  0  0  0  0  0  0  0  0  0  0  0
   56.9420   28.2620   44.1370 O   0  0  0  0  0  0  0  0  0  0  0  0
   55.1630   29.3460   45.0610 O   0  0  0  0  0  0  0  0  0  0  0  0
   57.4360   27.2820   47.0490 C   0  0  0  0  0  0  0  0  0  0  0  0
   57.0640   26.0420   46.5240 C   0  0  0  0  0  0  0  0  0  0  0  0
   56.6270   24.0910   43.6950 C   0  0  0  0  0  0  0  0  0  0  0  0
   56.2520   22.8520   43.1660 C   0  0  0  0  0  0  0  0  0  0  0  0
   55.9796   19.5754   45.2063 H   0  0  0  0  0  0  0  0  0  0  0  0
   54.8350   19.0310   43.9335 H   0  0  0  0  0  0  0  0  0  0  0  0
   56.5288   18.4330   43.9335 H   0  0  0  0  0  0  0  0  0  0  0  0
   57.6558   20.8075   45.5189 H   0  0  0  0  0  0  0  0  0  0  0  0
   58.3233   23.0130   46.4621 H   0  0  0  0  0  0  0  0  0  0  0  0
   59.4295   25.7632   44.0660 H   0  0  0  0  0  0  0  0  0  0  0  0
   60.0923   27.9701   45.0104 H   0  0  0  0  0  0  0  0  0  0  0  0
   58.9882   33.0903   45.8044 H   0  0  0  0  0  0  0  0  0  0  0  0
   58.9336   34.0455   43.5099 H   0  0  0  0  0  0  0  0  0  0  0  0
   57.7388   32.8492   41.6831 H   0  0  0  0  0  0  0  0  0  0  0  0
   56.5867   30.6941   42.1436 H   0  0  0  0  0  0  0  0  0  0  0  0
   56.8753   27.7098   47.8932 H   0  0  0  0  0  0  0  0  0  0  0  0
   56.2108   25.4998   46.9576 H   0  0  0  0  0  0  0  0  0  0  0  0
   56.3340   25.0160   43.1769 H   0  0  0  0  0  0  0  0  0  0  0  0
   55.6660   22.8083   42.2361 H   0  0  0  0  0  0  0  0  0  0  0  0
  1  2  1  0
  2  3  1  0
  3  4  2  0
  4  5  1  0
  5  6  2  0
  6  7  1  0
  7  8  2  0
  8  9  1  0
  9 10  2  0
 10 11  1  0
 11 12  2  0
 11 13  2  0
 11 14  1  0
 14 15  1  0
 15 16  2  0
 16 17  1  0
 17 18  2  0
 18 19  1  0
 19 20  2  0
 20 21  1  0
 21 22  2  0
 21 23  1  0
 10 24  1  0
 24 25  2  0
  6 26  1  0
 26 27  2  0
 27  3  1  0
 25  7  1  0
 20 15  1  0
  1 28  1  0
  1 29  1  0
  1 30  1  0
  4 31  1  0
  5 32  1  0
  8 33  1  0
  9 34  1  0
 16 35  1  0
 17 36  1  0
 18 37  1  0
 19 38  1  0
 24 39  1  0
 25 40  1  0
 26 41  1  0
 27 42  1  0
M  CHG  2  14  -1  23  -1
M  END
>  <UniqueID>  (35) 
33

>  <SMILES>  (35) 
COc1ccc(-c2ccc(S(=O)(=O)[N-]c3ccccc3C(=O)[O-])cc2)cc1

>  <Energy>  (35) 
55.604198188195745

>  <Genealogy>  (35) 
COc1ccc(-c2ccc(S(=O)(=O)[N-]c3ccccc3C(=O)[O-])cc2)cc1 (protonated)
COc1ccc(-c2ccc(S(=O)(=O)[N-]c3ccccc3C(=O)[O-])cc2)cc1 (3D coordinates assigned)
COc1ccc(-c2ccc(S(=O)(=O)[N-]c3ccccc3C(=O)[O-])cc2)cc1 (optimized conformer: 55.604198188195745 kcal/mol)

>  <smiles>  (35) 
COc1ccc(-c2ccc(S(=O)(=O)Nc3ccccc3C(=O)O)cc2)cc1

>  <score_type>  (35) 
oracle

>  <origin>  (35) 
adg

>  <m_score__min__energy>  (35) 
-12.859999999999999

>  <m_primary>  (35) 
energy

$$$$
35:0
     RDKit          3D

 51 53  0  0  0  0  0  0  0  0999 V2000
   63.3670   32.0100   49.4020 C   0  0  0  0  0  0  0  0  0  0  0  0
   62.0610   32.5730   49.4190 O   0  0  0  0  0  0  0  0  0  0  0  0
   61.3420   32.9710   48.2780 C   0  0  0  0  0  0  0  0  0  0  0  0
   62.0020   33.4560   47.1360 C   0  0  0  0  0  0  0  0  0  0  0  0
   61.2840   33.8580   46.0140 C   0  0  0  0  0  0  0  0  0  0  0  0
   59.8870   33.7990   46.0090 C   0  0  0  0  0  0  0  0  0  0  0  0
   59.1770   34.2240   44.8730 C   0  0  0  0  0  0  0  0  0  0  0  0
   57.7830   34.1870   44.8590 C   0  0  0  0  0  0  0  0  0  0  0  0
   57.0860   33.7350   45.9770 C   0  0  0  0  0  0  0  0  0  0  0  0
   57.7770   33.3090   47.1140 C   0  0  0  0  0  0  0  0  0  0  0  0
   59.1900   33.3210   47.1500 C   0  0  0  0  0  0  0  0  0  0  0  0
   59.9290   32.8790   48.2880 C   0  0  0  0  0  0  0  0  0  0  0  0
   59.2390   32.3420   49.5320 C   0  0  0  0  0  0  0  0  0  0  0  0
   58.7910   30.8880   49.3200 C   0  0  0  0  0  0  0  0  0  0  0  0
   59.6540   30.1640   48.2780 C   0  0  0  0  0  0  0  0  0  0  0  0
   58.9500   30.0130   47.0050 N   0  0  0  0  0  0  0  0  0  0  0  0
   59.6290   29.8230   45.7550 C   0  0  0  0  0  0  0  0  0  0  0  0
   60.8860   29.7110   45.7270 O   0  0  0  0  0  0  0  0  0  0  0  0
   58.8290   29.6870   44.4810 C   0  0  0  0  0  0  0  0  0  0  0  0
   57.7710   28.5480   44.5650 C   0  0  0  0  0  0  0  0  0  0  0  0
   56.3700   29.0840   44.8890 C   0  0  0  0  0  0  0  0  0  0  0  0
   55.8810   30.0820   43.8180 C   0  0  0  0  0  0  0  0  0  0  0  0
   57.0230   30.8840   43.1560 C   0  0  0  0  0  0  0  0  0  0  0  0
   58.2100   31.0560   44.1060 C   0  0  0  0  0  0  0  0  0  0  0  0
   63.7151   31.8600   50.4346 H   0  0  0  0  0  0  0  0  0  0  0  0
   63.3424   31.0425   48.8791 H   0  0  0  0  0  0  0  0  0  0  0  0
   64.0536   32.6921   48.8791 H   0  0  0  0  0  0  0  0  0  0  0  0
   63.1002   33.5186   47.1291 H   0  0  0  0  0  0  0  0  0  0  0  0
   61.8187   34.2245   45.1253 H   0  0  0  0  0  0  0  0  0  0  0  0
   59.7236   34.5877   43.9904 H   0  0  0  0  0  0  0  0  0  0  0  0
   57.2335   34.5150   43.9643 H   0  0  0  0  0  0  0  0  0  0  0  0
   55.9863   33.7134   45.9646 H   0  0  0  0  0  0  0  0  0  0  0  0
   57.2144   32.9598   47.9923 H   0  0  0  0  0  0  0  0  0  0  0  0
   59.9388   32.3842   50.3796 H   0  0  0  0  0  0  0  0  0  0  0  0
   58.3518   32.9587   49.7382 H   0  0  0  0  0  0  0  0  0  0  0  0
   58.8653   30.3509   50.2771 H   0  0  0  0  0  0  0  0  0  0  0  0
   57.7551   30.9033   48.9502 H   0  0  0  0  0  0  0  0  0  0  0  0
   60.5732   30.7446   48.1106 H   0  0  0  0  0  0  0  0  0  0  0  0
   59.8871   29.1602   48.6627 H   0  0  0  0  0  0  0  0  0  0  0  0
   57.9080   30.1000   47.0060 H   0  0  0  0  0  0  0  0  0  0  0  0
   59.5092   29.3869   43.6702 H   0  0  0  0  0  0  0  0  0  0  0  0
   57.7357   28.0247   43.5981 H   0  0  0  0  0  0  0  0  0  0  0  0
   58.0694   27.8678   45.3763 H   0  0  0  0  0  0  0  0  0  0  0  0
   55.6671   28.2393   44.9371 H   0  0  0  0  0  0  0  0  0  0  0  0
   56.4181   29.6109   45.8534 H   0  0  0  0  0  0  0  0  0  0  0  0
   55.3507   29.5203   43.0349 H   0  0  0  0  0  0  0  0  0  0  0  0
   55.2283   30.8074   44.3257 H   0  0  0  0  0  0  0  0  0  0  0  0
   57.3601   30.3495   42.2556 H   0  0  0  0  0  0  0  0  0  0  0  0
   56.6396   31.8822   42.8977 H   0  0  0  0  0  0  0  0  0  0  0  0
   58.9762   31.6739   43.6149 H   0  0  0  0  0  0  0  0  0  0  0  0
   57.8526   31.5409   45.0264 H   0  0  0  0  0  0  0  0  0  0  0  0
  1  2  1  0
  2  3  1  0
  3  4  2  0
  4  5  1  0
  5  6  2  0
  6  7  1  0
  7  8  2  0
  8  9  1  0
  9 10  2  0
 10 11  1  0
 11 12  2  0
 12 13  1  0
 13 14  1  0
 14 15  1  0
 15 16  1  0
 16 17  1  0
 17 18  2  0
 17 19  1  0
 19 20  1  0
 20 21  1  0
 21 22  1  0
 22 23  1  0
 23 24  1  0
 12  3  1  0
 24 19  1  0
 11  6  1  0
  1 25  1  0
  1 26  1  0
  1 27  1  0
  4 28  1  0
  5 29  1  0
  7 30  1  0
  8 31  1  0
  9 32  1  0
 10 33  1  0
 13 34  1  0
 13 35  1  0
 14 36  1  0
 14 37  1  0
 15 38  1  0
 15 39  1  0
 16 40  1  0
 19 41  1  0
 20 42  1  0
 20 43  1  0
 21 44  1  0
 21 45  1  0
 22 46  1  0
 22 47  1  0
 23 48  1  0
 23 49  1  0
 24 50  1  0
 24 51  1  0
M  END
>  <UniqueID>  (36) 
34

>  <SMILES>  (36) 
COc1ccc2ccccc2c1CCCNC(=O)C1CCCCC1

>  <Energy>  (36) 
51.79731517188715

>  <Genealogy>  (36) 
COc1ccc2ccccc2c1CCCNC(=O)C1CCCCC1 (3D coordinates assigned)
COc1ccc2ccccc2c1CCCNC(=O)C1CCCCC1 (nonaromatic ring conformer: 51.79731517188715 kcal/mol)

>  <smiles>  (36) 
COc1ccc2ccccc2c1CCCNC(=O)C1CCCCC1

>  <score_type>  (36) 
oracle

>  <origin>  (36) 
adg

>  <m_score__min__energy>  (36) 
-8.8399999999999999

>  <m_primary>  (36) 
energy

$$$$
36:0
     RDKit          3D

 92 96  0  0  0  0  0  0  0  0999 V2000
   52.8170   30.1220   50.8680 C   0  0  0  0  0  0  0  0  0  0  0  0
   54.0570   29.8870   51.7300 C   0  0  0  0  0  0  0  0  0  0  0  0
   54.9650   31.0320   51.6450 N   0  0  0  0  0  0  0  0  0  0  0  0
   56.3830   30.9080   51.8360 C   0  0  0  0  0  0  0  0  0  0  0  0
   56.9050   29.7660   51.9780 O   0  0  0  0  0  0  0  0  0  0  0  0
   57.2430   32.1400   51.9150 C   0  0  0  0  0  0  0  0  0  0  0  0
   58.4480   32.0930   50.9500 C   0  0  2  0  0  0  0  0  0  0  0  0
   59.2330   30.7630   51.1060 C   0  0  0  0  0  0  0  0  0  0  0  0
   60.7480   30.9140   50.8000 C   0  0  1  0  0  0  0  0  0  0  0  0
   61.5570   29.6070   50.8120 C   0  0  0  0  0  0  0  0  0  0  0  0
   62.7940   29.6330   50.5740 O   0  0  0  0  0  0  0  0  0  0  0  0
   60.9890   28.3600   51.2590 N   0  0  0  0  0  0  0  0  0  0  0  0
   60.6840   28.1830   52.6830 C   0  0  0  0  0  0  0  0  0  0  0  0
   61.7200   27.2730   53.3700 C   0  0  0  0  0  0  0  0  0  0  0  0
   62.4200   26.3030   52.4020 C   0  0  0  0  0  0  0  0  0  0  0  0
   61.5070   25.9190   51.2350 C   0  0  0  0  0  0  0  0  0  0  0  0
   61.1420   27.1650   50.4120 C   0  0  0  0  0  0  0  0  0  0  0  0
   61.0170   32.0160   49.6750 C   0  0  1  0  0  0  0  0  0  0  0  0
   62.5230   32.0600   49.3100 C   0  0  0  0  0  0  0  0  0  0  0  0
   60.2440   31.9950   48.3340 C   0  0  0  0  0  0  0  0  0  0  0  0
   59.9930   33.2140   47.6870 C   0  0  0  0  0  0  0  0  0  0  0  0
   59.3120   32.9210   46.5390 C   0  0  0  0  0  0  0  0  0  0  0  0
   58.7740   33.7720   45.5780 C   0  0  0  0  0  0  0  0  0  0  0  0
   58.0380   33.1990   44.5300 C   0  0  0  0  0  0  0  0  0  0  0  0
   57.8410   31.7990   44.4720 C   0  0  0  0  0  0  0  0  0  0  0  0
   56.9870   31.2000   43.3820 C   0  0  0  0  0  0  0  0  0  0  0  0
   57.2130   29.6890   43.2510 C   0  0  0  0  0  0  0  0  0  0  0  0
   56.6560   28.9150   44.4230 C   0  0  0  0  0  0  0  0  0  0  0  0
   55.5610   29.2900   44.9280 O   0  0  0  0  0  0  0  0  0  0  0  0
   57.2970   27.7200   44.9290 N   0  0  0  0  0  0  0  0  0  0  0  0
   56.7440   27.0790   46.1260 C   0  0  0  0  0  0  0  0  0  0  0  0
   58.4320   27.1070   44.2300 C   0  0  0  0  0  0  0  0  0  0  0  0
   58.4350   30.9680   45.4470 C   0  0  0  0  0  0  0  0  0  0  0  0
   59.1670   31.5600   46.4880 C   0  0  0  0  0  0  0  0  0  0  0  0
   59.7550   30.9640   47.5670 N   0  0  0  0  0  0  0  0  0  0  0  0
   59.8300   29.5150   47.8180 C   0  0  0  0  0  0  0  0  0  0  0  0
   60.3430   28.7550   46.5910 C   0  0  0  0  0  0  0  0  0  0  0  0
   58.4950   28.9570   48.3440 C   0  0  0  0  0  0  0  0  0  0  0  0
   60.2850   34.5950   48.2220 C   0  0  0  0  0  0  0  0  0  0  0  0
   60.9230   34.5680   49.6220 C   0  0  0  0  0  0  0  0  0  0  0  0
   60.6000   33.3040   50.3040 N   0  0  0  0  0  0  0  0  0  0  0  0
   59.3800   33.2840   51.0840 C   0  0  0  0  0  0  0  0  0  0  0  0
   59.0870   34.2560   51.8360 O   0  0  0  0  0  0  0  0  0  0  0  0
   51.9448   30.2873   51.5176 H   0  0  0  0  0  0  0  0  0  0  0  0
   52.9741   31.0064   50.2330 H   0  0  0  0  0  0  0  0  0  0  0  0
   52.6396   29.2415   50.2330 H   0  0  0  0  0  0  0  0  0  0  0  0
   53.7490   29.7462   52.7766 H   0  0  0  0  0  0  0  0  0  0  0  0
   54.5796   28.9907   51.3646 H   0  0  0  0  0  0  0  0  0  0  0  0
   54.5560   31.9680   51.4220 H   0  0  0  0  0  0  0  0  0  0  0  0
   56.6262   33.0156   51.6643 H   0  0  0  0  0  0  0  0  0  0  0  0
   57.6412   32.2002   52.9386 H   0  0  0  0  0  0  0  0  0  0  0  0
   58.0250   32.1453   49.9359 H   0  0  0  0  0  0  0  0  0  0  0  0
   59.1180   30.4072   52.1405 H   0  0  0  0  0  0  0  0  0  0  0  0
   58.8196   30.0492   50.3783 H   0  0  0  0  0  0  0  0  0  0  0  0
   61.2398   31.3653   51.6743 H   0  0  0  0  0  0  0  0  0  0  0  0
   60.6892   29.1667   53.1752 H   0  0  0  0  0  0  0  0  0  0  0  0
   59.6951   27.7090   52.7693 H   0  0  0  0  0  0  0  0  0  0  0  0
   62.4848   27.9086   53.8401 H   0  0  0  0  0  0  0  0  0  0  0  0
   61.1772   26.6615   54.1058 H   0  0  0  0  0  0  0  0  0  0  0  0
   63.3247   26.7859   52.0041 H   0  0  0  0  0  0  0  0  0  0  0  0
   62.6760   25.3876   52.9557 H   0  0  0  0  0  0  0  0  0  0  0  0
   62.0278   25.1970   50.5889 H   0  0  0  0  0  0  0  0  0  0  0  0
   60.5852   25.4705   51.6339 H   0  0  0  0  0  0  0  0  0  0  0  0
   61.9385   27.3506   49.6764 H   0  0  0  0  0  0  0  0  0  0  0  0
   60.1789   26.9745   49.9159 H   0  0  0  0  0  0  0  0  0  0  0  0
   63.1233   32.0775   50.2316 H   0  0  0  0  0  0  0  0  0  0  0  0
   62.7834   31.1691   48.7197 H   0  0  0  0  0  0  0  0  0  0  0  0
   62.7309   32.9646   48.7197 H   0  0  0  0  0  0  0  0  0  0  0  0
   58.9213   34.8604   45.6383 H   0  0  0  0  0  0  0  0  0  0  0  0
   57.6108   33.8431   43.7473 H   0  0  0  0  0  0  0  0  0  0  0  0
   55.9282   31.3831   43.6174 H   0  0  0  0  0  0  0  0  0  0  0  0
   57.2661   31.6726   42.4287 H   0  0  0  0  0  0  0  0  0  0  0  0
   56.7222   29.3377   42.3314 H   0  0  0  0  0  0  0  0  0  0  0  0
   58.2989   29.5155   43.2227 H   0  0  0  0  0  0  0  0  0  0  0  0
   57.1588   27.5598   47.0242 H   0  0  0  0  0  0  0  0  0  0  0  0
   55.6491   27.1848   46.1259 H   0  0  0  0  0  0  0  0  0  0  0  0
   57.0092   26.0114   46.1259 H   0  0  0  0  0  0  0  0  0  0  0  0
   59.1504   26.7190   44.9671 H   0  0  0  0  0  0  0  0  0  0  0  0
   58.0715   26.2809   43.5994 H   0  0  0  0  0  0  0  0  0  0  0  0
   58.9251   27.8615   43.5994 H   0  0  0  0  0  0  0  0  0  0  0  0
   58.3258   29.8748   45.3916 H   0  0  0  0  0  0  0  0  0  0  0  0
   60.5695   29.3559   48.6167 H   0  0  0  0  0  0  0  0  0  0  0  0
   60.9306   27.8845   46.9181 H   0  0  0  0  0  0  0  0  0  0  0  0
   59.4890   28.4149   45.9869 H   0  0  0  0  0  0  0  0  0  0  0  0
   60.9778   29.4198   45.9869 H   0  0  0  0  0  0  0  0  0  0  0  0
   58.5040   28.9608   49.4440 H   0  0  0  0  0  0  0  0  0  0  0  0
   57.6672   29.5845   47.9819 H   0  0  0  0  0  0  0  0  0  0  0  0
   58.3600   27.9271   47.9819 H   0  0  0  0  0  0  0  0  0  0  0  0
   60.9748   35.1013   47.5308 H   0  0  0  0  0  0  0  0  0  0  0  0
   59.3265   35.1284   48.3044 H   0  0  0  0  0  0  0  0  0  0  0  0
   62.0149   34.6600   49.5255 H   0  0  0  0  0  0  0  0  0  0  0  0
   60.5261   35.4063   50.2134 H   0  0  0  0  0  0  0  0  0  0  0  0
  1  2  1  0
  2  3  1  0
  3  4  1  0
  4  5  2  0
  4  6  1  0
  6  7  1  0
  7  8  1  0
  8  9  1  0
  9 10  1  0
 10 11  2  0
 10 12  1  0
 12 13  1  0
 13 14  1  0
 14 15  1  0
 15 16  1  0
 16 17  1  0
  9 18  1  0
 18 19  1  6
 18 20  1  0
 20 21  2  0
 21 22  1  0
 22 23  2  0
 23 24  1  0
 24 25  2  0
 25 26  1  0
 26 27  1  0
 27 28  1  0
 28 29  2  0
 28 30  1  0
 30 31  1  0
 30 32  1  0
 25 33  1  0
 33 34  2  0
 34 35  1  0
 35 36  1  0
 36 37  1  0
 36 38  1  0
 21 39  1  0
 39 40  1  0
 40 41  1  0
 41 42  1  0
 42 43  2  0
 42  7  1  0
 17 12  1  0
 41 18  1  0
 35 20  1  0
 34 22  1  0
  1 44  1  0
  1 45  1  0
  1 46  1  0
  2 47  1  0
  2 48  1  0
  3 49  1  0
  6 50  1  0
  6 51  1  0
  7 52  1  6
  8 53  1  0
  8 54  1  0
  9 55  1  1
 13 56  1  0
 13 57  1  0
 14 58  1  0
 14 59  1  0
 15 60  1  0
 15 61  1  0
 16 62  1  0
 16 63  1  0
 17 64  1  0
 17 65  1  0
 19 66  1  0
 19 67  1  0
 19 68  1  0
 23 69  1  0
 24 70  1  0
 26 71  1  0
 26 72  1  0
 27 73  1  0
 27 74  1  0
 31 75  1  0
 31 76  1  0
 31 77  1  0
 32 78  1  0
 32 79  1  0
 32 80  1  0
 33 81  1  0
 36 82  1  0
 37 83  1  0
 37 84  1  0
 37 85  1  0
 38 86  1  0
 38 87  1  0
 38 88  1  0
 39 89  1  0
 39 90  1  0
 40 91  1  0
 40 92  1  0
M  END
>  <UniqueID>  (37) 
35

>  <SMILES>  (37) 
CCNC(=O)C[C@@H]1C[C@@H](C(=O)N2CCCCC2)C2(C)c3c(c4ccc(CCC(=O)N(C)C)cc4n3C(C)C)CCN2C1=O

>  <Energy>  (37) 
166.14752999741432

>  <Genealogy>  (37) 
CCNC(=O)C[C@@H]1C[C@@H](C(=O)N2CCCCC2)C2(C)c3c(c4ccc(CCC(=O)N(C)C)cc4n3C(C)C)CCN2C1=O (chirality)
CCNC(=O)C[C@@H]1C[C@@H](C(=O)N2CCCCC2)C2(C)c3c(c4ccc(CCC(=O)N(C)C)cc4n3C(C)C)CCN2C1=O (3D coordinates assigned)
CCNC(=O)C[C@@H]1C[C@@H](C(=O)N2CCCCC2)C2(C)c3c(c4ccc(CCC(=O)N(C)C)cc4n3C(C)C)CCN2C1=O (nonaromatic ring conformer: 166.14752999741432 kcal/mol)

>  <smiles>  (37) 
CCNC(=O)CC1CC(C(=O)N2CCCCC2)C2(C)c3c(c4ccc(CCC(=O)N(C)C)cc4n3C(C)C)CCN2C1=O

>  <score_type>  (37) 
oracle

>  <origin>  (37) 
adg

>  <m_score__min__energy>  (37) 
-11.1

>  <m_primary>  (37) 
energy

$$$$
37:0
     RDKit          3D

 27 27  0  0  1  0  0  0  0  0999 V2000
   56.3720   29.8090   42.9590 C   0  0  0  0  0  0  0  0  0  0  0  0
   55.5430   29.8300   44.2270 C   0  0  0  0  0  0  0  0  0  0  0  0
   55.8770   28.6920   45.0350 N   0  0  0  0  0  0  0  0  0  0  0  0
   57.2080   28.4970   45.4920 C   0  0  0  0  0  0  0  0  0  0  0  0
   57.9280   29.5690   45.9740 C   0  0  0  0  0  0  0  0  0  0  0  0
   59.1930   29.4260   46.4060 N   0  0  0  0  0  0  0  0  0  0  0  0
   59.7790   28.2020   46.3710 C   0  0  0  0  0  0  0  0  0  0  0  0
   59.0760   27.1170   45.8920 C   0  0  0  0  0  0  0  0  0  0  0  0
   57.7770   27.2660   45.4490 C   0  0  0  0  0  0  0  0  0  0  0  0
   57.0820   26.0370   44.9610 C   0  0  0  0  0  0  0  0  0  0  0  0
   56.0490   25.6900   45.9690 C   0  0  0  0  0  0  0  0  0  0  0  0
   54.7900   26.2910   45.7910 O   0  0  0  0  0  0  0  0  0  0  0  0
   56.2520   24.8940   46.9620 N   0  0  0  0  0  0  0  0  0  0  0  0
   55.1600   24.1540   47.3840 O   0  0  0  0  0  0  0  0  0  0  0  0
   57.4403   29.7819   43.2198 H   0  0  0  0  0  0  0  0  0  0  0  0
   56.1160   28.9171   42.3683 H   0  0  0  0  0  0  0  0  0  0  0  0
   56.1615   30.7128   42.3683 H   0  0  0  0  0  0  0  0  0  0  0  0
   55.7537   30.7526   44.7878 H   0  0  0  0  0  0  0  0  0  0  0  0
   54.4746   29.7950   43.9676 H   0  0  0  0  0  0  0  0  0  0  0  0
   55.1430   27.9970   45.2870 H   0  0  0  0  0  0  0  0  0  0  0  0
   57.4575   30.5628   46.0059 H   0  0  0  0  0  0  0  0  0  0  0  0
   60.8131   28.0760   46.7242 H   0  0  0  0  0  0  0  0  0  0  0  0
   59.5532   26.1263   45.8626 H   0  0  0  0  0  0  0  0  0  0  0  0
   56.6085   26.2327   43.9876 H   0  0  0  0  0  0  0  0  0  0  0  0
   57.7952   25.2097   44.8307 H   0  0  0  0  0  0  0  0  0  0  0  0
   54.0240   25.9090   46.3650 H   0  0  0  0  0  0  0  0  0  0  0  0
   54.2620   24.4760   47.0610 H   0  0  0  0  0  0  0  0  0  0  0  0
  1  2  1  0
  2  3  1  0
  3  4  1  0
  4  5  2  0
  5  6  1  0
  6  7  2  0
  7  8  1  0
  8  9  2  0
  9 10  1  0
 10 11  1  0
 11 12  1  0
 11 13  2  0
 13 14  1  0
  9  4  1  0
  1 15  1  0
  1 16  1  0
  1 17  1  0
  2 18  1  0
  2 19  1  0
  3 20  1  0
  5 21  1  0
  7 22  1  0
  8 23  1  0
 10 24  1  0
 10 25  1  0
 12 26  1  0
 14 27  1  0
M  END
>  <smiles>  (38) 
CCNc1cnccc1CC(O)=NO

>  <score_type>  (38) 
oracle

>  <origin>  (38) 
adg

>  <m_score__min__energy>  (38) 
-6.4000000000000004

>  <m_primary>  (38) 
energy

$$$$
38:0
     RDKit          3D

 35 36  0  0  0  0  0  0  0  0999 V2000
   61.7200   34.0960   49.3120 C   0  0  0  0  0  0  0  0  0  0  0  0
   60.4890   34.6260   48.8320 O   0  0  0  0  0  0  0  0  0  0  0  0
   59.7190   34.0420   47.8150 C   0  0  0  0  0  0  0  0  0  0  0  0
   59.6110   34.7140   46.5930 C   0  0  0  0  0  0  0  0  0  0  0  0
   58.8570   34.1750   45.5470 C   0  0  0  0  0  0  0  0  0  0  0  0
   58.1920   32.9450   45.7080 C   0  0  0  0  0  0  0  0  0  0  0  0
   57.4060   32.3620   44.6530 N   0  0  0  0  0  0  0  0  0  0  0  0
   57.8490   31.2150   43.8580 C   0  0  0  0  0  0  0  0  0  0  0  0
   57.3650   29.9150   44.4740 C   0  0  0  0  0  0  0  0  0  0  0  0
   58.2660   28.8720   44.8160 C   0  0  0  0  0  0  0  0  0  0  0  0
   59.7550   29.0390   44.5840 C   0  0  0  0  0  0  0  0  0  0  0  0
   57.7590   27.6980   45.4270 C   0  0  0  0  0  0  0  0  0  0  0  0
   58.6450   26.6420   45.8670 C   0  0  0  0  0  0  0  0  0  0  0  0
   59.3550   25.7980   46.2200 N   0  0  0  0  0  0  0  0  0  0  0  0
   56.3700   27.5620   45.6150 C   0  0  0  0  0  0  0  0  0  0  0  0
   55.8120   26.4220   46.1970 O   0  0  0  0  0  0  0  0  0  0  0  0
   55.5370   28.5570   45.2240 N   0  0  0  0  0  0  0  0  0  0  0  0
   55.9850   29.7070   44.6650 C   0  0  0  0  0  0  0  0  0  0  0  0
   55.1470   30.5850   44.3230 O   0  0  0  0  0  0  0  0  0  0  0  0
   58.3020   32.2720   46.9350 C   0  0  0  0  0  0  0  0  0  0  0  0
   59.0570   32.8110   47.9800 C   0  0  0  0  0  0  0  0  0  0  0  0
   61.7159   34.0978   50.4120 H   0  0  0  0  0  0  0  0  0  0  0  0
   61.8425   33.0654   48.9474 H   0  0  0  0  0  0  0  0  0  0  0  0
   62.5528   34.7153   48.9474 H   0  0  0  0  0  0  0  0  0  0  0  0
   60.1248   35.6766   46.4539 H   0  0  0  0  0  0  0  0  0  0  0  0
   58.7828   34.7155   44.5918 H   0  0  0  0  0  0  0  0  0  0  0  0
   56.4730   32.7860   44.4420 H   0  0  0  0  0  0  0  0  0  0  0  0
   57.4443   31.3042   42.8391 H   0  0  0  0  0  0  0  0  0  0  0  0
   58.9487   31.2061   43.8330 H   0  0  0  0  0  0  0  0  0  0  0  0
   60.2728   29.0971   45.5528 H   0  0  0  0  0  0  0  0  0  0  0  0
   60.1363   28.1780   44.0155 H   0  0  0  0  0  0  0  0  0  0  0  0
   59.9361   29.9631   44.0155 H   0  0  0  0  0  0  0  0  0  0  0  0
   56.3170   25.5490   46.2970 H   0  0  0  0  0  0  0  0  0  0  0  0
   57.7881   31.3096   47.0754 H   0  0  0  0  0  0  0  0  0  0  0  0
   59.1342   32.2711   48.9353 H   0  0  0  0  0  0  0  0  0  0  0  0
  1  2  1  0
  2  3  1  0
  3  4  2  0
  4  5  1  0
  5  6  2  0
  6  7  1  0
  7  8  1  0
  8  9  1  0
  9 10  2  0
 10 11  1  0
 10 12  1  0
 12 13  1  0
 13 14  3  0
 12 15  2  0
 15 16  1  0
 15 17  1  0
 17 18  1  0
 18 19  2  0
  6 20  1  0
 20 21  2  0
 21  3  1  0
 18  9  1  0
  1 22  1  0
  1 23  1  0
  1 24  1  0
  4 25  1  0
  5 26  1  0
  7 27  1  0
  8 28  1  0
  8 29  1  0
 11 30  1  0
 11 31  1  0
 11 32  1  0
 16 33  1  0
 20 34  1  0
 21 35  1  0
M  CHG  1  17  -1
M  END
>  <UniqueID>  (39) 
36

>  <SMILES>  (39) 
COc1ccc(NCc2c(C)c(C#N)c(O)[n-]c2=O)cc1

>  <Energy>  (39) 
40.10921087831481

>  <Genealogy>  (39) 
COc1ccc(NCc2c(C)c(C#N)c(O)[n-]c2=O)cc1 (protonated)
COc1ccc(NCc2c(C)c(C#N)c(O)[n-]c2=O)cc1 (3D coordinates assigned)
COc1ccc(NCc2c(C)c(C#N)c(O)[n-]c2=O)cc1 (optimized conformer: 40.10921087831481 kcal/mol)

>  <smiles>  (39) 
COc1ccc(NCc2c(C)c(C#N)c(O)[nH]c2=O)cc1

>  <score_type>  (39) 
oracle

>  <origin>  (39) 
adg

>  <m_score__min__energy>  (39) 
-9.7100000000000009

>  <m_primary>  (39) 
energy

$$$$
39:0
     RDKit          3D

 35 36  0  0  0  0  0  0  0  0999 V2000
   62.6380   34.2410   49.3610 C   0  0  0  0  0  0  0  0  0  0  0  0
   61.2960   34.1550   48.8930 O   0  0  0  0  0  0  0  0  0  0  0  0
   60.2420   33.5710   49.6110 C   0  0  0  0  0  0  0  0  0  0  0  0
   60.2070   33.7440   50.9980 C   0  0  0  0  0  0  0  0  0  0  0  0
   59.1790   33.1840   51.7610 C   0  0  0  0  0  0  0  0  0  0  0  0
   58.1570   32.4340   51.1450 C   0  0  0  0  0  0  0  0  0  0  0  0
   57.0490   31.8310   51.9380 C   0  0  0  0  0  0  0  0  0  0  0  0
   56.1190   32.5670   52.3670 O   0  0  0  0  0  0  0  0  0  0  0  0
   57.0040   30.3680   52.2660 C   0  0  0  0  0  0  0  0  0  0  0  0
   55.8200   29.7970   51.7220 O   0  0  0  0  0  0  0  0  0  0  0  0
   54.6760   29.5450   52.4870 C   0  0  0  0  0  0  0  0  0  0  0  0
   54.6460   28.5450   53.2560 O   0  0  0  0  0  0  0  0  0  0  0  0
   53.5120   30.4600   52.3890 C   0  0  0  0  0  0  0  0  0  0  0  0
   53.2480   31.1070   51.1650 C   0  0  0  0  0  0  0  0  0  0  0  0
   52.1640   31.9770   51.0370 C   0  0  0  0  0  0  0  0  0  0  0  0
   51.3260   32.2180   52.1270 C   0  0  0  0  0  0  0  0  0  0  0  0
   50.2480   33.0860   51.9970 O   0  0  0  0  0  0  0  0  0  0  0  0
   51.5710   31.5870   53.3470 C   0  0  0  0  0  0  0  0  0  0  0  0
   52.6580   30.7090   53.4900 C   0  0  0  0  0  0  0  0  0  0  0  0
   52.8790   30.0900   54.7200 O   0  0  0  0  0  0  0  0  0  0  0  0
   58.1970   32.2620   49.7490 C   0  0  0  0  0  0  0  0  0  0  0  0
   59.2270   32.8230   48.9880 C   0  0  0  0  0  0  0  0  0  0  0  0
   62.6434   34.2413   50.4610 H   0  0  0  0  0  0  0  0  0  0  0  0
   63.2111   33.3777   48.9918 H   0  0  0  0  0  0  0  0  0  0  0  0
   63.0962   35.1704   48.9918 H   0  0  0  0  0  0  0  0  0  0  0  0
   60.9971   34.3271   51.4938 H   0  0  0  0  0  0  0  0  0  0  0  0
   59.1673   33.3297   52.8512 H   0  0  0  0  0  0  0  0  0  0  0  0
   57.8839   29.8682   51.8348 H   0  0  0  0  0  0  0  0  0  0  0  0
   57.0066   30.2365   53.3581 H   0  0  0  0  0  0  0  0  0  0  0  0
   53.9036   30.9243   50.3008 H   0  0  0  0  0  0  0  0  0  0  0  0
   51.9697   32.4738   50.0750 H   0  0  0  0  0  0  0  0  0  0  0  0
   50.9078   31.7786   54.2034 H   0  0  0  0  0  0  0  0  0  0  0  0
   53.5730   29.3610   54.8330 H   0  0  0  0  0  0  0  0  0  0  0  0
   57.4085   31.6792   49.2505 H   0  0  0  0  0  0  0  0  0  0  0  0
   59.2435   32.6787   47.8976 H   0  0  0  0  0  0  0  0  0  0  0  0
  1  2  1  0
  2  3  1  0
  3  4  2  0
  4  5  1  0
  5  6  2  0
  6  7  1  0
  7  8  2  0
  7  9  1  0
  9 10  1  0
 10 11  1  0
 11 12  2  0
 11 13  1  0
 13 14  2  0
 14 15  1  0
 15 16  2  0
 16 17  1  0
 16 18  1  0
 18 19  2  0
 19 20  1  0
  6 21  1  0
 21 22  2  0
 22  3  1  0
 19 13  1  0
  1 23  1  0
  1 24  1  0
  1 25  1  0
  4 26  1  0
  5 27  1  0
  9 28  1  0
  9 29  1  0
 14 30  1  0
 15 31  1  0
 18 32  1  0
 20 33  1  0
 21 34  1  0
 22 35  1  0
M  CHG  1  17  -1
M  END
>  <UniqueID>  (40) 
37

>  <SMILES>  (40) 
COc1ccc(C(=O)COC(=O)c2ccc([O-])cc2O)cc1

>  <Energy>  (40) 
35.52137479564653

>  <Genealogy>  (40) 
COc1ccc(C(=O)COC(=O)c2ccc([O-])cc2O)cc1 (protonated)
COc1ccc(C(=O)COC(=O)c2ccc([O-])cc2O)cc1 (3D coordinates assigned)
COc1ccc(C(=O)COC(=O)c2ccc([O-])cc2O)cc1 (optimized conformer: 35.52137479564653 kcal/mol)

>  <smiles>  (40) 
COc1ccc(C(=O)COC(=O)c2ccc(O)cc2O)cc1

>  <score_type>  (40) 
oracle

>  <origin>  (40) 
adg

>  <m_score__min__energy>  (40) 
-9.6400000000000006

>  <m_primary>  (40) 
energy

$$$$
40:0
     RDKit          3D

 43 46  0  0  0  0  0  0  0  0999 V2000
   55.1440   27.5320   45.4260 H   0  0  0  0  0  0  0  0  0  0  0  0
   55.4920   26.7260   45.9880 N   0  0  0  0  0  0  0  0  0  0  0  0
   56.7000   26.2410   45.9400 C   0  0  0  0  0  0  0  0  0  0  0  0
   57.8410   27.0880   45.9500 C   0  0  0  0  0  0  0  0  0  0  0  0
   59.1280   26.4910   45.9860 C   0  0  0  0  0  0  0  0  0  0  0  0
   59.2510   25.1400   45.9380 N   0  0  0  0  0  0  0  0  0  0  0  0
   58.1820   24.3100   45.8910 C   0  0  0  0  0  0  0  0  0  0  0  0
   58.3850   22.9250   45.8450 C   0  0  0  0  0  0  0  0  0  0  0  0
   59.4079   22.5204   45.8396 H   0  0  0  0  0  0  0  0  0  0  0  0
   57.2920   22.0560   45.8060 C   0  0  0  0  0  0  0  0  0  0  0  0
   57.4550   20.9687   45.7705 H   0  0  0  0  0  0  0  0  0  0  0  0
   55.9930   22.5670   45.8120 C   0  0  0  0  0  0  0  0  0  0  0  0
   55.1344   21.8800   45.7812 H   0  0  0  0  0  0  0  0  0  0  0  0
   55.7780   23.9470   45.8570 C   0  0  0  0  0  0  0  0  0  0  0  0
   54.7509   24.3406   45.8636 H   0  0  0  0  0  0  0  0  0  0  0  0
   56.8720   24.8390   45.8940 C   0  0  0  0  0  0  0  0  0  0  0  0
   60.3950   27.3060   45.9920 C   0  0  0  0  0  0  0  0  0  0  0  0
   61.1330   26.8075   46.6377 H   0  0  0  0  0  0  0  0  0  0  0  0
   60.7525   27.3789   44.9543 H   0  0  0  0  0  0  0  0  0  0  0  0
   60.1700   28.7260   46.5090 C   0  0  0  0  0  0  0  0  0  0  0  0
   59.9369   28.6923   47.5835 H   0  0  0  0  0  0  0  0  0  0  0  0
   61.0803   29.3225   46.3496 H   0  0  0  0  0  0  0  0  0  0  0  0
   59.0000   29.3670   45.7520 C   0  0  2  0  0  0  0  0  0  0  0  0
   59.2247   29.2895   44.6780 H   0  0  0  0  0  0  0  0  0  0  0  0
   58.8610   30.8570   46.0500 C   0  0  0  0  0  0  0  0  0  0  0  0
   59.8860   31.4960   46.7740 C   0  0  0  0  0  0  0  0  0  0  0  0
   60.7559   30.9118   47.1085 H   0  0  0  0  0  0  0  0  0  0  0  0
   59.8180   32.8580   47.0750 C   0  0  0  0  0  0  0  0  0  0  0  0
   61.2590   33.6410   48.0670 Br  0  0  0  0  0  0  0  0  0  0  0  0
   58.7110   33.6130   46.6520 C   0  0  0  0  0  0  0  0  0  0  0  0
   58.6000   34.9750   46.9300 O   0  0  0  0  0  0  0  0  0  0  0  0
   59.2620   35.4730   47.5110 H   0  0  0  0  0  0  0  0  0  0  0  0
   57.6890   32.9930   45.9290 C   0  0  0  0  0  0  0  0  0  0  0  0
   56.8248   33.5867   45.5963 H   0  0  0  0  0  0  0  0  0  0  0  0
   57.7470   31.6200   45.6190 C   0  0  0  0  0  0  0  0  0  0  0  0
   56.7220   30.9970   44.8880 O   0  0  0  0  0  0  0  0  0  0  0  0
   56.7900   30.6740   43.5040 C   0  0  0  0  0  0  0  0  0  0  0  0
   57.0154   29.6036   43.3879 H   0  0  0  0  0  0  0  0  0  0  0  0
   55.8247   30.8993   43.0270 H   0  0  0  0  0  0  0  0  0  0  0  0
   57.5825   31.2694   43.0270 H   0  0  0  0  0  0  0  0  0  0  0  0
   57.6890   28.6020   46.0130 C   0  0  0  0  0  0  0  0  0  0  0  0
   57.3222   28.8729   47.0140 H   0  0  0  0  0  0  0  0  0  0  0  0
   56.9858   28.8880   45.2169 H   0  0  0  0  0  0  0  0  0  0  0  0
  1  2  1  0
  2  3  2  0
  3  4  1  0
  4  5  2  0
  5  6  1  0
  6  7  1  0
  7  8  2  0
  8  9  1  0
  8 10  1  0
 10 11  1  0
 10 12  2  0
 12 13  1  0
 12 14  1  0
 14 15  1  0
 14 16  2  0
  5 17  1  0
 17 18  1  0
 17 19  1  0
 17 20  1  0
 20 21  1  0
 20 22  1  0
 20 23  1  0
 23 24  1  6
 23 25  1  0
 25 26  2  0
 26 27  1  0
 26 28  1  0
 28 29  1  0
 28 30  2  0
 30 31  1  0
 31 32  1  0
 30 33  1  0
 33 34  1  0
 33 35  2  0
 35 36  1  0
 36 37  1  0
 37 38  1  0
 37 39  1  0
 37 40  1  0
 23 41  1  0
 41 42  1  0
 41 43  1  0
 16  3  1  0
 35 25  1  0
 41  4  1  0
 16  7  1  0
M  CHG  1   6  -1
M  END
>  <UniqueID>  (41) 
38

>  <SMILES>  (41) 
[H]/N=c1\c2c([n-]c3ccccc13)CC[C@H](c1cc(Br)c(O)cc1OC)C2

>  <Energy>  (41) 
58.58865515875658

>  <Genealogy>  (41) 
COc1cc(O)c(Br)cc1C1CCc2[n-]c3ccccc3c(=N)c2C1 (protonated)
COc1cc(O)c(Br)cc1[C@H]1CCc2[n-]c3ccccc3c(=N)c2C1 (chirality)
[H]/N=c1\c2c([n-]c3ccccc13)CC[C@H](c1cc(Br)c(O)cc1OC)C2 (cis-trans isomerization)
[H]/N=c1\c2c([n-]c3ccccc13)CC[C@H](c1cc(Br)c(O)cc1OC)C2 (3D coordinates assigned)
[H]/N=c1\c2c([n-]c3ccccc13)CC[C@H](c1cc(Br)c(O)cc1OC)C2 (nonaromatic ring conformer: 58.58865515875658 kcal/mol)

>  <smiles>  (41) 
COc1cc(O)c(Br)cc1C1CCc2[nH]c3ccccc3c(=N)c2C1

>  <score_type>  (41) 
oracle

>  <origin>  (41) 
adg

>  <m_score__min__energy>  (41) 
-9.7100000000000009

>  <m_primary>  (41) 
energy

$$$$
41:0
     RDKit          3D

 33 33  0  0  0  0  0  0  0  0999 V2000
   58.0320   34.2030   45.9710 C   0  0  0  0  0  0  0  0  0  0  0  0
   58.2780   33.9090   44.4960 C   0  0  0  0  0  0  0  0  0  0  0  0
   57.8570   32.5440   44.1730 N   0  0  0  0  0  0  0  0  0  0  0  0
   57.5100   31.5920   45.0610 C   0  0  0  0  0  0  0  0  0  0  0  0
   57.2380   30.4300   44.3610 C   0  0  0  0  0  0  0  0  0  0  0  0
   56.7690   29.1490   44.9190 C   0  0  0  0  0  0  0  0  0  0  0  0
   55.5280   28.9430   44.9970 O   0  0  0  0  0  0  0  0  0  0  0  0
   57.6890   28.1360   45.3730 N   0  0  0  0  0  0  0  0  0  0  0  0
   59.0750   28.4990   45.6920 C   0  0  0  0  0  0  0  0  0  0  0  0
   57.3210   26.7190   45.2710 C   0  0  0  0  0  0  0  0  0  0  0  0
   56.4210   26.3040   46.4400 C   0  0  0  0  0  0  0  0  0  0  0  0
   55.0800   26.1830   46.0020 O   0  0  0  0  0  0  0  0  0  0  0  0
   54.8090   24.8570   45.6060 C   0  0  0  0  0  0  0  0  0  0  0  0
   57.4050   30.6630   43.0430 N   0  0  0  0  0  0  0  0  0  0  0  0
   57.7950   31.9490   42.9610 C   0  0  0  0  0  0  0  0  0  0  0  0
   58.1510   32.6870   41.5400 S   0  0  0  0  0  0  0  0  0  0  0  0
   58.6169   33.5039   46.5867 H   0  0  0  0  0  0  0  0  0  0  0  0
   58.3396   35.2350   46.1954 H   0  0  0  0  0  0  0  0  0  0  0  0
   56.9619   34.0823   46.1954 H   0  0  0  0  0  0  0  0  0  0  0  0
   57.7043   34.6202   43.8836 H   0  0  0  0  0  0  0  0  0  0  0  0
   59.3527   34.0115   44.2850 H   0  0  0  0  0  0  0  0  0  0  0  0
   57.4529   31.7168   46.1524 H   0  0  0  0  0  0  0  0  0  0  0  0
   59.2032   28.5326   46.7840 H   0  0  0  0  0  0  0  0  0  0  0  0
   59.7578   27.7494   45.2655 H   0  0  0  0  0  0  0  0  0  0  0  0
   59.3027   29.4871   45.2655 H   0  0  0  0  0  0  0  0  0  0  0  0
   56.7834   26.5533   44.3257 H   0  0  0  0  0  0  0  0  0  0  0  0
   58.2390   26.1137   45.3011 H   0  0  0  0  0  0  0  0  0  0  0  0
   56.7629   25.3367   46.8369 H   0  0  0  0  0  0  0  0  0  0  0  0
   56.4752   27.0713   47.2264 H   0  0  0  0  0  0  0  0  0  0  0  0
   54.6802   24.2269   46.4984 H   0  0  0  0  0  0  0  0  0  0  0  0
   53.8877   24.8347   45.0054 H   0  0  0  0  0  0  0  0  0  0  0  0
   55.6476   24.4750   45.0054 H   0  0  0  0  0  0  0  0  0  0  0  0
   57.2710   29.9880   42.2570 H   0  0  0  0  0  0  0  0  0  0  0  0
  1  2  1  0
  2  3  1  0
  3  4  1  0
  4  5  2  0
  5  6  1  0
  6  7  2  0
  6  8  1  0
  8  9  1  0
  8 10  1  0
 10 11  1  0
 11 12  1  0
 12 13  1  0
  5 14  1  0
 14 15  1  0
 15 16  2  0
 15  3  1  0
  1 17  1  0
  1 18  1  0
  1 19  1  0
  2 20  1  0
  2 21  1  0
  4 22  1  0
  9 23  1  0
  9 24  1  0
  9 25  1  0
 10 26  1  0
 10 27  1  0
 11 28  1  0
 11 29  1  0
 13 30  1  0
 13 31  1  0
 13 32  1  0
 14 33  1  0
M  END
>  <UniqueID>  (42) 
39

>  <SMILES>  (42) 
CCn1cc(C(=O)N(C)CCOC)[nH]c1=S

>  <Energy>  (42) 
60.70660792068081

>  <Genealogy>  (42) 
CCn1cc(C(=O)N(C)CCOC)[nH]c1=S (3D coordinates assigned)
CCn1cc(C(=O)N(C)CCOC)[nH]c1=S (optimized conformer: 60.70660792068081 kcal/mol)

>  <smiles>  (42) 
CCn1cc(C(=O)N(C)CCOC)[nH]c1=S

>  <score_type>  (42) 
oracle

>  <origin>  (42) 
adg

>  <m_score__min__energy>  (42) 
-6.0099999999999998

>  <m_primary>  (42) 
energy

$$$$
42:0
     RDKit          3D

 37 38  0  0  0  0  0  0  0  0999 V2000
   59.5230   31.2750   47.4090 C   0  0  0  0  0  0  0  0  0  0  0  0
   58.4520   32.2840   47.0020 C   0  0  0  0  0  0  0  0  0  0  0  0
   58.6790   32.7680   45.6230 N   0  0  0  0  0  0  0  0  0  0  0  0
   59.4830   34.0110   45.5790 C   0  0  0  0  0  0  0  0  0  0  0  0
   59.3420   34.8820   46.8360 C   0  0  0  0  0  0  0  0  0  0  0  0
   57.4420   32.8500   44.8110 C   0  0  0  0  0  0  0  0  0  0  0  0
   57.0620   31.4480   44.3250 C   0  0  0  0  0  0  0  0  0  0  0  0
   58.2600   30.6240   44.1060 N   0  0  0  0  0  0  0  0  0  0  0  0
   58.0840   29.3290   44.7150 C   0  0  0  0  0  0  0  0  0  0  0  0
   59.2060   28.6160   45.2180 C   0  0  0  0  0  0  0  0  0  0  0  0
   59.0420   27.3660   45.8420 C   0  0  0  0  0  0  0  0  0  0  0  0
   57.7490   26.8620   45.9550 C   0  0  0  0  0  0  0  0  0  0  0  0
   57.3670   25.7040   46.5120 N   0  0  0  0  0  0  0  0  0  0  0  0
   56.0190   25.7420   46.3470 C   0  0  0  0  0  0  0  0  0  0  0  0
   55.2660   24.8170   46.7440 O   0  0  0  0  0  0  0  0  0  0  0  0
   55.5430   26.8500   45.7230 N   0  0  0  0  0  0  0  0  0  0  0  0
   56.6670   27.5420   45.4850 C   0  0  0  0  0  0  0  0  0  0  0  0
   56.7870   28.7820   44.8630 C   0  0  0  0  0  0  0  0  0  0  0  0
   59.5790   31.2223   48.5063 H   0  0  0  0  0  0  0  0  0  0  0  0
   59.2650   30.2841   47.0070 H   0  0  0  0  0  0  0  0  0  0  0  0
   60.4967   31.5916   47.0070 H   0  0  0  0  0  0  0  0  0  0  0  0
   57.4644   31.8026   47.0566 H   0  0  0  0  0  0  0  0  0  0  0  0
   58.4996   33.1426   47.6879 H   0  0  0  0  0  0  0  0  0  0  0  0
   60.5418   33.7359   45.4641 H   0  0  0  0  0  0  0  0  0  0  0  0
   59.1097   34.6056   44.7322 H   0  0  0  0  0  0  0  0  0  0  0  0
   59.4440   34.2520   47.7319 H   0  0  0  0  0  0  0  0  0  0  0  0
   60.1271   35.6525   46.8382 H   0  0  0  0  0  0  0  0  0  0  0  0
   58.3539   35.3654   46.8382 H   0  0  0  0  0  0  0  0  0  0  0  0
   56.6262   33.2600   45.4245 H   0  0  0  0  0  0  0  0  0  0  0  0
   57.6123   33.5067   43.9451 H   0  0  0  0  0  0  0  0  0  0  0  0
   56.4264   30.9649   45.0817 H   0  0  0  0  0  0  0  0  0  0  0  0
   56.5218   31.5419   43.3714 H   0  0  0  0  0  0  0  0  0  0  0  0
   59.0970   31.0970   44.5210 H   0  0  0  0  0  0  0  0  0  0  0  0
   58.4270   30.5080   43.0790 H   0  0  0  0  0  0  0  0  0  0  0  0
   60.2134   29.0463   45.1182 H   0  0  0  0  0  0  0  0  0  0  0  0
   59.9063   26.8055   46.2278 H   0  0  0  0  0  0  0  0  0  0  0  0
   55.9002   29.3205   44.4975 H   0  0  0  0  0  0  0  0  0  0  0  0
  1  2  1  0
  2  3  1  0
  3  4  1  0
  4  5  1  0
  3  6  1  0
  6  7  1  0
  7  8  1  0
  8  9  1  0
  9 10  2  0
 10 11  1  0
 11 12  2  0
 12 13  1  0
 13 14  1  0
 14 15  2  0
 14 16  1  0
 16 17  1  0
 17 18  2  0
 18  9  1  0
 17 12  1  0
  1 19  1  0
  1 20  1  0
  1 21  1  0
  2 22  1  0
  2 23  1  0
  4 24  1  0
  4 25  1  0
  5 26  1  0
  5 27  1  0
  5 28  1  0
  6 29  1  0
  6 30  1  0
  7 31  1  0
  7 32  1  0
  8 33  1  0
  8 34  1  0
 10 35  1  0
 11 36  1  0
 18 37  1  0
M  CHG  3   8   1  13  -1  16  -1
M  END
>  <UniqueID>  (43) 
40

>  <SMILES>  (43) 
CCN(CC)CC[NH2+]c1ccc2[n-]c(=O)[n-]c2c1

>  <Energy>  (43) 
71.98984807040219

>  <Genealogy>  (43) 
CCN(CC)CC[NH2+]c1ccc2[n-]c(=O)[n-]c2c1 (protonated)
CCN(CC)CC[NH2+]c1ccc2[n-]c(=O)[n-]c2c1 (3D coordinates assigned)
CCN(CC)CC[NH2+]c1ccc2[n-]c(=O)[n-]c2c1 (optimized conformer: 71.98984807040219 kcal/mol)

>  <smiles>  (43) 
CCN(CC)CCNc1ccc2[nH]c(=O)[nH]c2c1

>  <score_type>  (43) 
oracle

>  <origin>  (43) 
adg

>  <m_score__min__energy>  (43) 
-7.8399999999999999

>  <m_primary>  (43) 
energy

$$$$
43:0
     RDKit          3D

 50 53  0  0  0  0  0  0  0  0999 V2000
   58.5280   29.4010   49.0280 O   0  0  0  0  0  0  0  0  0  0  0  0
   59.7710   29.5490   48.8780 C   0  0  0  0  0  0  0  0  0  0  0  0
   60.4860   30.6640   49.5930 C   0  0  0  0  0  0  0  0  0  0  0  0
   61.2140   31.5790   48.6860 N   0  0  0  0  0  0  0  0  0  0  0  0
   62.6370   31.2310   48.5290 C   0  0  0  0  0  0  0  0  0  0  0  0
   63.2990   32.1720   47.4990 C   0  0  0  0  0  0  0  0  0  0  0  0
   62.3930   33.1440   47.0070 O   0  0  0  0  0  0  0  0  0  0  0  0
   61.8630   33.8930   48.0850 C   0  0  0  0  0  0  0  0  0  0  0  0
   61.0600   32.9980   49.0520 C   0  0  0  0  0  0  0  0  0  0  0  0
   60.5080   28.6610   48.0310 N   0  0  0  0  0  0  0  0  0  0  0  0
   60.7020   28.9160   46.6100 C   0  0  0  0  0  0  0  0  0  0  0  0
   59.7010   29.9430   46.1320 C   0  0  0  0  0  0  0  0  0  0  0  0
   60.0220   31.2650   46.2480 N   0  0  0  0  0  0  0  0  0  0  0  0
   59.1620   32.2420   45.8580 C   0  0  0  0  0  0  0  0  0  0  0  0
   59.5180   33.5950   45.9780 C   0  0  0  0  0  0  0  0  0  0  0  0
   58.6310   34.5960   45.5740 C   0  0  0  0  0  0  0  0  0  0  0  0
   57.3840   34.2550   45.0460 C   0  0  0  0  0  0  0  0  0  0  0  0
   57.0180   32.9120   44.9230 C   0  0  0  0  0  0  0  0  0  0  0  0
   57.9040   31.8960   45.3280 C   0  0  0  0  0  0  0  0  0  0  0  0
   57.5770   30.5350   45.2270 C   0  0  0  0  0  0  0  0  0  0  0  0
   56.4550   30.1950   44.7560 O   0  0  0  0  0  0  0  0  0  0  0  0
   58.4710   29.5770   45.6330 N   0  0  0  0  0  0  0  0  0  0  0  0
   58.0890   28.1910   45.5360 C   0  0  0  0  0  0  0  0  0  0  0  0
   57.7450   27.4670   46.6880 C   0  0  0  0  0  0  0  0  0  0  0  0
   57.4210   26.1090   46.5940 C   0  0  0  0  0  0  0  0  0  0  0  0
   57.4630   25.4640   45.3550 C   0  0  0  0  0  0  0  0  0  0  0  0
   57.8250   26.1750   44.2070 C   0  0  0  0  0  0  0  0  0  0  0  0
   58.1330   27.5360   44.2950 C   0  0  0  0  0  0  0  0  0  0  0  0
   59.7432   31.2495   50.1547 H   0  0  0  0  0  0  0  0  0  0  0  0
   61.2351   30.1977   50.2499 H   0  0  0  0  0  0  0  0  0  0  0  0
   63.1468   31.3351   49.4982 H   0  0  0  0  0  0  0  0  0  0  0  0
   62.7184   30.1927   48.1749 H   0  0  0  0  0  0  0  0  0  0  0  0
   64.1443   32.6860   47.9798 H   0  0  0  0  0  0  0  0  0  0  0  0
   63.6356   31.5609   46.6486 H   0  0  0  0  0  0  0  0  0  0  0  0
   62.6913   34.3622   48.6361 H   0  0  0  0  0  0  0  0  0  0  0  0
   61.1845   34.6560   47.6757 H   0  0  0  0  0  0  0  0  0  0  0  0
   61.4287   33.1500   50.0772 H   0  0  0  0  0  0  0  0  0  0  0  0
   59.9959   33.2694   48.9889 H   0  0  0  0  0  0  0  0  0  0  0  0
   61.7213   29.2943   46.4428 H   0  0  0  0  0  0  0  0  0  0  0  0
   60.5572   27.9802   46.0503 H   0  0  0  0  0  0  0  0  0  0  0  0
   60.9500   31.5350   46.6470 H   0  0  0  0  0  0  0  0  0  0  0  0
   60.4998   33.8681   46.3920 H   0  0  0  0  0  0  0  0  0  0  0  0
   58.9153   35.6541   45.6720 H   0  0  0  0  0  0  0  0  0  0  0  0
   56.6885   35.0450   44.7263 H   0  0  0  0  0  0  0  0  0  0  0  0
   56.0340   32.6479   44.5082 H   0  0  0  0  0  0  0  0  0  0  0  0
   57.7300   27.9682   47.6671 H   0  0  0  0  0  0  0  0  0  0  0  0
   57.1331   25.5489   47.4959 H   0  0  0  0  0  0  0  0  0  0  0  0
   57.2110   24.3957   45.2829 H   0  0  0  0  0  0  0  0  0  0  0  0
   57.8675   25.6635   43.2341 H   0  0  0  0  0  0  0  0  0  0  0  0
   58.4106   28.0951   43.3893 H   0  0  0  0  0  0  0  0  0  0  0  0
  1  2  2  0
  2  3  1  0
  3  4  1  0
  4  5  1  0
  5  6  1  0
  6  7  1  0
  7  8  1  0
  8  9  1  0
  2 10  1  0
 10 11  1  0
 11 12  1  0
 12 13  2  0
 13 14  1  0
 14 15  2  0
 15 16  1  0
 16 17  2  0
 17 18  1  0
 18 19  2  0
 19 20  1  0
 20 21  2  0
 20 22  1  0
 22 23  1  0
 23 24  2  0
 24 25  1  0
 25 26  2  0
 26 27  1  0
 27 28  2  0
  9  4  1  0
 22 12  1  0
 28 23  1  0
 19 14  1  0
  3 29  1  0
  3 30  1  0
  5 31  1  0
  5 32  1  0
  6 33  1  0
  6 34  1  0
  8 35  1  0
  8 36  1  0
  9 37  1  0
  9 38  1  0
 11 39  1  0
 11 40  1  0
 13 41  1  0
 15 42  1  0
 16 43  1  0
 17 44  1  0
 18 45  1  0
 24 46  1  0
 25 47  1  0
 26 48  1  0
 27 49  1  0
 28 50  1  0
M  CHG  2  10  -1  13   1
M  END
>  <UniqueID>  (44) 
41

>  <SMILES>  (44) 
O=C(CN1CCOCC1)[N-]Cc1[nH+]c2ccccc2c(=O)n1-c1ccccc1

>  <Energy>  (44) 
74.19482099988346

>  <Genealogy>  (44) 
O=C(CN1CCOCC1)[N-]Cc1[nH+]c2ccccc2c(=O)n1-c1ccccc1 (protonated)
O=C(CN1CCOCC1)[N-]Cc1[nH+]c2ccccc2c(=O)n1-c1ccccc1 (3D coordinates assigned)
O=C(CN1CCOCC1)[N-]Cc1[nH+]c2ccccc2c(=O)n1-c1ccccc1 (nonaromatic ring conformer: 74.19482099988346 kcal/mol)

>  <smiles>  (44) 
O=C(CN1CCOCC1)NCc1nc2ccccc2c(=O)n1-c1ccccc1

>  <score_type>  (44) 
oracle

>  <origin>  (44) 
adg

>  <m_score__min__energy>  (44) 
-9.2100000000000009

>  <m_primary>  (44) 
energy

$$$$
44:0
     RDKit          3D

 32 34  0  0  0  0  0  0  0  0999 V2000
   60.5100   26.7620   47.9080 C   0  0  0  0  0  0  0  0  0  0  0  0
   59.9480   26.7120   46.6020 O   0  0  0  0  0  0  0  0  0  0  0  0
   59.2540   27.7720   46.0000 C   0  0  0  0  0  0  0  0  0  0  0  0
   60.0010   28.8800   45.5250 C   0  0  0  0  0  0  0  0  0  0  0  0
   59.3650   29.9760   44.9120 C   0  0  0  0  0  0  0  0  0  0  0  0
   57.9780   29.9240   44.7920 C   0  0  0  0  0  0  0  0  0  0  0  0
   57.2530   28.8660   45.2450 C   0  0  0  0  0  0  0  0  0  0  0  0
   57.8420   27.7650   45.8580 C   0  0  0  0  0  0  0  0  0  0  0  0
   55.9550   29.1170   45.0070 N   0  0  0  0  0  0  0  0  0  0  0  0
   55.8900   30.3100   44.4210 N   0  0  0  0  0  0  0  0  0  0  0  0
   57.1120   30.8140   44.2700 N   0  0  0  0  0  0  0  0  0  0  0  0
   57.3950   32.1420   43.7330 C   0  0  0  0  0  0  0  0  0  0  0  0
   57.9260   33.0330   44.8220 C   0  0  0  0  0  0  0  0  0  0  0  0
   58.8870   34.0190   44.5350 C   0  0  0  0  0  0  0  0  0  0  0  0
   59.3990   34.8200   45.5600 C   0  0  0  0  0  0  0  0  0  0  0  0
   58.9610   34.6430   46.8750 C   0  0  0  0  0  0  0  0  0  0  0  0
   58.0110   33.6610   47.1690 C   0  0  0  0  0  0  0  0  0  0  0  0
   57.4970   32.8560   46.1480 C   0  0  0  0  0  0  0  0  0  0  0  0
   59.7065   26.6905   48.6559 H   0  0  0  0  0  0  0  0  0  0  0  0
   61.2086   25.9225   48.0390 H   0  0  0  0  0  0  0  0  0  0  0  0
   61.0494   27.7117   48.0390 H   0  0  0  0  0  0  0  0  0  0  0  0
   61.0952   28.8830   45.6374 H   0  0  0  0  0  0  0  0  0  0  0  0
   59.9396   30.8383   44.5428 H   0  0  0  0  0  0  0  0  0  0  0  0
   57.2362   26.9208   46.2191 H   0  0  0  0  0  0  0  0  0  0  0  0
   55.1340   28.5140   45.2390 H   0  0  0  0  0  0  0  0  0  0  0  0
   58.1443   32.0592   42.9319 H   0  0  0  0  0  0  0  0  0  0  0  0
   56.4670   32.5752   43.3315 H   0  0  0  0  0  0  0  0  0  0  0  0
   59.2366   34.1602   43.5016 H   0  0  0  0  0  0  0  0  0  0  0  0
   60.1487   35.5916   45.3307 H   0  0  0  0  0  0  0  0  0  0  0  0
   59.3639   35.2766   47.6789 H   0  0  0  0  0  0  0  0  0  0  0  0
   57.6674   33.5213   48.2046 H   0  0  0  0  0  0  0  0  0  0  0  0
   56.7534   32.0806   46.3840 H   0  0  0  0  0  0  0  0  0  0  0  0
  1  2  1  0
  2  3  1  0
  3  4  2  0
  4  5  1  0
  5  6  2  0
  6  7  1  0
  7  8  2  0
  7  9  1  0
  9 10  2  0
 10 11  1  0
 11 12  1  0
 12 13  1  0
 13 14  2  0
 14 15  1  0
 15 16  2  0
 16 17  1  0
 17 18  2  0
  8  3  1  0
 18 13  1  0
 11  6  1  0
  1 19  1  0
  1 20  1  0
  1 21  1  0
  4 22  1  0
  5 23  1  0
  8 24  1  0
  9 25  1  0
 12 26  1  0
 12 27  1  0
 14 28  1  0
 15 29  1  0
 16 30  1  0
 17 31  1  0
 18 32  1  0
M  CHG  1   9   1
M  END
>  <UniqueID>  (45) 
42

>  <SMILES>  (45) 
COc1ccc2c(c1)[nH+]nn2Cc1ccccc1

>  <Energy>  (45) 
77.4692166951471

>  <Genealogy>  (45) 
COc1ccc2c(c1)[nH+]nn2Cc1ccccc1 (protonated)
COc1ccc2c(c1)[nH+]nn2Cc1ccccc1 (3D coordinates assigned)
COc1ccc2c(c1)[nH+]nn2Cc1ccccc1 (optimized conformer: 77.4692166951471 kcal/mol)

>  <smiles>  (45) 
COc1ccc2c(c1)nnn2Cc1ccccc1

>  <score_type>  (45) 
oracle

>  <origin>  (45) 
adg

>  <m_score__min__energy>  (45) 
-6.0599999999999996

>  <m_primary>  (45) 
energy

$$$$
45:0
     RDKit          3D

 42 44  0  0  0  0  0  0  0  0999 V2000
   61.3150   29.7870   50.7720 C   0  0  0  0  0  0  0  0  0  0  0  0
   60.1310   30.6180   50.3840 C   0  0  0  0  0  0  0  0  0  0  0  0
   59.1950   30.8260   51.2650 N   0  0  0  0  0  0  0  0  0  0  0  0
   58.0380   31.6110   50.9610 C   0  0  0  0  0  0  0  0  0  0  0  0
   56.7530   31.6030   51.9710 S   0  0  0  0  0  0  0  0  0  0  0  0
   57.9890   32.3310   49.7270 N   0  0  0  0  0  0  0  0  0  0  0  0
   59.2380   32.4980   48.9770 C   0  0  2  0  0  0  0  0  0  0  0  0
   58.9970   33.2030   47.6290 C   0  0  0  0  0  0  0  0  0  0  0  0
   57.6830   33.3370   47.1160 C   0  0  0  0  0  0  0  0  0  0  0  0
   57.4300   34.0320   45.9360 C   0  0  0  0  0  0  0  0  0  0  0  0
   58.4760   34.5930   45.2180 C   0  0  0  0  0  0  0  0  0  0  0  0
   59.7860   34.4230   45.6520 C   0  0  0  0  0  0  0  0  0  0  0  0
   60.0820   33.6890   46.8210 C   0  0  0  0  0  0  0  0  0  0  0  0
   61.5580   33.5220   47.1620 C   0  0  0  0  0  0  0  0  0  0  0  0
   61.8130   33.9980   48.4380 F   0  0  0  0  0  0  0  0  0  0  0  0
   61.8920   32.1810   47.1300 F   0  0  0  0  0  0  0  0  0  0  0  0
   62.3860   34.2180   46.3050 F   0  0  0  0  0  0  0  0  0  0  0  0
   59.9820   31.1270   48.9590 C   0  0  2  0  0  0  0  0  0  0  0  0
   59.2660   30.0700   48.1560 C   0  0  0  0  0  0  0  0  0  0  0  0
   58.4090   29.3390   48.7240 O   0  0  0  0  0  0  0  0  0  0  0  0
   59.4880   29.9630   46.7770 O   0  0  0  0  0  0  0  0  0  0  0  0
   58.5010   30.0870   45.7890 C   0  0  0  0  0  0  0  0  0  0  0  0
   57.4250   29.1900   45.8060 C   0  0  0  0  0  0  0  0  0  0  0  0
   56.4080   29.2860   44.8500 C   0  0  0  0  0  0  0  0  0  0  0  0
   56.4560   30.2870   43.8760 C   0  0  0  0  0  0  0  0  0  0  0  0
   57.5160   31.1980   43.8630 C   0  0  0  0  0  0  0  0  0  0  0  0
   58.5340   31.1040   44.8170 C   0  0  0  0  0  0  0  0  0  0  0  0
   61.3850   29.7379   51.8687 H   0  0  0  0  0  0  0  0  0  0  0  0
   61.1989   28.7712   50.3662 H   0  0  0  0  0  0  0  0  0  0  0  0
   62.2308   30.2415   50.3662 H   0  0  0  0  0  0  0  0  0  0  0  0
   57.0630   32.5800   49.3140 H   0  0  0  0  0  0  0  0  0  0  0  0
   59.9319   33.1968   49.4672 H   0  0  0  0  0  0  0  0  0  0  0  0
   56.8437   32.8817   47.6622 H   0  0  0  0  0  0  0  0  0  0  0  0
   56.3972   34.1365   45.5721 H   0  0  0  0  0  0  0  0  0  0  0  0
   58.2692   35.1720   44.3059 H   0  0  0  0  0  0  0  0  0  0  0  0
   60.6080   34.8693   45.0730 H   0  0  0  0  0  0  0  0  0  0  0  0
   60.9575   31.3061   48.4833 H   0  0  0  0  0  0  0  0  0  0  0  0
   57.3795   28.4054   46.5757 H   0  0  0  0  0  0  0  0  0  0  0  0
   55.5703   28.5733   44.8650 H   0  0  0  0  0  0  0  0  0  0  0  0
   55.6601   30.3579   43.1200 H   0  0  0  0  0  0  0  0  0  0  0  0
   57.5494   31.9904   43.1008 H   0  0  0  0  0  0  0  0  0  0  0  0
   59.3629   31.8271   44.8076 H   0  0  0  0  0  0  0  0  0  0  0  0
  1  2  1  0
  2  3  2  0
  3  4  1  0
  4  5  2  0
  4  6  1  0
  6  7  1  0
  7  8  1  0
  8  9  2  0
  9 10  1  0
 10 11  2  0
 11 12  1  0
 12 13  2  0
 13 14  1  0
 14 15  1  0
 14 16  1  0
 14 17  1  0
  7 18  1  0
 18 19  1  0
 19 20  2  0
 19 21  1  0
 21 22  1  0
 22 23  2  0
 23 24  1  0
 24 25  2  0
 25 26  1  0
 26 27  2  0
 18  2  1  0
 27 22  1  0
 13  8  1  0
  1 28  1  0
  1 29  1  0
  1 30  1  0
  6 31  1  0
  7 32  1  1
  9 33  1  0
 10 34  1  0
 11 35  1  0
 12 36  1  0
 18 37  1  6
 23 38  1  0
 24 39  1  0
 25 40  1  0
 26 41  1  0
 27 42  1  0
M  END
>  <UniqueID>  (46) 
43

>  <SMILES>  (46) 
CC1=NC(=S)N[C@H](c2ccccc2C(F)(F)F)[C@@H]1C(=O)Oc1ccccc1

>  <Energy>  (46) 
58.61080419154618

>  <Genealogy>  (46) 
CC1=NC(=S)N[C@H](c2ccccc2C(F)(F)F)[C@@H]1C(=O)Oc1ccccc1 (chirality)
CC1=NC(=S)N[C@H](c2ccccc2C(F)(F)F)[C@@H]1C(=O)Oc1ccccc1 (3D coordinates assigned)
CC1=NC(=S)N[C@H](c2ccccc2C(F)(F)F)[C@@H]1C(=O)Oc1ccccc1 (nonaromatic ring conformer: 58.61080419154618 kcal/mol)

>  <smiles>  (46) 
CC1=NC(=S)NC(c2ccccc2C(F)(F)F)C1C(=O)Oc1ccccc1

>  <score_type>  (46) 
oracle

>  <origin>  (46) 
adg

>  <m_score__min__energy>  (46) 
-7.0599999999999996

>  <m_primary>  (46) 
energy

$$$$
