0:0
     RDKit          3D

 54 57  0  0  0  0  0  0  0  0999 V2000
   55.9420   26.0550   46.0740 C   0  0  0  0  0  0  0  0  0  0  0  0
   56.5960   27.3170   45.9970 O   0  0  0  0  0  0  0  0  0  0  0  0
   57.9850   27.4890   45.8750 C   0  0  0  0  0  0  0  0  0  0  0  0
   58.8900   26.4430   46.1410 C   0  0  0  0  0  0  0  0  0  0  0  0
   60.2660   26.6500   46.0180 C   0  0  0  0  0  0  0  0  0  0  0  0
   60.7550   27.8980   45.6320 C   0  0  0  0  0  0  0  0  0  0  0  0
   59.8690   28.9440   45.3640 C   0  0  0  0  0  0  0  0  0  0  0  0
   58.4830   28.7480   45.4780 C   0  0  0  0  0  0  0  0  0  0  0  0
   57.5380   29.8950   45.2080 C   0  0  0  0  0  0  0  0  0  0  0  0
   58.2810   31.1600   45.0230 N   0  0  0  0  0  0  0  0  0  0  0  0
   59.0300   31.5360   46.2490 C   0  0  0  0  0  0  0  0  0  0  0  0
   58.2900   32.5990   47.0800 C   0  0  0  0  0  0  0  0  0  0  0  0
   58.0610   33.8550   46.3120 N   0  0  0  0  0  0  0  0  0  0  0  0
   59.1020   34.8630   46.6320 C   0  0  0  0  0  0  0  0  0  0  0  0
   59.9990   34.4100   47.7540 C   0  0  0  0  0  0  0  0  0  0  0  0
   59.6520   34.2960   49.0960 C   0  0  0  0  0  0  0  0  0  0  0  0
   60.6910   33.7910   49.8040 N   0  0  0  0  0  0  0  0  0  0  0  0
   60.6970   33.4880   51.2310 C   0  0  0  0  0  0  0  0  0  0  0  0
   61.6840   33.5690   48.9190 C   0  0  0  0  0  0  0  0  0  0  0  0
   62.9480   33.0260   49.1620 C   0  0  0  0  0  0  0  0  0  0  0  0
   63.8190   32.8680   48.0690 C   0  0  0  0  0  0  0  0  0  0  0  0
   63.4150   33.2490   46.7700 C   0  0  0  0  0  0  0  0  0  0  0  0
   62.1350   33.7880   46.5530 C   0  0  0  0  0  0  0  0  0  0  0  0
   61.2930   33.9360   47.6550 C   0  0  0  0  0  0  0  0  0  0  0  0
   57.9680   33.6260   44.8450 C   0  0  0  0  0  0  0  0  0  0  0  0
   57.3930   32.2410   44.5270 C   0  0  0  0  0  0  0  0  0  0  0  0
   55.7994   25.7797   47.1294 H   0  0  0  0  0  0  0  0  0  0  0  0
   54.9632   26.1183   45.5760 H   0  0  0  0  0  0  0  0  0  0  0  0
   56.5581   25.2918   45.5760 H   0  0  0  0  0  0  0  0  0  0  0  0
   58.5109   25.4569   46.4475 H   0  0  0  0  0  0  0  0  0  0  0  0
   60.9655   25.8269   46.2260 H   0  0  0  0  0  0  0  0  0  0  0  0
   61.8392   28.0585   45.5386 H   0  0  0  0  0  0  0  0  0  0  0  0
   60.2591   29.9271   45.0619 H   0  0  0  0  0  0  0  0  0  0  0  0
   56.9616   29.6795   44.2962 H   0  0  0  0  0  0  0  0  0  0  0  0
   56.8653   30.0061   46.0712 H   0  0  0  0  0  0  0  0  0  0  0  0
   59.1704   30.6374   46.8677 H   0  0  0  0  0  0  0  0  0  0  0  0
   59.9948   31.9627   45.9374 H   0  0  0  0  0  0  0  0  0  0  0  0
   57.3167   32.1913   47.3907 H   0  0  0  0  0  0  0  0  0  0  0  0
   58.9173   32.8446   47.9496 H   0  0  0  0  0  0  0  0  0  0  0  0
   57.1400   34.2420   46.6330 H   0  0  0  0  0  0  0  0  0  0  0  0
   59.7150   35.0376   45.7355 H   0  0  0  0  0  0  0  0  0  0  0  0
   58.5953   35.7851   46.9528 H   0  0  0  0  0  0  0  0  0  0  0  0
   58.6764   34.5751   49.5206 H   0  0  0  0  0  0  0  0  0  0  0  0
   60.6784   34.4261   51.8051 H   0  0  0  0  0  0  0  0  0  0  0  0
   59.8106   32.8869   51.4819 H   0  0  0  0  0  0  0  0  0  0  0  0
   61.6065   32.9225   51.4819 H   0  0  0  0  0  0  0  0  0  0  0  0
   63.2527   32.7311   50.1770 H   0  0  0  0  0  0  0  0  0  0  0  0
   64.8220   32.4447   48.2268 H   0  0  0  0  0  0  0  0  0  0  0  0
   64.1061   33.1232   45.9235 H   0  0  0  0  0  0  0  0  0  0  0  0
   61.8076   34.0839   45.5454 H   0  0  0  0  0  0  0  0  0  0  0  0
   57.3150   34.3937   44.4043 H   0  0  0  0  0  0  0  0  0  0  0  0
   58.9818   33.6838   44.4221 H   0  0  0  0  0  0  0  0  0  0  0  0
   56.4079   32.1435   45.0067 H   0  0  0  0  0  0  0  0  0  0  0  0
   57.3061   32.1443   43.4347 H   0  0  0  0  0  0  0  0  0  0  0  0
  1  2  1  0
  2  3  1  0
  3  4  2  0
  4  5  1  0
  5  6  2  0
  6  7  1  0
  7  8  2  0
  8  9  1  0
  9 10  1  0
 10 11  1  0
 11 12  1  0
 12 13  1  0
 13 14  1  0
 14 15  1  0
 15 16  2  0
 16 17  1  0
 17 18  1  0
 17 19  1  0
 19 20  2  0
 20 21  1  0
 21 22  2  0
 22 23  1  0
 23 24  2  0
 13 25  1  0
 25 26  1  0
  8  3  1  0
 26 10  1  0
 24 15  1  0
 24 19  1  0
  1 27  1  0
  1 28  1  0
  1 29  1  0
  4 30  1  0
  5 31  1  0
  6 32  1  0
  7 33  1  0
  9 34  1  0
  9 35  1  0
 11 36  1  0
 11 37  1  0
 12 38  1  0
 12 39  1  0
 13 40  1  0
 14 41  1  0
 14 42  1  0
 16 43  1  0
 18 44  1  0
 18 45  1  0
 18 46  1  0
 20 47  1  0
 21 48  1  0
 22 49  1  0
 23 50  1  0
 25 51  1  0
 25 52  1  0
 26 53  1  0
 26 54  1  0
M  CHG  1  13   1
M  END
>  <UniqueID>  (1) 
1

>  <SMILES>  (1) 
COc1ccccc1CN1CC[NH+](Cc2cn(C)c3ccccc23)CC1

>  <Energy>  (1) 
102.61450559828067

>  <Genealogy>  (1) 
COc1ccccc1CN1CC[NH+](Cc2cn(C)c3ccccc23)CC1 (protonated)
COc1ccccc1CN1CC[NH+](Cc2cn(C)c3ccccc23)CC1 (3D coordinates assigned)
COc1ccccc1CN1CC[NH+](Cc2cn(C)c3ccccc23)CC1 (nonaromatic ring conformer: 102.61450559828067 kcal/mol)

>  <smiles>  (1) 
COc1ccccc1CN1CCN(Cc2cn(C)c3ccccc23)CC1

>  <score_type>  (1) 
oracle

>  <origin>  (1) 
adg

>  <m_score__min__energy>  (1) 
-6.8300000000000001

>  <m_primary>  (1) 
energy

$$$$
1:0
     RDKit          3D

 56 58  0  0  0  0  0  0  0  0999 V2000
   55.2220   23.7030   44.3530 C   0  0  0  0  0  0  0  0  0  0  0  0
   54.2810   24.4580   45.2850 C   0  0  0  0  0  0  0  0  0  0  0  0
   54.9870   25.4680   45.9830 O   0  0  0  0  0  0  0  0  0  0  0  0
   56.0730   24.9100   46.6940 C   0  0  0  0  0  0  0  0  0  0  0  0
   57.2410   25.8920   46.6820 C   0  0  0  0  0  0  0  0  0  0  0  0
   57.0780   26.8520   45.5840 N   0  0  0  0  0  0  0  0  0  0  0  0
   58.3650   27.0940   44.9210 C   0  0  0  0  0  0  0  0  0  0  0  0
   59.1560   28.1620   45.6800 C   0  0  0  0  0  0  0  0  0  0  0  0
   58.2580   29.0740   46.3910 N   0  0  0  0  0  0  0  0  0  0  0  0
   58.3960   30.4940   46.2360 C   0  0  0  0  0  0  0  0  0  0  0  0
   58.1050   31.0960   45.0030 C   0  0  0  0  0  0  0  0  0  0  0  0
   57.6300   30.3260   43.9190 C   0  0  0  0  0  0  0  0  0  0  0  0
   57.2970   30.9330   42.7100 C   0  0  0  0  0  0  0  0  0  0  0  0
   57.4200   32.3100   42.5650 C   0  0  0  0  0  0  0  0  0  0  0  0
   57.9040   33.0870   43.6170 C   0  0  0  0  0  0  0  0  0  0  0  0
   58.2900   32.4950   44.8480 C   0  0  0  0  0  0  0  0  0  0  0  0
   58.8220   33.2420   45.8820 N   0  0  0  0  0  0  0  0  0  0  0  0
   59.2870   34.6240   45.6320 C   0  0  0  0  0  0  0  0  0  0  0  0
   58.9410   32.6880   47.1460 C   0  0  0  0  0  0  0  0  0  0  0  0
   59.2200   33.4830   48.2860 C   0  0  0  0  0  0  0  0  0  0  0  0
   59.3830   32.9160   49.5590 C   0  0  0  0  0  0  0  0  0  0  0  0
   59.6970   33.8100   50.7330 C   0  0  0  0  0  0  0  0  0  0  0  0
   59.2620   31.5210   49.7180 C   0  0  0  0  0  0  0  0  0  0  0  0
   59.4250   30.8700   51.0680 C   0  0  0  0  0  0  0  0  0  0  0  0
   58.9280   30.7310   48.6120 C   0  0  0  0  0  0  0  0  0  0  0  0
   58.7620   31.2950   47.3310 C   0  0  0  0  0  0  0  0  0  0  0  0
   55.9428   23.1246   44.9496 H   0  0  0  0  0  0  0  0  0  0  0  0
   54.6390   23.0193   43.7185 H   0  0  0  0  0  0  0  0  0  0  0  0
   55.7631   24.4203   43.7185 H   0  0  0  0  0  0  0  0  0  0  0  0
   53.4773   24.9200   44.6929 H   0  0  0  0  0  0  0  0  0  0  0  0
   53.8545   23.7515   46.0123 H   0  0  0  0  0  0  0  0  0  0  0  0
   55.7696   24.7124   47.7327 H   0  0  0  0  0  0  0  0  0  0  0  0
   56.3795   23.9668   46.2182 H   0  0  0  0  0  0  0  0  0  0  0  0
   57.2709   26.4342   47.6386 H   0  0  0  0  0  0  0  0  0  0  0  0
   58.1792   25.3357   46.5391 H   0  0  0  0  0  0  0  0  0  0  0  0
   56.4320   26.4290   44.8780 H   0  0  0  0  0  0  0  0  0  0  0  0
   58.9444   26.1592   44.8993 H   0  0  0  0  0  0  0  0  0  0  0  0
   58.1806   27.4445   43.8948 H   0  0  0  0  0  0  0  0  0  0  0  0
   59.8185   27.6699   46.4073 H   0  0  0  0  0  0  0  0  0  0  0  0
   59.7441   28.7438   44.9550 H   0  0  0  0  0  0  0  0  0  0  0  0
   57.4130   28.7110   46.8900 H   0  0  0  0  0  0  0  0  0  0  0  0
   57.5219   29.2370   44.0301 H   0  0  0  0  0  0  0  0  0  0  0  0
   56.9364   30.3220   41.8694 H   0  0  0  0  0  0  0  0  0  0  0  0
   57.1344   32.7887   41.6167 H   0  0  0  0  0  0  0  0  0  0  0  0
   57.9880   34.1765   43.4908 H   0  0  0  0  0  0  0  0  0  0  0  0
   59.4581   35.1326   46.5922 H   0  0  0  0  0  0  0  0  0  0  0  0
   60.2256   34.5971   45.0589 H   0  0  0  0  0  0  0  0  0  0  0  0
   58.5231   35.1699   45.0589 H   0  0  0  0  0  0  0  0  0  0  0  0
   59.3111   34.5730   48.1695 H   0  0  0  0  0  0  0  0  0  0  0  0
   59.5059   33.2658   51.6697 H   0  0  0  0  0  0  0  0  0  0  0  0
   60.7544   34.1104   50.6927 H   0  0  0  0  0  0  0  0  0  0  0  0
   59.0596   34.7056   50.6927 H   0  0  0  0  0  0  0  0  0  0  0  0
   59.2391   31.6125   51.8580 H   0  0  0  0  0  0  0  0  0  0  0  0
   58.7062   30.0431   51.1655 H   0  0  0  0  0  0  0  0  0  0  0  0
   60.4487   30.4794   51.1655 H   0  0  0  0  0  0  0  0  0  0  0  0
   58.7922   29.6476   48.7452 H   0  0  0  0  0  0  0  0  0  0  0  0
  1  2  1  0
  2  3  1  0
  3  4  1  0
  4  5  1  0
  5  6  1  0
  6  7  1  0
  7  8  1  0
  8  9  1  0
  9 10  1  0
 10 11  2  0
 11 12  1  0
 12 13  2  0
 13 14  1  0
 14 15  2  0
 15 16  1  0
 16 17  2  0
 17 18  1  0
 17 19  1  0
 19 20  2  0
 20 21  1  0
 21 22  1  0
 21 23  2  0
 23 24  1  0
 23 25  1  0
 25 26  2  0
 26 10  1  0
 16 11  1  0
 26 19  1  0
  1 27  1  0
  1 28  1  0
  1 29  1  0
  2 30  1  0
  2 31  1  0
  4 32  1  0
  4 33  1  0
  5 34  1  0
  5 35  1  0
  6 36  1  0
  7 37  1  0
  7 38  1  0
  8 39  1  0
  8 40  1  0
  9 41  1  0
 12 42  1  0
 13 43  1  0
 14 44  1  0
 15 45  1  0
 18 46  1  0
 18 47  1  0
 18 48  1  0
 20 49  1  0
 22 50  1  0
 22 51  1  0
 22 52  1  0
 24 53  1  0
 24 54  1  0
 24 55  1  0
 25 56  1  0
M  CHG  1  17   1
M  END
>  <UniqueID>  (2) 
2

>  <SMILES>  (2) 
CCOCCNCCNc1c2ccccc2[n+](C)c2cc(C)c(C)cc12

>  <Energy>  (2) 
77.15683972467825

>  <Genealogy>  (2) 
CCOCCNCCNc1c2ccccc2[n+](C)c2cc(C)c(C)cc12 (3D coordinates assigned)
CCOCCNCCNc1c2ccccc2[n+](C)c2cc(C)c(C)cc12 (optimized conformer: 77.15683972467825 kcal/mol)

>  <smiles>  (2) 
CCOCCNCCNc1c2ccccc2[n+](C)c2cc(C)c(C)cc12

>  <score_type>  (2) 
oracle

>  <origin>  (2) 
adg

>  <m_score__min__energy>  (2) 
-5.71

>  <m_primary>  (2) 
energy

$$$$
2:0
     RDKit          3D

 51 53  0  0  0  0  0  0  0  0999 V2000
   57.6080   31.7040   42.3990 C   0  0  0  0  0  0  0  0  0  0  0  0
   56.6390   30.5210   42.4620 C   0  0  0  0  0  0  0  0  0  0  0  0
   56.8540   29.6440   43.7070 C   0  0  0  0  0  0  0  0  0  0  0  0
   57.4880   28.3540   43.3690 N   0  0  0  0  0  0  0  0  0  0  0  0
   58.3070   27.8300   44.4830 C   0  0  0  0  0  0  0  0  0  0  0  0
   59.1400   28.9250   45.1760 C   0  0  0  0  0  0  0  0  0  0  0  0
   58.4010   29.5320   46.2840 N   0  0  0  0  0  0  0  0  0  0  0  0
   58.9620   30.5980   47.0730 C   0  0  0  0  0  0  0  0  0  0  0  0
   58.7880   31.9400   46.6860 C   0  0  0  0  0  0  0  0  0  0  0  0
   57.9890   32.2740   45.5700 C   0  0  0  0  0  0  0  0  0  0  0  0
   57.8730   33.5960   45.1480 C   0  0  0  0  0  0  0  0  0  0  0  0
   58.5490   34.6030   45.8230 C   0  0  0  0  0  0  0  0  0  0  0  0
   59.3100   34.3030   46.9510 C   0  0  0  0  0  0  0  0  0  0  0  0
   59.4070   32.9730   47.4390 C   0  0  0  0  0  0  0  0  0  0  0  0
   60.0880   32.6740   48.6040 N   0  0  0  0  0  0  0  0  0  0  0  0
   60.4880   33.7640   49.5260 C   0  0  0  0  0  0  0  0  0  0  0  0
   60.3500   31.3560   48.9360 C   0  0  0  0  0  0  0  0  0  0  0  0
   61.2410   31.0140   49.9870 C   0  0  0  0  0  0  0  0  0  0  0  0
   61.4470   29.6860   50.3690 C   0  0  0  0  0  0  0  0  0  0  0  0
   62.3360   29.4280   51.4200 O   0  0  0  0  0  0  0  0  0  0  0  0
   62.4570   28.1710   52.0800 C   0  0  0  0  0  0  0  0  0  0  0  0
   60.7660   28.6660   49.6950 C   0  0  0  0  0  0  0  0  0  0  0  0
   59.9290   28.9690   48.6250 C   0  0  0  0  0  0  0  0  0  0  0  0
   59.7370   30.3020   48.2100 C   0  0  0  0  0  0  0  0  0  0  0  0
   57.8672   32.0204   43.4201 H   0  0  0  0  0  0  0  0  0  0  0  0
   58.5214   31.4018   41.8658 H   0  0  0  0  0  0  0  0  0  0  0  0
   57.1318   32.5400   41.8658 H   0  0  0  0  0  0  0  0  0  0  0  0
   55.6100   30.9094   42.4784 H   0  0  0  0  0  0  0  0  0  0  0  0
   56.8226   29.8934   41.5775 H   0  0  0  0  0  0  0  0  0  0  0  0
   57.5007   30.1835   44.4146 H   0  0  0  0  0  0  0  0  0  0  0  0
   55.8694   29.4341   44.1503 H   0  0  0  0  0  0  0  0  0  0  0  0
   58.1240   28.4940   42.5470 H   0  0  0  0  0  0  0  0  0  0  0  0
   56.7550   27.6590   43.0930 H   0  0  0  0  0  0  0  0  0  0  0  0
   57.6378   27.3734   45.2271 H   0  0  0  0  0  0  0  0  0  0  0  0
   59.0092   27.0956   44.0617 H   0  0  0  0  0  0  0  0  0  0  0  0
   60.0668   28.4782   45.5652 H   0  0  0  0  0  0  0  0  0  0  0  0
   59.3667   29.7088   44.4383 H   0  0  0  0  0  0  0  0  0  0  0  0
   57.5170   29.0850   46.6000 H   0  0  0  0  0  0  0  0  0  0  0  0
   57.4525   31.4811   45.0283 H   0  0  0  0  0  0  0  0  0  0  0  0
   57.2452   33.8424   44.2790 H   0  0  0  0  0  0  0  0  0  0  0  0
   58.4837   35.6415   45.4662 H   0  0  0  0  0  0  0  0  0  0  0  0
   59.8449   35.1104   47.4725 H   0  0  0  0  0  0  0  0  0  0  0  0
   60.3647   33.4281   50.5662 H   0  0  0  0  0  0  0  0  0  0  0  0
   61.5412   34.0269   49.3479 H   0  0  0  0  0  0  0  0  0  0  0  0
   59.8549   34.6457   49.3479 H   0  0  0  0  0  0  0  0  0  0  0  0
   61.7823   31.8140   50.5133 H   0  0  0  0  0  0  0  0  0  0  0  0
   62.4421   28.3257   53.1690 H   0  0  0  0  0  0  0  0  0  0  0  0
   61.6171   27.5224   51.7903 H   0  0  0  0  0  0  0  0  0  0  0  0
   63.4052   27.6945   51.7903 H   0  0  0  0  0  0  0  0  0  0  0  0
   60.8927   27.6204   50.0122 H   0  0  0  0  0  0  0  0  0  0  0  0
   59.4099   28.1563   48.0957 H   0  0  0  0  0  0  0  0  0  0  0  0
  1  2  1  0
  2  3  1  0
  3  4  1  0
  4  5  1  0
  5  6  1  0
  6  7  1  0
  7  8  1  0
  8  9  2  0
  9 10  1  0
 10 11  2  0
 11 12  1  0
 12 13  2  0
 13 14  1  0
 14 15  2  0
 15 16  1  0
 15 17  1  0
 17 18  2  0
 18 19  1  0
 19 20  1  0
 20 21  1  0
 19 22  2  0
 22 23  1  0
 23 24  2  0
 24  8  1  0
 14  9  1  0
 24 17  1  0
  1 25  1  0
  1 26  1  0
  1 27  1  0
  2 28  1  0
  2 29  1  0
  3 30  1  0
  3 31  1  0
  4 32  1  0
  4 33  1  0
  5 34  1  0
  5 35  1  0
  6 36  1  0
  6 37  1  0
  7 38  1  0
 10 39  1  0
 11 40  1  0
 12 41  1  0
 13 42  1  0
 16 43  1  0
 16 44  1  0
 16 45  1  0
 18 46  1  0
 21 47  1  0
 21 48  1  0
 21 49  1  0
 22 50  1  0
 23 51  1  0
M  CHG  2   4   1  15   1
M  END
>  <UniqueID>  (3) 
3

>  <SMILES>  (3) 
CCC[NH2+]CCNc1c2ccccc2[n+](C)c2cc(OC)ccc12

>  <Energy>  (3) 
74.09924675258961

>  <Genealogy>  (3) 
CCC[NH2+]CCNc1c2ccccc2[n+](C)c2cc(OC)ccc12 (protonated)
CCC[NH2+]CCNc1c2ccccc2[n+](C)c2cc(OC)ccc12 (3D coordinates assigned)
CCC[NH2+]CCNc1c2ccccc2[n+](C)c2cc(OC)ccc12 (optimized conformer: 74.09924675258961 kcal/mol)

>  <smiles>  (3) 
CCCNCCNc1c2ccccc2[n+](C)c2cc(OC)ccc12

>  <score_type>  (3) 
oracle

>  <origin>  (3) 
adg

>  <m_score__min__energy>  (3) 
-4.1799999999999997

>  <m_primary>  (3) 
energy

$$$$
3:0
     RDKit          3D

 37 37  0  0  0  0  0  0  0  0999 V2000
   56.3200   29.7480   42.7030 C   0  0  0  0  0  0  0  0  0  0  0  0
   55.9050   30.1200   44.1260 C   0  0  0  0  0  0  0  0  0  0  0  0
   57.0050   30.7690   44.8720 N   0  0  0  0  0  0  0  0  0  0  0  0
   58.3130   30.2960   44.3860 C   0  0  0  0  0  0  0  0  0  0  0  0
   56.9340   32.2510   44.9280 C   0  0  0  0  0  0  0  0  0  0  0  0
   58.1290   32.9780   44.2910 C   0  0  0  0  0  0  0  0  0  0  0  0
   58.2200   34.2740   44.8480 O   0  0  0  0  0  0  0  0  0  0  0  0
   59.5680   34.6000   45.1340 C   0  0  0  0  0  0  0  0  0  0  0  0
   59.6490   35.4360   46.4070 C   0  0  0  0  0  0  0  0  0  0  0  0
   60.0950   34.6170   47.4840 O   0  0  0  0  0  0  0  0  0  0  0  0
   60.0420   33.2140   47.4930 C   0  0  0  0  0  0  0  0  0  0  0  0
   58.8330   32.5110   47.6690 C   0  0  0  0  0  0  0  0  0  0  0  0
   58.8240   31.1140   47.6700 C   0  0  0  0  0  0  0  0  0  0  0  0
   60.0160   30.4030   47.4990 C   0  0  0  0  0  0  0  0  0  0  0  0
   59.9980   28.4930   47.5020 Br  0  0  0  0  0  0  0  0  0  0  0  0
   61.2190   31.0930   47.3250 C   0  0  0  0  0  0  0  0  0  0  0  0
   61.2340   32.4910   47.3210 C   0  0  0  0  0  0  0  0  0  0  0  0
   62.8990   33.4040   47.0800 Br  0  0  0  0  0  0  0  0  0  0  0  0
   57.1386   29.0142   42.7398 H   0  0  0  0  0  0  0  0  0  0  0  0
   55.4605   29.3122   42.1725 H   0  0  0  0  0  0  0  0  0  0  0  0
   56.6595   30.6498   42.1725 H   0  0  0  0  0  0  0  0  0  0  0  0
   55.0517   30.8125   44.0776 H   0  0  0  0  0  0  0  0  0  0  0  0
   55.6360   29.1937   44.6547 H   0  0  0  0  0  0  0  0  0  0  0  0
   58.9602   30.0620   45.2441 H   0  0  0  0  0  0  0  0  0  0  0  0
   58.1722   29.3918   43.7755 H   0  0  0  0  0  0  0  0  0  0  0  0
   58.7831   31.0811   43.7755 H   0  0  0  0  0  0  0  0  0  0  0  0
   56.0207   32.5699   44.4043 H   0  0  0  0  0  0  0  0  0  0  0  0
   56.9397   32.5212   45.9943 H   0  0  0  0  0  0  0  0  0  0  0  0
   59.0545   32.4205   44.4976 H   0  0  0  0  0  0  0  0  0  0  0  0
   57.9889   33.0469   43.2021 H   0  0  0  0  0  0  0  0  0  0  0  0
   60.1448   33.6734   45.2705 H   0  0  0  0  0  0  0  0  0  0  0  0
   59.9824   35.1804   44.2965 H   0  0  0  0  0  0  0  0  0  0  0  0
   60.3577   36.2639   46.2578 H   0  0  0  0  0  0  0  0  0  0  0  0
   58.6547   35.8433   46.6427 H   0  0  0  0  0  0  0  0  0  0  0  0
   57.8925   33.0648   47.8062 H   0  0  0  0  0  0  0  0  0  0  0  0
   57.8766   30.5718   47.8057 H   0  0  0  0  0  0  0  0  0  0  0  0
   62.1570   30.5343   47.1908 H   0  0  0  0  0  0  0  0  0  0  0  0
  1  2  1  0
  2  3  1  0
  3  4  1  0
  3  5  1  0
  5  6  1  0
  6  7  1  0
  7  8  1  0
  8  9  1  0
  9 10  1  0
 10 11  1  0
 11 12  2  0
 12 13  1  0
 13 14  2  0
 14 15  1  0
 14 16  1  0
 16 17  2  0
 17 18  1  0
 17 11  1  0
  1 19  1  0
  1 20  1  0
  1 21  1  0
  2 22  1  0
  2 23  1  0
  4 24  1  0
  4 25  1  0
  4 26  1  0
  5 27  1  0
  5 28  1  0
  6 29  1  0
  6 30  1  0
  8 31  1  0
  8 32  1  0
  9 33  1  0
  9 34  1  0
 12 35  1  0
 13 36  1  0
 16 37  1  0
M  END
>  <UniqueID>  (4) 
4

>  <SMILES>  (4) 
CCN(C)CCOCCOc1ccc(Br)cc1Br

>  <Energy>  (4) 
35.26084046690942

>  <Genealogy>  (4) 
CCN(C)CCOCCOc1ccc(Br)cc1Br (3D coordinates assigned)
CCN(C)CCOCCOc1ccc(Br)cc1Br (optimized conformer: 35.26084046690942 kcal/mol)

>  <smiles>  (4) 
CCN(C)CCOCCOc1ccc(Br)cc1Br

>  <score_type>  (4) 
oracle

>  <origin>  (4) 
adg

>  <m_score__min__energy>  (4) 
-6.1399999999999997

>  <m_primary>  (4) 
energy

$$$$
4:0
     RDKit          3D

 92 96  0  0  0  0  0  0  0  0999 V2000
   63.3990   34.1710   46.2090 C   0  0  0  0  0  0  0  0  0  0  0  0
   62.6110   32.9780   46.7780 C   0  0  0  0  0  0  0  0  0  0  0  0
   63.3810   32.1040   47.7040 N   0  0  1  0  0  0  0  0  0  0  0  0
   64.1450   32.8820   48.7000 C   0  0  0  0  0  0  0  0  0  0  0  0
   62.5330   31.0730   48.3630 C   0  0  0  0  0  0  0  0  0  0  0  0
   61.4910   30.4550   47.4000 C   0  0  0  0  0  0  0  0  0  0  0  0
   60.5410   29.4670   48.0930 C   0  0  0  0  0  0  0  0  0  0  0  0
   59.1470   29.8790   47.9370 N   0  0  0  0  0  0  0  0  0  0  0  0
   58.7730   30.9950   47.1130 C   0  0  0  0  0  0  0  0  0  0  0  0
   58.2490   30.7800   45.8280 C   0  0  0  0  0  0  0  0  0  0  0  0
   58.1360   29.4730   45.3060 C   0  0  0  0  0  0  0  0  0  0  0  0
   57.6440   29.2600   44.0220 C   0  0  0  0  0  0  0  0  0  0  0  0
   57.2740   30.3400   43.2290 C   0  0  0  0  0  0  0  0  0  0  0  0
   57.3800   31.6400   43.7220 C   0  0  0  0  0  0  0  0  0  0  0  0
   57.8380   31.8890   45.0430 C   0  0  0  0  0  0  0  0  0  0  0  0
   57.9110   33.1700   45.5630 N   0  0  0  0  0  0  0  0  0  0  0  0
   57.2500   34.2960   44.8660 C   0  0  0  0  0  0  0  0  0  0  0  0
   58.6000   33.4000   46.7400 C   0  0  0  0  0  0  0  0  0  0  0  0
   58.9410   34.7100   47.1590 C   0  0  0  0  0  0  0  0  0  0  0  0
   59.6260   34.9320   48.3530 C   0  0  0  0  0  0  0  0  0  0  0  0
   60.0000   33.8570   49.1680 C   0  0  0  0  0  0  0  0  0  0  0  0
   60.7020   34.0230   50.3740 O   0  0  0  0  0  0  0  0  0  0  0  0
   61.6410   33.1040   50.9310 C   0  0  0  0  0  0  0  0  0  0  0  0
   61.0010   31.7040   51.0930 C   0  0  0  0  0  0  0  0  0  0  0  0
   60.1540   31.5190   52.3210 N   0  0  1  0  0  0  0  0  0  0  0  0
   60.9160   31.9590   53.5240 C   0  0  0  0  0  0  0  0  0  0  0  0
   58.8770   32.3050   52.2070 C   0  0  0  0  0  0  0  0  0  0  0  0
   57.5980   31.4410   52.1460 C   0  0  0  0  0  0  0  0  0  0  0  0
   57.4870   30.4540   53.2630 N   0  0  1  0  0  0  0  0  0  0  0  0
   57.1330   31.1910   54.5070 C   0  0  0  0  0  0  0  0  0  0  0  0
   56.3720   29.5130   52.9000 C   0  0  0  0  0  0  0  0  0  0  0  0
   54.9810   30.1320   52.8480 C   0  0  0  0  0  0  0  0  0  0  0  0
   54.5090   30.7210   51.6600 C   0  0  0  0  0  0  0  0  0  0  0  0
   53.2250   31.2730   51.6030 C   0  0  0  0  0  0  0  0  0  0  0  0
   52.3880   31.2210   52.7240 C   0  0  0  0  0  0  0  0  0  0  0  0
   50.6340   31.9740   52.6450 Br  0  0  0  0  0  0  0  0  0  0  0  0
   52.8320   30.6020   53.8960 C   0  0  0  0  0  0  0  0  0  0  0  0
   54.1160   30.0490   53.9550 C   0  0  0  0  0  0  0  0  0  0  0  0
   58.7790   29.7110   53.4660 C   0  0  0  0  0  0  0  0  0  0  0  0
   59.8820   30.0550   52.4380 C   0  0  0  0  0  0  0  0  0  0  0  0
   59.6900   32.5580   48.7620 C   0  0  0  0  0  0  0  0  0  0  0  0
   59.0120   32.3120   47.5500 C   0  0  0  0  0  0  0  0  0  0  0  0
   63.7981   34.7752   47.0370 H   0  0  0  0  0  0  0  0  0  0  0  0
   64.2305   33.8003   45.5916 H   0  0  0  0  0  0  0  0  0  0  0  0
   62.7317   34.7903   45.5916 H   0  0  0  0  0  0  0  0  0  0  0  0
   61.7411   33.3720   47.3239 H   0  0  0  0  0  0  0  0  0  0  0  0
   62.3366   32.3503   45.9173 H   0  0  0  0  0  0  0  0  0  0  0  0
   64.1010   31.6210   47.1170 H   0  0  0  0  0  0  0  0  0  0  0  0
   63.8446   32.5761   49.7130 H   0  0  0  0  0  0  0  0  0  0  0  0
   65.2205   32.6954   48.5644 H   0  0  0  0  0  0  0  0  0  0  0  0
   63.9389   33.9540   48.5644 H   0  0  0  0  0  0  0  0  0  0  0  0
   63.1836   30.2703   48.7402 H   0  0  0  0  0  0  0  0  0  0  0  0
   61.9824   31.5657   49.1779 H   0  0  0  0  0  0  0  0  0  0  0  0
   60.8926   31.2681   46.9632 H   0  0  0  0  0  0  0  0  0  0  0  0
   62.0455   29.8938   46.6335 H   0  0  0  0  0  0  0  0  0  0  0  0
   60.6727   28.4698   47.6478 H   0  0  0  0  0  0  0  0  0  0  0  0
   60.7810   29.4463   49.1663 H   0  0  0  0  0  0  0  0  0  0  0  0
   58.3920   29.3230   48.4100 H   0  0  0  0  0  0  0  0  0  0  0  0
   58.4403   28.6135   45.9213 H   0  0  0  0  0  0  0  0  0  0  0  0
   57.5477   28.2353   43.6338 H   0  0  0  0  0  0  0  0  0  0  0  0
   56.8966   30.1687   42.2100 H   0  0  0  0  0  0  0  0  0  0  0  0
   57.1042   32.4871   43.0767 H   0  0  0  0  0  0  0  0  0  0  0  0
   56.8390   34.9961   45.6082 H   0  0  0  0  0  0  0  0  0  0  0  0
   57.9844   34.8190   44.2359 H   0  0  0  0  0  0  0  0  0  0  0  0
   56.4353   33.9097   44.2359 H   0  0  0  0  0  0  0  0  0  0  0  0
   58.6600   35.5679   46.5305 H   0  0  0  0  0  0  0  0  0  0  0  0
   59.8744   35.9596   48.6569 H   0  0  0  0  0  0  0  0  0  0  0  0
   62.5124   33.0284   50.2639 H   0  0  0  0  0  0  0  0  0  0  0  0
   61.9510   33.4694   51.9211 H   0  0  0  0  0  0  0  0  0  0  0  0
   60.3680   31.5166   50.2131 H   0  0  0  0  0  0  0  0  0  0  0  0
   61.8387   30.9983   51.1942 H   0  0  0  0  0  0  0  0  0  0  0  0
   60.3786   31.6487   54.4322 H   0  0  0  0  0  0  0  0  0  0  0  0
   61.9150   31.4987   53.5138 H   0  0  0  0  0  0  0  0  0  0  0  0
   61.0168   33.0543   53.5138 H   0  0  0  0  0  0  0  0  0  0  0  0
   58.8024   32.9684   53.0812 H   0  0  0  0  0  0  0  0  0  0  0  0
   58.9304   32.8535   51.2550 H   0  0  0  0  0  0  0  0  0  0  0  0
   56.7251   32.1092   52.1848 H   0  0  0  0  0  0  0  0  0  0  0  0
   57.6433   30.8645   51.2103 H   0  0  0  0  0  0  0  0  0  0  0  0
   57.4210   30.5913   55.3830 H   0  0  0  0  0  0  0  0  0  0  0  0
   57.6678   32.1520   54.5286 H   0  0  0  0  0  0  0  0  0  0  0  0
   56.0486   31.3743   54.5286 H   0  0  0  0  0  0  0  0  0  0  0  0
   56.5930   29.0927   51.9078 H   0  0  0  0  0  0  0  0  0  0  0  0
   56.3380   28.7618   53.7028 H   0  0  0  0  0  0  0  0  0  0  0  0
   55.1546   30.7474   50.7698 H   0  0  0  0  0  0  0  0  0  0  0  0
   52.8724   31.7487   50.6760 H   0  0  0  0  0  0  0  0  0  0  0  0
   52.1708   30.5495   54.7735 H   0  0  0  0  0  0  0  0  0  0  0  0
   54.4518   29.5456   54.8736 H   0  0  0  0  0  0  0  0  0  0  0  0
   59.1586   29.9491   54.4706 H   0  0  0  0  0  0  0  0  0  0  0  0
   58.5507   28.6428   53.3359 H   0  0  0  0  0  0  0  0  0  0  0  0
   60.8113   29.5518   52.7434 H   0  0  0  0  0  0  0  0  0  0  0  0
   59.5252   29.7134   51.4552 H   0  0  0  0  0  0  0  0  0  0  0  0
   59.9801   31.7099   49.3996 H   0  0  0  0  0  0  0  0  0  0  0  0
  1  2  1  0
  2  3  1  0
  3  4  1  0
  3  5  1  0
  5  6  1  0
  6  7  1  0
  7  8  1  0
  8  9  1  0
  9 10  2  0
 10 11  1  0
 11 12  2  0
 12 13  1  0
 13 14  2  0
 14 15  1  0
 15 16  2  0
 16 17  1  0
 16 18  1  0
 18 19  2  0
 19 20  1  0
 20 21  2  0
 21 22  1  0
 22 23  1  0
 23 24  1  0
 25 24  1  6
 25 26  1  0
 25 27  1  0
 27 28  1  0
 28 29  1  0
 29 30  1  1
 29 31  1  0
 31 32  1  0
 32 33  2  0
 33 34  1  0
 34 35  2  0
 35 36  1  0
 35 37  1  0
 37 38  2  0
 29 39  1  0
 39 40  1  0
 21 41  1  0
 41 42  2  0
 42  9  1  0
 15 10  1  0
 42 18  1  0
 40 25  1  0
 38 32  1  0
  1 43  1  0
  1 44  1  0
  1 45  1  0
  2 46  1  0
  2 47  1  0
  3 48  1  6
  4 49  1  0
  4 50  1  0
  4 51  1  0
  5 52  1  0
  5 53  1  0
  6 54  1  0
  6 55  1  0
  7 56  1  0
  7 57  1  0
  8 58  1  0
 11 59  1  0
 12 60  1  0
 13 61  1  0
 14 62  1  0
 17 63  1  0
 17 64  1  0
 17 65  1  0
 19 66  1  0
 20 67  1  0
 23 68  1  0
 23 69  1  0
 24 70  1  0
 24 71  1  0
 26 72  1  0
 26 73  1  0
 26 74  1  0
 27 75  1  0
 27 76  1  0
 28 77  1  0
 28 78  1  0
 30 79  1  0
 30 80  1  0
 30 81  1  0
 31 82  1  0
 31 83  1  0
 33 84  1  0
 34 85  1  0
 37 86  1  0
 38 87  1  0
 39 88  1  0
 39 89  1  0
 40 90  1  0
 40 91  1  0
 41 92  1  0
M  CHG  4   3   1  16   1  25   1  29   1
M  END
>  <UniqueID>  (5) 
5

>  <SMILES>  (5) 
CC[N@@H+](C)CCCNc1c2ccccc2[n+](C)c2ccc(OCC[N+]3(C)CC[N+](C)(Cc4ccc(Br)cc4)CC3)cc12

>  <Energy>  (5) 
159.73275524901354

>  <Genealogy>  (5) 
CC[NH+](C)CCCNc1c2ccccc2[n+](C)c2ccc(OCC[N+]3(C)CC[N+](C)(Cc4ccc(Br)cc4)CC3)cc12 (protonated)
CC[N@@H+](C)CCCNc1c2ccccc2[n+](C)c2ccc(OCC[N+]3(C)CC[N+](C)(Cc4ccc(Br)cc4)CC3)cc12 (chirality)
CC[N@@H+](C)CCCNc1c2ccccc2[n+](C)c2ccc(OCC[N+]3(C)CC[N+](C)(Cc4ccc(Br)cc4)CC3)cc12 (3D coordinates assigned)
CC[N@@H+](C)CCCNc1c2ccccc2[n+](C)c2ccc(OCC[N+]3(C)CC[N+](C)(Cc4ccc(Br)cc4)CC3)cc12 (nonaromatic ring conformer: 159.73275524901354 kcal/mol)

>  <smiles>  (5) 
CCN(C)CCCNc1c2ccccc2[n+](C)c2ccc(OCC[N+]3(C)CC[N+](C)(Cc4ccc(Br)cc4)CC3)cc12

>  <score_type>  (5) 
oracle

>  <origin>  (5) 
adg

>  <m_score__min__energy>  (5) 
-4.1699999999999999

>  <m_primary>  (5) 
energy

$$$$
5:0
     RDKit          3D

 81 84  0  0  0  0  0  0  0  0999 V2000
   56.4826   23.6364   44.9577 H   0  0  0  0  0  0  0  0  0  0  0  0
   56.9500   24.4670   45.5070 C   0  0  0  0  0  0  0  0  0  0  0  0
   57.0640   25.7200   44.9060 C   0  0  0  0  0  0  0  0  0  0  0  0
   56.6892   25.8677   43.8824 H   0  0  0  0  0  0  0  0  0  0  0  0
   57.6510   26.7950   45.5910 C   0  0  0  0  0  0  0  0  0  0  0  0
   57.8890   28.0260   44.8840 N   0  0  0  0  0  0  0  0  0  0  0  0
   57.0040   29.1760   45.1350 C   0  0  0  0  0  0  0  0  0  0  0  0
   56.2121   28.8667   45.8330 H   0  0  0  0  0  0  0  0  0  0  0  0
   57.6178   29.9863   45.5554 H   0  0  0  0  0  0  0  0  0  0  0  0
   56.3520   29.7010   43.8530 C   0  0  0  0  0  0  0  0  0  0  0  0
   56.2932   28.8819   43.1211 H   0  0  0  0  0  0  0  0  0  0  0  0
   55.3488   30.0750   44.1055 H   0  0  0  0  0  0  0  0  0  0  0  0
   57.3690   31.1640   43.0810 Br  0  0  0  0  0  0  0  0  0  0  0  0
   59.1480   28.2040   44.1380 C   0  0  0  0  0  0  0  0  0  0  0  0
   58.9802   28.9325   43.3310 H   0  0  0  0  0  0  0  0  0  0  0  0
   59.4432   27.2218   43.7405 H   0  0  0  0  0  0  0  0  0  0  0  0
   60.2930   28.7110   45.0300 C   0  0  0  0  0  0  0  0  0  0  0  0
   61.2035   28.7961   44.4187 H   0  0  0  0  0  0  0  0  0  0  0  0
   60.4184   27.9890   45.8503 H   0  0  0  0  0  0  0  0  0  0  0  0
   59.9970   30.0710   45.6560 C   0  0  0  0  0  0  0  0  0  0  0  0
   60.0164   29.9821   46.7522 H   0  0  0  0  0  0  0  0  0  0  0  0
   60.7583   30.7966   45.3335 H   0  0  0  0  0  0  0  0  0  0  0  0
   59.0031   30.4146   45.3335 H   0  0  0  0  0  0  0  0  0  0  0  0
   58.1060   26.5990   46.9180 C   0  0  0  0  0  0  0  0  0  0  0  0
   58.6680   27.6200   47.6960 O   0  0  0  0  0  0  0  0  0  0  0  0
   60.0520   27.6900   48.0380 C   0  0  0  0  0  0  0  0  0  0  0  0
   60.3390   26.7801   48.5855 H   0  0  0  0  0  0  0  0  0  0  0  0
   60.6489   27.7737   47.1178 H   0  0  0  0  0  0  0  0  0  0  0  0
   60.3090   28.9150   48.9190 C   0  0  0  0  0  0  0  0  0  0  0  0
   61.1789   29.4562   48.5185 H   0  0  0  0  0  0  0  0  0  0  0  0
   59.3945   29.5260   48.9003 H   0  0  0  0  0  0  0  0  0  0  0  0
   60.5900   28.5610   50.3940 C   0  0  0  0  0  0  0  0  0  0  0  0
   60.3366   27.5017   50.5482 H   0  0  0  0  0  0  0  0  0  0  0  0
   61.6538   28.7769   50.5722 H   0  0  0  0  0  0  0  0  0  0  0  0
   59.7930   29.4010   51.4120 C   0  0  0  0  0  0  0  0  0  0  0  0
   59.3988   28.7305   52.1898 H   0  0  0  0  0  0  0  0  0  0  0  0
   60.4780   30.1523   51.8319 H   0  0  0  0  0  0  0  0  0  0  0  0
   58.6180   30.1520   50.7690 C   0  0  0  0  0  0  0  0  0  0  0  0
   58.8387   30.3202   49.7046 H   0  0  0  0  0  0  0  0  0  0  0  0
   57.7094   29.5428   50.8844 H   0  0  0  0  0  0  0  0  0  0  0  0
   58.3860   31.5070   51.4530 C   0  0  0  0  0  0  0  0  0  0  0  0
   57.3624   31.5318   51.8551 H   0  0  0  0  0  0  0  0  0  0  0  0
   59.1300   31.6156   52.2559 H   0  0  0  0  0  0  0  0  0  0  0  0
   58.5640   32.6750   50.4800 C   0  0  0  0  0  0  0  0  0  0  0  0
   57.5932   33.1649   50.3140 H   0  0  0  0  0  0  0  0  0  0  0  0
   59.2735   33.4005   50.9045 H   0  0  0  0  0  0  0  0  0  0  0  0
   59.0800   32.1770   49.2110 N   0  0  0  0  0  0  0  0  0  0  0  0
   59.8590   32.6890   48.2920 C   0  0  0  0  0  0  0  0  0  0  0  0
   59.2100   33.3910   47.2460 C   0  0  0  0  0  0  0  0  0  0  0  0
   59.9590   34.1410   46.3350 C   0  0  0  0  0  0  0  0  0  0  0  0
   61.3070   34.1750   46.4230 N   0  0  0  0  0  0  0  0  0  0  0  0
   61.9900   33.4640   47.3520 C   0  0  0  0  0  0  0  0  0  0  0  0
   63.3880   33.5320   47.3450 C   0  0  0  0  0  0  0  0  0  0  0  0
   63.9003   34.1809   46.6194 H   0  0  0  0  0  0  0  0  0  0  0  0
   64.1330   32.7840   48.2500 C   0  0  0  0  0  0  0  0  0  0  0  0
   65.2303   32.8602   48.2574 H   0  0  0  0  0  0  0  0  0  0  0  0
   63.4860   31.9390   49.1460 C   0  0  0  0  0  0  0  0  0  0  0  0
   64.0770   31.3278   49.8439 H   0  0  0  0  0  0  0  0  0  0  0  0
   62.0920   31.8610   49.1660 C   0  0  0  0  0  0  0  0  0  0  0  0
   61.6002   31.1665   49.8630 H   0  0  0  0  0  0  0  0  0  0  0  0
   61.2990   32.6600   48.3050 C   0  0  0  0  0  0  0  0  0  0  0  0
   59.2520   34.9650   45.3010 C   0  0  0  0  0  0  0  0  0  0  0  0
   58.8267   35.8598   45.7790 H   0  0  0  0  0  0  0  0  0  0  0  0
   59.9730   35.2589   44.5240 H   0  0  0  0  0  0  0  0  0  0  0  0
   58.1230   34.1530   44.6520 C   0  0  0  0  0  0  0  0  0  0  0  0
   57.4802   34.8447   44.0877 H   0  0  0  0  0  0  0  0  0  0  0  0
   58.6025   33.3996   44.0098 H   0  0  0  0  0  0  0  0  0  0  0  0
   57.2380   33.3810   45.6630 C   0  0  0  0  0  0  0  0  0  0  0  0
   56.2165   33.7844   45.6004 H   0  0  0  0  0  0  0  0  0  0  0  0
   57.3051   32.3192   45.3834 H   0  0  0  0  0  0  0  0  0  0  0  0
   57.6990   33.4710   47.1310 C   0  0  0  0  0  0  0  0  0  0  0  0
   57.3586   34.4275   47.5544 H   0  0  0  0  0  0  0  0  0  0  0  0
   57.2659   32.6226   47.6811 H   0  0  0  0  0  0  0  0  0  0  0  0
   58.0070   25.3300   47.5010 C   0  0  0  0  0  0  0  0  0  0  0  0
   58.3905   25.1721   48.5198 H   0  0  0  0  0  0  0  0  0  0  0  0
   57.4300   24.2610   46.8120 C   0  0  0  0  0  0  0  0  0  0  0  0
   57.3510   23.0160   47.4540 O   0  0  0  0  0  0  0  0  0  0  0  0
   56.2120   22.5510   48.1720 C   0  0  0  0  0  0  0  0  0  0  0  0
   56.4028   22.6289   49.2525 H   0  0  0  0  0  0  0  0  0  0  0  0
   55.3374   23.1640   47.9090 H   0  0  0  0  0  0  0  0  0  0  0  0
   56.0163   21.5010   47.9090 H   0  0  0  0  0  0  0  0  0  0  0  0
  1  2  1  0
  2  3  2  0
  3  4  1  0
  3  5  1  0
  5  6  1  0
  6  7  1  0
  7  8  1  0
  7  9  1  0
  7 10  1  0
 10 11  1  0
 10 12  1  0
 10 13  1  0
  6 14  1  0
 14 15  1  0
 14 16  1  0
 14 17  1  0
 17 18  1  0
 17 19  1  0
 17 20  1  0
 20 21  1  0
 20 22  1  0
 20 23  1  0
  5 24  2  0
 24 25  1  0
 25 26  1  0
 26 27  1  0
 26 28  1  0
 26 29  1  0
 29 30  1  0
 29 31  1  0
 29 32  1  0
 32 33  1  0
 32 34  1  0
 32 35  1  0
 35 36  1  0
 35 37  1  0
 35 38  1  0
 38 39  1  0
 38 40  1  0
 38 41  1  0
 41 42  1  0
 41 43  1  0
 41 44  1  0
 44 45  1  0
 44 46  1  0
 44 47  1  0
 47 48  2  0
 48 49  1  0
 49 50  2  0
 50 51  1  0
 51 52  1  0
 52 53  2  0
 53 54  1  0
 53 55  1  0
 55 56  1  0
 55 57  2  0
 57 58  1  0
 57 59  1  0
 59 60  1  0
 59 61  2  0
 50 62  1  0
 62 63  1  0
 62 64  1  0
 62 65  1  0
 65 66  1  0
 65 67  1  0
 65 68  1  0
 68 69  1  0
 68 70  1  0
 68 71  1  0
 71 72  1  0
 71 73  1  0
 24 74  1  0
 74 75  1  0
 74 76  2  0
 76 77  1  0
 77 78  1  0
 78 79  1  0
 78 80  1  0
 78 81  1  0
 76  2  1  0
 61 48  1  0
 71 49  1  0
 61 52  1  0
M  CHG  1  51  -1
M  END
>  <UniqueID>  (6) 
6

>  <SMILES>  (6) 
CCCN(CCBr)c1ccc(OC)cc1OCCCCCCC/N=c1/c2c([n-]c3ccccc13)CCCC2

>  <Energy>  (6) 
99.74235517971987

>  <Genealogy>  (6) 
CCCN(CCBr)c1ccc(OC)cc1OCCCCCCCN=c1c2c([n-]c3ccccc13)CCCC2 (protonated)
CCCN(CCBr)c1ccc(OC)cc1OCCCCCCC/N=c1/c2c([n-]c3ccccc13)CCCC2 (cis-trans isomerization)
CCCN(CCBr)c1ccc(OC)cc1OCCCCCCC/N=c1/c2c([n-]c3ccccc13)CCCC2 (3D coordinates assigned)
CCCN(CCBr)c1ccc(OC)cc1OCCCCCCC/N=c1/c2c([n-]c3ccccc13)CCCC2 (nonaromatic ring conformer: 99.74235517971987 kcal/mol)

>  <smiles>  (6) 
CCCN(CCBr)c1ccc(OC)cc1OCCCCCCCN=c1c2c([nH]c3ccccc13)CCCC2

>  <score_type>  (6) 
oracle

>  <origin>  (6) 
adg

>  <m_score__min__energy>  (6) 
-11.279999999999999

>  <m_primary>  (6) 
energy

$$$$
6:0
     RDKit          3D

 68 70  0  0  0  0  0  0  0  0999 V2000
   56.8731   22.3281   43.4379 H   0  0  0  0  0  0  0  0  0  0  0  0
   56.6900   23.2490   44.0110 C   0  0  0  0  0  0  0  0  0  0  0  0
   55.3440   23.5290   44.4420 C   0  0  0  0  0  0  0  0  0  0  0  0
   54.2190   23.7510   44.8170 C   0  0  0  0  0  0  0  0  0  0  0  0
   52.8360   24.0210   45.2540 C   0  0  0  0  0  0  0  0  0  0  0  0
   52.8290   24.1178   46.3497 H   0  0  0  0  0  0  0  0  0  0  0  0
   52.5113   24.9451   44.7534 H   0  0  0  0  0  0  0  0  0  0  0  0
   51.8820   22.9580   44.8710 N   0  0  0  0  0  0  0  0  0  0  0  0
   50.7990   23.4660   44.0130 C   0  0  0  0  0  0  0  0  0  0  0  0
   49.9820   23.8492   44.6420 H   0  0  0  0  0  0  0  0  0  0  0  0
   51.1843   24.2773   43.3779 H   0  0  0  0  0  0  0  0  0  0  0  0
   50.4215   22.6510   43.3779 H   0  0  0  0  0  0  0  0  0  0  0  0
   51.3430   22.2450   46.0410 C   0  0  0  0  0  0  0  0  0  0  0  0
   51.7058   22.7249   46.9620 H   0  0  0  0  0  0  0  0  0  0  0  0
   50.2438   22.2803   46.0176 H   0  0  0  0  0  0  0  0  0  0  0  0
   51.6767   21.1971   46.0176 H   0  0  0  0  0  0  0  0  0  0  0  0
   57.7300   24.0520   44.2720 C   0  0  0  0  0  0  0  0  0  0  0  0
   58.7318   23.5987   44.3025 H   0  0  0  0  0  0  0  0  0  0  0  0
   57.6220   25.5410   44.5280 C   0  0  0  0  0  0  0  0  0  0  0  0
   56.6181   25.7573   44.9223 H   0  0  0  0  0  0  0  0  0  0  0  0
   57.8062   26.0542   43.5726 H   0  0  0  0  0  0  0  0  0  0  0  0
   58.6290   26.0350   45.5000 N   0  0  0  0  0  0  0  0  0  0  0  0
   59.6030   24.9660   45.8070 C   0  0  0  0  0  0  0  0  0  0  0  0
   59.6995   24.8601   46.8976 H   0  0  0  0  0  0  0  0  0  0  0  0
   59.2532   24.0164   45.3759 H   0  0  0  0  0  0  0  0  0  0  0  0
   60.5810   25.2262   45.3759 H   0  0  0  0  0  0  0  0  0  0  0  0
   58.0530   26.6400   46.7420 C   0  0  2  0  0  0  0  0  0  0  0  0
   58.4394   26.0241   47.5674 H   0  0  0  0  0  0  0  0  0  0  0  0
   56.5050   26.6350   46.7360 C   0  0  0  0  0  0  0  0  0  0  0  0
   56.1446   25.5986   46.6579 H   0  0  0  0  0  0  0  0  0  0  0  0
   56.1394   27.0886   47.6691 H   0  0  0  0  0  0  0  0  0  0  0  0
   56.0170   27.3900   45.6260 O   0  0  0  0  0  0  0  0  0  0  0  0
   56.6310   28.5850   45.2290 C   0  0  0  0  0  0  0  0  0  0  0  0
   56.0310   29.3850   44.2530 C   0  0  0  0  0  0  0  0  0  0  0  0
   55.0875   29.0666   43.7856 H   0  0  0  0  0  0  0  0  0  0  0  0
   56.6280   30.5890   43.8700 C   0  0  0  0  0  0  0  0  0  0  0  0
   56.1470   31.2189   43.1072 H   0  0  0  0  0  0  0  0  0  0  0  0
   57.8370   31.0000   44.4520 C   0  0  0  0  0  0  0  0  0  0  0  0
   58.4160   32.3470   44.1170 C   0  0  0  0  0  0  0  0  0  0  0  0
   58.4230   32.4734   43.0243 H   0  0  0  0  0  0  0  0  0  0  0  0
   59.4389   32.3973   44.5185 H   0  0  0  0  0  0  0  0  0  0  0  0
   57.4300   33.6930   44.8680 S   0  0  0  0  0  0  0  0  0  0  0  0
   58.3470   33.7300   46.4130 C   0  0  0  0  0  0  0  0  0  0  0  0
   59.2630   34.7600   46.6570 C   0  0  0  0  0  0  0  0  0  0  0  0
   59.4494   35.5235   45.8874 H   0  0  0  0  0  0  0  0  0  0  0  0
   59.9410   34.8190   47.8780 C   0  0  0  0  0  0  0  0  0  0  0  0
   60.6494   35.6385   48.0695 H   0  0  0  0  0  0  0  0  0  0  0  0
   59.7260   33.8440   48.8590 C   0  0  0  0  0  0  0  0  0  0  0  0
   60.4270   33.9570   50.0730 O   0  0  0  0  0  0  0  0  0  0  0  0
   61.7580   33.4980   50.3010 C   0  0  0  0  0  0  0  0  0  0  0  0
   61.7229   32.5236   50.8102 H   0  0  0  0  0  0  0  0  0  0  0  0
   62.2863   34.2329   50.9261 H   0  0  0  0  0  0  0  0  0  0  0  0
   62.4750   33.3530   49.0290 C   0  0  0  0  0  0  0  0  0  0  0  0
   63.0600   33.2390   47.9800 C   0  0  0  0  0  0  0  0  0  0  0  0
   63.7650   33.1060   46.7060 C   0  0  0  0  0  0  0  0  0  0  0  0
   64.8298   32.9051   46.8954 H   0  0  0  0  0  0  0  0  0  0  0  0
   63.3313   32.2738   46.1321 H   0  0  0  0  0  0  0  0  0  0  0  0
   63.6643   34.0390   46.1321 H   0  0  0  0  0  0  0  0  0  0  0  0
   58.8240   32.7940   48.5970 C   0  0  0  0  0  0  0  0  0  0  0  0
   58.6576   32.0129   49.3535 H   0  0  0  0  0  0  0  0  0  0  0  0
   58.1390   32.7410   47.3780 C   0  0  0  0  0  0  0  0  0  0  0  0
   57.4354   31.9192   47.1790 H   0  0  0  0  0  0  0  0  0  0  0  0
   58.4540   30.1810   45.4140 C   0  0  0  0  0  0  0  0  0  0  0  0
   59.4077   30.4905   45.8663 H   0  0  0  0  0  0  0  0  0  0  0  0
   57.8590   28.9720   45.7990 C   0  0  0  0  0  0  0  0  0  0  0  0
   58.4710   28.1260   46.8900 C   0  0  0  0  0  0  0  0  0  0  0  0
   59.5669   28.1990   46.8297 H   0  0  0  0  0  0  0  0  0  0  0  0
   58.1129   28.4955   47.8622 H   0  0  0  0  0  0  0  0  0  0  0  0
  1  2  1  0
  2  3  1  0
  3  4  3  0
  4  5  1  0
  5  6  1  0
  5  7  1  0
  5  8  1  0
  8  9  1  0
  9 10  1  0
  9 11  1  0
  9 12  1  0
  8 13  1  0
 13 14  1  0
 13 15  1  0
 13 16  1  0
  2 17  2  0
 17 18  1  0
 17 19  1  0
 19 20  1  0
 19 21  1  0
 19 22  1  0
 22 23  1  0
 23 24  1  0
 23 25  1  0
 23 26  1  0
 22 27  1  0
 27 28  1  1
 27 29  1  0
 29 30  1  0
 29 31  1  0
 29 32  1  0
 32 33  1  0
 33 34  2  0
 34 35  1  0
 34 36  1  0
 36 37  1  0
 36 38  2  0
 38 39  1  0
 39 40  1  0
 39 41  1  0
 39 42  1  0
 42 43  1  0
 43 44  2  0
 44 45  1  0
 44 46  1  0
 46 47  1  0
 46 48  2  0
 48 49  1  0
 49 50  1  0
 50 51  1  0
 50 52  1  0
 50 53  1  0
 53 54  3  0
 54 55  1  0
 55 56  1  0
 55 57  1  0
 55 58  1  0
 48 59  1  0
 59 60  1  0
 59 61  2  0
 61 62  1  0
 38 63  1  0
 63 64  1  0
 63 65  2  0
 65 66  1  0
 66 67  1  0
 66 68  1  0
 66 27  1  0
 65 33  1  0
 61 43  1  0
M  END
>  <UniqueID>  (7) 
7

>  <SMILES>  (7) 
CC#CCOc1ccc(SCc2ccc3c(c2)C[C@H](N(C)C/C=C\C#CCN(C)C)CO3)cc1

>  <Energy>  (7) 
62.85776401422587

>  <Genealogy>  (7) 
CC#CCOc1ccc(SCc2ccc3c(c2)C[C@H](N(C)CC=CC#CCN(C)C)CO3)cc1 (chirality)
CC#CCOc1ccc(SCc2ccc3c(c2)C[C@H](N(C)C/C=C\C#CCN(C)C)CO3)cc1 (cis-trans isomerization)
CC#CCOc1ccc(SCc2ccc3c(c2)C[C@H](N(C)C/C=C\C#CCN(C)C)CO3)cc1 (3D coordinates assigned)
CC#CCOc1ccc(SCc2ccc3c(c2)C[C@H](N(C)C/C=C\C#CCN(C)C)CO3)cc1 (nonaromatic ring conformer: 62.85776401422587 kcal/mol)

>  <smiles>  (7) 
CC#CCOc1ccc(SCc2ccc3c(c2)CC(N(C)CC=CC#CCN(C)C)CO3)cc1

>  <score_type>  (7) 
oracle

>  <origin>  (7) 
adg

>  <m_score__min__energy>  (7) 
-8.7300000000000004

>  <m_primary>  (7) 
energy

$$$$
7:0
     RDKit          3D

 64 67  0  0  0  0  0  0  0  0999 V2000
   60.4370   29.7830   46.0280 C   0  0  0  0  0  0  0  0  0  0  0  0
   59.6200   29.1440   47.1410 C   0  0  0  0  0  0  0  0  0  0  0  0
   58.2460   29.3580   46.8860 O   0  0  0  0  0  0  0  0  0  0  0  0
   57.7020   28.2860   46.1350 C   0  0  0  0  0  0  0  0  0  0  0  0
   57.2680   28.7670   44.7490 C   0  0  0  0  0  0  0  0  0  0  0  0
   56.2270   29.7210   44.8820 O   0  0  0  0  0  0  0  0  0  0  0  0
   56.3530   30.7430   43.9210 C   0  0  0  0  0  0  0  0  0  0  0  0
   57.4380   31.7280   44.3530 C   0  0  0  0  0  0  0  0  0  0  0  0
   57.3960   31.9330   45.7540 O   0  0  0  0  0  0  0  0  0  0  0  0
   57.5830   33.2940   46.0950 C   0  0  0  0  0  0  0  0  0  0  0  0
   58.3180   33.4550   47.4340 C   0  0  0  0  0  0  0  0  0  0  0  0
   58.9170   32.1970   47.8910 N   0  0  0  0  0  0  0  0  0  0  0  0
   60.1650   32.1440   48.5940 C   0  0  0  0  0  0  0  0  0  0  0  0
   61.3650   32.6460   48.0340 C   0  0  0  0  0  0  0  0  0  0  0  0
   61.3530   33.3470   46.8100 C   0  0  0  0  0  0  0  0  0  0  0  0
   62.5350   33.8430   46.2630 C   0  0  0  0  0  0  0  0  0  0  0  0
   63.7420   33.6750   46.9340 C   0  0  0  0  0  0  0  0  0  0  0  0
   63.7820   33.0140   48.1610 C   0  0  0  0  0  0  0  0  0  0  0  0
   62.6050   32.4850   48.7430 C   0  0  0  0  0  0  0  0  0  0  0  0
   62.6310   31.8500   49.9760 N   0  0  0  0  0  0  0  0  0  0  0  0
   63.9040   31.5780   50.6700 C   0  0  0  0  0  0  0  0  0  0  0  0
   61.4380   31.4950   50.5490 C   0  0  0  0  0  0  0  0  0  0  0  0
   61.2610   31.0000   51.8020 N   0  0  0  0  0  0  0  0  0  0  0  0
   59.9320   30.8030   51.9160 C   0  0  0  0  0  0  0  0  0  0  0  0
   59.2620   30.3140   53.0350 C   0  0  0  0  0  0  0  0  0  0  0  0
   57.8650   30.1710   52.9580 C   0  0  0  0  0  0  0  0  0  0  0  0
   57.1640   30.5330   51.7730 C   0  0  0  0  0  0  0  0  0  0  0  0
   55.7750   30.3720   51.6460 O   0  0  0  0  0  0  0  0  0  0  0  0
   54.8630   30.3920   52.7370 C   0  0  0  0  0  0  0  0  0  0  0  0
   57.8710   31.0600   50.6750 C   0  0  0  0  0  0  0  0  0  0  0  0
   59.2620   31.1670   50.7670 C   0  0  0  0  0  0  0  0  0  0  0  0
   60.2320   31.6240   49.8870 C   0  0  0  0  0  0  0  0  0  0  0  0
   61.2315   30.4044   46.4668 H   0  0  0  0  0  0  0  0  0  0  0  0
   60.8884   28.9958   45.4062 H   0  0  0  0  0  0  0  0  0  0  0  0
   59.7818   30.4108   45.4062 H   0  0  0  0  0  0  0  0  0  0  0  0
   59.8247   28.0637   47.1749 H   0  0  0  0  0  0  0  0  0  0  0  0
   59.8927   29.5942   48.1069 H   0  0  0  0  0  0  0  0  0  0  0  0
   58.4632   27.4998   46.0231 H   0  0  0  0  0  0  0  0  0  0  0  0
   56.8229   27.8910   46.6653 H   0  0  0  0  0  0  0  0  0  0  0  0
   58.1248   29.2289   44.2367 H   0  0  0  0  0  0  0  0  0  0  0  0
   56.9063   27.9104   44.1613 H   0  0  0  0  0  0  0  0  0  0  0  0
   56.6260   30.3010   42.9514 H   0  0  0  0  0  0  0  0  0  0  0  0
   55.3948   31.2753   43.8288 H   0  0  0  0  0  0  0  0  0  0  0  0
   58.4233   31.3249   44.0760 H   0  0  0  0  0  0  0  0  0  0  0  0
   57.2649   32.6900   43.8484 H   0  0  0  0  0  0  0  0  0  0  0  0
   58.1737   33.7804   45.3047 H   0  0  0  0  0  0  0  0  0  0  0  0
   56.5912   33.7594   46.1933 H   0  0  0  0  0  0  0  0  0  0  0  0
   59.1149   34.2036   47.3131 H   0  0  0  0  0  0  0  0  0  0  0  0
   57.5821   33.7723   48.1875 H   0  0  0  0  0  0  0  0  0  0  0  0
   58.4410   31.2970   47.6570 H   0  0  0  0  0  0  0  0  0  0  0  0
   60.4009   33.5038   46.2818 H   0  0  0  0  0  0  0  0  0  0  0  0
   62.5135   34.3692   45.2973 H   0  0  0  0  0  0  0  0  0  0  0  0
   64.6710   34.0662   46.4936 H   0  0  0  0  0  0  0  0  0  0  0  0
   64.7428   32.9019   48.6847 H   0  0  0  0  0  0  0  0  0  0  0  0
   63.7433   31.6123   51.7577 H   0  0  0  0  0  0  0  0  0  0  0  0
   64.2713   30.5811   50.3849 H   0  0  0  0  0  0  0  0  0  0  0  0
   64.6467   32.3377   50.3849 H   0  0  0  0  0  0  0  0  0  0  0  0
   61.9660   30.8410   52.5570 H   0  0  0  0  0  0  0  0  0  0  0  0
   59.8091   30.0477   53.9514 H   0  0  0  0  0  0  0  0  0  0  0  0
   57.3091   29.7759   53.8211 H   0  0  0  0  0  0  0  0  0  0  0  0
   55.4233   30.3797   53.6835 H   0  0  0  0  0  0  0  0  0  0  0  0
   54.2498   31.3038   52.6857 H   0  0  0  0  0  0  0  0  0  0  0  0
   54.2104   29.5079   52.6857 H   0  0  0  0  0  0  0  0  0  0  0  0
   57.3410   31.3801   49.7658 H   0  0  0  0  0  0  0  0  0  0  0  0
  1  2  1  0
  2  3  1  0
  3  4  1  0
  4  5  1  0
  5  6  1  0
  6  7  1  0
  7  8  1  0
  8  9  1  0
  9 10  1  0
 10 11  1  0
 11 12  1  0
 12 13  1  0
 13 14  2  0
 14 15  1  0
 15 16  2  0
 16 17  1  0
 17 18  2  0
 18 19  1  0
 19 20  2  0
 20 21  1  0
 20 22  1  0
 22 23  1  0
 23 24  1  0
 24 25  2  0
 25 26  1  0
 26 27  2  0
 27 28  1  0
 28 29  1  0
 27 30  1  0
 30 31  2  0
 31 32  1  0
 32 13  1  0
 19 14  1  0
 32 22  2  0
 31 24  1  0
  1 33  1  0
  1 34  1  0
  1 35  1  0
  2 36  1  0
  2 37  1  0
  4 38  1  0
  4 39  1  0
  5 40  1  0
  5 41  1  0
  7 42  1  0
  7 43  1  0
  8 44  1  0
  8 45  1  0
 10 46  1  0
 10 47  1  0
 11 48  1  0
 11 49  1  0
 12 50  1  0
 15 51  1  0
 16 52  1  0
 17 53  1  0
 18 54  1  0
 21 55  1  0
 21 56  1  0
 21 57  1  0
 23 58  1  0
 25 59  1  0
 26 60  1  0
 29 61  1  0
 29 62  1  0
 29 63  1  0
 30 64  1  0
M  CHG  1  20   1
M  END
>  <UniqueID>  (8) 
8

>  <SMILES>  (8) 
CCOCCOCCOCCNc1c2ccccc2[n+](C)c2[nH]c3ccc(OC)cc3c12

>  <Energy>  (8) 
123.08063970703296

>  <Genealogy>  (8) 
CCOCCOCCOCCNc1c2ccccc2[n+](C)c2[nH]c3ccc(OC)cc3c12 (3D coordinates assigned)
CCOCCOCCOCCNc1c2ccccc2[n+](C)c2[nH]c3ccc(OC)cc3c12 (optimized conformer: 123.08063970703296 kcal/mol)

>  <smiles>  (8) 
CCOCCOCCOCCNc1c2ccccc2[n+](C)c2[nH]c3ccc(OC)cc3c12

>  <score_type>  (8) 
oracle

>  <origin>  (8) 
adg

>  <m_score__min__energy>  (8) 
-6.0199999999999996

>  <m_primary>  (8) 
energy

$$$$
8:0
     RDKit          3D

 37 38  0  0  0  0  0  0  0  0999 V2000
   63.8680   33.0760   47.1250 C   0  0  0  0  0  0  0  0  0  0  0  0
   62.3700   33.0220   47.1770 C   0  0  0  0  0  0  0  0  0  0  0  0
   61.7210   31.8880   47.6910 C   0  0  0  0  0  0  0  0  0  0  0  0
   60.3260   31.8520   47.7740 C   0  0  0  0  0  0  0  0  0  0  0  0
   59.5680   32.9500   47.3500 C   0  0  0  0  0  0  0  0  0  0  0  0
   57.7760   32.9000   47.4640 S   0  0  0  0  0  0  0  0  0  0  0  0
   57.4910   33.8910   45.9580 C   0  0  0  0  0  0  0  0  0  0  0  0
   57.6080   33.0240   44.7450 C   0  0  0  0  0  0  0  0  0  0  0  0
   58.1730   33.4750   43.7110 O   0  0  0  0  0  0  0  0  0  0  0  0
   57.0510   31.7010   44.7490 N   0  0  0  0  0  0  0  0  0  0  0  0
   57.0270   30.8490   43.5600 C   0  0  0  0  0  0  0  0  0  0  0  0
   56.8020   29.3740   43.9310 C   0  0  1  0  0  0  0  0  0  0  0  0
   58.0650   28.5350   43.7980 C   0  0  0  0  0  0  0  0  0  0  0  0
   57.8910   27.5120   44.8740 C   0  0  0  0  0  0  0  0  0  0  0  0
   57.0300   28.2340   45.8900 C   0  0  0  0  0  0  0  0  0  0  0  0
   56.3050   29.2600   45.2470 O   0  0  0  0  0  0  0  0  0  0  0  0
   60.2130   34.0920   46.8600 C   0  0  0  0  0  0  0  0  0  0  0  0
   61.6080   34.1300   46.7770 C   0  0  0  0  0  0  0  0  0  0  0  0
   64.2701   33.0905   48.1488 H   0  0  0  0  0  0  0  0  0  0  0  0
   64.2486   32.1910   46.5941 H   0  0  0  0  0  0  0  0  0  0  0  0
   64.1839   33.9861   46.5941 H   0  0  0  0  0  0  0  0  0  0  0  0
   62.3125   31.0246   48.0297 H   0  0  0  0  0  0  0  0  0  0  0  0
   59.8228   30.9590   48.1733 H   0  0  0  0  0  0  0  0  0  0  0  0
   56.4831   34.3299   45.9961 H   0  0  0  0  0  0  0  0  0  0  0  0
   58.2445   34.6906   45.9042 H   0  0  0  0  0  0  0  0  0  0  0  0
   56.6420   31.3290   45.6350 H   0  0  0  0  0  0  0  0  0  0  0  0
   56.2125   31.1800   42.8990 H   0  0  0  0  0  0  0  0  0  0  0  0
   57.9998   30.9340   43.0536 H   0  0  0  0  0  0  0  0  0  0  0  0
   56.0623   28.9859   43.2153 H   0  0  0  0  0  0  0  0  0  0  0  0
   58.1253   28.0623   42.8066 H   0  0  0  0  0  0  0  0  0  0  0  0
   58.9914   29.1200   43.8958 H   0  0  0  0  0  0  0  0  0  0  0  0
   57.3823   26.6157   44.4896 H   0  0  0  0  0  0  0  0  0  0  0  0
   58.8436   27.1514   45.2893 H   0  0  0  0  0  0  0  0  0  0  0  0
   56.3287   27.5215   46.3489 H   0  0  0  0  0  0  0  0  0  0  0  0
   57.6710   28.6710   46.6698 H   0  0  0  0  0  0  0  0  0  0  0  0
   59.6205   34.9616   46.5395 H   0  0  0  0  0  0  0  0  0  0  0  0
   62.1100   35.0319   46.3967 H   0  0  0  0  0  0  0  0  0  0  0  0
  1  2  1  0
  2  3  2  0
  3  4  1  0
  4  5  2  0
  5  6  1  0
  6  7  1  0
  7  8  1  0
  8  9  2  0
  8 10  1  0
 10 11  1  0
 11 12  1  0
 12 13  1  0
 13 14  1  0
 14 15  1  0
 15 16  1  0
  5 17  1  0
 17 18  2  0
 18  2  1  0
 16 12  1  0
  1 19  1  0
  1 20  1  0
  1 21  1  0
  3 22  1  0
  4 23  1  0
  7 24  1  0
  7 25  1  0
 10 26  1  0
 11 27  1  0
 11 28  1  0
 12 29  1  6
 13 30  1  0
 13 31  1  0
 14 32  1  0
 14 33  1  0
 15 34  1  0
 15 35  1  0
 17 36  1  0
 18 37  1  0
M  END
>  <UniqueID>  (9) 
9

>  <SMILES>  (9) 
Cc1ccc(SCC(=O)NC[C@H]2CCCO2)cc1

>  <Energy>  (9) 
25.455773094092752

>  <Genealogy>  (9) 
Cc1ccc(SCC(=O)NC[C@H]2CCCO2)cc1 (chirality)
Cc1ccc(SCC(=O)NC[C@H]2CCCO2)cc1 (3D coordinates assigned)
Cc1ccc(SCC(=O)NC[C@H]2CCCO2)cc1 (nonaromatic ring conformer: 25.455773094092752 kcal/mol)

>  <smiles>  (9) 
Cc1ccc(SCC(=O)NCC2CCCO2)cc1

>  <score_type>  (9) 
oracle

>  <origin>  (9) 
adg

>  <m_score__min__energy>  (9) 
-6.9400000000000004

>  <m_primary>  (9) 
energy

$$$$
9:0
     RDKit          3D

 40 41  0  0  0  0  0  0  0  0999 V2000
   57.2230   33.8950   45.2840 C   0  0  0  0  0  0  0  0  0  0  0  0
   57.6560   32.6680   44.4950 C   0  0  0  0  0  0  0  0  0  0  0  0
   56.6640   31.6700   44.6140 O   0  0  0  0  0  0  0  0  0  0  0  0
   56.6500   30.8440   43.4640 C   0  0  0  0  0  0  0  0  0  0  0  0
   56.6650   29.3690   43.8630 C   0  0  0  0  0  0  0  0  0  0  0  0
   56.3740   29.2540   45.2400 O   0  0  0  0  0  0  0  0  0  0  0  0
   57.2090   28.2860   45.8510 C   0  0  0  0  0  0  0  0  0  0  0  0
   58.3570   28.9830   46.5830 C   0  0  0  0  0  0  0  0  0  0  0  0
   58.1270   30.4260   46.6780 N   0  0  0  0  0  0  0  0  0  0  0  0
   59.0760   31.3800   47.1980 C   0  0  0  0  0  0  0  0  0  0  0  0
   58.6050   32.4560   47.9660 C   0  0  0  0  0  0  0  0  0  0  0  0
   59.4900   33.3930   48.5030 C   0  0  0  0  0  0  0  0  0  0  0  0
   60.8670   33.2750   48.2750 C   0  0  0  0  0  0  0  0  0  0  0  0
   61.7650   34.2100   48.8120 C   0  0  0  0  0  0  0  0  0  0  0  0
   63.1360   34.0830   48.5730 C   0  0  0  0  0  0  0  0  0  0  0  0
   63.6190   33.0250   47.7980 C   0  0  0  0  0  0  0  0  0  0  0  0
   62.7350   32.0870   47.2580 C   0  0  0  0  0  0  0  0  0  0  0  0
   61.3560   32.2020   47.4910 C   0  0  0  0  0  0  0  0  0  0  0  0
   60.4580   31.2650   46.9550 C   0  0  0  0  0  0  0  0  0  0  0  0
   57.2976   33.6836   46.3609 H   0  0  0  0  0  0  0  0  0  0  0  0
   57.8761   34.7431   45.0307 H   0  0  0  0  0  0  0  0  0  0  0  0
   56.1822   34.1453   45.0307 H   0  0  0  0  0  0  0  0  0  0  0  0
   57.7833   32.9368   43.4360 H   0  0  0  0  0  0  0  0  0  0  0  0
   58.6111   32.2910   44.8896 H   0  0  0  0  0  0  0  0  0  0  0  0
   55.7410   31.0517   42.8804 H   0  0  0  0  0  0  0  0  0  0  0  0
   57.5452   31.0583   42.8617 H   0  0  0  0  0  0  0  0  0  0  0  0
   55.9078   28.8233   43.2808 H   0  0  0  0  0  0  0  0  0  0  0  0
   57.6586   28.9429   43.6600 H   0  0  0  0  0  0  0  0  0  0  0  0
   56.6206   27.6974   46.5703 H   0  0  0  0  0  0  0  0  0  0  0  0
   57.6208   27.6205   45.0781 H   0  0  0  0  0  0  0  0  0  0  0  0
   58.4414   28.5658   47.5973 H   0  0  0  0  0  0  0  0  0  0  0  0
   59.2843   28.8151   46.0156 H   0  0  0  0  0  0  0  0  0  0  0  0
   57.1970   30.7780   46.3570 H   0  0  0  0  0  0  0  0  0  0  0  0
   57.5253   32.5625   48.1472 H   0  0  0  0  0  0  0  0  0  0  0  0
   59.1043   34.2272   49.1075 H   0  0  0  0  0  0  0  0  0  0  0  0
   61.3891   35.0445   49.4222 H   0  0  0  0  0  0  0  0  0  0  0  0
   63.8369   34.8177   48.9960 H   0  0  0  0  0  0  0  0  0  0  0  0
   64.6991   32.9303   47.6124 H   0  0  0  0  0  0  0  0  0  0  0  0
   63.1211   31.2565   46.6488 H   0  0  0  0  0  0  0  0  0  0  0  0
   60.8371   30.4350   46.3407 H   0  0  0  0  0  0  0  0  0  0  0  0
  1  2  1  0
  2  3  1  0
  3  4  1  0
  4  5  1  0
  5  6  1  0
  6  7  1  0
  7  8  1  0
  8  9  1  0
  9 10  1  0
 10 11  2  0
 11 12  1  0
 12 13  2  0
 13 14  1  0
 14 15  2  0
 15 16  1  0
 16 17  2  0
 17 18  1  0
 18 19  2  0
 19 10  1  0
 18 13  1  0
  1 20  1  0
  1 21  1  0
  1 22  1  0
  2 23  1  0
  2 24  1  0
  4 25  1  0
  4 26  1  0
  5 27  1  0
  5 28  1  0
  7 29  1  0
  7 30  1  0
  8 31  1  0
  8 32  1  0
  9 33  1  0
 11 34  1  0
 12 35  1  0
 14 36  1  0
 15 37  1  0
 16 38  1  0
 17 39  1  0
 19 40  1  0
M  END
>  <UniqueID>  (10) 
10

>  <SMILES>  (10) 
CCOCCOCCNc1ccc2ccccc2c1

>  <Energy>  (10) 
37.76198429270145

>  <Genealogy>  (10) 
CCOCCOCCNc1ccc2ccccc2c1 (3D coordinates assigned)
CCOCCOCCNc1ccc2ccccc2c1 (optimized conformer: 37.76198429270145 kcal/mol)

>  <smiles>  (10) 
CCOCCOCCNc1ccc2ccccc2c1

>  <score_type>  (10) 
oracle

>  <origin>  (10) 
adg

>  <m_score__min__energy>  (10) 
-7.0099999999999998

>  <m_primary>  (10) 
energy

$$$$
10:0
     RDKit          3D

 56 58  0  0  0  0  0  0  0  0999 V2000
   60.2430   29.0080   51.4410 C   0  0  0  0  0  0  0  0  0  0  0  0
   59.6360   28.9790   50.0420 C   0  0  0  0  0  0  0  0  0  0  0  0
   58.4890   29.8070   49.9960 O   0  0  0  0  0  0  0  0  0  0  0  0
   58.3370   30.5510   51.1920 C   0  0  0  0  0  0  0  0  0  0  0  0
   57.9180   31.9880   50.8780 C   0  0  0  0  0  0  0  0  0  0  0  0
   58.7730   32.5410   49.8930 O   0  0  0  0  0  0  0  0  0  0  0  0
   59.6460   33.5050   50.4480 C   0  0  0  0  0  0  0  0  0  0  0  0
   61.0960   33.1490   50.1330 C   0  0  0  0  0  0  0  0  0  0  0  0
   61.2650   31.7500   50.2550 O   0  0  0  0  0  0  0  0  0  0  0  0
   62.3180   31.3230   49.4170 C   0  0  0  0  0  0  0  0  0  0  0  0
   61.7680   31.0030   48.0230 C   0  0  0  0  0  0  0  0  0  0  0  0
   60.3050   31.0760   47.9210 N   0  0  0  0  0  0  0  0  0  0  0  0
   59.5740   31.3460   46.7100 C   0  0  0  0  0  0  0  0  0  0  0  0
   59.5150   32.6510   46.1900 C   0  0  0  0  0  0  0  0  0  0  0  0
   60.1620   33.7170   46.8490 C   0  0  0  0  0  0  0  0  0  0  0  0
   60.0380   35.0230   46.3800 C   0  0  0  0  0  0  0  0  0  0  0  0
   59.2670   35.2870   45.2550 C   0  0  0  0  0  0  0  0  0  0  0  0
   58.6490   34.2430   44.5660 C   0  0  0  0  0  0  0  0  0  0  0  0
   58.7950   32.8970   44.9910 C   0  0  0  0  0  0  0  0  0  0  0  0
   58.2530   31.8430   44.2780 N   0  0  0  0  0  0  0  0  0  0  0  0
   57.7640   32.0600   42.8990 C   0  0  0  0  0  0  0  0  0  0  0  0
   58.1990   30.5800   44.8410 C   0  0  0  0  0  0  0  0  0  0  0  0
   57.4360   29.5350   44.2590 C   0  0  0  0  0  0  0  0  0  0  0  0
   57.4140   28.2580   44.8200 C   0  0  0  0  0  0  0  0  0  0  0  0
   58.1420   27.9900   45.9750 C   0  0  0  0  0  0  0  0  0  0  0  0
   58.1140   26.2380   46.7340 Br  0  0  0  0  0  0  0  0  0  0  0  0
   58.8690   29.0060   46.5940 C   0  0  0  0  0  0  0  0  0  0  0  0
   58.8910   30.3080   46.0520 C   0  0  0  0  0  0  0  0  0  0  0  0
   59.4388   28.9696   52.1905 H   0  0  0  0  0  0  0  0  0  0  0  0
   60.9069   28.1405   51.5707 H   0  0  0  0  0  0  0  0  0  0  0  0
   60.8211   29.9348   51.5707 H   0  0  0  0  0  0  0  0  0  0  0  0
   60.3775   29.3427   49.3154 H   0  0  0  0  0  0  0  0  0  0  0  0
   59.3471   27.9469   49.7945 H   0  0  0  0  0  0  0  0  0  0  0  0
   57.5661   30.0774   51.8177 H   0  0  0  0  0  0  0  0  0  0  0  0
   59.2990   30.5689   51.7251 H   0  0  0  0  0  0  0  0  0  0  0  0
   56.8832   31.9918   50.5050 H   0  0  0  0  0  0  0  0  0  0  0  0
   57.9880   32.5916   51.7949 H   0  0  0  0  0  0  0  0  0  0  0  0
   59.4140   34.4925   50.0225 H   0  0  0  0  0  0  0  0  0  0  0  0
   59.5110   33.5242   51.5395 H   0  0  0  0  0  0  0  0  0  0  0  0
   61.3375   33.4612   49.1063 H   0  0  0  0  0  0  0  0  0  0  0  0
   61.7661   33.6663   50.8354 H   0  0  0  0  0  0  0  0  0  0  0  0
   63.0707   32.1214   49.3392 H   0  0  0  0  0  0  0  0  0  0  0  0
   62.7810   30.4207   49.8430 H   0  0  0  0  0  0  0  0  0  0  0  0
   62.1996   31.7199   47.3091 H   0  0  0  0  0  0  0  0  0  0  0  0
   62.0482   29.9620   47.8043 H   0  0  0  0  0  0  0  0  0  0  0  0
   59.7660   31.0820   48.8140 H   0  0  0  0  0  0  0  0  0  0  0  0
   60.7709   33.5151   47.7426 H   0  0  0  0  0  0  0  0  0  0  0  0
   60.5507   35.8453   46.9006 H   0  0  0  0  0  0  0  0  0  0  0  0
   59.1433   36.3229   44.9061 H   0  0  0  0  0  0  0  0  0  0  0  0
   58.0386   34.4670   43.6788 H   0  0  0  0  0  0  0  0  0  0  0  0
   56.7590   32.5060   42.9323 H   0  0  0  0  0  0  0  0  0  0  0  0
   58.4490   32.7386   42.3696 H   0  0  0  0  0  0  0  0  0  0  0  0
   57.7204   31.0968   42.3696 H   0  0  0  0  0  0  0  0  0  0  0  0
   56.8513   29.7354   43.3491 H   0  0  0  0  0  0  0  0  0  0  0  0
   56.8200   27.4614   44.3483 H   0  0  0  0  0  0  0  0  0  0  0  0
   59.4312   28.7900   47.5145 H   0  0  0  0  0  0  0  0  0  0  0  0
  1  2  1  0
  2  3  1  0
  3  4  1  0
  4  5  1  0
  5  6  1  0
  6  7  1  0
  7  8  1  0
  8  9  1  0
  9 10  1  0
 10 11  1  0
 11 12  1  0
 12 13  1  0
 13 14  2  0
 14 15  1  0
 15 16  2  0
 16 17  1  0
 17 18  2  0
 18 19  1  0
 19 20  2  0
 20 21  1  0
 20 22  1  0
 22 23  2  0
 23 24  1  0
 24 25  2  0
 25 26  1  0
 25 27  1  0
 27 28  2  0
 28 13  1  0
 19 14  1  0
 28 22  1  0
  1 29  1  0
  1 30  1  0
  1 31  1  0
  2 32  1  0
  2 33  1  0
  4 34  1  0
  4 35  1  0
  5 36  1  0
  5 37  1  0
  7 38  1  0
  7 39  1  0
  8 40  1  0
  8 41  1  0
 10 42  1  0
 10 43  1  0
 11 44  1  0
 11 45  1  0
 12 46  1  0
 15 47  1  0
 16 48  1  0
 17 49  1  0
 18 50  1  0
 21 51  1  0
 21 52  1  0
 21 53  1  0
 23 54  1  0
 24 55  1  0
 27 56  1  0
M  CHG  1  20   1
M  END
>  <UniqueID>  (11) 
11

>  <SMILES>  (11) 
CCOCCOCCOCCNc1c2ccccc2[n+](C)c2ccc(Br)cc12

>  <Energy>  (11) 
80.35770481802467

>  <Genealogy>  (11) 
CCOCCOCCOCCNc1c2ccccc2[n+](C)c2ccc(Br)cc12 (3D coordinates assigned)
CCOCCOCCOCCNc1c2ccccc2[n+](C)c2ccc(Br)cc12 (optimized conformer: 80.35770481802467 kcal/mol)

>  <smiles>  (11) 
CCOCCOCCOCCNc1c2ccccc2[n+](C)c2ccc(Br)cc12

>  <score_type>  (11) 
oracle

>  <origin>  (11) 
adg

>  <m_score__min__energy>  (11) 
-6.0999999999999996

>  <m_primary>  (11) 
energy

$$$$
11:0
     RDKit          3D

 57 60  0  0  0  0  0  0  0  0999 V2000
   56.3137   32.0787   45.5525 H   0  0  0  0  0  0  0  0  0  0  0  0
   57.3660   32.1750   45.2470 C   0  0  0  0  0  0  0  0  0  0  0  0
   57.8380   31.2530   44.3850 C   0  0  0  0  0  0  0  0  0  0  0  0
   57.2890   31.2730   42.9810 C   0  0  0  0  0  0  0  0  0  0  0  0
   56.1903   31.3130   43.0174 H   0  0  0  0  0  0  0  0  0  0  0  0
   57.6708   32.1578   42.4506 H   0  0  0  0  0  0  0  0  0  0  0  0
   57.6054   30.3627   42.4506 H   0  0  0  0  0  0  0  0  0  0  0  0
   58.8600   30.1920   44.7650 C   0  0  0  0  0  0  0  0  0  0  0  0
   59.5017   29.9918   43.8943 H   0  0  0  0  0  0  0  0  0  0  0  0
   59.4424   30.5768   45.6152 H   0  0  0  0  0  0  0  0  0  0  0  0
   58.2000   28.8720   45.2070 C   0  0  0  0  0  0  0  0  0  0  0  0
   57.2151   28.7848   44.7250 H   0  0  0  0  0  0  0  0  0  0  0  0
   58.8542   28.0395   44.9086 H   0  0  0  0  0  0  0  0  0  0  0  0
   58.0250   28.8250   46.6670 N   0  0  0  0  0  0  0  0  0  0  0  0
   57.9920   29.8100   47.0210 H   0  0  0  0  0  0  0  0  0  0  0  0
   59.1250   28.1130   47.3490 C   0  0  0  0  0  0  0  0  0  0  0  0
   58.7455   27.6559   48.2747 H   0  0  0  0  0  0  0  0  0  0  0  0
   59.5188   27.3306   46.6835 H   0  0  0  0  0  0  0  0  0  0  0  0
   60.2500   29.1000   47.6920 C   0  0  0  0  0  0  0  0  0  0  0  0
   60.6824   28.8262   48.6657 H   0  0  0  0  0  0  0  0  0  0  0  0
   61.0113   29.0479   46.8997 H   0  0  0  0  0  0  0  0  0  0  0  0
   59.7490   30.4740   47.7620 N   0  0  0  0  0  0  0  0  0  0  0  0
   58.9230   30.7380   47.1760 H   0  0  0  0  0  0  0  0  0  0  0  0
   60.2740   31.4400   48.6880 C   0  0  0  0  0  0  0  0  0  0  0  0
   59.5650   31.7470   49.8620 C   0  0  0  0  0  0  0  0  0  0  0  0
   58.2850   31.2000   50.0990 C   0  0  0  0  0  0  0  0  0  0  0  0
   57.8461   30.5061   49.3669 H   0  0  0  0  0  0  0  0  0  0  0  0
   57.5720   31.5290   51.2490 C   0  0  0  0  0  0  0  0  0  0  0  0
   56.5773   31.0925   51.4223 H   0  0  0  0  0  0  0  0  0  0  0  0
   58.1160   32.4090   52.1790 C   0  0  0  0  0  0  0  0  0  0  0  0
   57.5433   32.6791   53.0785 H   0  0  0  0  0  0  0  0  0  0  0  0
   59.3830   32.9490   51.9750 C   0  0  0  0  0  0  0  0  0  0  0  0
   59.8010   33.6427   52.7194 H   0  0  0  0  0  0  0  0  0  0  0  0
   60.1450   32.6200   50.8230 C   0  0  0  0  0  0  0  0  0  0  0  0
   61.4070   33.1470   50.6040 N   0  0  0  0  0  0  0  0  0  0  0  0
   62.1270   33.8370   51.6990 C   0  0  0  0  0  0  0  0  0  0  0  0
   61.7517   33.4773   52.6684 H   0  0  0  0  0  0  0  0  0  0  0  0
   63.2035   33.6246   51.6209 H   0  0  0  0  0  0  0  0  0  0  0  0
   61.9606   34.9215   51.6209 H   0  0  0  0  0  0  0  0  0  0  0  0
   62.0000   33.0300   49.3590 C   0  0  0  0  0  0  0  0  0  0  0  0
   63.1430   33.7910   49.0000 C   0  0  0  0  0  0  0  0  0  0  0  0
   63.5534   34.5208   49.7134 H   0  0  0  0  0  0  0  0  0  0  0  0
   63.7540   33.6280   47.7570 C   0  0  0  0  0  0  0  0  0  0  0  0
   64.6598   34.2021   47.5124 H   0  0  0  0  0  0  0  0  0  0  0  0
   63.2230   32.7430   46.8260 C   0  0  0  0  0  0  0  0  0  0  0  0
   63.7139   32.6117   45.8504 H   0  0  0  0  0  0  0  0  0  0  0  0
   62.0710   32.0230   47.1270 C   0  0  0  0  0  0  0  0  0  0  0  0
   61.6381   31.3491   46.3731 H   0  0  0  0  0  0  0  0  0  0  0  0
   61.4520   32.1480   48.3890 C   0  0  0  0  0  0  0  0  0  0  0  0
   58.1280   33.3020   45.8200 C   0  0  0  0  0  0  0  0  0  0  0  0
   59.2520   34.2710   45.0160 S   0  0  0  0  0  0  0  0  0  0  0  0
   59.7890   35.1040   46.3740 C   0  0  0  0  0  0  0  0  0  0  0  0
   60.5433   35.9046   46.3831 H   0  0  0  0  0  0  0  0  0  0  0  0
   59.1160   34.6070   47.4820 C   0  0  0  0  0  0  0  0  0  0  0  0
   59.2841   34.9782   48.5037 H   0  0  0  0  0  0  0  0  0  0  0  0
   58.2030   33.5890   47.1780 C   0  0  0  0  0  0  0  0  0  0  0  0
   57.6041   33.0678   47.9394 H   0  0  0  0  0  0  0  0  0  0  0  0
  1  2  1  0
  2  3  2  0
  3  4  1  0
  4  5  1  0
  4  6  1  0
  4  7  1  0
  3  8  1  0
  8  9  1  0
  8 10  1  0
  8 11  1  0
 11 12  1  0
 11 13  1  0
 11 14  1  0
 14 15  1  0
 14 16  1  0
 16 17  1  0
 16 18  1  0
 16 19  1  0
 19 20  1  0
 19 21  1  0
 19 22  1  0
 22 23  1  0
 22 24  1  0
 24 25  1  0
 25 26  2  0
 26 27  1  0
 26 28  1  0
 28 29  1  0
 28 30  2  0
 30 31  1  0
 30 32  1  0
 32 33  1  0
 32 34  2  0
 34 35  1  0
 35 36  1  0
 36 37  1  0
 36 38  1  0
 36 39  1  0
 35 40  2  0
 40 41  1  0
 41 42  1  0
 41 43  2  0
 43 44  1  0
 43 45  1  0
 45 46  1  0
 45 47  2  0
 47 48  1  0
 47 49  1  0
  2 50  1  0
 50 51  1  0
 51 52  1  0
 52 53  1  0
 52 54  2  0
 54 55  1  0
 54 56  1  0
 56 57  1  0
 49 24  2  0
 56 50  2  0
 34 25  1  0
 49 40  1  0
M  CHG  1  35   1
M  END
>  <UniqueID>  (12) 
12

>  <SMILES>  (12) 
C/C(=C/c1cccs1)CCNCCNc1c2ccccc2[n+](C)c2ccccc12

>  <Energy>  (12) 
115.40343241741432

>  <Genealogy>  (12) 
C/C(=C/c1cccs1)CCNCCNc1c2ccccc2[n+](C)c2ccccc12 (cis-trans isomerization)
C/C(=C/c1cccs1)CCNCCNc1c2ccccc2[n+](C)c2ccccc12 (3D coordinates assigned)
C/C(=C/c1cccs1)CCNCCNc1c2ccccc2[n+](C)c2ccccc12 (optimized conformer: 115.40343241741432 kcal/mol)

>  <smiles>  (12) 
CC(=Cc1cccs1)CCNCCNc1c2ccccc2[n+](C)c2ccccc12

>  <score_type>  (12) 
oracle

>  <origin>  (12) 
adg

>  <m_score__min__energy>  (12) 
-6.5

>  <m_primary>  (12) 
energy

$$$$
12:0
     RDKit          3D

 50 53  0  0  0  0  0  0  0  0999 V2000
   62.7020   31.3280   47.3830 C   0  0  0  0  0  0  0  0  0  0  0  0
   63.5290   32.5830   47.1190 C   0  0  0  0  0  0  0  0  0  0  0  0
   62.6470   33.8360   47.0990 C   0  0  0  0  0  0  0  0  0  0  0  0
   61.6460   33.7800   48.1710 N   0  0  0  0  0  0  0  0  0  0  0  0
   61.9220   33.9500   49.4810 C   0  0  0  0  0  0  0  0  0  0  0  0
   60.7520   33.8430   50.1970 C   0  0  0  0  0  0  0  0  0  0  0  0
   59.7440   33.6130   49.3380 N   0  0  0  0  0  0  0  0  0  0  0  0
   60.3020   33.5770   48.1100 C   0  0  0  0  0  0  0  0  0  0  0  0
   59.4630   33.4160   46.8580 C   0  0  0  0  0  0  0  0  0  0  0  0
   57.9640   33.5740   47.1570 C   0  0  0  0  0  0  0  0  0  0  0  0
   57.1150   33.3220   45.8940 C   0  0  0  0  0  0  0  0  0  0  0  0
   57.7070   33.8540   44.6360 N   0  0  0  0  0  0  0  0  0  0  0  0
   58.1210   32.7740   43.7130 C   0  0  0  0  0  0  0  0  0  0  0  0
   57.7160   31.4290   44.2330 C   0  0  0  0  0  0  0  0  0  0  0  0
   56.4390   30.8820   44.1830 C   0  0  0  0  0  0  0  0  0  0  0  0
   56.3250   29.6560   44.7600 N   0  0  0  0  0  0  0  0  0  0  0  0
   57.4990   29.2250   45.2730 C   0  0  0  0  0  0  0  0  0  0  0  0
   57.6570   27.9350   45.9570 C   0  0  0  0  0  0  0  0  0  0  0  0
   58.7760   27.5250   46.6710 C   0  0  0  0  0  0  0  0  0  0  0  0
   58.6450   26.2420   47.2150 C   0  0  0  0  0  0  0  0  0  0  0  0
   57.4250   25.6390   46.9340 C   0  0  0  0  0  0  0  0  0  0  0  0
   56.5120   26.7020   46.0070 S   0  0  0  0  0  0  0  0  0  0  0  0
   58.7290   30.3500   45.0330 S   0  0  0  0  0  0  0  0  0  0  0  0
   58.7650   34.8670   44.8660 C   0  0  0  0  0  0  0  0  0  0  0  0
   59.9390   34.3140   45.6920 C   0  0  0  0  0  0  0  0  0  0  0  0
   62.6020   31.1763   48.4679 H   0  0  0  0  0  0  0  0  0  0  0  0
   61.7040   31.4457   46.9357 H   0  0  0  0  0  0  0  0  0  0  0  0
   63.2039   30.4573   46.9357 H   0  0  0  0  0  0  0  0  0  0  0  0
   64.2837   32.6885   47.9123 H   0  0  0  0  0  0  0  0  0  0  0  0
   64.0107   32.4813   46.1353 H   0  0  0  0  0  0  0  0  0  0  0  0
   63.2789   34.7252   47.2404 H   0  0  0  0  0  0  0  0  0  0  0  0
   62.1274   33.8886   46.1309 H   0  0  0  0  0  0  0  0  0  0  0  0
   62.9181   34.1424   49.9062 H   0  0  0  0  0  0  0  0  0  0  0  0
   60.6573   33.9309   51.2894 H   0  0  0  0  0  0  0  0  0  0  0  0
   58.7340   33.5050   49.5800 H   0  0  0  0  0  0  0  0  0  0  0  0
   59.6123   32.3835   46.5092 H   0  0  0  0  0  0  0  0  0  0  0  0
   57.6748   32.8512   47.9341 H   0  0  0  0  0  0  0  0  0  0  0  0
   57.7832   34.6037   47.4992 H   0  0  0  0  0  0  0  0  0  0  0  0
   56.9836   32.2359   45.7794 H   0  0  0  0  0  0  0  0  0  0  0  0
   56.1654   33.8567   46.0435 H   0  0  0  0  0  0  0  0  0  0  0  0
   57.6464   32.9376   42.7342 H   0  0  0  0  0  0  0  0  0  0  0  0
   59.2170   32.7957   43.6224 H   0  0  0  0  0  0  0  0  0  0  0  0
   55.5889   31.3994   43.7143 H   0  0  0  0  0  0  0  0  0  0  0  0
   59.6750   28.1464   46.7963 H   0  0  0  0  0  0  0  0  0  0  0  0
   59.4335   25.7568   47.8090 H   0  0  0  0  0  0  0  0  0  0  0  0
   57.1108   24.6372   47.2623 H   0  0  0  0  0  0  0  0  0  0  0  0
   59.1474   35.2054   43.8917 H   0  0  0  0  0  0  0  0  0  0  0  0
   58.3171   35.6957   45.4341 H   0  0  0  0  0  0  0  0  0  0  0  0
   60.5886   33.7213   45.0312 H   0  0  0  0  0  0  0  0  0  0  0  0
   60.4795   35.1691   46.1240 H   0  0  0  0  0  0  0  0  0  0  0  0
  1  2  1  0
  2  3  1  0
  3  4  1  0
  4  5  1  0
  5  6  2  0
  6  7  1  0
  7  8  2  0
  8  9  1  0
  9 10  1  0
 10 11  1  0
 11 12  1  0
 12 13  1  0
 13 14  1  0
 14 15  2  0
 15 16  1  0
 16 17  2  0
 17 18  1  0
 18 19  2  0
 19 20  1  0
 20 21  2  0
 21 22  1  0
 17 23  1  0
 12 24  1  0
 24 25  1  0
  8  4  1  0
 25  9  1  0
 23 14  1  0
 22 18  1  0
  1 26  1  0
  1 27  1  0
  1 28  1  0
  2 29  1  0
  2 30  1  0
  3 31  1  0
  3 32  1  0
  5 33  1  0
  6 34  1  0
  7 35  1  0
  9 36  1  0
 10 37  1  0
 10 38  1  0
 11 39  1  0
 11 40  1  0
 13 41  1  0
 13 42  1  0
 15 43  1  0
 19 44  1  0
 20 45  1  0
 21 46  1  0
 24 47  1  0
 24 48  1  0
 25 49  1  0
 25 50  1  0
M  CHG  1   7   1
M  END
>  <UniqueID>  (13) 
13

>  <SMILES>  (13) 
CCCn1cc[nH+]c1C1CCN(Cc2cnc(-c3cccs3)s2)CC1

>  <Energy>  (13) 
143.71853582221874

>  <Genealogy>  (13) 
CCCn1cc[nH+]c1C1CCN(Cc2cnc(-c3cccs3)s2)CC1 (protonated)
CCCn1cc[nH+]c1C1CCN(Cc2cnc(-c3cccs3)s2)CC1 (3D coordinates assigned)
CCCn1cc[nH+]c1C1CCN(Cc2cnc(-c3cccs3)s2)CC1 (nonaromatic ring conformer: 143.71853582221874 kcal/mol)

>  <smiles>  (13) 
CCCn1ccnc1C1CCN(Cc2cnc(-c3cccs3)s2)CC1

>  <score_type>  (13) 
oracle

>  <origin>  (13) 
adg

>  <m_score__min__energy>  (13) 
-7.2999999999999998

>  <m_primary>  (13) 
energy

$$$$
13:0
     RDKit          3D

 35 36  0  0  1  0  0  0  0  0999 V2000
   63.3110   33.8340   46.5680 C   0  0  0  0  0  0  0  0  0  0  0  0
   62.6400   33.2510   47.7960 C   0  0  0  0  0  0  0  0  0  0  0  0
   60.9810   33.9980   47.8980 S   0  0  0  0  0  0  0  0  0  0  0  0
   60.3340   33.6060   49.5230 C   0  0  0  0  0  0  0  0  0  0  0  0
   59.2700   32.5360   49.4810 C   0  0  0  0  0  0  0  0  0  0  0  0
   58.6430   32.3690   48.3400 O   0  0  0  0  0  0  0  0  0  0  0  0
   57.7900   33.1200   47.6950 C   0  0  0  0  0  0  0  0  0  0  0  0
   58.0210   33.3190   46.2850 N   0  0  0  0  0  0  0  0  0  0  0  0
   58.3480   34.3510   45.5340 C   0  0  0  0  0  0  0  0  0  0  0  0
   58.4090   34.0280   44.2160 N   0  0  0  0  0  0  0  0  0  0  0  0
   58.1060   32.7320   44.1260 C   0  0  0  0  0  0  0  0  0  0  0  0
   58.0290   31.9220   43.0110 C   0  0  0  0  0  0  0  0  0  0  0  0
   58.2690   32.4090   41.8510 N   0  0  0  0  0  0  0  0  0  0  0  0
   57.3260   32.3410   40.7460 C   0  0  0  0  0  0  0  0  0  0  0  0
   57.6940   30.6330   43.2280 N   0  0  0  0  0  0  0  0  0  0  0  0
   57.4580   30.1990   44.4780 C   0  0  0  0  0  0  0  0  0  0  0  0
   57.0270   28.4880   44.6430 Cl  0  0  0  0  0  0  0  0  0  0  0  0
   57.5320   30.9790   45.5690 N   0  0  0  0  0  0  0  0  0  0  0  0
   57.8630   32.2770   45.4010 C   0  0  0  0  0  0  0  0  0  0  0  0
   64.1075   34.5260   46.8791 H   0  0  0  0  0  0  0  0  0  0  0  0
   63.7453   33.0215   45.9669 H   0  0  0  0  0  0  0  0  0  0  0  0
   62.5671   34.3775   45.9669 H   0  0  0  0  0  0  0  0  0  0  0  0
   62.5575   32.1584   47.6991 H   0  0  0  0  0  0  0  0  0  0  0  0
   63.2245   33.4651   48.7029 H   0  0  0  0  0  0  0  0  0  0  0  0
   61.1618   33.2551   50.1567 H   0  0  0  0  0  0  0  0  0  0  0  0
   59.8728   34.5191   49.9274 H   0  0  0  0  0  0  0  0  0  0  0  0
   59.7488   31.5803   49.7405 H   0  0  0  0  0  0  0  0  0  0  0  0
   58.4967   32.8713   50.1878 H   0  0  0  0  0  0  0  0  0  0  0  0
   56.7960   32.6621   47.8060 H   0  0  0  0  0  0  0  0  0  0  0  0
   57.8962   34.1189   48.1433 H   0  0  0  0  0  0  0  0  0  0  0  0
   58.5485   35.3580   45.9288 H   0  0  0  0  0  0  0  0  0  0  0  0
   56.3023   32.2672   41.1416 H   0  0  0  0  0  0  0  0  0  0  0  0
   57.4166   33.2480   40.1303 H   0  0  0  0  0  0  0  0  0  0  0  0
   57.5458   31.4564   40.1303 H   0  0  0  0  0  0  0  0  0  0  0  0
   57.6220   29.9730   42.4000 H   0  0  0  0  0  0  0  0  0  0  0  0
  1  2  1  0
  2  3  1  0
  3  4  1  0
  4  5  1  0
  5  6  1  0
  6  7  1  0
  7  8  1  0
  8  9  1  0
  9 10  2  0
 10 11  1  0
 11 12  1  0
 12 13  2  0
 13 14  1  0
 12 15  1  0
 15 16  1  0
 16 17  1  0
 16 18  2  0
 18 19  1  0
 19  8  1  0
 19 11  2  0
  1 20  1  0
  1 21  1  0
  1 22  1  0
  2 23  1  0
  2 24  1  0
  4 25  1  0
  4 26  1  0
  5 27  1  0
  5 28  1  0
  7 29  1  0
  7 30  1  0
  9 31  1  0
 14 32  1  0
 14 33  1  0
 14 34  1  0
 15 35  1  0
M  END
>  <smiles>  (14) 
CCSCCOCn1cnc2c(=NC)[nH]c(Cl)nc21

>  <score_type>  (14) 
oracle

>  <origin>  (14) 
adg

>  <m_score__min__energy>  (14) 
-5.6200000000000001

>  <m_primary>  (14) 
energy

$$$$
14:0
     RDKit          3D

 43 44  0  0  0  0  0  0  0  0999 V2000
   59.5270   34.5750   46.1610 C   0  0  0  0  0  0  0  0  0  0  0  0
   58.0700   34.1950   45.9010 C   0  0  0  0  0  0  0  0  0  0  0  0
   57.8060   32.6900   46.0970 C   0  0  0  0  0  0  0  0  0  0  0  0
   58.6740   31.7870   45.2050 C   0  0  0  0  0  0  0  0  0  0  0  0
   58.7840   30.4270   45.7400 N   0  0  0  0  0  0  0  0  0  0  0  0
   59.8320   29.8790   46.4180 C   0  0  0  0  0  0  0  0  0  0  0  0
   61.3590   30.7440   46.7870 S   0  0  0  0  0  0  0  0  0  0  0  0
   60.6830   31.5300   48.2880 C   0  0  0  0  0  0  0  0  0  0  0  0
   61.7990   32.1900   49.0960 C   0  0  0  0  0  0  0  0  0  0  0  0
   62.1210   33.4600   48.5600 O   0  0  0  0  0  0  0  0  0  0  0  0
   63.4080   33.4400   47.9780 C   0  0  0  0  0  0  0  0  0  0  0  0
   63.2940   33.8020   46.5050 C   0  0  0  0  0  0  0  0  0  0  0  0
   59.6200   28.5950   46.8050 N   0  0  0  0  0  0  0  0  0  0  0  0
   58.3840   28.3420   46.3330 C   0  0  0  0  0  0  0  0  0  0  0  0
   57.8800   29.4310   45.6940 C   0  0  0  0  0  0  0  0  0  0  0  0
   56.6120   29.3720   45.1210 C   0  0  0  0  0  0  0  0  0  0  0  0
   56.1160   30.3470   44.4980 O   0  0  0  0  0  0  0  0  0  0  0  0
   55.9090   28.2130   45.2510 N   0  0  0  0  0  0  0  0  0  0  0  0
   56.4240   27.1260   45.9080 C   0  0  0  0  0  0  0  0  0  0  0  0
   55.7210   26.0860   46.0120 O   0  0  0  0  0  0  0  0  0  0  0  0
   57.6920   27.1730   46.4460 N   0  0  0  0  0  0  0  0  0  0  0  0
   58.2500   26.0320   47.1810 C   0  0  0  0  0  0  0  0  0  0  0  0
   59.7059   34.6217   47.2454 H   0  0  0  0  0  0  0  0  0  0  0  0
   60.1887   33.8194   45.7124 H   0  0  0  0  0  0  0  0  0  0  0  0
   59.7353   35.5575   45.7124 H   0  0  0  0  0  0  0  0  0  0  0  0
   57.4297   34.7584   46.5957 H   0  0  0  0  0  0  0  0  0  0  0  0
   57.8442   34.4390   44.8524 H   0  0  0  0  0  0  0  0  0  0  0  0
   58.0078   32.4364   47.1482 H   0  0  0  0  0  0  0  0  0  0  0  0
   56.7586   32.5087   45.8141 H   0  0  0  0  0  0  0  0  0  0  0  0
   58.2227   31.7387   44.2030 H   0  0  0  0  0  0  0  0  0  0  0  0
   59.6848   32.2191   45.1666 H   0  0  0  0  0  0  0  0  0  0  0  0
   59.9470   32.2938   47.9964 H   0  0  0  0  0  0  0  0  0  0  0  0
   60.2036   30.7583   48.9083 H   0  0  0  0  0  0  0  0  0  0  0  0
   61.4673   32.3113   50.1378 H   0  0  0  0  0  0  0  0  0  0  0  0
   62.6930   31.5506   49.0521 H   0  0  0  0  0  0  0  0  0  0  0  0
   64.0541   34.1699   48.4877 H   0  0  0  0  0  0  0  0  0  0  0  0
   63.8452   32.4358   48.0800 H   0  0  0  0  0  0  0  0  0  0  0  0
   62.9648   34.8472   46.4087 H   0  0  0  0  0  0  0  0  0  0  0  0
   64.2740   33.6801   46.0205 H   0  0  0  0  0  0  0  0  0  0  0  0
   62.5607   33.1405   46.0205 H   0  0  0  0  0  0  0  0  0  0  0  0
   58.1612   26.2135   48.2623 H   0  0  0  0  0  0  0  0  0  0  0  0
   57.6967   25.1190   46.9158 H   0  0  0  0  0  0  0  0  0  0  0  0
   59.3104   25.9082   46.9158 H   0  0  0  0  0  0  0  0  0  0  0  0
  1  2  1  0
  2  3  1  0
  3  4  1  0
  4  5  1  0
  5  6  1  0
  6  7  1  0
  7  8  1  0
  8  9  1  0
  9 10  1  0
 10 11  1  0
 11 12  1  0
  6 13  2  0
 13 14  1  0
 14 15  2  0
 15 16  1  0
 16 17  2  0
 16 18  1  0
 18 19  1  0
 19 20  2  0
 19 21  1  0
 21 22  1  0
 15  5  1  0
 21 14  1  0
  1 23  1  0
  1 24  1  0
  1 25  1  0
  2 26  1  0
  2 27  1  0
  3 28  1  0
  3 29  1  0
  4 30  1  0
  4 31  1  0
  8 32  1  0
  8 33  1  0
  9 34  1  0
  9 35  1  0
 11 36  1  0
 11 37  1  0
 12 38  1  0
 12 39  1  0
 12 40  1  0
 22 41  1  0
 22 42  1  0
 22 43  1  0
M  CHG  1  18  -1
M  END
>  <UniqueID>  (15) 
14

>  <SMILES>  (15) 
CCCCn1c(SCCOCC)nc2c1c(=O)[n-]c(=O)n2C

>  <Energy>  (15) 
73.05369800314942

>  <Genealogy>  (15) 
CCCCn1c(SCCOCC)nc2c1c(=O)[n-]c(=O)n2C (protonated)
CCCCn1c(SCCOCC)nc2c1c(=O)[n-]c(=O)n2C (3D coordinates assigned)
CCCCn1c(SCCOCC)nc2c1c(=O)[n-]c(=O)n2C (optimized conformer: 73.05369800314942 kcal/mol)

>  <smiles>  (15) 
CCCCn1c(SCCOCC)nc2c1c(=O)[nH]c(=O)n2C

>  <score_type>  (15) 
oracle

>  <origin>  (15) 
adg

>  <m_score__min__energy>  (15) 
-8.0199999999999996

>  <m_primary>  (15) 
energy

$$$$
