0:0
     RDKit          3D

 42 44  0  0  0  0  0  0  0  0999 V2000
   64.0681   32.7673   46.9561 H   0  0  0  0  0  0  0  0  0  0  0  0
   63.0370   32.6360   47.3160 C   0  0  0  0  0  0  0  0  0  0  0  0
   62.1650   33.7280   47.3500 C   0  0  0  0  0  0  0  0  0  0  0  0
   62.5122   34.7191   47.0227 H   0  0  0  0  0  0  0  0  0  0  0  0
   60.8510   33.5610   47.8000 C   0  0  0  0  0  0  0  0  0  0  0  0
   60.0000   34.6150   47.8130 F   0  0  0  0  0  0  0  0  0  0  0  0
   60.4130   32.3020   48.2240 C   0  0  0  0  0  0  0  0  0  0  0  0
   59.3736   32.1671   48.5578 H   0  0  0  0  0  0  0  0  0  0  0  0
   61.2970   31.2080   48.2250 C   0  0  0  0  0  0  0  0  0  0  0  0
   60.8540   29.8940   48.5980 N   0  0  0  0  0  0  0  0  0  0  0  0
   59.9750   29.1540   47.9830 C   0  0  0  0  0  0  0  0  0  0  0  0
   59.0460   29.7660   47.2050 N   0  0  0  0  0  0  0  0  0  0  0  0
   58.0960   29.0640   46.5320 C   0  0  0  0  0  0  0  0  0  0  0  0
   57.1590   29.7240   45.7230 O   0  0  0  0  0  0  0  0  0  0  0  0
   57.4480   30.7740   44.8370 C   0  0  0  0  0  0  0  0  0  0  0  0
   57.9820   31.9940   45.2920 C   0  0  0  0  0  0  0  0  0  0  0  0
   58.1778   32.1363   46.3650 H   0  0  0  0  0  0  0  0  0  0  0  0
   58.2670   33.0300   44.3910 C   0  0  0  0  0  0  0  0  0  0  0  0
   58.8030   34.3390   44.8900 C   0  0  0  0  0  0  0  0  0  0  0  0
   58.8033   34.3397   45.9900 H   0  0  0  0  0  0  0  0  0  0  0  0
   59.8306   34.4783   44.5230 H   0  0  0  0  0  0  0  0  0  0  0  0
   58.1682   35.1590   44.5230 H   0  0  0  0  0  0  0  0  0  0  0  0
   57.9730   32.8600   43.0310 C   0  0  0  0  0  0  0  0  0  0  0  0
   58.1779   33.6744   42.3205 H   0  0  0  0  0  0  0  0  0  0  0  0
   57.4210   31.6610   42.5740 C   0  0  0  0  0  0  0  0  0  0  0  0
   57.1964   31.5357   41.5045 H   0  0  0  0  0  0  0  0  0  0  0  0
   57.1510   30.6150   43.4700 C   0  0  0  0  0  0  0  0  0  0  0  0
   56.5610   29.3260   42.9710 C   0  0  0  0  0  0  0  0  0  0  0  0
   56.2737   28.6984   43.8275 H   0  0  0  0  0  0  0  0  0  0  0  0
   55.6720   29.5419   42.3601 H   0  0  0  0  0  0  0  0  0  0  0  0
   57.3054   28.7943   42.3601 H   0  0  0  0  0  0  0  0  0  0  0  0
   58.0790   27.6640   46.6160 C   0  0  0  0  0  0  0  0  0  0  0  0
   57.0490   26.8610   45.8580 C   0  0  0  0  0  0  0  0  0  0  0  0
   55.9310   27.6440   45.6310 F   0  0  0  0  0  0  0  0  0  0  0  0
   56.6820   25.7550   46.6020 F   0  0  0  0  0  0  0  0  0  0  0  0
   57.5370   26.4250   44.6380 F   0  0  0  0  0  0  0  0  0  0  0  0
   59.0630   27.0440   47.4010 C   0  0  0  0  0  0  0  0  0  0  0  0
   59.0873   25.9472   47.4807 H   0  0  0  0  0  0  0  0  0  0  0  0
   59.9870   27.7900   48.0640 N   0  0  0  0  0  0  0  0  0  0  0  0
   60.7240   27.2790   48.5970 H   0  0  0  0  0  0  0  0  0  0  0  0
   62.6000   31.3770   47.7390 C   0  0  0  0  0  0  0  0  0  0  0  0
   63.2822   30.5155   47.6900 H   0  0  0  0  0  0  0  0  0  0  0  0
  1  2  1  0
  2  3  2  0
  3  4  1  0
  3  5  1  0
  5  6  1  0
  5  7  2  0
  7  8  1  0
  7  9  1  0
  9 10  1  0
 10 11  2  0
 11 12  1  0
 12 13  2  0
 13 14  1  0
 14 15  1  0
 15 16  2  0
 16 17  1  0
 16 18  1  0
 18 19  1  0
 19 20  1  0
 19 21  1  0
 19 22  1  0
 18 23  2  0
 23 24  1  0
 23 25  1  0
 25 26  1  0
 25 27  2  0
 27 28  1  0
 28 29  1  0
 28 30  1  0
 28 31  1  0
 13 32  1  0
 32 33  1  0
 33 34  1  0
 33 35  1  0
 33 36  1  0
 32 37  2  0
 37 38  1  0
 37 39  1  0
 39 40  1  0
  9 41  2  0
 41 42  1  0
 41  2  1  0
 39 11  1  0
 27 15  1  0
M  END
>  <UniqueID>  (1) 
1

>  <SMILES>  (1) 
Cc1ccc(C)c(Oc2n/c(=N/c3cccc(F)c3)[nH]cc2C(F)(F)F)c1

>  <Energy>  (1) 
58.196307059080986

>  <Genealogy>  (1) 
Cc1ccc(C)c(Oc2n/c(=N/c3cccc(F)c3)[nH]cc2C(F)(F)F)c1 (cis-trans isomerization)
Cc1ccc(C)c(Oc2n/c(=N/c3cccc(F)c3)[nH]cc2C(F)(F)F)c1 (3D coordinates assigned)
Cc1ccc(C)c(Oc2n/c(=N/c3cccc(F)c3)[nH]cc2C(F)(F)F)c1 (optimized conformer: 58.196307059080986 kcal/mol)

>  <smiles>  (1) 
Cc1ccc(C)c(Oc2nc(=Nc3cccc(F)c3)[nH]cc2C(F)(F)F)c1

>  <score_type>  (1) 
oracle

>  <origin>  (1) 
adg

>  <m_score__min__energy>  (1) 
-7.2199999999999998

>  <m_primary>  (1) 
energy

$$$$
1:0
     RDKit          3D

 58 60  0  0  0  0  0  0  0  0999 V2000
   61.7660   29.3680   50.8210 C   0  0  0  0  0  0  0  0  0  0  0  0
   60.3840   28.9940   50.2900 C   0  0  0  0  0  0  0  0  0  0  0  0
   59.7490   30.1220   49.7150 O   0  0  0  0  0  0  0  0  0  0  0  0
   58.6140   30.4920   50.4710 C   0  0  0  0  0  0  0  0  0  0  0  0
   58.3900   31.9930   50.3250 C   0  0  0  0  0  0  0  0  0  0  0  0
   59.2380   32.4890   49.3080 O   0  0  0  0  0  0  0  0  0  0  0  0
   59.8050   33.7320   49.6810 C   0  0  0  0  0  0  0  0  0  0  0  0
   61.2880   33.7920   49.2980 C   0  0  0  0  0  0  0  0  0  0  0  0
   61.9140   32.4650   49.3990 N   0  0  0  0  0  0  0  0  0  0  0  0
   62.7390   32.1310   48.2210 C   0  0  0  0  0  0  0  0  0  0  0  0
   61.9510   31.3960   47.1200 C   0  0  0  0  0  0  0  0  0  0  0  0
   60.5970   31.0270   47.5640 N   0  0  0  0  0  0  0  0  0  0  0  0
   59.6880   30.9750   46.4270 C   0  0  0  0  0  0  0  0  0  0  0  0
   59.3260   29.7320   45.8440 C   0  0  0  0  0  0  0  0  0  0  0  0
   59.9230   28.5140   46.2560 C   0  0  0  0  0  0  0  0  0  0  0  0
   59.4990   27.2930   45.7400 C   0  0  0  0  0  0  0  0  0  0  0  0
   58.4690   27.2500   44.8130 C   0  0  0  0  0  0  0  0  0  0  0  0
   57.8940   28.4320   44.3550 C   0  0  0  0  0  0  0  0  0  0  0  0
   58.3430   29.6980   44.8140 C   0  0  0  0  0  0  0  0  0  0  0  0
   57.8390   30.8720   44.2900 N   0  0  0  0  0  0  0  0  0  0  0  0
   57.0490   30.8380   43.0360 C   0  0  0  0  0  0  0  0  0  0  0  0
   58.1140   32.0810   44.8970 C   0  0  0  0  0  0  0  0  0  0  0  0
   57.4200   33.2650   44.5310 C   0  0  0  0  0  0  0  0  0  0  0  0
   57.7710   34.5010   45.0660 C   0  0  0  0  0  0  0  0  0  0  0  0
   58.8130   34.5940   45.9750 C   0  0  0  0  0  0  0  0  0  0  0  0
   59.4750   33.4440   46.4010 C   0  0  0  0  0  0  0  0  0  0  0  0
   59.1010   32.1650   45.9180 C   0  0  0  0  0  0  0  0  0  0  0  0
   61.7497   29.3636   51.9209 H   0  0  0  0  0  0  0  0  0  0  0  0
   62.5065   28.6380   50.4623 H   0  0  0  0  0  0  0  0  0  0  0  0
   62.0373   30.3719   50.4623 H   0  0  0  0  0  0  0  0  0  0  0  0
   60.4904   28.2102   49.5256 H   0  0  0  0  0  0  0  0  0  0  0  0
   59.7696   28.6290   51.1262 H   0  0  0  0  0  0  0  0  0  0  0  0
   57.7314   29.9494   50.1013 H   0  0  0  0  0  0  0  0  0  0  0  0
   58.7739   30.2407   51.5299 H   0  0  0  0  0  0  0  0  0  0  0  0
   57.3407   32.1847   50.0562 H   0  0  0  0  0  0  0  0  0  0  0  0
   58.6171   32.4966   51.2762 H   0  0  0  0  0  0  0  0  0  0  0  0
   59.2670   34.5422   49.1671 H   0  0  0  0  0  0  0  0  0  0  0  0
   59.7182   33.8454   50.7717 H   0  0  0  0  0  0  0  0  0  0  0  0
   61.3776   34.1539   48.2631 H   0  0  0  0  0  0  0  0  0  0  0  0
   61.8011   34.4745   49.9915 H   0  0  0  0  0  0  0  0  0  0  0  0
   61.1700   31.7450   49.5530 H   0  0  0  0  0  0  0  0  0  0  0  0
   63.1417   33.0639   47.7998 H   0  0  0  0  0  0  0  0  0  0  0  0
   63.5369   31.4542   48.5606 H   0  0  0  0  0  0  0  0  0  0  0  0
   61.8699   32.0537   46.2420 H   0  0  0  0  0  0  0  0  0  0  0  0
   62.4924   30.4703   46.8750 H   0  0  0  0  0  0  0  0  0  0  0  0
   60.2530   31.6910   48.2910 H   0  0  0  0  0  0  0  0  0  0  0  0
   60.6100   30.1160   48.0700 H   0  0  0  0  0  0  0  0  0  0  0  0
   60.7359   28.5343   46.9968 H   0  0  0  0  0  0  0  0  0  0  0  0
   59.9818   26.3607   46.0681 H   0  0  0  0  0  0  0  0  0  0  0  0
   58.1060   26.2812   44.4392 H   0  0  0  0  0  0  0  0  0  0  0  0
   57.0749   28.3841   43.6224 H   0  0  0  0  0  0  0  0  0  0  0  0
   55.9772   30.7919   43.2790 H   0  0  0  0  0  0  0  0  0  0  0  0
   57.2532   31.7458   42.4493 H   0  0  0  0  0  0  0  0  0  0  0  0
   57.3304   29.9511   42.4493 H   0  0  0  0  0  0  0  0  0  0  0  0
   56.5900   33.2040   43.8117 H   0  0  0  0  0  0  0  0  0  0  0  0
   57.2206   35.4052   44.7670 H   0  0  0  0  0  0  0  0  0  0  0  0
   59.1182   35.5777   46.3611 H   0  0  0  0  0  0  0  0  0  0  0  0
   60.3003   33.5302   47.1231 H   0  0  0  0  0  0  0  0  0  0  0  0
  1  2  1  0
  2  3  1  0
  3  4  1  0
  4  5  1  0
  5  6  1  0
  6  7  1  0
  7  8  1  0
  8  9  1  0
  9 10  1  0
 10 11  1  0
 11 12  1  0
 12 13  1  0
 13 14  2  0
 14 15  1  0
 15 16  2  0
 16 17  1  0
 17 18  2  0
 18 19  1  0
 19 20  2  0
 20 21  1  0
 20 22  1  0
 22 23  2  0
 23 24  1  0
 24 25  2  0
 25 26  1  0
 26 27  2  0
 27 13  1  0
 19 14  1  0
 27 22  1  0
  1 28  1  0
  1 29  1  0
  1 30  1  0
  2 31  1  0
  2 32  1  0
  4 33  1  0
  4 34  1  0
  5 35  1  0
  5 36  1  0
  7 37  1  0
  7 38  1  0
  8 39  1  0
  8 40  1  0
  9 41  1  0
 10 42  1  0
 10 43  1  0
 11 44  1  0
 11 45  1  0
 12 46  1  0
 12 47  1  0
 15 48  1  0
 16 49  1  0
 17 50  1  0
 18 51  1  0
 21 52  1  0
 21 53  1  0
 21 54  1  0
 23 55  1  0
 24 56  1  0
 25 57  1  0
 26 58  1  0
M  CHG  2  12   1  20   1
M  END
>  <UniqueID>  (2) 
2

>  <SMILES>  (2) 
CCOCCOCCNCC[NH2+]c1c2ccccc2[n+](C)c2ccccc12

>  <Energy>  (2) 
87.3194995420752

>  <Genealogy>  (2) 
CCOCCOCCNCC[NH2+]c1c2ccccc2[n+](C)c2ccccc12 (protonated)
CCOCCOCCNCC[NH2+]c1c2ccccc2[n+](C)c2ccccc12 (3D coordinates assigned)
CCOCCOCCNCC[NH2+]c1c2ccccc2[n+](C)c2ccccc12 (optimized conformer: 87.3194995420752 kcal/mol)

>  <smiles>  (2) 
CCOCCOCCNCCNc1c2ccccc2[n+](C)c2ccccc12

>  <score_type>  (2) 
oracle

>  <origin>  (2) 
adg

>  <m_score__min__energy>  (2) 
-2.8500000000000001

>  <m_primary>  (2) 
energy

$$$$
2:0
     RDKit          3D

 34 35  0  0  0  0  0  0  0  0999 V2000
   60.2265   36.3364   46.1248 H   0  0  0  0  0  0  0  0  0  0  0  0
   59.6420   35.4050   46.0960 C   0  0  0  0  0  0  0  0  0  0  0  0
   59.3980   34.6960   47.2760 C   0  0  0  0  0  0  0  0  0  0  0  0
   59.7915   35.0696   48.2329 H   0  0  0  0  0  0  0  0  0  0  0  0
   58.6540   33.5120   47.2410 C   0  0  0  0  0  0  0  0  0  0  0  0
   58.4634   32.9558   48.1707 H   0  0  0  0  0  0  0  0  0  0  0  0
   58.1490   33.0310   46.0190 C   0  0  0  0  0  0  0  0  0  0  0  0
   57.4030   31.8530   45.9430 O   0  0  0  0  0  0  0  0  0  0  0  0
   57.8980   30.6440   46.3870 N   0  0  0  0  0  0  0  0  0  0  0  0
   58.2750   29.7140   45.5620 C   0  0  0  0  0  0  0  0  0  0  0  0
   59.7180   29.6340   45.1520 C   0  0  0  0  0  0  0  0  0  0  0  0
   60.3078   30.3205   45.7772 H   0  0  0  0  0  0  0  0  0  0  0  0
   59.7959   29.9140   44.0911 H   0  0  0  0  0  0  0  0  0  0  0  0
   60.2640   28.2040   45.3220 C   0  0  0  0  0  0  0  0  0  0  0  0
   60.5782   28.0780   46.3686 H   0  0  0  0  0  0  0  0  0  0  0  0
   61.0949   28.0986   44.6089 H   0  0  0  0  0  0  0  0  0  0  0  0
   59.2480   27.0870   44.9840 C   0  0  0  0  0  0  0  0  0  0  0  0
   58.9029   26.6312   45.9238 H   0  0  0  0  0  0  0  0  0  0  0  0
   59.7620   26.3595   44.3387 H   0  0  0  0  0  0  0  0  0  0  0  0
   58.0250   27.6010   44.2120 C   0  0  0  0  0  0  0  0  0  0  0  0
   57.3341   26.7641   44.0323 H   0  0  0  0  0  0  0  0  0  0  0  0
   58.3648   28.0286   43.2572 H   0  0  0  0  0  0  0  0  0  0  0  0
   57.2940   28.6970   45.0120 C   0  0  2  0  0  0  0  0  0  0  0  0
   56.7862   28.2214   45.8641 H   0  0  0  0  0  0  0  0  0  0  0  0
   56.2550   29.3740   44.1450 C   0  0  0  0  0  0  0  0  0  0  0  0
   55.0780   29.3530   44.4780 O   0  0  0  0  0  0  0  0  0  0  0  0
   56.6350   30.0680   42.8700 C   0  0  0  0  0  0  0  0  0  0  0  0
   57.1511   31.0105   43.1053 H   0  0  0  0  0  0  0  0  0  0  0  0
   57.3040   29.4198   42.2850 H   0  0  0  0  0  0  0  0  0  0  0  0
   55.7285   30.2825   42.2850 H   0  0  0  0  0  0  0  0  0  0  0  0
   58.3990   33.7470   44.8420 C   0  0  0  0  0  0  0  0  0  0  0  0
   58.0078   33.3766   43.8829 H   0  0  0  0  0  0  0  0  0  0  0  0
   59.1430   34.9300   44.8790 C   0  0  0  0  0  0  0  0  0  0  0  0
   59.3360   35.4874   43.9505 H   0  0  0  0  0  0  0  0  0  0  0  0
  1  2  1  0
  2  3  2  0
  3  4  1  0
  3  5  1  0
  5  6  1  0
  5  7  2  0
  7  8  1  0
  8  9  1  0
  9 10  2  0
 10 11  1  0
 11 12  1  0
 11 13  1  0
 11 14  1  0
 14 15  1  0
 14 16  1  0
 14 17  1  0
 17 18  1  0
 17 19  1  0
 17 20  1  0
 20 21  1  0
 20 22  1  0
 20 23  1  0
 23 24  1  1
 23 25  1  0
 25 26  2  0
 25 27  1  0
 27 28  1  0
 27 29  1  0
 27 30  1  0
  7 31  1  0
 31 32  1  0
 31 33  2  0
 33 34  1  0
 33  2  1  0
 23 10  1  0
M  END
>  <UniqueID>  (3) 
3

>  <SMILES>  (3) 
CC(=O)[C@H]1CCCC/C1=N/Oc1ccccc1

>  <Energy>  (3) 
29.444202730984344

>  <Genealogy>  (3) 
CC(=O)[C@H]1CCCCC1=NOc1ccccc1 (chirality)
CC(=O)[C@H]1CCCC/C1=N/Oc1ccccc1 (cis-trans isomerization)
CC(=O)[C@H]1CCCC/C1=N/Oc1ccccc1 (3D coordinates assigned)
CC(=O)[C@H]1CCCC/C1=N/Oc1ccccc1 (nonaromatic ring conformer: 29.444202730984344 kcal/mol)

>  <smiles>  (3) 
CC(=O)C1CCCCC1=NOc1ccccc1

>  <score_type>  (3) 
oracle

>  <origin>  (3) 
adg

>  <m_score__min__energy>  (3) 
-7.7599999999999998

>  <m_primary>  (3) 
energy

$$$$
3:0
     RDKit          3D

 50 52  0  0  0  0  0  0  0  0999 V2000
   62.1870   31.2110   47.4550 C   0  0  0  0  0  0  0  0  0  0  0  0
   61.2800   31.2730   48.6810 C   0  0  0  0  0  0  0  0  0  0  0  0
   60.2150   30.2500   48.6000 N   0  0  0  0  0  0  0  0  0  0  0  0
   58.9160   30.5760   49.2480 C   0  0  0  0  0  0  0  0  0  0  0  0
   58.7880   32.0160   49.7730 C   0  0  0  0  0  0  0  0  0  0  0  0
   60.6880   28.8650   48.8200 C   0  0  0  0  0  0  0  0  0  0  0  0
   59.6440   27.8000   48.4320 C   0  0  0  0  0  0  0  0  0  0  0  0
   58.6490   28.3120   47.4740 N   0  0  0  0  0  0  0  0  0  0  0  0
   58.1750   27.2850   46.5300 C   0  0  0  0  0  0  0  0  0  0  0  0
   58.6780   27.5780   45.1100 C   0  0  0  0  0  0  0  0  0  0  0  0
   57.9240   28.7210   44.4790 C   0  0  0  0  0  0  0  0  0  0  0  0
   57.1100   28.4910   43.3980 N   0  0  0  0  0  0  0  0  0  0  0  0
   56.4790   29.5080   42.7290 C   0  0  0  0  0  0  0  0  0  0  0  0
   56.6580   30.8440   43.1220 C   0  0  0  0  0  0  0  0  0  0  0  0
   57.4860   31.0760   44.2130 C   0  0  0  0  0  0  0  0  0  0  0  0
   58.1050   30.0480   44.8910 C   0  0  0  0  0  0  0  0  0  0  0  0
   58.9030   30.5200   45.8780 N   0  0  0  0  0  0  0  0  0  0  0  0
   58.7750   31.8630   45.8130 C   0  0  0  0  0  0  0  0  0  0  0  0
   59.4180   32.8100   46.6090 C   0  0  0  0  0  0  0  0  0  0  0  0
   59.1610   34.1690   46.3550 C   0  0  0  0  0  0  0  0  0  0  0  0
   58.2790   34.5520   45.3190 C   0  0  0  0  0  0  0  0  0  0  0  0
   57.6450   33.5790   44.5250 C   0  0  0  0  0  0  0  0  0  0  0  0
   57.9130   32.2410   44.8040 C   0  0  0  0  0  0  0  0  0  0  0  0
   63.2360   31.1393   47.7782 H   0  0  0  0  0  0  0  0  0  0  0  0
   61.9281   30.3285   46.8516 H   0  0  0  0  0  0  0  0  0  0  0  0
   62.0506   32.1206   46.8516 H   0  0  0  0  0  0  0  0  0  0  0  0
   61.8822   31.0956   49.5842 H   0  0  0  0  0  0  0  0  0  0  0  0
   60.8109   32.2671   48.7221 H   0  0  0  0  0  0  0  0  0  0  0  0
   58.1170   30.4107   48.5103 H   0  0  0  0  0  0  0  0  0  0  0  0
   58.8428   29.9225   50.1298 H   0  0  0  0  0  0  0  0  0  0  0  0
   58.7888   32.0067   50.8730 H   0  0  0  0  0  0  0  0  0  0  0  0
   59.6364   32.6151   49.4108 H   0  0  0  0  0  0  0  0  0  0  0  0
   57.8472   32.4561   49.4108 H   0  0  0  0  0  0  0  0  0  0  0  0
   61.5931   28.7042   48.2159 H   0  0  0  0  0  0  0  0  0  0  0  0
   60.8855   28.7533   49.8963 H   0  0  0  0  0  0  0  0  0  0  0  0
   60.1645   26.9443   47.9773 H   0  0  0  0  0  0  0  0  0  0  0  0
   59.1086   27.5062   49.3469 H   0  0  0  0  0  0  0  0  0  0  0  0
   57.8350   28.7180   47.9920 H   0  0  0  0  0  0  0  0  0  0  0  0
   58.5490   26.3011   46.8495 H   0  0  0  0  0  0  0  0  0  0  0  0
   57.0750   27.2922   46.5234 H   0  0  0  0  0  0  0  0  0  0  0  0
   59.7461   27.8371   45.1560 H   0  0  0  0  0  0  0  0  0  0  0  0
   58.5178   26.6795   44.4960 H   0  0  0  0  0  0  0  0  0  0  0  0
   56.9730   27.5130   43.0550 H   0  0  0  0  0  0  0  0  0  0  0  0
   55.8256   29.2747   41.8754 H   0  0  0  0  0  0  0  0  0  0  0  0
   56.1644   31.6704   42.5896 H   0  0  0  0  0  0  0  0  0  0  0  0
   59.5100   29.9800   46.5330 H   0  0  0  0  0  0  0  0  0  0  0  0
   60.1054   32.5034   47.4112 H   0  0  0  0  0  0  0  0  0  0  0  0
   59.6504   34.9404   46.9677 H   0  0  0  0  0  0  0  0  0  0  0  0
   58.0869   35.6189   45.1322 H   0  0  0  0  0  0  0  0  0  0  0  0
   56.9614   33.8650   43.7121 H   0  0  0  0  0  0  0  0  0  0  0  0
  1  2  1  0
  2  3  1  0
  3  4  1  0
  4  5  1  0
  3  6  1  0
  6  7  1  0
  7  8  1  0
  8  9  1  0
  9 10  1  0
 10 11  1  0
 11 12  2  0
 12 13  1  0
 13 14  2  0
 14 15  1  0
 15 16  2  0
 16 17  1  0
 17 18  1  0
 18 19  2  0
 19 20  1  0
 20 21  2  0
 21 22  1  0
 22 23  2  0
 16 11  1  0
 23 18  1  0
 23 15  1  0
  1 24  1  0
  1 25  1  0
  1 26  1  0
  2 27  1  0
  2 28  1  0
  4 29  1  0
  4 30  1  0
  5 31  1  0
  5 32  1  0
  5 33  1  0
  6 34  1  0
  6 35  1  0
  7 36  1  0
  7 37  1  0
  8 38  1  0
  9 39  1  0
  9 40  1  0
 10 41  1  0
 10 42  1  0
 12 43  1  0
 13 44  1  0
 14 45  1  0
 17 46  1  0
 19 47  1  0
 20 48  1  0
 21 49  1  0
 22 50  1  0
M  CHG  1  12   1
M  END
>  <UniqueID>  (4) 
4

>  <SMILES>  (4) 
CCN(CC)CCNCCc1[nH+]ccc2c1[nH]c1ccccc12

>  <Energy>  (4) 
94.53778642685519

>  <Genealogy>  (4) 
CCN(CC)CCNCCc1[nH+]ccc2c1[nH]c1ccccc12 (protonated)
CCN(CC)CCNCCc1[nH+]ccc2c1[nH]c1ccccc12 (3D coordinates assigned)
CCN(CC)CCNCCc1[nH+]ccc2c1[nH]c1ccccc12 (optimized conformer: 94.53778642685519 kcal/mol)

>  <smiles>  (4) 
CCN(CC)CCNCCc1nccc2c1[nH]c1ccccc12

>  <score_type>  (4) 
oracle

>  <origin>  (4) 
adg

>  <m_score__min__energy>  (4) 
-5.2800000000000002

>  <m_primary>  (4) 
energy

$$$$
4:0
     RDKit          3D

 37 39  0  0  0  0  0  0  0  0999 V2000
   55.8930   29.7140   43.0120 C   0  0  0  0  0  0  0  0  0  0  0  0
   55.8100   29.3730   44.4960 C   0  0  0  0  0  0  0  0  0  0  0  0
   57.1380   29.0620   45.0370 N   0  0  0  0  0  0  0  0  0  0  0  0
   58.2820   29.7890   44.9120 C   0  0  0  0  0  0  0  0  0  0  0  0
   58.4090   31.3390   44.0100 S   0  0  0  0  0  0  0  0  0  0  0  0
   57.4080   32.3110   45.1920 C   0  0  0  0  0  0  0  0  0  0  0  0
   58.2840   33.1140   46.1200 C   0  0  0  0  0  0  0  0  0  0  0  0
   58.7660   34.3750   45.7190 C   0  0  0  0  0  0  0  0  0  0  0  0
   58.4300   34.8900   44.5100 F   0  0  0  0  0  0  0  0  0  0  0  0
   59.6010   35.1110   46.5660 C   0  0  0  0  0  0  0  0  0  0  0  0
   59.9650   34.5970   47.8130 C   0  0  0  0  0  0  0  0  0  0  0  0
   59.4940   33.3460   48.2180 C   0  0  0  0  0  0  0  0  0  0  0  0
   58.6570   32.6040   47.3790 C   0  0  0  0  0  0  0  0  0  0  0  0
   58.2230   31.3860   47.7920 F   0  0  0  0  0  0  0  0  0  0  0  0
   59.3590   29.2150   45.5070 N   0  0  0  0  0  0  0  0  0  0  0  0
   58.8410   28.0930   46.0360 C   0  0  0  0  0  0  0  0  0  0  0  0
   59.4970   27.1180   46.7670 C   0  0  0  0  0  0  0  0  0  0  0  0
   58.7660   26.0480   47.1950 N   0  0  0  0  0  0  0  0  0  0  0  0
   57.4540   25.9220   46.9270 N   0  0  0  0  0  0  0  0  0  0  0  0
   56.7500   24.7400   47.4210 C   0  0  0  0  0  0  0  0  0  0  0  0
   56.7880   26.8810   46.1990 C   0  0  0  0  0  0  0  0  0  0  0  0
   55.5610   26.7580   45.9350 O   0  0  0  0  0  0  0  0  0  0  0  0
   57.5170   27.9880   45.7590 C   0  0  0  0  0  0  0  0  0  0  0  0
   56.1516   30.7766   42.8939 H   0  0  0  0  0  0  0  0  0  0  0  0
   56.6663   29.0933   42.5358 H   0  0  0  0  0  0  0  0  0  0  0  0
   54.9209   29.5181   42.5358 H   0  0  0  0  0  0  0  0  0  0  0  0
   55.3917   30.2326   45.0402 H   0  0  0  0  0  0  0  0  0  0  0  0
   55.1653   28.4902   44.6182 H   0  0  0  0  0  0  0  0  0  0  0  0
   56.7567   32.9971   44.6307 H   0  0  0  0  0  0  0  0  0  0  0  0
   56.8093   31.6135   45.7962 H   0  0  0  0  0  0  0  0  0  0  0  0
   59.9720   36.0970   46.2495 H   0  0  0  0  0  0  0  0  0  0  0  0
   60.6229   35.1778   48.4762 H   0  0  0  0  0  0  0  0  0  0  0  0
   59.7825   32.9432   49.2001 H   0  0  0  0  0  0  0  0  0  0  0  0
   60.5698   27.2025   46.9950 H   0  0  0  0  0  0  0  0  0  0  0  0
   56.7528   24.7446   48.5210 H   0  0  0  0  0  0  0  0  0  0  0  0
   55.7121   24.7525   47.0569 H   0  0  0  0  0  0  0  0  0  0  0  0
   57.2554   23.8334   47.0569 H   0  0  0  0  0  0  0  0  0  0  0  0
  1  2  1  0
  2  3  1  0
  3  4  1  0
  4  5  1  0
  5  6  1  0
  6  7  1  0
  7  8  2  0
  8  9  1  0
  8 10  1  0
 10 11  2  0
 11 12  1  0
 12 13  2  0
 13 14  1  0
  4 15  2  0
 15 16  1  0
 16 17  1  0
 17 18  2  0
 18 19  1  0
 19 20  1  0
 19 21  1  0
 21 22  2  0
 21 23  1  0
 23  3  1  0
 13  7  1  0
 23 16  2  0
  1 24  1  0
  1 25  1  0
  1 26  1  0
  2 27  1  0
  2 28  1  0
  6 29  1  0
  6 30  1  0
 10 31  1  0
 11 32  1  0
 12 33  1  0
 17 34  1  0
 20 35  1  0
 20 36  1  0
 20 37  1  0
M  END
>  <UniqueID>  (5) 
5

>  <SMILES>  (5) 
CCn1c(SCc2c(F)cccc2F)nc2cnn(C)c(=O)c21

>  <Energy>  (5) 
73.3736738858014

>  <Genealogy>  (5) 
CCn1c(SCc2c(F)cccc2F)nc2cnn(C)c(=O)c21 (3D coordinates assigned)
CCn1c(SCc2c(F)cccc2F)nc2cnn(C)c(=O)c21 (optimized conformer: 73.3736738858014 kcal/mol)

>  <smiles>  (5) 
CCn1c(SCc2c(F)cccc2F)nc2cnn(C)c(=O)c21

>  <score_type>  (5) 
oracle

>  <origin>  (5) 
adg

>  <m_score__min__energy>  (5) 
-6.96

>  <m_primary>  (5) 
energy

$$$$
5:0
     RDKit          3D

 42 44  0  0  0  0  0  0  0  0999 V2000
   59.0060   34.9240   44.9000 C   0  0  0  0  0  0  0  0  0  0  0  0
   58.3980   33.7220   44.1920 C   0  0  0  0  0  0  0  0  0  0  0  0
   57.6940   32.8560   45.1490 N   0  0  0  0  0  0  0  0  0  0  0  0
   57.1800   33.4390   46.4030 C   0  0  0  0  0  0  0  0  0  0  0  0
   58.0450   33.0570   47.6090 C   0  0  0  0  0  0  0  0  0  0  0  0
   59.0190   34.0660   47.8750 O   0  0  0  0  0  0  0  0  0  0  0  0
   60.3930   33.8130   48.0410 C   0  0  0  0  0  0  0  0  0  0  0  0
   61.2860   33.8550   46.9530 C   0  0  0  0  0  0  0  0  0  0  0  0
   62.6450   33.6140   47.1390 C   0  0  0  0  0  0  0  0  0  0  0  0
   63.1450   33.3250   48.4120 C   0  0  0  0  0  0  0  0  0  0  0  0
   64.5170   33.0870   48.5910 C   0  0  0  0  0  0  0  0  0  0  0  0
   65.0210   32.7970   49.8600 C   0  0  0  0  0  0  0  0  0  0  0  0
   64.1620   32.7390   50.9570 C   0  0  0  0  0  0  0  0  0  0  0  0
   62.7940   32.9750   50.7960 C   0  0  0  0  0  0  0  0  0  0  0  0
   62.2650   33.2720   49.5220 C   0  0  0  0  0  0  0  0  0  0  0  0
   60.8830   33.5170   49.3270 C   0  0  0  0  0  0  0  0  0  0  0  0
   59.6330   33.4440   50.7900 Br  0  0  0  0  0  0  0  0  0  0  0  0
   57.5090   31.4580   44.8290 C   0  0  0  0  0  0  0  0  0  0  0  0
   58.5830   30.5490   44.8530 C   0  0  0  0  0  0  0  0  0  0  0  0
   58.3610   29.2090   44.5280 C   0  0  0  0  0  0  0  0  0  0  0  0
   57.0780   28.7780   44.1950 C   0  0  0  0  0  0  0  0  0  0  0  0
   56.0300   29.6990   44.1940 C   0  0  0  0  0  0  0  0  0  0  0  0
   56.2650   31.0020   44.5080 N   0  0  0  0  0  0  0  0  0  0  0  0
   58.9347   34.7831   45.9886 H   0  0  0  0  0  0  0  0  0  0  0  0
   60.0628   35.0235   44.6116 H   0  0  0  0  0  0  0  0  0  0  0  0
   58.4599   35.8343   44.6116 H   0  0  0  0  0  0  0  0  0  0  0  0
   57.6854   34.0735   43.4313 H   0  0  0  0  0  0  0  0  0  0  0  0
   59.2060   33.1437   43.7201 H   0  0  0  0  0  0  0  0  0  0  0  0
   57.1683   34.5347   46.3069 H   0  0  0  0  0  0  0  0  0  0  0  0
   56.1673   33.0442   46.5718 H   0  0  0  0  0  0  0  0  0  0  0  0
   57.3998   32.9370   48.4918 H   0  0  0  0  0  0  0  0  0  0  0  0
   58.5662   32.1147   47.3843 H   0  0  0  0  0  0  0  0  0  0  0  0
   60.9062   34.0805   45.9456 H   0  0  0  0  0  0  0  0  0  0  0  0
   63.3294   33.6513   46.2786 H   0  0  0  0  0  0  0  0  0  0  0  0
   65.1975   33.1292   47.7278 H   0  0  0  0  0  0  0  0  0  0  0  0
   66.0973   32.6140   49.9949 H   0  0  0  0  0  0  0  0  0  0  0  0
   64.5633   32.5062   51.9544 H   0  0  0  0  0  0  0  0  0  0  0  0
   62.1252   32.9289   51.6681 H   0  0  0  0  0  0  0  0  0  0  0  0
   59.5918   30.8920   45.1262 H   0  0  0  0  0  0  0  0  0  0  0  0
   59.1975   28.4947   44.5348 H   0  0  0  0  0  0  0  0  0  0  0  0
   56.8940   27.7248   43.9362 H   0  0  0  0  0  0  0  0  0  0  0  0
   55.0115   29.3711   43.9388 H   0  0  0  0  0  0  0  0  0  0  0  0
  1  2  1  0
  2  3  1  0
  3  4  1  0
  4  5  1  0
  5  6  1  0
  6  7  1  0
  7  8  2  0
  8  9  1  0
  9 10  2  0
 10 11  1  0
 11 12  2  0
 12 13  1  0
 13 14  2  0
 14 15  1  0
 15 16  2  0
 16 17  1  0
  3 18  1  0
 18 19  2  0
 19 20  1  0
 20 21  2  0
 21 22  1  0
 22 23  2  0
 16  7  1  0
 23 18  1  0
 15 10  1  0
  1 24  1  0
  1 25  1  0
  1 26  1  0
  2 27  1  0
  2 28  1  0
  4 29  1  0
  4 30  1  0
  5 31  1  0
  5 32  1  0
  8 33  1  0
  9 34  1  0
 11 35  1  0
 12 36  1  0
 13 37  1  0
 14 38  1  0
 19 39  1  0
 20 40  1  0
 21 41  1  0
 22 42  1  0
M  END
>  <UniqueID>  (6) 
6

>  <SMILES>  (6) 
CCN(CCOc1ccc2ccccc2c1Br)c1ccccn1

>  <Energy>  (6) 
46.59637903971963

>  <Genealogy>  (6) 
CCN(CCOc1ccc2ccccc2c1Br)c1ccccn1 (3D coordinates assigned)
CCN(CCOc1ccc2ccccc2c1Br)c1ccccn1 (optimized conformer: 46.59637903971963 kcal/mol)

>  <smiles>  (6) 
CCN(CCOc1ccc2ccccc2c1Br)c1ccccn1

>  <score_type>  (6) 
oracle

>  <origin>  (6) 
adg

>  <m_score__min__energy>  (6) 
-7.6200000000000001

>  <m_primary>  (6) 
energy

$$$$
6:0
     RDKit          3D

 56 59  0  0  0  0  0  0  0  0999 V2000
   63.8580   32.0310   48.9460 C   0  0  0  0  0  0  0  0  0  0  0  0
   62.6420   32.3960   48.1750 N   0  0  0  0  0  0  0  0  0  0  0  0
   62.1690   31.1660   47.4880 C   0  0  0  0  0  0  0  0  0  0  0  0
   61.5930   32.9090   49.1250 C   0  0  0  0  0  0  0  0  0  0  0  0
   60.8930   34.2000   48.6510 C   0  0  0  0  0  0  0  0  0  0  0  0
   60.5980   34.1320   47.2050 N   0  0  0  0  0  0  0  0  0  0  0  0
   59.6370   35.1790   46.7490 C   0  0  0  0  0  0  0  0  0  0  0  0
   59.2250   35.1960   45.2550 C   0  0  0  0  0  0  0  0  0  0  0  0
   59.0270   33.8120   44.6220 C   0  0  0  0  0  0  0  0  0  0  0  0
   57.7350   33.1350   45.1010 C   0  0  0  0  0  0  0  0  0  0  0  0
   57.9630   31.7150   45.4150 N   0  0  0  0  0  0  0  0  0  0  0  0
   57.6790   30.7030   44.4290 C   0  0  0  0  0  0  0  0  0  0  0  0
   57.1420   31.0210   43.3320 O   0  0  0  0  0  0  0  0  0  0  0  0
   58.0160   29.2870   44.7020 C   0  0  0  0  0  0  0  0  0  0  0  0
   57.7630   28.2950   43.7380 C   0  0  0  0  0  0  0  0  0  0  0  0
   58.0820   26.9610   43.9950 C   0  0  0  0  0  0  0  0  0  0  0  0
   58.6580   26.5940   45.2100 C   0  0  0  0  0  0  0  0  0  0  0  0
   58.9210   27.5660   46.1860 C   0  0  0  0  0  0  0  0  0  0  0  0
   59.5000   27.1980   47.4090 C   0  0  0  0  0  0  0  0  0  0  0  0
   59.7610   28.1640   48.3800 C   0  0  0  0  0  0  0  0  0  0  0  0
   59.4510   29.5030   48.1430 C   0  0  0  0  0  0  0  0  0  0  0  0
   58.8700   29.8980   46.9250 C   0  0  0  0  0  0  0  0  0  0  0  0
   58.6000   28.9260   45.9360 C   0  0  0  0  0  0  0  0  0  0  0  0
   58.5450   31.3200   46.6730 C   0  0  0  0  0  0  0  0  0  0  0  0
   58.7840   32.1860   47.5600 O   0  0  0  0  0  0  0  0  0  0  0  0
   61.8270   33.9970   46.3800 C   0  0  0  0  0  0  0  0  0  0  0  0
   63.0300   33.4210   47.1650 C   0  0  0  0  0  0  0  0  0  0  0  0
   63.6426   32.0957   50.0228 H   0  0  0  0  0  0  0  0  0  0  0  0
   64.1578   31.0033   48.6931 H   0  0  0  0  0  0  0  0  0  0  0  0
   64.6742   32.7237   48.6931 H   0  0  0  0  0  0  0  0  0  0  0  0
   61.8802   30.4151   48.2381 H   0  0  0  0  0  0  0  0  0  0  0  0
   61.3000   31.4086   46.8587 H   0  0  0  0  0  0  0  0  0  0  0  0
   62.9766   30.7639   46.8587 H   0  0  0  0  0  0  0  0  0  0  0  0
   60.8290   32.1278   49.2510 H   0  0  0  0  0  0  0  0  0  0  0  0
   62.1083   33.1538   50.0655 H   0  0  0  0  0  0  0  0  0  0  0  0
   59.9517   34.3254   49.2063 H   0  0  0  0  0  0  0  0  0  0  0  0
   61.5614   35.0538   48.8363 H   0  0  0  0  0  0  0  0  0  0  0  0
   60.0620   33.2400   47.0830 H   0  0  0  0  0  0  0  0  0  0  0  0
   58.7170   35.0563   47.3394 H   0  0  0  0  0  0  0  0  0  0  0  0
   60.1781   36.1259   46.8927 H   0  0  0  0  0  0  0  0  0  0  0  0
   58.2785   35.7497   45.1681 H   0  0  0  0  0  0  0  0  0  0  0  0
   60.0574   35.6669   44.7115 H   0  0  0  0  0  0  0  0  0  0  0  0
   58.9833   33.9254   43.5287 H   0  0  0  0  0  0  0  0  0  0  0  0
   59.8731   33.1778   44.9250 H   0  0  0  0  0  0  0  0  0  0  0  0
   57.3743   33.6488   46.0043 H   0  0  0  0  0  0  0  0  0  0  0  0
   56.9891   33.1981   44.2950 H   0  0  0  0  0  0  0  0  0  0  0  0
   57.3105   28.5725   42.7746 H   0  0  0  0  0  0  0  0  0  0  0  0
   57.8775   26.1939   43.2336 H   0  0  0  0  0  0  0  0  0  0  0  0
   58.9067   25.5401   45.4036 H   0  0  0  0  0  0  0  0  0  0  0  0
   59.7490   26.1442   47.6029 H   0  0  0  0  0  0  0  0  0  0  0  0
   60.2138   27.8685   49.3380 H   0  0  0  0  0  0  0  0  0  0  0  0
   59.6629   30.2567   48.9157 H   0  0  0  0  0  0  0  0  0  0  0  0
   61.6086   33.3276   45.5349 H   0  0  0  0  0  0  0  0  0  0  0  0
   62.1085   35.0067   46.0464 H   0  0  0  0  0  0  0  0  0  0  0  0
   63.7248   32.9588   46.4484 H   0  0  0  0  0  0  0  0  0  0  0  0
   63.4912   34.2569   47.7115 H   0  0  0  0  0  0  0  0  0  0  0  0
  1  2  1  0
  2  3  1  0
  2  4  1  0
  4  5  1  0
  5  6  1  0
  6  7  1  0
  7  8  1  0
  8  9  1  0
  9 10  1  0
 10 11  1  0
 11 12  1  0
 12 13  2  0
 12 14  1  0
 14 15  2  0
 15 16  1  0
 16 17  2  0
 17 18  1  0
 18 19  2  0
 19 20  1  0
 20 21  2  0
 21 22  1  0
 22 23  2  0
 22 24  1  0
 24 25  2  0
  6 26  1  0
 26 27  1  0
 27  2  1  0
 24 11  1  0
 23 14  1  0
 23 18  1  0
  1 28  1  0
  1 29  1  0
  1 30  1  0
  3 31  1  0
  3 32  1  0
  3 33  1  0
  4 34  1  0
  4 35  1  0
  5 36  1  0
  5 37  1  0
  6 38  1  0
  7 39  1  0
  7 40  1  0
  8 41  1  0
  8 42  1  0
  9 43  1  0
  9 44  1  0
 10 45  1  0
 10 46  1  0
 15 47  1  0
 16 48  1  0
 17 49  1  0
 19 50  1  0
 20 51  1  0
 21 52  1  0
 26 53  1  0
 26 54  1  0
 27 55  1  0
 27 56  1  0
M  CHG  2   2   1   6   1
M  END
>  <UniqueID>  (7) 
7

>  <SMILES>  (7) 
C[N+]1(C)CC[NH+](CCCCN2C(=O)c3cccc4cccc(c34)C2=O)CC1

>  <Energy>  (7) 
86.31655053699441

>  <Genealogy>  (7) 
C[N+]1(C)CC[NH+](CCCCN2C(=O)c3cccc4cccc(c34)C2=O)CC1 (protonated)
C[N+]1(C)CC[NH+](CCCCN2C(=O)c3cccc4cccc(c34)C2=O)CC1 (3D coordinates assigned)
C[N+]1(C)CC[NH+](CCCCN2C(=O)c3cccc4cccc(c34)C2=O)CC1 (nonaromatic ring conformer: 86.31655053699441 kcal/mol)

>  <smiles>  (7) 
C[N+]1(C)CCN(CCCCN2C(=O)c3cccc4cccc(c34)C2=O)CC1

>  <score_type>  (7) 
oracle

>  <origin>  (7) 
adg

>  <m_score__min__energy>  (7) 
-5.6500000000000004

>  <m_primary>  (7) 
energy

$$$$
7:0
     RDKit          3D

 46 47  0  0  0  0  0  0  0  0999 V2000
   64.2190   34.3610   51.8080 C   0  0  0  0  0  0  0  0  0  0  0  0
   63.2060   34.5430   50.6820 C   0  0  0  0  0  0  0  0  0  0  0  0
   63.2890   33.4120   49.7340 N   0  0  0  0  0  0  0  0  0  0  0  0
   63.7320   33.8450   48.3910 C   0  0  0  0  0  0  0  0  0  0  0  0
   63.2000   32.8920   47.2970 C   0  0  0  0  0  0  0  0  0  0  0  0
   61.7980   33.2690   46.7710 C   0  0  0  0  0  0  0  0  0  0  0  0
   61.0040   34.0560   47.7460 N   0  0  1  0  0  0  0  0  0  0  0  0
   59.7590   34.6070   47.1480 C   0  0  0  0  0  0  0  0  0  0  0  0
   59.0090   33.6480   46.2490 C   0  0  0  0  0  0  0  0  0  0  0  0
   58.5410   32.4230   46.7550 C   0  0  0  0  0  0  0  0  0  0  0  0
   57.8480   31.5330   45.9290 C   0  0  0  0  0  0  0  0  0  0  0  0
   57.5940   31.8620   44.5880 C   0  0  0  0  0  0  0  0  0  0  0  0
   56.8390   30.9150   43.6980 C   0  0  0  0  0  0  0  0  0  0  0  0
   56.4290   29.3720   44.5880 S   0  0  0  0  0  0  0  0  0  0  0  0
   57.5720   28.3040   43.6550 C   0  0  0  0  0  0  0  0  0  0  0  0
   58.0250   33.1020   44.0920 C   0  0  0  0  0  0  0  0  0  0  0  0
   58.7170   33.9920   44.9180 C   0  0  0  0  0  0  0  0  0  0  0  0
   60.8090   33.4410   49.0900 C   0  0  0  0  0  0  0  0  0  0  0  0
   62.0120   32.6640   49.6940 C   0  0  0  0  0  0  0  0  0  0  0  0
   63.7091   34.4526   52.7783 H   0  0  0  0  0  0  0  0  0  0  0  0
   64.6804   33.3656   51.7288 H   0  0  0  0  0  0  0  0  0  0  0  0
   64.9980   35.1336   51.7288 H   0  0  0  0  0  0  0  0  0  0  0  0
   62.1928   34.5865   51.1081 H   0  0  0  0  0  0  0  0  0  0  0  0
   63.4283   35.4777   50.1464 H   0  0  0  0  0  0  0  0  0  0  0  0
   63.3548   34.8601   48.1980 H   0  0  0  0  0  0  0  0  0  0  0  0
   64.8316   33.8301   48.3635 H   0  0  0  0  0  0  0  0  0  0  0  0
   63.9035   32.9073   46.4515 H   0  0  0  0  0  0  0  0  0  0  0  0
   63.1136   31.8953   47.7543 H   0  0  0  0  0  0  0  0  0  0  0  0
   61.9165   33.8646   45.8538 H   0  0  0  0  0  0  0  0  0  0  0  0
   61.2539   32.3313   46.5851 H   0  0  0  0  0  0  0  0  0  0  0  0
   61.5890   34.9070   47.9310 H   0  0  0  0  0  0  0  0  0  0  0  0
   59.0879   34.9038   47.9675 H   0  0  0  0  0  0  0  0  0  0  0  0
   60.0673   35.4505   46.5127 H   0  0  0  0  0  0  0  0  0  0  0  0
   58.7213   32.1627   47.8084 H   0  0  0  0  0  0  0  0  0  0  0  0
   57.5001   30.5703   46.3317 H   0  0  0  0  0  0  0  0  0  0  0  0
   55.9080   31.3976   43.3658 H   0  0  0  0  0  0  0  0  0  0  0  0
   57.4714   30.6650   42.8334 H   0  0  0  0  0  0  0  0  0  0  0  0
   58.1903   27.7263   44.3579 H   0  0  0  0  0  0  0  0  0  0  0  0
   56.9948   27.6141   43.0218 H   0  0  0  0  0  0  0  0  0  0  0  0
   58.2212   28.9266   43.0218 H   0  0  0  0  0  0  0  0  0  0  0  0
   57.8170   33.3751   43.0469 H   0  0  0  0  0  0  0  0  0  0  0  0
   59.0353   34.9683   44.5237 H   0  0  0  0  0  0  0  0  0  0  0  0
   60.5514   34.2493   49.7901 H   0  0  0  0  0  0  0  0  0  0  0  0
   60.0245   32.6836   48.9454 H   0  0  0  0  0  0  0  0  0  0  0  0
   61.7513   32.3804   50.7243 H   0  0  0  0  0  0  0  0  0  0  0  0
   62.1831   31.8028   49.0313 H   0  0  0  0  0  0  0  0  0  0  0  0
  1  2  1  0
  2  3  1  0
  3  4  1  0
  4  5  1  0
  5  6  1  0
  6  7  1  0
  7  8  1  0
  8  9  1  0
  9 10  2  0
 10 11  1  0
 11 12  2  0
 12 13  1  0
 13 14  1  0
 14 15  1  0
 12 16  1  0
 16 17  2  0
  7 18  1  0
 18 19  1  0
 19  3  1  0
 17  9  1  0
  1 20  1  0
  1 21  1  0
  1 22  1  0
  2 23  1  0
  2 24  1  0
  4 25  1  0
  4 26  1  0
  5 27  1  0
  5 28  1  0
  6 29  1  0
  6 30  1  0
  7 31  1  1
  8 32  1  0
  8 33  1  0
 10 34  1  0
 11 35  1  0
 13 36  1  0
 13 37  1  0
 15 38  1  0
 15 39  1  0
 15 40  1  0
 16 41  1  0
 17 42  1  0
 18 43  1  0
 18 44  1  0
 19 45  1  0
 19 46  1  0
M  CHG  1   7   1
M  END
>  <UniqueID>  (8) 
8

>  <SMILES>  (8) 
CCN1CCC[N@@H+](Cc2ccc(CSC)cc2)CC1

>  <Energy>  (8) 
59.97617299286734

>  <Genealogy>  (8) 
CCN1CCC[NH+](Cc2ccc(CSC)cc2)CC1 (protonated)
CCN1CCC[N@@H+](Cc2ccc(CSC)cc2)CC1 (chirality)
CCN1CCC[N@@H+](Cc2ccc(CSC)cc2)CC1 (3D coordinates assigned)
CCN1CCC[N@@H+](Cc2ccc(CSC)cc2)CC1 (nonaromatic ring conformer: 59.97617299286734 kcal/mol)

>  <smiles>  (8) 
CCN1CCCN(Cc2ccc(CSC)cc2)CC1

>  <score_type>  (8) 
oracle

>  <origin>  (8) 
adg

>  <m_score__min__energy>  (8) 
-3.46

>  <m_primary>  (8) 
energy

$$$$
8:0
     RDKit          3D

 44 44  0  0  0  0  0  0  0  0999 V2000
   55.2470   19.9810   45.6820 C   0  0  0  0  0  0  0  0  0  0  0  0
   56.4660   20.1480   44.7810 C   0  0  0  0  0  0  0  0  0  0  0  0
   56.1140   20.8380   43.5850 O   0  0  0  0  0  0  0  0  0  0  0  0
   56.2820   22.2170   43.4140 C   0  0  0  0  0  0  0  0  0  0  0  0
   55.5400   22.8650   42.6260 O   0  0  0  0  0  0  0  0  0  0  0  0
   57.3310   22.9350   44.2070 C   0  0  0  0  0  0  0  0  0  0  0  0
   56.7000   23.8760   45.2510 C   0  0  1  0  0  0  0  0  0  0  0  0
   56.8180   23.3370   46.6840 C   0  0  0  0  0  0  0  0  0  0  0  0
   57.2510   25.1940   45.1510 O   0  0  0  0  0  0  0  0  0  0  0  0
   56.6440   26.3690   45.6170 C   0  0  0  0  0  0  0  0  0  0  0  0
   55.4770   26.3580   46.0940 O   0  0  0  0  0  0  0  0  0  0  0  0
   57.4170   27.6490   45.5890 C   0  0  0  0  0  0  0  0  0  0  0  0
   57.7780   28.0230   44.1510 C   0  0  0  0  0  0  0  0  0  0  0  0
   58.3750   29.3640   44.1130 N   0  0  0  0  0  0  0  0  0  0  0  0
   57.1440   30.5950   44.1020 S   0  0  0  0  0  0  0  0  0  0  0  0
   55.9130   30.1170   44.8220 O   0  0  0  0  0  0  0  0  0  0  0  0
   56.7730   30.9340   42.6850 O   0  0  0  0  0  0  0  0  0  0  0  0
   57.7670   32.0280   44.9110 C   0  0  0  0  0  0  0  0  0  0  0  0
   57.8820   33.2350   44.2070 C   0  0  0  0  0  0  0  0  0  0  0  0
   58.3650   34.3800   44.8490 C   0  0  0  0  0  0  0  0  0  0  0  0
   58.7300   34.3250   46.1970 C   0  0  0  0  0  0  0  0  0  0  0  0
   58.6090   33.1260   46.9060 C   0  0  0  0  0  0  0  0  0  0  0  0
   58.1270   31.9790   46.2660 C   0  0  0  0  0  0  0  0  0  0  0  0
   55.5610   20.0240   46.7354 H   0  0  0  0  0  0  0  0  0  0  0  0
   54.5285   20.7891   45.4803 H   0  0  0  0  0  0  0  0  0  0  0  0
   54.7723   19.0094   45.4803 H   0  0  0  0  0  0  0  0  0  0  0  0
   57.2358   20.7227   45.3169 H   0  0  0  0  0  0  0  0  0  0  0  0
   56.8507   19.1521   44.5161 H   0  0  0  0  0  0  0  0  0  0  0  0
   57.9576   22.1942   44.7252 H   0  0  0  0  0  0  0  0  0  0  0  0
   57.9345   23.5405   43.5148 H   0  0  0  0  0  0  0  0  0  0  0  0
   55.6253   23.9271   45.0219 H   0  0  0  0  0  0  0  0  0  0  0  0
   56.6392   24.1537   47.3988 H   0  0  0  0  0  0  0  0  0  0  0  0
   56.0723   22.5435   46.8399 H   0  0  0  0  0  0  0  0  0  0  0  0
   57.8270   22.9277   46.8399 H   0  0  0  0  0  0  0  0  0  0  0  0
   56.8062   28.4508   46.0295 H   0  0  0  0  0  0  0  0  0  0  0  0
   58.3438   27.5185   46.1669 H   0  0  0  0  0  0  0  0  0  0  0  0
   58.4989   27.2925   43.7551 H   0  0  0  0  0  0  0  0  0  0  0  0
   56.8649   28.0180   43.5377 H   0  0  0  0  0  0  0  0  0  0  0  0
   58.8950   29.4640   43.2100 H   0  0  0  0  0  0  0  0  0  0  0  0
   57.5916   33.2817   43.1470 H   0  0  0  0  0  0  0  0  0  0  0  0
   58.4576   35.3244   44.2926 H   0  0  0  0  0  0  0  0  0  0  0  0
   59.1126   35.2252   46.7003 H   0  0  0  0  0  0  0  0  0  0  0  0
   58.8930   33.0845   47.9679 H   0  0  0  0  0  0  0  0  0  0  0  0
   58.0302   31.0373   46.8262 H   0  0  0  0  0  0  0  0  0  0  0  0
  1  2  1  0
  2  3  1  0
  3  4  1  0
  4  5  2  0
  4  6  1  0
  6  7  1  0
  7  8  1  0
  7  9  1  0
  9 10  1  0
 10 11  2  0
 10 12  1  0
 12 13  1  0
 13 14  1  0
 14 15  1  0
 15 16  2  0
 15 17  2  0
 15 18  1  0
 18 19  2  0
 19 20  1  0
 20 21  2  0
 21 22  1  0
 22 23  2  0
 23 18  1  0
  1 24  1  0
  1 25  1  0
  1 26  1  0
  2 27  1  0
  2 28  1  0
  6 29  1  0
  6 30  1  0
  7 31  1  6
  8 32  1  0
  8 33  1  0
  8 34  1  0
 12 35  1  0
 12 36  1  0
 13 37  1  0
 13 38  1  0
 14 39  1  0
 19 40  1  0
 20 41  1  0
 21 42  1  0
 22 43  1  0
 23 44  1  0
M  END
>  <UniqueID>  (9) 
9

>  <SMILES>  (9) 
CCOC(=O)C[C@@H](C)OC(=O)CCNS(=O)(=O)c1ccccc1

>  <Energy>  (9) 
29.159246804539166

>  <Genealogy>  (9) 
CCOC(=O)C[C@@H](C)OC(=O)CCNS(=O)(=O)c1ccccc1 (chirality)
CCOC(=O)C[C@@H](C)OC(=O)CCNS(=O)(=O)c1ccccc1 (3D coordinates assigned)
CCOC(=O)C[C@@H](C)OC(=O)CCNS(=O)(=O)c1ccccc1 (optimized conformer: 29.159246804539166 kcal/mol)

>  <smiles>  (9) 
CCOC(=O)CC(C)OC(=O)CCNS(=O)(=O)c1ccccc1

>  <score_type>  (9) 
oracle

>  <origin>  (9) 
adg

>  <m_score__min__energy>  (9) 
-7.5099999999999998

>  <m_primary>  (9) 
energy

$$$$
9:0
     RDKit          3D

 45 47  0  0  0  0  0  0  0  0999 V2000
   56.1640   23.5050   47.0670 C   0  0  0  0  0  0  0  0  0  0  0  0
   57.4550   24.1020   47.1290 O   0  0  0  0  0  0  0  0  0  0  0  0
   57.7690   25.3670   46.6130 C   0  0  0  0  0  0  0  0  0  0  0  0
   59.0950   25.8360   46.5170 C   0  0  0  0  0  0  0  0  0  0  0  0
   59.3610   27.1050   45.9960 C   0  0  0  0  0  0  0  0  0  0  0  0
   58.3080   27.9220   45.5630 C   0  0  0  0  0  0  0  0  0  0  0  0
   58.5460   29.1980   45.0370 C   0  0  0  0  0  0  0  0  0  0  0  0
   57.4740   29.9950   44.6060 C   0  0  0  0  0  0  0  0  0  0  0  0
   57.7510   31.3760   44.0660 C   0  0  0  0  0  0  0  0  0  0  0  0
   57.3380   32.3940   45.0530 N   0  0  0  0  0  0  0  0  0  0  0  0
   57.4650   33.7650   44.5320 C   0  0  0  0  0  0  0  0  0  0  0  0
   57.9460   32.2160   46.3920 C   0  0  0  0  0  0  0  0  0  0  0  0
   58.8880   33.3520   46.8550 C   0  0  0  0  0  0  0  0  0  0  0  0
   60.3180   32.9100   47.0320 C   0  0  0  0  0  0  0  0  0  0  0  0
   60.6120   31.5610   47.2870 C   0  0  0  0  0  0  0  0  0  0  0  0
   61.9410   31.1660   47.4380 C   0  0  0  0  0  0  0  0  0  0  0  0
   62.9630   32.1100   47.3410 C   0  0  0  0  0  0  0  0  0  0  0  0
   62.6360   33.4450   47.0980 C   0  0  0  0  0  0  0  0  0  0  0  0
   61.3350   33.8190   46.9530 N   0  0  0  0  0  0  0  0  0  0  0  0
   56.1620   29.4910   44.7300 C   0  0  0  0  0  0  0  0  0  0  0  0
   55.1710   30.1810   44.3710 O   0  0  0  0  0  0  0  0  0  0  0  0
   55.9550   28.2500   45.2440 N   0  0  0  0  0  0  0  0  0  0  0  0
   56.9800   27.4590   45.6570 C   0  0  0  0  0  0  0  0  0  0  0  0
   56.7190   26.1870   46.1810 C   0  0  0  0  0  0  0  0  0  0  0  0
   55.7905   23.3323   48.0871 H   0  0  0  0  0  0  0  0  0  0  0  0
   55.4750   24.1759   46.5330 H   0  0  0  0  0  0  0  0  0  0  0  0
   56.2290   22.5455   46.5330 H   0  0  0  0  0  0  0  0  0  0  0  0
   59.9257   25.1988   46.8545 H   0  0  0  0  0  0  0  0  0  0  0  0
   60.3986   27.4632   45.9256 H   0  0  0  0  0  0  0  0  0  0  0  0
   59.5760   29.5767   44.9614 H   0  0  0  0  0  0  0  0  0  0  0  0
   58.8273   31.4795   43.8640 H   0  0  0  0  0  0  0  0  0  0  0  0
   57.1823   31.5219   43.1358 H   0  0  0  0  0  0  0  0  0  0  0  0
   57.5305   34.4719   45.3722 H   0  0  0  0  0  0  0  0  0  0  0  0
   58.3740   33.8409   43.9172 H   0  0  0  0  0  0  0  0  0  0  0  0
   56.5854   34.0066   43.9172 H   0  0  0  0  0  0  0  0  0  0  0  0
   57.1305   32.1326   47.1255 H   0  0  0  0  0  0  0  0  0  0  0  0
   58.5736   31.3155   46.3200 H   0  0  0  0  0  0  0  0  0  0  0  0
   58.8618   34.1547   46.1033 H   0  0  0  0  0  0  0  0  0  0  0  0
   58.5291   33.6906   47.8381 H   0  0  0  0  0  0  0  0  0  0  0  0
   59.8011   30.8220   47.3670 H   0  0  0  0  0  0  0  0  0  0  0  0
   62.1829   30.1109   47.6334 H   0  0  0  0  0  0  0  0  0  0  0  0
   64.0141   31.8061   47.4546 H   0  0  0  0  0  0  0  0  0  0  0  0
   63.4336   34.1988   47.0233 H   0  0  0  0  0  0  0  0  0  0  0  0
   61.1250   34.8250   46.7690 H   0  0  0  0  0  0  0  0  0  0  0  0
   55.6814   25.8291   46.2539 H   0  0  0  0  0  0  0  0  0  0  0  0
  1  2  1  0
  2  3  1  0
  3  4  2  0
  4  5  1  0
  5  6  2  0
  6  7  1  0
  7  8  2  0
  8  9  1  0
  9 10  1  0
 10 11  1  0
 10 12  1  0
 12 13  1  0
 13 14  1  0
 14 15  2  0
 15 16  1  0
 16 17  2  0
 17 18  1  0
 18 19  2  0
  8 20  1  0
 20 21  2  0
 20 22  1  0
 22 23  1  0
 23 24  2  0
 24  3  1  0
 23  6  1  0
 19 14  1  0
  1 25  1  0
  1 26  1  0
  1 27  1  0
  4 28  1  0
  5 29  1  0
  7 30  1  0
  9 31  1  0
  9 32  1  0
 11 33  1  0
 11 34  1  0
 11 35  1  0
 12 36  1  0
 12 37  1  0
 13 38  1  0
 13 39  1  0
 15 40  1  0
 16 41  1  0
 17 42  1  0
 18 43  1  0
 19 44  1  0
 24 45  1  0
M  CHG  2  19   1  22  -1
M  END
>  <UniqueID>  (10) 
10

>  <SMILES>  (10) 
COc1ccc2cc(CN(C)CCc3cccc[nH+]3)c(=O)[n-]c2c1

>  <Energy>  (10) 
53.40020309313292

>  <Genealogy>  (10) 
COc1ccc2cc(CN(C)CCc3cccc[nH+]3)c(=O)[n-]c2c1 (protonated)
COc1ccc2cc(CN(C)CCc3cccc[nH+]3)c(=O)[n-]c2c1 (3D coordinates assigned)
COc1ccc2cc(CN(C)CCc3cccc[nH+]3)c(=O)[n-]c2c1 (optimized conformer: 53.40020309313292 kcal/mol)

>  <smiles>  (10) 
COc1ccc2cc(CN(C)CCc3ccccn3)c(=O)[nH]c2c1

>  <score_type>  (10) 
oracle

>  <origin>  (10) 
adg

>  <m_score__min__energy>  (10) 
-8.3800000000000008

>  <m_primary>  (10) 
energy

$$$$
10:0
     RDKit          3D

 41 43  0  0  0  0  0  0  0  0999 V2000
   58.3050   32.4150   41.5230 C   0  0  0  0  0  0  0  0  0  0  0  0
   57.0370   31.5930   41.8090 C   0  0  0  0  0  0  0  0  0  0  0  0
   57.1640   30.6150   42.9220 N   0  0  2  0  0  0  0  0  0  0  0  0
   56.4630   29.3500   42.6330 C   0  0  0  0  0  0  0  0  0  0  0  0
   56.7380   31.1600   44.2350 C   0  0  0  0  0  0  0  0  0  0  0  0
   57.9070   31.3850   45.1610 C   0  0  0  0  0  0  0  0  0  0  0  0
   58.5320   32.5930   45.4760 C   0  0  0  0  0  0  0  0  0  0  0  0
   59.5380   32.3920   46.3600 N   0  0  0  0  0  0  0  0  0  0  0  0
   59.5910   31.0630   46.5780 C   0  0  0  0  0  0  0  0  0  0  0  0
   60.4860   30.3590   47.3880 C   0  0  0  0  0  0  0  0  0  0  0  0
   60.3430   28.9620   47.4680 C   0  0  0  0  0  0  0  0  0  0  0  0
   59.3220   28.3040   46.7490 C   0  0  0  0  0  0  0  0  0  0  0  0
   58.4370   29.0360   45.9370 C   0  0  0  0  0  0  0  0  0  0  0  0
   58.6040   30.4200   45.8690 C   0  0  0  0  0  0  0  0  0  0  0  0
   60.4470   33.4240   46.8670 C   0  0  0  0  0  0  0  0  0  0  0  0
   59.8370   34.8210   46.6830 C   0  0  0  0  0  0  0  0  0  0  0  0
   59.2450   34.9800   45.2740 C   0  0  0  0  0  0  0  0  0  0  0  0
   58.1190   33.9660   45.0260 C   0  0  0  0  0  0  0  0  0  0  0  0
   58.7691   32.7159   42.4738 H   0  0  0  0  0  0  0  0  0  0  0  0
   59.0150   31.8049   40.9453 H   0  0  0  0  0  0  0  0  0  0  0  0
   58.0378   33.3122   40.9453 H   0  0  0  0  0  0  0  0  0  0  0  0
   56.2255   32.2922   42.0591 H   0  0  0  0  0  0  0  0  0  0  0  0
   56.8392   31.0041   40.9012 H   0  0  0  0  0  0  0  0  0  0  0  0
   58.1810   30.3710   42.9910 H   0  0  0  0  0  0  0  0  0  0  0  0
   56.1902   28.8578   43.5781 H   0  0  0  0  0  0  0  0  0  0  0  0
   55.5524   29.5597   42.0527 H   0  0  0  0  0  0  0  0  0  0  0  0
   57.1236   28.6890   42.0527 H   0  0  0  0  0  0  0  0  0  0  0  0
   56.2250   32.1192   44.0715 H   0  0  0  0  0  0  0  0  0  0  0  0
   56.0686   30.4252   44.7062 H   0  0  0  0  0  0  0  0  0  0  0  0
   61.2776   30.8810   47.9456 H   0  0  0  0  0  0  0  0  0  0  0  0
   61.0321   28.3778   48.0956 H   0  0  0  0  0  0  0  0  0  0  0  0
   59.2178   27.2115   46.8242 H   0  0  0  0  0  0  0  0  0  0  0  0
   57.6377   28.5331   45.3728 H   0  0  0  0  0  0  0  0  0  0  0  0
   60.6319   33.2486   47.9371 H   0  0  0  0  0  0  0  0  0  0  0  0
   61.3905   33.3726   46.3038 H   0  0  0  0  0  0  0  0  0  0  0  0
   59.0400   34.9667   47.4270 H   0  0  0  0  0  0  0  0  0  0  0  0
   60.6302   35.5712   46.8175 H   0  0  0  0  0  0  0  0  0  0  0  0
   58.8411   35.9976   45.1675 H   0  0  0  0  0  0  0  0  0  0  0  0
   60.0433   34.8001   44.5389 H   0  0  0  0  0  0  0  0  0  0  0  0
   57.2244   34.2757   45.5861 H   0  0  0  0  0  0  0  0  0  0  0  0
   57.9025   33.9346   43.9480 H   0  0  0  0  0  0  0  0  0  0  0  0
  1  2  1  0
  2  3  1  0
  3  4  1  0
  3  5  1  0
  5  6  1  0
  6  7  2  0
  7  8  1  0
  8  9  1  0
  9 10  2  0
 10 11  1  0
 11 12  2  0
 12 13  1  0
 13 14  2  0
  8 15  1  0
 15 16  1  0
 16 17  1  0
 17 18  1  0
 14  6  1  0
 18  7  1  0
 14  9  1  0
  1 19  1  0
  1 20  1  0
  1 21  1  0
  2 22  1  0
  2 23  1  0
  3 24  1  1
  4 25  1  0
  4 26  1  0
  4 27  1  0
  5 28  1  0
  5 29  1  0
 10 30  1  0
 11 31  1  0
 12 32  1  0
 13 33  1  0
 15 34  1  0
 15 35  1  0
 16 36  1  0
 16 37  1  0
 17 38  1  0
 17 39  1  0
 18 40  1  0
 18 41  1  0
M  CHG  1   3   1
M  END
>  <UniqueID>  (11) 
11

>  <SMILES>  (11) 
CC[N@H+](C)Cc1c2n(c3ccccc13)CCCC2

>  <Energy>  (11) 
75.51574357179243

>  <Genealogy>  (11) 
CC[NH+](C)Cc1c2n(c3ccccc13)CCCC2 (protonated)
CC[N@H+](C)Cc1c2n(c3ccccc13)CCCC2 (chirality)
CC[N@H+](C)Cc1c2n(c3ccccc13)CCCC2 (3D coordinates assigned)
CC[N@H+](C)Cc1c2n(c3ccccc13)CCCC2 (nonaromatic ring conformer: 75.51574357179243 kcal/mol)

>  <smiles>  (11) 
CCN(C)Cc1c2n(c3ccccc13)CCCC2

>  <score_type>  (11) 
oracle

>  <origin>  (11) 
adg

>  <m_score__min__energy>  (11) 
-5

>  <m_primary>  (11) 
energy

$$$$
11:0
     RDKit          3D

 34 35  0  0  0  0  0  0  0  0999 V2000
   58.8870   34.5060   45.1680 C   0  0  0  0  0  0  0  0  0  0  0  0
   57.8630   33.3740   45.1090 C   0  0  0  0  0  0  0  0  0  0  0  0
   58.0690   32.4390   46.1690 O   0  0  0  0  0  0  0  0  0  0  0  0
   58.0970   31.0540   45.9800 C   0  0  0  0  0  0  0  0  0  0  0  0
   57.0260   30.4140   45.5210 O   0  0  0  0  0  0  0  0  0  0  0  0
   56.9980   29.1010   45.3160 C   0  0  0  0  0  0  0  0  0  0  0  0
   55.9400   28.5790   44.8640 O   0  0  0  0  0  0  0  0  0  0  0  0
   58.1310   28.3100   45.6060 C   0  0  0  0  0  0  0  0  0  0  0  0
   58.1160   26.9130   45.4350 C   0  0  0  0  0  0  0  0  0  0  0  0
   59.2240   26.1380   45.8100 C   0  0  0  0  0  0  0  0  0  0  0  0
   59.2010   24.6990   45.7280 N   0  0  0  0  0  0  0  0  0  0  0  0
   58.1850   23.9470   44.9900 C   0  0  0  0  0  0  0  0  0  0  0  0
   58.7060   22.5660   44.5720 C   0  0  0  0  0  0  0  0  0  0  0  0
   59.9550   22.2440   45.2560 N   0  0  0  0  0  0  0  0  0  0  0  0
   60.3700   26.7810   46.3070 C   0  0  0  0  0  0  0  0  0  0  0  0
   60.4120   28.1680   46.4490 C   0  0  0  0  0  0  0  0  0  0  0  0
   59.2900   28.9480   46.1150 C   0  0  0  0  0  0  0  0  0  0  0  0
   59.2690   30.3450   46.2900 C   0  0  0  0  0  0  0  0  0  0  0  0
   60.6650   31.2270   46.9330 Cl  0  0  0  0  0  0  0  0  0  0  0  0
   59.1059   34.7480   46.2185 H   0  0  0  0  0  0  0  0  0  0  0  0
   59.8123   34.1901   44.6640 H   0  0  0  0  0  0  0  0  0  0  0  0
   58.4802   35.3951   44.6640 H   0  0  0  0  0  0  0  0  0  0  0  0
   56.8522   33.7990   45.1961 H   0  0  0  0  0  0  0  0  0  0  0  0
   57.9794   32.8470   44.1505 H   0  0  0  0  0  0  0  0  0  0  0  0
   57.2292   26.4252   45.0042 H   0  0  0  0  0  0  0  0  0  0  0  0
   59.8800   24.1710   46.3280 H   0  0  0  0  0  0  0  0  0  0  0  0
   57.3001   23.8171   45.6304 H   0  0  0  0  0  0  0  0  0  0  0  0
   57.9288   24.5106   44.0808 H   0  0  0  0  0  0  0  0  0  0  0  0
   57.9519   21.8062   44.8253 H   0  0  0  0  0  0  0  0  0  0  0  0
   58.8953   22.5783   43.4885 H   0  0  0  0  0  0  0  0  0  0  0  0
   60.7560   22.5450   44.6550 H   0  0  0  0  0  0  0  0  0  0  0  0
   60.0120   21.2030   45.3430 H   0  0  0  0  0  0  0  0  0  0  0  0
   61.2480   26.1812   46.5886 H   0  0  0  0  0  0  0  0  0  0  0  0
   61.3254   28.6534   46.8233 H   0  0  0  0  0  0  0  0  0  0  0  0
  1  2  1  0
  2  3  1  0
  3  4  1  0
  4  5  1  0
  5  6  1  0
  6  7  2  0
  6  8  1  0
  8  9  2  0
  9 10  1  0
 10 11  1  0
 11 12  1  0
 12 13  1  0
 13 14  1  0
 10 15  2  0
 15 16  1  0
 16 17  2  0
 17 18  1  0
 18 19  1  0
 18  4  2  0
 17  8  1  0
  1 20  1  0
  1 21  1  0
  1 22  1  0
  2 23  1  0
  2 24  1  0
  9 25  1  0
 11 26  1  0
 12 27  1  0
 12 28  1  0
 13 29  1  0
 13 30  1  0
 14 31  1  0
 14 32  1  0
 15 33  1  0
 16 34  1  0
M  END
>  <UniqueID>  (12) 
12

>  <SMILES>  (12) 
CCOc1oc(=O)c2cc(NCCN)ccc2c1Cl

>  <Energy>  (12) 
34.86297430088594

>  <Genealogy>  (12) 
CCOc1oc(=O)c2cc(NCCN)ccc2c1Cl (3D coordinates assigned)
CCOc1oc(=O)c2cc(NCCN)ccc2c1Cl (optimized conformer: 34.86297430088594 kcal/mol)

>  <smiles>  (12) 
CCOc1oc(=O)c2cc(NCCN)ccc2c1Cl

>  <score_type>  (12) 
oracle

>  <origin>  (12) 
adg

>  <m_score__min__energy>  (12) 
-6.4500000000000002

>  <m_primary>  (12) 
energy

$$$$
12:0
     RDKit          3D

 46 47  0  0  0  0  0  0  0  0999 V2000
   57.3810   27.6030   45.9770 C   0  0  0  0  0  0  0  0  0  0  0  0
   57.9960   27.3510   44.6050 C   0  0  0  0  0  0  0  0  0  0  0  0
   58.1810   28.6320   43.8840 N   0  0  0  0  0  0  0  0  0  0  0  0
   59.2280   29.4680   44.5140 C   0  0  0  0  0  0  0  0  0  0  0  0
   60.4670   28.6500   44.8770 C   0  0  0  0  0  0  0  0  0  0  0  0
   56.8950   29.3380   43.6620 C   0  0  0  0  0  0  0  0  0  0  0  0
   57.0130   30.8750   43.6590 C   0  0  0  0  0  0  0  0  0  0  0  0
   56.9640   31.3740   44.9930 O   0  0  0  0  0  0  0  0  0  0  0  0
   57.3990   32.6550   45.3480 C   0  0  0  0  0  0  0  0  0  0  0  0
   57.4020   33.5920   44.5030 O   0  0  0  0  0  0  0  0  0  0  0  0
   57.8620   32.9120   46.7490 C   0  0  0  0  0  0  0  0  0  0  0  0
   59.3490   32.6370   46.8840 C   0  0  0  0  0  0  0  0  0  0  0  0
   59.8330   31.3910   47.4000 C   0  0  0  0  0  0  0  0  0  0  0  0
   58.8910   30.2810   47.7880 C   0  0  0  0  0  0  0  0  0  0  0  0
   61.1800   31.1770   47.5230 N   0  0  0  0  0  0  0  0  0  0  0  0
   62.0420   32.1560   47.1720 C   0  0  0  0  0  0  0  0  0  0  0  0
   63.3830   32.0800   47.2430 N   0  0  0  0  0  0  0  0  0  0  0  0
   63.7370   33.3070   46.7790 C   0  0  0  0  0  0  0  0  0  0  0  0
   62.6730   34.0770   46.4480 N   0  0  0  0  0  0  0  0  0  0  0  0
   61.6190   33.3270   46.7050 N   0  0  0  0  0  0  0  0  0  0  0  0
   60.3050   33.6360   46.5440 C   0  0  0  0  0  0  0  0  0  0  0  0
   59.9030   34.9850   46.0030 C   0  0  0  0  0  0  0  0  0  0  0  0
   58.0967   27.3097   46.7591 H   0  0  0  0  0  0  0  0  0  0  0  0
   57.1418   28.6716   46.0809 H   0  0  0  0  0  0  0  0  0  0  0  0
   56.4607   27.0095   46.0809 H   0  0  0  0  0  0  0  0  0  0  0  0
   58.9723   26.8597   44.7292 H   0  0  0  0  0  0  0  0  0  0  0  0
   57.3220   26.7055   44.0227 H   0  0  0  0  0  0  0  0  0  0  0  0
   59.5195   30.2626   43.8114 H   0  0  0  0  0  0  0  0  0  0  0  0
   58.8147   29.8914   45.4413 H   0  0  0  0  0  0  0  0  0  0  0  0
   60.5587   28.5895   45.9715 H   0  0  0  0  0  0  0  0  0  0  0  0
   60.3722   27.6364   44.4604 H   0  0  0  0  0  0  0  0  0  0  0  0
   61.3619   29.1354   44.4604 H   0  0  0  0  0  0  0  0  0  0  0  0
   56.4902   29.0207   42.6897 H   0  0  0  0  0  0  0  0  0  0  0  0
   56.2379   29.0720   44.5031 H   0  0  0  0  0  0  0  0  0  0  0  0
   57.9682   31.1654   43.1971 H   0  0  0  0  0  0  0  0  0  0  0  0
   56.1751   31.2986   43.0859 H   0  0  0  0  0  0  0  0  0  0  0  0
   57.6647   33.9629   47.0070 H   0  0  0  0  0  0  0  0  0  0  0  0
   57.3162   32.2419   47.4294 H   0  0  0  0  0  0  0  0  0  0  0  0
   58.8346   30.2145   48.8845 H   0  0  0  0  0  0  0  0  0  0  0  0
   57.8906   30.4902   47.3814 H   0  0  0  0  0  0  0  0  0  0  0  0
   59.2601   29.3279   47.3814 H   0  0  0  0  0  0  0  0  0  0  0  0
   61.5520   30.2700   47.8850 H   0  0  0  0  0  0  0  0  0  0  0  0
   64.7806   33.6408   46.6821 H   0  0  0  0  0  0  0  0  0  0  0  0
   59.6990   35.6696   46.8395 H   0  0  0  0  0  0  0  0  0  0  0  0
   60.7191   35.3912   45.3874 H   0  0  0  0  0  0  0  0  0  0  0  0
   58.9976   34.8782   45.3874 H   0  0  0  0  0  0  0  0  0  0  0  0
  1  2  1  0
  2  3  1  0
  3  4  1  0
  4  5  1  0
  3  6  1  0
  6  7  1  0
  7  8  1  0
  8  9  1  0
  9 10  2  0
  9 11  1  0
 11 12  1  0
 12 13  1  0
 13 14  1  0
 13 15  2  0
 15 16  1  0
 16 17  2  0
 17 18  1  0
 18 19  2  0
 19 20  1  0
 20 21  1  0
 21 22  1  0
 21 12  2  0
 20 16  1  0
  1 23  1  0
  1 24  1  0
  1 25  1  0
  2 26  1  0
  2 27  1  0
  4 28  1  0
  4 29  1  0
  5 30  1  0
  5 31  1  0
  5 32  1  0
  6 33  1  0
  6 34  1  0
  7 35  1  0
  7 36  1  0
 11 37  1  0
 11 38  1  0
 14 39  1  0
 14 40  1  0
 14 41  1  0
 15 42  1  0
 18 43  1  0
 22 44  1  0
 22 45  1  0
 22 46  1  0
M  CHG  1  15   1
M  END
>  <UniqueID>  (13) 
13

>  <SMILES>  (13) 
CCN(CC)CCOC(=O)Cc1c(C)[nH+]c2ncnn2c1C

>  <Energy>  (13) 
83.09986948835721

>  <Genealogy>  (13) 
CCN(CC)CCOC(=O)Cc1c(C)[nH+]c2ncnn2c1C (protonated)
CCN(CC)CCOC(=O)Cc1c(C)[nH+]c2ncnn2c1C (3D coordinates assigned)
CCN(CC)CCOC(=O)Cc1c(C)[nH+]c2ncnn2c1C (optimized conformer: 83.09986948835721 kcal/mol)

>  <smiles>  (13) 
CCN(CC)CCOC(=O)Cc1c(C)nc2ncnn2c1C

>  <score_type>  (13) 
oracle

>  <origin>  (13) 
adg

>  <m_score__min__energy>  (13) 
-5.2300000000000004

>  <m_primary>  (13) 
energy

$$$$
13:0
     RDKit          3D

 57 58  0  0  0  0  0  0  0  0999 V2000
   63.5340   32.7480   47.1240 C   0  0  0  0  0  0  0  0  0  0  0  0
   62.1440   32.2460   47.5340 C   0  0  0  0  0  0  0  0  0  0  0  0
   61.0690   33.2770   47.5210 N   0  0  0  0  0  0  0  0  0  0  0  0
   60.8960   33.9530   48.8420 C   0  0  0  0  0  0  0  0  0  0  0  0
   59.6940   33.4780   49.6790 C   0  0  0  0  0  0  0  0  0  0  0  0
   61.1230   34.2230   46.3730 C   0  0  0  0  0  0  0  0  0  0  0  0
   59.7670   34.8670   46.0500 C   0  0  0  0  0  0  0  0  0  0  0  0
   58.7650   34.2460   46.8290 O   0  0  0  0  0  0  0  0  0  0  0  0
   57.6330   33.9900   46.0250 C   0  0  0  0  0  0  0  0  0  0  0  0
   57.8350   32.6830   45.2710 C   0  0  0  0  0  0  0  0  0  0  0  0
   59.0380   32.0570   45.7030 O   0  0  0  0  0  0  0  0  0  0  0  0
   59.0500   30.8800   46.4560 C   0  0  0  0  0  0  0  0  0  0  0  0
   59.5260   30.8740   47.6270 O   0  0  0  0  0  0  0  0  0  0  0  0
   58.4940   29.6150   45.8610 C   0  0  0  0  0  0  0  0  0  0  0  0
   58.1630   28.5670   46.9610 C   0  0  0  0  0  0  0  0  0  0  0  0
   58.7290   27.1650   46.6780 C   0  0  0  0  0  0  0  0  0  0  0  0
   58.5600   26.7960   45.2620 N   0  0  0  0  0  0  0  0  0  0  0  0
   58.1630   25.4630   44.8720 C   0  0  0  0  0  0  0  0  0  0  0  0
   57.3670   25.2330   43.7340 C   0  0  0  0  0  0  0  0  0  0  0  0
   57.0160   23.9270   43.3910 C   0  0  0  0  0  0  0  0  0  0  0  0
   57.4390   22.8580   44.1870 C   0  0  0  0  0  0  0  0  0  0  0  0
   56.9750   21.0620   43.7260 Br  0  0  0  0  0  0  0  0  0  0  0  0
   58.2070   23.1190   45.3230 C   0  0  0  0  0  0  0  0  0  0  0  0
   58.5470   24.3990   45.6360 N   0  0  0  0  0  0  0  0  0  0  0  0
   58.8950   27.7630   44.2040 C   0  0  0  0  0  0  0  0  0  0  0  0
   59.4460   29.0690   44.7840 C   0  0  0  0  0  0  0  0  0  0  0  0
   64.1271   32.9622   48.0253 H   0  0  0  0  0  0  0  0  0  0  0  0
   64.0410   31.9762   46.5263 H   0  0  0  0  0  0  0  0  0  0  0  0
   63.4309   33.6657   46.5263 H   0  0  0  0  0  0  0  0  0  0  0  0
   61.8539   31.4428   46.8406 H   0  0  0  0  0  0  0  0  0  0  0  0
   62.2352   31.9126   48.5783 H   0  0  0  0  0  0  0  0  0  0  0  0
   60.1840   32.7270   47.3890 H   0  0  0  0  0  0  0  0  0  0  0  0
   61.8084   33.7817   49.4321 H   0  0  0  0  0  0  0  0  0  0  0  0
   60.7057   35.0125   48.6157 H   0  0  0  0  0  0  0  0  0  0  0  0
   59.9321   33.5721   50.7488 H   0  0  0  0  0  0  0  0  0  0  0  0
   58.8155   34.0966   49.4431 H   0  0  0  0  0  0  0  0  0  0  0  0
   59.4757   32.4260   49.4431 H   0  0  0  0  0  0  0  0  0  0  0  0
   61.8402   35.0218   46.6127 H   0  0  0  0  0  0  0  0  0  0  0  0
   61.4266   33.6437   45.4885 H   0  0  0  0  0  0  0  0  0  0  0  0
   59.8037   35.9411   46.2847 H   0  0  0  0  0  0  0  0  0  0  0  0
   59.5398   34.7382   44.9815 H   0  0  0  0  0  0  0  0  0  0  0  0
   56.7399   33.9120   46.6624 H   0  0  0  0  0  0  0  0  0  0  0  0
   57.4983   34.8121   45.3067 H   0  0  0  0  0  0  0  0  0  0  0  0
   56.9845   32.0135   45.4668 H   0  0  0  0  0  0  0  0  0  0  0  0
   57.9019   32.8926   44.1932 H   0  0  0  0  0  0  0  0  0  0  0  0
   57.5395   29.8466   45.3658 H   0  0  0  0  0  0  0  0  0  0  0  0
   58.5801   28.9227   47.9147 H   0  0  0  0  0  0  0  0  0  0  0  0
   57.0677   28.4690   46.9888 H   0  0  0  0  0  0  0  0  0  0  0  0
   59.8007   27.1544   46.9257 H   0  0  0  0  0  0  0  0  0  0  0  0
   58.1802   26.4378   47.2944 H   0  0  0  0  0  0  0  0  0  0  0  0
   57.0238   26.0779   43.1189 H   0  0  0  0  0  0  0  0  0  0  0  0
   56.4068   23.7383   42.4948 H   0  0  0  0  0  0  0  0  0  0  0  0
   58.5376   22.2896   45.9655 H   0  0  0  0  0  0  0  0  0  0  0  0
   59.6532   27.3189   43.5423 H   0  0  0  0  0  0  0  0  0  0  0  0
   57.9746   27.9959   43.6484 H   0  0  0  0  0  0  0  0  0  0  0  0
   60.4322   28.8797   45.2330 H   0  0  0  0  0  0  0  0  0  0  0  0
   59.5371   29.8102   43.9763 H   0  0  0  0  0  0  0  0  0  0  0  0
  1  2  1  0
  2  3  1  0
  3  4  1  0
  4  5  1  0
  3  6  1  0
  6  7  1  0
  7  8  1  0
  8  9  1  0
  9 10  1  0
 10 11  1  0
 11 12  1  0
 12 13  2  0
 12 14  1  0
 14 15  1  0
 15 16  1  0
 16 17  1  0
 17 18  1  0
 18 19  2  0
 19 20  1  0
 20 21  2  0
 21 22  1  0
 21 23  1  0
 23 24  2  0
 17 25  1  0
 25 26  1  0
 26 14  1  0
 24 18  1  0
  1 27  1  0
  1 28  1  0
  1 29  1  0
  2 30  1  0
  2 31  1  0
  3 32  1  0
  4 33  1  0
  4 34  1  0
  5 35  1  0
  5 36  1  0
  5 37  1  0
  6 38  1  0
  6 39  1  0
  7 40  1  0
  7 41  1  0
  9 42  1  0
  9 43  1  0
 10 44  1  0
 10 45  1  0
 14 46  1  0
 15 47  1  0
 15 48  1  0
 16 49  1  0
 16 50  1  0
 19 51  1  0
 20 52  1  0
 23 53  1  0
 25 54  1  0
 25 55  1  0
 26 56  1  0
 26 57  1  0
M  CHG  1   3   1
M  END
>  <UniqueID>  (14) 
14

>  <SMILES>  (14) 
CC[NH+](CC)CCOCCOC(=O)C1CCN(c2ccc(Br)cn2)CC1

>  <Energy>  (14) 
63.49250274687893

>  <Genealogy>  (14) 
CC[NH+](CC)CCOCCOC(=O)C1CCN(c2ccc(Br)cn2)CC1 (protonated)
CC[NH+](CC)CCOCCOC(=O)C1CCN(c2ccc(Br)cn2)CC1 (3D coordinates assigned)
CC[NH+](CC)CCOCCOC(=O)C1CCN(c2ccc(Br)cn2)CC1 (nonaromatic ring conformer: 63.49250274687893 kcal/mol)

>  <smiles>  (14) 
CCN(CC)CCOCCOC(=O)C1CCN(c2ccc(Br)cn2)CC1

>  <score_type>  (14) 
oracle

>  <origin>  (14) 
adg

>  <m_score__min__energy>  (14) 
-5.4400000000000004

>  <m_primary>  (14) 
energy

$$$$
14:0
     RDKit          3D

 73 75  0  0  0  0  0  0  0  0999 V2000
   58.4110   32.6750   48.5990 C   0  0  0  0  0  0  0  0  0  0  0  0
   58.6950   33.6000   47.4170 C   0  0  0  0  0  0  0  0  0  0  0  0
   57.8210   33.2470   46.2730 N   0  0  0  0  0  0  0  0  0  0  0  0
   57.9280   34.2370   45.1740 C   0  0  0  0  0  0  0  0  0  0  0  0
   59.2710   34.9620   45.2510 C   0  0  0  0  0  0  0  0  0  0  0  0
   58.0920   31.8700   45.7940 C   0  0  0  0  0  0  0  0  0  0  0  0
   57.2270   31.5730   44.5640 C   0  0  0  0  0  0  0  0  0  0  0  0
   56.3380   30.5050   44.8260 O   0  0  0  0  0  0  0  0  0  0  0  0
   55.6320   30.1070   43.6630 C   0  0  0  0  0  0  0  0  0  0  0  0
   56.4980   29.2540   42.7120 C   0  0  0  0  0  0  0  0  0  0  0  0
   57.6670   28.6870   43.4040 N   0  0  0  0  0  0  0  0  0  0  0  0
   57.8790   27.2810   43.0320 C   0  0  0  0  0  0  0  0  0  0  0  0
   58.1810   26.4060   44.2590 C   0  0  0  0  0  0  0  0  0  0  0  0
   57.9460   27.1160   45.4800 O   0  0  0  0  0  0  0  0  0  0  0  0
   58.7940   28.0780   46.0560 C   0  0  0  0  0  0  0  0  0  0  0  0
   58.4650   28.5730   47.3230 C   0  0  0  0  0  0  0  0  0  0  0  0
   59.2440   29.5630   47.9260 C   0  0  0  0  0  0  0  0  0  0  0  0
   60.3810   30.0740   47.2730 C   0  0  0  0  0  0  0  0  0  0  0  0
   61.2090   31.1350   47.9040 C   0  0  0  0  0  0  0  0  0  0  0  0
   61.3820   31.1710   49.3000 C   0  0  0  0  0  0  0  0  0  0  0  0
   62.1570   32.1700   49.8930 C   0  0  0  0  0  0  0  0  0  0  0  0
   62.7880   33.1430   49.1100 C   0  0  0  0  0  0  0  0  0  0  0  0
   63.5590   34.1210   49.7600 O   0  0  0  0  0  0  0  0  0  0  0  0
   64.1630   33.9770   51.0500 C   0  0  0  0  0  0  0  0  0  0  0  0
   65.1850   32.8650   51.0340 C   0  0  0  0  0  0  0  0  0  0  0  0
   66.4730   33.1040   50.5260 C   0  0  0  0  0  0  0  0  0  0  0  0
   67.4460   32.1010   50.5690 C   0  0  0  0  0  0  0  0  0  0  0  0
   67.1300   30.8440   51.0930 C   0  0  0  0  0  0  0  0  0  0  0  0
   65.8400   30.5790   51.5540 C   0  0  0  0  0  0  0  0  0  0  0  0
   64.8680   31.5860   51.5250 C   0  0  0  0  0  0  0  0  0  0  0  0
   62.6260   33.1090   47.7130 C   0  0  0  0  0  0  0  0  0  0  0  0
   61.8370   32.1190   47.1200 C   0  0  0  0  0  0  0  0  0  0  0  0
   60.7240   29.5590   46.0100 C   0  0  0  0  0  0  0  0  0  0  0  0
   59.9470   28.5640   45.4110 C   0  0  0  0  0  0  0  0  0  0  0  0
   58.5784   33.2201   49.5397 H   0  0  0  0  0  0  0  0  0  0  0  0
   57.3665   32.3330   48.5543 H   0  0  0  0  0  0  0  0  0  0  0  0
   59.0836   31.8058   48.5543 H   0  0  0  0  0  0  0  0  0  0  0  0
   58.5017   34.6411   47.7150 H   0  0  0  0  0  0  0  0  0  0  0  0
   59.7467   33.4864   47.1153 H   0  0  0  0  0  0  0  0  0  0  0  0
   57.8494   33.7178   44.2074 H   0  0  0  0  0  0  0  0  0  0  0  0
   57.1154   34.9721   45.2705 H   0  0  0  0  0  0  0  0  0  0  0  0
   59.5473   35.1111   46.3052 H   0  0  0  0  0  0  0  0  0  0  0  0
   60.0429   34.3580   44.7516 H   0  0  0  0  0  0  0  0  0  0  0  0
   59.1896   35.9387   44.7516 H   0  0  0  0  0  0  0  0  0  0  0  0
   59.1546   31.7787   45.5248 H   0  0  0  0  0  0  0  0  0  0  0  0
   57.8509   31.1520   46.5917 H   0  0  0  0  0  0  0  0  0  0  0  0
   56.6468   32.4709   44.3049 H   0  0  0  0  0  0  0  0  0  0  0  0
   57.8843   31.2901   43.7286 H   0  0  0  0  0  0  0  0  0  0  0  0
   54.7549   29.5168   43.9669 H   0  0  0  0  0  0  0  0  0  0  0  0
   55.3370   31.0180   43.1216 H   0  0  0  0  0  0  0  0  0  0  0  0
   55.8859   28.4316   42.3132 H   0  0  0  0  0  0  0  0  0  0  0  0
   56.8602   29.9036   41.9015 H   0  0  0  0  0  0  0  0  0  0  0  0
   58.5240   29.2430   43.1690 H   0  0  0  0  0  0  0  0  0  0  0  0
   57.4740   28.7400   44.4290 H   0  0  0  0  0  0  0  0  0  0  0  0
   56.9715   26.9022   42.5391 H   0  0  0  0  0  0  0  0  0  0  0  0
   58.7452   27.2328   42.3557 H   0  0  0  0  0  0  0  0  0  0  0  0
   57.5338   25.5170   44.2321 H   0  0  0  0  0  0  0  0  0  0  0  0
   59.2423   26.1187   44.2254 H   0  0  0  0  0  0  0  0  0  0  0  0
   57.5836   28.1782   47.8495 H   0  0  0  0  0  0  0  0  0  0  0  0
   58.9666   29.9463   48.9191 H   0  0  0  0  0  0  0  0  0  0  0  0
   60.9030   30.4063   49.9291 H   0  0  0  0  0  0  0  0  0  0  0  0
   62.2726   32.1922   50.9867 H   0  0  0  0  0  0  0  0  0  0  0  0
   64.6582   34.9199   51.3252 H   0  0  0  0  0  0  0  0  0  0  0  0
   63.3811   33.7313   51.7837 H   0  0  0  0  0  0  0  0  0  0  0  0
   66.7170   34.0850   50.0924 H   0  0  0  0  0  0  0  0  0  0  0  0
   68.4595   32.3007   50.1908 H   0  0  0  0  0  0  0  0  0  0  0  0
   67.9011   30.0611   51.1420 H   0  0  0  0  0  0  0  0  0  0  0  0
   65.5872   29.5803   51.9396 H   0  0  0  0  0  0  0  0  0  0  0  0
   63.8512   31.3757   51.8881 H   0  0  0  0  0  0  0  0  0  0  0  0
   63.1218   33.8640   47.0851 H   0  0  0  0  0  0  0  0  0  0  0  0
   61.7060   32.1097   46.0279 H   0  0  0  0  0  0  0  0  0  0  0  0
   61.6129   29.9434   45.4884 H   0  0  0  0  0  0  0  0  0  0  0  0
   60.2377   28.1585   44.4307 H   0  0  0  0  0  0  0  0  0  0  0  0
  1  2  1  0
  2  3  1  0
  3  4  1  0
  4  5  1  0
  3  6  1  0
  6  7  1  0
  7  8  1  0
  8  9  1  0
  9 10  1  0
 10 11  1  0
 11 12  1  0
 12 13  1  0
 13 14  1  0
 14 15  1  0
 15 16  2  0
 16 17  1  0
 17 18  2  0
 18 19  1  0
 19 20  2  0
 20 21  1  0
 21 22  2  0
 22 23  1  0
 23 24  1  0
 24 25  1  0
 25 26  2  0
 26 27  1  0
 27 28  2  0
 28 29  1  0
 29 30  2  0
 22 31  1  0
 31 32  2  0
 18 33  1  0
 33 34  2  0
 34 15  1  0
 32 19  1  0
 30 25  1  0
  1 35  1  0
  1 36  1  0
  1 37  1  0
  2 38  1  0
  2 39  1  0
  4 40  1  0
  4 41  1  0
  5 42  1  0
  5 43  1  0
  5 44  1  0
  6 45  1  0
  6 46  1  0
  7 47  1  0
  7 48  1  0
  9 49  1  0
  9 50  1  0
 10 51  1  0
 10 52  1  0
 11 53  1  0
 11 54  1  0
 12 55  1  0
 12 56  1  0
 13 57  1  0
 13 58  1  0
 16 59  1  0
 17 60  1  0
 20 61  1  0
 21 62  1  0
 24 63  1  0
 24 64  1  0
 26 65  1  0
 27 66  1  0
 28 67  1  0
 29 68  1  0
 30 69  1  0
 31 70  1  0
 32 71  1  0
 33 72  1  0
 34 73  1  0
M  CHG  1  11   1
M  END
>  <UniqueID>  (15) 
15

>  <SMILES>  (15) 
CCN(CC)CCOCC[NH2+]CCOc1ccc(-c2ccc(OCc3ccccc3)cc2)cc1

>  <Energy>  (15) 
75.11176669375826

>  <Genealogy>  (15) 
CCN(CC)CCOCC[NH2+]CCOc1ccc(-c2ccc(OCc3ccccc3)cc2)cc1 (protonated)
CCN(CC)CCOCC[NH2+]CCOc1ccc(-c2ccc(OCc3ccccc3)cc2)cc1 (3D coordinates assigned)
CCN(CC)CCOCC[NH2+]CCOc1ccc(-c2ccc(OCc3ccccc3)cc2)cc1 (optimized conformer: 75.11176669375826 kcal/mol)

>  <smiles>  (15) 
CCN(CC)CCOCCNCCOc1ccc(-c2ccc(OCc3ccccc3)cc2)cc1

>  <score_type>  (15) 
oracle

>  <origin>  (15) 
adg

>  <m_score__min__energy>  (15) 
-7.0999999999999996

>  <m_primary>  (15) 
energy

$$$$
15:0
     RDKit          3D

 61 64  0  0  0  0  0  0  0  0999 V2000
   60.4430   34.1460   49.2900 C   0  0  0  0  0  0  0  0  0  0  0  0
   61.6360   33.7340   48.4150 C   0  0  0  0  0  0  0  0  0  0  0  0
   62.1060   32.3460   48.6510 N   0  0  0  0  0  0  0  0  0  0  0  0
   63.3420   31.9920   47.9120 C   0  0  0  0  0  0  0  0  0  0  0  0
   63.7650   33.0830   46.9280 C   0  0  0  0  0  0  0  0  0  0  0  0
   62.2290   32.0380   50.0970 C   0  0  0  0  0  0  0  0  0  0  0  0
   62.5550   30.5620   50.3140 C   0  0  0  0  0  0  0  0  0  0  0  0
   61.5480   29.7500   49.7330 O   0  0  0  0  0  0  0  0  0  0  0  0
   60.2530   30.1480   50.1460 C   0  0  0  0  0  0  0  0  0  0  0  0
   59.3970   30.6940   48.9860 C   0  0  0  0  0  0  0  0  0  0  0  0
   60.0900   30.7150   47.6800 N   0  0  0  0  0  0  0  0  0  0  0  0
   59.1850   30.6530   46.5480 C   0  0  0  0  0  0  0  0  0  0  0  0
   58.6720   31.8470   45.9480 C   0  0  0  0  0  0  0  0  0  0  0  0
   59.0180   33.1310   46.4380 C   0  0  0  0  0  0  0  0  0  0  0  0
   58.5810   34.2880   45.7980 C   0  0  0  0  0  0  0  0  0  0  0  0
   57.7950   34.2040   44.6600 C   0  0  0  0  0  0  0  0  0  0  0  0
   57.4030   32.9610   44.1720 C   0  0  0  0  0  0  0  0  0  0  0  0
   57.7920   31.7610   44.8180 C   0  0  0  0  0  0  0  0  0  0  0  0
   57.3410   30.5330   44.3720 N   0  0  0  0  0  0  0  0  0  0  0  0
   56.3070   30.4310   43.3230 C   0  0  0  0  0  0  0  0  0  0  0  0
   57.8760   29.3980   44.9210 C   0  0  0  0  0  0  0  0  0  0  0  0
   57.6260   28.1360   44.5030 N   0  0  0  0  0  0  0  0  0  0  0  0
   58.3610   27.3430   45.2940 C   0  0  0  0  0  0  0  0  0  0  0  0
   58.4330   25.9530   45.2070 C   0  0  0  0  0  0  0  0  0  0  0  0
   59.2620   25.2750   46.1080 C   0  0  0  0  0  0  0  0  0  0  0  0
   59.9980   25.9910   47.0680 C   0  0  0  0  0  0  0  0  0  0  0  0
   59.9160   27.3920   47.1370 C   0  0  0  0  0  0  0  0  0  0  0  0
   59.0820   28.0690   46.2260 C   0  0  0  0  0  0  0  0  0  0  0  0
   58.7740   29.4220   45.9800 C   0  0  0  0  0  0  0  0  0  0  0  0
   60.7167   34.0515   50.3512 H   0  0  0  0  0  0  0  0  0  0  0  0
   60.1721   35.1898   49.0728 H   0  0  0  0  0  0  0  0  0  0  0  0
   59.5857   33.4919   49.0728 H   0  0  0  0  0  0  0  0  0  0  0  0
   61.3386   33.8239   47.3598 H   0  0  0  0  0  0  0  0  0  0  0  0
   62.4697   34.4017   48.6781 H   0  0  0  0  0  0  0  0  0  0  0  0
   64.1545   31.8356   48.6368 H   0  0  0  0  0  0  0  0  0  0  0  0
   63.1371   31.0793   47.3333 H   0  0  0  0  0  0  0  0  0  0  0  0
   64.1077   33.9670   47.4858 H   0  0  0  0  0  0  0  0  0  0  0  0
   64.5832   32.7088   46.2951 H   0  0  0  0  0  0  0  0  0  0  0  0
   62.9084   33.3582   46.2951 H   0  0  0  0  0  0  0  0  0  0  0  0
   63.0333   32.6517   50.5288 H   0  0  0  0  0  0  0  0  0  0  0  0
   61.2698   32.2617   50.5868 H   0  0  0  0  0  0  0  0  0  0  0  0
   63.5235   30.3308   49.8465 H   0  0  0  0  0  0  0  0  0  0  0  0
   62.6027   30.3588   51.3940 H   0  0  0  0  0  0  0  0  0  0  0  0
   59.7402   29.2778   50.5817 H   0  0  0  0  0  0  0  0  0  0  0  0
   60.3741   30.9596   50.8785 H   0  0  0  0  0  0  0  0  0  0  0  0
   58.5012   30.0627   48.8912 H   0  0  0  0  0  0  0  0  0  0  0  0
   59.1574   31.7386   49.2339 H   0  0  0  0  0  0  0  0  0  0  0  0
   60.7460   29.9030   47.6360 H   0  0  0  0  0  0  0  0  0  0  0  0
   60.7330   31.5220   47.6200 H   0  0  0  0  0  0  0  0  0  0  0  0
   59.6426   33.2151   47.3395 H   0  0  0  0  0  0  0  0  0  0  0  0
   58.8612   35.2737   46.1979 H   0  0  0  0  0  0  0  0  0  0  0  0
   57.4802   35.1215   44.1413 H   0  0  0  0  0  0  0  0  0  0  0  0
   56.7792   32.9089   43.2675 H   0  0  0  0  0  0  0  0  0  0  0  0
   55.3169   30.3333   43.7923 H   0  0  0  0  0  0  0  0  0  0  0  0
   56.3287   31.3356   42.6976 H   0  0  0  0  0  0  0  0  0  0  0  0
   56.5050   29.5480   42.6976 H   0  0  0  0  0  0  0  0  0  0  0  0
   57.0340   27.8080   43.7090 H   0  0  0  0  0  0  0  0  0  0  0  0
   57.8535   25.4040   44.4502 H   0  0  0  0  0  0  0  0  0  0  0  0
   59.3379   24.1785   46.0648 H   0  0  0  0  0  0  0  0  0  0  0  0
   60.6452   25.4486   47.7729 H   0  0  0  0  0  0  0  0  0  0  0  0
   60.4929   27.9501   47.8891 H   0  0  0  0  0  0  0  0  0  0  0  0
  1  2  1  0
  2  3  1  0
  3  4  1  0
  4  5  1  0
  3  6  1  0
  6  7  1  0
  7  8  1  0
  8  9  1  0
  9 10  1  0
 10 11  1  0
 11 12  1  0
 12 13  2  0
 13 14  1  0
 14 15  2  0
 15 16  1  0
 16 17  2  0
 17 18  1  0
 18 19  2  0
 19 20  1  0
 19 21  1  0
 21 22  1  0
 22 23  1  0
 23 24  2  0
 24 25  1  0
 25 26  2  0
 26 27  1  0
 27 28  2  0
 28 29  1  0
 29 12  1  0
 18 13  1  0
 29 21  2  0
 28 23  1  0
  1 30  1  0
  1 31  1  0
  1 32  1  0
  2 33  1  0
  2 34  1  0
  4 35  1  0
  4 36  1  0
  5 37  1  0
  5 38  1  0
  5 39  1  0
  6 40  1  0
  6 41  1  0
  7 42  1  0
  7 43  1  0
  9 44  1  0
  9 45  1  0
 10 46  1  0
 10 47  1  0
 11 48  1  0
 11 49  1  0
 14 50  1  0
 15 51  1  0
 16 52  1  0
 17 53  1  0
 20 54  1  0
 20 55  1  0
 20 56  1  0
 22 57  1  0
 24 58  1  0
 25 59  1  0
 26 60  1  0
 27 61  1  0
M  CHG  2  11   1  19   1
M  END
>  <UniqueID>  (16) 
16

>  <SMILES>  (16) 
CCN(CC)CCOCC[NH2+]c1c2ccccc2[n+](C)c2[nH]c3ccccc3c12

>  <Energy>  (16) 
125.23182354286962

>  <Genealogy>  (16) 
CCN(CC)CCOCC[NH2+]c1c2ccccc2[n+](C)c2[nH]c3ccccc3c12 (protonated)
CCN(CC)CCOCC[NH2+]c1c2ccccc2[n+](C)c2[nH]c3ccccc3c12 (3D coordinates assigned)
CCN(CC)CCOCC[NH2+]c1c2ccccc2[n+](C)c2[nH]c3ccccc3c12 (optimized conformer: 125.23182354286962 kcal/mol)

>  <smiles>  (16) 
CCN(CC)CCOCCNc1c2ccccc2[n+](C)c2[nH]c3ccccc3c12

>  <score_type>  (16) 
oracle

>  <origin>  (16) 
adg

>  <m_score__min__energy>  (16) 
-4.9900000000000002

>  <m_primary>  (16) 
energy

$$$$
16:0
     RDKit          3D

 48 51  0  0  0  0  0  0  0  0999 V2000
   59.5280   22.5990   44.9940 C   0  0  0  0  0  0  0  0  0  0  0  0
   59.9170   23.5610   45.9700 O   0  0  0  0  0  0  0  0  0  0  0  0
   59.5430   24.9150   45.9550 C   0  0  0  0  0  0  0  0  0  0  0  0
   60.4770   25.9680   46.0340 C   0  0  0  0  0  0  0  0  0  0  0  0
   60.0450   27.2960   46.0090 C   0  0  0  0  0  0  0  0  0  0  0  0
   58.6770   27.5950   45.9150 C   0  0  0  0  0  0  0  0  0  0  0  0
   58.2300   28.9930   45.7950 C   0  0  0  0  0  0  0  0  0  0  0  0
   57.6430   29.3450   44.5710 C   0  0  0  0  0  0  0  0  0  0  0  0
   57.2890   30.6670   44.3340 C   0  0  0  0  0  0  0  0  0  0  0  0
   56.7560   30.9890   43.2410 O   0  0  0  0  0  0  0  0  0  0  0  0
   57.5220   31.6000   45.2460 O   0  0  0  0  0  0  0  0  0  0  0  0
   58.0720   31.3340   46.4270 C   0  0  0  0  0  0  0  0  0  0  0  0
   58.2900   32.4000   47.2990 C   0  0  0  0  0  0  0  0  0  0  0  0
   58.8780   32.1910   48.5540 C   0  0  0  0  0  0  0  0  0  0  0  0
   59.1490   33.2430   49.4420 O   0  0  0  0  0  0  0  0  0  0  0  0
   59.8870   34.4100   49.1060 C   0  0  0  0  0  0  0  0  0  0  0  0
   61.1470   33.9960   48.3930 C   0  0  0  0  0  0  0  0  0  0  0  0
   62.2110   33.4400   49.1270 C   0  0  0  0  0  0  0  0  0  0  0  0
   63.3930   33.0630   48.4860 C   0  0  0  0  0  0  0  0  0  0  0  0
   63.5290   33.2410   47.1090 C   0  0  0  0  0  0  0  0  0  0  0  0
   62.4830   33.7980   46.3680 C   0  0  0  0  0  0  0  0  0  0  0  0
   61.2920   34.1730   47.0010 C   0  0  0  0  0  0  0  0  0  0  0  0
   60.0030   34.8700   46.0190 Cl  0  0  0  0  0  0  0  0  0  0  0  0
   59.2050   30.8920   48.9390 C   0  0  0  0  0  0  0  0  0  0  0  0
   58.9520   29.7840   48.1100 C   0  0  0  0  0  0  0  0  0  0  0  0
   59.2190   28.4210   48.6950 C   0  0  0  0  0  0  0  0  0  0  0  0
   58.4340   30.0060   46.7880 C   0  0  0  0  0  0  0  0  0  0  0  0
   57.7500   26.5460   45.8070 C   0  0  0  0  0  0  0  0  0  0  0  0
   58.1810   25.2190   45.8470 C   0  0  0  0  0  0  0  0  0  0  0  0
   59.1615   21.6927   45.4982 H   0  0  0  0  0  0  0  0  0  0  0  0
   58.7284   23.0174   44.3651 H   0  0  0  0  0  0  0  0  0  0  0  0
   60.3937   22.3441   44.3651 H   0  0  0  0  0  0  0  0  0  0  0  0
   61.5506   25.7428   46.1157 H   0  0  0  0  0  0  0  0  0  0  0  0
   60.7809   28.1118   46.0633 H   0  0  0  0  0  0  0  0  0  0  0  0
   57.4639   28.5783   43.8028 H   0  0  0  0  0  0  0  0  0  0  0  0
   57.9971   33.4168   46.9985 H   0  0  0  0  0  0  0  0  0  0  0  0
   59.2837   35.0528   48.4482 H   0  0  0  0  0  0  0  0  0  0  0  0
   60.1396   34.9694   50.0188 H   0  0  0  0  0  0  0  0  0  0  0  0
   62.1110   33.3013   50.2136 H   0  0  0  0  0  0  0  0  0  0  0  0
   64.2178   32.6252   49.0675 H   0  0  0  0  0  0  0  0  0  0  0  0
   64.4606   32.9426   46.6059 H   0  0  0  0  0  0  0  0  0  0  0  0
   62.5960   33.9423   45.2834 H   0  0  0  0  0  0  0  0  0  0  0  0
   59.6748   30.7284   49.9201 H   0  0  0  0  0  0  0  0  0  0  0  0
   59.2066   28.4844   49.7931 H   0  0  0  0  0  0  0  0  0  0  0  0
   58.4413   27.7192   48.3594 H   0  0  0  0  0  0  0  0  0  0  0  0
   60.2041   28.0645   48.3594 H   0  0  0  0  0  0  0  0  0  0  0  0
   56.6796   26.7709   45.6904 H   0  0  0  0  0  0  0  0  0  0  0  0
   57.4435   24.4046   45.7932 H   0  0  0  0  0  0  0  0  0  0  0  0
  1  2  1  0
  2  3  1  0
  3  4  2  0
  4  5  1  0
  5  6  2  0
  6  7  1  0
  7  8  2  0
  8  9  1  0
  9 10  2  0
  9 11  1  0
 11 12  1  0
 12 13  2  0
 13 14  1  0
 14 15  1  0
 15 16  1  0
 16 17  1  0
 17 18  2  0
 18 19  1  0
 19 20  2  0
 20 21  1  0
 21 22  2  0
 22 23  1  0
 14 24  2  0
 24 25  1  0
 25 26  1  0
 25 27  2  0
  6 28  1  0
 28 29  2  0
 29  3  1  0
 27  7  1  0
 27 12  1  0
 22 17  1  0
  1 30  1  0
  1 31  1  0
  1 32  1  0
  4 33  1  0
  5 34  1  0
  8 35  1  0
 13 36  1  0
 16 37  1  0
 16 38  1  0
 18 39  1  0
 19 40  1  0
 20 41  1  0
 21 42  1  0
 24 43  1  0
 26 44  1  0
 26 45  1  0
 26 46  1  0
 28 47  1  0
 29 48  1  0
M  END
>  <UniqueID>  (17) 
17

>  <SMILES>  (17) 
COc1ccc(-c2cc(=O)oc3cc(OCc4ccccc4Cl)cc(C)c23)cc1

>  <Energy>  (17) 
73.2682893433898

>  <Genealogy>  (17) 
COc1ccc(-c2cc(=O)oc3cc(OCc4ccccc4Cl)cc(C)c23)cc1 (3D coordinates assigned)
COc1ccc(-c2cc(=O)oc3cc(OCc4ccccc4Cl)cc(C)c23)cc1 (optimized conformer: 73.2682893433898 kcal/mol)

>  <smiles>  (17) 
COc1ccc(-c2cc(=O)oc3cc(OCc4ccccc4Cl)cc(C)c23)cc1

>  <score_type>  (17) 
oracle

>  <origin>  (17) 
adg

>  <m_score__min__energy>  (17) 
-8.1699999999999999

>  <m_primary>  (17) 
energy

$$$$
17:0
     RDKit          3D

 65 66  0  0  0  0  0  0  0  0999 V2000
   64.6590   31.3850   50.8270 C   0  0  0  0  0  0  0  0  0  0  0  0
   63.3550   30.5750   50.8520 C   0  0  0  0  0  0  0  0  0  0  0  0
   62.2000   31.3730   51.3620 N   0  0  0  0  0  0  0  0  0  0  0  0
   61.4930   30.6690   52.4640 C   0  0  0  0  0  0  0  0  0  0  0  0
   61.3080   29.1590   52.2340 C   0  0  0  0  0  0  0  0  0  0  0  0
   62.5860   32.7500   51.7750 C   0  0  0  0  0  0  0  0  0  0  0  0
   61.5290   33.8100   51.4290 C   0  0  0  0  0  0  0  0  0  0  0  0
   60.5860   33.2670   50.5320 O   0  0  0  0  0  0  0  0  0  0  0  0
   59.2810   33.3640   51.0670 C   0  0  0  0  0  0  0  0  0  0  0  0
   58.5360   32.0410   50.8230 C   0  0  0  0  0  0  0  0  0  0  0  0
   59.3960   30.9670   50.2950 N   0  0  0  0  0  0  0  0  0  0  0  0
   58.6660   29.8990   49.5910 C   0  0  0  0  0  0  0  0  0  0  0  0
   59.6310   28.8660   48.9920 C   0  0  0  0  0  0  0  0  0  0  0  0
   60.6410   29.4870   48.0240 C   0  0  0  0  0  0  0  0  0  0  0  0
   61.2420   30.6360   48.6190 O   0  0  0  0  0  0  0  0  0  0  0  0
   61.8240   31.7010   47.9120 C   0  0  0  0  0  0  0  0  0  0  0  0
   63.2120   31.7670   47.6700 C   0  0  0  0  0  0  0  0  0  0  0  0
   63.7640   32.8710   47.0150 C   0  0  0  0  0  0  0  0  0  0  0  0
   62.9440   33.9140   46.5860 C   0  0  0  0  0  0  0  0  0  0  0  0
   61.5650   33.8500   46.7970 C   0  0  0  0  0  0  0  0  0  0  0  0
   60.9940   32.7440   47.4480 C   0  0  0  0  0  0  0  0  0  0  0  0
   59.4950   32.6810   47.6320 C   0  0  0  0  0  0  0  0  0  0  0  0
   58.7880   32.4230   46.3270 C   0  0  0  0  0  0  0  0  0  0  0  0
   58.6550   31.1110   45.8400 C   0  0  0  0  0  0  0  0  0  0  0  0
   57.9680   30.8680   44.6470 C   0  0  0  0  0  0  0  0  0  0  0  0
   57.4000   31.9290   43.9360 C   0  0  0  0  0  0  0  0  0  0  0  0
   57.5200   33.2360   44.4170 C   0  0  0  0  0  0  0  0  0  0  0  0
   58.2130   33.4840   45.6060 C   0  0  0  0  0  0  0  0  0  0  0  0
   64.9848   31.5874   51.8580 H   0  0  0  0  0  0  0  0  0  0  0  0
   65.4372   30.8111   50.3026 H   0  0  0  0  0  0  0  0  0  0  0  0
   64.4893   32.3369   50.3026 H   0  0  0  0  0  0  0  0  0  0  0  0
   63.1282   30.2386   49.8296 H   0  0  0  0  0  0  0  0  0  0  0  0
   63.5016   29.7234   51.5327 H   0  0  0  0  0  0  0  0  0  0  0  0
   61.4810   31.4620   50.6050 H   0  0  0  0  0  0  0  0  0  0  0  0
   62.0716   30.8083   53.3891 H   0  0  0  0  0  0  0  0  0  0  0  0
   60.4847   31.1051   52.5210 H   0  0  0  0  0  0  0  0  0  0  0  0
   61.2451   28.6453   53.2046 H   0  0  0  0  0  0  0  0  0  0  0  0
   60.3819   28.9853   51.6665 H   0  0  0  0  0  0  0  0  0  0  0  0
   62.1648   28.7669   51.6665 H   0  0  0  0  0  0  0  0  0  0  0  0
   62.7427   32.7564   52.8638 H   0  0  0  0  0  0  0  0  0  0  0  0
   63.5003   33.0106   51.2216 H   0  0  0  0  0  0  0  0  0  0  0  0
   61.0169   34.1293   52.3487 H   0  0  0  0  0  0  0  0  0  0  0  0
   62.0210   34.6750   50.9603 H   0  0  0  0  0  0  0  0  0  0  0  0
   59.3399   33.5594   52.1479 H   0  0  0  0  0  0  0  0  0  0  0  0
   58.7410   34.1883   50.5782 H   0  0  0  0  0  0  0  0  0  0  0  0
   58.1051   31.7037   51.7772 H   0  0  0  0  0  0  0  0  0  0  0  0
   57.7663   32.2403   50.0629 H   0  0  0  0  0  0  0  0  0  0  0  0
   60.1110   31.3860   49.6540 H   0  0  0  0  0  0  0  0  0  0  0  0
   57.9962   29.3936   50.3023 H   0  0  0  0  0  0  0  0  0  0  0  0
   58.0907   30.3535   48.7710 H   0  0  0  0  0  0  0  0  0  0  0  0
   60.1821   28.3831   49.8125 H   0  0  0  0  0  0  0  0  0  0  0  0
   59.0290   28.1427   48.4225 H   0  0  0  0  0  0  0  0  0  0  0  0
   61.4213   28.7485   47.7879 H   0  0  0  0  0  0  0  0  0  0  0  0
   60.1212   29.7871   47.1022 H   0  0  0  0  0  0  0  0  0  0  0  0
   63.8639   30.9443   47.9989 H   0  0  0  0  0  0  0  0  0  0  0  0
   64.8486   32.9174   46.8373 H   0  0  0  0  0  0  0  0  0  0  0  0
   63.3833   34.7872   46.0814 H   0  0  0  0  0  0  0  0  0  0  0  0
   60.9211   34.6719   46.4508 H   0  0  0  0  0  0  0  0  0  0  0  0
   59.2551   31.8695   48.3348 H   0  0  0  0  0  0  0  0  0  0  0  0
   59.1545   33.6513   48.0225 H   0  0  0  0  0  0  0  0  0  0  0  0
   59.0934   30.2719   46.4001 H   0  0  0  0  0  0  0  0  0  0  0  0
   57.8742   29.8400   44.2671 H   0  0  0  0  0  0  0  0  0  0  0  0
   56.8587   31.7355   42.9982 H   0  0  0  0  0  0  0  0  0  0  0  0
   57.0689   34.0702   43.8597 H   0  0  0  0  0  0  0  0  0  0  0  0
   58.3087   34.5144   45.9790 H   0  0  0  0  0  0  0  0  0  0  0  0
  1  2  1  0
  2  3  1  0
  3  4  1  0
  4  5  1  0
  3  6  1  0
  6  7  1  0
  7  8  1  0
  8  9  1  0
  9 10  1  0
 10 11  1  0
 11 12  1  0
 12 13  1  0
 13 14  1  0
 14 15  1  0
 15 16  1  0
 16 17  2  0
 17 18  1  0
 18 19  2  0
 19 20  1  0
 20 21  2  0
 21 22  1  0
 22 23  1  0
 23 24  2  0
 24 25  1  0
 25 26  2  0
 26 27  1  0
 27 28  2  0
 21 16  1  0
 28 23  1  0
  1 29  1  0
  1 30  1  0
  1 31  1  0
  2 32  1  0
  2 33  1  0
  3 34  1  0
  4 35  1  0
  4 36  1  0
  5 37  1  0
  5 38  1  0
  5 39  1  0
  6 40  1  0
  6 41  1  0
  7 42  1  0
  7 43  1  0
  9 44  1  0
  9 45  1  0
 10 46  1  0
 10 47  1  0
 11 48  1  0
 12 49  1  0
 12 50  1  0
 13 51  1  0
 13 52  1  0
 14 53  1  0
 14 54  1  0
 17 55  1  0
 18 56  1  0
 19 57  1  0
 20 58  1  0
 22 59  1  0
 22 60  1  0
 24 61  1  0
 25 62  1  0
 26 63  1  0
 27 64  1  0
 28 65  1  0
M  CHG  1   3   1
M  END
>  <UniqueID>  (18) 
18

>  <SMILES>  (18) 
CC[NH+](CC)CCOCCNCCCOc1ccccc1Cc1ccccc1

>  <Energy>  (18) 
62.26210334951624

>  <Genealogy>  (18) 
CC[NH+](CC)CCOCCNCCCOc1ccccc1Cc1ccccc1 (protonated)
CC[NH+](CC)CCOCCNCCCOc1ccccc1Cc1ccccc1 (3D coordinates assigned)
CC[NH+](CC)CCOCCNCCCOc1ccccc1Cc1ccccc1 (optimized conformer: 62.26210334951624 kcal/mol)

>  <smiles>  (18) 
CCN(CC)CCOCCNCCCOc1ccccc1Cc1ccccc1

>  <score_type>  (18) 
oracle

>  <origin>  (18) 
adg

>  <m_score__min__energy>  (18) 
-4.5599999999999996

>  <m_primary>  (18) 
energy

$$$$
18:0
     RDKit          3D

 28 28  0  0  0  0  0  0  0  0999 V2000
   60.7670   28.7770   44.8180 C   0  0  0  0  0  0  0  0  0  0  0  0
   59.3150   28.9840   45.2400 C   0  0  0  0  0  0  0  0  0  0  0  0
   58.4050   28.8980   44.0800 N   0  0  0  0  0  0  0  0  0  0  0  0
   57.8010   27.5560   43.9300 C   0  0  0  0  0  0  0  0  0  0  0  0
   58.1370   26.8630   42.6010 C   0  0  0  0  0  0  0  0  0  0  0  0
   57.1940   30.1690   44.0790 S   0  0  0  0  0  0  0  0  0  0  0  0
   56.7540   30.4810   42.6760 O   0  0  0  0  0  0  0  0  0  0  0  0
   55.9930   29.7420   44.8800 O   0  0  0  0  0  0  0  0  0  0  0  0
   57.8850   31.6320   44.7690 C   0  0  0  0  0  0  0  0  0  0  0  0
   58.1630   32.7470   43.9680 C   0  0  0  0  0  0  0  0  0  0  0  0
   58.7060   33.8980   44.5410 C   0  0  0  0  0  0  0  0  0  0  0  0
   58.9690   33.9200   45.9130 C   0  0  0  0  0  0  0  0  0  0  0  0
   59.6500   35.3520   46.6580 Cl  0  0  0  0  0  0  0  0  0  0  0  0
   58.6990   32.8270   46.6740 N   0  0  0  0  0  0  0  0  0  0  0  0
   58.1700   31.6950   46.1390 C   0  0  0  0  0  0  0  0  0  0  0  0
   61.3997   28.6868   45.7133 H   0  0  0  0  0  0  0  0  0  0  0  0
   60.8471   27.8583   44.2183 H   0  0  0  0  0  0  0  0  0  0  0  0
   61.1007   29.6367   44.2183 H   0  0  0  0  0  0  0  0  0  0  0  0
   59.0396   28.2091   45.9705 H   0  0  0  0  0  0  0  0  0  0  0  0
   59.2204   29.9860   45.6838 H   0  0  0  0  0  0  0  0  0  0  0  0
   58.1622   26.9206   44.7521 H   0  0  0  0  0  0  0  0  0  0  0  0
   56.7100   27.6949   43.9488 H   0  0  0  0  0  0  0  0  0  0  0  0
   58.6087   25.8902   42.8038 H   0  0  0  0  0  0  0  0  0  0  0  0
   57.2133   26.7094   42.0238 H   0  0  0  0  0  0  0  0  0  0  0  0
   58.8296   27.4931   42.0238 H   0  0  0  0  0  0  0  0  0  0  0  0
   57.9536   32.7155   42.8886 H   0  0  0  0  0  0  0  0  0  0  0  0
   58.9246   34.7785   43.9190 H   0  0  0  0  0  0  0  0  0  0  0  0
   57.9654   30.8270   46.7829 H   0  0  0  0  0  0  0  0  0  0  0  0
  1  2  1  0
  2  3  1  0
  3  4  1  0
  4  5  1  0
  3  6  1  0
  6  7  2  0
  6  8  2  0
  6  9  1  0
  9 10  2  0
 10 11  1  0
 11 12  2  0
 12 13  1  0
 12 14  1  0
 14 15  2  0
 15  9  1  0
  1 16  1  0
  1 17  1  0
  1 18  1  0
  2 19  1  0
  2 20  1  0
  4 21  1  0
  4 22  1  0
  5 23  1  0
  5 24  1  0
  5 25  1  0
 10 26  1  0
 11 27  1  0
 15 28  1  0
M  END
>  <UniqueID>  (19) 
19

>  <SMILES>  (19) 
CCN(CC)S(=O)(=O)c1ccc(Cl)nc1

>  <Energy>  (19) 
25.77672547374847

>  <Genealogy>  (19) 
CCN(CC)S(=O)(=O)c1ccc(Cl)nc1 (3D coordinates assigned)
CCN(CC)S(=O)(=O)c1ccc(Cl)nc1 (optimized conformer: 25.77672547374847 kcal/mol)

>  <smiles>  (19) 
CCN(CC)S(=O)(=O)c1ccc(Cl)nc1

>  <score_type>  (19) 
oracle

>  <origin>  (19) 
adg

>  <m_score__min__energy>  (19) 
-6.1500000000000004

>  <m_primary>  (19) 
energy

$$$$
19:0
     RDKit          3D

 57 60  0  0  0  0  0  0  0  0999 V2000
   63.3500   34.0530   46.3940 C   0  0  0  0  0  0  0  0  0  0  0  0
   63.7500   33.6610   47.8110 C   0  0  0  0  0  0  0  0  0  0  0  0
   63.8270   32.2010   47.9200 N   0  0  0  0  0  0  0  0  0  0  0  0
   62.5200   31.5710   47.6830 C   0  0  0  0  0  0  0  0  0  0  0  0
   61.7250   31.4730   48.9890 C   0  0  0  0  0  0  0  0  0  0  0  0
   60.3560   31.9710   48.8260 N   0  0  0  0  0  0  0  0  0  0  0  0
   59.6100   31.7690   47.6120 C   0  0  0  0  0  0  0  0  0  0  0  0
   59.4150   32.8270   46.7070 C   0  0  0  0  0  0  0  0  0  0  0  0
   59.8450   34.1350   47.0110 C   0  0  0  0  0  0  0  0  0  0  0  0
   59.6440   35.1780   46.1090 C   0  0  0  0  0  0  0  0  0  0  0  0
   58.9950   34.9410   44.9020 C   0  0  0  0  0  0  0  0  0  0  0  0
   58.5320   33.6620   44.5950 C   0  0  0  0  0  0  0  0  0  0  0  0
   58.7130   32.5840   45.4970 C   0  0  0  0  0  0  0  0  0  0  0  0
   58.2040   31.3290   45.2280 N   0  0  0  0  0  0  0  0  0  0  0  0
   57.0680   31.2210   44.2860 C   0  0  0  0  0  0  0  0  0  0  0  0
   58.5840   30.2460   46.0030 C   0  0  0  0  0  0  0  0  0  0  0  0
   59.1370   30.4850   47.2850 C   0  0  0  0  0  0  0  0  0  0  0  0
   59.2110   29.4360   48.2150 C   0  0  0  0  0  0  0  0  0  0  0  0
   58.8520   28.1430   47.8600 C   0  0  0  0  0  0  0  0  0  0  0  0
   58.5110   27.8340   46.5350 C   0  0  0  0  0  0  0  0  0  0  0  0
   58.3090   26.4860   46.1510 C   0  0  0  0  0  0  0  0  0  0  0  0
   58.3500   25.5040   47.1620 O   0  0  0  0  0  0  0  0  0  0  0  0
   57.3220   24.5730   47.4910 C   0  0  0  0  0  0  0  0  0  0  0  0
   58.0900   26.1750   44.7870 C   0  0  0  0  0  0  0  0  0  0  0  0
   57.8310   24.8520   44.4010 O   0  0  0  0  0  0  0  0  0  0  0  0
   56.9570   24.4630   43.3470 C   0  0  0  0  0  0  0  0  0  0  0  0
   58.1480   27.2050   43.8350 C   0  0  0  0  0  0  0  0  0  0  0  0
   58.3430   28.5270   44.2210 C   0  0  0  0  0  0  0  0  0  0  0  0
   58.4340   28.8830   45.5790 C   0  0  0  0  0  0  0  0  0  0  0  0
   62.5649   34.8224   46.4342 H   0  0  0  0  0  0  0  0  0  0  0  0
   64.2268   34.4513   45.8624 H   0  0  0  0  0  0  0  0  0  0  0  0
   62.9695   33.1683   45.8624 H   0  0  0  0  0  0  0  0  0  0  0  0
   64.7320   34.0970   48.0470 H   0  0  0  0  0  0  0  0  0  0  0  0
   62.9969   34.0385   48.5183 H   0  0  0  0  0  0  0  0  0  0  0  0
   64.4880   31.8640   47.1800 H   0  0  0  0  0  0  0  0  0  0  0  0
   61.9533   32.1750   46.9591 H   0  0  0  0  0  0  0  0  0  0  0  0
   62.6810   30.5569   47.2884 H   0  0  0  0  0  0  0  0  0  0  0  0
   61.6866   30.4202   49.3054 H   0  0  0  0  0  0  0  0  0  0  0  0
   62.2287   32.0925   49.7457 H   0  0  0  0  0  0  0  0  0  0  0  0
   59.8820   32.4250   49.6390 H   0  0  0  0  0  0  0  0  0  0  0  0
   60.3445   34.3342   47.9706 H   0  0  0  0  0  0  0  0  0  0  0  0
   59.9992   36.1903   46.3520 H   0  0  0  0  0  0  0  0  0  0  0  0
   58.8466   35.7644   44.1879 H   0  0  0  0  0  0  0  0  0  0  0  0
   58.0184   33.4871   43.6381 H   0  0  0  0  0  0  0  0  0  0  0  0
   56.1292   31.1318   44.8524 H   0  0  0  0  0  0  0  0  0  0  0  0
   57.0301   32.1196   43.6527 H   0  0  0  0  0  0  0  0  0  0  0  0
   57.2001   30.3314   43.6527 H   0  0  0  0  0  0  0  0  0  0  0  0
   59.5580   29.6414   49.2384 H   0  0  0  0  0  0  0  0  0  0  0  0
   58.8348   27.3530   48.6252 H   0  0  0  0  0  0  0  0  0  0  0  0
   57.2350   24.4942   48.5847 H   0  0  0  0  0  0  0  0  0  0  0  0
   56.3659   24.9189   47.0711 H   0  0  0  0  0  0  0  0  0  0  0  0
   57.5717   23.5875   47.0711 H   0  0  0  0  0  0  0  0  0  0  0  0
   56.0303   24.0505   43.7725 H   0  0  0  0  0  0  0  0  0  0  0  0
   56.7174   25.3395   42.7270 H   0  0  0  0  0  0  0  0  0  0  0  0
   57.4479   23.6984   42.7270 H   0  0  0  0  0  0  0  0  0  0  0  0
   58.0376   26.9630   42.7677 H   0  0  0  0  0  0  0  0  0  0  0  0
   58.4275   29.3079   43.4509 H   0  0  0  0  0  0  0  0  0  0  0  0
  1  2  1  0
  2  3  1  0
  3  4  1  0
  4  5  1  0
  5  6  1  0
  6  7  1  0
  7  8  2  0
  8  9  1  0
  9 10  2  0
 10 11  1  0
 11 12  2  0
 12 13  1  0
 13 14  2  0
 14 15  1  0
 14 16  1  0
 16 17  2  0
 17 18  1  0
 18 19  2  0
 19 20  1  0
 20 21  2  0
 21 22  1  0
 22 23  1  0
 21 24  1  0
 24 25  1  0
 25 26  1  0
 24 27  2  0
 27 28  1  0
 28 29  2  0
 17  7  1  0
 29 20  1  0
 13  8  1  0
 29 16  1  0
  1 30  1  0
  1 31  1  0
  1 32  1  0
  2 33  1  0
  2 34  1  0
  3 35  1  0
  4 36  1  0
  4 37  1  0
  5 38  1  0
  5 39  1  0
  6 40  1  0
  9 41  1  0
 10 42  1  0
 11 43  1  0
 12 44  1  0
 15 45  1  0
 15 46  1  0
 15 47  1  0
 18 48  1  0
 19 49  1  0
 23 50  1  0
 23 51  1  0
 23 52  1  0
 26 53  1  0
 26 54  1  0
 26 55  1  0
 27 56  1  0
 28 57  1  0
M  CHG  1  14   1
M  END
>  <UniqueID>  (20) 
20

>  <SMILES>  (20) 
CCNCCNc1c2ccccc2[n+](C)c2c1ccc1c(OC)c(OC)ccc12

>  <Energy>  (20) 
100.81848868430572

>  <Genealogy>  (20) 
CCNCCNc1c2ccccc2[n+](C)c2c1ccc1c(OC)c(OC)ccc12 (3D coordinates assigned)
CCNCCNc1c2ccccc2[n+](C)c2c1ccc1c(OC)c(OC)ccc12 (optimized conformer: 100.81848868430572 kcal/mol)

>  <smiles>  (20) 
CCNCCNc1c2ccccc2[n+](C)c2c1ccc1c(OC)c(OC)ccc12

>  <score_type>  (20) 
oracle

>  <origin>  (20) 
adg

>  <m_score__min__energy>  (20) 
-6.3099999999999996

>  <m_primary>  (20) 
energy

$$$$
20:0
     RDKit          3D

 48 50  0  0  0  0  0  0  0  0999 V2000
   58.8970   32.5750   48.9220 C   0  0  0  0  0  0  0  0  0  0  0  0
   58.9870   33.8100   48.0190 C   0  0  0  0  0  0  0  0  0  0  0  0
   59.6520   33.5630   46.7220 N   0  0  0  0  0  0  0  0  0  0  0  0
   60.7640   34.4940   46.4490 C   0  0  0  0  0  0  0  0  0  0  0  0
   62.0890   33.7430   46.3650 C   0  0  0  0  0  0  0  0  0  0  0  0
   58.5250   33.3970   45.3820 S   0  0  0  0  0  0  0  0  0  0  0  0
   59.0670   34.1140   44.1770 O   0  0  0  0  0  0  0  0  0  0  0  0
   57.2300   34.0630   45.7540 O   0  0  0  0  0  0  0  0  0  0  0  0
   58.1740   31.7190   44.9380 C   0  0  0  0  0  0  0  0  0  0  0  0
   57.5170   31.4350   43.7310 C   0  0  0  0  0  0  0  0  0  0  0  0
   57.2510   30.1140   43.3620 C   0  0  0  0  0  0  0  0  0  0  0  0
   57.6550   29.0540   44.1860 C   0  0  0  0  0  0  0  0  0  0  0  0
   57.3930   27.7620   43.8350 N   0  0  0  0  0  0  0  0  0  0  0  0
   57.7860   26.7120   44.6130 C   0  0  0  0  0  0  0  0  0  0  0  0
   58.4780   26.9500   45.8220 C   0  0  0  0  0  0  0  0  0  0  0  0
   58.7490   28.2700   46.2010 C   0  0  0  0  0  0  0  0  0  0  0  0
   58.3430   29.3320   45.3870 C   0  0  0  0  0  0  0  0  0  0  0  0
   58.6080   30.6610   45.7510 C   0  0  0  0  0  0  0  0  0  0  0  0
   58.8790   25.7990   46.7170 C   0  0  0  0  0  0  0  0  0  0  0  0
   57.6790   25.0600   47.3520 C   0  0  0  0  0  0  0  0  0  0  0  0
   56.9620   24.0360   46.4500 C   0  0  0  0  0  0  0  0  0  0  0  0
   56.4080   24.6230   45.1360 C   0  0  0  0  0  0  0  0  0  0  0  0
   57.4410   25.2960   44.2050 C   0  0  0  0  0  0  0  0  0  0  0  0
   58.9199   32.8890   49.9760 H   0  0  0  0  0  0  0  0  0  0  0  0
   57.9575   32.0401   48.7191 H   0  0  0  0  0  0  0  0  0  0  0  0
   59.7490   31.9095   48.7191 H   0  0  0  0  0  0  0  0  0  0  0  0
   57.9660   34.1681   47.8209 H   0  0  0  0  0  0  0  0  0  0  0  0
   59.6007   34.5497   48.5540 H   0  0  0  0  0  0  0  0  0  0  0  0
   60.5788   35.0072   45.4938 H   0  0  0  0  0  0  0  0  0  0  0  0
   60.8231   35.2239   47.2698 H   0  0  0  0  0  0  0  0  0  0  0  0
   62.4572   33.5343   47.3803 H   0  0  0  0  0  0  0  0  0  0  0  0
   61.9398   32.7952   45.8271 H   0  0  0  0  0  0  0  0  0  0  0  0
   62.8255   34.3579   45.8271 H   0  0  0  0  0  0  0  0  0  0  0  0
   57.2090   32.2588   43.0703 H   0  0  0  0  0  0  0  0  0  0  0  0
   56.7221   29.9046   42.4205 H   0  0  0  0  0  0  0  0  0  0  0  0
   56.8730   27.5710   42.9470 H   0  0  0  0  0  0  0  0  0  0  0  0
   59.2826   28.4723   47.1414 H   0  0  0  0  0  0  0  0  0  0  0  0
   59.1590   30.8746   46.6788 H   0  0  0  0  0  0  0  0  0  0  0  0
   59.4543   25.0774   46.1184 H   0  0  0  0  0  0  0  0  0  0  0  0
   59.4692   26.2235   47.5425 H   0  0  0  0  0  0  0  0  0  0  0  0
   58.0447   24.5267   48.2419 H   0  0  0  0  0  0  0  0  0  0  0  0
   56.9324   25.8382   47.5689 H   0  0  0  0  0  0  0  0  0  0  0  0
   57.6777   23.2401   46.1965 H   0  0  0  0  0  0  0  0  0  0  0  0
   56.0958   23.6680   47.0195 H   0  0  0  0  0  0  0  0  0  0  0  0
   55.9334   23.8041   44.5755 H   0  0  0  0  0  0  0  0  0  0  0  0
   55.7160   25.4230   45.4377 H   0  0  0  0  0  0  0  0  0  0  0  0
   58.3628   24.6958   44.2155 H   0  0  0  0  0  0  0  0  0  0  0  0
   56.9896   25.3478   43.2032 H   0  0  0  0  0  0  0  0  0  0  0  0
  1  2  1  0
  2  3  1  0
  3  4  1  0
  4  5  1  0
  3  6  1  0
  6  7  2  0
  6  8  2  0
  6  9  1  0
  9 10  2  0
 10 11  1  0
 11 12  2  0
 12 13  1  0
 13 14  2  0
 14 15  1  0
 15 16  2  0
 16 17  1  0
 17 18  2  0
 15 19  1  0
 19 20  1  0
 20 21  1  0
 21 22  1  0
 22 23  1  0
 18  9  1  0
 17 12  1  0
 23 14  1  0
  1 24  1  0
  1 25  1  0
  1 26  1  0
  2 27  1  0
  2 28  1  0
  4 29  1  0
  4 30  1  0
  5 31  1  0
  5 32  1  0
  5 33  1  0
 10 34  1  0
 11 35  1  0
 13 36  1  0
 16 37  1  0
 18 38  1  0
 19 39  1  0
 19 40  1  0
 20 41  1  0
 20 42  1  0
 21 43  1  0
 21 44  1  0
 22 45  1  0
 22 46  1  0
 23 47  1  0
 23 48  1  0
M  CHG  1  13   1
M  END
>  <UniqueID>  (21) 
21

>  <SMILES>  (21) 
CCN(CC)S(=O)(=O)c1ccc2[nH+]c3c(cc2c1)CCCCC3

>  <Energy>  (21) 
59.36229471579296

>  <Genealogy>  (21) 
CCN(CC)S(=O)(=O)c1ccc2[nH+]c3c(cc2c1)CCCCC3 (protonated)
CCN(CC)S(=O)(=O)c1ccc2[nH+]c3c(cc2c1)CCCCC3 (3D coordinates assigned)
CCN(CC)S(=O)(=O)c1ccc2[nH+]c3c(cc2c1)CCCCC3 (nonaromatic ring conformer: 59.36229471579296 kcal/mol)

>  <smiles>  (21) 
CCN(CC)S(=O)(=O)c1ccc2nc3c(cc2c1)CCCCC3

>  <score_type>  (21) 
oracle

>  <origin>  (21) 
adg

>  <m_score__min__energy>  (21) 
-4.96

>  <m_primary>  (21) 
energy

$$$$
21:0
     RDKit          3D

 47 50  0  0  0  0  0  0  0  0999 V2000
   63.5690   32.7010   48.0590 C   0  0  0  0  0  0  0  0  0  0  0  0
   62.2100   33.0910   47.4850 C   0  0  0  0  0  0  0  0  0  0  0  0
   61.1180   32.6780   48.3920 N   0  0  0  0  0  0  0  0  0  0  0  0
   60.4560   31.4820   48.2190 C   0  0  0  0  0  0  0  0  0  0  0  0
   60.8170   30.3650   46.8500 S   0  0  0  0  0  0  0  0  0  0  0  0
   59.5410   29.1200   47.2660 C   0  0  0  0  0  0  0  0  0  0  0  0
   59.0520   28.3950   46.0110 C   0  0  0  0  0  0  0  0  0  0  0  0
   59.3700   29.3860   44.5040 S   0  0  0  0  0  0  0  0  0  0  0  0
   57.6620   29.9110   44.3090 C   0  0  0  0  0  0  0  0  0  0  0  0
   56.6670   29.1020   43.9120 N   0  0  0  0  0  0  0  0  0  0  0  0
   55.5470   29.7980   44.0400 N   0  0  0  0  0  0  0  0  0  0  0  0
   55.8360   31.0060   44.5040 N   0  0  0  0  0  0  0  0  0  0  0  0
   57.1460   31.1000   44.6730 N   0  0  0  0  0  0  0  0  0  0  0  0
   57.8210   32.2640   45.1680 C   0  0  0  0  0  0  0  0  0  0  0  0
   57.7800   32.5680   46.5370 C   0  0  0  0  0  0  0  0  0  0  0  0
   58.4170   33.7140   47.0240 C   0  0  0  0  0  0  0  0  0  0  0  0
   59.0700   34.5790   46.1420 C   0  0  0  0  0  0  0  0  0  0  0  0
   59.0900   34.2960   44.7750 C   0  0  0  0  0  0  0  0  0  0  0  0
   58.4800   33.1370   44.2870 C   0  0  0  0  0  0  0  0  0  0  0  0
   59.4550   31.1260   49.0600 N   0  0  0  0  0  0  0  0  0  0  0  0
   59.0820   31.9080   50.0990 C   0  0  0  0  0  0  0  0  0  0  0  0
   58.0580   31.4900   50.9570 C   0  0  0  0  0  0  0  0  0  0  0  0
   57.6780   32.2950   52.0340 C   0  0  0  0  0  0  0  0  0  0  0  0
   58.3130   33.5200   52.2530 C   0  0  0  0  0  0  0  0  0  0  0  0
   59.3360   33.9440   51.3980 C   0  0  0  0  0  0  0  0  0  0  0  0
   59.7310   33.1350   50.3140 C   0  0  0  0  0  0  0  0  0  0  0  0
   60.7700   33.5000   49.4410 C   0  0  0  0  0  0  0  0  0  0  0  0
   61.3850   34.5880   49.6270 O   0  0  0  0  0  0  0  0  0  0  0  0
   63.5206   32.7149   49.1578 H   0  0  0  0  0  0  0  0  0  0  0  0
   63.8353   31.6902   47.7165 H   0  0  0  0  0  0  0  0  0  0  0  0
   64.3308   33.4168   47.7165 H   0  0  0  0  0  0  0  0  0  0  0  0
   62.1747   34.1823   47.3518 H   0  0  0  0  0  0  0  0  0  0  0  0
   62.0767   32.5824   46.5188 H   0  0  0  0  0  0  0  0  0  0  0  0
   59.9699   28.3843   47.9622 H   0  0  0  0  0  0  0  0  0  0  0  0
   58.6862   29.6355   47.7281 H   0  0  0  0  0  0  0  0  0  0  0  0
   59.5783   27.4329   45.9249 H   0  0  0  0  0  0  0  0  0  0  0  0
   57.9670   28.2382   46.1010 H   0  0  0  0  0  0  0  0  0  0  0  0
   56.7320   28.1090   43.5990 H   0  0  0  0  0  0  0  0  0  0  0  0
   57.2447   31.9024   47.2302 H   0  0  0  0  0  0  0  0  0  0  0  0
   58.4039   33.9344   48.1016 H   0  0  0  0  0  0  0  0  0  0  0  0
   59.5679   35.4822   46.5244 H   0  0  0  0  0  0  0  0  0  0  0  0
   59.5877   34.9877   44.0794 H   0  0  0  0  0  0  0  0  0  0  0  0
   58.5161   32.9083   43.2116 H   0  0  0  0  0  0  0  0  0  0  0  0
   57.5528   30.5284   50.7835 H   0  0  0  0  0  0  0  0  0  0  0  0
   56.8770   31.9634   52.7111 H   0  0  0  0  0  0  0  0  0  0  0  0
   58.0079   34.1526   53.0996 H   0  0  0  0  0  0  0  0  0  0  0  0
   59.8325   34.9100   51.5722 H   0  0  0  0  0  0  0  0  0  0  0  0
  1  2  1  0
  2  3  1  0
  3  4  1  0
  4  5  1  0
  5  6  1  0
  6  7  1  0
  7  8  1  0
  8  9  1  0
  9 10  2  0
 10 11  1  0
 11 12  2  0
 12 13  1  0
 13 14  1  0
 14 15  2  0
 15 16  1  0
 16 17  2  0
 17 18  1  0
 18 19  2  0
  4 20  2  0
 20 21  1  0
 21 22  2  0
 22 23  1  0
 23 24  2  0
 24 25  1  0
 25 26  2  0
 26 27  1  0
 27 28  2  0
 27  3  1  0
 13  9  1  0
 19 14  1  0
 26 21  1  0
  1 29  1  0
  1 30  1  0
  1 31  1  0
  2 32  1  0
  2 33  1  0
  6 34  1  0
  6 35  1  0
  7 36  1  0
  7 37  1  0
 10 38  1  0
 15 39  1  0
 16 40  1  0
 17 41  1  0
 18 42  1  0
 19 43  1  0
 22 44  1  0
 23 45  1  0
 24 46  1  0
 25 47  1  0
M  CHG  1  10   1
M  END
>  <UniqueID>  (22) 
22

>  <SMILES>  (22) 
CCn1c(SCCSc2[nH+]nnn2-c2ccccc2)nc2ccccc2c1=O

>  <Energy>  (22) 
91.44977438394633

>  <Genealogy>  (22) 
CCn1c(SCCSc2[nH+]nnn2-c2ccccc2)nc2ccccc2c1=O (protonated)
CCn1c(SCCSc2[nH+]nnn2-c2ccccc2)nc2ccccc2c1=O (3D coordinates assigned)
CCn1c(SCCSc2[nH+]nnn2-c2ccccc2)nc2ccccc2c1=O (optimized conformer: 91.44977438394633 kcal/mol)

>  <smiles>  (22) 
CCn1c(SCCSc2nnnn2-c2ccccc2)nc2ccccc2c1=O

>  <score_type>  (22) 
oracle

>  <origin>  (22) 
adg

>  <m_score__min__energy>  (22) 
-7.6399999999999997

>  <m_primary>  (22) 
energy

$$$$
22:0
     RDKit          3D

 40 42  0  0  0  0  0  0  0  0999 V2000
   64.1290   33.1690   48.7810 C   0  0  0  0  0  0  0  0  0  0  0  0
   62.7750   33.4930   48.2200 C   0  0  0  0  0  0  0  0  0  0  0  0
   62.5690   33.4990   46.8330 C   0  0  0  0  0  0  0  0  0  0  0  0
   61.3170   33.8370   46.3080 C   0  0  0  0  0  0  0  0  0  0  0  0
   60.2600   34.1870   47.1570 C   0  0  0  0  0  0  0  0  0  0  0  0
   59.0260   34.5230   46.5760 O   0  0  0  0  0  0  0  0  0  0  0  0
   58.7820   34.6490   45.1760 C   0  0  0  0  0  0  0  0  0  0  0  0
   58.3030   33.3530   44.6040 C   0  0  0  0  0  0  0  0  0  0  0  0
   57.9220   32.2970   45.3480 N   0  0  0  0  0  0  0  0  0  0  0  0
   57.5740   31.3620   44.4450 C   0  0  0  0  0  0  0  0  0  0  0  0
   57.1520   29.9870   44.7650 C   0  0  0  0  0  0  0  0  0  0  0  0
   55.9200   29.7410   44.8780 O   0  0  0  0  0  0  0  0  0  0  0  0
   58.1080   28.9310   44.9530 N   0  0  0  0  0  0  0  0  0  0  0  0
   57.7680   27.5290   44.7750 C   0  0  0  0  0  0  0  0  0  0  0  0
   58.8720   26.7410   45.4680 C   0  0  0  0  0  0  0  0  0  0  0  0
   60.0100   27.7290   45.7060 C   0  0  0  0  0  0  0  0  0  0  0  0
   59.3840   29.1150   45.6260 C   0  0  0  0  0  0  0  0  0  0  0  0
   57.7680   31.8800   43.1810 C   0  0  0  0  0  0  0  0  0  0  0  0
   58.2070   33.1110   43.3150 O   0  0  0  0  0  0  0  0  0  0  0  0
   60.4720   34.1940   48.5490 C   0  0  0  0  0  0  0  0  0  0  0  0
   61.7240   33.8560   49.0730 C   0  0  0  0  0  0  0  0  0  0  0  0
   64.0828   33.1801   49.8800 H   0  0  0  0  0  0  0  0  0  0  0  0
   64.4392   32.1713   48.4371 H   0  0  0  0  0  0  0  0  0  0  0  0
   64.8573   33.9182   48.4371 H   0  0  0  0  0  0  0  0  0  0  0  0
   63.3948   33.2370   46.1552 H   0  0  0  0  0  0  0  0  0  0  0  0
   61.1617   33.8277   45.2191 H   0  0  0  0  0  0  0  0  0  0  0  0
   58.0164   35.4214   45.0110 H   0  0  0  0  0  0  0  0  0  0  0  0
   59.7213   34.9299   44.6773 H   0  0  0  0  0  0  0  0  0  0  0  0
   57.9570   32.2110   46.3880 H   0  0  0  0  0  0  0  0  0  0  0  0
   56.7939   27.3099   45.2365 H   0  0  0  0  0  0  0  0  0  0  0  0
   57.6899   27.2642   43.7102 H   0  0  0  0  0  0  0  0  0  0  0  0
   58.5101   26.3374   46.4252 H   0  0  0  0  0  0  0  0  0  0  0  0
   59.2013   25.8875   44.8572 H   0  0  0  0  0  0  0  0  0  0  0  0
   60.4556   27.5673   46.6986 H   0  0  0  0  0  0  0  0  0  0  0  0
   60.8133   27.6056   44.9647 H   0  0  0  0  0  0  0  0  0  0  0  0
   59.2300   29.5253   46.6349 H   0  0  0  0  0  0  0  0  0  0  0  0
   60.0303   29.8223   45.0856 H   0  0  0  0  0  0  0  0  0  0  0  0
   57.5874   31.3559   42.2309 H   0  0  0  0  0  0  0  0  0  0  0  0
   59.6497   34.4664   49.2270 H   0  0  0  0  0  0  0  0  0  0  0  0
   61.8846   33.8752   50.1610 H   0  0  0  0  0  0  0  0  0  0  0  0
  1  2  1  0
  2  3  2  0
  3  4  1  0
  4  5  2  0
  5  6  1  0
  6  7  1  0
  7  8  1  0
  8  9  2  0
  9 10  1  0
 10 11  1  0
 11 12  2  0
 11 13  1  0
 13 14  1  0
 14 15  1  0
 15 16  1  0
 16 17  1  0
 10 18  2  0
 18 19  1  0
  5 20  1  0
 20 21  2  0
 21  2  1  0
 19  8  1  0
 17 13  1  0
  1 22  1  0
  1 23  1  0
  1 24  1  0
  3 25  1  0
  4 26  1  0
  7 27  1  0
  7 28  1  0
  9 29  1  0
 14 30  1  0
 14 31  1  0
 15 32  1  0
 15 33  1  0
 16 34  1  0
 16 35  1  0
 17 36  1  0
 17 37  1  0
 18 38  1  0
 20 39  1  0
 21 40  1  0
M  CHG  1   9   1
M  END
>  <UniqueID>  (23) 
23

>  <SMILES>  (23) 
Cc1ccc(OCc2[nH+]c(C(=O)N3CCCC3)co2)cc1

>  <Energy>  (23) 
72.85545102007968

>  <Genealogy>  (23) 
Cc1ccc(OCc2[nH+]c(C(=O)N3CCCC3)co2)cc1 (protonated)
Cc1ccc(OCc2[nH+]c(C(=O)N3CCCC3)co2)cc1 (3D coordinates assigned)
Cc1ccc(OCc2[nH+]c(C(=O)N3CCCC3)co2)cc1 (nonaromatic ring conformer: 72.85545102007968 kcal/mol)

>  <smiles>  (23) 
Cc1ccc(OCc2nc(C(=O)N3CCCC3)co2)cc1

>  <score_type>  (23) 
oracle

>  <origin>  (23) 
adg

>  <m_score__min__energy>  (23) 
-5.5499999999999998

>  <m_primary>  (23) 
energy

$$$$
23:0
     RDKit          3D

 53 56  0  0  0  0  0  0  0  0999 V2000
   58.0980   32.0640   42.6940 C   0  0  0  0  0  0  0  0  0  0  0  0
   56.9390   31.1270   43.0160 C   0  0  0  0  0  0  0  0  0  0  0  0
   57.1260   30.5200   44.2940 O   0  0  0  0  0  0  0  0  0  0  0  0
   56.6890   29.2260   44.6020 C   0  0  0  0  0  0  0  0  0  0  0  0
   55.4870   29.0080   44.9190 O   0  0  0  0  0  0  0  0  0  0  0  0
   57.6550   28.0830   44.5190 C   0  0  0  0  0  0  0  0  0  0  0  0
   59.1070   28.5700   44.4040 C   0  0  0  0  0  0  0  0  0  0  0  0
   59.6010   29.2780   45.6680 C   0  0  0  0  0  0  0  0  0  0  0  0
   59.3720   30.6830   45.5640 O   0  0  0  0  0  0  0  0  0  0  0  0
   60.0460   31.6480   46.3300 C   0  0  0  0  0  0  0  0  0  0  0  0
   59.9800   32.9530   46.0130 C   0  0  0  0  0  0  0  0  0  0  0  0
   58.6090   33.5450   46.1120 C   0  0  0  0  0  0  0  0  0  0  0  0
   58.6140   34.2010   47.4970 C   0  0  0  0  0  0  0  0  0  0  0  0
   60.1020   34.3810   47.8740 C   0  0  2  0  0  0  0  0  0  0  0  0
   60.8840   33.9940   46.6120 C   0  0  1  0  0  0  0  0  0  0  0  0
   62.4260   33.6470   46.7500 C   0  0  0  0  0  0  0  0  0  0  0  0
   63.0020   33.3480   48.1740 C   0  0  0  0  0  0  0  0  0  0  0  0
   62.0820   33.9070   49.2390 C   0  0  2  0  0  0  0  0  0  0  0  0
   62.2920   33.6310   50.6760 C   0  0  0  0  0  0  0  0  0  0  0  0
   63.4010   33.4770   51.2510 O   0  0  0  0  0  0  0  0  0  0  0  0
   61.0060   33.7780   51.3350 C   0  0  0  0  0  0  0  0  0  0  0  0
   60.0560   33.8520   50.4030 C   0  0  0  0  0  0  0  0  0  0  0  0
   60.6080   33.4990   49.0390 C   0  0  1  0  0  0  0  0  0  0  0  0
   60.3570   31.9380   48.8680 C   0  0  0  0  0  0  0  0  0  0  0  0
   60.7450   31.1730   47.5680 C   0  0  0  0  0  0  0  0  0  0  0  0
   58.5470   32.4270   43.6303 H   0  0  0  0  0  0  0  0  0  0  0  0
   58.8562   31.5220   42.1097 H   0  0  0  0  0  0  0  0  0  0  0  0
   57.7269   32.9189   42.1097 H   0  0  0  0  0  0  0  0  0  0  0  0
   56.0006   31.7010   43.0219 H   0  0  0  0  0  0  0  0  0  0  0  0
   56.8967   30.3380   42.2507 H   0  0  0  0  0  0  0  0  0  0  0  0
   57.5567   27.4674   45.4253 H   0  0  0  0  0  0  0  0  0  0  0  0
   57.4177   27.4999   43.6170 H   0  0  0  0  0  0  0  0  0  0  0  0
   59.7542   27.7013   44.2129 H   0  0  0  0  0  0  0  0  0  0  0  0
   59.1459   29.2992   43.5813 H   0  0  0  0  0  0  0  0  0  0  0  0
   59.0592   28.8846   46.5408 H   0  0  0  0  0  0  0  0  0  0  0  0
   60.6797   29.0965   45.7843 H   0  0  0  0  0  0  0  0  0  0  0  0
   58.4432   34.2919   45.3217 H   0  0  0  0  0  0  0  0  0  0  0  0
   57.8070   32.8025   45.9877 H   0  0  0  0  0  0  0  0  0  0  0  0
   58.1077   35.1769   47.4602 H   0  0  0  0  0  0  0  0  0  0  0  0
   58.0809   33.5864   48.2373 H   0  0  0  0  0  0  0  0  0  0  0  0
   60.2407   35.4162   48.2191 H   0  0  0  0  0  0  0  0  0  0  0  0
   61.0651   34.8514   45.9471 H   0  0  0  0  0  0  0  0  0  0  0  0
   62.6150   32.7579   46.1305 H   0  0  0  0  0  0  0  0  0  0  0  0
   62.9374   34.5711   46.4424 H   0  0  0  0  0  0  0  0  0  0  0  0
   63.0935   32.2600   48.3077 H   0  0  0  0  0  0  0  0  0  0  0  0
   63.9898   33.8227   48.2682 H   0  0  0  0  0  0  0  0  0  0  0  0
   62.3464   34.9597   49.0605 H   0  0  0  0  0  0  0  0  0  0  0  0
   60.8432   33.8211   52.4220 H   0  0  0  0  0  0  0  0  0  0  0  0
   59.0105   34.1322   50.5991 H   0  0  0  0  0  0  0  0  0  0  0  0
   60.9031   31.4477   49.6874 H   0  0  0  0  0  0  0  0  0  0  0  0
   59.2586   31.8837   48.8464 H   0  0  0  0  0  0  0  0  0  0  0  0
   61.8284   31.2856   47.4145 H   0  0  0  0  0  0  0  0  0  0  0  0
   60.4357   30.1281   47.7181 H   0  0  0  0  0  0  0  0  0  0  0  0
  1  2  1  0
  2  3  1  0
  3  4  1  0
  4  5  2  0
  4  6  1  0
  6  7  1  0
  7  8  1  0
  8  9  1  0
  9 10  1  0
 10 11  2  0
 11 12  1  0
 12 13  1  0
 13 14  1  0
 14 15  1  0
 15 16  1  0
 16 17  1  0
 17 18  1  0
 18 19  1  0
 19 20  2  0
 19 21  1  0
 21 22  2  0
 22 23  1  0
 23 24  1  6
 24 25  1  0
 25 10  1  0
 15 11  1  0
 23 18  1  0
 23 14  1  0
  1 26  1  0
  1 27  1  0
  1 28  1  0
  2 29  1  0
  2 30  1  0
  6 31  1  0
  6 32  1  0
  7 33  1  0
  7 34  1  0
  8 35  1  0
  8 36  1  0
 12 37  1  0
 12 38  1  0
 13 39  1  0
 13 40  1  0
 14 41  1  1
 15 42  1  6
 16 43  1  0
 16 44  1  0
 17 45  1  0
 17 46  1  0
 18 47  1  1
 21 48  1  0
 22 49  1  0
 24 50  1  0
 24 51  1  0
 25 52  1  0
 25 53  1  0
M  END
>  <UniqueID>  (24) 
24

>  <SMILES>  (24) 
CCOC(=O)CCCOC1=C2CC[C@@H]3[C@H]2CCC2C(=O)C=CC23CC1

>  <Energy>  (24) 
130.31990652005737

>  <Genealogy>  (24) 
CCOC(=O)CCCOC1=C2CC[C@@H]3[C@H]2CCC2C(=O)C=CC23CC1 (chirality)
CCOC(=O)CCCOC1=C2CC[C@@H]3[C@H]2CCC2C(=O)C=CC23CC1 (3D coordinates assigned)
CCOC(=O)CCCOC1=C2CC[C@@H]3[C@H]2CCC2C(=O)C=CC23CC1 (nonaromatic ring conformer: 130.31990652005737 kcal/mol)

>  <smiles>  (24) 
CCOC(=O)CCCOC1=C2CCC3C2CCC2C(=O)C=CC23CC1

>  <score_type>  (24) 
oracle

>  <origin>  (24) 
adg

>  <m_score__min__energy>  (24) 
-7.1799999999999997

>  <m_primary>  (24) 
energy

$$$$
24:0
     RDKit          3D

 73 77  0  0  0  0  0  0  0  0999 V2000
   62.8680   33.8400   46.4660 C   0  0  0  0  0  0  0  0  0  0  0  0
   63.7210   32.7080   47.0340 C   0  0  0  0  0  0  0  0  0  0  0  0
   62.9070   31.8640   48.0420 C   0  0  0  0  0  0  0  0  0  0  0  0
   63.1300   32.2000   49.4790 N   0  0  1  0  0  0  0  0  0  0  0  0
   64.2470   33.1540   49.6990 C   0  0  0  0  0  0  0  0  0  0  0  0
   65.5760   32.4610   50.0280 C   0  0  0  0  0  0  0  0  0  0  0  0
   61.8980   32.6960   50.1570 C   0  0  0  0  0  0  0  0  0  0  0  0
   60.9460   33.4670   49.2220 C   0  0  0  0  0  0  0  0  0  0  0  0
   59.6430   32.8120   49.1200 N   0  0  0  0  0  0  0  0  0  0  0  0
   59.3270   32.0040   47.9780 C   0  0  0  0  0  0  0  0  0  0  0  0
   58.7780   32.5920   46.8260 C   0  0  0  0  0  0  0  0  0  0  0  0
   58.4680   33.9670   46.7930 C   0  0  0  0  0  0  0  0  0  0  0  0
   57.9690   34.5530   45.6310 C   0  0  0  0  0  0  0  0  0  0  0  0
   57.7790   33.7840   44.4880 C   0  0  0  0  0  0  0  0  0  0  0  0
   58.0840   32.4240   44.4970 C   0  0  0  0  0  0  0  0  0  0  0  0
   58.5850   31.7980   45.6650 C   0  0  0  0  0  0  0  0  0  0  0  0
   58.9100   30.4560   45.6800 N   0  0  0  0  0  0  0  0  0  0  0  0
   59.2720   29.8050   44.4030 C   0  0  0  0  0  0  0  0  0  0  0  0
   59.1710   29.8310   46.8830 C   0  0  0  0  0  0  0  0  0  0  0  0
   59.5280   30.6140   48.0190 C   0  0  0  0  0  0  0  0  0  0  0  0
   60.0750   29.9890   49.1720 C   0  0  0  0  0  0  0  0  0  0  0  0
   60.2420   28.6020   49.2300 C   0  0  0  0  0  0  0  0  0  0  0  0
   59.7710   27.8400   48.1710 C   0  0  0  0  0  0  0  0  0  0  0  0
   59.6720   26.4950   48.1530 N   0  0  0  0  0  0  0  0  0  0  0  0
   58.9440   26.2130   47.0580 C   0  0  0  0  0  0  0  0  0  0  0  0
   58.4580   24.9580   46.6920 C   0  0  0  0  0  0  0  0  0  0  0  0
   57.5540   24.8790   45.6070 C   0  0  0  0  0  0  0  0  0  0  0  0
   57.0240   23.6610   45.1490 O   0  0  0  0  0  0  0  0  0  0  0  0
   57.3750   23.0030   43.9290 C   0  0  0  0  0  0  0  0  0  0  0  0
   57.9240   21.6180   44.2630 C   0  0  0  0  0  0  0  0  0  0  0  0
   56.1490   22.8820   43.0170 C   0  0  0  0  0  0  0  0  0  0  0  0
   57.1300   26.0650   44.9700 C   0  0  0  0  0  0  0  0  0  0  0  0
   57.6190   27.3190   45.3730 C   0  0  0  0  0  0  0  0  0  0  0  0
   58.5880   27.3610   46.3790 C   0  0  0  0  0  0  0  0  0  0  0  0
   59.1850   28.4220   47.0570 C   0  0  0  0  0  0  0  0  0  0  0  0
   62.4310   34.4199   47.2923 H   0  0  0  0  0  0  0  0  0  0  0  0
   63.4965   34.4983   45.8483 H   0  0  0  0  0  0  0  0  0  0  0  0
   62.0620   33.4173   45.8483 H   0  0  0  0  0  0  0  0  0  0  0  0
   64.0578   32.0613   46.2104 H   0  0  0  0  0  0  0  0  0  0  0  0
   64.5863   33.1439   47.5548 H   0  0  0  0  0  0  0  0  0  0  0  0
   61.8389   32.0069   47.8210 H   0  0  0  0  0  0  0  0  0  0  0  0
   63.2472   30.8256   47.9152 H   0  0  0  0  0  0  0  0  0  0  0  0
   63.4120   31.3100   49.9520 H   0  0  0  0  0  0  0  0  0  0  0  0
   64.3811   33.7523   48.7858 H   0  0  0  0  0  0  0  0  0  0  0  0
   63.9795   33.7774   50.5649 H   0  0  0  0  0  0  0  0  0  0  0  0
   65.6964   32.3982   51.1196 H   0  0  0  0  0  0  0  0  0  0  0  0
   65.5769   31.4476   49.6001 H   0  0  0  0  0  0  0  0  0  0  0  0
   66.4074   33.0404   49.6001 H   0  0  0  0  0  0  0  0  0  0  0  0
   61.3562   31.8319   50.5690 H   0  0  0  0  0  0  0  0  0  0  0  0
   62.2213   33.3992   50.9387 H   0  0  0  0  0  0  0  0  0  0  0  0
   60.8042   34.4839   49.6168 H   0  0  0  0  0  0  0  0  0  0  0  0
   61.3966   33.4938   48.2189 H   0  0  0  0  0  0  0  0  0  0  0  0
   58.8750   33.0460   49.7880 H   0  0  0  0  0  0  0  0  0  0  0  0
   58.6212   34.5824   47.6918 H   0  0  0  0  0  0  0  0  0  0  0  0
   57.7251   35.6255   45.6180 H   0  0  0  0  0  0  0  0  0  0  0  0
   57.3863   34.2511   43.5728 H   0  0  0  0  0  0  0  0  0  0  0  0
   57.9336   31.8284   43.5845 H   0  0  0  0  0  0  0  0  0  0  0  0
   59.7971   28.8606   44.6088 H   0  0  0  0  0  0  0  0  0  0  0  0
   58.3592   29.5985   43.8250 H   0  0  0  0  0  0  0  0  0  0  0  0
   59.9291   30.4715   43.8250 H   0  0  0  0  0  0  0  0  0  0  0  0
   60.3718   30.6063   50.0327 H   0  0  0  0  0  0  0  0  0  0  0  0
   60.7337   28.1279   50.0922 H   0  0  0  0  0  0  0  0  0  0  0  0
   59.9900   25.8260   48.8910 H   0  0  0  0  0  0  0  0  0  0  0  0
   58.7698   24.0526   47.2334 H   0  0  0  0  0  0  0  0  0  0  0  0
   58.1392   23.5890   43.3975 H   0  0  0  0  0  0  0  0  0  0  0  0
   57.9722   21.4963   45.3552 H   0  0  0  0  0  0  0  0  0  0  0  0
   57.2627   20.8490   43.8372 H   0  0  0  0  0  0  0  0  0  0  0  0
   58.9326   21.5109   43.8372 H   0  0  0  0  0  0  0  0  0  0  0  0
   55.2416   22.7924   43.6324 H   0  0  0  0  0  0  0  0  0  0  0  0
   56.0745   23.7772   42.3821 H   0  0  0  0  0  0  0  0  0  0  0  0
   56.2510   21.9896   42.3821 H   0  0  0  0  0  0  0  0  0  0  0  0
   56.4050   26.0066   44.1448 H   0  0  0  0  0  0  0  0  0  0  0  0
   57.2484   28.2445   44.9083 H   0  0  0  0  0  0  0  0  0  0  0  0
  1  2  1  0
  2  3  1  0
  3  4  1  0
  4  5  1  0
  5  6  1  0
  4  7  1  0
  7  8  1  0
  8  9  1  0
  9 10  1  0
 10 11  2  0
 11 12  1  0
 12 13  2  0
 13 14  1  0
 14 15  2  0
 15 16  1  0
 16 17  2  0
 17 18  1  0
 17 19  1  0
 19 20  2  0
 20 21  1  0
 21 22  2  0
 22 23  1  0
 23 24  1  0
 24 25  1  0
 25 26  2  0
 26 27  1  0
 27 28  1  0
 28 29  1  0
 29 30  1  0
 29 31  1  0
 27 32  2  0
 32 33  1  0
 33 34  2  0
 34 35  1  0
 20 10  1  0
 35 23  2  0
 16 11  1  0
 35 19  1  0
 34 25  1  0
  1 36  1  0
  1 37  1  0
  1 38  1  0
  2 39  1  0
  2 40  1  0
  3 41  1  0
  3 42  1  0
  4 43  1  1
  5 44  1  0
  5 45  1  0
  6 46  1  0
  6 47  1  0
  6 48  1  0
  7 49  1  0
  7 50  1  0
  8 51  1  0
  8 52  1  0
  9 53  1  0
 12 54  1  0
 13 55  1  0
 14 56  1  0
 15 57  1  0
 18 58  1  0
 18 59  1  0
 18 60  1  0
 21 61  1  0
 22 62  1  0
 24 63  1  0
 26 64  1  0
 29 65  1  0
 30 66  1  0
 30 67  1  0
 30 68  1  0
 31 69  1  0
 31 70  1  0
 31 71  1  0
 32 72  1  0
 33 73  1  0
M  CHG  2   4   1  17   1
M  END
>  <UniqueID>  (25) 
25

>  <SMILES>  (25) 
CCC[N@@H+](CC)CCNc1c2ccccc2[n+](C)c2c1ccc1[nH]c3cc(OC(C)C)ccc3c12

>  <Energy>  (25) 
152.88606688884292

>  <Genealogy>  (25) 
CCC[NH+](CC)CCNc1c2ccccc2[n+](C)c2c1ccc1[nH]c3cc(OC(C)C)ccc3c12 (protonated)
CCC[N@@H+](CC)CCNc1c2ccccc2[n+](C)c2c1ccc1[nH]c3cc(OC(C)C)ccc3c12 (chirality)
CCC[N@@H+](CC)CCNc1c2ccccc2[n+](C)c2c1ccc1[nH]c3cc(OC(C)C)ccc3c12 (3D coordinates assigned)
CCC[N@@H+](CC)CCNc1c2ccccc2[n+](C)c2c1ccc1[nH]c3cc(OC(C)C)ccc3c12 (optimized conformer: 152.88606688884292 kcal/mol)

>  <smiles>  (25) 
CCCN(CC)CCNc1c2ccccc2[n+](C)c2c1ccc1[nH]c3cc(OC(C)C)ccc3c12

>  <score_type>  (25) 
oracle

>  <origin>  (25) 
adg

>  <m_score__min__energy>  (25) 
-5.7800000000000002

>  <m_primary>  (25) 
energy

$$$$
25:0
     RDKit          3D

 58 60  0  0  0  0  0  0  0  0999 V2000
   59.3703   35.4877   47.9573 H   0  0  0  0  0  0  0  0  0  0  0  0
   59.2720   34.6810   47.2160 C   0  0  0  0  0  0  0  0  0  0  0  0
   57.9680   34.4510   46.1790 S   0  0  0  0  0  0  0  0  0  0  0  0
   58.6490   33.0900   45.4570 C   0  0  0  0  0  0  0  0  0  0  0  0
   58.1020   32.3480   44.5400 N   0  0  0  0  0  0  0  0  0  0  0  0
   58.0680   30.9120   44.5090 C   0  0  0  0  0  0  0  0  0  0  0  0
   56.8280   30.2640   44.5130 C   0  0  0  0  0  0  0  0  0  0  0  0
   55.9015   30.8569   44.5082 H   0  0  0  0  0  0  0  0  0  0  0  0
   56.7590   28.8680   44.5230 C   0  0  0  0  0  0  0  0  0  0  0  0
   55.7795   28.3681   44.4971 H   0  0  0  0  0  0  0  0  0  0  0  0
   57.9340   28.1010   44.5660 C   0  0  0  0  0  0  0  0  0  0  0  0
   57.8640   26.5990   44.5460 C   0  0  0  0  0  0  0  0  0  0  0  0
   58.5413   26.2163   43.7683 H   0  0  0  0  0  0  0  0  0  0  0  0
   56.8282   26.2961   44.3330 H   0  0  0  0  0  0  0  0  0  0  0  0
   58.2770   26.0200   45.9010 C   0  0  0  0  0  0  0  0  0  0  0  0
   59.1647   25.3839   45.7697 H   0  0  0  0  0  0  0  0  0  0  0  0
   57.4464   25.4236   46.3063 H   0  0  0  0  0  0  0  0  0  0  0  0
   58.5920   27.1070   46.8390 N   0  0  0  0  0  0  0  0  0  0  0  0
   57.7050   27.3600   47.3360 H   0  0  0  0  0  0  0  0  0  0  0  0
   59.5670   26.6780   47.8510 C   0  0  0  0  0  0  0  0  0  0  0  0
   60.3503   26.0826   47.3590 H   0  0  0  0  0  0  0  0  0  0  0  0
   59.0317   26.0856   48.6076 H   0  0  0  0  0  0  0  0  0  0  0  0
   60.2300   27.8810   48.5680 C   0  0  0  0  0  0  0  0  0  0  0  0
   61.3195   27.7632   48.4721 H   0  0  0  0  0  0  0  0  0  0  0  0
   59.8440   27.8437   49.5974 H   0  0  0  0  0  0  0  0  0  0  0  0
   59.8800   29.2550   48.0750 N   0  0  0  0  0  0  0  0  0  0  0  0
   59.4240   29.0950   47.1440 H   0  0  0  0  0  0  0  0  0  0  0  0
   61.0440   30.1330   47.7800 C   0  0  0  0  0  0  0  0  0  0  0  0
   60.6762   31.0462   47.2893 H   0  0  0  0  0  0  0  0  0  0  0  0
   61.7270   29.5603   47.1354 H   0  0  0  0  0  0  0  0  0  0  0  0
   61.8350   30.5380   49.0300 C   0  0  0  0  0  0  0  0  0  0  0  0
   61.2717   30.2496   49.9298 H   0  0  0  0  0  0  0  0  0  0  0  0
   62.8096   30.0280   49.0284 H   0  0  0  0  0  0  0  0  0  0  0  0
   61.9910   31.6269   49.0284 H   0  0  0  0  0  0  0  0  0  0  0  0
   58.8100   29.9000   48.8850 C   0  0  0  0  0  0  0  0  0  0  0  0
   57.8406   29.5027   48.5499 H   0  0  0  0  0  0  0  0  0  0  0  0
   59.0344   29.6670   49.9364 H   0  0  0  0  0  0  0  0  0  0  0  0
   58.7600   31.4260   48.7830 C   0  0  0  0  0  0  0  0  0  0  0  0
   58.7458   31.8607   49.7933 H   0  0  0  0  0  0  0  0  0  0  0  0
   59.6468   31.7865   48.2412 H   0  0  0  0  0  0  0  0  0  0  0  0
   57.8515   31.7277   48.2412 H   0  0  0  0  0  0  0  0  0  0  0  0
   59.1780   28.7510   44.5850 C   0  0  0  0  0  0  0  0  0  0  0  0
   60.1046   28.1588   44.6110 H   0  0  0  0  0  0  0  0  0  0  0  0
   59.2450   30.1470   44.5710 C   0  0  0  0  0  0  0  0  0  0  0  0
   60.2231   30.6488   44.6087 H   0  0  0  0  0  0  0  0  0  0  0  0
   59.8470   32.7890   45.9990 N   0  0  0  0  0  0  0  0  0  0  0  0
   60.2120   33.6700   46.9750 C   0  0  0  0  0  0  0  0  0  0  0  0
   61.5040   33.5260   47.7000 C   0  0  0  0  0  0  0  0  0  0  0  0
   62.6820   33.1100   47.0440 C   0  0  0  0  0  0  0  0  0  0  0  0
   62.6563   32.8845   45.9677 H   0  0  0  0  0  0  0  0  0  0  0  0
   63.8820   32.9820   47.7510 C   0  0  0  0  0  0  0  0  0  0  0  0
   64.7935   32.6563   47.2284 H   0  0  0  0  0  0  0  0  0  0  0  0
   63.9280   33.2660   49.1180 C   0  0  0  0  0  0  0  0  0  0  0  0
   65.5690   33.0900   50.0780 Br  0  0  0  0  0  0  0  0  0  0  0  0
   62.7690   33.6780   49.7810 C   0  0  0  0  0  0  0  0  0  0  0  0
   62.8029   33.9014   50.8575 H   0  0  0  0  0  0  0  0  0  0  0  0
   61.5670   33.8070   49.0800 C   0  0  0  0  0  0  0  0  0  0  0  0
   60.6599   34.1314   49.6109 H   0  0  0  0  0  0  0  0  0  0  0  0
  1  2  1  0
  2  3  1  0
  3  4  1  0
  4  5  2  0
  5  6  1  0
  6  7  2  0
  7  8  1  0
  7  9  1  0
  9 10  1  0
  9 11  2  0
 11 12  1  0
 12 13  1  0
 12 14  1  0
 12 15  1  0
 15 16  1  0
 15 17  1  0
 15 18  1  0
 18 19  1  0
 18 20  1  0
 20 21  1  0
 20 22  1  0
 20 23  1  0
 23 24  1  0
 23 25  1  0
 23 26  1  0
 26 27  1  0
 26 28  1  0
 28 29  1  0
 28 30  1  0
 28 31  1  0
 31 32  1  0
 31 33  1  0
 31 34  1  0
 26 35  1  0
 35 36  1  0
 35 37  1  0
 35 38  1  0
 38 39  1  0
 38 40  1  0
 38 41  1  0
 11 42  1  0
 42 43  1  0
 42 44  2  0
 44 45  1  0
  4 46  1  0
 46 47  1  0
 47 48  1  0
 48 49  2  0
 49 50  1  0
 49 51  1  0
 51 52  1  0
 51 53  2  0
 53 54  1  0
 53 55  1  0
 55 56  1  0
 55 57  2  0
 57 58  1  0
 47  2  2  0
 57 48  1  0
 44  6  1  0
M  CHG  2  26   1  46  -1
M  END
>  <UniqueID>  (26) 
26

>  <SMILES>  (26) 
CC[NH+](CC)CCNCCc1ccc(/N=c2/[n-]c(-c3ccc(Br)cc3)cs2)cc1

>  <Energy>  (26) 
106.12423500604997

>  <Genealogy>  (26) 
CC[NH+](CC)CCNCCc1ccc(N=c2[n-]c(-c3ccc(Br)cc3)cs2)cc1 (protonated)
CC[NH+](CC)CCNCCc1ccc(/N=c2/[n-]c(-c3ccc(Br)cc3)cs2)cc1 (cis-trans isomerization)
CC[NH+](CC)CCNCCc1ccc(/N=c2/[n-]c(-c3ccc(Br)cc3)cs2)cc1 (3D coordinates assigned)
CC[NH+](CC)CCNCCc1ccc(/N=c2/[n-]c(-c3ccc(Br)cc3)cs2)cc1 (optimized conformer: 106.12423500604997 kcal/mol)

>  <smiles>  (26) 
CCN(CC)CCNCCc1ccc(N=c2[nH]c(-c3ccc(Br)cc3)cs2)cc1

>  <score_type>  (26) 
oracle

>  <origin>  (26) 
adg

>  <m_score__min__energy>  (26) 
-7.5700000000000003

>  <m_primary>  (26) 
energy

$$$$
26:0
     RDKit          3D

 37 38  0  0  0  0  0  0  0  0999 V2000
   58.9370   29.4630   49.1820 C   0  0  0  0  0  0  0  0  0  0  0  0
   59.2680   28.9990   47.7870 C   0  0  0  0  0  0  0  0  0  0  0  0
   58.8000   27.7410   47.3660 C   0  0  0  0  0  0  0  0  0  0  0  0
   59.0860   27.2670   46.0850 C   0  0  0  0  0  0  0  0  0  0  0  0
   58.4700   25.7070   45.5700 Cl  0  0  0  0  0  0  0  0  0  0  0  0
   59.8600   28.0330   45.2150 C   0  0  0  0  0  0  0  0  0  0  0  0
   60.3300   29.2850   45.6130 C   0  0  0  0  0  0  0  0  0  0  0  0
   60.0240   29.7980   46.8870 C   0  0  0  0  0  0  0  0  0  0  0  0
   60.4800   31.2080   47.2190 C   0  0  0  0  0  0  0  0  0  0  0  0
   59.8070   32.2330   46.3920 N   0  0  0  0  0  0  0  0  0  0  0  0
   58.8090   33.0310   47.1340 C   0  0  0  0  0  0  0  0  0  0  0  0
   57.6750   33.5310   46.2280 C   0  0  0  0  0  0  0  0  0  0  0  0
   58.2110   33.5200   44.4840 S   0  0  0  0  0  0  0  0  0  0  0  0
   57.5680   31.8740   44.1750 C   0  0  0  0  0  0  0  0  0  0  0  0
   57.3690   31.0230   45.2180 N   0  0  0  0  0  0  0  0  0  0  0  0
   56.8510   29.7790   45.0350 C   0  0  0  0  0  0  0  0  0  0  0  0
   56.5010   29.3470   43.7540 C   0  0  0  0  0  0  0  0  0  0  0  0
   56.6970   30.2030   42.6670 C   0  0  0  0  0  0  0  0  0  0  0  0
   57.2390   31.4740   42.8740 C   0  0  0  0  0  0  0  0  0  0  0  0
   57.4270   32.3090   41.8210 F   0  0  0  0  0  0  0  0  0  0  0  0
   59.4140   28.7943   49.9137 H   0  0  0  0  0  0  0  0  0  0  0  0
   59.3089   30.4883   49.3253 H   0  0  0  0  0  0  0  0  0  0  0  0
   57.8465   29.4451   49.3253 H   0  0  0  0  0  0  0  0  0  0  0  0
   58.2024   27.1245   48.0537 H   0  0  0  0  0  0  0  0  0  0  0  0
   60.1008   27.6497   44.2125 H   0  0  0  0  0  0  0  0  0  0  0  0
   60.9473   29.8783   44.9224 H   0  0  0  0  0  0  0  0  0  0  0  0
   60.2598   31.4093   48.2778 H   0  0  0  0  0  0  0  0  0  0  0  0
   61.5584   31.2671   47.0105 H   0  0  0  0  0  0  0  0  0  0  0  0
   60.5510   32.8900   46.0560 H   0  0  0  0  0  0  0  0  0  0  0  0
   59.3840   31.8020   45.5370 H   0  0  0  0  0  0  0  0  0  0  0  0
   58.3771   32.4064   47.9298 H   0  0  0  0  0  0  0  0  0  0  0  0
   59.3220   33.9111   47.5490 H   0  0  0  0  0  0  0  0  0  0  0  0
   56.8007   32.8735   46.3436 H   0  0  0  0  0  0  0  0  0  0  0  0
   57.4120   34.5594   46.5163 H   0  0  0  0  0  0  0  0  0  0  0  0
   56.7074   29.1118   45.8977 H   0  0  0  0  0  0  0  0  0  0  0  0
   56.0757   28.3440   43.6023 H   0  0  0  0  0  0  0  0  0  0  0  0
   56.4255   29.8773   41.6520 H   0  0  0  0  0  0  0  0  0  0  0  0
  1  2  1  0
  2  3  2  0
  3  4  1  0
  4  5  1  0
  4  6  2  0
  6  7  1  0
  7  8  2  0
  8  9  1  0
  9 10  1  0
 10 11  1  0
 11 12  1  0
 12 13  1  0
 13 14  1  0
 14 15  2  0
 15 16  1  0
 16 17  2  0
 17 18  1  0
 18 19  2  0
 19 20  1  0
  8  2  1  0
 19 14  1  0
  1 21  1  0
  1 22  1  0
  1 23  1  0
  3 24  1  0
  6 25  1  0
  7 26  1  0
  9 27  1  0
  9 28  1  0
 10 29  1  0
 10 30  1  0
 11 31  1  0
 11 32  1  0
 12 33  1  0
 12 34  1  0
 16 35  1  0
 17 36  1  0
 18 37  1  0
M  CHG  1  10   1
M  END
>  <UniqueID>  (27) 
27

>  <SMILES>  (27) 
Cc1cc(Cl)ccc1C[NH2+]CCSc1ncccc1F

>  <Energy>  (27) 
34.05415397992265

>  <Genealogy>  (27) 
Cc1cc(Cl)ccc1C[NH2+]CCSc1ncccc1F (protonated)
Cc1cc(Cl)ccc1C[NH2+]CCSc1ncccc1F (3D coordinates assigned)
Cc1cc(Cl)ccc1C[NH2+]CCSc1ncccc1F (optimized conformer: 34.05415397992265 kcal/mol)

>  <smiles>  (27) 
Cc1cc(Cl)ccc1CNCCSc1ncccc1F

>  <score_type>  (27) 
oracle

>  <origin>  (27) 
adg

>  <m_score__min__energy>  (27) 
-5.1500000000000004

>  <m_primary>  (27) 
energy

$$$$
27:0
     RDKit          3D

 30 31  0  0  0  0  0  0  0  0999 V2000
   56.2710   29.7400   42.7490 C   0  0  0  0  0  0  0  0  0  0  0  0
   56.1540   30.3570   44.1380 C   0  0  0  0  0  0  0  0  0  0  0  0
   56.0130   29.2990   45.1460 N   0  0  0  0  0  0  0  0  0  0  0  0
   57.3200   28.7440   45.5360 C   0  0  0  0  0  0  0  0  0  0  0  0
   58.4520   29.6410   45.0280 C   0  0  0  0  0  0  0  0  0  0  0  0
   58.8670   30.5950   46.0560 N   0  0  0  0  0  0  0  0  0  0  0  0
   59.2640   30.2990   47.3190 C   0  0  0  0  0  0  0  0  0  0  0  0
   59.4990   31.4100   48.0600 N   0  0  0  0  0  0  0  0  0  0  0  0
   59.2270   32.4300   47.2300 C   0  0  0  0  0  0  0  0  0  0  0  0
   59.2730   33.7960   47.4990 C   0  0  0  0  0  0  0  0  0  0  0  0
   58.9040   34.6760   46.4650 C   0  0  0  0  0  0  0  0  0  0  0  0
   58.5010   34.1740   45.2060 C   0  0  0  0  0  0  0  0  0  0  0  0
   58.4640   32.7880   44.9680 C   0  0  0  0  0  0  0  0  0  0  0  0
   58.8420   31.9420   46.0130 C   0  0  0  0  0  0  0  0  0  0  0  0
   56.4752   28.6631   42.8422 H   0  0  0  0  0  0  0  0  0  0  0  0
   55.3287   29.8885   42.2013 H   0  0  0  0  0  0  0  0  0  0  0  0
   57.0935   30.2231   42.2013 H   0  0  0  0  0  0  0  0  0  0  0  0
   57.0577   30.9465   44.3523 H   0  0  0  0  0  0  0  0  0  0  0  0
   55.2680   31.0081   44.1709 H   0  0  0  0  0  0  0  0  0  0  0  0
   55.5670   29.7230   45.9940 H   0  0  0  0  0  0  0  0  0  0  0  0
   57.3736   28.6784   46.6327 H   0  0  0  0  0  0  0  0  0  0  0  0
   57.4303   27.7435   45.0924 H   0  0  0  0  0  0  0  0  0  0  0  0
   59.3120   29.0132   44.7518 H   0  0  0  0  0  0  0  0  0  0  0  0
   58.0886   30.2029   44.1550 H   0  0  0  0  0  0  0  0  0  0  0  0
   59.3819   29.2735   47.6991 H   0  0  0  0  0  0  0  0  0  0  0  0
   59.8010   31.4560   49.0590 H   0  0  0  0  0  0  0  0  0  0  0  0
   59.5863   34.1729   48.4838 H   0  0  0  0  0  0  0  0  0  0  0  0
   58.9292   35.7621   46.6372 H   0  0  0  0  0  0  0  0  0  0  0  0
   58.2142   34.8728   44.4064 H   0  0  0  0  0  0  0  0  0  0  0  0
   58.1488   32.3852   43.9942 H   0  0  0  0  0  0  0  0  0  0  0  0
  1  2  1  0
  2  3  1  0
  3  4  1  0
  4  5  1  0
  5  6  1  0
  6  7  1  0
  7  8  2  0
  8  9  1  0
  9 10  2  0
 10 11  1  0
 11 12  2  0
 12 13  1  0
 13 14  2  0
 14  6  1  0
 14  9  1  0
  1 15  1  0
  1 16  1  0
  1 17  1  0
  2 18  1  0
  2 19  1  0
  3 20  1  0
  4 21  1  0
  4 22  1  0
  5 23  1  0
  5 24  1  0
  7 25  1  0
  8 26  1  0
 10 27  1  0
 11 28  1  0
 12 29  1  0
 13 30  1  0
M  CHG  1   8   1
M  END
>  <UniqueID>  (28) 
28

>  <SMILES>  (28) 
CCNCCn1c[nH+]c2ccccc21

>  <Energy>  (28) 
61.84588224720311

>  <Genealogy>  (28) 
CCNCCn1c[nH+]c2ccccc21 (protonated)
CCNCCn1c[nH+]c2ccccc21 (3D coordinates assigned)
CCNCCn1c[nH+]c2ccccc21 (optimized conformer: 61.84588224720311 kcal/mol)

>  <smiles>  (28) 
CCNCCn1cnc2ccccc21

>  <score_type>  (28) 
oracle

>  <origin>  (28) 
adg

>  <m_score__min__energy>  (28) 
-4.0899999999999999

>  <m_primary>  (28) 
energy

$$$$
28:0
     RDKit          3D

 38 39  0  0  0  0  0  0  0  0999 V2000
   60.7300   30.5340   46.7870 C   0  0  0  0  0  0  0  0  0  0  0  0
   60.7240   29.3860   45.7690 C   0  0  0  0  0  0  0  0  0  0  0  0
   59.3590   28.8290   45.5530 N   0  0  0  0  0  0  0  0  0  0  0  0
   59.0770   27.7250   46.5070 C   0  0  0  0  0  0  0  0  0  0  0  0
   60.2730   26.7860   46.7020 C   0  0  0  0  0  0  0  0  0  0  0  0
   59.1500   28.4440   44.1290 C   0  0  0  0  0  0  0  0  0  0  0  0
   57.6850   28.1360   43.7420 C   0  0  0  0  0  0  0  0  0  0  0  0
   56.8280   29.5910   43.1660 S   0  0  0  0  0  0  0  0  0  0  0  0
   55.1620   29.4530   43.3490 O   0  0  0  0  0  0  0  0  0  0  0  0
   57.4250   31.0370   43.9460 C   0  0  0  0  0  0  0  0  0  0  0  0
   57.3900   31.2230   45.2870 N   0  0  0  0  0  0  0  0  0  0  0  0
   57.9280   32.4260   45.6170 C   0  0  0  0  0  0  0  0  0  0  0  0
   58.0380   32.9100   46.9210 C   0  0  0  0  0  0  0  0  0  0  0  0
   58.6160   34.1750   47.1250 C   0  0  0  0  0  0  0  0  0  0  0  0
   59.0750   34.9360   46.0300 C   0  0  0  0  0  0  0  0  0  0  0  0
   58.9600   34.4380   44.7220 C   0  0  0  0  0  0  0  0  0  0  0  0
   58.3820   33.1830   44.5470 C   0  0  0  0  0  0  0  0  0  0  0  0
   58.1180   32.3390   43.1200 S   0  0  0  0  0  0  0  0  0  0  0  0
   60.7278   30.1203   47.8062 H   0  0  0  0  0  0  0  0  0  0  0  0
   61.6314   31.1477   46.6423 H   0  0  0  0  0  0  0  0  0  0  0  0
   59.8351   31.1571   46.6423 H   0  0  0  0  0  0  0  0  0  0  0  0
   61.1085   29.7621   44.8095 H   0  0  0  0  0  0  0  0  0  0  0  0
   61.3574   28.5797   46.1673 H   0  0  0  0  0  0  0  0  0  0  0  0
   58.6680   29.5940   45.7420 H   0  0  0  0  0  0  0  0  0  0  0  0
   58.8111   28.1618   47.4809 H   0  0  0  0  0  0  0  0  0  0  0  0
   58.2534   27.1284   46.0878 H   0  0  0  0  0  0  0  0  0  0  0  0
   60.4553   26.6429   47.7773 H   0  0  0  0  0  0  0  0  0  0  0  0
   60.0563   25.8142   46.2343 H   0  0  0  0  0  0  0  0  0  0  0  0
   61.1656   27.2271   46.2343 H   0  0  0  0  0  0  0  0  0  0  0  0
   59.5028   29.2720   43.4966 H   0  0  0  0  0  0  0  0  0  0  0  0
   59.7100   27.5092   43.9786 H   0  0  0  0  0  0  0  0  0  0  0  0
   57.6799   27.3806   42.9424 H   0  0  0  0  0  0  0  0  0  0  0  0
   57.1659   27.7679   44.6393 H   0  0  0  0  0  0  0  0  0  0  0  0
   54.8670   28.9070   42.5760 H   0  0  0  0  0  0  0  0  0  0  0  0
   57.6794   32.3133   47.7727 H   0  0  0  0  0  0  0  0  0  0  0  0
   58.7109   34.5740   48.1457 H   0  0  0  0  0  0  0  0  0  0  0  0
   59.5254   35.9248   46.2013 H   0  0  0  0  0  0  0  0  0  0  0  0
   59.3161   35.0222   43.8606 H   0  0  0  0  0  0  0  0  0  0  0  0
  1  2  1  0
  2  3  1  0
  3  4  1  0
  4  5  1  0
  3  6  1  0
  6  7  1  0
  7  8  1  0
  8  9  1  1
  8 10  1  0
 10 11  2  0
 11 12  1  0
 12 13  2  0
 13 14  1  0
 14 15  2  0
 15 16  1  0
 16 17  2  0
 17 18  1  0
 18 10  1  0
 17 12  1  0
  1 19  1  0
  1 20  1  0
  1 21  1  0
  2 22  1  0
  2 23  1  0
  3 24  1  0
  4 25  1  0
  4 26  1  0
  5 27  1  0
  5 28  1  0
  5 29  1  0
  6 30  1  0
  6 31  1  0
  7 32  1  0
  7 33  1  0
  9 34  1  0
 13 35  1  0
 14 36  1  0
 15 37  1  0
 16 38  1  0
M  CHG  2   3   1   8   1
M  END
>  <UniqueID>  (29) 
29

>  <SMILES>  (29) 
CC[NH+](CC)CC[S@@+](O)c1nc2ccccc2s1

>  <Energy>  (29) 
71.61358396397904

>  <Genealogy>  (29) 
CC[NH+](CC)CC[S+](O)c1nc2ccccc2s1 (protonated)
CC[NH+](CC)CC[S@@+](O)c1nc2ccccc2s1 (chirality)
CC[NH+](CC)CC[S@@+](O)c1nc2ccccc2s1 (3D coordinates assigned)
CC[NH+](CC)CC[S@@+](O)c1nc2ccccc2s1 (optimized conformer: 71.61358396397904 kcal/mol)

>  <smiles>  (29) 
CCN(CC)CC[S+]([O-])c1nc2ccccc2s1

>  <score_type>  (29) 
oracle

>  <origin>  (29) 
adg

>  <m_score__min__energy>  (29) 
-4.1799999999999997

>  <m_primary>  (29) 
energy

$$$$
29:0
     RDKit          3D

 53 55  0  0  0  0  0  0  0  0999 V2000
   63.3490   34.2290   50.9270 C   0  0  0  0  0  0  0  0  0  0  0  0
   63.2560   33.9670   49.4160 C   0  0  0  0  0  0  0  0  0  0  0  0
   63.1330   32.5370   49.0330 N   0  0  0  0  0  0  0  0  0  0  0  0
   63.3370   32.2560   47.5960 C   0  0  0  0  0  0  0  0  0  0  0  0
   63.3220   33.5090   46.7170 C   0  0  0  0  0  0  0  0  0  0  0  0
   63.7530   31.5440   49.9390 C   0  0  0  0  0  0  0  0  0  0  0  0
   62.6920   30.7280   50.6920 C   0  0  0  0  0  0  0  0  0  0  0  0
   61.3390   31.2670   50.4690 N   0  0  0  0  0  0  0  0  0  0  0  0
   60.6470   30.4990   49.4560 C   0  0  0  0  0  0  0  0  0  0  0  0
   60.7180   29.1050   49.5370 C   0  0  0  0  0  0  0  0  0  0  0  0
   60.1200   28.3110   48.5750 C   0  0  0  0  0  0  0  0  0  0  0  0
   59.4300   28.8560   47.5330 N   0  0  0  0  0  0  0  0  0  0  0  0
   58.9230   27.9060   46.5220 C   0  0  0  0  0  0  0  0  0  0  0  0
   59.7550   27.9770   45.2420 C   0  0  0  0  0  0  0  0  0  0  0  0
   59.2690   30.2280   47.4410 C   0  0  0  0  0  0  0  0  0  0  0  0
   59.9370   31.0890   48.3640 C   0  0  0  0  0  0  0  0  0  0  0  0
   59.8970   32.5720   48.1200 C   0  0  0  0  0  0  0  0  0  0  0  0
   60.3550   33.3900   48.9610 O   0  0  0  0  0  0  0  0  0  0  0  0
   59.3260   33.1100   46.8660 C   0  0  0  0  0  0  0  0  0  0  0  0
   59.4900   34.4660   46.5210 C   0  0  0  0  0  0  0  0  0  0  0  0
   58.9260   34.9670   45.3450 C   0  0  0  0  0  0  0  0  0  0  0  0
   58.1930   34.1260   44.5070 C   0  0  0  0  0  0  0  0  0  0  0  0
   58.0210   32.7820   44.8420 C   0  0  0  0  0  0  0  0  0  0  0  0
   58.5920   32.2660   46.0200 C   0  0  0  0  0  0  0  0  0  0  0  0
   58.3990   30.8550   46.3970 C   0  0  0  0  0  0  0  0  0  0  0  0
   57.4430   30.2180   45.8800 O   0  0  0  0  0  0  0  0  0  0  0  0
   63.0300   33.3303   51.4753 H   0  0  0  0  0  0  0  0  0  0  0  0
   64.3882   34.4717   51.1938 H   0  0  0  0  0  0  0  0  0  0  0  0
   62.6954   35.0726   51.1938 H   0  0  0  0  0  0  0  0  0  0  0  0
   62.3745   34.5004   49.0308 H   0  0  0  0  0  0  0  0  0  0  0  0
   64.2038   34.3205   48.9839 H   0  0  0  0  0  0  0  0  0  0  0  0
   64.3100   31.7576   47.4741 H   0  0  0  0  0  0  0  0  0  0  0  0
   62.4984   31.6235   47.2694 H   0  0  0  0  0  0  0  0  0  0  0  0
   63.3113   34.4047   47.3555 H   0  0  0  0  0  0  0  0  0  0  0  0
   64.2201   33.5221   46.0819 H   0  0  0  0  0  0  0  0  0  0  0  0
   62.4239   33.5006   46.0819 H   0  0  0  0  0  0  0  0  0  0  0  0
   64.3758   30.8587   49.3454 H   0  0  0  0  0  0  0  0  0  0  0  0
   64.3610   32.0850   50.6790 H   0  0  0  0  0  0  0  0  0  0  0  0
   62.7248   29.6867   50.3391 H   0  0  0  0  0  0  0  0  0  0  0  0
   62.9130   30.7834   51.7682 H   0  0  0  0  0  0  0  0  0  0  0  0
   61.3480   32.2830   50.2340 H   0  0  0  0  0  0  0  0  0  0  0  0
   60.8120   31.2110   51.3720 H   0  0  0  0  0  0  0  0  0  0  0  0
   61.2548   28.6349   50.3742 H   0  0  0  0  0  0  0  0  0  0  0  0
   60.2029   27.2169   48.6523 H   0  0  0  0  0  0  0  0  0  0  0  0
   58.9745   26.8853   46.9290 H   0  0  0  0  0  0  0  0  0  0  0  0
   57.8831   28.1711   46.2806 H   0  0  0  0  0  0  0  0  0  0  0  0
   60.8201   28.0679   45.5016 H   0  0  0  0  0  0  0  0  0  0  0  0
   59.5983   27.0622   44.6516 H   0  0  0  0  0  0  0  0  0  0  0  0
   59.4455   28.8520   44.6516 H   0  0  0  0  0  0  0  0  0  0  0  0
   60.0646   35.1332   47.1803 H   0  0  0  0  0  0  0  0  0  0  0  0
   59.0600   36.0260   45.0794 H   0  0  0  0  0  0  0  0  0  0  0  0
   57.7502   34.5226   43.5814 H   0  0  0  0  0  0  0  0  0  0  0  0
   57.4367   32.1235   44.1825 H   0  0  0  0  0  0  0  0  0  0  0  0
  1  2  1  0
  2  3  1  0
  3  4  1  0
  4  5  1  0
  3  6  1  0
  6  7  1  0
  7  8  1  0
  8  9  1  0
  9 10  2  0
 10 11  1  0
 11 12  2  0
 12 13  1  0
 13 14  1  0
 12 15  1  0
 15 16  2  0
 16 17  1  0
 17 18  2  0
 17 19  1  0
 19 20  2  0
 20 21  1  0
 21 22  2  0
 22 23  1  0
 23 24  2  0
 24 25  1  0
 25 26  2  0
 16  9  1  0
 24 19  1  0
 25 15  1  0
  1 27  1  0
  1 28  1  0
  1 29  1  0
  2 30  1  0
  2 31  1  0
  4 32  1  0
  4 33  1  0
  5 34  1  0
  5 35  1  0
  5 36  1  0
  6 37  1  0
  6 38  1  0
  7 39  1  0
  7 40  1  0
  8 41  1  0
  8 42  1  0
 10 43  1  0
 11 44  1  0
 13 45  1  0
 13 46  1  0
 14 47  1  0
 14 48  1  0
 14 49  1  0
 20 50  1  0
 21 51  1  0
 22 52  1  0
 23 53  1  0
M  CHG  2   8   1  12   1
M  END
>  <UniqueID>  (30) 
30

>  <SMILES>  (30) 
CCN(CC)CC[NH2+]c1cc[n+](CC)c2c1C(=O)c1ccccc1C2=O

>  <Energy>  (30) 
77.40797773699195

>  <Genealogy>  (30) 
CCN(CC)CC[NH2+]c1cc[n+](CC)c2c1C(=O)c1ccccc1C2=O (protonated)
CCN(CC)CC[NH2+]c1cc[n+](CC)c2c1C(=O)c1ccccc1C2=O (3D coordinates assigned)
CCN(CC)CC[NH2+]c1cc[n+](CC)c2c1C(=O)c1ccccc1C2=O (nonaromatic ring conformer: 77.40797773699195 kcal/mol)

>  <smiles>  (30) 
CCN(CC)CCNc1cc[n+](CC)c2c1C(=O)c1ccccc1C2=O

>  <score_type>  (30) 
oracle

>  <origin>  (30) 
adg

>  <m_score__min__energy>  (30) 
-4.0800000000000001

>  <m_primary>  (30) 
energy

$$$$
30:0
     RDKit          3D

 51 53  0  0  0  0  0  0  0  0999 V2000
   55.3610   29.7200   43.6020 C   0  0  0  0  0  0  0  0  0  0  0  0
   56.0010   29.6890   44.8730 O   0  0  0  0  0  0  0  0  0  0  0  0
   57.3110   29.2350   45.0970 C   0  0  0  0  0  0  0  0  0  0  0  0
   57.5880   27.8770   45.3560 C   0  0  0  0  0  0  0  0  0  0  0  0
   58.9020   27.4470   45.5510 C   0  0  0  0  0  0  0  0  0  0  0  0
   59.9540   28.3590   45.4860 C   0  0  0  0  0  0  0  0  0  0  0  0
   59.6960   29.7070   45.2350 C   0  0  0  0  0  0  0  0  0  0  0  0
   58.3780   30.1610   45.0540 C   0  0  0  0  0  0  0  0  0  0  0  0
   58.1280   31.6360   44.7930 C   0  0  0  0  0  0  0  0  0  0  0  0
   58.7840   32.5420   45.7650 N   0  0  0  0  0  0  0  0  0  0  0  0
   58.7200   33.9570   45.3880 C   0  0  0  0  0  0  0  0  0  0  0  0
   59.6780   34.7930   46.2590 C   0  0  0  0  0  0  0  0  0  0  0  0
   60.1200   34.1140   47.5020 N   0  0  0  0  0  0  0  0  0  0  0  0
   61.6420   33.2580   47.3150 S   0  0  0  0  0  0  0  0  0  0  0  0
   62.3720   33.8280   46.1290 O   0  0  0  0  0  0  0  0  0  0  0  0
   61.3650   31.8120   47.0140 O   0  0  0  0  0  0  0  0  0  0  0  0
   62.7030   33.3640   48.7280 C   0  0  0  0  0  0  0  0  0  0  0  0
   64.0550   33.0110   48.5960 C   0  0  0  0  0  0  0  0  0  0  0  0
   64.9210   33.1030   49.6860 C   0  0  0  0  0  0  0  0  0  0  0  0
   66.2270   32.7700   49.5440 F   0  0  0  0  0  0  0  0  0  0  0  0
   64.4450   33.5440   50.9210 C   0  0  0  0  0  0  0  0  0  0  0  0
   63.1020   33.8950   51.0690 C   0  0  0  0  0  0  0  0  0  0  0  0
   62.2170   33.8130   49.9750 C   0  0  0  0  0  0  0  0  0  0  0  0
   60.8680   34.1840   50.0900 O   0  0  0  0  0  0  0  0  0  0  0  0
   60.0030   33.7730   51.1430 C   0  0  0  0  0  0  0  0  0  0  0  0
   59.0710   33.2790   48.1310 C   0  0  0  0  0  0  0  0  0  0  0  0
   58.3330   32.3420   47.1490 C   0  0  0  0  0  0  0  0  0  0  0  0
   54.2712   29.7728   43.7414 H   0  0  0  0  0  0  0  0  0  0  0  0
   55.7021   30.6027   43.0412 H   0  0  0  0  0  0  0  0  0  0  0  0
   55.6152   28.8085   43.0412 H   0  0  0  0  0  0  0  0  0  0  0  0
   56.7630   27.1511   45.4048 H   0  0  0  0  0  0  0  0  0  0  0  0
   59.1074   26.3860   45.7564 H   0  0  0  0  0  0  0  0  0  0  0  0
   60.9887   28.0157   45.6327 H   0  0  0  0  0  0  0  0  0  0  0  0
   60.5312   30.4206   45.1783 H   0  0  0  0  0  0  0  0  0  0  0  0
   58.5036   31.8775   43.7877 H   0  0  0  0  0  0  0  0  0  0  0  0
   57.0442   31.7963   44.8913 H   0  0  0  0  0  0  0  0  0  0  0  0
   59.0063   34.0631   44.3312 H   0  0  0  0  0  0  0  0  0  0  0  0
   57.6928   34.3194   45.5416 H   0  0  0  0  0  0  0  0  0  0  0  0
   60.5696   35.0308   45.6603 H   0  0  0  0  0  0  0  0  0  0  0  0
   59.1213   35.6894   46.5697 H   0  0  0  0  0  0  0  0  0  0  0  0
   60.3370   34.8730   48.1900 H   0  0  0  0  0  0  0  0  0  0  0  0
   64.4348   32.6590   47.6255 H   0  0  0  0  0  0  0  0  0  0  0  0
   65.1290   33.6152   51.7795 H   0  0  0  0  0  0  0  0  0  0  0  0
   62.7318   34.2380   52.0464 H   0  0  0  0  0  0  0  0  0  0  0  0
   60.4732   33.9964   52.1120 H   0  0  0  0  0  0  0  0  0  0  0  0
   59.0482   34.3137   51.0654 H   0  0  0  0  0  0  0  0  0  0  0  0
   59.8191   32.6913   51.0654 H   0  0  0  0  0  0  0  0  0  0  0  0
   59.5428   32.6607   48.9089 H   0  0  0  0  0  0  0  0  0  0  0  0
   58.3168   33.9705   48.5348 H   0  0  0  0  0  0  0  0  0  0  0  0
   58.5250   31.2985   47.4393 H   0  0  0  0  0  0  0  0  0  0  0  0
   57.2585   32.5728   47.1965 H   0  0  0  0  0  0  0  0  0  0  0  0
  1  2  1  0
  2  3  1  0
  3  4  2  0
  4  5  1  0
  5  6  2  0
  6  7  1  0
  7  8  2  0
  8  9  1  0
  9 10  1  0
 10 11  1  0
 11 12  1  0
 12 13  1  0
 13 14  1  0
 14 15  2  0
 14 16  2  0
 14 17  1  0
 17 18  2  0
 18 19  1  0
 19 20  1  0
 19 21  2  0
 21 22  1  0
 22 23  2  0
 23 24  1  0
 24 25  1  0
 13 26  1  0
 26 27  1  0
  8  3  1  0
 27 10  1  0
 23 17  1  0
  1 28  1  0
  1 29  1  0
  1 30  1  0
  4 31  1  0
  5 32  1  0
  6 33  1  0
  7 34  1  0
  9 35  1  0
  9 36  1  0
 11 37  1  0
 11 38  1  0
 12 39  1  0
 12 40  1  0
 13 41  1  0
 18 42  1  0
 21 43  1  0
 22 44  1  0
 25 45  1  0
 25 46  1  0
 25 47  1  0
 26 48  1  0
 26 49  1  0
 27 50  1  0
 27 51  1  0
M  CHG  1  13   1
M  END
>  <UniqueID>  (31) 
31

>  <SMILES>  (31) 
COc1ccccc1CN1CC[NH+](S(=O)(=O)c2cc(F)ccc2OC)CC1

>  <Energy>  (31) 
63.52509192415403

>  <Genealogy>  (31) 
COc1ccccc1CN1CC[NH+](S(=O)(=O)c2cc(F)ccc2OC)CC1 (protonated)
COc1ccccc1CN1CC[NH+](S(=O)(=O)c2cc(F)ccc2OC)CC1 (3D coordinates assigned)
COc1ccccc1CN1CC[NH+](S(=O)(=O)c2cc(F)ccc2OC)CC1 (nonaromatic ring conformer: 63.52509192415403 kcal/mol)

>  <smiles>  (31) 
COc1ccccc1CN1CCN(S(=O)(=O)c2cc(F)ccc2OC)CC1

>  <score_type>  (31) 
oracle

>  <origin>  (31) 
adg

>  <m_score__min__energy>  (31) 
-6.8600000000000003

>  <m_primary>  (31) 
energy

$$$$
31:0
     RDKit          3D

 41 41  0  0  0  0  0  0  0  0999 V2000
   59.5600   28.6190   45.9710 C   0  0  0  0  0  0  0  0  0  0  0  0
   58.0420   28.6680   46.1000 C   0  0  0  0  0  0  0  0  0  0  0  0
   57.4120   28.6690   44.7710 N   0  0  0  0  0  0  0  0  0  0  0  0
   57.8830   27.7250   43.7520 C   0  0  0  0  0  0  0  0  0  0  0  0
   56.3430   29.6010   44.4840 C   0  0  0  0  0  0  0  0  0  0  0  0
   55.1700   29.3490   44.8750 O   0  0  0  0  0  0  0  0  0  0  0  0
   56.5840   30.8960   43.7560 C   0  0  0  0  0  0  0  0  0  0  0  0
   57.2680   31.8500   44.6230 N   0  0  0  0  0  0  0  0  0  0  0  0
   58.6000   31.9360   44.8090 C   0  0  0  0  0  0  0  0  0  0  0  0
   58.8280   32.9830   45.6780 C   0  0  0  0  0  0  0  0  0  0  0  0
   60.0770   33.4230   46.2320 N   0  0  0  0  0  0  0  0  0  0  0  0
   61.0140   32.5550   46.8950 C   0  0  0  0  0  0  0  0  0  0  0  0
   60.9330   31.3060   46.7290 O   0  0  0  0  0  0  0  0  0  0  0  0
   62.1480   33.1380   47.7290 C   0  0  0  0  0  0  0  0  0  0  0  0
   63.1960   33.8270   46.8270 C   0  0  0  0  0  0  0  0  0  0  0  0
   61.5770   34.1780   48.7100 C   0  0  0  0  0  0  0  0  0  0  0  0
   62.8490   32.0110   48.5140 C   0  0  0  0  0  0  0  0  0  0  0  0
   57.5840   33.4930   45.9910 C   0  0  0  0  0  0  0  0  0  0  0  0
   56.6470   32.7890   45.3240 N   0  0  0  0  0  0  0  0  0  0  0  0
   60.0129   28.6044   46.9733 H   0  0  0  0  0  0  0  0  0  0  0  0
   59.8523   27.7110   45.4233 H   0  0  0  0  0  0  0  0  0  0  0  0
   59.9103   29.5063   45.4233 H   0  0  0  0  0  0  0  0  0  0  0  0
   57.6979   27.7879   46.6631 H   0  0  0  0  0  0  0  0  0  0  0  0
   57.7594   29.5904   46.6284 H   0  0  0  0  0  0  0  0  0  0  0  0
   58.3224   26.8443   44.2432 H   0  0  0  0  0  0  0  0  0  0  0  0
   57.0362   27.4104   43.1243 H   0  0  0  0  0  0  0  0  0  0  0  0
   58.6436   28.2123   43.1243 H   0  0  0  0  0  0  0  0  0  0  0  0
   57.2055   30.7026   42.8692 H   0  0  0  0  0  0  0  0  0  0  0  0
   55.6150   31.3204   43.4546 H   0  0  0  0  0  0  0  0  0  0  0  0
   59.3645   31.2904   44.3521 H   0  0  0  0  0  0  0  0  0  0  0  0
   60.3170   34.4320   46.1210 H   0  0  0  0  0  0  0  0  0  0  0  0
   63.9507   34.3232   47.4549 H   0  0  0  0  0  0  0  0  0  0  0  0
   63.6852   33.0737   46.1919 H   0  0  0  0  0  0  0  0  0  0  0  0
   62.6984   34.5747   46.1919 H   0  0  0  0  0  0  0  0  0  0  0  0
   61.7591   33.8464   49.7429 H   0  0  0  0  0  0  0  0  0  0  0  0
   62.0693   35.1476   48.5440 H   0  0  0  0  0  0  0  0  0  0  0  0
   60.4947   34.2831   48.5440 H   0  0  0  0  0  0  0  0  0  0  0  0
   62.7368   32.1913   49.5933 H   0  0  0  0  0  0  0  0  0  0  0  0
   62.3925   31.0445   48.2543 H   0  0  0  0  0  0  0  0  0  0  0  0
   63.9178   31.9932   48.2543 H   0  0  0  0  0  0  0  0  0  0  0  0
   57.3892   34.3346   46.6720 H   0  0  0  0  0  0  0  0  0  0  0  0
  1  2  1  0
  2  3  1  0
  3  4  1  0
  3  5  1  0
  5  6  2  0
  5  7  1  0
  7  8  1  0
  8  9  1  0
  9 10  2  0
 10 11  1  0
 11 12  1  0
 12 13  2  0
 12 14  1  0
 14 15  1  0
 14 16  1  0
 14 17  1  0
 10 18  1  0
 18 19  2  0
 19  8  1  0
  1 20  1  0
  1 21  1  0
  1 22  1  0
  2 23  1  0
  2 24  1  0
  4 25  1  0
  4 26  1  0
  4 27  1  0
  7 28  1  0
  7 29  1  0
  9 30  1  0
 11 31  1  0
 15 32  1  0
 15 33  1  0
 15 34  1  0
 16 35  1  0
 16 36  1  0
 16 37  1  0
 17 38  1  0
 17 39  1  0
 17 40  1  0
 18 41  1  0
M  END
>  <UniqueID>  (32) 
32

>  <SMILES>  (32) 
CCN(C)C(=O)Cn1cc(NC(=O)C(C)(C)C)cn1

>  <Energy>  (32) 
60.83319060566535

>  <Genealogy>  (32) 
CCN(C)C(=O)Cn1cc(NC(=O)C(C)(C)C)cn1 (3D coordinates assigned)
CCN(C)C(=O)Cn1cc(NC(=O)C(C)(C)C)cn1 (optimized conformer: 60.83319060566535 kcal/mol)

>  <smiles>  (32) 
CCN(C)C(=O)Cn1cc(NC(=O)C(C)(C)C)cn1

>  <score_type>  (32) 
oracle

>  <origin>  (32) 
adg

>  <m_score__min__energy>  (32) 
-6.2199999999999998

>  <m_primary>  (32) 
energy

$$$$
32:0
     RDKit          3D

 54 57  0  0  0  0  0  0  0  0999 V2000
   57.7050   33.5240   44.6060 C   0  0  0  0  0  0  0  0  0  0  0  0
   58.4960   32.7440   45.6280 C   0  0  0  0  0  0  0  0  0  0  0  0
   59.5770   33.3840   46.2490 C   0  0  0  0  0  0  0  0  0  0  0  0
   60.3830   32.7130   47.1700 C   0  0  0  0  0  0  0  0  0  0  0  0
   61.4700   33.3970   47.8200 N   0  0  0  0  0  0  0  0  0  0  0  0
   62.7100   33.6880   47.0920 C   0  0  0  0  0  0  0  0  0  0  0  0
   63.9040   33.1650   47.8920 C   0  0  0  0  0  0  0  0  0  0  0  0
   63.8430   33.5940   49.3030 N   0  0  0  0  0  0  0  0  0  0  0  0
   65.0030   33.4510   50.1550 C   0  0  0  0  0  0  0  0  0  0  0  0
   65.0800   34.0970   51.4050 C   0  0  0  0  0  0  0  0  0  0  0  0
   66.2170   33.9300   52.1990 C   0  0  0  0  0  0  0  0  0  0  0  0
   67.2680   33.1290   51.7520 C   0  0  0  0  0  0  0  0  0  0  0  0
   67.1650   32.5040   50.5090 C   0  0  0  0  0  0  0  0  0  0  0  0
   66.0500   32.6770   49.7500 N   0  0  0  0  0  0  0  0  0  0  0  0
   62.6690   34.3380   49.7890 C   0  0  0  0  0  0  0  0  0  0  0  0
   61.3690   33.7240   49.2490 C   0  0  0  0  0  0  0  0  0  0  0  0
   60.1170   31.3740   47.4640 C   0  0  0  0  0  0  0  0  0  0  0  0
   59.0590   30.6890   46.8460 C   0  0  0  0  0  0  0  0  0  0  0  0
   58.8560   29.2450   47.2440 C   0  0  0  0  0  0  0  0  0  0  0  0
   58.2000   31.3820   45.9400 C   0  0  0  0  0  0  0  0  0  0  0  0
   57.0400   30.7230   45.3570 N   0  0  0  0  0  0  0  0  0  0  0  0
   57.3770   29.9590   44.1410 C   0  0  0  0  0  0  0  0  0  0  0  0
   57.4420   28.4830   44.4040 C   0  0  0  0  0  0  0  0  0  0  0  0
   58.1200   27.5550   43.6400 C   0  0  0  0  0  0  0  0  0  0  0  0
   57.8760   26.3370   44.2370 C   0  0  0  0  0  0  0  0  0  0  0  0
   57.0650   26.5970   45.3230 C   0  0  0  0  0  0  0  0  0  0  0  0
   56.8240   27.8860   45.3960 O   0  0  0  0  0  0  0  0  0  0  0  0
   57.0129   34.2065   45.1210 H   0  0  0  0  0  0  0  0  0  0  0  0
   58.3935   34.1065   43.9761 H   0  0  0  0  0  0  0  0  0  0  0  0
   57.1322   32.8274   43.9761 H   0  0  0  0  0  0  0  0  0  0  0  0
   59.7943   34.4346   46.0061 H   0  0  0  0  0  0  0  0  0  0  0  0
   62.6827   33.1950   46.1090 H   0  0  0  0  0  0  0  0  0  0  0  0
   62.8083   34.7748   46.9538 H   0  0  0  0  0  0  0  0  0  0  0  0
   63.9058   32.0657   47.8530 H   0  0  0  0  0  0  0  0  0  0  0  0
   64.8224   33.5756   47.4471 H   0  0  0  0  0  0  0  0  0  0  0  0
   64.2498   34.7289   51.7534 H   0  0  0  0  0  0  0  0  0  0  0  0
   66.2836   34.4300   53.1765 H   0  0  0  0  0  0  0  0  0  0  0  0
   68.1665   32.9919   52.3717 H   0  0  0  0  0  0  0  0  0  0  0  0
   67.9864   31.8707   50.1426 H   0  0  0  0  0  0  0  0  0  0  0  0
   62.6526   34.3067   50.8884 H   0  0  0  0  0  0  0  0  0  0  0  0
   62.7403   35.3771   49.4353 H   0  0  0  0  0  0  0  0  0  0  0  0
   61.1506   32.8033   49.8100 H   0  0  0  0  0  0  0  0  0  0  0  0
   60.5649   34.4642   49.3734 H   0  0  0  0  0  0  0  0  0  0  0  0
   60.7485   30.8460   48.1937 H   0  0  0  0  0  0  0  0  0  0  0  0
   58.8448   29.1651   48.3410 H   0  0  0  0  0  0  0  0  0  0  0  0
   57.8983   28.8845   46.8403 H   0  0  0  0  0  0  0  0  0  0  0  0
   59.6771   28.6345   46.8403 H   0  0  0  0  0  0  0  0  0  0  0  0
   56.3100   31.4310   45.1260 H   0  0  0  0  0  0  0  0  0  0  0  0
   56.5690   30.0820   46.0330 H   0  0  0  0  0  0  0  0  0  0  0  0
   56.6087   30.1501   43.3773 H   0  0  0  0  0  0  0  0  0  0  0  0
   58.3694   30.2869   43.7981 H   0  0  0  0  0  0  0  0  0  0  0  0
   58.7274   27.7470   42.7432 H   0  0  0  0  0  0  0  0  0  0  0  0
   58.2520   25.3553   43.9131 H   0  0  0  0  0  0  0  0  0  0  0  0
   56.6791   25.8397   46.0213 H   0  0  0  0  0  0  0  0  0  0  0  0
  1  2  1  0
  2  3  2  0
  3  4  1  0
  4  5  1  0
  5  6  1  0
  6  7  1  0
  7  8  1  0
  8  9  1  0
  9 10  2  0
 10 11  1  0
 11 12  2  0
 12 13  1  0
 13 14  2  0
  8 15  1  0
 15 16  1  0
  4 17  2  0
 17 18  1  0
 18 19  1  0
 18 20  2  0
 20 21  1  0
 21 22  1  0
 22 23  1  0
 23 24  2  0
 24 25  1  0
 25 26  2  0
 26 27  1  0
 20  2  1  0
 27 23  1  0
 16  5  1  0
 14  9  1  0
  1 28  1  0
  1 29  1  0
  1 30  1  0
  3 31  1  0
  6 32  1  0
  6 33  1  0
  7 34  1  0
  7 35  1  0
 10 36  1  0
 11 37  1  0
 12 38  1  0
 13 39  1  0
 15 40  1  0
 15 41  1  0
 16 42  1  0
 16 43  1  0
 17 44  1  0
 19 45  1  0
 19 46  1  0
 19 47  1  0
 21 48  1  0
 21 49  1  0
 22 50  1  0
 22 51  1  0
 24 52  1  0
 25 53  1  0
 26 54  1  0
M  CHG  1  21   1
M  END
>  <UniqueID>  (33) 
33

>  <SMILES>  (33) 
Cc1cc(N2CCN(c3ccccn3)CC2)cc(C)c1[NH2+]Cc1ccco1

>  <Energy>  (33) 
94.92943984594577

>  <Genealogy>  (33) 
Cc1cc(N2CCN(c3ccccn3)CC2)cc(C)c1[NH2+]Cc1ccco1 (protonated)
Cc1cc(N2CCN(c3ccccn3)CC2)cc(C)c1[NH2+]Cc1ccco1 (3D coordinates assigned)
Cc1cc(N2CCN(c3ccccn3)CC2)cc(C)c1[NH2+]Cc1ccco1 (nonaromatic ring conformer: 94.92943984594577 kcal/mol)

>  <smiles>  (33) 
Cc1cc(N2CCN(c3ccccn3)CC2)cc(C)c1NCc1ccco1

>  <score_type>  (33) 
oracle

>  <origin>  (33) 
adg

>  <m_score__min__energy>  (33) 
-6.4800000000000004

>  <m_primary>  (33) 
energy

$$$$
33:0
     RDKit          3D

 34 34  0  0  0  0  0  0  0  0999 V2000
   63.3900   33.8290   46.3770 C   0  0  0  0  0  0  0  0  0  0  0  0
   62.7270   32.9860   47.4720 C   0  0  0  0  0  0  0  0  0  0  0  0
   61.2940   33.3380   47.6690 N   0  0  0  0  0  0  0  0  0  0  0  0
   61.1000   34.0060   48.9860 C   0  0  0  0  0  0  0  0  0  0  0  0
   59.6700   33.8400   49.5150 C   0  0  0  0  0  0  0  0  0  0  0  0
   60.8320   34.2250   46.5720 C   0  0  0  0  0  0  0  0  0  0  0  0
   59.5270   33.7970   46.0420 C   0  0  0  0  0  0  0  0  0  0  0  0
   58.4560   33.4510   45.6100 C   0  0  0  0  0  0  0  0  0  0  0  0
   57.1540   33.0310   45.0840 C   0  0  0  0  0  0  0  0  0  0  0  0
   57.2630   31.7090   44.4750 N   0  0  0  0  0  0  0  0  0  0  0  0
   56.6440   30.6330   45.0340 O   0  0  0  0  0  0  0  0  0  0  0  0
   56.0000   29.9700   43.9550 C   0  0  0  0  0  0  0  0  0  0  0  0
   56.6860   30.3590   42.6390 C   0  0  0  0  0  0  0  0  0  0  0  0
   57.3850   31.5540   43.0790 C   0  0  0  0  0  0  0  0  0  0  0  0
   57.9760   32.3720   42.3250 O   0  0  0  0  0  0  0  0  0  0  0  0
   64.0066   34.6130   46.8407 H   0  0  0  0  0  0  0  0  0  0  0  0
   64.0256   33.1843   45.7522 H   0  0  0  0  0  0  0  0  0  0  0  0
   62.6136   34.2947   45.7522 H   0  0  0  0  0  0  0  0  0  0  0  0
   62.7947   31.9248   47.1906 H   0  0  0  0  0  0  0  0  0  0  0  0
   63.2548   33.1869   48.4160 H   0  0  0  0  0  0  0  0  0  0  0  0
   60.7200   32.4600   47.6480 H   0  0  0  0  0  0  0  0  0  0  0  0
   61.7996   33.5668   49.7124 H   0  0  0  0  0  0  0  0  0  0  0  0
   61.2869   35.0814   48.8498 H   0  0  0  0  0  0  0  0  0  0  0  0
   59.6835   33.8416   50.6149 H   0  0  0  0  0  0  0  0  0  0  0  0
   59.0469   34.6718   49.1547 H   0  0  0  0  0  0  0  0  0  0  0  0
   59.2540   32.8875   49.1547 H   0  0  0  0  0  0  0  0  0  0  0  0
   60.7416   35.2515   46.9570 H   0  0  0  0  0  0  0  0  0  0  0  0
   61.5679   34.1748   45.7560 H   0  0  0  0  0  0  0  0  0  0  0  0
   56.4240   32.9940   45.9061 H   0  0  0  0  0  0  0  0  0  0  0  0
   56.8231   33.7525   44.3225 H   0  0  0  0  0  0  0  0  0  0  0  0
   56.0700   28.8816   44.0982 H   0  0  0  0  0  0  0  0  0  0  0  0
   54.9411   30.2657   43.9201 H   0  0  0  0  0  0  0  0  0  0  0  0
   57.3817   29.5804   42.2928 H   0  0  0  0  0  0  0  0  0  0  0  0
   56.0108   30.4995   41.7820 H   0  0  0  0  0  0  0  0  0  0  0  0
  1  2  1  0
  2  3  1  0
  3  4  1  0
  4  5  1  0
  3  6  1  0
  6  7  1  0
  7  8  3  0
  8  9  1  0
  9 10  1  0
 10 11  1  0
 11 12  1  0
 12 13  1  0
 13 14  1  0
 14 15  2  0
 14 10  1  0
  1 16  1  0
  1 17  1  0
  1 18  1  0
  2 19  1  0
  2 20  1  0
  3 21  1  0
  4 22  1  0
  4 23  1  0
  5 24  1  0
  5 25  1  0
  5 26  1  0
  6 27  1  0
  6 28  1  0
  9 29  1  0
  9 30  1  0
 12 31  1  0
 12 32  1  0
 13 33  1  0
 13 34  1  0
M  CHG  1   3   1
M  END
>  <UniqueID>  (34) 
34

>  <SMILES>  (34) 
CC[NH+](CC)CC#CCN1OCCC1=O

>  <Energy>  (34) 
43.32085988228982

>  <Genealogy>  (34) 
CC[NH+](CC)CC#CCN1OCCC1=O (protonated)
CC[NH+](CC)CC#CCN1OCCC1=O (3D coordinates assigned)
CC[NH+](CC)CC#CCN1OCCC1=O (nonaromatic ring conformer: 43.32085988228982 kcal/mol)

>  <smiles>  (34) 
CCN(CC)CC#CCN1OCCC1=O

>  <score_type>  (34) 
oracle

>  <origin>  (34) 
adg

>  <m_score__min__energy>  (34) 
-3.54

>  <m_primary>  (34) 
energy

$$$$
34:0
     RDKit          3D

 43 44  0  0  0  0  0  0  0  0999 V2000
   66.8570   32.6340   50.1480 C   0  0  0  0  0  0  0  0  0  0  0  0
   66.8730   32.6510   51.6800 C   0  0  0  0  0  0  0  0  0  0  0  0
   65.5280   32.8240   52.2630 N   0  0  0  0  0  0  0  0  0  0  0  0
   64.4170   32.4770   51.3550 C   0  0  0  0  0  0  0  0  0  0  0  0
   63.6800   33.6850   50.8260 C   0  0  0  0  0  0  0  0  0  0  0  0
   63.7180   34.7480   51.5020 O   0  0  0  0  0  0  0  0  0  0  0  0
   62.9730   33.6640   49.5640 N   0  0  0  0  0  0  0  0  0  0  0  0
   63.7490   33.7720   48.3180 C   0  0  0  0  0  0  0  0  0  0  0  0
   63.1410   32.8870   47.2210 C   0  0  0  0  0  0  0  0  0  0  0  0
   62.0660   33.5970   46.3810 C   0  0  0  0  0  0  0  0  0  0  0  0
   60.8020   33.7530   47.1190 N   0  0  0  0  0  0  0  0  0  0  0  0
   59.5580   33.4270   46.4660 C   0  0  0  0  0  0  0  0  0  0  0  0
   59.1350   32.0900   46.3610 C   0  0  0  0  0  0  0  0  0  0  0  0
   57.9300   31.7770   45.7260 C   0  0  0  0  0  0  0  0  0  0  0  0
   57.1350   32.7940   45.1930 C   0  0  0  0  0  0  0  0  0  0  0  0
   57.5430   34.1260   45.2950 C   0  0  0  0  0  0  0  0  0  0  0  0
   58.7490   34.4440   45.9290 C   0  0  0  0  0  0  0  0  0  0  0  0
   60.7500   34.2940   48.4930 C   0  0  0  0  0  0  0  0  0  0  0  0
   61.5100   33.4560   49.5440 C   0  0  0  0  0  0  0  0  0  0  0  0
   66.1425   31.8747   49.7972 H   0  0  0  0  0  0  0  0  0  0  0  0
   66.5544   33.6230   49.7735 H   0  0  0  0  0  0  0  0  0  0  0  0
   67.8626   32.3920   49.7735 H   0  0  0  0  0  0  0  0  0  0  0  0
   67.2916   31.6988   52.0379 H   0  0  0  0  0  0  0  0  0  0  0  0
   67.4844   33.5092   51.9959 H   0  0  0  0  0  0  0  0  0  0  0  0
   65.4270   33.8170   52.5720 H   0  0  0  0  0  0  0  0  0  0  0  0
   65.4520   32.2300   53.1220 H   0  0  0  0  0  0  0  0  0  0  0  0
   64.8254   31.9155   50.5018 H   0  0  0  0  0  0  0  0  0  0  0  0
   63.6955   31.8823   51.9344 H   0  0  0  0  0  0  0  0  0  0  0  0
   63.7458   34.8189   47.9803 H   0  0  0  0  0  0  0  0  0  0  0  0
   64.7784   33.4366   48.5126 H   0  0  0  0  0  0  0  0  0  0  0  0
   63.9489   32.5622   46.5489 H   0  0  0  0  0  0  0  0  0  0  0  0
   62.6498   32.0414   47.7247 H   0  0  0  0  0  0  0  0  0  0  0  0
   62.4371   34.5931   46.0982 H   0  0  0  0  0  0  0  0  0  0  0  0
   61.8664   32.9792   45.4930 H   0  0  0  0  0  0  0  0  0  0  0  0
   59.7564   31.2855   46.7813 H   0  0  0  0  0  0  0  0  0  0  0  0
   57.6074   30.7284   45.6459 H   0  0  0  0  0  0  0  0  0  0  0  0
   56.1873   32.5460   44.6927 H   0  0  0  0  0  0  0  0  0  0  0  0
   56.9151   34.9262   44.8762 H   0  0  0  0  0  0  0  0  0  0  0  0
   59.0658   35.4945   46.0077 H   0  0  0  0  0  0  0  0  0  0  0  0
   61.1847   35.3044   48.4804 H   0  0  0  0  0  0  0  0  0  0  0  0
   59.6915   34.2829   48.7921 H   0  0  0  0  0  0  0  0  0  0  0  0
   61.1144   33.7132   50.5376 H   0  0  0  0  0  0  0  0  0  0  0  0
   61.3513   32.4019   49.2726 H   0  0  0  0  0  0  0  0  0  0  0  0
  1  2  1  0
  2  3  1  0
  3  4  1  0
  4  5  1  0
  5  6  2  0
  5  7  1  0
  7  8  1  0
  8  9  1  0
  9 10  1  0
 10 11  1  0
 11 12  1  0
 12 13  2  0
 13 14  1  0
 14 15  2  0
 15 16  1  0
 16 17  2  0
 11 18  1  0
 18 19  1  0
 19  7  1  0
 17 12  1  0
  1 20  1  0
  1 21  1  0
  1 22  1  0
  2 23  1  0
  2 24  1  0
  3 25  1  0
  3 26  1  0
  4 27  1  0
  4 28  1  0
  8 29  1  0
  8 30  1  0
  9 31  1  0
  9 32  1  0
 10 33  1  0
 10 34  1  0
 13 35  1  0
 14 36  1  0
 15 37  1  0
 16 38  1  0
 17 39  1  0
 18 40  1  0
 18 41  1  0
 19 42  1  0
 19 43  1  0
M  CHG  1   3   1
M  END
>  <UniqueID>  (35) 
35

>  <SMILES>  (35) 
CC[NH2+]CC(=O)N1CCCN(c2ccccc2)CC1

>  <Energy>  (35) 
51.83615195818743

>  <Genealogy>  (35) 
CC[NH2+]CC(=O)N1CCCN(c2ccccc2)CC1 (protonated)
CC[NH2+]CC(=O)N1CCCN(c2ccccc2)CC1 (3D coordinates assigned)
CC[NH2+]CC(=O)N1CCCN(c2ccccc2)CC1 (nonaromatic ring conformer: 51.83615195818743 kcal/mol)

>  <smiles>  (35) 
CCNCC(=O)N1CCCN(c2ccccc2)CC1

>  <score_type>  (35) 
oracle

>  <origin>  (35) 
adg

>  <m_score__min__energy>  (35) 
-3.23

>  <m_primary>  (35) 
energy

$$$$
35:0
     RDKit          3D

 61 64  0  0  0  0  0  0  0  0999 V2000
   56.5110   29.8460   42.9710 C   0  0  0  0  0  0  0  0  0  0  0  0
   56.2270   30.8260   44.1030 C   0  0  0  0  0  0  0  0  0  0  0  0
   57.3770   30.9150   45.0130 N   0  0  0  0  0  0  0  0  0  0  0  0
   57.9520   29.7070   45.6160 C   0  0  0  0  0  0  0  0  0  0  0  0
   59.2580   29.3320   44.9200 C   0  0  0  0  0  0  0  0  0  0  0  0
   60.3210   29.4330   45.8450 O   0  0  0  0  0  0  0  0  0  0  0  0
   60.1220   28.5850   46.9590 C   0  0  0  0  0  0  0  0  0  0  0  0
   59.8160   29.3460   48.2640 C   0  0  0  0  0  0  0  0  0  0  0  0
   59.4710   30.7710   48.0690 N   0  0  0  0  0  0  0  0  0  0  0  0
   60.1570   31.6640   48.9970 C   0  0  0  0  0  0  0  0  0  0  0  0
   61.4570   32.1550   48.6850 C   0  0  0  0  0  0  0  0  0  0  0  0
   62.1140   31.8170   47.4740 C   0  0  0  0  0  0  0  0  0  0  0  0
   63.3470   32.3780   47.1420 C   0  0  0  0  0  0  0  0  0  0  0  0
   63.9500   33.2890   47.9940 C   0  0  0  0  0  0  0  0  0  0  0  0
   63.3470   33.6110   49.2070 C   0  0  0  0  0  0  0  0  0  0  0  0
   62.1230   33.0140   49.6020 C   0  0  0  0  0  0  0  0  0  0  0  0
   61.5790   33.2630   50.8430 N   0  0  0  0  0  0  0  0  0  0  0  0
   62.4140   33.8650   51.9080 C   0  0  0  0  0  0  0  0  0  0  0  0
   60.2650   32.9380   51.1020 C   0  0  0  0  0  0  0  0  0  0  0  0
   59.5980   33.4570   52.2410 C   0  0  0  0  0  0  0  0  0  0  0  0
   58.2850   33.1080   52.5300 C   0  0  0  0  0  0  0  0  0  0  0  0
   57.5980   32.2430   51.6960 C   0  0  0  0  0  0  0  0  0  0  0  0
   58.2060   31.7450   50.5490 C   0  0  0  0  0  0  0  0  0  0  0  0
   59.5400   32.0970   50.2090 C   0  0  0  0  0  0  0  0  0  0  0  0
   57.8980   32.2020   45.3750 C   0  0  0  0  0  0  0  0  0  0  0  0
   58.5320   32.9970   44.4180 C   0  0  0  0  0  0  0  0  0  0  0  0
   59.0380   34.2510   44.7710 C   0  0  0  0  0  0  0  0  0  0  0  0
   58.9250   34.7050   46.0880 C   0  0  0  0  0  0  0  0  0  0  0  0
   58.2900   33.9140   47.0510 C   0  0  0  0  0  0  0  0  0  0  0  0
   57.7740   32.6660   46.6960 C   0  0  0  0  0  0  0  0  0  0  0  0
   56.7938   28.8703   43.3930 H   0  0  0  0  0  0  0  0  0  0  0  0
   55.6095   29.7302   42.3515 H   0  0  0  0  0  0  0  0  0  0  0  0
   57.3348   30.2302   42.3515 H   0  0  0  0  0  0  0  0  0  0  0  0
   56.0251   31.8202   43.6779 H   0  0  0  0  0  0  0  0  0  0  0  0
   55.3543   30.4690   44.6695 H   0  0  0  0  0  0  0  0  0  0  0  0
   58.1503   29.8936   46.6818 H   0  0  0  0  0  0  0  0  0  0  0  0
   57.2377   28.8782   45.5028 H   0  0  0  0  0  0  0  0  0  0  0  0
   59.1925   28.2998   44.5456 H   0  0  0  0  0  0  0  0  0  0  0  0
   59.4363   30.0135   44.0751 H   0  0  0  0  0  0  0  0  0  0  0  0
   59.2773   27.9152   46.7402 H   0  0  0  0  0  0  0  0  0  0  0  0
   61.0608   28.0342   47.1181 H   0  0  0  0  0  0  0  0  0  0  0  0
   58.9688   28.8510   48.7613 H   0  0  0  0  0  0  0  0  0  0  0  0
   60.7364   29.3234   48.8660 H   0  0  0  0  0  0  0  0  0  0  0  0
   58.4410   30.8870   48.1920 H   0  0  0  0  0  0  0  0  0  0  0  0
   59.5950   31.0350   47.0720 H   0  0  0  0  0  0  0  0  0  0  0  0
   61.6430   31.1003   46.7851 H   0  0  0  0  0  0  0  0  0  0  0  0
   63.8421   32.0963   46.2010 H   0  0  0  0  0  0  0  0  0  0  0  0
   64.9045   33.7576   47.7124 H   0  0  0  0  0  0  0  0  0  0  0  0
   63.8295   34.3427   49.8717 H   0  0  0  0  0  0  0  0  0  0  0  0
   62.0158   33.5779   52.8924 H   0  0  0  0  0  0  0  0  0  0  0  0
   63.4484   33.5035   51.8113 H   0  0  0  0  0  0  0  0  0  0  0  0
   62.3979   34.9606   51.8113 H   0  0  0  0  0  0  0  0  0  0  0  0
   60.1311   34.1497   52.9088 H   0  0  0  0  0  0  0  0  0  0  0  0
   57.7907   33.5194   53.4224 H   0  0  0  0  0  0  0  0  0  0  0  0
   56.5670   31.9484   51.9416 H   0  0  0  0  0  0  0  0  0  0  0  0
   57.6434   31.0654   49.8921 H   0  0  0  0  0  0  0  0  0  0  0  0
   58.6334   32.6355   43.3841 H   0  0  0  0  0  0  0  0  0  0  0  0
   59.5253   34.8808   44.0121 H   0  0  0  0  0  0  0  0  0  0  0  0
   59.3362   35.6862   46.3677 H   0  0  0  0  0  0  0  0  0  0  0  0
   58.1973   34.2744   48.0861 H   0  0  0  0  0  0  0  0  0  0  0  0
   57.2698   32.0451   47.4512 H   0  0  0  0  0  0  0  0  0  0  0  0
  1  2  1  0
  2  3  1  0
  3  4  1  0
  4  5  1  0
  5  6  1  0
  6  7  1  0
  7  8  1  0
  8  9  1  0
  9 10  1  0
 10 11  1  0
 11 12  2  0
 12 13  1  0
 13 14  2  0
 14 15  1  0
 15 16  2  0
 16 17  1  0
 17 18  1  0
 17 19  2  0
 19 20  1  0
 20 21  2  0
 21 22  1  0
 22 23  2  0
 23 24  1  0
  3 25  1  0
 25 26  2  0
 26 27  1  0
 27 28  2  0
 28 29  1  0
 29 30  2  0
 24 10  2  0
 30 25  1  0
 16 11  1  0
 24 19  1  0
  1 31  1  0
  1 32  1  0
  1 33  1  0
  2 34  1  0
  2 35  1  0
  4 36  1  0
  4 37  1  0
  5 38  1  0
  5 39  1  0
  7 40  1  0
  7 41  1  0
  8 42  1  0
  8 43  1  0
  9 44  1  0
  9 45  1  0
 12 46  1  0
 13 47  1  0
 14 48  1  0
 15 49  1  0
 18 50  1  0
 18 51  1  0
 18 52  1  0
 20 53  1  0
 21 54  1  0
 22 55  1  0
 23 56  1  0
 26 57  1  0
 27 58  1  0
 28 59  1  0
 29 60  1  0
 30 61  1  0
M  CHG  2   9   1  17   1
M  END
>  <UniqueID>  (36) 
36

>  <SMILES>  (36) 
CCN(CCOCC[NH2+]c1c2ccccc2[n+](C)c2ccccc12)c1ccccc1

>  <Energy>  (36) 
91.09467033486567

>  <Genealogy>  (36) 
CCN(CCOCC[NH2+]c1c2ccccc2[n+](C)c2ccccc12)c1ccccc1 (protonated)
CCN(CCOCC[NH2+]c1c2ccccc2[n+](C)c2ccccc12)c1ccccc1 (3D coordinates assigned)
CCN(CCOCC[NH2+]c1c2ccccc2[n+](C)c2ccccc12)c1ccccc1 (optimized conformer: 91.09467033486567 kcal/mol)

>  <smiles>  (36) 
CCN(CCOCCNc1c2ccccc2[n+](C)c2ccccc12)c1ccccc1

>  <score_type>  (36) 
oracle

>  <origin>  (36) 
adg

>  <m_score__min__energy>  (36) 
-4.8700000000000001

>  <m_primary>  (36) 
energy

$$$$
36:0
     RDKit          3D

 41 41  0  0  0  0  0  0  0  0999 V2000
   57.4290   31.6060   42.3030 C   0  0  0  0  0  0  0  0  0  0  0  0
   56.6290   30.6160   43.1440 C   0  0  0  0  0  0  0  0  0  0  0  0
   56.4640   31.1020   44.4750 O   0  0  0  0  0  0  0  0  0  0  0  0
   57.4150   31.8310   45.2110 C   0  0  0  0  0  0  0  0  0  0  0  0
   57.2290   33.1880   45.5450 C   0  0  0  0  0  0  0  0  0  0  0  0
   58.1940   33.8730   46.2840 C   0  0  0  0  0  0  0  0  0  0  0  0
   59.3580   33.2220   46.6930 C   0  0  0  0  0  0  0  0  0  0  0  0
   60.6790   34.1680   47.6980 Br  0  0  0  0  0  0  0  0  0  0  0  0
   59.5590   31.8800   46.3650 C   0  0  0  0  0  0  0  0  0  0  0  0
   58.5900   31.1730   45.6310 C   0  0  0  0  0  0  0  0  0  0  0  0
   58.7820   29.7850   45.3010 N   0  0  0  0  0  0  0  0  0  0  0  0
   59.8940   28.9710   45.8010 C   0  0  0  0  0  0  0  0  0  0  0  0
   59.5720   27.4690   45.7390 C   0  0  0  0  0  0  0  0  0  0  0  0
   58.1390   27.2330   45.4460 N   0  0  0  0  0  0  0  0  0  0  0  0
   57.4380   26.7410   46.6540 C   0  0  0  0  0  0  0  0  0  0  0  0
   56.2920   25.8000   46.2860 C   0  0  0  0  0  0  0  0  0  0  0  0
   57.9560   26.3220   44.2870 C   0  0  0  0  0  0  0  0  0  0  0  0
   58.1290   27.1000   42.9860 C   0  0  0  0  0  0  0  0  0  0  0  0
   57.9806   32.2886   42.9661 H   0  0  0  0  0  0  0  0  0  0  0  0
   58.1402   31.0571   41.6682 H   0  0  0  0  0  0  0  0  0  0  0  0
   56.7430   32.1861   41.6682 H   0  0  0  0  0  0  0  0  0  0  0  0
   55.6389   30.4717   42.6871 H   0  0  0  0  0  0  0  0  0  0  0  0
   57.1752   29.6619   43.1814 H   0  0  0  0  0  0  0  0  0  0  0  0
   56.3168   33.7103   45.2207 H   0  0  0  0  0  0  0  0  0  0  0  0
   58.0364   34.9299   46.5450 H   0  0  0  0  0  0  0  0  0  0  0  0
   60.4816   31.3722   46.6828 H   0  0  0  0  0  0  0  0  0  0  0  0
   58.0400   29.2910   44.7570 H   0  0  0  0  0  0  0  0  0  0  0  0
   60.7854   29.1701   45.1879 H   0  0  0  0  0  0  0  0  0  0  0  0
   60.0706   29.2407   46.8527 H   0  0  0  0  0  0  0  0  0  0  0  0
   60.1797   27.0054   44.9479 H   0  0  0  0  0  0  0  0  0  0  0  0
   59.8016   27.0259   46.7193 H   0  0  0  0  0  0  0  0  0  0  0  0
   58.1552   26.2008   47.2895 H   0  0  0  0  0  0  0  0  0  0  0  0
   57.0189   27.6061   47.1888 H   0  0  0  0  0  0  0  0  0  0  0  0
   55.8239   25.4156   47.2042 H   0  0  0  0  0  0  0  0  0  0  0  0
   55.5435   26.3476   45.6944 H   0  0  0  0  0  0  0  0  0  0  0  0
   56.6835   24.9593   45.6944 H   0  0  0  0  0  0  0  0  0  0  0  0
   58.7043   25.5171   44.3334 H   0  0  0  0  0  0  0  0  0  0  0  0
   56.9448   25.8903   44.3204 H   0  0  0  0  0  0  0  0  0  0  0  0
   58.3625   28.1502   43.2151 H   0  0  0  0  0  0  0  0  0  0  0  0
   58.9513   26.6604   42.4025 H   0  0  0  0  0  0  0  0  0  0  0  0
   57.1979   27.0503   42.4025 H   0  0  0  0  0  0  0  0  0  0  0  0
  1  2  1  0
  2  3  1  0
  3  4  1  0
  4  5  2  0
  5  6  1  0
  6  7  2  0
  7  8  1  0
  7  9  1  0
  9 10  2  0
 10 11  1  0
 11 12  1  0
 12 13  1  0
 13 14  1  0
 14 15  1  0
 15 16  1  0
 14 17  1  0
 17 18  1  0
 10  4  1  0
  1 19  1  0
  1 20  1  0
  1 21  1  0
  2 22  1  0
  2 23  1  0
  5 24  1  0
  6 25  1  0
  9 26  1  0
 11 27  1  0
 12 28  1  0
 12 29  1  0
 13 30  1  0
 13 31  1  0
 15 32  1  0
 15 33  1  0
 16 34  1  0
 16 35  1  0
 16 36  1  0
 17 37  1  0
 17 38  1  0
 18 39  1  0
 18 40  1  0
 18 41  1  0
M  END
>  <UniqueID>  (37) 
37

>  <SMILES>  (37) 
CCOc1ccc(Br)cc1NCCN(CC)CC

>  <Energy>  (37) 
33.22508457033152

>  <Genealogy>  (37) 
CCOc1ccc(Br)cc1NCCN(CC)CC (3D coordinates assigned)
CCOc1ccc(Br)cc1NCCN(CC)CC (optimized conformer: 33.22508457033152 kcal/mol)

>  <smiles>  (37) 
CCOc1ccc(Br)cc1NCCN(CC)CC

>  <score_type>  (37) 
oracle

>  <origin>  (37) 
adg

>  <m_score__min__energy>  (37) 
-6.4500000000000002

>  <m_primary>  (37) 
energy

$$$$
37:0
     RDKit          3D

 55 57  0  0  0  0  0  0  0  0999 V2000
   57.5680   33.7090   45.4610 C   0  0  0  0  0  0  0  0  0  0  0  0
   58.9620   34.2800   45.6990 C   0  0  0  0  0  0  0  0  0  0  0  0
   59.3440   34.2490   47.1840 C   0  0  0  0  0  0  0  0  0  0  0  0
   60.7840   34.5690   47.3620 N   0  0  0  0  0  0  0  0  0  0  0  0
   61.2060   34.2140   48.7420 C   0  0  0  0  0  0  0  0  0  0  0  0
   60.0110   33.8380   49.6080 C   0  0  0  0  0  0  0  0  0  0  0  0
   61.6110   33.8390   46.3690 C   0  0  0  0  0  0  0  0  0  0  0  0
   63.1190   33.9310   46.6780 C   0  0  0  0  0  0  0  0  0  0  0  0
   63.7080   32.6520   47.1040 N   0  0  0  0  0  0  0  0  0  0  0  0
   63.2980   31.9200   48.2800 C   0  0  0  0  0  0  0  0  0  0  0  0
   64.0270   32.0550   49.4770 C   0  0  0  0  0  0  0  0  0  0  0  0
   65.2380   32.7830   49.5100 C   0  0  0  0  0  0  0  0  0  0  0  0
   65.9270   32.9720   50.7050 C   0  0  0  0  0  0  0  0  0  0  0  0
   65.4100   32.4700   51.8920 C   0  0  0  0  0  0  0  0  0  0  0  0
   64.2230   31.7400   51.8860 C   0  0  0  0  0  0  0  0  0  0  0  0
   63.5290   31.4740   50.6760 C   0  0  0  0  0  0  0  0  0  0  0  0
   62.3840   30.6990   50.6510 N   0  0  0  0  0  0  0  0  0  0  0  0
   62.0020   29.9080   51.8430 C   0  0  0  0  0  0  0  0  0  0  0  0
   61.6280   30.6130   49.4960 C   0  0  0  0  0  0  0  0  0  0  0  0
   60.3450   30.0090   49.4870 C   0  0  0  0  0  0  0  0  0  0  0  0
   59.6560   29.7990   48.2940 C   0  0  0  0  0  0  0  0  0  0  0  0
   60.2330   30.1580   47.0760 C   0  0  0  0  0  0  0  0  0  0  0  0
   59.5120   29.8990   45.7860 C   0  0  0  0  0  0  0  0  0  0  0  0
   61.4600   30.8300   47.0700 C   0  0  0  0  0  0  0  0  0  0  0  0
   62.1270   31.1360   48.2750 C   0  0  0  0  0  0  0  0  0  0  0  0
   57.0831   33.5104   46.4282 H   0  0  0  0  0  0  0  0  0  0  0  0
   56.9673   34.4335   44.8916 H   0  0  0  0  0  0  0  0  0  0  0  0
   57.6482   32.7713   44.8916 H   0  0  0  0  0  0  0  0  0  0  0  0
   59.6923   33.6850   45.1310 H   0  0  0  0  0  0  0  0  0  0  0  0
   58.9632   35.3288   45.3674 H   0  0  0  0  0  0  0  0  0  0  0  0
   58.7395   34.9897   47.7280 H   0  0  0  0  0  0  0  0  0  0  0  0
   59.1546   33.2393   47.5772 H   0  0  0  0  0  0  0  0  0  0  0  0
   61.8979   33.3601   48.6964 H   0  0  0  0  0  0  0  0  0  0  0  0
   61.6971   35.0902   49.1905 H   0  0  0  0  0  0  0  0  0  0  0  0
   60.2858   33.9245   50.6696 H   0  0  0  0  0  0  0  0  0  0  0  0
   59.1725   34.5157   49.3900 H   0  0  0  0  0  0  0  0  0  0  0  0
   59.7116   32.8022   49.3900 H   0  0  0  0  0  0  0  0  0  0  0  0
   61.3138   32.7799   46.3722 H   0  0  0  0  0  0  0  0  0  0  0  0
   61.4414   34.3025   45.3860 H   0  0  0  0  0  0  0  0  0  0  0  0
   63.6406   34.2699   45.7708 H   0  0  0  0  0  0  0  0  0  0  0  0
   63.2364   34.6365   47.5137 H   0  0  0  0  0  0  0  0  0  0  0  0
   64.5380   32.3070   46.5720 H   0  0  0  0  0  0  0  0  0  0  0  0
   65.6418   33.2062   48.5784 H   0  0  0  0  0  0  0  0  0  0  0  0
   66.8812   33.5192   50.7088 H   0  0  0  0  0  0  0  0  0  0  0  0
   65.9389   32.6491   52.8397 H   0  0  0  0  0  0  0  0  0  0  0  0
   63.8162   31.3629   52.8359 H   0  0  0  0  0  0  0  0  0  0  0  0
   62.2705   30.4639   52.7534 H   0  0  0  0  0  0  0  0  0  0  0  0
   60.9171   29.7268   51.8306 H   0  0  0  0  0  0  0  0  0  0  0  0
   62.5346   28.9456   51.8306 H   0  0  0  0  0  0  0  0  0  0  0  0
   59.8858   29.7010   50.4379 H   0  0  0  0  0  0  0  0  0  0  0  0
   58.6528   29.3482   48.3130 H   0  0  0  0  0  0  0  0  0  0  0  0
   58.4966   29.5342   46.0003 H   0  0  0  0  0  0  0  0  0  0  0  0
   59.4518   30.8317   45.2060 H   0  0  0  0  0  0  0  0  0  0  0  0
   60.0590   29.1412   45.2060 H   0  0  0  0  0  0  0  0  0  0  0  0
   61.9116   31.1243   46.1111 H   0  0  0  0  0  0  0  0  0  0  0  0
  1  2  1  0
  2  3  1  0
  3  4  1  0
  4  5  1  0
  5  6  1  0
  4  7  1  0
  7  8  1  0
  8  9  1  0
  9 10  1  0
 10 11  2  0
 11 12  1  0
 12 13  2  0
 13 14  1  0
 14 15  2  0
 15 16  1  0
 16 17  2  0
 17 18  1  0
 17 19  1  0
 19 20  2  0
 20 21  1  0
 21 22  2  0
 22 23  1  0
 22 24  1  0
 24 25  2  0
 25 10  1  0
 16 11  1  0
 25 19  1  0
  1 26  1  0
  1 27  1  0
  1 28  1  0
  2 29  1  0
  2 30  1  0
  3 31  1  0
  3 32  1  0
  5 33  1  0
  5 34  1  0
  6 35  1  0
  6 36  1  0
  6 37  1  0
  7 38  1  0
  7 39  1  0
  8 40  1  0
  8 41  1  0
  9 42  1  0
 12 43  1  0
 13 44  1  0
 14 45  1  0
 15 46  1  0
 18 47  1  0
 18 48  1  0
 18 49  1  0
 20 50  1  0
 21 51  1  0
 23 52  1  0
 23 53  1  0
 23 54  1  0
 24 55  1  0
M  CHG  1  17   1
M  END
>  <UniqueID>  (38) 
38

>  <SMILES>  (38) 
CCCN(CC)CCNc1c2ccccc2[n+](C)c2ccc(C)cc12

>  <Energy>  (38) 
78.16016944785758

>  <Genealogy>  (38) 
CCCN(CC)CCNc1c2ccccc2[n+](C)c2ccc(C)cc12 (3D coordinates assigned)
CCCN(CC)CCNc1c2ccccc2[n+](C)c2ccc(C)cc12 (optimized conformer: 78.16016944785758 kcal/mol)

>  <smiles>  (38) 
CCCN(CC)CCNc1c2ccccc2[n+](C)c2ccc(C)cc12

>  <score_type>  (38) 
oracle

>  <origin>  (38) 
adg

>  <m_score__min__energy>  (38) 
-5.9199999999999999

>  <m_primary>  (38) 
energy

$$$$
