0:0
     RDKit          3D

 43 45  0  0  0  0  0  0  0  0999 V2000
   62.4779   34.3166   46.4504 H   0  0  0  0  0  0  0  0  0  0  0  0
   62.1810   33.6040   47.2340 C   0  0  0  0  0  0  0  0  0  0  0  0
   61.1600   32.7740   46.9770 C   0  0  0  0  0  0  0  0  0  0  0  0
   59.8990   33.1960   46.3740 C   0  0  0  0  0  0  0  0  0  0  0  0
   59.5500   34.3820   46.1320 O   0  0  0  0  0  0  0  0  0  0  0  0
   59.1440   32.0100   46.0500 C   0  0  0  0  0  0  0  0  0  0  0  0
   57.9150   31.9020   45.4080 C   0  0  0  0  0  0  0  0  0  0  0  0
   57.3568   32.8035   45.1151 H   0  0  0  0  0  0  0  0  0  0  0  0
   57.3930   30.6130   45.1370 C   0  0  0  0  0  0  0  0  0  0  0  0
   56.1500   30.4600   44.5090 O   0  0  0  0  0  0  0  0  0  0  0  0
   55.9410   29.7760   43.2770 C   0  0  0  0  0  0  0  0  0  0  0  0
   55.6251   28.7422   43.4806 H   0  0  0  0  0  0  0  0  0  0  0  0
   55.1593   30.2913   42.6996 H   0  0  0  0  0  0  0  0  0  0  0  0
   56.8772   29.7664   42.6996 H   0  0  0  0  0  0  0  0  0  0  0  0
   58.1460   29.4590   45.5180 C   0  0  0  0  0  0  0  0  0  0  0  0
   57.7370   28.1380   45.2610 O   0  0  0  0  0  0  0  0  0  0  0  0
   58.1700   27.3250   44.1720 C   0  0  0  0  0  0  0  0  0  0  0  0
   58.6535   26.4171   44.5618 H   0  0  0  0  0  0  0  0  0  0  0  0
   57.3025   27.0432   43.5572 H   0  0  0  0  0  0  0  0  0  0  0  0
   58.8879   27.8876   43.5572 H   0  0  0  0  0  0  0  0  0  0  0  0
   59.3750   29.6200   46.1870 C   0  0  0  0  0  0  0  0  0  0  0  0
   59.9463   28.7388   46.5142 H   0  0  0  0  0  0  0  0  0  0  0  0
   59.8630   30.9020   46.4320 C   0  0  0  0  0  0  0  0  0  0  0  0
   61.1740   31.2650   47.0660 C   0  0  0  0  0  0  0  0  0  0  0  0
   62.0199   30.8396   46.5061 H   0  0  0  0  0  0  0  0  0  0  0  0
   61.2917   30.8826   48.0906 H   0  0  0  0  0  0  0  0  0  0  0  0
   62.9310   33.6190   48.5060 C   0  0  0  0  0  0  0  0  0  0  0  0
   62.4020   34.2010   49.6700 C   0  0  0  0  0  0  0  0  0  0  0  0
   61.3996   34.6535   49.6508 H   0  0  0  0  0  0  0  0  0  0  0  0
   63.1470   34.2060   50.8520 C   0  0  0  0  0  0  0  0  0  0  0  0
   62.7241   34.6522   51.7642 H   0  0  0  0  0  0  0  0  0  0  0  0
   64.4260   33.6470   50.8800 C   0  0  0  0  0  0  0  0  0  0  0  0
   64.9994   33.6402   51.8187 H   0  0  0  0  0  0  0  0  0  0  0  0
   64.9850   33.0930   49.7160 C   0  0  0  0  0  0  0  0  0  0  0  0
   66.2970   32.4950   49.7460 N   0  0  0  0  0  0  0  0  0  0  0  0
   66.7780   32.6300   48.8240 H   0  0  0  0  0  0  0  0  0  0  0  0
   66.2180   31.4660   49.9190 H   0  0  0  0  0  0  0  0  0  0  0  0
   67.1040   33.0990   50.8090 C   0  0  0  0  0  0  0  0  0  0  0  0
   66.7035   32.7992   51.7887 H   0  0  0  0  0  0  0  0  0  0  0  0
   68.1454   32.7566   50.7183 H   0  0  0  0  0  0  0  0  0  0  0  0
   67.0691   34.1947   50.7183 H   0  0  0  0  0  0  0  0  0  0  0  0
   64.2290   33.0870   48.5300 C   0  0  0  0  0  0  0  0  0  0  0  0
   64.6598   32.6609   47.6119 H   0  0  0  0  0  0  0  0  0  0  0  0
  1  2  1  0
  2  3  2  0
  3  4  1  0
  4  5  2  0
  4  6  1  0
  6  7  2  0
  7  8  1  0
  7  9  1  0
  9 10  1  0
 10 11  1  0
 11 12  1  0
 11 13  1  0
 11 14  1  0
  9 15  2  0
 15 16  1  0
 16 17  1  0
 17 18  1  0
 17 19  1  0
 17 20  1  0
 15 21  1  0
 21 22  1  0
 21 23  2  0
 23 24  1  0
 24 25  1  0
 24 26  1  0
  2 27  1  0
 27 28  2  0
 28 29  1  0
 28 30  1  0
 30 31  1  0
 30 32  2  0
 32 33  1  0
 32 34  1  0
 34 35  1  0
 35 36  1  0
 35 37  1  0
 35 38  1  0
 38 39  1  0
 38 40  1  0
 38 41  1  0
 34 42  2  0
 42 43  1  0
 24  3  1  0
 42 27  1  0
 23  6  1  0
M  CHG  1  35   1
M  END
>  <UniqueID>  (1) 
1

>  <SMILES>  (1) 
C[NH2+]c1cccc(/C=C2\Cc3cc(OC)c(OC)cc3C2=O)c1

>  <Energy>  (1) 
70.7718962170265

>  <Genealogy>  (1) 
C[NH2+]c1cccc(C=C2Cc3cc(OC)c(OC)cc3C2=O)c1 (protonated)
C[NH2+]c1cccc(/C=C2\Cc3cc(OC)c(OC)cc3C2=O)c1 (cis-trans isomerization)
C[NH2+]c1cccc(/C=C2\Cc3cc(OC)c(OC)cc3C2=O)c1 (3D coordinates assigned)
C[NH2+]c1cccc(/C=C2\Cc3cc(OC)c(OC)cc3C2=O)c1 (nonaromatic ring conformer: 70.7718962170265 kcal/mol)

>  <smiles>  (1) 
CNc1cccc(C=C2Cc3cc(OC)c(OC)cc3C2=O)c1

>  <score_type>  (1) 
oracle

>  <origin>  (1) 
adg

>  <m_score__min__energy>  (1) 
-6.3300000000000001

>  <m_primary>  (1) 
energy

$$$$
1:0
     RDKit          3D

 61 65  0  0  0  0  0  0  0  0999 V2000
   54.1100   29.8990   52.4110 C   0  0  0  0  0  0  0  0  0  0  0  0
   55.5100   29.7210   52.8050 N   0  0  0  0  0  0  0  0  0  0  0  0
   55.8880   28.6440   53.7270 C   0  0  0  0  0  0  0  0  0  0  0  0
   56.5240   30.5810   52.2510 C   0  0  0  0  0  0  0  0  0  0  0  0
   56.5210   31.9260   52.5360 N   0  0  0  0  0  0  0  0  0  0  0  0
   57.4460   32.7760   52.0010 C   0  0  0  0  0  0  0  0  0  0  0  0
   58.3900   32.2410   51.1370 C   0  0  0  0  0  0  0  0  0  0  0  0
   59.3410   32.8480   50.4690 O   0  0  0  0  0  0  0  0  0  0  0  0
   59.9620   31.9290   49.7440 C   0  0  0  0  0  0  0  0  0  0  0  0
   61.1030   32.2490   48.8700 C   0  0  0  0  0  0  0  0  0  0  0  0
   62.3570   31.6640   49.1170 C   0  0  0  0  0  0  0  0  0  0  0  0
   63.4520   31.9770   48.3040 C   0  0  0  0  0  0  0  0  0  0  0  0
   63.3080   32.8920   47.2540 C   0  0  0  0  0  0  0  0  0  0  0  0
   62.0720   33.5010   47.0240 C   0  0  0  0  0  0  0  0  0  0  0  0
   60.9730   33.1850   47.8300 C   0  0  0  0  0  0  0  0  0  0  0  0
   59.3960   30.6630   49.9690 C   0  0  0  0  0  0  0  0  0  0  0  0
   59.8140   29.3470   49.4440 C   0  0  0  0  0  0  0  0  0  0  0  0
   60.4160   28.3960   50.2810 C   0  0  0  0  0  0  0  0  0  0  0  0
   60.8090   27.1660   49.7500 C   0  0  0  0  0  0  0  0  0  0  0  0
   60.5810   26.8840   48.4010 C   0  0  0  0  0  0  0  0  0  0  0  0
   59.9500   27.8440   47.5970 C   0  0  0  0  0  0  0  0  0  0  0  0
   59.6490   27.5720   46.1540 C   0  0  0  0  0  0  0  0  0  0  0  0
   58.8480   28.6700   45.5820 N   0  0  0  0  0  0  0  0  0  0  0  0
   59.6550   29.4760   44.6540 C   0  0  0  0  0  0  0  0  0  0  0  0
   57.4650   28.0130   44.7350 S   0  0  0  0  0  0  0  0  0  0  0  0
   57.7870   27.8450   43.2750 O   0  0  0  0  0  0  0  0  0  0  0  0
   56.3240   28.9880   44.8420 O   0  0  0  0  0  0  0  0  0  0  0  0
   56.9390   26.4800   45.4480 C   0  0  0  0  0  0  0  0  0  0  0  0
   56.5260   26.3320   46.7540 C   0  0  0  0  0  0  0  0  0  0  0  0
   56.3060   25.0300   47.0130 N   0  0  0  0  0  0  0  0  0  0  0  0
   56.5820   24.4070   45.8450 C   0  0  0  0  0  0  0  0  0  0  0  0
   56.9560   25.2610   44.8700 N   0  0  0  0  0  0  0  0  0  0  0  0
   57.3590   24.8720   43.5210 C   0  0  0  0  0  0  0  0  0  0  0  0
   59.5990   29.0450   48.1340 N   0  0  0  0  0  0  0  0  0  0  0  0
   58.3890   30.9110   50.8720 C   0  0  0  0  0  0  0  0  0  0  0  0
   57.4730   30.0670   51.4060 N   0  0  0  0  0  0  0  0  0  0  0  0
   53.4830   29.9787   53.3113 H   0  0  0  0  0  0  0  0  0  0  0  0
   54.0113   30.8169   51.8130 H   0  0  0  0  0  0  0  0  0  0  0  0
   53.7847   29.0350   51.8130 H   0  0  0  0  0  0  0  0  0  0  0  0
   55.7666   28.9898   54.7642 H   0  0  0  0  0  0  0  0  0  0  0  0
   55.2429   27.7700   53.5540 H   0  0  0  0  0  0  0  0  0  0  0  0
   56.9378   28.3648   53.5540 H   0  0  0  0  0  0  0  0  0  0  0  0
   57.4427   33.8482   52.2467 H   0  0  0  0  0  0  0  0  0  0  0  0
   62.4779   30.9581   49.9519 H   0  0  0  0  0  0  0  0  0  0  0  0
   64.4273   31.5035   48.4900 H   0  0  0  0  0  0  0  0  0  0  0  0
   64.1676   33.1311   46.6106 H   0  0  0  0  0  0  0  0  0  0  0  0
   61.9626   34.2302   46.2078 H   0  0  0  0  0  0  0  0  0  0  0  0
   60.0031   33.6713   47.6489 H   0  0  0  0  0  0  0  0  0  0  0  0
   60.5771   28.6173   51.3464 H   0  0  0  0  0  0  0  0  0  0  0  0
   61.2978   26.4196   50.3934 H   0  0  0  0  0  0  0  0  0  0  0  0
   60.8930   25.9194   47.9741 H   0  0  0  0  0  0  0  0  0  0  0  0
   60.5933   27.4835   45.5969 H   0  0  0  0  0  0  0  0  0  0  0  0
   59.0773   26.6353   46.0784 H   0  0  0  0  0  0  0  0  0  0  0  0
   60.3193   30.1395   45.2270 H   0  0  0  0  0  0  0  0  0  0  0  0
   60.2594   28.8102   44.0204 H   0  0  0  0  0  0  0  0  0  0  0  0
   58.9900   30.0812   44.0204 H   0  0  0  0  0  0  0  0  0  0  0  0
   56.3960   27.1527   47.4748 H   0  0  0  0  0  0  0  0  0  0  0  0
   56.5092   23.3184   45.7047 H   0  0  0  0  0  0  0  0  0  0  0  0
   58.1493   24.1092   43.5801 H   0  0  0  0  0  0  0  0  0  0  0  0
   56.4918   24.4607   42.9835 H   0  0  0  0  0  0  0  0  0  0  0  0
   57.7394   25.7532   42.9835 H   0  0  0  0  0  0  0  0  0  0  0  0
  1  2  1  0
  2  3  1  0
  2  4  1  0
  4  5  2  0
  5  6  1  0
  6  7  2  0
  7  8  1  0
  8  9  1  0
  9 10  1  0
 10 11  2  0
 11 12  1  0
 12 13  2  0
 13 14  1  0
 14 15  2  0
  9 16  2  0
 16 17  1  0
 17 18  2  0
 18 19  1  0
 19 20  2  0
 20 21  1  0
 21 22  1  0
 22 23  1  0
 23 24  1  0
 23 25  1  0
 25 26  2  0
 25 27  2  0
 25 28  1  0
 28 29  2  0
 29 30  1  0
 30 31  2  0
 31 32  1  0
 32 33  1  0
 21 34  2  0
 16 35  1  0
 35 36  2  0
 36  4  1  0
 35  7  1  0
 15 10  1  0
 34 17  1  0
 32 28  1  0
  1 37  1  0
  1 38  1  0
  1 39  1  0
  3 40  1  0
  3 41  1  0
  3 42  1  0
  6 43  1  0
 11 44  1  0
 12 45  1  0
 13 46  1  0
 14 47  1  0
 15 48  1  0
 18 49  1  0
 19 50  1  0
 20 51  1  0
 22 52  1  0
 22 53  1  0
 24 54  1  0
 24 55  1  0
 24 56  1  0
 29 57  1  0
 31 58  1  0
 33 59  1  0
 33 60  1  0
 33 61  1  0
M  END
>  <UniqueID>  (2) 
2

>  <SMILES>  (2) 
CN(C)c1ncc2oc(-c3ccccc3)c(-c3cccc(CN(C)S(=O)(=O)c4cncn4C)n3)c2n1

>  <Energy>  (2) 
139.9152775671488

>  <Genealogy>  (2) 
CN(C)c1ncc2oc(-c3ccccc3)c(-c3cccc(CN(C)S(=O)(=O)c4cncn4C)n3)c2n1 (3D coordinates assigned)
CN(C)c1ncc2oc(-c3ccccc3)c(-c3cccc(CN(C)S(=O)(=O)c4cncn4C)n3)c2n1 (optimized conformer: 139.9152775671488 kcal/mol)

>  <smiles>  (2) 
CN(C)c1ncc2oc(-c3ccccc3)c(-c3cccc(CN(C)S(=O)(=O)c4cncn4C)n3)c2n1

>  <score_type>  (2) 
oracle

>  <origin>  (2) 
adg

>  <m_score__min__energy>  (2) 
-10.369999999999999

>  <m_primary>  (2) 
energy

$$$$
2:0
     RDKit          3D

 19 19  0  0  0  0  0  0  0  0999 V2000
   54.7630   28.9610   45.5370 H   0  0  0  0  0  0  0  0  0  0  0  0
   55.3980   29.3850   44.8720 O   0  0  0  0  0  0  0  0  0  0  0  0
   56.6250   29.8440   45.2900 N   0  0  0  0  0  0  0  0  0  0  0  0
   57.3090   30.6610   44.5550 C   0  0  0  0  0  0  0  0  0  0  0  0
   57.4329   30.4486   43.4828 H   0  0  0  0  0  0  0  0  0  0  0  0
   57.9310   31.8830   45.1350 C   0  0  0  0  0  0  0  0  0  0  0  0
   57.4040   33.1470   44.7980 C   0  0  0  0  0  0  0  0  0  0  0  0
   56.5456   33.2199   44.1140 H   0  0  0  0  0  0  0  0  0  0  0  0
   57.9690   34.3020   45.3300 C   0  0  0  0  0  0  0  0  0  0  0  0
   57.5583   35.2884   45.0685 H   0  0  0  0  0  0  0  0  0  0  0  0
   59.0530   34.2050   46.1920 C   0  0  0  0  0  0  0  0  0  0  0  0
   59.5065   35.1128   46.6166 H   0  0  0  0  0  0  0  0  0  0  0  0
   59.5620   32.9490   46.5150 C   0  0  0  0  0  0  0  0  0  0  0  0
   60.4208   32.8715   47.1979 H   0  0  0  0  0  0  0  0  0  0  0  0
   59.0080   31.8080   45.9940 N   0  0  0  0  0  0  0  0  0  0  0  0
   59.5930   30.5130   46.3750 C   0  0  0  0  0  0  0  0  0  0  0  0
   59.6282   30.4350   47.4717 H   0  0  0  0  0  0  0  0  0  0  0  0
   58.9756   29.6981   45.9691 H   0  0  0  0  0  0  0  0  0  0  0  0
   60.6126   30.4376   45.9691 H   0  0  0  0  0  0  0  0  0  0  0  0
  1  2  1  0
  2  3  1  0
  3  4  2  0
  4  5  1  0
  4  6  1  0
  6  7  2  0
  7  8  1  0
  7  9  1  0
  9 10  1  0
  9 11  2  0
 11 12  1  0
 11 13  1  0
 13 14  1  0
 13 15  2  0
 15 16  1  0
 16 17  1  0
 16 18  1  0
 16 19  1  0
 15  6  1  0
M  CHG  1  15   1
M  END
>  <UniqueID>  (3) 
3

>  <SMILES>  (3) 
C[n+]1ccccc1/C=N/O

>  <Energy>  (3) 
19.72941523278529

>  <Genealogy>  (3) 
C[n+]1ccccc1/C=N/O (cis-trans isomerization)
C[n+]1ccccc1/C=N/O (3D coordinates assigned)
C[n+]1ccccc1/C=N/O (optimized conformer: 19.72941523278529 kcal/mol)

>  <smiles>  (3) 
C[n+]1ccccc1C=NO

>  <score_type>  (3) 
oracle

>  <origin>  (3) 
adg

>  <m_score__min__energy>  (3) 
-4.3899999999999997

>  <m_primary>  (3) 
energy

$$$$
3:0
     RDKit          3D

 38 40  0  0  0  0  0  0  0  0999 V2000
   59.6420   26.6190   45.2680 O   0  0  0  0  0  0  0  0  0  0  0  0
   58.4350   26.9120   45.0480 C   0  0  0  0  0  0  0  0  0  0  0  0
   57.4290   25.8290   44.9380 C   0  0  0  0  0  0  0  0  0  0  0  0
   56.4510   25.6650   45.9370 C   0  0  0  0  0  0  0  0  0  0  0  0
   55.4940   24.6500   45.8300 C   0  0  0  0  0  0  0  0  0  0  0  0
   55.5000   23.7950   44.7240 C   0  0  0  0  0  0  0  0  0  0  0  0
   54.5710   22.8120   44.6220 F   0  0  0  0  0  0  0  0  0  0  0  0
   56.4590   23.9570   43.7220 C   0  0  0  0  0  0  0  0  0  0  0  0
   57.4170   24.9710   43.8240 C   0  0  0  0  0  0  0  0  0  0  0  0
   58.0560   28.2940   44.9240 N   0  0  0  0  0  0  0  0  0  0  0  0
   58.7470   29.3030   45.7210 C   0  0  0  0  0  0  0  0  0  0  0  0
   57.7960   30.4600   46.0530 C   0  0  0  0  0  0  0  0  0  0  0  0
   57.0380   30.9420   44.8790 N   0  0  0  0  0  0  0  0  0  0  0  0
   57.5780   32.1270   44.1810 C   0  0  0  0  0  0  0  0  0  0  0  0
   58.1480   33.1630   45.1040 C   0  0  0  0  0  0  0  0  0  0  0  0
   59.2640   33.9520   44.8560 C   0  0  0  0  0  0  0  0  0  0  0  0
   59.6040   34.7810   45.9300 C   0  0  0  0  0  0  0  0  0  0  0  0
   58.7730   34.6330   47.0340 C   0  0  0  0  0  0  0  0  0  0  0  0
   57.6170   33.4670   46.6710 S   0  0  0  0  0  0  0  0  0  0  0  0
   56.4230   29.8980   44.0350 C   0  0  0  0  0  0  0  0  0  0  0  0
   57.3860   28.7540   43.7070 C   0  0  0  0  0  0  0  0  0  0  0  0
   56.4391   26.3386   46.8066 H   0  0  0  0  0  0  0  0  0  0  0  0
   54.7359   24.5246   46.6171 H   0  0  0  0  0  0  0  0  0  0  0  0
   56.4610   23.2857   42.8506 H   0  0  0  0  0  0  0  0  0  0  0  0
   58.1655   25.0980   43.0280 H   0  0  0  0  0  0  0  0  0  0  0  0
   59.1031   28.8459   46.6560 H   0  0  0  0  0  0  0  0  0  0  0  0
   59.5989   29.6933   45.1449 H   0  0  0  0  0  0  0  0  0  0  0  0
   57.0806   30.1176   46.8152 H   0  0  0  0  0  0  0  0  0  0  0  0
   58.4114   31.2977   46.4129 H   0  0  0  0  0  0  0  0  0  0  0  0
   58.3737   31.7950   43.4979 H   0  0  0  0  0  0  0  0  0  0  0  0
   56.7377   32.5975   43.6495 H   0  0  0  0  0  0  0  0  0  0  0  0
   59.8243   33.9273   43.9097 H   0  0  0  0  0  0  0  0  0  0  0  0
   60.4496   35.4840   45.9033 H   0  0  0  0  0  0  0  0  0  0  0  0
   58.8570   35.1839   47.9824 H   0  0  0  0  0  0  0  0  0  0  0  0
   55.5537   29.4837   44.5667 H   0  0  0  0  0  0  0  0  0  0  0  0
   56.1342   30.3696   43.0841 H   0  0  0  0  0  0  0  0  0  0  0  0
   56.8220   27.9195   43.2650 H   0  0  0  0  0  0  0  0  0  0  0  0
   58.1427   29.1144   42.9945 H   0  0  0  0  0  0  0  0  0  0  0  0
  1  2  2  0
  2  3  1  0
  3  4  2  0
  4  5  1  0
  5  6  2  0
  6  7  1  0
  6  8  1  0
  8  9  2  0
  2 10  1  0
 10 11  1  0
 11 12  1  0
 12 13  1  0
 13 14  1  0
 14 15  1  0
 15 16  2  0
 16 17  1  0
 17 18  2  0
 18 19  1  0
 13 20  1  0
 20 21  1  0
  9  3  1  0
 21 10  1  0
 19 15  1  0
  4 22  1  0
  5 23  1  0
  8 24  1  0
  9 25  1  0
 11 26  1  0
 11 27  1  0
 12 28  1  0
 12 29  1  0
 14 30  1  0
 14 31  1  0
 16 32  1  0
 17 33  1  0
 18 34  1  0
 20 35  1  0
 20 36  1  0
 21 37  1  0
 21 38  1  0
M  END
>  <UniqueID>  (4) 
4

>  <SMILES>  (4) 
O=C(c1ccc(F)cc1)N1CCN(Cc2cccs2)CC1

>  <Energy>  (4) 
77.40697790048246

>  <Genealogy>  (4) 
O=C(c1ccc(F)cc1)N1CCN(Cc2cccs2)CC1 (3D coordinates assigned)
O=C(c1ccc(F)cc1)N1CCN(Cc2cccs2)CC1 (nonaromatic ring conformer: 77.40697790048246 kcal/mol)

>  <smiles>  (4) 
O=C(c1ccc(F)cc1)N1CCN(Cc2cccs2)CC1

>  <score_type>  (4) 
oracle

>  <origin>  (4) 
adg

>  <m_score__min__energy>  (4) 
-7.2599999999999998

>  <m_primary>  (4) 
energy

$$$$
4:0
     RDKit          3D

 41 42  0  0  0  0  0  0  0  0999 V2000
   59.4850   34.9010   46.6710 C   0  0  0  0  0  0  0  0  0  0  0  0
   58.3780   34.1570   45.9300 C   0  0  0  0  0  0  0  0  0  0  0  0
   58.8260   33.7610   44.5200 C   0  0  0  0  0  0  0  0  0  0  0  0
   58.0270   32.5990   44.0250 C   0  0  0  0  0  0  0  0  0  0  0  0
   57.1670   31.8210   44.7700 C   0  0  0  0  0  0  0  0  0  0  0  0
   56.7200   30.8820   43.8620 C   0  0  0  0  0  0  0  0  0  0  0  0
   55.7730   29.7940   44.1360 C   0  0  0  0  0  0  0  0  0  0  0  0
   54.7660   29.6420   43.3930 O   0  0  0  0  0  0  0  0  0  0  0  0
   55.9930   28.9170   45.2460 N   0  0  0  0  0  0  0  0  0  0  0  0
   56.8640   27.7490   45.1900 C   0  0  0  0  0  0  0  0  0  0  0  0
   57.5400   27.5230   46.5570 C   0  0  0  0  0  0  0  0  0  0  0  0
   58.8180   28.2480   46.7170 N   0  0  0  0  0  0  0  0  0  0  0  0
   58.8490   29.1810   47.8730 C   0  0  0  0  0  0  0  0  0  0  0  0
   59.0500   30.6440   47.4540 C   0  0  0  0  0  0  0  0  0  0  0  0
   60.3280   30.8180   46.6150 C   0  0  0  0  0  0  0  0  0  0  0  0
   60.6220   29.6080   45.7080 C   0  0  0  0  0  0  0  0  0  0  0  0
   59.3600   28.7810   45.4480 C   0  0  0  0  0  0  0  0  0  0  0  0
   57.2910   31.1000   42.6610 N   0  0  0  0  0  0  0  0  0  0  0  0
   58.0690   32.1340   42.7970 O   0  0  0  0  0  0  0  0  0  0  0  0
   59.3330   34.7988   47.7556 H   0  0  0  0  0  0  0  0  0  0  0  0
   60.4610   34.4748   46.3958 H   0  0  0  0  0  0  0  0  0  0  0  0
   59.4590   35.9657   46.3958 H   0  0  0  0  0  0  0  0  0  0  0  0
   58.1175   33.2482   46.4924 H   0  0  0  0  0  0  0  0  0  0  0  0
   57.5067   34.8230   45.8449 H   0  0  0  0  0  0  0  0  0  0  0  0
   58.6825   34.6146   43.8413 H   0  0  0  0  0  0  0  0  0  0  0  0
   59.8880   33.4759   44.5506 H   0  0  0  0  0  0  0  0  0  0  0  0
   56.9009   31.9236   45.8324 H   0  0  0  0  0  0  0  0  0  0  0  0
   56.2670   26.8627   44.9289 H   0  0  0  0  0  0  0  0  0  0  0  0
   57.6404   27.9164   44.4289 H   0  0  0  0  0  0  0  0  0  0  0  0
   56.8498   27.8585   47.3450 H   0  0  0  0  0  0  0  0  0  0  0  0
   57.7693   26.4495   46.6277 H   0  0  0  0  0  0  0  0  0  0  0  0
   57.8958   29.0991   48.4159 H   0  0  0  0  0  0  0  0  0  0  0  0
   59.7046   28.8974   48.5035 H   0  0  0  0  0  0  0  0  0  0  0  0
   58.1840   30.9677   46.8580 H   0  0  0  0  0  0  0  0  0  0  0  0
   59.1480   31.2541   48.3641 H   0  0  0  0  0  0  0  0  0  0  0  0
   60.2132   31.7106   45.9824 H   0  0  0  0  0  0  0  0  0  0  0  0
   61.1705   30.9166   47.3154 H   0  0  0  0  0  0  0  0  0  0  0  0
   61.0167   29.9694   44.7469 H   0  0  0  0  0  0  0  0  0  0  0  0
   61.3562   28.9660   46.2167 H   0  0  0  0  0  0  0  0  0  0  0  0
   58.6017   29.4187   44.9702 H   0  0  0  0  0  0  0  0  0  0  0  0
   59.6170   27.9381   44.7896 H   0  0  0  0  0  0  0  0  0  0  0  0
  1  2  1  0
  2  3  1  0
  3  4  1  0
  4  5  2  0
  5  6  1  0
  6  7  1  0
  7  8  2  0
  7  9  1  0
  9 10  1  0
 10 11  1  0
 11 12  1  0
 12 13  1  0
 13 14  1  0
 14 15  1  0
 15 16  1  0
 16 17  1  0
  6 18  2  0
 18 19  1  0
 19  4  1  0
 17 12  1  0
  1 20  1  0
  1 21  1  0
  1 22  1  0
  2 23  1  0
  2 24  1  0
  3 25  1  0
  3 26  1  0
  5 27  1  0
 10 28  1  0
 10 29  1  0
 11 30  1  0
 11 31  1  0
 13 32  1  0
 13 33  1  0
 14 34  1  0
 14 35  1  0
 15 36  1  0
 15 37  1  0
 16 38  1  0
 16 39  1  0
 17 40  1  0
 17 41  1  0
M  CHG  1   9  -1
M  END
>  <UniqueID>  (5) 
5

>  <SMILES>  (5) 
CCCc1cc(C(=O)[N-]CCN2CCCCC2)no1

>  <Energy>  (5) 
68.78325766437088

>  <Genealogy>  (5) 
CCCc1cc(C(=O)[N-]CCN2CCCCC2)no1 (protonated)
CCCc1cc(C(=O)[N-]CCN2CCCCC2)no1 (3D coordinates assigned)
CCCc1cc(C(=O)[N-]CCN2CCCCC2)no1 (nonaromatic ring conformer: 68.78325766437088 kcal/mol)

>  <smiles>  (5) 
CCCc1cc(C(=O)NCCN2CCCCC2)no1

>  <score_type>  (5) 
oracle

>  <origin>  (5) 
adg

>  <m_score__min__energy>  (5) 
-9.2699999999999996

>  <m_primary>  (5) 
energy

$$$$
5:0
     RDKit          3D

 42 44  0  0  0  0  0  0  0  0999 V2000
   64.7320   31.9970   49.9630 C   0  0  0  0  0  0  0  0  0  0  0  0
   64.2960   33.3760   49.6930 N   0  0  2  0  0  0  0  0  0  0  0  0
   63.4100   33.8970   50.7610 C   0  0  0  0  0  0  0  0  0  0  0  0
   61.9970   34.0840   50.1700 C   0  0  0  0  0  0  0  0  0  0  0  0
   62.1270   33.7670   48.7610 N   0  0  0  0  0  0  0  0  0  0  0  0
   61.0320   33.6880   47.8260 C   0  0  0  0  0  0  0  0  0  0  0  0
   59.8300   33.0580   48.1950 C   0  0  0  0  0  0  0  0  0  0  0  0
   58.7700   32.9660   47.2900 C   0  0  0  0  0  0  0  0  0  0  0  0
   58.8950   33.4920   45.9990 C   0  0  0  0  0  0  0  0  0  0  0  0
   57.5520   33.3520   44.8710 S   0  0  0  0  0  0  0  0  0  0  0  0
   58.0630   33.3190   43.4580 O   0  0  0  0  0  0  0  0  0  0  0  0
   56.6390   34.5350   45.0420 O   0  0  0  0  0  0  0  0  0  0  0  0
   56.7070   31.9030   45.2030 O   0  0  0  0  0  0  0  0  0  0  0  0
   56.9980   30.6570   44.6290 C   0  0  0  0  0  0  0  0  0  0  0  0
   56.4620   30.2420   43.3970 C   0  0  0  0  0  0  0  0  0  0  0  0
   56.7920   28.9890   42.8700 C   0  0  0  0  0  0  0  0  0  0  0  0
   57.6620   28.1280   43.5630 C   0  0  0  0  0  0  0  0  0  0  0  0
   58.0080   26.8410   43.0210 N   0  0  0  0  0  0  0  0  0  0  0  0
   58.5360   26.7450   41.8940 O   0  0  0  0  0  0  0  0  0  0  0  0
   57.7790   25.6930   43.7450 O   0  0  0  0  0  0  0  0  0  0  0  0
   58.1910   28.5480   44.7950 C   0  0  0  0  0  0  0  0  0  0  0  0
   57.8600   29.7990   45.3200 C   0  0  0  0  0  0  0  0  0  0  0  0
   60.0940   34.1100   45.6180 C   0  0  0  0  0  0  0  0  0  0  0  0
   61.1560   34.2040   46.5230 C   0  0  0  0  0  0  0  0  0  0  0  0
   63.4770   33.4120   48.5260 C   0  0  0  0  0  0  0  0  0  0  0  0
   63.9440   33.2160   47.3690 O   0  0  0  0  0  0  0  0  0  0  0  0
   64.7833   31.8348   51.0498 H   0  0  0  0  0  0  0  0  0  0  0  0
   64.0130   31.2918   49.5206 H   0  0  0  0  0  0  0  0  0  0  0  0
   65.7257   31.8334   49.5206 H   0  0  0  0  0  0  0  0  0  0  0  0
   65.1270   33.9990   49.5620 H   0  0  0  0  0  0  0  0  0  0  0  0
   63.3725   33.1811   51.5953 H   0  0  0  0  0  0  0  0  0  0  0  0
   63.7936   34.8569   51.1370 H   0  0  0  0  0  0  0  0  0  0  0  0
   61.2833   33.4014   50.6543 H   0  0  0  0  0  0  0  0  0  0  0  0
   61.6181   35.1046   50.3277 H   0  0  0  0  0  0  0  0  0  0  0  0
   59.7237   32.6342   49.2045 H   0  0  0  0  0  0  0  0  0  0  0  0
   57.8322   32.4777   47.5935 H   0  0  0  0  0  0  0  0  0  0  0  0
   55.7801   30.9057   42.8452 H   0  0  0  0  0  0  0  0  0  0  0  0
   56.3675   28.6743   41.9053 H   0  0  0  0  0  0  0  0  0  0  0  0
   58.8715   27.8860   45.3506 H   0  0  0  0  0  0  0  0  0  0  0  0
   58.2813   30.1128   46.2865 H   0  0  0  0  0  0  0  0  0  0  0  0
   60.2000   34.5224   44.6038 H   0  0  0  0  0  0  0  0  0  0  0  0
   62.0956   34.6851   46.2137 H   0  0  0  0  0  0  0  0  0  0  0  0
  1  2  1  0
  2  3  1  0
  3  4  1  0
  4  5  1  0
  5  6  1  0
  6  7  2  0
  7  8  1  0
  8  9  2  0
  9 10  1  0
 10 11  2  0
 10 12  2  0
 10 13  1  0
 13 14  1  0
 14 15  2  0
 15 16  1  0
 16 17  2  0
 17 18  1  0
 18 19  2  0
 18 20  1  0
 17 21  1  0
 21 22  2  0
  9 23  1  0
 23 24  2  0
  5 25  1  0
 25 26  2  0
 25  2  1  0
 24  6  1  0
 22 14  1  0
  1 27  1  0
  1 28  1  0
  1 29  1  0
  2 30  1  6
  3 31  1  0
  3 32  1  0
  4 33  1  0
  4 34  1  0
  7 35  1  0
  8 36  1  0
 15 37  1  0
 16 38  1  0
 21 39  1  0
 22 40  1  0
 23 41  1  0
 24 42  1  0
M  CHG  3   2   1  18   1  20  -1
M  END
>  <UniqueID>  (6) 
6

>  <SMILES>  (6) 
C[N@@H+]1CCN(c2ccc(S(=O)(=O)Oc3ccc([N+](=O)[O-])cc3)cc2)C1=O

>  <Energy>  (6) 
59.17955552805846

>  <Genealogy>  (6) 
C[NH+]1CCN(c2ccc(S(=O)(=O)Oc3ccc([N+](=O)[O-])cc3)cc2)C1=O (protonated)
C[N@@H+]1CCN(c2ccc(S(=O)(=O)Oc3ccc([N+](=O)[O-])cc3)cc2)C1=O (chirality)
C[N@@H+]1CCN(c2ccc(S(=O)(=O)Oc3ccc([N+](=O)[O-])cc3)cc2)C1=O (3D coordinates assigned)
C[N@@H+]1CCN(c2ccc(S(=O)(=O)Oc3ccc([N+](=O)[O-])cc3)cc2)C1=O (nonaromatic ring conformer: 59.17955552805846 kcal/mol)

>  <smiles>  (6) 
CN1CCN(c2ccc(S(=O)(=O)Oc3ccc([N+](=O)[O-])cc3)cc2)C1=O

>  <score_type>  (6) 
oracle

>  <origin>  (6) 
adg

>  <m_score__min__energy>  (6) 
-7.2000000000000002

>  <m_primary>  (6) 
energy

$$$$
6:0
     RDKit          3D

 43 45  0  0  0  0  0  0  0  0999 V2000
   57.3580   34.1930   44.9220 C   0  0  0  0  0  0  0  0  0  0  0  0
   57.9330   32.8250   45.1620 C   0  0  0  0  0  0  0  0  0  0  0  0
   57.4110   31.7230   44.4630 C   0  0  0  0  0  0  0  0  0  0  0  0
   57.9290   30.4430   44.6690 C   0  0  0  0  0  0  0  0  0  0  0  0
   58.9690   30.2460   45.5800 C   0  0  0  0  0  0  0  0  0  0  0  0
   59.6170   28.6370   45.8380 Cl  0  0  0  0  0  0  0  0  0  0  0  0
   59.4880   31.3300   46.2920 C   0  0  0  0  0  0  0  0  0  0  0  0
   58.9710   32.6220   46.0990 C   0  0  0  0  0  0  0  0  0  0  0  0
   59.5030   33.7170   46.8650 N   0  0  0  0  0  0  0  0  0  0  0  0
   58.9250   34.0440   48.1720 C   0  0  0  0  0  0  0  0  0  0  0  0
   60.0130   34.2990   49.2250 C   0  0  0  0  0  0  0  0  0  0  0  0
   61.0800   33.1940   49.2450 C   0  0  0  0  0  0  0  0  0  0  0  0
   62.0960   33.3670   48.1920 N   0  0  0  0  0  0  0  0  0  0  0  0
   61.9320   33.8540   46.9310 C   0  0  0  0  0  0  0  0  0  0  0  0
   63.0610   33.7590   46.2050 N   0  0  0  0  0  0  0  0  0  0  0  0
   63.9530   33.1760   46.9850 N   0  0  0  0  0  0  0  0  0  0  0  0
   63.3780   32.9150   48.1730 C   0  0  0  0  0  0  0  0  0  0  0  0
   64.1200   32.1950   49.2820 C   0  0  0  0  0  0  0  0  0  0  0  0
   63.2190   31.2550   50.0940 C   0  0  0  0  0  0  0  0  0  0  0  0
   64.9020   33.1660   50.1710 C   0  0  0  0  0  0  0  0  0  0  0  0
   60.6710   34.4480   46.3780 C   0  0  0  0  0  0  0  0  0  0  0  0
   57.1536   34.6793   45.8872 H   0  0  0  0  0  0  0  0  0  0  0  0
   58.0778   34.7984   44.3516 H   0  0  0  0  0  0  0  0  0  0  0  0
   56.4218   34.1024   44.3516 H   0  0  0  0  0  0  0  0  0  0  0  0
   56.5880   31.8702   43.7481 H   0  0  0  0  0  0  0  0  0  0  0  0
   57.5172   29.5881   44.1127 H   0  0  0  0  0  0  0  0  0  0  0  0
   60.3071   31.1709   47.0087 H   0  0  0  0  0  0  0  0  0  0  0  0
   58.3062   34.9480   48.0723 H   0  0  0  0  0  0  0  0  0  0  0  0
   58.3199   33.1875   48.5039 H   0  0  0  0  0  0  0  0  0  0  0  0
   60.5024   35.2585   49.0019 H   0  0  0  0  0  0  0  0  0  0  0  0
   59.5273   34.3138   50.2119 H   0  0  0  0  0  0  0  0  0  0  0  0
   61.5817   33.2066   50.2238 H   0  0  0  0  0  0  0  0  0  0  0  0
   60.5707   32.2363   49.0619 H   0  0  0  0  0  0  0  0  0  0  0  0
   64.9300   32.9490   46.6940 H   0  0  0  0  0  0  0  0  0  0  0  0
   64.8588   31.5468   48.7881 H   0  0  0  0  0  0  0  0  0  0  0  0
   63.3835   31.4266   51.1680 H   0  0  0  0  0  0  0  0  0  0  0  0
   62.1654   31.4538   49.8480 H   0  0  0  0  0  0  0  0  0  0  0  0
   63.4622   30.2108   49.8480 H   0  0  0  0  0  0  0  0  0  0  0  0
   64.7116   32.9296   51.2283 H   0  0  0  0  0  0  0  0  0  0  0  0
   65.9776   33.0696   49.9617 H   0  0  0  0  0  0  0  0  0  0  0  0
   64.5786   34.1963   49.9617 H   0  0  0  0  0  0  0  0  0  0  0  0
   60.5975   35.4991   46.6938 H   0  0  0  0  0  0  0  0  0  0  0  0
   60.6990   34.3822   45.2803 H   0  0  0  0  0  0  0  0  0  0  0  0
  1  2  1  0
  2  3  2  0
  3  4  1  0
  4  5  2  0
  5  6  1  0
  5  7  1  0
  7  8  2  0
  8  9  1  0
  9 10  1  0
 10 11  1  0
 11 12  1  0
 12 13  1  0
 13 14  1  0
 14 15  2  0
 15 16  1  0
 16 17  2  0
 17 18  1  0
 18 19  1  0
 18 20  1  0
 14 21  1  0
  8  2  1  0
 21  9  1  0
 17 13  1  0
  1 22  1  0
  1 23  1  0
  1 24  1  0
  3 25  1  0
  4 26  1  0
  7 27  1  0
 10 28  1  0
 10 29  1  0
 11 30  1  0
 11 31  1  0
 12 32  1  0
 12 33  1  0
 16 34  1  0
 18 35  1  0
 19 36  1  0
 19 37  1  0
 19 38  1  0
 20 39  1  0
 20 40  1  0
 20 41  1  0
 21 42  1  0
 21 43  1  0
M  CHG  1  16   1
M  END
>  <UniqueID>  (7) 
7

>  <SMILES>  (7) 
Cc1ccc(Cl)cc1N1CCCn2c(n[nH+]c2C(C)C)C1

>  <Energy>  (7) 
83.33701325656179

>  <Genealogy>  (7) 
Cc1ccc(Cl)cc1N1CCCn2c(n[nH+]c2C(C)C)C1 (protonated)
Cc1ccc(Cl)cc1N1CCCn2c(n[nH+]c2C(C)C)C1 (3D coordinates assigned)
Cc1ccc(Cl)cc1N1CCCn2c(n[nH+]c2C(C)C)C1 (nonaromatic ring conformer: 83.33701325656179 kcal/mol)

>  <smiles>  (7) 
Cc1ccc(Cl)cc1N1CCCn2c(nnc2C(C)C)C1

>  <score_type>  (7) 
oracle

>  <origin>  (7) 
adg

>  <m_score__min__energy>  (7) 
-5.2999999999999998

>  <m_primary>  (7) 
energy

$$$$
7:0
     RDKit          3D

 50 53  0  0  0  0  0  0  0  0999 V2000
   57.8000   21.4930   43.7930 C   0  0  0  0  0  0  0  0  0  0  0  0
   56.6740   21.8460   42.8260 C   0  0  0  0  0  0  0  0  0  0  0  0
   55.8350   22.8620   43.3770 O   0  0  0  0  0  0  0  0  0  0  0  0
   56.2790   24.0250   44.0280 C   0  0  0  0  0  0  0  0  0  0  0  0
   55.7480   24.4640   45.2560 C   0  0  0  0  0  0  0  0  0  0  0  0
   56.2300   25.6300   45.8570 C   0  0  0  0  0  0  0  0  0  0  0  0
   57.2530   26.3740   45.2490 C   0  0  0  0  0  0  0  0  0  0  0  0
   57.7330   27.5800   45.8660 N   0  0  0  0  0  0  0  0  0  0  0  0
   58.4800   27.6690   46.9950 C   0  0  0  0  0  0  0  0  0  0  0  0
   58.7720   28.9470   47.3460 N   0  0  0  0  0  0  0  0  0  0  0  0
   58.1800   29.6720   46.3790 C   0  0  0  0  0  0  0  0  0  0  0  0
   58.1920   31.0580   46.2360 C   0  0  0  0  0  0  0  0  0  0  0  0
   57.5420   31.6180   45.1090 C   0  0  0  0  0  0  0  0  0  0  0  0
   57.5130   33.0410   44.8830 N   0  0  0  0  0  0  0  0  0  0  0  0
   58.7040   33.8770   44.7170 C   0  0  0  0  0  0  0  0  0  0  0  0
   59.4850   33.9500   46.0030 C   0  0  0  0  0  0  0  0  0  0  0  0
   58.8390   34.2390   47.2150 C   0  0  0  0  0  0  0  0  0  0  0  0
   59.5710   34.3100   48.4050 C   0  0  0  0  0  0  0  0  0  0  0  0
   60.9560   34.0910   48.3980 C   0  0  0  0  0  0  0  0  0  0  0  0
   61.7460   34.2060   49.6690 C   0  0  0  0  0  0  0  0  0  0  0  0
   61.6070   33.8330   47.1830 C   0  0  0  0  0  0  0  0  0  0  0  0
   60.8770   33.7610   45.9930 C   0  0  0  0  0  0  0  0  0  0  0  0
   56.9090   30.7600   44.1740 C   0  0  0  0  0  0  0  0  0  0  0  0
   56.9200   29.3650   44.3490 C   0  0  0  0  0  0  0  0  0  0  0  0
   57.5550   28.8570   45.4830 C   0  0  0  0  0  0  0  0  0  0  0  0
   57.7680   25.9460   44.0150 C   0  0  0  0  0  0  0  0  0  0  0  0
   57.2860   24.7790   43.4140 C   0  0  0  0  0  0  0  0  0  0  0  0
   57.4434   21.6048   44.8276 H   0  0  0  0  0  0  0  0  0  0  0  0
   58.1156   20.4528   43.6243 H   0  0  0  0  0  0  0  0  0  0  0  0
   58.6529   22.1669   43.6243 H   0  0  0  0  0  0  0  0  0  0  0  0
   57.1085   22.2088   41.8828 H   0  0  0  0  0  0  0  0  0  0  0  0
   56.0677   20.9461   42.6457 H   0  0  0  0  0  0  0  0  0  0  0  0
   54.9497   23.8862   45.7448 H   0  0  0  0  0  0  0  0  0  0  0  0
   55.8044   25.9671   46.8137 H   0  0  0  0  0  0  0  0  0  0  0  0
   58.8156   26.7925   47.5688 H   0  0  0  0  0  0  0  0  0  0  0  0
   58.6920   31.6989   46.9771 H   0  0  0  0  0  0  0  0  0  0  0  0
   56.5840   33.5120   44.7890 H   0  0  0  0  0  0  0  0  0  0  0  0
   59.3415   33.4458   43.9311 H   0  0  0  0  0  0  0  0  0  0  0  0
   58.3877   34.8925   44.4365 H   0  0  0  0  0  0  0  0  0  0  0  0
   57.7525   34.4104   47.2293 H   0  0  0  0  0  0  0  0  0  0  0  0
   59.0577   34.5387   49.3506 H   0  0  0  0  0  0  0  0  0  0  0  0
   61.0699   34.1076   50.5311 H   0  0  0  0  0  0  0  0  0  0  0  0
   62.5029   33.4086   49.7037 H   0  0  0  0  0  0  0  0  0  0  0  0
   62.2441   35.1861   49.7037 H   0  0  0  0  0  0  0  0  0  0  0  0
   62.6971   33.6866   47.1663 H   0  0  0  0  0  0  0  0  0  0  0  0
   61.3949   33.5554   45.0445 H   0  0  0  0  0  0  0  0  0  0  0  0
   56.4019   31.1923   43.2988 H   0  0  0  0  0  0  0  0  0  0  0  0
   56.4440   28.6965   43.6166 H   0  0  0  0  0  0  0  0  0  0  0  0
   58.5552   26.5320   43.5181 H   0  0  0  0  0  0  0  0  0  0  0  0
   57.7019   24.4505   42.4501 H   0  0  0  0  0  0  0  0  0  0  0  0
  1  2  1  0
  2  3  1  0
  3  4  1  0
  4  5  2  0
  5  6  1  0
  6  7  2  0
  7  8  1  0
  8  9  1  0
  9 10  2  0
 10 11  1  0
 11 12  2  0
 12 13  1  0
 13 14  1  0
 14 15  1  0
 15 16  1  0
 16 17  2  0
 17 18  1  0
 18 19  2  0
 19 20  1  0
 19 21  1  0
 21 22  2  0
 13 23  2  0
 23 24  1  0
 24 25  2  0
  7 26  1  0
 26 27  2  0
 27  4  1  0
 25  8  1  0
 25 11  1  0
 22 16  1  0
  1 28  1  0
  1 29  1  0
  1 30  1  0
  2 31  1  0
  2 32  1  0
  5 33  1  0
  6 34  1  0
  9 35  1  0
 12 36  1  0
 14 37  1  0
 15 38  1  0
 15 39  1  0
 17 40  1  0
 18 41  1  0
 20 42  1  0
 20 43  1  0
 20 44  1  0
 21 45  1  0
 22 46  1  0
 23 47  1  0
 24 48  1  0
 26 49  1  0
 27 50  1  0
M  END
>  <UniqueID>  (8) 
8

>  <SMILES>  (8) 
CCOc1ccc(-n2cnc3cc(NCc4ccc(C)cc4)ccc32)cc1

>  <Energy>  (8) 
93.1267283643464

>  <Genealogy>  (8) 
CCOc1ccc(-n2cnc3cc(NCc4ccc(C)cc4)ccc32)cc1 (3D coordinates assigned)
CCOc1ccc(-n2cnc3cc(NCc4ccc(C)cc4)ccc32)cc1 (optimized conformer: 93.1267283643464 kcal/mol)

>  <smiles>  (8) 
CCOc1ccc(-n2cnc3cc(NCc4ccc(C)cc4)ccc32)cc1

>  <score_type>  (8) 
oracle

>  <origin>  (8) 
adg

>  <m_score__min__energy>  (8) 
-8.2899999999999991

>  <m_primary>  (8) 
energy

$$$$
8:0
     RDKit          3D

 25 27  0  0  0  0  0  0  0  0999 V2000
   59.9830   36.1480   46.4080 F   0  0  0  0  0  0  0  0  0  0  0  0
   59.3430   34.9840   46.1350 C   0  0  0  0  0  0  0  0  0  0  0  0
   59.2040   34.5560   44.8110 C   0  0  0  0  0  0  0  0  0  0  0  0
   58.5440   33.3560   44.5290 C   0  0  0  0  0  0  0  0  0  0  0  0
   58.0310   32.5680   45.5710 C   0  0  0  0  0  0  0  0  0  0  0  0
   57.3280   31.3530   45.2680 N   0  0  0  0  0  0  0  0  0  0  0  0
   56.2640   31.2950   44.4870 N   0  0  0  0  0  0  0  0  0  0  0  0
   55.8070   30.0520   44.4780 N   0  0  0  0  0  0  0  0  0  0  0  0
   56.5660   29.2840   45.2470 N   0  0  0  0  0  0  0  0  0  0  0  0
   57.5160   30.1020   45.7410 C   0  0  0  0  0  0  0  0  0  0  0  0
   58.6480   29.6330   46.5670 C   0  0  0  0  0  0  0  0  0  0  0  0
   59.9380   30.1500   46.3740 C   0  0  0  0  0  0  0  0  0  0  0  0
   60.9590   29.7220   47.1640 N   0  0  0  0  0  0  0  0  0  0  0  0
   60.7520   28.8060   48.1460 C   0  0  0  0  0  0  0  0  0  0  0  0
   59.4690   28.2980   48.3510 C   0  0  0  0  0  0  0  0  0  0  0  0
   58.4480   28.7260   47.5620 N   0  0  0  0  0  0  0  0  0  0  0  0
   58.1520   33.0180   46.8960 C   0  0  0  0  0  0  0  0  0  0  0  0
   58.8140   34.2170   47.1760 C   0  0  0  0  0  0  0  0  0  0  0  0
   59.6141   35.1637   43.9909 H   0  0  0  0  0  0  0  0  0  0  0  0
   58.4263   33.0280   43.4856 H   0  0  0  0  0  0  0  0  0  0  0  0
   60.1225   30.8973   45.5882 H   0  0  0  0  0  0  0  0  0  0  0  0
   61.5892   28.4678   48.7742 H   0  0  0  0  0  0  0  0  0  0  0  0
   59.2852   27.5579   49.1438 H   0  0  0  0  0  0  0  0  0  0  0  0
   57.7239   32.4243   47.7171 H   0  0  0  0  0  0  0  0  0  0  0  0
   58.9185   34.5569   48.2169 H   0  0  0  0  0  0  0  0  0  0  0  0
  1  2  1  0
  2  3  2  0
  3  4  1  0
  4  5  2  0
  5  6  1  0
  6  7  1  0
  7  8  2  0
  8  9  1  0
  9 10  2  0
 10 11  1  0
 11 12  2  0
 12 13  1  0
 13 14  2  0
 14 15  1  0
 15 16  2  0
  5 17  1  0
 17 18  2  0
 18  2  1  0
 10  6  1  0
 16 11  1  0
  3 19  1  0
  4 20  1  0
 12 21  1  0
 14 22  1  0
 15 23  1  0
 17 24  1  0
 18 25  1  0
M  END
>  <UniqueID>  (9) 
9

>  <SMILES>  (9) 
Fc1ccc(-n2nnnc2-c2cnccn2)cc1

>  <Energy>  (9) 
77.1525176420476

>  <Genealogy>  (9) 
Fc1ccc(-n2nnnc2-c2cnccn2)cc1 (3D coordinates assigned)
Fc1ccc(-n2nnnc2-c2cnccn2)cc1 (optimized conformer: 77.1525176420476 kcal/mol)

>  <smiles>  (9) 
Fc1ccc(-n2nnnc2-c2cnccn2)cc1

>  <score_type>  (9) 
oracle

>  <origin>  (9) 
adg

>  <m_score__min__energy>  (9) 
-6.7300000000000004

>  <m_primary>  (9) 
energy

$$$$
9:0
     RDKit          3D

 30 32  0  0  0  0  0  0  0  0999 V2000
   55.1170   26.2960   46.0090 O   0  0  0  0  0  0  0  0  0  0  0  0
   56.3630   26.4880   45.9920 C   0  0  0  0  0  0  0  0  0  0  0  0
   57.2660   25.4010   46.2180 N   0  0  0  0  0  0  0  0  0  0  0  0
   56.8340   24.0430   46.5290 C   0  0  0  0  0  0  0  0  0  0  0  0
   57.0360   23.1450   45.3390 C   0  0  0  0  0  0  0  0  0  0  0  0
   56.4650   23.4550   44.0970 C   0  0  0  0  0  0  0  0  0  0  0  0
   56.6480   22.5970   43.0120 C   0  0  0  0  0  0  0  0  0  0  0  0
   57.3970   21.4310   43.1810 C   0  0  0  0  0  0  0  0  0  0  0  0
   57.9420   21.1370   44.3920 N   0  0  0  0  0  0  0  0  0  0  0  0
   57.7770   21.9600   45.4640 C   0  0  0  0  0  0  0  0  0  0  0  0
   56.8930   27.8300   45.7390 C   0  0  0  0  0  0  0  0  0  0  0  0
   56.3040   28.7130   44.8950 N   0  0  0  0  0  0  0  0  0  0  0  0
   57.0000   29.8770   44.8440 C   0  0  0  0  0  0  0  0  0  0  0  0
   56.6420   30.9780   44.0630 C   0  0  0  0  0  0  0  0  0  0  0  0
   57.4530   32.1250   44.1020 C   0  0  0  0  0  0  0  0  0  0  0  0
   58.6040   32.1590   44.9140 C   0  0  0  0  0  0  0  0  0  0  0  0
   58.9550   31.0470   45.6950 C   0  0  0  0  0  0  0  0  0  0  0  0
   58.1340   29.9230   45.6390 C   0  0  0  0  0  0  0  0  0  0  0  0
   58.2970   28.4630   46.4500 S   0  0  0  0  0  0  0  0  0  0  0  0
   57.4220   23.6603   47.3763 H   0  0  0  0  0  0  0  0  0  0  0  0
   55.7651   24.0583   46.7882 H   0  0  0  0  0  0  0  0  0  0  0  0
   55.8729   24.3743   43.9777 H   0  0  0  0  0  0  0  0  0  0  0  0
   56.2066   22.8369   42.0334 H   0  0  0  0  0  0  0  0  0  0  0  0
   57.5469   20.7478   42.3320 H   0  0  0  0  0  0  0  0  0  0  0  0
   58.4980   20.2590   44.5040 H   0  0  0  0  0  0  0  0  0  0  0  0
   58.2265   21.6948   46.4323 H   0  0  0  0  0  0  0  0  0  0  0  0
   55.7430   30.9480   43.4298 H   0  0  0  0  0  0  0  0  0  0  0  0
   57.1873   33.0025   43.4943 H   0  0  0  0  0  0  0  0  0  0  0  0
   59.2312   33.0624   44.9359 H   0  0  0  0  0  0  0  0  0  0  0  0
   59.8515   31.0625   46.3322 H   0  0  0  0  0  0  0  0  0  0  0  0
  1  2  2  0
  2  3  1  0
  3  4  1  0
  4  5  1  0
  5  6  2  0
  6  7  1  0
  7  8  2  0
  8  9  1  0
  9 10  2  0
  2 11  1  0
 11 12  2  0
 12 13  1  0
 13 14  2  0
 14 15  1  0
 15 16  2  0
 16 17  1  0
 17 18  2  0
 18 19  1  0
 10  5  1  0
 19 11  1  0
 18 13  1  0
  4 20  1  0
  4 21  1  0
  6 22  1  0
  7 23  1  0
  8 24  1  0
  9 25  1  0
 10 26  1  0
 14 27  1  0
 15 28  1  0
 16 29  1  0
 17 30  1  0
M  CHG  2   3  -1   9   1
M  END
>  <UniqueID>  (10) 
10

>  <SMILES>  (10) 
O=C([N-]Cc1ccc[nH+]c1)c1nc2ccccc2s1

>  <Energy>  (10) 
63.43895072908428

>  <Genealogy>  (10) 
O=C([N-]Cc1ccc[nH+]c1)c1nc2ccccc2s1 (protonated)
O=C([N-]Cc1ccc[nH+]c1)c1nc2ccccc2s1 (3D coordinates assigned)
O=C([N-]Cc1ccc[nH+]c1)c1nc2ccccc2s1 (optimized conformer: 63.43895072908428 kcal/mol)

>  <smiles>  (10) 
O=C(NCc1cccnc1)c1nc2ccccc2s1

>  <score_type>  (10) 
oracle

>  <origin>  (10) 
adg

>  <m_score__min__energy>  (10) 
-8.0800000000000001

>  <m_primary>  (10) 
energy

$$$$
10:0
     RDKit          3D

 48 52  0  0  0  0  0  0  0  0999 V2000
   56.4783   27.2661   44.3361 H   0  0  0  0  0  0  0  0  0  0  0  0
   56.9740   28.0700   44.9000 C   0  0  0  0  0  0  0  0  0  0  0  0
   56.7350   29.3700   44.5840 N   0  0  0  0  0  0  0  0  0  0  0  0
   57.3310   30.3860   45.2620 C   0  0  0  0  0  0  0  0  0  0  0  0
   57.0950   31.6120   44.9010 N   0  0  0  0  0  0  0  0  0  0  0  0
   57.7950   32.7810   45.3510 C   0  0  0  0  0  0  0  0  0  0  0  0
   57.8040   33.1590   46.7060 C   0  0  0  0  0  0  0  0  0  0  0  0
   57.2475   32.5636   47.4448 H   0  0  0  0  0  0  0  0  0  0  0  0
   58.5180   34.2890   47.1170 C   0  0  0  0  0  0  0  0  0  0  0  0
   58.5105   34.5892   48.1752 H   0  0  0  0  0  0  0  0  0  0  0  0
   59.2410   35.0370   46.1840 C   0  0  0  0  0  0  0  0  0  0  0  0
   59.7937   35.9319   46.5060 H   0  0  0  0  0  0  0  0  0  0  0  0
   59.2620   34.6480   44.8410 C   0  0  0  0  0  0  0  0  0  0  0  0
   59.8384   35.2323   44.1087 H   0  0  0  0  0  0  0  0  0  0  0  0
   58.5510   33.5170   44.4280 C   0  0  0  0  0  0  0  0  0  0  0  0
   58.5850   33.2034   43.3742 H   0  0  0  0  0  0  0  0  0  0  0  0
   58.1490   30.1030   46.3170 N   0  0  0  0  0  0  0  0  0  0  0  0
   58.3980   28.8190   46.6820 C   0  0  0  0  0  0  0  0  0  0  0  0
   57.8500   27.7560   45.9420 C   0  0  0  0  0  0  0  0  0  0  0  0
   58.1240   26.3110   46.3340 C   0  0  0  0  0  0  0  0  0  0  0  0
   57.3661   25.9962   47.0665 H   0  0  0  0  0  0  0  0  0  0  0  0
   58.0820   25.7062   45.4162 H   0  0  0  0  0  0  0  0  0  0  0  0
   59.5270   26.1120   46.9580 C   0  0  0  0  0  0  0  0  0  0  0  0
   59.5504   25.1548   47.4994 H   0  0  0  0  0  0  0  0  0  0  0  0
   60.2779   26.1102   46.1542 H   0  0  0  0  0  0  0  0  0  0  0  0
   59.8380   27.2260   47.9110 C   0  0  0  0  0  0  0  0  0  0  0  0
   60.6970   27.1810   48.9440 N   0  0  0  0  0  0  0  0  0  0  0  0
   60.7060   28.3900   49.4920 N   0  0  0  0  0  0  0  0  0  0  0  0
   61.5230   28.7280   50.6520 C   0  0  0  0  0  0  0  0  0  0  0  0
   60.9662   28.4977   51.5723 H   0  0  0  0  0  0  0  0  0  0  0  0
   62.4528   28.1407   50.6293 H   0  0  0  0  0  0  0  0  0  0  0  0
   61.7661   29.8006   50.6293 H   0  0  0  0  0  0  0  0  0  0  0  0
   59.8600   29.2140   48.8220 C   0  0  0  0  0  0  0  0  0  0  0  0
   59.5180   30.6260   49.2320 C   0  0  0  0  0  0  0  0  0  0  0  0
   58.5165   30.8694   48.8477 H   0  0  0  0  0  0  0  0  0  0  0  0
   59.5587   30.6679   50.3304 H   0  0  0  0  0  0  0  0  0  0  0  0
   60.5010   31.6530   48.7030 C   0  0  0  0  0  0  0  0  0  0  0  0
   61.3920   31.2680   47.6850 C   0  0  0  0  0  0  0  0  0  0  0  0
   61.3681   30.2359   47.3052 H   0  0  0  0  0  0  0  0  0  0  0  0
   62.3060   32.1770   47.1500 C   0  0  0  0  0  0  0  0  0  0  0  0
   62.9754   31.8675   46.3339 H   0  0  0  0  0  0  0  0  0  0  0  0
   62.3710   33.4760   47.6490 C   0  0  0  0  0  0  0  0  0  0  0  0
   63.0798   34.1968   47.2154 H   0  0  0  0  0  0  0  0  0  0  0  0
   61.5370   33.8630   48.6990 C   0  0  0  0  0  0  0  0  0  0  0  0
   61.6044   34.8841   49.1024 H   0  0  0  0  0  0  0  0  0  0  0  0
   60.6140   32.9590   49.2430 C   0  0  0  0  0  0  0  0  0  0  0  0
   59.6620   33.5040   50.6190 Cl  0  0  0  0  0  0  0  0  0  0  0  0
   59.3230   28.4880   47.7720 C   0  0  0  0  0  0  0  0  0  0  0  0
  1  2  1  0
  2  3  1  0
  3  4  1  0
  4  5  2  0
  5  6  1  0
  6  7  2  0
  7  8  1  0
  7  9  1  0
  9 10  1  0
  9 11  2  0
 11 12  1  0
 11 13  1  0
 13 14  1  0
 13 15  2  0
 15 16  1  0
  4 17  1  0
 17 18  2  0
 18 19  1  0
 19 20  1  0
 20 21  1  0
 20 22  1  0
 20 23  1  0
 23 24  1  0
 23 25  1  0
 23 26  1  0
 26 27  2  0
 27 28  1  0
 28 29  1  0
 29 30  1  0
 29 31  1  0
 29 32  1  0
 28 33  1  0
 33 34  1  0
 34 35  1  0
 34 36  1  0
 34 37  1  0
 37 38  2  0
 38 39  1  0
 38 40  1  0
 40 41  1  0
 40 42  2  0
 42 43  1  0
 42 44  1  0
 44 45  1  0
 44 46  2  0
 46 47  1  0
 33 48  2  0
 19  2  2  0
 48 26  1  0
 15  6  1  0
 48 18  1  0
 46 37  1  0
M  CHG  1   3  -1
M  END
>  <UniqueID>  (11) 
11

>  <SMILES>  (11) 
Cn1nc2c(c1Cc1ccccc1Cl)-c1n/c(=N\c3ccccc3)[n-]cc1CC2

>  <Energy>  (11) 
96.25167014334089

>  <Genealogy>  (11) 
Cn1nc2c(c1Cc1ccccc1Cl)-c1nc(=Nc3ccccc3)[n-]cc1CC2 (protonated)
Cn1nc2c(c1Cc1ccccc1Cl)-c1n/c(=N\c3ccccc3)[n-]cc1CC2 (cis-trans isomerization)
Cn1nc2c(c1Cc1ccccc1Cl)-c1n/c(=N\c3ccccc3)[n-]cc1CC2 (3D coordinates assigned)
Cn1nc2c(c1Cc1ccccc1Cl)-c1n/c(=N\c3ccccc3)[n-]cc1CC2 (nonaromatic ring conformer: 96.25167014334089 kcal/mol)

>  <smiles>  (11) 
Cn1nc2c(c1Cc1ccccc1Cl)-c1nc(=Nc3ccccc3)[nH]cc1CC2

>  <score_type>  (11) 
oracle

>  <origin>  (11) 
adg

>  <m_score__min__energy>  (11) 
-10.51

>  <m_primary>  (11) 
energy

$$$$
11:0
     RDKit          3D

 43 45  0  0  0  0  0  0  0  0999 V2000
   58.1590   29.1710   44.4060 C   0  0  0  0  0  0  0  0  0  0  0  0
   56.5380   29.8340   44.0880 S   0  0  0  0  0  0  0  0  0  0  0  0
   55.5180   29.0800   44.8960 O   0  0  0  0  0  0  0  0  0  0  0  0
   56.2270   29.6700   42.6270 O   0  0  0  0  0  0  0  0  0  0  0  0
   56.4980   31.5250   44.4900 N   0  0  0  0  0  0  0  0  0  0  0  0
   57.5580   32.2390   43.7730 C   0  0  0  0  0  0  0  0  0  0  0  0
   58.3330   33.1560   44.7320 C   0  0  0  0  0  0  0  0  0  0  0  0
   57.9040   32.9830   46.1420 N   0  0  0  0  0  0  0  0  0  0  0  0
   58.2920   34.1400   46.9730 C   0  0  0  0  0  0  0  0  0  0  0  0
   59.7630   34.1530   47.2950 C   0  0  0  0  0  0  0  0  0  0  0  0
   60.5010   33.0310   47.3170 C   0  0  0  0  0  0  0  0  0  0  0  0
   61.9380   33.0930   47.6660 C   0  0  0  0  0  0  0  0  0  0  0  0
   63.0040   33.0310   46.7720 C   0  0  0  0  0  0  0  0  0  0  0  0
   64.1820   33.1250   47.4280 N   0  0  0  0  0  0  0  0  0  0  0  0
   63.8740   33.2610   48.7280 C   0  0  0  0  0  0  0  0  0  0  0  0
   64.7630   33.4270   49.7900 C   0  0  0  0  0  0  0  0  0  0  0  0
   64.2270   33.5970   51.0780 C   0  0  0  0  0  0  0  0  0  0  0  0
   62.8290   33.6090   51.2730 C   0  0  0  0  0  0  0  0  0  0  0  0
   61.9540   33.4430   50.1840 C   0  0  0  0  0  0  0  0  0  0  0  0
   62.5150   33.2520   48.9180 C   0  0  0  0  0  0  0  0  0  0  0  0
   59.9120   31.6980   46.9170 C   0  0  0  0  0  0  0  0  0  0  0  0
   58.3820   31.7350   46.7740 C   0  0  0  0  0  0  0  0  0  0  0  0
   58.3214   29.1046   45.4919 H   0  0  0  0  0  0  0  0  0  0  0  0
   58.2387   28.1681   43.9613 H   0  0  0  0  0  0  0  0  0  0  0  0
   58.9187   29.8307   43.9613 H   0  0  0  0  0  0  0  0  0  0  0  0
   56.6920   31.5980   45.5160 H   0  0  0  0  0  0  0  0  0  0  0  0
   58.2515   31.5085   43.3310 H   0  0  0  0  0  0  0  0  0  0  0  0
   57.1015   32.8542   42.9836 H   0  0  0  0  0  0  0  0  0  0  0  0
   59.4052   32.9222   44.6567 H   0  0  0  0  0  0  0  0  0  0  0  0
   58.1291   34.1974   44.4422 H   0  0  0  0  0  0  0  0  0  0  0  0
   58.0418   35.0635   46.4303 H   0  0  0  0  0  0  0  0  0  0  0  0
   57.7430   34.0672   47.9234 H   0  0  0  0  0  0  0  0  0  0  0  0
   60.2494   35.1137   47.5197 H   0  0  0  0  0  0  0  0  0  0  0  0
   62.9014   32.9207   45.6824 H   0  0  0  0  0  0  0  0  0  0  0  0
   65.1360   33.1080   47.0040 H   0  0  0  0  0  0  0  0  0  0  0  0
   65.8505   33.4249   49.6244 H   0  0  0  0  0  0  0  0  0  0  0  0
   64.9005   33.7214   51.9388 H   0  0  0  0  0  0  0  0  0  0  0  0
   62.4205   33.7493   52.2846 H   0  0  0  0  0  0  0  0  0  0  0  0
   60.8632   33.4629   50.3243 H   0  0  0  0  0  0  0  0  0  0  0  0
   60.3469   31.3982   45.9521 H   0  0  0  0  0  0  0  0  0  0  0  0
   60.1501   30.9805   47.7160 H   0  0  0  0  0  0  0  0  0  0  0  0
   58.0644   30.8822   46.1560 H   0  0  0  0  0  0  0  0  0  0  0  0
   57.9499   31.6844   47.7843 H   0  0  0  0  0  0  0  0  0  0  0  0
  1  2  1  0
  2  3  2  0
  2  4  2  0
  2  5  1  0
  5  6  1  0
  6  7  1  0
  7  8  1  0
  8  9  1  0
  9 10  1  0
 10 11  2  0
 11 12  1  0
 12 13  2  0
 13 14  1  0
 14 15  1  0
 15 16  2  0
 16 17  1  0
 17 18  2  0
 18 19  1  0
 19 20  2  0
 11 21  1  0
 21 22  1  0
 22  8  1  0
 20 12  1  0
 20 15  1  0
  1 23  1  0
  1 24  1  0
  1 25  1  0
  5 26  1  0
  6 27  1  0
  6 28  1  0
  7 29  1  0
  7 30  1  0
  9 31  1  0
  9 32  1  0
 10 33  1  0
 13 34  1  0
 14 35  1  0
 16 36  1  0
 17 37  1  0
 18 38  1  0
 19 39  1  0
 21 40  1  0
 21 41  1  0
 22 42  1  0
 22 43  1  0
M  END
>  <UniqueID>  (12) 
12

>  <SMILES>  (12) 
CS(=O)(=O)NCCN1CC=C(c2c[nH]c3ccccc23)CC1

>  <Energy>  (12) 
79.54698493111715

>  <Genealogy>  (12) 
CS(=O)(=O)NCCN1CC=C(c2c[nH]c3ccccc23)CC1 (3D coordinates assigned)
CS(=O)(=O)NCCN1CC=C(c2c[nH]c3ccccc23)CC1 (nonaromatic ring conformer: 79.54698493111715 kcal/mol)

>  <smiles>  (12) 
CS(=O)(=O)NCCN1CC=C(c2c[nH]c3ccccc23)CC1

>  <score_type>  (12) 
oracle

>  <origin>  (12) 
adg

>  <m_score__min__energy>  (12) 
-8.9800000000000004

>  <m_primary>  (12) 
energy

$$$$
12:0
     RDKit          3D

 50 53  0  0  0  0  0  0  0  0999 V2000
   59.9540   28.9860   45.8300 C   0  0  0  0  0  0  0  0  0  0  0  0
   59.0860   28.1550   44.8850 C   0  0  0  0  0  0  0  0  0  0  0  0
   57.6890   28.0900   45.3450 N   0  0  0  0  0  0  0  0  0  0  0  0
   57.3190   27.1390   46.3990 C   0  0  0  0  0  0  0  0  0  0  0  0
   56.7400   29.1130   44.9760 C   0  0  0  0  0  0  0  0  0  0  0  0
   55.5160   28.9480   45.2340 O   0  0  0  0  0  0  0  0  0  0  0  0
   57.1580   30.3620   44.3050 C   0  0  0  0  0  0  0  0  0  0  0  0
   57.0360   30.5010   42.9150 C   0  0  0  0  0  0  0  0  0  0  0  0
   57.4370   31.6810   42.2860 C   0  0  0  0  0  0  0  0  0  0  0  0
   57.9460   32.7410   43.0400 C   0  0  0  0  0  0  0  0  0  0  0  0
   58.0430   32.6360   44.4380 C   0  0  0  0  0  0  0  0  0  0  0  0
   58.5810   33.7570   45.2430 C   0  0  0  0  0  0  0  0  0  0  0  0
   58.3110   34.9440   44.9090 O   0  0  0  0  0  0  0  0  0  0  0  0
   59.3880   33.5200   46.4100 N   0  0  0  0  0  0  0  0  0  0  0  0
   58.8960   33.9490   47.7360 C   0  0  0  0  0  0  0  0  0  0  0  0
   60.0450   34.4960   48.6020 C   0  0  0  0  0  0  0  0  0  0  0  0
   61.2400   33.6060   48.4830 C   0  0  0  0  0  0  0  0  0  0  0  0
   61.4600   32.7410   47.4270 C   0  0  0  0  0  0  0  0  0  0  0  0
   62.6590   32.1260   47.5390 N   0  0  0  0  0  0  0  0  0  0  0  0
   63.2110   32.6290   48.6600 C   0  0  0  0  0  0  0  0  0  0  0  0
   64.4650   32.3320   49.1910 C   0  0  0  0  0  0  0  0  0  0  0  0
   64.8570   32.9980   50.3670 C   0  0  0  0  0  0  0  0  0  0  0  0
   63.9980   33.9420   50.9780 C   0  0  0  0  0  0  0  0  0  0  0  0
   62.7380   34.2260   50.4190 C   0  0  0  0  0  0  0  0  0  0  0  0
   62.3760   33.5440   49.2590 C   0  0  0  0  0  0  0  0  0  0  0  0
   60.4630   32.5150   46.3340 C   0  0  0  0  0  0  0  0  0  0  0  0
   57.6500   31.4390   45.0630 C   0  0  0  0  0  0  0  0  0  0  0  0
   59.6991   28.7420   46.8719 H   0  0  0  0  0  0  0  0  0  0  0  0
   61.0148   28.7582   45.6491 H   0  0  0  0  0  0  0  0  0  0  0  0
   59.7726   30.0557   45.6491 H   0  0  0  0  0  0  0  0  0  0  0  0
   59.1110   28.6110   43.8843 H   0  0  0  0  0  0  0  0  0  0  0  0
   59.4875   27.1311   44.8616 H   0  0  0  0  0  0  0  0  0  0  0  0
   57.4967   27.5957   47.3838 H   0  0  0  0  0  0  0  0  0  0  0  0
   56.2544   26.8798   46.3017 H   0  0  0  0  0  0  0  0  0  0  0  0
   57.9285   26.2285   46.3017 H   0  0  0  0  0  0  0  0  0  0  0  0
   56.6221   29.6758   42.3170 H   0  0  0  0  0  0  0  0  0  0  0  0
   57.3519   31.7763   41.1934 H   0  0  0  0  0  0  0  0  0  0  0  0
   58.2727   33.6630   42.5367 H   0  0  0  0  0  0  0  0  0  0  0  0
   58.1407   34.7373   47.6013 H   0  0  0  0  0  0  0  0  0  0  0  0
   58.4583   33.0778   48.2453 H   0  0  0  0  0  0  0  0  0  0  0  0
   60.3086   35.5081   48.2612 H   0  0  0  0  0  0  0  0  0  0  0  0
   59.7219   34.5299   49.6529 H   0  0  0  0  0  0  0  0  0  0  0  0
   63.0740   31.4240   46.8860 H   0  0  0  0  0  0  0  0  0  0  0  0
   65.1275   31.5999   48.7060 H   0  0  0  0  0  0  0  0  0  0  0  0
   65.8386   32.7832   50.8147 H   0  0  0  0  0  0  0  0  0  0  0  0
   64.3172   34.4573   51.8960 H   0  0  0  0  0  0  0  0  0  0  0  0
   62.0626   34.9607   50.8816 H   0  0  0  0  0  0  0  0  0  0  0  0
   60.9674   32.5954   45.3598 H   0  0  0  0  0  0  0  0  0  0  0  0
   60.0257   31.5122   46.4488 H   0  0  0  0  0  0  0  0  0  0  0  0
   57.7284   31.3445   46.1561 H   0  0  0  0  0  0  0  0  0  0  0  0
  1  2  1  0
  2  3  1  0
  3  4  1  0
  3  5  1  0
  5  6  2  0
  5  7  1  0
  7  8  2  0
  8  9  1  0
  9 10  2  0
 10 11  1  0
 11 12  1  0
 12 13  2  0
 12 14  1  0
 14 15  1  0
 15 16  1  0
 16 17  1  0
 17 18  2  0
 18 19  1  0
 19 20  1  0
 20 21  2  0
 21 22  1  0
 22 23  2  0
 23 24  1  0
 24 25  2  0
 18 26  1  0
 11 27  2  0
 27  7  1  0
 26 14  1  0
 25 17  1  0
 25 20  1  0
  1 28  1  0
  1 29  1  0
  1 30  1  0
  2 31  1  0
  2 32  1  0
  4 33  1  0
  4 34  1  0
  4 35  1  0
  8 36  1  0
  9 37  1  0
 10 38  1  0
 15 39  1  0
 15 40  1  0
 16 41  1  0
 16 42  1  0
 19 43  1  0
 21 44  1  0
 22 45  1  0
 23 46  1  0
 24 47  1  0
 26 48  1  0
 26 49  1  0
 27 50  1  0
M  END
>  <UniqueID>  (13) 
13

>  <SMILES>  (13) 
CCN(C)C(=O)c1cccc(C(=O)N2CCc3c([nH]c4ccccc34)C2)c1

>  <Energy>  (13) 
95.36334107362347

>  <Genealogy>  (13) 
CCN(C)C(=O)c1cccc(C(=O)N2CCc3c([nH]c4ccccc34)C2)c1 (3D coordinates assigned)
CCN(C)C(=O)c1cccc(C(=O)N2CCc3c([nH]c4ccccc34)C2)c1 (nonaromatic ring conformer: 95.36334107362347 kcal/mol)

>  <smiles>  (13) 
CCN(C)C(=O)c1cccc(C(=O)N2CCc3c([nH]c4ccccc34)C2)c1

>  <score_type>  (13) 
oracle

>  <origin>  (13) 
adg

>  <m_score__min__energy>  (13) 
-9.0899999999999999

>  <m_primary>  (13) 
energy

$$$$
13:0
     RDKit          3D

 32 33  0  0  0  0  0  0  0  0999 V2000
   60.5420   30.2930   47.5150 C   0  0  0  0  0  0  0  0  0  0  0  0
   61.2170   31.5750   47.2200 C   0  0  0  0  0  0  0  0  0  0  0  0
   62.6160   31.5590   47.3390 C   0  0  0  0  0  0  0  0  0  0  0  0
   63.3400   32.6920   47.1220 C   0  0  0  0  0  0  0  0  0  0  0  0
   62.6690   33.8340   46.7890 C   0  0  0  0  0  0  0  0  0  0  0  0
   61.3000   33.8490   46.6720 C   0  0  0  0  0  0  0  0  0  0  0  0
   60.7280   35.0350   46.3550 F   0  0  0  0  0  0  0  0  0  0  0  0
   60.5140   32.6920   46.8880 C   0  0  0  0  0  0  0  0  0  0  0  0
   59.0830   32.8590   46.7130 C   0  0  0  0  0  0  0  0  0  0  0  0
   58.4870   32.4970   45.4640 N   0  0  0  0  0  0  0  0  0  0  0  0
   58.7770   33.3000   44.4070 C   0  0  0  0  0  0  0  0  0  0  0  0
   58.3120   33.0260   43.1570 N   0  0  0  0  0  0  0  0  0  0  0  0
   57.5390   31.9270   42.9490 C   0  0  0  0  0  0  0  0  0  0  0  0
   57.2150   31.0730   44.0100 C   0  0  0  0  0  0  0  0  0  0  0  0
   56.3910   29.9360   43.6800 C   0  0  0  0  0  0  0  0  0  0  0  0
   56.4190   29.1650   42.5060 N   0  0  0  0  0  0  0  0  0  0  0  0
   55.5330   29.5800   44.5490 O   0  0  0  0  0  0  0  0  0  0  0  0
   57.7120   31.4030   45.2420 C   0  0  0  0  0  0  0  0  0  0  0  0
   57.4080   30.7100   46.2430 N   0  0  0  0  0  0  0  0  0  0  0  0
   60.4710   30.1582   48.6044 H   0  0  0  0  0  0  0  0  0  0  0  0
   59.5317   30.3020   47.0800 H   0  0  0  0  0  0  0  0  0  0  0  0
   61.1211   29.4651   47.0800 H   0  0  0  0  0  0  0  0  0  0  0  0
   63.1307   30.6252   47.6093 H   0  0  0  0  0  0  0  0  0  0  0  0
   64.4363   32.6874   47.2126 H   0  0  0  0  0  0  0  0  0  0  0  0
   63.2356   34.7599   46.6110 H   0  0  0  0  0  0  0  0  0  0  0  0
   58.5913   32.2562   47.4907 H   0  0  0  0  0  0  0  0  0  0  0  0
   58.9375   33.9480   46.7671 H   0  0  0  0  0  0  0  0  0  0  0  0
   59.4016   34.1916   44.5647 H   0  0  0  0  0  0  0  0  0  0  0  0
   57.1649   31.7069   41.9382 H   0  0  0  0  0  0  0  0  0  0  0  0
   57.0430   28.3100   42.5000 H   0  0  0  0  0  0  0  0  0  0  0  0
   55.8730   29.3710   41.6380 H   0  0  0  0  0  0  0  0  0  0  0  0
   56.6350   30.0940   46.3720 H   0  0  0  0  0  0  0  0  0  0  0  0
  1  2  1  0
  2  3  2  0
  3  4  1  0
  4  5  2  0
  5  6  1  0
  6  7  1  0
  6  8  2  0
  8  9  1  0
  9 10  1  0
 10 11  1  0
 11 12  2  0
 12 13  1  0
 13 14  2  0
 14 15  1  0
 15 16  1  0
 15 17  2  0
 14 18  1  0
 18 19  2  3
  8  2  1  0
 18 10  1  0
  1 20  1  0
  1 21  1  0
  1 22  1  0
  3 23  1  0
  4 24  1  0
  5 25  1  0
  9 26  1  0
  9 27  1  0
 11 28  1  0
 13 29  1  0
 16 30  1  0
 16 31  1  0
 19 32  1  0
M  END
>  <smiles>  (14) 
Cc1cccc(F)c1Cn1cncc(C(N)=O)c1=N

>  <score_type>  (14) 
oracle

>  <origin>  (14) 
adg

>  <m_score__min__energy>  (14) 
-6.79

>  <m_primary>  (14) 
energy

$$$$
14:0
     RDKit          3D

 43 44  0  0  0  0  0  0  0  0999 V2000
   60.5970   29.7980   47.6540 C   0  0  0  0  0  0  0  0  0  0  0  0
   59.2470   30.3020   48.1550 C   0  0  0  0  0  0  0  0  0  0  0  0
   58.5170   31.0520   47.0790 C   0  0  0  0  0  0  0  0  0  0  0  0
   57.8240   30.4420   46.0950 N   0  0  0  0  0  0  0  0  0  0  0  0
   57.4240   31.3700   45.2370 N   0  0  0  0  0  0  0  0  0  0  0  0
   56.6090   31.0670   44.0610 C   0  0  0  0  0  0  0  0  0  0  0  0
   56.1340   29.6130   44.0960 C   0  0  0  0  0  0  0  0  0  0  0  0
   55.3000   29.3900   45.2010 O   0  0  0  0  0  0  0  0  0  0  0  0
   57.8450   32.5860   45.6520 C   0  0  0  0  0  0  0  0  0  0  0  0
   57.6550   33.8860   44.9230 C   0  0  0  0  0  0  0  0  0  0  0  0
   58.9620   34.6710   44.8740 C   0  0  0  0  0  0  0  0  0  0  0  0
   58.5510   32.4160   46.8230 C   0  0  0  0  0  0  0  0  0  0  0  0
   59.2040   33.4250   47.5390 O   0  0  0  0  0  0  0  0  0  0  0  0
   60.5760   33.4330   47.8230 C   0  0  0  0  0  0  0  0  0  0  0  0
   60.9920   33.6580   49.1390 C   0  0  0  0  0  0  0  0  0  0  0  0
   62.3530   33.6720   49.4580 C   0  0  0  0  0  0  0  0  0  0  0  0
   63.3180   33.4500   48.4680 C   0  0  0  0  0  0  0  0  0  0  0  0
   64.6700   33.4780   48.8370 O   0  0  0  0  0  0  0  0  0  0  0  0
   65.2620   32.6030   49.7930 C   0  0  0  0  0  0  0  0  0  0  0  0
   62.9010   33.2020   47.1460 C   0  0  0  0  0  0  0  0  0  0  0  0
   61.5400   33.1880   46.8290 C   0  0  0  0  0  0  0  0  0  0  0  0
   61.2405   29.5578   48.5132 H   0  0  0  0  0  0  0  0  0  0  0  0
   60.4478   28.8950   47.0438 H   0  0  0  0  0  0  0  0  0  0  0  0
   61.0761   30.5778   47.0438 H   0  0  0  0  0  0  0  0  0  0  0  0
   58.6373   29.4426   48.4708 H   0  0  0  0  0  0  0  0  0  0  0  0
   59.4206   30.9843   49.0002 H   0  0  0  0  0  0  0  0  0  0  0  0
   55.7338   31.7331   44.0462 H   0  0  0  0  0  0  0  0  0  0  0  0
   57.2183   31.2197   43.1580 H   0  0  0  0  0  0  0  0  0  0  0  0
   55.5772   29.3928   43.1732 H   0  0  0  0  0  0  0  0  0  0  0  0
   57.0125   28.9561   44.1780 H   0  0  0  0  0  0  0  0  0  0  0  0
   55.7940   29.7110   45.9990 H   0  0  0  0  0  0  0  0  0  0  0  0
   57.3192   33.6788   43.8962 H   0  0  0  0  0  0  0  0  0  0  0  0
   56.9020   34.4846   45.4565 H   0  0  0  0  0  0  0  0  0  0  0  0
   59.3047   34.8768   45.8988 H   0  0  0  0  0  0  0  0  0  0  0  0
   59.7243   34.0812   44.3439 H   0  0  0  0  0  0  0  0  0  0  0  0
   58.7995   35.6211   44.3439 H   0  0  0  0  0  0  0  0  0  0  0  0
   60.2438   33.8250   49.9279 H   0  0  0  0  0  0  0  0  0  0  0  0
   62.6684   33.8589   50.4951 H   0  0  0  0  0  0  0  0  0  0  0  0
   65.0244   32.9542   50.8080 H   0  0  0  0  0  0  0  0  0  0  0  0
   64.8654   31.5864   49.6545 H   0  0  0  0  0  0  0  0  0  0  0  0
   66.3532   32.5929   49.6545 H   0  0  0  0  0  0  0  0  0  0  0  0
   63.6489   33.0187   46.3604 H   0  0  0  0  0  0  0  0  0  0  0  0
   61.2211   32.9842   45.7962 H   0  0  0  0  0  0  0  0  0  0  0  0
  1  2  1  0
  2  3  1  0
  3  4  2  0
  4  5  1  0
  5  6  1  0
  6  7  1  0
  7  8  1  0
  5  9  1  0
  9 10  1  0
 10 11  1  0
  9 12  2  0
 12 13  1  0
 13 14  1  0
 14 15  2  0
 15 16  1  0
 16 17  2  0
 17 18  1  0
 18 19  1  0
 17 20  1  0
 20 21  2  0
 12  3  1  0
 21 14  1  0
  1 22  1  0
  1 23  1  0
  1 24  1  0
  2 25  1  0
  2 26  1  0
  6 27  1  0
  6 28  1  0
  7 29  1  0
  7 30  1  0
  8 31  1  0
 10 32  1  0
 10 33  1  0
 11 34  1  0
 11 35  1  0
 11 36  1  0
 15 37  1  0
 16 38  1  0
 19 39  1  0
 19 40  1  0
 19 41  1  0
 20 42  1  0
 21 43  1  0
M  END
>  <UniqueID>  (15) 
14

>  <SMILES>  (15) 
CCc1nn(CCO)c(CC)c1Oc1ccc(OC)cc1

>  <Energy>  (15) 
69.54464841462142

>  <Genealogy>  (15) 
CCc1nn(CCO)c(CC)c1Oc1ccc(OC)cc1 (3D coordinates assigned)
CCc1nn(CCO)c(CC)c1Oc1ccc(OC)cc1 (optimized conformer: 69.54464841462142 kcal/mol)

>  <smiles>  (15) 
CCc1nn(CCO)c(CC)c1Oc1ccc(OC)cc1

>  <score_type>  (15) 
oracle

>  <origin>  (15) 
adg

>  <m_score__min__energy>  (15) 
-6.8600000000000003

>  <m_primary>  (15) 
energy

$$$$
15:0
     RDKit          3D

 44 46  0  0  0  0  0  0  0  0999 V2000
   66.6010   33.0340   50.1270 C   0  0  0  0  0  0  0  0  0  0  0  0
   65.4110   32.0860   50.2210 C   0  0  0  0  0  0  0  0  0  0  0  0
   64.2190   32.6510   49.4960 C   0  0  0  0  0  0  0  0  0  0  0  0
   63.7710   32.0640   48.3040 C   0  0  0  0  0  0  0  0  0  0  0  0
   62.6460   32.5680   47.6470 C   0  0  0  0  0  0  0  0  0  0  0  0
   61.9390   33.6640   48.1740 C   0  0  0  0  0  0  0  0  0  0  0  0
   60.7450   34.1830   47.4620 C   0  0  0  0  0  0  0  0  0  0  0  0
   60.4800   33.9200   46.1640 N   0  0  0  0  0  0  0  0  0  0  0  0
   59.3150   34.5770   45.9780 C   0  0  0  0  0  0  0  0  0  0  0  0
   58.5520   34.5900   44.6840 C   0  0  0  0  0  0  0  0  0  0  0  0
   57.5560   33.5020   44.5880 N   0  0  0  0  0  0  0  0  0  0  0  0
   57.2200   32.8800   45.8920 C   0  0  0  0  0  0  0  0  0  0  0  0
   57.7790   31.4540   46.0130 C   0  0  0  0  0  0  0  0  0  0  0  0
   57.2470   30.5740   44.9470 N   0  0  0  0  0  0  0  0  0  0  0  0
   58.1140   29.3960   44.7810 C   0  0  0  0  0  0  0  0  0  0  0  0
   57.0200   31.2650   43.6520 C   0  0  0  0  0  0  0  0  0  0  0  0
   57.8700   32.5360   43.5110 C   0  0  0  0  0  0  0  0  0  0  0  0
   58.9200   35.1800   47.0740 O   0  0  0  0  0  0  0  0  0  0  0  0
   59.7860   34.9560   48.0120 N   0  0  0  0  0  0  0  0  0  0  0  0
   62.3850   34.2420   49.3770 C   0  0  0  0  0  0  0  0  0  0  0  0
   63.5120   33.7360   50.0340 C   0  0  0  0  0  0  0  0  0  0  0  0
   66.9373   33.3019   51.1395 H   0  0  0  0  0  0  0  0  0  0  0  0
   67.4219   32.5396   49.5868 H   0  0  0  0  0  0  0  0  0  0  0  0
   66.3026   33.9446   49.5868 H   0  0  0  0  0  0  0  0  0  0  0  0
   65.6828   31.1202   49.7701 H   0  0  0  0  0  0  0  0  0  0  0  0
   65.1487   31.9534   51.2810 H   0  0  0  0  0  0  0  0  0  0  0  0
   64.3087   31.2013   47.8837 H   0  0  0  0  0  0  0  0  0  0  0  0
   62.3097   32.1033   46.7084 H   0  0  0  0  0  0  0  0  0  0  0  0
   58.0281   35.5532   44.5960 H   0  0  0  0  0  0  0  0  0  0  0  0
   59.2795   34.4417   43.8724 H   0  0  0  0  0  0  0  0  0  0  0  0
   57.6432   33.4966   46.6987 H   0  0  0  0  0  0  0  0  0  0  0  0
   56.1241   32.8219   45.9673 H   0  0  0  0  0  0  0  0  0  0  0  0
   58.8754   31.4912   45.9327 H   0  0  0  0  0  0  0  0  0  0  0  0
   57.4732   31.0432   46.9865 H   0  0  0  0  0  0  0  0  0  0  0  0
   58.3993   29.0084   45.7701 H   0  0  0  0  0  0  0  0  0  0  0  0
   57.5719   28.6173   44.2244 H   0  0  0  0  0  0  0  0  0  0  0  0
   59.0186   29.6820   44.2244 H   0  0  0  0  0  0  0  0  0  0  0  0
   57.2764   30.5758   42.8339 H   0  0  0  0  0  0  0  0  0  0  0  0
   55.9618   31.5624   43.6110 H   0  0  0  0  0  0  0  0  0  0  0  0
   58.9347   32.2657   43.5684 H   0  0  0  0  0  0  0  0  0  0  0  0
   57.6450   33.0043   42.5414 H   0  0  0  0  0  0  0  0  0  0  0  0
   59.7110   35.3150   48.9870 H   0  0  0  0  0  0  0  0  0  0  0  0
   61.8432   35.0986   49.8044 H   0  0  0  0  0  0  0  0  0  0  0  0
   63.8453   34.1919   50.9779 H   0  0  0  0  0  0  0  0  0  0  0  0
  1  2  1  0
  2  3  1  0
  3  4  2  0
  4  5  1  0
  5  6  2  0
  6  7  1  0
  7  8  1  0
  8  9  2  0
  9 10  1  0
 10 11  1  0
 11 12  1  0
 12 13  1  0
 13 14  1  0
 14 15  1  0
 14 16  1  0
 16 17  1  0
  9 18  1  0
 18 19  1  0
  6 20  1  0
 20 21  2  0
 21  3  1  0
 19  7  2  0
 17 11  1  0
  1 22  1  0
  1 23  1  0
  1 24  1  0
  2 25  1  0
  2 26  1  0
  4 27  1  0
  5 28  1  0
 10 29  1  0
 10 30  1  0
 12 31  1  0
 12 32  1  0
 13 33  1  0
 13 34  1  0
 15 35  1  0
 15 36  1  0
 15 37  1  0
 16 38  1  0
 16 39  1  0
 17 40  1  0
 17 41  1  0
 19 42  1  0
 20 43  1  0
 21 44  1  0
M  CHG  1  19   1
M  END
>  <UniqueID>  (16) 
15

>  <SMILES>  (16) 
CCc1ccc(-c2nc(CN3CCN(C)CC3)o[nH+]2)cc1

>  <Energy>  (16) 
89.19001012574854

>  <Genealogy>  (16) 
CCc1ccc(-c2nc(CN3CCN(C)CC3)o[nH+]2)cc1 (protonated)
CCc1ccc(-c2nc(CN3CCN(C)CC3)o[nH+]2)cc1 (3D coordinates assigned)
CCc1ccc(-c2nc(CN3CCN(C)CC3)o[nH+]2)cc1 (nonaromatic ring conformer: 89.19001012574854 kcal/mol)

>  <smiles>  (16) 
CCc1ccc(-c2noc(CN3CCN(C)CC3)n2)cc1

>  <score_type>  (16) 
oracle

>  <origin>  (16) 
adg

>  <m_score__min__energy>  (16) 
-6.5199999999999996

>  <m_primary>  (16) 
energy

$$$$
16:0
     RDKit          3D

 40 41  0  0  0  0  0  0  0  0999 V2000
   59.2880   35.3460   45.2250 C   0  0  0  0  0  0  0  0  0  0  0  0
   59.2140   34.9360   46.6910 C   0  0  0  0  0  0  0  0  0  0  0  0
   59.8590   33.6790   46.9000 O   0  0  0  0  0  0  0  0  0  0  0  0
   59.4220   32.4380   46.4050 C   0  0  0  0  0  0  0  0  0  0  0  0
   58.3810   32.3250   45.4640 C   0  0  0  0  0  0  0  0  0  0  0  0
   57.9650   31.0690   45.0010 C   0  0  0  0  0  0  0  0  0  0  0  0
   58.6130   29.9060   45.4620 C   0  0  0  0  0  0  0  0  0  0  0  0
   59.6570   30.0200   46.3920 C   0  0  0  0  0  0  0  0  0  0  0  0
   60.0690   31.2820   46.8650 C   0  0  0  0  0  0  0  0  0  0  0  0
   61.1070   31.4340   47.8000 O   0  0  0  0  0  0  0  0  0  0  0  0
   62.4930   31.5880   47.4910 C   0  0  0  0  0  0  0  0  0  0  0  0
   62.8370   33.0560   47.2640 C   0  0  0  0  0  0  0  0  0  0  0  0
   58.1580   28.5280   45.0130 C   0  0  1  0  0  0  0  0  0  0  0  0
   57.3830   27.8210   46.1550 C   0  0  0  0  0  0  0  0  0  0  0  0
   56.4840   26.7380   45.6440 C   0  0  0  0  0  0  0  0  0  0  0  0
   56.9340   25.8560   44.8660 O   0  0  0  0  0  0  0  0  0  0  0  0
   55.1430   26.7180   46.0050 O   0  0  0  0  0  0  0  0  0  0  0  0
   57.3930   28.6010   43.7500 N   0  0  0  0  0  0  0  0  0  0  0  0
   56.3180   29.5980   43.7960 C   0  0  0  0  0  0  0  0  0  0  0  0
   56.9100   30.9990   43.9290 C   0  0  0  0  0  0  0  0  0  0  0  0
   59.4830   36.4264   45.1558 H   0  0  0  0  0  0  0  0  0  0  0  0
   60.1011   34.7943   44.7305 H   0  0  0  0  0  0  0  0  0  0  0  0
   58.3333   35.1133   44.7305 H   0  0  0  0  0  0  0  0  0  0  0  0
   59.7099   35.7022   47.3051 H   0  0  0  0  0  0  0  0  0  0  0  0
   58.1562   34.8410   46.9772 H   0  0  0  0  0  0  0  0  0  0  0  0
   57.8880   33.2334   45.0875 H   0  0  0  0  0  0  0  0  0  0  0  0
   60.1606   29.1126   46.7568 H   0  0  0  0  0  0  0  0  0  0  0  0
   63.0941   31.2019   48.3274 H   0  0  0  0  0  0  0  0  0  0  0  0
   62.7135   31.0276   46.5705 H   0  0  0  0  0  0  0  0  0  0  0  0
   62.9550   33.5593   48.2349 H   0  0  0  0  0  0  0  0  0  0  0  0
   63.7766   33.1289   46.6966 H   0  0  0  0  0  0  0  0  0  0  0  0
   62.0277   33.5388   46.6966 H   0  0  0  0  0  0  0  0  0  0  0  0
   59.0422   27.9113   44.7940 H   0  0  0  0  0  0  0  0  0  0  0  0
   58.1081   27.3788   46.8540 H   0  0  0  0  0  0  0  0  0  0  0  0
   56.7544   28.5742   46.6526 H   0  0  0  0  0  0  0  0  0  0  0  0
   56.9820   27.6680   43.5170 H   0  0  0  0  0  0  0  0  0  0  0  0
   55.7266   29.5389   42.8704 H   0  0  0  0  0  0  0  0  0  0  0  0
   55.6739   29.3944   44.6641 H   0  0  0  0  0  0  0  0  0  0  0  0
   57.3615   31.2859   42.9678 H   0  0  0  0  0  0  0  0  0  0  0  0
   56.0969   31.6850   44.2088 H   0  0  0  0  0  0  0  0  0  0  0  0
  1  2  1  0
  2  3  1  0
  3  4  1  0
  4  5  2  0
  5  6  1  0
  6  7  2  0
  7  8  1  0
  8  9  2  0
  9 10  1  0
 10 11  1  0
 11 12  1  0
  7 13  1  0
 13 14  1  0
 14 15  1  0
 15 16  2  0
 15 17  1  0
 13 18  1  0
 18 19  1  0
 19 20  1  0
  9  4  1  0
 20  6  1  0
  1 21  1  0
  1 22  1  0
  1 23  1  0
  2 24  1  0
  2 25  1  0
  5 26  1  0
  8 27  1  0
 11 28  1  0
 11 29  1  0
 12 30  1  0
 12 31  1  0
 12 32  1  0
 13 33  1  6
 14 34  1  0
 14 35  1  0
 18 36  1  0
 19 37  1  0
 19 38  1  0
 20 39  1  0
 20 40  1  0
M  CHG  1  17  -1
M  END
>  <UniqueID>  (17) 
16

>  <SMILES>  (17) 
CCOc1cc2c(cc1OCC)[C@@H](CC(=O)[O-])NCC2

>  <Energy>  (17) 
37.189806068705906

>  <Genealogy>  (17) 
CCOc1cc2c(cc1OCC)C(CC(=O)[O-])NCC2 (protonated)
CCOc1cc2c(cc1OCC)[C@@H](CC(=O)[O-])NCC2 (chirality)
CCOc1cc2c(cc1OCC)[C@@H](CC(=O)[O-])NCC2 (3D coordinates assigned)
CCOc1cc2c(cc1OCC)[C@@H](CC(=O)[O-])NCC2 (nonaromatic ring conformer: 37.189806068705906 kcal/mol)

>  <smiles>  (17) 
CCOc1cc2c(cc1OCC)C(CC(=O)O)NCC2

>  <score_type>  (17) 
oracle

>  <origin>  (17) 
adg

>  <m_score__min__energy>  (17) 
-8.7300000000000004

>  <m_primary>  (17) 
energy

$$$$
17:0
     RDKit          3D

 34 35  0  0  0  0  0  0  0  0999 V2000
   57.2162   34.3019   45.5196 H   0  0  0  0  0  0  0  0  0  0  0  0
   57.8660   33.4180   45.4390 C   0  0  0  0  0  0  0  0  0  0  0  0
   58.9340   33.3590   46.2470 C   0  0  0  0  0  0  0  0  0  0  0  0
   60.1220   34.7030   46.3180 S   0  0  0  0  0  0  0  0  0  0  0  0
   61.2140   33.6130   47.2390 C   0  0  0  0  0  0  0  0  0  0  0  0
   62.8380   33.7950   47.1370 S   0  0  0  0  0  0  0  0  0  0  0  0
   60.6110   32.3960   47.6920 N   0  0  0  0  0  0  0  0  0  0  0  0
   61.2900   31.3360   48.4400 C   0  0  0  0  0  0  0  0  0  0  0  0
   60.9463   31.3521   49.4848 H   0  0  0  0  0  0  0  0  0  0  0  0
   62.3757   31.5076   48.3972 H   0  0  0  0  0  0  0  0  0  0  0  0
   60.9780   29.9680   47.8270 C   0  0  0  0  0  0  0  0  0  0  0  0
   60.0090   29.6122   48.2071 H   0  0  0  0  0  0  0  0  0  0  0  0
   61.7736   29.2609   48.1047 H   0  0  0  0  0  0  0  0  0  0  0  0
   60.9170   30.0690   46.3610 N   0  0  0  0  0  0  0  0  0  0  0  0
   60.1460   30.7240   46.0930 H   0  0  0  0  0  0  0  0  0  0  0  0
   60.7090   28.7640   45.7110 C   0  0  0  0  0  0  0  0  0  0  0  0
   60.4929   28.0133   46.4855 H   0  0  0  0  0  0  0  0  0  0  0  0
   61.6248   28.5149   45.1550 H   0  0  0  0  0  0  0  0  0  0  0  0
   59.5470   28.7910   44.7130 C   0  0  0  0  0  0  0  0  0  0  0  0
   58.5935   28.8132   45.2610 H   0  0  0  0  0  0  0  0  0  0  0  0
   59.6275   29.6875   44.0807 H   0  0  0  0  0  0  0  0  0  0  0  0
   59.5857   27.8917   44.0807 H   0  0  0  0  0  0  0  0  0  0  0  0
   59.3060   32.2620   47.1450 C   0  0  0  0  0  0  0  0  0  0  0  0
   58.5420   31.3090   47.4570 O   0  0  0  0  0  0  0  0  0  0  0  0
   57.4960   32.3890   44.4510 C   0  0  0  0  0  0  0  0  0  0  0  0
   56.7440   31.3270   44.8540 N   0  0  0  0  0  0  0  0  0  0  0  0
   56.3260   30.3700   43.9840 C   0  0  0  0  0  0  0  0  0  0  0  0
   55.7338   29.5176   44.3483 H   0  0  0  0  0  0  0  0  0  0  0  0
   56.6470   30.4670   42.6290 C   0  0  0  0  0  0  0  0  0  0  0  0
   56.3190   29.6903   41.9225 H   0  0  0  0  0  0  0  0  0  0  0  0
   57.3890   31.5610   42.1810 C   0  0  0  0  0  0  0  0  0  0  0  0
   57.6430   31.6555   41.1149 H   0  0  0  0  0  0  0  0  0  0  0  0
   57.8080   32.5350   43.0890 C   0  0  0  0  0  0  0  0  0  0  0  0
   58.3776   33.4094   42.7410 H   0  0  0  0  0  0  0  0  0  0  0  0
  1  2  1  0
  2  3  2  0
  3  4  1  0
  4  5  1  0
  5  6  2  0
  5  7  1  0
  7  8  1  0
  8  9  1  0
  8 10  1  0
  8 11  1  0
 11 12  1  0
 11 13  1  0
 11 14  1  0
 14 15  1  0
 14 16  1  0
 16 17  1  0
 16 18  1  0
 16 19  1  0
 19 20  1  0
 19 21  1  0
 19 22  1  0
  7 23  1  0
 23 24  2  0
  2 25  1  0
 25 26  2  0
 26 27  1  0
 27 28  1  0
 27 29  2  0
 29 30  1  0
 29 31  1  0
 31 32  1  0
 31 33  2  0
 33 34  1  0
 23  3  1  0
 33 25  1  0
M  END
>  <UniqueID>  (18) 
17

>  <SMILES>  (18) 
CCNCCN1C(=O)/C(=C\c2ccccn2)SC1=S

>  <Energy>  (18) 
57.40629783557343

>  <Genealogy>  (18) 
CCNCCN1C(=O)/C(=C\c2ccccn2)SC1=S (cis-trans isomerization)
CCNCCN1C(=O)/C(=C\c2ccccn2)SC1=S (3D coordinates assigned)
CCNCCN1C(=O)/C(=C\c2ccccn2)SC1=S (nonaromatic ring conformer: 57.40629783557343 kcal/mol)

>  <smiles>  (18) 
CCNCCN1C(=O)C(=Cc2ccccn2)SC1=S

>  <score_type>  (18) 
oracle

>  <origin>  (18) 
adg

>  <m_score__min__energy>  (18) 
-7.4299999999999997

>  <m_primary>  (18) 
energy

$$$$
18:0
     RDKit          3D

 30 30  0  0  0  0  0  0  0  0999 V2000
   57.7840   32.8400   44.4500 C   0  0  0  0  0  0  0  0  0  0  0  0
   57.3780   31.4600   43.9420 C   0  0  0  0  0  0  0  0  0  0  0  0
   57.0110   30.6120   45.0280 O   0  0  0  0  0  0  0  0  0  0  0  0
   56.3030   29.4140   44.8700 C   0  0  0  0  0  0  0  0  0  0  0  0
   55.1450   29.4300   44.3710 O   0  0  0  0  0  0  0  0  0  0  0  0
   56.9330   28.1520   45.3250 C   0  0  0  0  0  0  0  0  0  0  0  0
   56.0950   27.1280   45.6380 N   0  0  0  0  0  0  0  0  0  0  0  0
   56.5480   25.9180   46.0570 C   0  0  0  0  0  0  0  0  0  0  0  0
   55.6200   24.8640   46.3750 N   0  0  0  0  0  0  0  0  0  0  0  0
   54.3960   24.7070   45.5820 C   0  0  0  0  0  0  0  0  0  0  0  0
   55.9080   23.9540   47.4890 C   0  0  0  0  0  0  0  0  0  0  0  0
   57.8850   25.7120   46.1680 N   0  0  0  0  0  0  0  0  0  0  0  0
   58.7810   26.6880   45.8780 C   0  0  0  0  0  0  0  0  0  0  0  0
   60.0100   26.4390   45.9980 O   0  0  0  0  0  0  0  0  0  0  0  0
   58.3350   27.9570   45.4510 C   0  0  0  0  0  0  0  0  0  0  0  0
   59.3330   29.0500   45.1490 C   0  0  0  0  0  0  0  0  0  0  0  0
   57.7841   32.8404   45.5500 H   0  0  0  0  0  0  0  0  0  0  0  0
   58.7919   33.0838   44.0831 H   0  0  0  0  0  0  0  0  0  0  0  0
   57.0687   33.5908   44.0831 H   0  0  0  0  0  0  0  0  0  0  0  0
   56.5217   31.5638   43.2594 H   0  0  0  0  0  0  0  0  0  0  0  0
   58.2330   31.0109   43.4154 H   0  0  0  0  0  0  0  0  0  0  0  0
   53.5339   24.5964   46.2563 H   0  0  0  0  0  0  0  0  0  0  0  0
   54.2538   25.5943   44.9475 H   0  0  0  0  0  0  0  0  0  0  0  0
   54.4824   23.8126   44.9475 H   0  0  0  0  0  0  0  0  0  0  0  0
   55.7424   24.4774   48.4422 H   0  0  0  0  0  0  0  0  0  0  0  0
   55.2425   23.0801   47.4300 H   0  0  0  0  0  0  0  0  0  0  0  0
   56.9551   23.6221   47.4300 H   0  0  0  0  0  0  0  0  0  0  0  0
   59.7151   29.4684   46.0918 H   0  0  0  0  0  0  0  0  0  0  0  0
   60.1686   28.6331   44.5676 H   0  0  0  0  0  0  0  0  0  0  0  0
   58.8421   29.8444   44.5676 H   0  0  0  0  0  0  0  0  0  0  0  0
  1  2  1  0
  2  3  1  0
  3  4  1  0
  4  5  2  0
  4  6  1  0
  6  7  1  0
  7  8  1  0
  8  9  1  0
  9 10  1  0
  9 11  1  0
  8 12  2  0
 12 13  1  0
 13 14  2  0
 13 15  1  0
 15 16  1  0
 15  6  2  0
  1 17  1  0
  1 18  1  0
  1 19  1  0
  2 20  1  0
  2 21  1  0
 10 22  1  0
 10 23  1  0
 10 24  1  0
 11 25  1  0
 11 26  1  0
 11 27  1  0
 16 28  1  0
 16 29  1  0
 16 30  1  0
M  CHG  1   7  -1
M  END
>  <UniqueID>  (19) 
18

>  <SMILES>  (19) 
CCOC(=O)c1[n-]c(N(C)C)nc(=O)c1C

>  <Energy>  (19) 
26.03968205170404

>  <Genealogy>  (19) 
CCOC(=O)c1[n-]c(N(C)C)nc(=O)c1C (protonated)
CCOC(=O)c1[n-]c(N(C)C)nc(=O)c1C (3D coordinates assigned)
CCOC(=O)c1[n-]c(N(C)C)nc(=O)c1C (optimized conformer: 26.03968205170404 kcal/mol)

>  <smiles>  (19) 
CCOC(=O)c1[nH]c(N(C)C)nc(=O)c1C

>  <score_type>  (19) 
oracle

>  <origin>  (19) 
adg

>  <m_score__min__energy>  (19) 
-6.5999999999999996

>  <m_primary>  (19) 
energy

$$$$
19:0
     RDKit          3D

 47 47  0  0  0  0  0  0  0  0999 V2000
   58.9260   32.6810   49.4640 C   0  0  0  0  0  0  0  0  0  0  0  0
   59.6410   34.0230   49.3270 C   0  0  0  0  0  0  0  0  0  0  0  0
   59.6310   34.6020   47.8940 C   0  0  0  0  0  0  0  0  0  0  0  0
   59.9620   33.6560   46.8030 N   0  0  0  0  0  0  0  0  0  0  0  0
   61.2920   33.8500   46.1940 C   0  0  0  0  0  0  0  0  0  0  0  0
   62.3800   33.5970   47.2410 C   0  0  0  0  0  0  0  0  0  0  0  0
   62.5480   32.1050   47.5170 C   0  0  0  0  0  0  0  0  0  0  0  0
   58.6940   33.4600   45.6100 S   0  0  0  0  0  0  0  0  0  0  0  0
   57.5300   34.3530   45.9400 O   0  0  0  0  0  0  0  0  0  0  0  0
   59.2160   33.8430   44.2540 O   0  0  0  0  0  0  0  0  0  0  0  0
   58.1720   31.7770   45.5400 C   0  0  0  0  0  0  0  0  0  0  0  0
   58.4830   30.8840   46.5750 C   0  0  0  0  0  0  0  0  0  0  0  0
   58.0710   29.5510   46.5010 C   0  0  0  0  0  0  0  0  0  0  0  0
   57.3380   29.0900   45.3890 C   0  0  0  0  0  0  0  0  0  0  0  0
   56.9020   27.7230   45.2800 N   0  0  0  0  0  0  0  0  0  0  0  0
   57.5100   26.6250   46.0350 C   0  0  0  0  0  0  0  0  0  0  0  0
   56.4570   25.5910   46.4480 C   0  0  0  0  0  0  0  0  0  0  0  0
   55.1790   25.9810   45.9830 O   0  0  0  0  0  0  0  0  0  0  0  0
   54.4360   24.8510   45.5800 C   0  0  0  0  0  0  0  0  0  0  0  0
   57.0300   29.9940   44.3600 C   0  0  0  0  0  0  0  0  0  0  0  0
   57.4420   31.3260   44.4350 C   0  0  0  0  0  0  0  0  0  0  0  0
   58.7980   32.4408   50.5298 H   0  0  0  0  0  0  0  0  0  0  0  0
   57.9397   32.7400   48.9804 H   0  0  0  0  0  0  0  0  0  0  0  0
   59.5251   31.8953   48.9804 H   0  0  0  0  0  0  0  0  0  0  0  0
   59.1493   34.7458   49.9947 H   0  0  0  0  0  0  0  0  0  0  0  0
   60.6946   33.8485   49.5904 H   0  0  0  0  0  0  0  0  0  0  0  0
   58.6237   34.9990   47.6997 H   0  0  0  0  0  0  0  0  0  0  0  0
   60.4280   35.3600   47.8777 H   0  0  0  0  0  0  0  0  0  0  0  0
   61.4178   33.1460   45.3582 H   0  0  0  0  0  0  0  0  0  0  0  0
   61.3760   34.8821   45.8229 H   0  0  0  0  0  0  0  0  0  0  0  0
   63.3336   34.0028   46.8721 H   0  0  0  0  0  0  0  0  0  0  0  0
   62.0827   34.0919   48.1773 H   0  0  0  0  0  0  0  0  0  0  0  0
   62.5674   31.9330   48.6033 H   0  0  0  0  0  0  0  0  0  0  0  0
   61.7063   31.5530   47.0733 H   0  0  0  0  0  0  0  0  0  0  0  0
   63.4913   31.7540   47.0733 H   0  0  0  0  0  0  0  0  0  0  0  0
   59.0532   31.2339   47.4482 H   0  0  0  0  0  0  0  0  0  0  0  0
   58.3205   28.8563   47.3165 H   0  0  0  0  0  0  0  0  0  0  0  0
   56.1120   27.5090   44.6280 H   0  0  0  0  0  0  0  0  0  0  0  0
   58.2688   26.1344   45.4077 H   0  0  0  0  0  0  0  0  0  0  0  0
   57.9697   27.0386   46.9448 H   0  0  0  0  0  0  0  0  0  0  0  0
   56.7182   24.6140   46.0154 H   0  0  0  0  0  0  0  0  0  0  0  0
   56.4334   25.5222   47.5456 H   0  0  0  0  0  0  0  0  0  0  0  0
   54.0802   24.3099   46.4692 H   0  0  0  0  0  0  0  0  0  0  0  0
   53.5738   25.1746   44.9783 H   0  0  0  0  0  0  0  0  0  0  0  0
   55.0748   24.1877   44.9783 H   0  0  0  0  0  0  0  0  0  0  0  0
   56.4582   29.6494   43.4857 H   0  0  0  0  0  0  0  0  0  0  0  0
   57.1916   32.0235   43.6221 H   0  0  0  0  0  0  0  0  0  0  0  0
  1  2  1  0
  2  3  1  0
  3  4  1  0
  4  5  1  0
  5  6  1  0
  6  7  1  0
  4  8  1  0
  8  9  2  0
  8 10  2  0
  8 11  1  0
 11 12  2  0
 12 13  1  0
 13 14  2  0
 14 15  1  0
 15 16  1  0
 16 17  1  0
 17 18  1  0
 18 19  1  0
 14 20  1  0
 20 21  2  0
 21 11  1  0
  1 22  1  0
  1 23  1  0
  1 24  1  0
  2 25  1  0
  2 26  1  0
  3 27  1  0
  3 28  1  0
  5 29  1  0
  5 30  1  0
  6 31  1  0
  6 32  1  0
  7 33  1  0
  7 34  1  0
  7 35  1  0
 12 36  1  0
 13 37  1  0
 15 38  1  0
 16 39  1  0
 16 40  1  0
 17 41  1  0
 17 42  1  0
 19 43  1  0
 19 44  1  0
 19 45  1  0
 20 46  1  0
 21 47  1  0
M  END
>  <UniqueID>  (20) 
19

>  <SMILES>  (20) 
CCCN(CCC)S(=O)(=O)c1ccc(NCCOC)cc1

>  <Energy>  (20) 
41.97049668274315

>  <Genealogy>  (20) 
CCCN(CCC)S(=O)(=O)c1ccc(NCCOC)cc1 (3D coordinates assigned)
CCCN(CCC)S(=O)(=O)c1ccc(NCCOC)cc1 (optimized conformer: 41.97049668274315 kcal/mol)

>  <smiles>  (20) 
CCCN(CCC)S(=O)(=O)c1ccc(NCCOC)cc1

>  <score_type>  (20) 
oracle

>  <origin>  (20) 
adg

>  <m_score__min__energy>  (20) 
-7.0999999999999996

>  <m_primary>  (20) 
energy

$$$$
20:0
     RDKit          3D

 43 44  0  0  0  0  0  0  0  0999 V2000
   60.7310   28.9310   44.9010 C   0  0  0  0  0  0  0  0  0  0  0  0
   60.0360   27.7230   45.5210 C   0  0  0  0  0  0  0  0  0  0  0  0
   58.8430   27.2320   44.6810 C   0  0  0  0  0  0  0  0  0  0  0  0
   57.5440   27.5790   45.2870 N   0  0  0  0  0  0  0  0  0  0  0  0
   56.8380   26.5730   46.0970 C   0  0  0  0  0  0  0  0  0  0  0  0
   57.7640   25.9640   47.1440 C   0  0  0  0  0  0  0  0  0  0  0  0
   56.9870   28.9100   45.1780 C   0  0  0  0  0  0  0  0  0  0  0  0
   55.7650   29.0460   44.8950 O   0  0  0  0  0  0  0  0  0  0  0  0
   57.7970   30.0740   45.4230 N   0  0  0  0  0  0  0  0  0  0  0  0
   57.3950   31.4130   45.0820 C   0  0  0  0  0  0  0  0  0  0  0  0
   56.2760   31.6200   44.5370 O   0  0  0  0  0  0  0  0  0  0  0  0
   58.2940   32.5560   45.3560 C   0  0  0  0  0  0  0  0  0  0  0  0
   57.9780   33.8520   44.9180 C   0  0  0  0  0  0  0  0  0  0  0  0
   58.8540   34.9020   45.1920 C   0  0  0  0  0  0  0  0  0  0  0  0
   60.0350   34.6600   45.8960 C   0  0  0  0  0  0  0  0  0  0  0  0
   60.3310   33.3560   46.3230 C   0  0  0  0  0  0  0  0  0  0  0  0
   61.5780   33.0560   47.0700 C   0  0  0  0  0  0  0  0  0  0  0  0
   62.7480   33.8070   46.8560 C   0  0  0  0  0  0  0  0  0  0  0  0
   63.9050   33.4990   47.5760 C   0  0  0  0  0  0  0  0  0  0  0  0
   63.8920   32.4540   48.4980 C   0  0  0  0  0  0  0  0  0  0  0  0
   62.7160   31.7270   48.6890 C   0  0  0  0  0  0  0  0  0  0  0  0
   61.5990   32.0400   47.9800 N   0  0  0  0  0  0  0  0  0  0  0  0
   59.4540   32.3530   46.0400 N   0  0  0  0  0  0  0  0  0  0  0  0
   61.1083   29.5868   45.6995 H   0  0  0  0  0  0  0  0  0  0  0  0
   61.5715   28.5908   44.2782 H   0  0  0  0  0  0  0  0  0  0  0  0
   60.0145   29.4866   44.2782 H   0  0  0  0  0  0  0  0  0  0  0  0
   60.7651   26.9042   45.6101 H   0  0  0  0  0  0  0  0  0  0  0  0
   59.6484   28.0292   46.5039 H   0  0  0  0  0  0  0  0  0  0  0  0
   58.9009   27.6921   43.6835 H   0  0  0  0  0  0  0  0  0  0  0  0
   58.9030   26.1351   44.6249 H   0  0  0  0  0  0  0  0  0  0  0  0
   55.9878   27.0524   46.6044 H   0  0  0  0  0  0  0  0  0  0  0  0
   56.4879   25.7707   45.4308 H   0  0  0  0  0  0  0  0  0  0  0  0
   57.3917   26.2089   48.1497 H   0  0  0  0  0  0  0  0  0  0  0  0
   57.7907   24.8715   47.0189 H   0  0  0  0  0  0  0  0  0  0  0  0
   58.7777   26.3723   47.0189 H   0  0  0  0  0  0  0  0  0  0  0  0
   58.7240   29.9420   45.8810 H   0  0  0  0  0  0  0  0  0  0  0  0
   57.0466   34.0378   44.3630 H   0  0  0  0  0  0  0  0  0  0  0  0
   58.6144   35.9208   44.8534 H   0  0  0  0  0  0  0  0  0  0  0  0
   60.7286   35.4853   46.1145 H   0  0  0  0  0  0  0  0  0  0  0  0
   62.7520   34.6308   46.1271 H   0  0  0  0  0  0  0  0  0  0  0  0
   64.8248   34.0804   47.4154 H   0  0  0  0  0  0  0  0  0  0  0  0
   64.7986   32.2049   49.0689 H   0  0  0  0  0  0  0  0  0  0  0  0
   62.6929   30.9000   49.4139 H   0  0  0  0  0  0  0  0  0  0  0  0
  1  2  1  0
  2  3  1  0
  3  4  1  0
  4  5  1  0
  5  6  1  0
  4  7  1  0
  7  8  2  0
  7  9  1  0
  9 10  1  0
 10 11  2  0
 10 12  1  0
 12 13  2  0
 13 14  1  0
 14 15  2  0
 15 16  1  0
 16 17  1  0
 17 18  2  0
 18 19  1  0
 19 20  2  0
 20 21  1  0
 21 22  2  0
 16 23  2  0
 23 12  1  0
 22 17  1  0
  1 24  1  0
  1 25  1  0
  1 26  1  0
  2 27  1  0
  2 28  1  0
  3 29  1  0
  3 30  1  0
  5 31  1  0
  5 32  1  0
  6 33  1  0
  6 34  1  0
  6 35  1  0
  9 36  1  0
 13 37  1  0
 14 38  1  0
 15 39  1  0
 18 40  1  0
 19 41  1  0
 20 42  1  0
 21 43  1  0
M  END
>  <UniqueID>  (21) 
20

>  <SMILES>  (21) 
CCCN(CC)C(=O)NC(=O)c1cccc(-c2ccccn2)n1

>  <Energy>  (21) 
38.805395306743186

>  <Genealogy>  (21) 
CCCN(CC)C(=O)NC(=O)c1cccc(-c2ccccn2)n1 (3D coordinates assigned)
CCCN(CC)C(=O)NC(=O)c1cccc(-c2ccccn2)n1 (optimized conformer: 38.805395306743186 kcal/mol)

>  <smiles>  (21) 
CCCN(CC)C(=O)NC(=O)c1cccc(-c2ccccn2)n1

>  <score_type>  (21) 
oracle

>  <origin>  (21) 
adg

>  <m_score__min__energy>  (21) 
-8.1999999999999993

>  <m_primary>  (21) 
energy

$$$$
21:0
     RDKit          3D

 40 42  0  0  0  0  0  0  0  0999 V2000
   58.1310   27.1120   42.9220 C   0  0  0  0  0  0  0  0  0  0  0  0
   58.3470   26.9910   44.4270 C   0  0  0  0  0  0  0  0  0  0  0  0
   57.1110   27.3110   45.1490 N   0  0  0  0  0  0  0  0  0  0  0  0
   56.2820   26.2180   45.6650 C   0  0  0  0  0  0  0  0  0  0  0  0
   56.6710   28.6780   45.2460 C   0  0  0  0  0  0  0  0  0  0  0  0
   55.5120   28.9850   44.8550 O   0  0  0  0  0  0  0  0  0  0  0  0
   57.5540   29.7380   45.7610 C   0  0  0  0  0  0  0  0  0  0  0  0
   58.6110   29.5670   46.6550 C   0  0  0  0  0  0  0  0  0  0  0  0
   59.1260   30.8350   46.7640 C   0  0  0  0  0  0  0  0  0  0  0  0
   60.1880   31.2410   47.4980 N   0  0  0  0  0  0  0  0  0  0  0  0
   60.5640   32.5550   47.4620 C   0  0  0  0  0  0  0  0  0  0  0  0
   61.7350   32.9920   48.2650 C   0  0  0  0  0  0  0  0  0  0  0  0
   61.5780   33.7710   49.4300 C   0  0  0  0  0  0  0  0  0  0  0  0
   62.6930   34.1640   50.1750 C   0  0  0  0  0  0  0  0  0  0  0  0
   63.9750   33.7820   49.7750 C   0  0  0  0  0  0  0  0  0  0  0  0
   65.0540   34.1630   50.5020 F   0  0  0  0  0  0  0  0  0  0  0  0
   64.1440   32.9990   48.6310 C   0  0  0  0  0  0  0  0  0  0  0  0
   63.0330   32.6030   47.8810 C   0  0  0  0  0  0  0  0  0  0  0  0
   59.8480   33.4650   46.6420 C   0  0  0  0  0  0  0  0  0  0  0  0
   58.7420   33.0030   45.9000 C   0  0  0  0  0  0  0  0  0  0  0  0
   57.9600   33.9120   44.9850 C   0  0  0  0  0  0  0  0  0  0  0  0
   57.7880   33.3470   43.7330 F   0  0  0  0  0  0  0  0  0  0  0  0
   56.7180   34.1580   45.5390 F   0  0  0  0  0  0  0  0  0  0  0  0
   58.6340   35.1100   44.8330 F   0  0  0  0  0  0  0  0  0  0  0  0
   58.4350   31.6820   45.9950 N   0  0  0  0  0  0  0  0  0  0  0  0
   57.4720   31.0320   45.3650 N   0  0  0  0  0  0  0  0  0  0  0  0
   57.1863   27.6412   42.7285 H   0  0  0  0  0  0  0  0  0  0  0  0
   58.9644   27.6746   42.4760 H   0  0  0  0  0  0  0  0  0  0  0  0
   58.0865   26.1074   42.4760 H   0  0  0  0  0  0  0  0  0  0  0  0
   58.6511   25.9617   44.6678 H   0  0  0  0  0  0  0  0  0  0  0  0
   59.1318   27.6986   44.7326 H   0  0  0  0  0  0  0  0  0  0  0  0
   56.2953   26.2355   46.7648 H   0  0  0  0  0  0  0  0  0  0  0  0
   55.2487   26.3419   45.3087 H   0  0  0  0  0  0  0  0  0  0  0  0
   56.6799   25.2564   45.3087 H   0  0  0  0  0  0  0  0  0  0  0  0
   58.9484   28.6445   47.1501 H   0  0  0  0  0  0  0  0  0  0  0  0
   60.5708   34.0714   49.7545 H   0  0  0  0  0  0  0  0  0  0  0  0
   62.5603   34.7761   51.0793 H   0  0  0  0  0  0  0  0  0  0  0  0
   65.1537   32.6932   48.3195 H   0  0  0  0  0  0  0  0  0  0  0  0
   63.1736   31.9825   46.9836 H   0  0  0  0  0  0  0  0  0  0  0  0
   60.1529   34.5204   46.5858 H   0  0  0  0  0  0  0  0  0  0  0  0
  1  2  1  0
  2  3  1  0
  3  4  1  0
  3  5  1  0
  5  6  2  0
  5  7  1  0
  7  8  1  0
  8  9  2  0
  9 10  1  0
 10 11  2  0
 11 12  1  0
 12 13  2  0
 13 14  1  0
 14 15  2  0
 15 16  1  0
 15 17  1  0
 17 18  2  0
 11 19  1  0
 19 20  2  0
 20 21  1  0
 21 22  1  0
 21 23  1  0
 21 24  1  0
 20 25  1  0
 25 26  1  0
 26  7  2  0
 25  9  1  0
 18 12  1  0
  1 27  1  0
  1 28  1  0
  1 29  1  0
  2 30  1  0
  2 31  1  0
  4 32  1  0
  4 33  1  0
  4 34  1  0
  8 35  1  0
 13 36  1  0
 14 37  1  0
 17 38  1  0
 18 39  1  0
 19 40  1  0
M  END
>  <UniqueID>  (22) 
21

>  <SMILES>  (22) 
CCN(C)C(=O)c1cc2nc(-c3ccc(F)cc3)cc(C(F)(F)F)n2n1

>  <Energy>  (22) 
81.92765704319595

>  <Genealogy>  (22) 
CCN(C)C(=O)c1cc2nc(-c3ccc(F)cc3)cc(C(F)(F)F)n2n1 (3D coordinates assigned)
CCN(C)C(=O)c1cc2nc(-c3ccc(F)cc3)cc(C(F)(F)F)n2n1 (optimized conformer: 81.92765704319595 kcal/mol)

>  <smiles>  (22) 
CCN(C)C(=O)c1cc2nc(-c3ccc(F)cc3)cc(C(F)(F)F)n2n1

>  <score_type>  (22) 
oracle

>  <origin>  (22) 
adg

>  <m_score__min__energy>  (22) 
-6.96

>  <m_primary>  (22) 
energy

$$$$
22:0
     RDKit          3D

 32 33  0  0  0  0  0  0  0  0999 V2000
   56.2950   29.9120   43.1830 C   0  0  0  0  0  0  0  0  0  0  0  0
   56.2880   30.4670   44.4940 O   0  0  0  0  0  0  0  0  0  0  0  0
   57.3590   31.1730   45.0660 C   0  0  0  0  0  0  0  0  0  0  0  0
   57.4370   32.5770   45.0190 C   0  0  0  0  0  0  0  0  0  0  0  0
   58.5170   33.2460   45.6020 C   0  0  0  0  0  0  0  0  0  0  0  0
   58.5910   34.6000   45.5290 N   0  0  0  0  0  0  0  0  0  0  0  0
   59.6350   35.2730   46.0750 C   0  0  0  0  0  0  0  0  0  0  0  0
   60.6220   34.5970   46.7150 N   0  0  0  0  0  0  0  0  0  0  0  0
   60.5980   33.2420   46.8300 C   0  0  0  0  0  0  0  0  0  0  0  0
   61.6580   32.5850   47.5420 N   0  0  0  0  0  0  0  0  0  0  0  0
   63.0410   32.8150   47.1280 C   0  0  0  0  0  0  0  0  0  0  0  0
   61.3830   31.9000   48.8050 C   0  0  0  0  0  0  0  0  0  0  0  0
   59.5330   32.5180   46.2530 C   0  0  0  0  0  0  0  0  0  0  0  0
   59.4660   31.1150   46.2820 C   0  0  0  0  0  0  0  0  0  0  0  0
   58.3780   30.4400   45.6940 C   0  0  0  0  0  0  0  0  0  0  0  0
   58.2730   29.0390   45.7150 O   0  0  0  0  0  0  0  0  0  0  0  0
   58.8920   28.1680   44.7730 C   0  0  0  0  0  0  0  0  0  0  0  0
   56.3088   28.8141   43.2497 H   0  0  0  0  0  0  0  0  0  0  0  0
   55.3927   30.2352   42.6432 H   0  0  0  0  0  0  0  0  0  0  0  0
   57.1889   30.2579   42.6432 H   0  0  0  0  0  0  0  0  0  0  0  0
   56.6429   33.1520   44.5202 H   0  0  0  0  0  0  0  0  0  0  0  0
   59.6813   36.3694   45.9986 H   0  0  0  0  0  0  0  0  0  0  0  0
   63.6776   32.9209   48.0188 H   0  0  0  0  0  0  0  0  0  0  0  0
   63.3904   31.9626   46.5268 H   0  0  0  0  0  0  0  0  0  0  0  0
   63.0957   33.7346   46.5268 H   0  0  0  0  0  0  0  0  0  0  0  0
   61.6477   32.5592   49.6449 H   0  0  0  0  0  0  0  0  0  0  0  0
   60.3138   31.6475   48.8599 H   0  0  0  0  0  0  0  0  0  0  0  0
   61.9808   30.9782   48.8599 H   0  0  0  0  0  0  0  0  0  0  0  0
   60.2683   30.5396   46.7670 H   0  0  0  0  0  0  0  0  0  0  0  0
   59.4486   27.3848   45.3085 H   0  0  0  0  0  0  0  0  0  0  0  0
   58.1206   27.7030   44.1415 H   0  0  0  0  0  0  0  0  0  0  0  0
   59.5848   28.7436   44.1415 H   0  0  0  0  0  0  0  0  0  0  0  0
  1  2  1  0
  2  3  1  0
  3  4  2  0
  4  5  1  0
  5  6  2  0
  6  7  1  0
  7  8  2  0
  8  9  1  0
  9 10  1  0
 10 11  1  0
 10 12  1  0
  9 13  2  0
 13 14  1  0
 14 15  2  0
 15 16  1  0
 16 17  1  0
 15  3  1  0
 13  5  1  0
  1 18  1  0
  1 19  1  0
  1 20  1  0
  4 21  1  0
  7 22  1  0
 11 23  1  0
 11 24  1  0
 11 25  1  0
 12 26  1  0
 12 27  1  0
 12 28  1  0
 14 29  1  0
 17 30  1  0
 17 31  1  0
 17 32  1  0
M  END
>  <UniqueID>  (23) 
22

>  <SMILES>  (23) 
COc1cc2ncnc(N(C)C)c2cc1OC

>  <Energy>  (23) 
38.93477463328714

>  <Genealogy>  (23) 
COc1cc2ncnc(N(C)C)c2cc1OC (3D coordinates assigned)
COc1cc2ncnc(N(C)C)c2cc1OC (optimized conformer: 38.93477463328714 kcal/mol)

>  <smiles>  (23) 
COc1cc2ncnc(N(C)C)c2cc1OC

>  <score_type>  (23) 
oracle

>  <origin>  (23) 
adg

>  <m_score__min__energy>  (23) 
-5.1799999999999997

>  <m_primary>  (23) 
energy

$$$$
23:0
     RDKit          3D

 52 55  0  0  0  0  0  0  0  0999 V2000
   58.2170   28.7550   46.5390 C   0  0  0  0  0  0  0  0  0  0  0  0
   57.8550   29.6410   45.3760 C   0  0  0  0  0  0  0  0  0  0  0  0
   57.1990   29.0660   44.2730 C   0  0  0  0  0  0  0  0  0  0  0  0
   56.8060   29.8510   43.1880 C   0  0  0  0  0  0  0  0  0  0  0  0
   57.0660   31.2200   43.1870 C   0  0  0  0  0  0  0  0  0  0  0  0
   57.7340   31.8070   44.2630 C   0  0  0  0  0  0  0  0  0  0  0  0
   58.1540   31.0290   45.3570 C   0  0  0  0  0  0  0  0  0  0  0  0
   58.8890   31.7030   46.4510 C   0  0  0  0  0  0  0  0  0  0  0  0
   58.3380   32.3570   47.5410 C   0  0  0  0  0  0  0  0  0  0  0  0
   59.4270   32.7570   48.2960 C   0  0  0  0  0  0  0  0  0  0  0  0
   59.3610   33.5980   49.5080 C   0  0  0  0  0  0  0  0  0  0  0  0
   59.5190   34.8430   49.3910 O   0  0  0  0  0  0  0  0  0  0  0  0
   59.1310   33.0230   50.8110 N   0  0  0  0  0  0  0  0  0  0  0  0
   58.6100   33.8400   51.9120 C   0  0  0  0  0  0  0  0  0  0  0  0
   59.5910   33.8310   53.1040 C   0  0  0  0  0  0  0  0  0  0  0  0
   60.4070   32.6040   53.1980 N   0  0  0  0  0  0  0  0  0  0  0  0
   59.7430   31.4360   52.6060 C   0  0  0  0  0  0  0  0  0  0  0  0
   59.5430   31.6400   51.0970 C   0  0  0  0  0  0  0  0  0  0  0  0
   60.5610   32.3500   47.6790 N   0  0  0  0  0  0  0  0  0  0  0  0
   61.9150   32.4970   48.1420 C   0  0  0  0  0  0  0  0  0  0  0  0
   62.8190   33.2920   47.4220 C   0  0  0  0  0  0  0  0  0  0  0  0
   64.1430   33.4180   47.8510 C   0  0  0  0  0  0  0  0  0  0  0  0
   64.5750   32.7540   49.0010 C   0  0  0  0  0  0  0  0  0  0  0  0
   63.6810   31.9620   49.7420 C   0  0  0  0  0  0  0  0  0  0  0  0
   64.1570   31.1980   50.9520 C   0  0  0  0  0  0  0  0  0  0  0  0
   63.9110   31.9160   52.1100 F   0  0  0  0  0  0  0  0  0  0  0  0
   65.5180   30.9560   50.8750 F   0  0  0  0  0  0  0  0  0  0  0  0
   63.4880   29.9900   51.0200 F   0  0  0  0  0  0  0  0  0  0  0  0
   62.3590   31.8160   49.2870 C   0  0  0  0  0  0  0  0  0  0  0  0
   60.2310   31.7080   46.5690 N   0  0  0  0  0  0  0  0  0  0  0  0
   58.0022   29.2806   47.4811 H   0  0  0  0  0  0  0  0  0  0  0  0
   57.6251   27.8290   46.4926 H   0  0  0  0  0  0  0  0  0  0  0  0
   59.2880   28.5084   46.4926 H   0  0  0  0  0  0  0  0  0  0  0  0
   56.9933   27.9854   44.2653 H   0  0  0  0  0  0  0  0  0  0  0  0
   56.2907   29.3887   42.3331 H   0  0  0  0  0  0  0  0  0  0  0  0
   56.7443   31.8393   42.3367 H   0  0  0  0  0  0  0  0  0  0  0  0
   57.9339   32.8887   44.2553 H   0  0  0  0  0  0  0  0  0  0  0  0
   57.2723   32.5217   47.7581 H   0  0  0  0  0  0  0  0  0  0  0  0
   58.4746   34.8742   51.5626 H   0  0  0  0  0  0  0  0  0  0  0  0
   57.6473   33.4213   52.2407 H   0  0  0  0  0  0  0  0  0  0  0  0
   60.2692   34.6909   53.0009 H   0  0  0  0  0  0  0  0  0  0  0  0
   58.9823   33.8805   54.0189 H   0  0  0  0  0  0  0  0  0  0  0  0
   61.3120   32.7600   52.6930 H   0  0  0  0  0  0  0  0  0  0  0  0
   60.3643   30.5435   52.7717 H   0  0  0  0  0  0  0  0  0  0  0  0
   58.7596   31.3062   53.0814 H   0  0  0  0  0  0  0  0  0  0  0  0
   60.4883   31.4293   50.5754 H   0  0  0  0  0  0  0  0  0  0  0  0
   58.7551   30.9562   50.7483 H   0  0  0  0  0  0  0  0  0  0  0  0
   62.4844   33.8184   46.5160 H   0  0  0  0  0  0  0  0  0  0  0  0
   64.8470   34.0421   47.2811 H   0  0  0  0  0  0  0  0  0  0  0  0
   65.6205   32.8513   49.3287 H   0  0  0  0  0  0  0  0  0  0  0  0
   61.6647   31.1611   49.8339 H   0  0  0  0  0  0  0  0  0  0  0  0
   60.9110   31.2650   45.9100 H   0  0  0  0  0  0  0  0  0  0  0  0
  1  2  1  0
  2  3  2  0
  3  4  1  0
  4  5  2  0
  5  6  1  0
  6  7  2  0
  7  8  1  0
  8  9  1  0
  9 10  2  0
 10 11  1  0
 11 12  2  0
 11 13  1  0
 13 14  1  0
 14 15  1  0
 15 16  1  0
 16 17  1  0
 17 18  1  0
 10 19  1  0
 19 20  1  0
 20 21  2  0
 21 22  1  0
 22 23  2  0
 23 24  1  0
 24 25  1  0
 25 26  1  0
 25 27  1  0
 25 28  1  0
 24 29  2  0
 19 30  1  0
  7  2  1  0
 30  8  2  0
 18 13  1  0
 29 20  1  0
  1 31  1  0
  1 32  1  0
  1 33  1  0
  3 34  1  0
  4 35  1  0
  5 36  1  0
  6 37  1  0
  9 38  1  0
 14 39  1  0
 14 40  1  0
 15 41  1  0
 15 42  1  0
 16 43  1  0
 17 44  1  0
 17 45  1  0
 18 46  1  0
 18 47  1  0
 21 48  1  0
 22 49  1  0
 23 50  1  0
 29 51  1  0
 30 52  1  0
M  CHG  1  30   1
M  END
>  <UniqueID>  (24) 
23

>  <SMILES>  (24) 
Cc1ccccc1-c1cc(C(=O)N2CCNCC2)n(-c2cccc(C(F)(F)F)c2)[nH+]1

>  <Energy>  (24) 
105.53000254506668

>  <Genealogy>  (24) 
Cc1ccccc1-c1cc(C(=O)N2CCNCC2)n(-c2cccc(C(F)(F)F)c2)[nH+]1 (protonated)
Cc1ccccc1-c1cc(C(=O)N2CCNCC2)n(-c2cccc(C(F)(F)F)c2)[nH+]1 (3D coordinates assigned)
Cc1ccccc1-c1cc(C(=O)N2CCNCC2)n(-c2cccc(C(F)(F)F)c2)[nH+]1 (nonaromatic ring conformer: 105.53000254506668 kcal/mol)

>  <smiles>  (24) 
Cc1ccccc1-c1cc(C(=O)N2CCNCC2)n(-c2cccc(C(F)(F)F)c2)n1

>  <score_type>  (24) 
oracle

>  <origin>  (24) 
adg

>  <m_score__min__energy>  (24) 
-6.2000000000000002

>  <m_primary>  (24) 
energy

$$$$
24:0
     RDKit          3D

 45 47  0  0  0  0  0  0  0  0999 V2000
   55.9350   29.1460   44.8670 C   0  0  0  0  0  0  0  0  0  0  0  0
   55.8680   30.5540   44.5100 N   0  0  0  0  0  0  0  0  0  0  0  0
   57.0190   31.4030   44.4950 C   0  0  0  0  0  0  0  0  0  0  0  0
   57.3970   31.9420   43.4180 O   0  0  0  0  0  0  0  0  0  0  0  0
   57.7670   31.6660   45.7760 C   0  0  1  0  0  0  0  0  0  0  0  0
   59.1520   31.0000   45.7520 C   0  0  0  0  0  0  0  0  0  0  0  0
   59.9430   31.2520   47.0620 C   0  0  2  0  0  0  0  0  0  0  0  0
   60.0830   29.9960   47.9060 C   0  0  0  0  0  0  0  0  0  0  0  0
   59.6640   28.7560   47.3970 C   0  0  0  0  0  0  0  0  0  0  0  0
   59.8100   27.6020   48.1710 C   0  0  0  0  0  0  0  0  0  0  0  0
   60.3630   27.6750   49.4120 N   0  0  0  0  0  0  0  0  0  0  0  0
   60.7870   28.8600   49.9280 C   0  0  0  0  0  0  0  0  0  0  0  0
   60.6580   30.0370   49.1880 C   0  0  0  0  0  0  0  0  0  0  0  0
   59.3430   32.4060   47.8980 C   0  0  0  0  0  0  0  0  0  0  0  0
   58.9180   33.5500   47.0570 N   0  0  0  0  0  0  0  0  0  0  0  0
   60.0480   34.2950   46.4560 C   0  0  0  0  0  0  0  0  0  0  0  0
   61.3430   33.9890   47.1540 C   0  0  0  0  0  0  0  0  0  0  0  0
   62.4380   33.4830   46.4380 C   0  0  0  0  0  0  0  0  0  0  0  0
   63.6360   33.2320   47.1080 C   0  0  0  0  0  0  0  0  0  0  0  0
   63.7340   33.4860   48.4770 C   0  0  0  0  0  0  0  0  0  0  0  0
   62.6250   33.9920   49.1580 C   0  0  0  0  0  0  0  0  0  0  0  0
   61.4660   34.2320   48.4890 N   0  0  0  0  0  0  0  0  0  0  0  0
   57.8880   33.1870   46.0440 C   0  0  0  0  0  0  0  0  0  0  0  0
   55.9398   29.0453   45.9624 H   0  0  0  0  0  0  0  0  0  0  0  0
   55.0608   28.6211   44.4543 H   0  0  0  0  0  0  0  0  0  0  0  0
   56.8551   28.7065   44.4543 H   0  0  0  0  0  0  0  0  0  0  0  0
   57.1921   31.2206   46.6013 H   0  0  0  0  0  0  0  0  0  0  0  0
   59.0220   29.9158   45.6191 H   0  0  0  0  0  0  0  0  0  0  0  0
   59.7243   31.4381   44.9210 H   0  0  0  0  0  0  0  0  0  0  0  0
   60.9523   31.5558   46.7472 H   0  0  0  0  0  0  0  0  0  0  0  0
   59.2220   28.6935   46.3916 H   0  0  0  0  0  0  0  0  0  0  0  0
   59.4767   26.6311   47.7757 H   0  0  0  0  0  0  0  0  0  0  0  0
   60.4660   26.8050   49.9780 H   0  0  0  0  0  0  0  0  0  0  0  0
   61.2335   28.8912   50.9328 H   0  0  0  0  0  0  0  0  0  0  0  0
   61.0052   30.9931   49.6068 H   0  0  0  0  0  0  0  0  0  0  0  0
   58.4685   32.0270   48.4472 H   0  0  0  0  0  0  0  0  0  0  0  0
   60.1244   32.7654   48.5838 H   0  0  0  0  0  0  0  0  0  0  0  0
   60.1381   34.0140   45.3963 H   0  0  0  0  0  0  0  0  0  0  0  0
   59.8459   35.3713   46.5600 H   0  0  0  0  0  0  0  0  0  0  0  0
   62.3531   33.2860   45.3591 H   0  0  0  0  0  0  0  0  0  0  0  0
   64.5018   32.8346   46.5581 H   0  0  0  0  0  0  0  0  0  0  0  0
   64.6742   33.2898   49.0133 H   0  0  0  0  0  0  0  0  0  0  0  0
   62.6891   34.1967   50.2369 H   0  0  0  0  0  0  0  0  0  0  0  0
   56.9129   33.5534   46.3974 H   0  0  0  0  0  0  0  0  0  0  0  0
   58.2004   33.6503   45.0965 H   0  0  0  0  0  0  0  0  0  0  0  0
  1  2  1  0
  2  3  1  0
  3  4  2  0
  3  5  1  0
  5  6  1  0
  6  7  1  0
  7  8  1  0
  8  9  2  0
  9 10  1  0
 10 11  2  0
 11 12  1  0
 12 13  2  0
  7 14  1  0
 14 15  1  0
 15 16  1  0
 16 17  1  0
 17 18  2  0
 18 19  1  0
 19 20  2  0
 20 21  1  0
 21 22  2  0
 15 23  1  0
 23  5  1  0
 13  8  1  0
 22 17  1  0
  1 24  1  0
  1 25  1  0
  1 26  1  0
  5 27  1  1
  6 28  1  0
  6 29  1  0
  7 30  1  6
  9 31  1  0
 10 32  1  0
 11 33  1  0
 12 34  1  0
 13 35  1  0
 14 36  1  0
 14 37  1  0
 16 38  1  0
 16 39  1  0
 18 40  1  0
 19 41  1  0
 20 42  1  0
 21 43  1  0
 23 44  1  0
 23 45  1  0
M  CHG  2   2  -1  11   1
M  END
>  <UniqueID>  (25) 
24

>  <SMILES>  (25) 
C[N-]C(=O)[C@H]1C[C@H](c2cc[nH+]cc2)CN(Cc2ccccn2)C1

>  <Energy>  (25) 
55.475410719746606

>  <Genealogy>  (25) 
C[N-]C(=O)C1CC(c2cc[nH+]cc2)CN(Cc2ccccn2)C1 (protonated)
C[N-]C(=O)[C@H]1C[C@H](c2cc[nH+]cc2)CN(Cc2ccccn2)C1 (chirality)
C[N-]C(=O)[C@H]1C[C@H](c2cc[nH+]cc2)CN(Cc2ccccn2)C1 (3D coordinates assigned)
C[N-]C(=O)[C@H]1C[C@H](c2cc[nH+]cc2)CN(Cc2ccccn2)C1 (nonaromatic ring conformer: 55.475410719746606 kcal/mol)

>  <smiles>  (25) 
CNC(=O)C1CC(c2ccncc2)CN(Cc2ccccn2)C1

>  <score_type>  (25) 
oracle

>  <origin>  (25) 
adg

>  <m_score__min__energy>  (25) 
-7.1399999999999997

>  <m_primary>  (25) 
energy

$$$$
25:0
     RDKit          3D

 40 42  0  0  0  0  0  0  0  0999 V2000
   56.8180   26.5410   43.7510 H   0  0  0  0  0  0  0  0  0  0  0  0
   57.5250   26.6660   44.5110 N   0  0  0  0  0  0  0  0  0  0  0  0
   57.2790   27.3320   45.5970 C   0  0  0  0  0  0  0  0  0  0  0  0
   57.6590   28.7630   45.6980 C   0  0  0  0  0  0  0  0  0  0  0  0
   58.5140   29.2050   46.7220 C   0  0  0  0  0  0  0  0  0  0  0  0
   58.9027   28.4852   47.4573 H   0  0  0  0  0  0  0  0  0  0  0  0
   58.8740   30.5520   46.8130 C   0  0  0  0  0  0  0  0  0  0  0  0
   59.5432   30.8848   47.6201 H   0  0  0  0  0  0  0  0  0  0  0  0
   58.3880   31.4840   45.8820 C   0  0  0  0  0  0  0  0  0  0  0  0
   58.7590   32.8720   45.9840 N   0  0  0  0  0  0  0  0  0  0  0  0
   59.3030   33.4030   47.2380 C   0  0  0  0  0  0  0  0  0  0  0  0
   58.4766   33.7284   47.8869 H   0  0  0  0  0  0  0  0  0  0  0  0
   59.8828   32.6184   47.7461 H   0  0  0  0  0  0  0  0  0  0  0  0
   60.2160   34.5970   46.9370 C   0  0  0  0  0  0  0  0  0  0  0  0
   60.5182   35.0676   47.8842 H   0  0  0  0  0  0  0  0  0  0  0  0
   61.0993   34.2362   46.3897 H   0  0  0  0  0  0  0  0  0  0  0  0
   59.5460   35.5530   46.1370 O   0  0  0  0  0  0  0  0  0  0  0  0
   59.2570   34.9970   44.8680 C   0  0  0  0  0  0  0  0  0  0  0  0
   58.8210   35.7750   44.2241 H   0  0  0  0  0  0  0  0  0  0  0  0
   60.1908   34.6158   44.4290 H   0  0  0  0  0  0  0  0  0  0  0  0
   58.2650   33.8370   44.9960 C   0  0  0  0  0  0  0  0  0  0  0  0
   57.2882   34.2251   45.3204 H   0  0  0  0  0  0  0  0  0  0  0  0
   58.1587   33.3388   44.0211 H   0  0  0  0  0  0  0  0  0  0  0  0
   57.5280   31.0440   44.8620 C   0  0  0  0  0  0  0  0  0  0  0  0
   57.1359   31.7650   44.1296 H   0  0  0  0  0  0  0  0  0  0  0  0
   57.1670   29.6970   44.7710 C   0  0  0  0  0  0  0  0  0  0  0  0
   56.4926   29.3656   43.9676 H   0  0  0  0  0  0  0  0  0  0  0  0
   56.6010   26.6860   46.6890 N   0  0  0  0  0  0  0  0  0  0  0  0
   56.1900   27.2680   47.4510 H   0  0  0  0  0  0  0  0  0  0  0  0
   56.3020   25.3360   46.6920 O   0  0  0  0  0  0  0  0  0  0  0  0
   55.4830   24.7370   45.7280 C   0  0  0  0  0  0  0  0  0  0  0  0
   54.2730   25.0760   45.6160 O   0  0  0  0  0  0  0  0  0  0  0  0
   56.0510   23.7380   44.8170 C   0  0  0  0  0  0  0  0  0  0  0  0
   57.3490   22.7280   45.1710 S   0  0  0  0  0  0  0  0  0  0  0  0
   57.3690   21.9290   43.6910 C   0  0  0  0  0  0  0  0  0  0  0  0
   58.0678   21.1312   43.3992 H   0  0  0  0  0  0  0  0  0  0  0  0
   56.3520   22.4490   42.9000 C   0  0  0  0  0  0  0  0  0  0  0  0
   56.1466   22.0995   41.8774 H   0  0  0  0  0  0  0  0  0  0  0  0
   55.6130   23.4600   43.5270 C   0  0  0  0  0  0  0  0  0  0  0  0
   54.7714   23.9813   43.0475 H   0  0  0  0  0  0  0  0  0  0  0  0
  1  2  1  0
  2  3  2  0
  3  4  1  0
  4  5  2  0
  5  6  1  0
  5  7  1  0
  7  8  1  0
  7  9  2  0
  9 10  1  0
 10 11  1  0
 11 12  1  0
 11 13  1  0
 11 14  1  0
 14 15  1  0
 14 16  1  0
 14 17  1  0
 17 18  1  0
 18 19  1  0
 18 20  1  0
 18 21  1  0
 21 22  1  0
 21 23  1  0
  9 24  1  0
 24 25  1  0
 24 26  2  0
 26 27  1  0
  3 28  1  0
 28 29  1  0
 28 30  1  0
 30 31  1  0
 31 32  2  0
 31 33  1  0
 33 34  1  0
 34 35  1  0
 35 36  1  0
 35 37  2  0
 37 38  1  0
 37 39  1  0
 39 40  1  0
 26  4  1  0
 39 33  2  0
 21 10  1  0
M  END
>  <UniqueID>  (26) 
25

>  <SMILES>  (26) 
[H]/N=C(/NOC(=O)c1cccs1)c1ccc(N2CCOCC2)cc1

>  <Energy>  (26) 
80.71598491515878

>  <Genealogy>  (26) 
[H]/N=C(/NOC(=O)c1cccs1)c1ccc(N2CCOCC2)cc1 (cis-trans isomerization)
[H]/N=C(/NOC(=O)c1cccs1)c1ccc(N2CCOCC2)cc1 (3D coordinates assigned)
[H]/N=C(/NOC(=O)c1cccs1)c1ccc(N2CCOCC2)cc1 (nonaromatic ring conformer: 80.71598491515878 kcal/mol)

>  <smiles>  (26) 
N=C(NOC(=O)c1cccs1)c1ccc(N2CCOCC2)cc1

>  <score_type>  (26) 
oracle

>  <origin>  (26) 
adg

>  <m_score__min__energy>  (26) 
-7.9000000000000004

>  <m_primary>  (26) 
energy

$$$$
26:0
     RDKit          3D

 34 36  0  0  0  0  0  0  0  0999 V2000
   57.1920   34.0150   45.0040 C   0  0  0  0  0  0  0  0  0  0  0  0
   57.3800   32.5570   45.2760 C   0  0  0  0  0  0  0  0  0  0  0  0
   56.5200   31.6100   44.8580 N   0  0  0  0  0  0  0  0  0  0  0  0
   57.0090   30.4610   45.2250 O   0  0  0  0  0  0  0  0  0  0  0  0
   58.1440   30.6020   45.8710 C   0  0  0  0  0  0  0  0  0  0  0  0
   58.9100   29.4650   46.4190 C   0  0  0  0  0  0  0  0  0  0  0  0
   59.6360   28.5980   45.5880 C   0  0  0  0  0  0  0  0  0  0  0  0
   60.3710   27.5480   46.1420 C   0  0  0  0  0  0  0  0  0  0  0  0
   60.3860   27.3820   47.5280 C   0  0  0  0  0  0  0  0  0  0  0  0
   59.6990   28.2430   48.3240 N   0  0  0  0  0  0  0  0  0  0  0  0
   58.9760   29.2730   47.8080 C   0  0  0  0  0  0  0  0  0  0  0  0
   58.4410   31.9580   45.9370 C   0  0  0  0  0  0  0  0  0  0  0  0
   59.6710   32.6070   46.4330 C   0  0  0  0  0  0  0  0  0  0  0  0
   59.6590   33.8410   46.6930 O   0  0  0  0  0  0  0  0  0  0  0  0
   60.8780   31.8480   46.5880 N   0  0  0  0  0  0  0  0  0  0  0  0
   61.9950   32.2720   47.3890 C   0  0  0  0  0  0  0  0  0  0  0  0
   62.3280   31.5470   48.5450 C   0  0  0  0  0  0  0  0  0  0  0  0
   63.3950   31.9530   49.3510 C   0  0  0  0  0  0  0  0  0  0  0  0
   64.1310   33.0930   49.0180 C   0  0  0  0  0  0  0  0  0  0  0  0
   63.7950   33.8340   47.8830 C   0  0  0  0  0  0  0  0  0  0  0  0
   62.7270   33.4310   47.0730 C   0  0  0  0  0  0  0  0  0  0  0  0
   57.1218   34.5597   45.9571 H   0  0  0  0  0  0  0  0  0  0  0  0
   58.0487   34.3939   44.4274 H   0  0  0  0  0  0  0  0  0  0  0  0
   56.2672   34.1642   44.4274 H   0  0  0  0  0  0  0  0  0  0  0  0
   59.6260   28.7459   44.4980 H   0  0  0  0  0  0  0  0  0  0  0  0
   60.9321   26.8591   45.4934 H   0  0  0  0  0  0  0  0  0  0  0  0
   60.9543   26.5537   47.9762 H   0  0  0  0  0  0  0  0  0  0  0  0
   58.4409   29.9583   48.4818 H   0  0  0  0  0  0  0  0  0  0  0  0
   60.9890   30.9870   46.0060 H   0  0  0  0  0  0  0  0  0  0  0  0
   61.7456   30.6545   48.8175 H   0  0  0  0  0  0  0  0  0  0  0  0
   63.6559   31.3740   50.2492 H   0  0  0  0  0  0  0  0  0  0  0  0
   64.9750   33.4068   49.6498 H   0  0  0  0  0  0  0  0  0  0  0  0
   64.3703   34.7354   47.6252 H   0  0  0  0  0  0  0  0  0  0  0  0
   62.4589   34.0231   46.1856 H   0  0  0  0  0  0  0  0  0  0  0  0
  1  2  1  0
  2  3  2  0
  3  4  1  0
  4  5  1  0
  5  6  1  0
  6  7  2  0
  7  8  1  0
  8  9  2  0
  9 10  1  0
 10 11  2  0
  5 12  2  0
 12 13  1  0
 13 14  2  0
 13 15  1  0
 15 16  1  0
 16 17  2  0
 17 18  1  0
 18 19  2  0
 19 20  1  0
 20 21  2  0
 12  2  1  0
 21 16  1  0
 11  6  1  0
  1 22  1  0
  1 23  1  0
  1 24  1  0
  7 25  1  0
  8 26  1  0
  9 27  1  0
 11 28  1  0
 15 29  1  0
 17 30  1  0
 18 31  1  0
 19 32  1  0
 20 33  1  0
 21 34  1  0
M  END
>  <UniqueID>  (27) 
26

>  <SMILES>  (27) 
Cc1noc(-c2cccnc2)c1C(=O)Nc1ccccc1

>  <Energy>  (27) 
77.22432653046582

>  <Genealogy>  (27) 
Cc1noc(-c2cccnc2)c1C(=O)Nc1ccccc1 (3D coordinates assigned)
Cc1noc(-c2cccnc2)c1C(=O)Nc1ccccc1 (optimized conformer: 77.22432653046582 kcal/mol)

>  <smiles>  (27) 
Cc1noc(-c2cccnc2)c1C(=O)Nc1ccccc1

>  <score_type>  (27) 
oracle

>  <origin>  (27) 
adg

>  <m_score__min__energy>  (27) 
-7.25

>  <m_primary>  (27) 
energy

$$$$
27:0
     RDKit          3D

 31 32  0  0  0  0  0  0  0  0999 V2000
   63.6920   31.4520   50.6040 C   0  0  0  0  0  0  0  0  0  0  0  0
   64.1100   32.8190   50.0300 C   0  0  0  0  0  0  0  0  0  0  0  0
   63.8000   33.9270   51.0540 C   0  0  0  0  0  0  0  0  0  0  0  0
   65.6270   32.8030   49.7500 C   0  0  0  0  0  0  0  0  0  0  0  0
   63.3320   33.0860   48.7550 C   0  0  0  0  0  0  0  0  0  0  0  0
   61.9940   33.2560   48.6970 N   0  0  0  0  0  0  0  0  0  0  0  0
   61.6990   33.4600   47.4210 N   0  0  0  0  0  0  0  0  0  0  0  0
   60.3610   33.6810   46.9290 C   0  0  0  0  0  0  0  0  0  0  0  0
   60.1640   34.3560   45.7090 C   0  0  0  0  0  0  0  0  0  0  0  0
   58.8740   34.5790   45.2170 C   0  0  0  0  0  0  0  0  0  0  0  0
   57.7640   34.1280   45.9350 C   0  0  0  0  0  0  0  0  0  0  0  0
   57.9430   33.4550   47.1450 C   0  0  0  0  0  0  0  0  0  0  0  0
   59.2310   33.2300   47.6420 C   0  0  0  0  0  0  0  0  0  0  0  0
   62.8480   33.4100   46.7160 C   0  0  0  0  0  0  0  0  0  0  0  0
   63.8910   33.1770   47.5310 N   0  0  0  0  0  0  0  0  0  0  0  0
   63.7055   31.4962   51.7030 H   0  0  0  0  0  0  0  0  0  0  0  0
   62.6771   31.2045   50.2594 H   0  0  0  0  0  0  0  0  0  0  0  0
   64.3949   30.6792   50.2594 H   0  0  0  0  0  0  0  0  0  0  0  0
   63.9120   33.5268   52.0725 H   0  0  0  0  0  0  0  0  0  0  0  0
   64.4982   34.7648   50.9104 H   0  0  0  0  0  0  0  0  0  0  0  0
   62.7684   34.2808   50.9104 H   0  0  0  0  0  0  0  0  0  0  0  0
   66.1758   32.7972   50.7033 H   0  0  0  0  0  0  0  0  0  0  0  0
   65.8840   31.9021   49.1735 H   0  0  0  0  0  0  0  0  0  0  0  0
   65.9029   33.6983   49.1735 H   0  0  0  0  0  0  0  0  0  0  0  0
   61.0337   34.7116   45.1370 H   0  0  0  0  0  0  0  0  0  0  0  0
   58.7334   35.1099   44.2639 H   0  0  0  0  0  0  0  0  0  0  0  0
   56.7495   34.3030   45.5473 H   0  0  0  0  0  0  0  0  0  0  0  0
   57.0680   33.1004   47.7095 H   0  0  0  0  0  0  0  0  0  0  0  0
   59.3633   32.6977   48.5955 H   0  0  0  0  0  0  0  0  0  0  0  0
   62.9211   33.5415   45.6263 H   0  0  0  0  0  0  0  0  0  0  0  0
   64.8960   33.0840   47.2650 H   0  0  0  0  0  0  0  0  0  0  0  0
  1  2  1  0
  2  3  1  0
  2  4  1  0
  2  5  1  0
  5  6  2  0
  6  7  1  0
  7  8  1  0
  8  9  2  0
  9 10  1  0
 10 11  2  0
 11 12  1  0
 12 13  2  0
  7 14  1  0
 14 15  2  0
 15  5  1  0
 13  8  1  0
  1 16  1  0
  1 17  1  0
  1 18  1  0
  3 19  1  0
  3 20  1  0
  3 21  1  0
  4 22  1  0
  4 23  1  0
  4 24  1  0
  9 25  1  0
 10 26  1  0
 11 27  1  0
 12 28  1  0
 13 29  1  0
 14 30  1  0
 15 31  1  0
M  CHG  1  15   1
M  END
>  <UniqueID>  (28) 
27

>  <SMILES>  (28) 
CC(C)(C)c1nn(-c2ccccc2)c[nH+]1

>  <Energy>  (28) 
63.11984241356321

>  <Genealogy>  (28) 
CC(C)(C)c1nn(-c2ccccc2)c[nH+]1 (protonated)
CC(C)(C)c1nn(-c2ccccc2)c[nH+]1 (3D coordinates assigned)
CC(C)(C)c1nn(-c2ccccc2)c[nH+]1 (optimized conformer: 63.11984241356321 kcal/mol)

>  <smiles>  (28) 
CC(C)(C)c1ncn(-c2ccccc2)n1

>  <score_type>  (28) 
oracle

>  <origin>  (28) 
adg

>  <m_score__min__energy>  (28) 
-4.79

>  <m_primary>  (28) 
energy

$$$$
28:0
     RDKit          3D

 27 29  0  0  0  0  0  0  0  0999 V2000
   57.3340   34.2370   45.2450 C   0  0  0  0  0  0  0  0  0  0  0  0
   58.1760   33.1150   45.6420 N   0  0  0  0  0  0  0  0  0  0  0  0
   59.3970   33.3310   46.1580 N   0  0  0  0  0  0  0  0  0  0  0  0
   60.2540   32.3070   46.5010 C   0  0  0  0  0  0  0  0  0  0  0  0
   61.5830   32.6350   47.0540 C   0  0  0  0  0  0  0  0  0  0  0  0
   62.3090   33.7920   46.7900 C   0  0  0  0  0  0  0  0  0  0  0  0
   63.5410   33.8390   47.4540 C   0  0  0  0  0  0  0  0  0  0  0  0
   63.7930   32.7240   48.2430 C   0  0  0  0  0  0  0  0  0  0  0  0
   62.4810   31.6820   48.1120 S   0  0  0  0  0  0  0  0  0  0  0  0
   59.8780   30.9980   46.3120 N   0  0  0  0  0  0  0  0  0  0  0  0
   58.6400   30.7760   45.8180 C   0  0  0  0  0  0  0  0  0  0  0  0
   58.0680   29.6240   45.4490 N   0  0  0  0  0  0  0  0  0  0  0  0
   58.6430   28.2830   45.4980 C   0  0  0  0  0  0  0  0  0  0  0  0
   56.8950   30.0160   44.8720 C   0  0  0  0  0  0  0  0  0  0  0  0
   56.0780   29.2010   44.3660 O   0  0  0  0  0  0  0  0  0  0  0  0
   56.6790   31.3640   44.8620 N   0  0  0  0  0  0  0  0  0  0  0  0
   57.7840   31.8320   45.4700 C   0  0  0  0  0  0  0  0  0  0  0  0
   56.9527   34.7451   46.1431 H   0  0  0  0  0  0  0  0  0  0  0  0
   57.9253   34.9453   44.6462 H   0  0  0  0  0  0  0  0  0  0  0  0
   56.4886   33.8672   44.6462 H   0  0  0  0  0  0  0  0  0  0  0  0
   61.9504   34.5915   46.1249 H   0  0  0  0  0  0  0  0  0  0  0  0
   64.2435   34.6802   47.3596 H   0  0  0  0  0  0  0  0  0  0  0  0
   64.6951   32.5527   48.8487 H   0  0  0  0  0  0  0  0  0  0  0  0
   60.5140   30.2010   46.5320 H   0  0  0  0  0  0  0  0  0  0  0  0
   58.7737   27.9782   46.5468 H   0  0  0  0  0  0  0  0  0  0  0  0
   57.9688   27.5763   44.9921 H   0  0  0  0  0  0  0  0  0  0  0  0
   59.6197   28.2841   44.9921 H   0  0  0  0  0  0  0  0  0  0  0  0
  1  2  1  0
  2  3  1  0
  3  4  2  0
  4  5  1  0
  5  6  2  0
  6  7  1  0
  7  8  2  0
  8  9  1  0
  4 10  1  0
 10 11  2  0
 11 12  1  0
 12 13  1  0
 12 14  1  0
 14 15  2  0
 14 16  1  0
 16 17  2  0
 17  2  1  0
  9  5  1  0
 17 11  1  0
  1 18  1  0
  1 19  1  0
  1 20  1  0
  6 21  1  0
  7 22  1  0
  8 23  1  0
 10 24  1  0
 13 25  1  0
 13 26  1  0
 13 27  1  0
M  CHG  1  10   1
M  END
>  <UniqueID>  (29) 
28

>  <SMILES>  (29) 
Cn1nc(-c2cccs2)[nH+]c2n(C)c(=O)nc1-2

>  <Energy>  (29) 
98.59543454611752

>  <Genealogy>  (29) 
Cn1nc(-c2cccs2)[nH+]c2n(C)c(=O)nc1-2 (protonated)
Cn1nc(-c2cccs2)[nH+]c2n(C)c(=O)nc1-2 (3D coordinates assigned)
Cn1nc(-c2cccs2)[nH+]c2n(C)c(=O)nc1-2 (optimized conformer: 98.59543454611752 kcal/mol)

>  <smiles>  (29) 
Cn1nc(-c2cccs2)nc2n(C)c(=O)nc1-2

>  <score_type>  (29) 
oracle

>  <origin>  (29) 
adg

>  <m_score__min__energy>  (29) 
-4.9500000000000002

>  <m_primary>  (29) 
energy

$$$$
29:0
     RDKit          3D

 37 40  0  0  0  0  0  0  0  0999 V2000
   57.8680   28.2740   43.8770 Cl  0  0  0  0  0  0  0  0  0  0  0  0
   57.8920   29.8220   44.7030 C   0  0  0  0  0  0  0  0  0  0  0  0
   58.6270   29.9750   45.8850 C   0  0  0  0  0  0  0  0  0  0  0  0
   58.6440   31.2090   46.5440 C   0  0  0  0  0  0  0  0  0  0  0  0
   57.9220   32.2900   46.0250 C   0  0  0  0  0  0  0  0  0  0  0  0
   57.9260   33.8660   46.8800 S   0  0  0  0  0  0  0  0  0  0  0  0
   59.6690   33.7330   47.2910 C   0  0  0  0  0  0  0  0  0  0  0  0
   60.6500   33.9140   46.3750 N   0  0  0  0  0  0  0  0  0  0  0  0
   61.7830   33.6550   47.0480 C   0  0  0  0  0  0  0  0  0  0  0  0
   63.0930   33.6940   46.5770 C   0  0  0  0  0  0  0  0  0  0  0  0
   64.1230   33.3880   47.4860 C   0  0  0  0  0  0  0  0  0  0  0  0
   63.8200   33.0550   48.8270 C   0  0  0  0  0  0  0  0  0  0  0  0
   62.4850   33.0240   49.2710 C   0  0  0  0  0  0  0  0  0  0  0  0
   61.4850   33.3230   48.3420 C   0  0  0  0  0  0  0  0  0  0  0  0
   60.1490   33.3720   48.5110 N   0  0  0  0  0  0  0  0  0  0  0  0
   59.3960   33.0450   49.6910 C   0  0  0  0  0  0  0  0  0  0  0  0
   58.5540   31.9220   49.7060 C   0  0  0  0  0  0  0  0  0  0  0  0
   57.8020   31.6200   50.8440 C   0  0  0  0  0  0  0  0  0  0  0  0
   57.8840   32.4380   51.9750 C   0  0  0  0  0  0  0  0  0  0  0  0
   58.7200   33.5580   51.9680 C   0  0  0  0  0  0  0  0  0  0  0  0
   59.4740   33.8630   50.8290 C   0  0  0  0  0  0  0  0  0  0  0  0
   57.1950   32.1390   44.8380 C   0  0  0  0  0  0  0  0  0  0  0  0
   57.1770   30.9050   44.1800 C   0  0  0  0  0  0  0  0  0  0  0  0
   59.1912   29.1246   46.2955 H   0  0  0  0  0  0  0  0  0  0  0  0
   59.2249   31.3297   47.4703 H   0  0  0  0  0  0  0  0  0  0  0  0
   60.5480   34.1750   45.3690 H   0  0  0  0  0  0  0  0  0  0  0  0
   63.3148   33.9547   45.5316 H   0  0  0  0  0  0  0  0  0  0  0  0
   65.1707   33.4079   47.1514 H   0  0  0  0  0  0  0  0  0  0  0  0
   64.6340   32.8185   49.5280 H   0  0  0  0  0  0  0  0  0  0  0  0
   62.2374   32.7731   50.3130 H   0  0  0  0  0  0  0  0  0  0  0  0
   58.4860   31.2768   48.8177 H   0  0  0  0  0  0  0  0  0  0  0  0
   57.1448   30.7379   50.8503 H   0  0  0  0  0  0  0  0  0  0  0  0
   57.2906   32.2001   52.8701 H   0  0  0  0  0  0  0  0  0  0  0  0
   58.7854   34.2004   52.8585 H   0  0  0  0  0  0  0  0  0  0  0  0
   60.1296   34.7463   50.8256 H   0  0  0  0  0  0  0  0  0  0  0  0
   56.6376   32.9915   44.4227 H   0  0  0  0  0  0  0  0  0  0  0  0
   56.6004   30.7858   43.2508 H   0  0  0  0  0  0  0  0  0  0  0  0
  1  2  1  0
  2  3  2  0
  3  4  1  0
  4  5  2  0
  5  6  1  0
  6  7  1  0
  7  8  2  0
  8  9  1  0
  9 10  2  0
 10 11  1  0
 11 12  2  0
 12 13  1  0
 13 14  2  0
 14 15  1  0
 15 16  1  0
 16 17  2  0
 17 18  1  0
 18 19  2  0
 19 20  1  0
 20 21  2  0
  5 22  1  0
 22 23  2  0
 23  2  1  0
 15  7  1  0
 21 16  1  0
 14  9  1  0
  3 24  1  0
  4 25  1  0
  8 26  1  0
 10 27  1  0
 11 28  1  0
 12 29  1  0
 13 30  1  0
 17 31  1  0
 18 32  1  0
 19 33  1  0
 20 34  1  0
 21 35  1  0
 22 36  1  0
 23 37  1  0
M  CHG  1   8   1
M  END
>  <UniqueID>  (30) 
29

>  <SMILES>  (30) 
Clc1ccc(Sc2[nH+]c3ccccc3n2-c2ccccc2)cc1

>  <Energy>  (30) 
80.77212272560483

>  <Genealogy>  (30) 
Clc1ccc(Sc2[nH+]c3ccccc3n2-c2ccccc2)cc1 (protonated)
Clc1ccc(Sc2[nH+]c3ccccc3n2-c2ccccc2)cc1 (3D coordinates assigned)
Clc1ccc(Sc2[nH+]c3ccccc3n2-c2ccccc2)cc1 (optimized conformer: 80.77212272560483 kcal/mol)

>  <smiles>  (30) 
Clc1ccc(Sc2nc3ccccc3n2-c2ccccc2)cc1

>  <score_type>  (30) 
oracle

>  <origin>  (30) 
adg

>  <m_score__min__energy>  (30) 
-6.5999999999999996

>  <m_primary>  (30) 
energy

$$$$
30:0
     RDKit          3D

 34 36  0  0  0  0  0  0  0  0999 V2000
   62.6020   33.7520   51.4690 C   0  0  0  0  0  0  0  0  0  0  0  0
   62.2380   34.5360   50.3380 O   0  0  0  0  0  0  0  0  0  0  0  0
   61.4660   34.0700   49.2630 C   0  0  0  0  0  0  0  0  0  0  0  0
   60.0700   34.2560   49.2080 C   0  0  0  0  0  0  0  0  0  0  0  0
   59.3360   33.7760   48.1200 C   0  0  0  0  0  0  0  0  0  0  0  0
   59.9820   33.1040   47.0750 C   0  0  0  0  0  0  0  0  0  0  0  0
   59.2230   32.6120   45.9540 N   0  0  0  0  0  0  0  0  0  0  0  0
   58.8560   33.4590   44.9350 C   0  0  0  0  0  0  0  0  0  0  0  0
   59.2310   34.9150   44.9420 C   0  0  0  0  0  0  0  0  0  0  0  0
   58.1310   32.9880   43.8880 N   0  0  0  0  0  0  0  0  0  0  0  0
   57.7610   31.6870   43.8060 C   0  0  0  0  0  0  0  0  0  0  0  0
   57.0150   31.2380   42.7090 C   0  0  0  0  0  0  0  0  0  0  0  0
   56.6350   29.8960   42.6240 C   0  0  0  0  0  0  0  0  0  0  0  0
   56.9960   29.0000   43.6340 C   0  0  0  0  0  0  0  0  0  0  0  0
   57.7390   29.4400   44.7340 C   0  0  0  0  0  0  0  0  0  0  0  0
   58.1280   30.7900   44.8270 C   0  0  0  0  0  0  0  0  0  0  0  0
   58.8720   31.2870   45.9100 C   0  0  0  0  0  0  0  0  0  0  0  0
   59.2130   30.5100   46.8470 O   0  0  0  0  0  0  0  0  0  0  0  0
   61.3700   32.9210   47.1210 C   0  0  0  0  0  0  0  0  0  0  0  0
   62.1080   33.4000   48.2100 C   0  0  0  0  0  0  0  0  0  0  0  0
   64.0020   33.1260   48.2400 Br  0  0  0  0  0  0  0  0  0  0  0  0
   62.3488   34.2974   52.3901 H   0  0  0  0  0  0  0  0  0  0  0  0
   62.0546   32.7981   51.4455 H   0  0  0  0  0  0  0  0  0  0  0  0
   63.6839   33.5546   51.4455 H   0  0  0  0  0  0  0  0  0  0  0  0
   59.5555   34.7818   50.0258 H   0  0  0  0  0  0  0  0  0  0  0  0
   58.2469   33.9266   48.0843 H   0  0  0  0  0  0  0  0  0  0  0  0
   59.3212   35.2654   45.9808 H   0  0  0  0  0  0  0  0  0  0  0  0
   60.1928   35.0484   44.4252 H   0  0  0  0  0  0  0  0  0  0  0  0
   58.4533   35.4964   44.4252 H   0  0  0  0  0  0  0  0  0  0  0  0
   56.7281   31.9421   41.9140 H   0  0  0  0  0  0  0  0  0  0  0  0
   56.0508   29.5443   41.7608 H   0  0  0  0  0  0  0  0  0  0  0  0
   56.6945   27.9445   43.5634 H   0  0  0  0  0  0  0  0  0  0  0  0
   58.0196   28.7311   45.5269 H   0  0  0  0  0  0  0  0  0  0  0  0
   61.8817   32.3993   46.2989 H   0  0  0  0  0  0  0  0  0  0  0  0
  1  2  1  0
  2  3  1  0
  3  4  2  0
  4  5  1  0
  5  6  2  0
  6  7  1  0
  7  8  1  0
  8  9  1  0
  8 10  2  0
 10 11  1  0
 11 12  2  0
 12 13  1  0
 13 14  2  0
 14 15  1  0
 15 16  2  0
 16 17  1  0
 17 18  2  0
  6 19  1  0
 19 20  2  0
 20 21  1  0
 20  3  1  0
 17  7  1  0
 16 11  1  0
  1 22  1  0
  1 23  1  0
  1 24  1  0
  4 25  1  0
  5 26  1  0
  9 27  1  0
  9 28  1  0
  9 29  1  0
 12 30  1  0
 13 31  1  0
 14 32  1  0
 15 33  1  0
 19 34  1  0
M  END
>  <UniqueID>  (31) 
30

>  <SMILES>  (31) 
COc1ccc(-n2c(C)nc3ccccc3c2=O)cc1Br

>  <Energy>  (31) 
49.920677953646845

>  <Genealogy>  (31) 
COc1ccc(-n2c(C)nc3ccccc3c2=O)cc1Br (3D coordinates assigned)
COc1ccc(-n2c(C)nc3ccccc3c2=O)cc1Br (optimized conformer: 49.920677953646845 kcal/mol)

>  <smiles>  (31) 
COc1ccc(-n2c(C)nc3ccccc3c2=O)cc1Br

>  <score_type>  (31) 
oracle

>  <origin>  (31) 
adg

>  <m_score__min__energy>  (31) 
-7.1699999999999999

>  <m_primary>  (31) 
energy

$$$$
31:0
     RDKit          3D

 43 44  0  0  0  0  0  0  0  0999 V2000
   60.8050   28.5910   45.0460 C   0  0  0  0  0  0  0  0  0  0  0  0
   60.3370   28.0400   46.3930 C   0  0  0  0  0  0  0  0  0  0  0  0
   58.8790   28.2290   46.5690 N   0  0  0  0  0  0  0  0  0  0  0  0
   58.5740   29.3910   47.4440 C   0  0  0  0  0  0  0  0  0  0  0  0
   59.8750   29.9780   47.9820 C   0  0  0  0  0  0  0  0  0  0  0  0
   60.3110   30.9910   47.1470 F   0  0  0  0  0  0  0  0  0  0  0  0
   58.2080   28.3430   45.2530 C   0  0  0  0  0  0  0  0  0  0  0  0
   56.7460   27.8890   45.3420 C   0  0  0  0  0  0  0  0  0  0  0  0
   55.8480   29.0230   45.1490 N   0  0  0  0  0  0  0  0  0  0  0  0
   55.9880   29.9720   44.0860 C   0  0  0  0  0  0  0  0  0  0  0  0
   55.3760   29.7920   42.9990 O   0  0  0  0  0  0  0  0  0  0  0  0
   56.8580   31.1520   44.2790 C   0  0  0  0  0  0  0  0  0  0  0  0
   57.1070   31.5760   45.5490 N   0  0  0  0  0  0  0  0  0  0  0  0
   57.8950   32.6510   45.8040 C   0  0  0  0  0  0  0  0  0  0  0  0
   58.1350   33.0660   47.1190 C   0  0  0  0  0  0  0  0  0  0  0  0
   58.9500   34.1770   47.3600 C   0  0  0  0  0  0  0  0  0  0  0  0
   59.5250   34.8730   46.2900 C   0  0  0  0  0  0  0  0  0  0  0  0
   59.2880   34.4610   44.9740 C   0  0  0  0  0  0  0  0  0  0  0  0
   58.4740   33.3500   44.7290 C   0  0  0  0  0  0  0  0  0  0  0  0
   58.2310   32.9350   43.4600 N   0  0  0  0  0  0  0  0  0  0  0  0
   57.4400   31.8540   43.2010 C   0  0  0  0  0  0  0  0  0  0  0  0
   57.2110   31.4560   41.8790 O   0  0  0  0  0  0  0  0  0  0  0  0
   57.3680   32.3310   40.7690 C   0  0  0  0  0  0  0  0  0  0  0  0
   61.5088   29.4196   45.2134 H   0  0  0  0  0  0  0  0  0  0  0  0
   61.3060   27.7935   44.4777 H   0  0  0  0  0  0  0  0  0  0  0  0
   59.9369   28.9563   44.4777 H   0  0  0  0  0  0  0  0  0  0  0  0
   60.5684   26.9657   46.4416 H   0  0  0  0  0  0  0  0  0  0  0  0
   60.8590   28.5847   47.1936 H   0  0  0  0  0  0  0  0  0  0  0  0
   58.0388   30.1567   46.8633 H   0  0  0  0  0  0  0  0  0  0  0  0
   57.9452   29.0619   48.2844 H   0  0  0  0  0  0  0  0  0  0  0  0
   59.7036   30.3836   48.9900 H   0  0  0  0  0  0  0  0  0  0  0  0
   60.6396   29.1884   48.0261 H   0  0  0  0  0  0  0  0  0  0  0  0
   58.2398   29.3917   44.9224 H   0  0  0  0  0  0  0  0  0  0  0  0
   58.7331   27.6969   44.5341 H   0  0  0  0  0  0  0  0  0  0  0  0
   56.5522   27.1367   44.5633 H   0  0  0  0  0  0  0  0  0  0  0  0
   56.5666   27.4575   46.3378 H   0  0  0  0  0  0  0  0  0  0  0  0
   57.6839   32.5200   47.9607 H   0  0  0  0  0  0  0  0  0  0  0  0
   59.1396   34.5046   48.3928 H   0  0  0  0  0  0  0  0  0  0  0  0
   60.1650   35.7463   46.4844 H   0  0  0  0  0  0  0  0  0  0  0  0
   59.7405   35.0091   44.1345 H   0  0  0  0  0  0  0  0  0  0  0  0
   57.5514   33.3534   41.1311 H   0  0  0  0  0  0  0  0  0  0  0  0
   58.2210   31.9996   40.1587 H   0  0  0  0  0  0  0  0  0  0  0  0
   56.4530   32.3168   40.1587 H   0  0  0  0  0  0  0  0  0  0  0  0
  1  2  1  0
  2  3  1  0
  3  4  1  0
  4  5  1  0
  5  6  1  0
  3  7  1  0
  7  8  1  0
  8  9  1  0
  9 10  1  0
 10 11  2  0
 10 12  1  0
 12 13  2  0
 13 14  1  0
 14 15  2  0
 15 16  1  0
 16 17  2  0
 17 18  1  0
 18 19  2  0
 19 20  1  0
 20 21  2  0
 21 22  1  0
 22 23  1  0
 21 12  1  0
 19 14  1  0
  1 24  1  0
  1 25  1  0
  1 26  1  0
  2 27  1  0
  2 28  1  0
  4 29  1  0
  4 30  1  0
  5 31  1  0
  5 32  1  0
  7 33  1  0
  7 34  1  0
  8 35  1  0
  8 36  1  0
 15 37  1  0
 16 38  1  0
 17 39  1  0
 18 40  1  0
 23 41  1  0
 23 42  1  0
 23 43  1  0
M  CHG  1   9  -1
M  END
>  <UniqueID>  (32) 
31

>  <SMILES>  (32) 
CCN(CCF)CC[N-]C(=O)c1nc2ccccc2nc1OC

>  <Energy>  (32) 
41.656996745332854

>  <Genealogy>  (32) 
CCN(CCF)CC[N-]C(=O)c1nc2ccccc2nc1OC (protonated)
CCN(CCF)CC[N-]C(=O)c1nc2ccccc2nc1OC (3D coordinates assigned)
CCN(CCF)CC[N-]C(=O)c1nc2ccccc2nc1OC (optimized conformer: 41.656996745332854 kcal/mol)

>  <smiles>  (32) 
CCN(CCF)CCNC(=O)c1nc2ccccc2nc1OC

>  <score_type>  (32) 
oracle

>  <origin>  (32) 
adg

>  <m_score__min__energy>  (32) 
-8.75

>  <m_primary>  (32) 
energy

$$$$
32:0
     RDKit          3D

 45 47  0  0  0  0  0  0  0  0999 V2000
   55.8390   30.7312   42.5909 H   0  0  0  0  0  0  0  0  0  0  0  0
   56.5800   30.5930   43.3920 C   0  0  0  0  0  0  0  0  0  0  0  0
   56.3280   29.5730   44.4240 C   0  0  0  0  0  0  0  0  0  0  0  0
   55.1460   29.3840   44.8170 O   0  0  0  0  0  0  0  0  0  0  0  0
   57.4010   28.7680   44.9340 N   0  0  0  0  0  0  0  0  0  0  0  0
   58.4730   29.2070   45.7820 C   0  0  0  0  0  0  0  0  0  0  0  0
   58.2520   29.6420   47.1010 C   0  0  0  0  0  0  0  0  0  0  0  0
   57.2339   29.6336   47.5173 H   0  0  0  0  0  0  0  0  0  0  0  0
   59.3210   30.0850   47.8850 C   0  0  0  0  0  0  0  0  0  0  0  0
   59.1408   30.4174   48.9180 H   0  0  0  0  0  0  0  0  0  0  0  0
   60.6220   30.1080   47.3620 C   0  0  0  0  0  0  0  0  0  0  0  0
   61.7650   30.6140   48.2050 C   0  0  0  0  0  0  0  0  0  0  0  0
   61.6311   30.2649   49.2395 H   0  0  0  0  0  0  0  0  0  0  0  0
   62.7065   30.2282   47.7871 H   0  0  0  0  0  0  0  0  0  0  0  0
   61.8160   32.0920   48.1960 N   0  0  0  0  0  0  0  0  0  0  0  0
   63.2030   32.5910   48.3590 C   0  0  0  0  0  0  0  0  0  0  0  0
   63.1972   33.4305   49.0698 H   0  0  0  0  0  0  0  0  0  0  0  0
   63.8217   31.7604   48.7295 H   0  0  0  0  0  0  0  0  0  0  0  0
   63.8030   33.0730   47.0250 C   0  0  0  0  0  0  0  0  0  0  0  0
   64.8253   33.4331   47.2130 H   0  0  0  0  0  0  0  0  0  0  0  0
   63.7824   32.2179   46.3333 H   0  0  0  0  0  0  0  0  0  0  0  0
   63.0620   34.1210   46.4160 O   0  0  0  0  0  0  0  0  0  0  0  0
   61.6660   34.0650   46.6840 C   0  0  0  0  0  0  0  0  0  0  0  0
   61.4528   34.7086   47.5502 H   0  0  0  0  0  0  0  0  0  0  0  0
   61.1504   34.4024   45.7728 H   0  0  0  0  0  0  0  0  0  0  0  0
   61.1510   32.6490   46.9930 C   0  0  0  0  0  0  0  0  0  0  0  0
   60.0660   32.6913   47.1690 H   0  0  0  0  0  0  0  0  0  0  0  0
   61.3773   31.9989   46.1350 H   0  0  0  0  0  0  0  0  0  0  0  0
   60.8380   29.7020   46.0360 C   0  0  0  0  0  0  0  0  0  0  0  0
   61.8525   29.7320   45.6119 H   0  0  0  0  0  0  0  0  0  0  0  0
   59.7690   29.2600   45.2530 C   0  0  0  0  0  0  0  0  0  0  0  0
   59.9464   28.9510   44.2123 H   0  0  0  0  0  0  0  0  0  0  0  0
   57.6800   31.3590   43.3940 C   0  0  0  0  0  0  0  0  0  0  0  0
   58.4315   31.1893   42.6088 H   0  0  0  0  0  0  0  0  0  0  0  0
   57.9420   32.4230   44.3950 C   0  0  0  0  0  0  0  0  0  0  0  0
   57.3870   32.3980   45.6920 C   0  0  0  0  0  0  0  0  0  0  0  0
   56.7406   31.5610   45.9948 H   0  0  0  0  0  0  0  0  0  0  0  0
   57.6550   33.4330   46.5950 C   0  0  0  0  0  0  0  0  0  0  0  0
   57.2242   33.4036   47.6067 H   0  0  0  0  0  0  0  0  0  0  0  0
   58.4680   34.5030   46.2150 C   0  0  0  0  0  0  0  0  0  0  0  0
   58.6820   35.3119   46.9291 H   0  0  0  0  0  0  0  0  0  0  0  0
   59.0090   34.5460   44.9290 C   0  0  0  0  0  0  0  0  0  0  0  0
   59.6446   35.3920   44.6285 H   0  0  0  0  0  0  0  0  0  0  0  0
   58.7440   33.5150   44.0220 C   0  0  0  0  0  0  0  0  0  0  0  0
   59.1671   33.5592   43.0076 H   0  0  0  0  0  0  0  0  0  0  0  0
  1  2  1  0
  2  3  1  0
  3  4  2  0
  3  5  1  0
  5  6  1  0
  6  7  2  0
  7  8  1  0
  7  9  1  0
  9 10  1  0
  9 11  2  0
 11 12  1  0
 12 13  1  0
 12 14  1  0
 12 15  1  0
 15 16  1  0
 16 17  1  0
 16 18  1  0
 16 19  1  0
 19 20  1  0
 19 21  1  0
 19 22  1  0
 22 23  1  0
 23 24  1  0
 23 25  1  0
 23 26  1  0
 26 27  1  0
 26 28  1  0
 11 29  1  0
 29 30  1  0
 29 31  2  0
 31 32  1  0
  2 33  2  0
 33 34  1  0
 33 35  1  0
 35 36  2  0
 36 37  1  0
 36 38  1  0
 38 39  1  0
 38 40  2  0
 40 41  1  0
 40 42  1  0
 42 43  1  0
 42 44  2  0
 44 45  1  0
 31  6  1  0
 44 35  1  0
 26 15  1  0
M  CHG  1   5  -1
M  END
>  <UniqueID>  (33) 
32

>  <SMILES>  (33) 
O=C(/C=C/c1ccccc1)[N-]c1ccc(CN2CCOCC2)cc1

>  <Energy>  (33) 
65.24013783731654

>  <Genealogy>  (33) 
O=C(C=Cc1ccccc1)[N-]c1ccc(CN2CCOCC2)cc1 (protonated)
O=C(/C=C/c1ccccc1)[N-]c1ccc(CN2CCOCC2)cc1 (cis-trans isomerization)
O=C(/C=C/c1ccccc1)[N-]c1ccc(CN2CCOCC2)cc1 (3D coordinates assigned)
O=C(/C=C/c1ccccc1)[N-]c1ccc(CN2CCOCC2)cc1 (nonaromatic ring conformer: 65.24013783731654 kcal/mol)

>  <smiles>  (33) 
O=C(C=Cc1ccccc1)Nc1ccc(CN2CCOCC2)cc1

>  <score_type>  (33) 
oracle

>  <origin>  (33) 
adg

>  <m_score__min__energy>  (33) 
-10.460000000000001

>  <m_primary>  (33) 
energy

$$$$
33:0
     RDKit          3D

 32 34  0  0  0  0  0  0  0  0999 V2000
   59.6370   35.3380   46.0300 C   0  0  0  0  0  0  0  0  0  0  0  0
   58.9370   34.6270   44.8720 C   0  0  0  0  0  0  0  0  0  0  0  0
   57.4790   34.2560   45.1950 C   0  0  0  0  0  0  0  0  0  0  0  0
   57.3160   33.2160   46.3210 C   0  0  0  0  0  0  0  0  0  0  0  0
   58.1800   32.0310   46.1250 N   0  0  0  0  0  0  0  0  0  0  0  0
   59.4010   31.8370   46.7630 C   0  0  0  0  0  0  0  0  0  0  0  0
   59.9250   32.7740   47.6230 N   0  0  0  0  0  0  0  0  0  0  0  0
   61.1180   32.5950   48.2500 C   0  0  0  0  0  0  0  0  0  0  0  0
   61.8660   31.4440   48.0380 C   0  0  0  0  0  0  0  0  0  0  0  0
   61.3890   30.4690   47.1710 C   0  0  0  0  0  0  0  0  0  0  0  0
   60.1570   30.6440   46.5140 C   0  0  0  0  0  0  0  0  0  0  0  0
   59.6430   29.6830   45.6110 C   0  0  0  0  0  0  0  0  0  0  0  0
   60.4320   28.2810   45.2520 S   0  0  0  0  0  0  0  0  0  0  0  0
   58.4530   29.9540   45.0280 N   0  0  0  0  0  0  0  0  0  0  0  0
   57.7920   29.2080   44.1620 N   0  0  0  0  0  0  0  0  0  0  0  0
   56.6680   29.9070   43.8870 C   0  0  0  0  0  0  0  0  0  0  0  0
   56.5990   31.0820   44.5610 N   0  0  0  0  0  0  0  0  0  0  0  0
   57.7500   31.0610   45.2630 C   0  0  0  0  0  0  0  0  0  0  0  0
   59.2537   34.9487   46.9847 H   0  0  0  0  0  0  0  0  0  0  0  0
   60.7205   35.1584   45.9693 H   0  0  0  0  0  0  0  0  0  0  0  0
   59.4405   36.4186   45.9693 H   0  0  0  0  0  0  0  0  0  0  0  0
   58.9448   35.2913   43.9953 H   0  0  0  0  0  0  0  0  0  0  0  0
   59.4823   33.6913   44.6793 H   0  0  0  0  0  0  0  0  0  0  0  0
   56.9502   35.1726   45.4953 H   0  0  0  0  0  0  0  0  0  0  0  0
   57.0649   33.7976   44.2848 H   0  0  0  0  0  0  0  0  0  0  0  0
   57.5775   33.6890   47.2791 H   0  0  0  0  0  0  0  0  0  0  0  0
   56.2707   32.8736   46.3120 H   0  0  0  0  0  0  0  0  0  0  0  0
   59.4490   33.6720   47.8330 H   0  0  0  0  0  0  0  0  0  0  0  0
   61.4951   33.3705   48.9329 H   0  0  0  0  0  0  0  0  0  0  0  0
   62.8284   31.3056   48.5525 H   0  0  0  0  0  0  0  0  0  0  0  0
   61.9772   29.5558   46.9973 H   0  0  0  0  0  0  0  0  0  0  0  0
   55.8912   29.5594   43.1900 H   0  0  0  0  0  0  0  0  0  0  0  0
  1  2  1  0
  2  3  1  0
  3  4  1  0
  4  5  1  0
  5  6  1  0
  6  7  2  0
  7  8  1  0
  8  9  2  0
  9 10  1  0
 10 11  2  0
 11 12  1  0
 12 13  2  0
 12 14  1  0
 14 15  1  0
 15 16  2  0
 16 17  1  0
 17 18  2  0
 18  5  1  0
 11  6  1  0
 18 14  1  0
  1 19  1  0
  1 20  1  0
  1 21  1  0
  2 22  1  0
  2 23  1  0
  3 24  1  0
  3 25  1  0
  4 26  1  0
  4 27  1  0
  7 28  1  0
  8 29  1  0
  9 30  1  0
 10 31  1  0
 16 32  1  0
M  CHG  1   7   1
M  END
>  <UniqueID>  (34) 
33

>  <SMILES>  (34) 
CCCCn1c2[nH+]cccc2c(=S)n2ncnc12

>  <Energy>  (34) 
81.53101374776915

>  <Genealogy>  (34) 
CCCCn1c2[nH+]cccc2c(=S)n2ncnc12 (protonated)
CCCCn1c2[nH+]cccc2c(=S)n2ncnc12 (3D coordinates assigned)
CCCCn1c2[nH+]cccc2c(=S)n2ncnc12 (optimized conformer: 81.53101374776915 kcal/mol)

>  <smiles>  (34) 
CCCCn1c2ncccc2c(=S)n2ncnc12

>  <score_type>  (34) 
oracle

>  <origin>  (34) 
adg

>  <m_score__min__energy>  (34) 
-4.7300000000000004

>  <m_primary>  (34) 
energy

$$$$
34:0
     RDKit          3D

 38 40  0  0  0  0  0  0  0  0999 V2000
   56.6270   30.1090   43.1390 C   0  0  0  0  0  0  0  0  0  0  0  0
   56.5040   30.4970   44.5040 O   0  0  0  0  0  0  0  0  0  0  0  0
   57.2920   31.4800   45.1270 C   0  0  0  0  0  0  0  0  0  0  0  0
   57.0320   32.8540   44.9620 C   0  0  0  0  0  0  0  0  0  0  0  0
   57.8360   33.8060   45.5930 C   0  0  0  0  0  0  0  0  0  0  0  0
   58.9070   33.4050   46.3950 C   0  0  0  0  0  0  0  0  0  0  0  0
   59.8910   34.6240   47.1970 S   0  0  0  0  0  0  0  0  0  0  0  0
   59.9720   35.8780   46.3730 O   0  0  0  0  0  0  0  0  0  0  0  0
   59.2720   34.9580   48.5260 O   0  0  0  0  0  0  0  0  0  0  0  0
   61.4900   33.9990   47.4360 N   0  0  0  0  0  0  0  0  0  0  0  0
   62.4690   33.8030   46.3700 C   0  0  0  0  0  0  0  0  0  0  0  0
   63.7770   33.3640   47.0770 C   0  0  0  0  0  0  0  0  0  0  0  0
   63.4200   33.4060   48.5230 C   0  0  0  0  0  0  0  0  0  0  0  0
   64.2330   33.1230   49.6220 C   0  0  0  0  0  0  0  0  0  0  0  0
   63.6790   33.2210   50.9100 C   0  0  0  0  0  0  0  0  0  0  0  0
   62.3310   33.5940   51.0740 C   0  0  0  0  0  0  0  0  0  0  0  0
   61.5320   33.8700   49.9530 C   0  0  0  0  0  0  0  0  0  0  0  0
   62.1100   33.7660   48.6840 C   0  0  0  0  0  0  0  0  0  0  0  0
   59.1740   32.0400   46.5660 C   0  0  0  0  0  0  0  0  0  0  0  0
   58.3710   31.0740   45.9370 C   0  0  0  0  0  0  0  0  0  0  0  0
   58.6730   29.6130   46.1160 C   0  0  0  0  0  0  0  0  0  0  0  0
   56.9590   29.0617   43.0840 H   0  0  0  0  0  0  0  0  0  0  0  0
   55.6523   30.2114   42.6394 H   0  0  0  0  0  0  0  0  0  0  0  0
   57.3647   30.7542   42.6394 H   0  0  0  0  0  0  0  0  0  0  0  0
   56.1908   33.1795   44.3325 H   0  0  0  0  0  0  0  0  0  0  0  0
   57.6247   34.8770   45.4577 H   0  0  0  0  0  0  0  0  0  0  0  0
   62.1279   33.0216   45.6749 H   0  0  0  0  0  0  0  0  0  0  0  0
   62.6148   34.7194   45.7792 H   0  0  0  0  0  0  0  0  0  0  0  0
   64.0666   32.3474   46.7726 H   0  0  0  0  0  0  0  0  0  0  0  0
   64.6353   34.0054   46.8282 H   0  0  0  0  0  0  0  0  0  0  0  0
   65.2840   32.8298   49.4830 H   0  0  0  0  0  0  0  0  0  0  0  0
   64.2999   33.0058   51.7921 H   0  0  0  0  0  0  0  0  0  0  0  0
   61.9024   33.6694   52.0843 H   0  0  0  0  0  0  0  0  0  0  0  0
   60.4776   34.1608   50.0701 H   0  0  0  0  0  0  0  0  0  0  0  0
   60.0176   31.7229   47.1967 H   0  0  0  0  0  0  0  0  0  0  0  0
   58.7217   29.3775   47.1894 H   0  0  0  0  0  0  0  0  0  0  0  0
   57.8797   29.0142   45.6448 H   0  0  0  0  0  0  0  0  0  0  0  0
   59.6388   29.3778   45.6448 H   0  0  0  0  0  0  0  0  0  0  0  0
  1  2  1  0
  2  3  1  0
  3  4  2  0
  4  5  1  0
  5  6  2  0
  6  7  1  0
  7  8  2  0
  7  9  2  0
  7 10  1  0
 10 11  1  0
 11 12  1  0
 12 13  1  0
 13 14  2  0
 14 15  1  0
 15 16  2  0
 16 17  1  0
 17 18  2  0
  6 19  1  0
 19 20  2  0
 20 21  1  0
 20  3  1  0
 18 10  1  0
 18 13  1  0
  1 22  1  0
  1 23  1  0
  1 24  1  0
  4 25  1  0
  5 26  1  0
 11 27  1  0
 11 28  1  0
 12 29  1  0
 12 30  1  0
 14 31  1  0
 15 32  1  0
 16 33  1  0
 17 34  1  0
 19 35  1  0
 21 36  1  0
 21 37  1  0
 21 38  1  0
M  END
>  <UniqueID>  (35) 
34

>  <SMILES>  (35) 
COc1ccc(S(=O)(=O)N2CCc3ccccc32)cc1C

>  <Energy>  (35) 
54.151151450310124

>  <Genealogy>  (35) 
COc1ccc(S(=O)(=O)N2CCc3ccccc32)cc1C (3D coordinates assigned)
COc1ccc(S(=O)(=O)N2CCc3ccccc32)cc1C (nonaromatic ring conformer: 54.151151450310124 kcal/mol)

>  <smiles>  (35) 
COc1ccc(S(=O)(=O)N2CCc3ccccc32)cc1C

>  <score_type>  (35) 
oracle

>  <origin>  (35) 
adg

>  <m_score__min__energy>  (35) 
-7.8399999999999999

>  <m_primary>  (35) 
energy

$$$$
35:0
     RDKit          3D

 36 38  0  0  0  0  0  0  0  0999 V2000
   55.5200   29.7120   43.6900 C   0  0  0  0  0  0  0  0  0  0  0  0
   56.6340   30.2360   44.4990 N   0  0  0  0  0  0  0  0  0  0  0  0
   57.2200   31.4220   43.8430 C   0  0  0  0  0  0  0  0  0  0  0  0
   57.5230   32.4720   44.8630 C   0  0  0  0  0  0  0  0  0  0  0  0
   58.7400   33.0340   45.0250 N   0  0  0  0  0  0  0  0  0  0  0  0
   58.5000   33.9280   46.0080 C   0  0  0  0  0  0  0  0  0  0  0  0
   59.5670   34.8470   46.5420 C   0  0  0  0  0  0  0  0  0  0  0  0
   60.9240   34.2210   46.8250 C   0  0  0  0  0  0  0  0  0  0  0  0
   60.0000   34.5900   47.9770 C   0  0  0  0  0  0  0  0  0  0  0  0
   57.2110   33.8960   46.4020 N   0  0  0  0  0  0  0  0  0  0  0  0
   56.6350   32.9900   45.6770 O   0  0  0  0  0  0  0  0  0  0  0  0
   57.6560   29.1880   44.7130 C   0  0  0  0  0  0  0  0  0  0  0  0
   58.5760   29.5810   45.8320 C   0  0  0  0  0  0  0  0  0  0  0  0
   58.1670   30.2990   46.9000 N   0  0  0  0  0  0  0  0  0  0  0  0
   59.2870   30.4740   47.6300 C   0  0  0  0  0  0  0  0  0  0  0  0
   60.3510   29.8720   46.9970 C   0  0  0  0  0  0  0  0  0  0  0  0
   59.8960   29.3020   45.8700 N   0  0  0  0  0  0  0  0  0  0  0  0
   60.6980   28.6160   44.8600 C   0  0  0  0  0  0  0  0  0  0  0  0
   54.7273   29.3392   44.3553 H   0  0  0  0  0  0  0  0  0  0  0  0
   55.1181   30.5155   43.0553 H   0  0  0  0  0  0  0  0  0  0  0  0
   55.8827   28.8901   43.0553 H   0  0  0  0  0  0  0  0  0  0  0  0
   58.1493   31.1330   43.3304 H   0  0  0  0  0  0  0  0  0  0  0  0
   56.5013   31.8235   43.1134 H   0  0  0  0  0  0  0  0  0  0  0  0
   59.2226   35.7225   45.9721 H   0  0  0  0  0  0  0  0  0  0  0  0
   61.1037   33.1636   46.5810 H   0  0  0  0  0  0  0  0  0  0  0  0
   61.9629   34.4600   46.5537 H   0  0  0  0  0  0  0  0  0  0  0  0
   59.5119   33.7992   48.5656 H   0  0  0  0  0  0  0  0  0  0  0  0
   60.0944   35.2062   48.8833 H   0  0  0  0  0  0  0  0  0  0  0  0
   56.7340   34.4750   47.1280 H   0  0  0  0  0  0  0  0  0  0  0  0
   57.1575   28.2412   44.9681 H   0  0  0  0  0  0  0  0  0  0  0  0
   58.2439   29.0668   43.7912 H   0  0  0  0  0  0  0  0  0  0  0  0
   59.3422   31.0154   48.5859 H   0  0  0  0  0  0  0  0  0  0  0  0
   61.3919   29.8601   47.3525 H   0  0  0  0  0  0  0  0  0  0  0  0
   61.4442   27.9777   45.3558 H   0  0  0  0  0  0  0  0  0  0  0  0
   60.0431   27.9943   44.2319 H   0  0  0  0  0  0  0  0  0  0  0  0
   61.2107   29.3594   44.2319 H   0  0  0  0  0  0  0  0  0  0  0  0
  1  2  1  0
  2  3  1  0
  3  4  1  0
  4  5  2  0
  5  6  1  0
  6  7  1  0
  7  8  1  0
  8  9  1  0
  6 10  2  0
 10 11  1  0
  2 12  1  0
 12 13  1  0
 13 14  2  0
 14 15  1  0
 15 16  2  0
 16 17  1  0
 17 18  1  0
 11  4  1  0
 17 13  1  0
  9  7  1  0
  1 19  1  0
  1 20  1  0
  1 21  1  0
  3 22  1  0
  3 23  1  0
  7 24  1  0
  8 25  1  0
  8 26  1  0
  9 27  1  0
  9 28  1  0
 10 29  1  0
 12 30  1  0
 12 31  1  0
 15 32  1  0
 16 33  1  0
 18 34  1  0
 18 35  1  0
 18 36  1  0
M  CHG  1  10   1
M  END
>  <UniqueID>  (36) 
35

>  <SMILES>  (36) 
CN(Cc1nc(C2CC2)[nH+]o1)Cc1nccn1C

>  <Energy>  (36) 
361.76698033616844

>  <Genealogy>  (36) 
CN(Cc1nc(C2CC2)[nH+]o1)Cc1nccn1C (protonated)
CN(Cc1nc(C2CC2)[nH+]o1)Cc1nccn1C (3D coordinates assigned)
CN(Cc1nc(C2CC2)[nH+]o1)Cc1nccn1C (nonaromatic ring conformer: 361.76698033616844 kcal/mol)

>  <smiles>  (36) 
CN(Cc1nc(C2CC2)no1)Cc1nccn1C

>  <score_type>  (36) 
oracle

>  <origin>  (36) 
adg

>  <m_score__min__energy>  (36) 
-5.3300000000000001

>  <m_primary>  (36) 
energy

$$$$
36:0
     RDKit          3D

 51 53  0  0  0  0  0  0  0  0999 V2000
   58.9880   29.8030   48.2420 C   0  0  0  0  0  0  0  0  0  0  0  0
   59.3680   30.1260   46.8580 N   0  0  0  0  0  0  0  0  0  0  0  0
   60.7440   30.6370   46.7690 C   0  0  0  0  0  0  0  0  0  0  0  0
   59.0390   29.0650   45.8750 C   0  0  0  0  0  0  0  0  0  0  0  0
   57.6190   29.1110   45.2640 C   0  0  0  0  0  0  0  0  0  0  0  0
   57.3310   30.3720   44.4400 C   0  0  0  0  0  0  0  0  0  0  0  0
   57.0190   31.4690   45.2990 O   0  0  0  0  0  0  0  0  0  0  0  0
   57.7760   32.6440   45.4320 C   0  0  0  0  0  0  0  0  0  0  0  0
   58.1790   33.4210   44.3280 C   0  0  0  0  0  0  0  0  0  0  0  0
   58.9280   34.5830   44.5240 C   0  0  0  0  0  0  0  0  0  0  0  0
   59.2860   34.9820   45.8130 C   0  0  0  0  0  0  0  0  0  0  0  0
   58.9000   34.2190   46.9250 C   0  0  0  0  0  0  0  0  0  0  0  0
   59.2840   34.6500   48.2440 N   0  0  0  0  0  0  0  0  0  0  0  0
   60.0890   33.8630   49.1350 C   0  0  0  0  0  0  0  0  0  0  0  0
   59.5480   33.4820   50.3610 C   0  0  0  0  0  0  0  0  0  0  0  0
   60.2860   32.6890   51.2320 C   0  0  0  0  0  0  0  0  0  0  0  0
   61.5510   32.2760   50.9170 N   0  0  0  0  0  0  0  0  0  0  0  0
   62.2640   31.4270   51.8860 C   0  0  0  0  0  0  0  0  0  0  0  0
   62.1330   32.6630   49.7260 C   0  0  0  0  0  0  0  0  0  0  0  0
   63.4500   32.2720   49.3820 C   0  0  0  0  0  0  0  0  0  0  0  0
   64.0300   32.6920   48.1850 C   0  0  0  0  0  0  0  0  0  0  0  0
   63.3230   33.5130   47.3120 C   0  0  0  0  0  0  0  0  0  0  0  0
   62.0240   33.9120   47.6220 C   0  0  0  0  0  0  0  0  0  0  0  0
   61.4080   33.4810   48.8140 C   0  0  0  0  0  0  0  0  0  0  0  0
   58.1330   33.0550   46.7220 C   0  0  0  0  0  0  0  0  0  0  0  0
   59.6367   30.3544   48.9385 H   0  0  0  0  0  0  0  0  0  0  0  0
   57.9399   30.0909   48.4112 H   0  0  0  0  0  0  0  0  0  0  0  0
   59.1033   28.7222   48.4112 H   0  0  0  0  0  0  0  0  0  0  0  0
   61.1459   30.7863   47.7820 H   0  0  0  0  0  0  0  0  0  0  0  0
   61.3704   29.9115   46.2292 H   0  0  0  0  0  0  0  0  0  0  0  0
   60.7450   31.5955   46.2292 H   0  0  0  0  0  0  0  0  0  0  0  0
   59.7615   29.1384   45.0488 H   0  0  0  0  0  0  0  0  0  0  0  0
   59.0850   28.1208   46.4374 H   0  0  0  0  0  0  0  0  0  0  0  0
   57.4963   28.2355   44.6095 H   0  0  0  0  0  0  0  0  0  0  0  0
   56.9118   29.1150   46.1065 H   0  0  0  0  0  0  0  0  0  0  0  0
   58.2180   30.6229   43.8398 H   0  0  0  0  0  0  0  0  0  0  0  0
   56.4708   30.1789   43.7821 H   0  0  0  0  0  0  0  0  0  0  0  0
   57.9029   33.1115   43.3092 H   0  0  0  0  0  0  0  0  0  0  0  0
   59.2375   35.1871   43.6584 H   0  0  0  0  0  0  0  0  0  0  0  0
   59.8743   35.9002   45.9575 H   0  0  0  0  0  0  0  0  0  0  0  0
   58.8440   35.5160   48.6320 H   0  0  0  0  0  0  0  0  0  0  0  0
   58.5355   33.8091   50.6401 H   0  0  0  0  0  0  0  0  0  0  0  0
   59.8439   32.3879   52.1932 H   0  0  0  0  0  0  0  0  0  0  0  0
   62.0026   31.7382   52.9082 H   0  0  0  0  0  0  0  0  0  0  0  0
   61.9732   30.3767   51.7369 H   0  0  0  0  0  0  0  0  0  0  0  0
   63.3488   31.5319   51.7369 H   0  0  0  0  0  0  0  0  0  0  0  0
   64.0224   31.6293   50.0670 H   0  0  0  0  0  0  0  0  0  0  0  0
   65.0513   32.3726   47.9300 H   0  0  0  0  0  0  0  0  0  0  0  0
   63.7906   33.8481   46.3744 H   0  0  0  0  0  0  0  0  0  0  0  0
   61.4753   34.5685   46.9307 H   0  0  0  0  0  0  0  0  0  0  0  0
   57.8099   32.4605   47.5893 H   0  0  0  0  0  0  0  0  0  0  0  0
  1  2  1  0
  2  3  1  0
  2  4  1  0
  4  5  1  0
  5  6  1  0
  6  7  1  0
  7  8  1  0
  8  9  2  0
  9 10  1  0
 10 11  2  0
 11 12  1  0
 12 13  1  0
 13 14  1  0
 14 15  2  0
 15 16  1  0
 16 17  2  0
 17 18  1  0
 17 19  1  0
 19 20  2  0
 20 21  1  0
 21 22  2  0
 22 23  1  0
 23 24  2  0
 12 25  2  0
 25  8  1  0
 24 14  1  0
 24 19  1  0
  1 26  1  0
  1 27  1  0
  1 28  1  0
  3 29  1  0
  3 30  1  0
  3 31  1  0
  4 32  1  0
  4 33  1  0
  5 34  1  0
  5 35  1  0
  6 36  1  0
  6 37  1  0
  9 38  1  0
 10 39  1  0
 11 40  1  0
 13 41  1  0
 15 42  1  0
 16 43  1  0
 18 44  1  0
 18 45  1  0
 18 46  1  0
 20 47  1  0
 21 48  1  0
 22 49  1  0
 23 50  1  0
 25 51  1  0
M  CHG  1  17   1
M  END
>  <UniqueID>  (37) 
36

>  <SMILES>  (37) 
CN(C)CCCOc1cccc(Nc2cc[n+](C)c3ccccc23)c1

>  <Energy>  (37) 
71.7498306544489

>  <Genealogy>  (37) 
CN(C)CCCOc1cccc(Nc2cc[n+](C)c3ccccc23)c1 (3D coordinates assigned)
CN(C)CCCOc1cccc(Nc2cc[n+](C)c3ccccc23)c1 (optimized conformer: 71.7498306544489 kcal/mol)

>  <smiles>  (37) 
CN(C)CCCOc1cccc(Nc2cc[n+](C)c3ccccc23)c1

>  <score_type>  (37) 
oracle

>  <origin>  (37) 
adg

>  <m_score__min__energy>  (37) 
-6.3600000000000003

>  <m_primary>  (37) 
energy

$$$$
37:0
     RDKit          3D

 81 82  0  0  0  0  0  0  0  0999 V2000
   56.5390   23.6470   43.2610 C   0  0  0  0  0  0  0  0  0  0  0  0
   56.0520   23.9750   44.6690 C   0  0  0  0  0  0  0  0  0  0  0  0
   57.0730   24.8380   45.4220 C   0  0  0  0  0  0  0  0  0  0  0  0
   56.3720   25.9490   46.2190 C   0  0  0  0  0  0  0  0  0  0  0  0
   57.3320   27.0810   46.6270 C   0  0  0  0  0  0  0  0  0  0  0  0
   58.8280   26.7290   46.5240 C   0  0  0  0  0  0  0  0  0  0  0  0
   59.6820   27.2660   47.6870 C   0  0  0  0  0  0  0  0  0  0  0  0
   58.9930   28.3310   48.4230 N   0  0  0  0  0  0  0  0  0  0  0  0
   59.5300   29.3500   49.0390 C   0  0  0  0  0  0  0  0  0  0  0  0
   58.8160   30.5290   49.3260 C   0  0  0  0  0  0  0  0  0  0  0  0
   59.4450   31.5680   50.0160 C   0  0  0  0  0  0  0  0  0  0  0  0
   60.7570   31.4650   50.3910 N   0  0  0  0  0  0  0  0  0  0  0  0
   61.3930   32.5720   51.1210 C   0  0  0  0  0  0  0  0  0  0  0  0
   62.0800   33.5750   50.1770 C   0  0  0  0  0  0  0  0  0  0  0  0
   63.5910   33.3330   50.0060 C   0  0  0  0  0  0  0  0  0  0  0  0
   63.9030   32.0650   49.1910 C   0  0  0  0  0  0  0  0  0  0  0  0
   63.4840   32.1830   47.7110 C   0  0  0  0  0  0  0  0  0  0  0  0
   63.4270   33.6310   47.1830 C   0  0  0  0  0  0  0  0  0  0  0  0
   62.1630   33.9970   46.3850 C   0  0  0  0  0  0  0  0  0  0  0  0
   60.8910   33.9980   47.2450 C   0  0  0  0  0  0  0  0  0  0  0  0
   59.8480   33.1810   46.6120 N   0  0  0  0  0  0  0  0  0  0  0  0
   58.7380   33.7800   46.0860 C   0  0  0  0  0  0  0  0  0  0  0  0
   57.7320   33.0190   45.4880 C   0  0  0  0  0  0  0  0  0  0  0  0
   57.8560   31.6180   45.4380 C   0  0  0  0  0  0  0  0  0  0  0  0
   56.9560   30.8550   44.8850 N   0  0  0  0  0  0  0  0  0  0  0  0
   56.6530   30.7810   43.4570 C   0  0  0  0  0  0  0  0  0  0  0  0
   56.6740   29.3210   43.0020 C   0  0  0  0  0  0  0  0  0  0  0  0
   57.7070   28.4780   43.7660 C   0  0  0  0  0  0  0  0  0  0  0  0
   58.1140   27.2100   43.0110 C   0  0  0  0  0  0  0  0  0  0  0  0
   58.9900   31.0240   46.0020 C   0  0  0  0  0  0  0  0  0  0  0  0
   59.9780   31.8200   46.5860 C   0  0  0  0  0  0  0  0  0  0  0  0
   61.4690   30.3310   50.1090 C   0  0  0  0  0  0  0  0  0  0  0  0
   60.8700   29.2670   49.4310 C   0  0  0  0  0  0  0  0  0  0  0  0
   57.4500   23.0335   43.3218 H   0  0  0  0  0  0  0  0  0  0  0  0
   55.7574   23.0906   42.7230 H   0  0  0  0  0  0  0  0  0  0  0  0
   56.7608   24.5805   42.7230 H   0  0  0  0  0  0  0  0  0  0  0  0
   55.1002   24.5223   44.6011 H   0  0  0  0  0  0  0  0  0  0  0  0
   55.9188   23.0323   45.2200 H   0  0  0  0  0  0  0  0  0  0  0  0
   57.6408   24.2007   46.1159 H   0  0  0  0  0  0  0  0  0  0  0  0
   57.7472   25.3043   44.6885 H   0  0  0  0  0  0  0  0  0  0  0  0
   55.5691   26.3744   45.5990 H   0  0  0  0  0  0  0  0  0  0  0  0
   55.9770   25.4986   47.1415 H   0  0  0  0  0  0  0  0  0  0  0  0
   57.1383   27.9454   45.9748 H   0  0  0  0  0  0  0  0  0  0  0  0
   57.1349   27.2857   47.6897 H   0  0  0  0  0  0  0  0  0  0  0  0
   58.9243   25.6334   46.5019 H   0  0  0  0  0  0  0  0  0  0  0  0
   59.2039   27.2073   45.6075 H   0  0  0  0  0  0  0  0  0  0  0  0
   59.9011   26.4394   48.3789 H   0  0  0  0  0  0  0  0  0  0  0  0
   60.6076   27.6854   47.2659 H   0  0  0  0  0  0  0  0  0  0  0  0
   57.7678   30.6315   49.0084 H   0  0  0  0  0  0  0  0  0  0  0  0
   58.8794   32.4792   50.2606 H   0  0  0  0  0  0  0  0  0  0  0  0
   60.6231   33.1021   51.7009 H   0  0  0  0  0  0  0  0  0  0  0  0
   62.1652   32.1434   51.7767 H   0  0  0  0  0  0  0  0  0  0  0  0
   61.6032   33.5032   49.1883 H   0  0  0  0  0  0  0  0  0  0  0  0
   61.9643   34.5712   50.6289 H   0  0  0  0  0  0  0  0  0  0  0  0
   64.0296   34.1996   49.4896 H   0  0  0  0  0  0  0  0  0  0  0  0
   64.0203   33.1960   51.0094 H   0  0  0  0  0  0  0  0  0  0  0  0
   64.9860   31.8773   49.2351 H   0  0  0  0  0  0  0  0  0  0  0  0
   63.3256   31.2392   49.6322 H   0  0  0  0  0  0  0  0  0  0  0  0
   64.2081   31.6221   47.1018 H   0  0  0  0  0  0  0  0  0  0  0  0
   62.4630   31.7800   47.6387 H   0  0  0  0  0  0  0  0  0  0  0  0
   63.4905   34.3092   48.0467 H   0  0  0  0  0  0  0  0  0  0  0  0
   64.2667   33.7286   46.4792 H   0  0  0  0  0  0  0  0  0  0  0  0
   62.2973   35.0011   45.9564 H   0  0  0  0  0  0  0  0  0  0  0  0
   62.0328   33.2322   45.6051 H   0  0  0  0  0  0  0  0  0  0  0  0
   61.1235   33.5846   48.2375 H   0  0  0  0  0  0  0  0  0  0  0  0
   60.5261   35.0310   47.3435 H   0  0  0  0  0  0  0  0  0  0  0  0
   58.6361   34.8742   46.1344 H   0  0  0  0  0  0  0  0  0  0  0  0
   56.8473   33.5116   45.0583 H   0  0  0  0  0  0  0  0  0  0  0  0
   55.6561   31.2076   43.2719 H   0  0  0  0  0  0  0  0  0  0  0  0
   57.4078   31.3496   42.8939 H   0  0  0  0  0  0  0  0  0  0  0  0
   55.6762   28.8872   43.1641 H   0  0  0  0  0  0  0  0  0  0  0  0
   56.9546   29.3078   41.9385 H   0  0  0  0  0  0  0  0  0  0  0  0
   58.6052   29.0904   43.9340 H   0  0  0  0  0  0  0  0  0  0  0  0
   57.2433   28.1648   44.7130 H   0  0  0  0  0  0  0  0  0  0  0  0
   58.3678   26.4193   43.7324 H   0  0  0  0  0  0  0  0  0  0  0  0
   57.2782   26.8753   42.3791 H   0  0  0  0  0  0  0  0  0  0  0  0
   58.9885   27.4243   42.3791 H   0  0  0  0  0  0  0  0  0  0  0  0
   59.1036   29.9300   45.9856 H   0  0  0  0  0  0  0  0  0  0  0  0
   60.8678   31.3483   47.0285 H   0  0  0  0  0  0  0  0  0  0  0  0
   62.5218   30.2568   50.4189 H   0  0  0  0  0  0  0  0  0  0  0  0
   61.4531   28.3621   49.2049 H   0  0  0  0  0  0  0  0  0  0  0  0
  1  2  1  0
  2  3  1  0
  3  4  1  0
  4  5  1  0
  5  6  1  0
  6  7  1  0
  7  8  1  0
  8  9  2  3
  9 10  1  0
 10 11  2  0
 11 12  1  0
 12 13  1  0
 13 14  1  0
 14 15  1  0
 15 16  1  0
 16 17  1  0
 17 18  1  0
 18 19  1  0
 19 20  1  0
 20 21  1  0
 21 22  1  0
 22 23  2  0
 23 24  1  0
 24 25  2  3
 25 26  1  0
 26 27  1  0
 27 28  1  0
 28 29  1  0
 24 30  1  0
 30 31  2  0
 12 32  1  0
 32 33  2  0
 33  9  1  0
 31 21  1  0
  1 34  1  0
  1 35  1  0
  1 36  1  0
  2 37  1  0
  2 38  1  0
  3 39  1  0
  3 40  1  0
  4 41  1  0
  4 42  1  0
  5 43  1  0
  5 44  1  0
  6 45  1  0
  6 46  1  0
  7 47  1  0
  7 48  1  0
 10 49  1  0
 11 50  1  0
 13 51  1  0
 13 52  1  0
 14 53  1  0
 14 54  1  0
 15 55  1  0
 15 56  1  0
 16 57  1  0
 16 58  1  0
 17 59  1  0
 17 60  1  0
 18 61  1  0
 18 62  1  0
 19 63  1  0
 19 64  1  0
 20 65  1  0
 20 66  1  0
 22 67  1  0
 23 68  1  0
 26 69  1  0
 26 70  1  0
 27 71  1  0
 27 72  1  0
 28 73  1  0
 28 74  1  0
 29 75  1  0
 29 76  1  0
 29 77  1  0
 30 78  1  0
 31 79  1  0
 32 80  1  0
 33 81  1  0
M  END
>  <UniqueID>  (38) 
37

>  <SMILES>  (38) 
CCCCCCCN=c1ccn(CCCCCCCCn2ccc(=NCCCC)cc2)cc1

>  <Energy>  (38) 
58.11159893526671

>  <Genealogy>  (38) 
CCCCCCCN=c1ccn(CCCCCCCCn2ccc(=NCCCC)cc2)cc1 (3D coordinates assigned)
CCCCCCCN=c1ccn(CCCCCCCCn2ccc(=NCCCC)cc2)cc1 (optimized conformer: 58.11159893526671 kcal/mol)

>  <smiles>  (38) 
CCCCCCCN=c1ccn(CCCCCCCCn2ccc(=NCCCC)cc2)cc1

>  <score_type>  (38) 
oracle

>  <origin>  (38) 
adg

>  <m_score__min__energy>  (38) 
-7.4199999999999999

>  <m_primary>  (38) 
energy

$$$$
38:0
     RDKit          3D

 40 41  0  0  0  0  0  0  0  0999 V2000
   59.7360   27.4880   47.2600 C   0  0  0  0  0  0  0  0  0  0  0  0
   59.7110   27.4160   45.7350 C   0  0  0  0  0  0  0  0  0  0  0  0
   58.3420   27.6070   45.2230 N   0  0  0  0  0  0  0  0  0  0  0  0
   57.4170   26.4610   45.2200 C   0  0  0  0  0  0  0  0  0  0  0  0
   56.4740   26.4970   46.4280 C   0  0  0  0  0  0  0  0  0  0  0  0
   55.1450   26.2780   46.0040 O   0  0  0  0  0  0  0  0  0  0  0  0
   54.9910   24.9300   45.6230 C   0  0  0  0  0  0  0  0  0  0  0  0
   57.9080   28.8970   44.7240 C   0  0  0  0  0  0  0  0  0  0  0  0
   57.0250   28.9820   43.6320 C   0  0  0  0  0  0  0  0  0  0  0  0
   56.5960   30.2220   43.1590 C   0  0  0  0  0  0  0  0  0  0  0  0
   57.0410   31.3980   43.7640 C   0  0  0  0  0  0  0  0  0  0  0  0
   57.9290   31.3450   44.8500 C   0  0  0  0  0  0  0  0  0  0  0  0
   58.4090   32.5980   45.4880 C   0  0  0  0  0  0  0  0  0  0  0  0
   58.8110   33.6930   44.7010 C   0  0  0  0  0  0  0  0  0  0  0  0
   59.2620   34.8710   45.3040 C   0  0  0  0  0  0  0  0  0  0  0  0
   59.3180   34.9690   46.6960 C   0  0  0  0  0  0  0  0  0  0  0  0
   58.9220   33.8890   47.4890 C   0  0  0  0  0  0  0  0  0  0  0  0
   58.4700   32.7090   46.8900 C   0  0  0  0  0  0  0  0  0  0  0  0
   58.3580   30.0910   45.3220 C   0  0  0  0  0  0  0  0  0  0  0  0
   59.4022   26.5268   47.6780 H   0  0  0  0  0  0  0  0  0  0  0  0
   60.7603   27.6999   47.6003 H   0  0  0  0  0  0  0  0  0  0  0  0
   59.0634   28.2892   47.6003 H   0  0  0  0  0  0  0  0  0  0  0  0
   60.3617   28.2032   45.3263 H   0  0  0  0  0  0  0  0  0  0  0  0
   60.0680   26.4232   45.4236 H   0  0  0  0  0  0  0  0  0  0  0  0
   56.8178   26.4877   44.2979 H   0  0  0  0  0  0  0  0  0  0  0  0
   58.0118   25.5373   45.2739 H   0  0  0  0  0  0  0  0  0  0  0  0
   56.7640   25.7113   47.1412 H   0  0  0  0  0  0  0  0  0  0  0  0
   56.5428   27.4818   46.9133 H   0  0  0  0  0  0  0  0  0  0  0  0
   54.9191   24.3007   46.5223 H   0  0  0  0  0  0  0  0  0  0  0  0
   54.0745   24.8205   45.0246 H   0  0  0  0  0  0  0  0  0  0  0  0
   55.8592   24.6166   45.0246 H   0  0  0  0  0  0  0  0  0  0  0  0
   56.6694   28.0613   43.1464 H   0  0  0  0  0  0  0  0  0  0  0  0
   55.9040   30.2731   42.3055 H   0  0  0  0  0  0  0  0  0  0  0  0
   56.6941   32.3718   43.3880 H   0  0  0  0  0  0  0  0  0  0  0  0
   58.7701   33.6217   43.6041 H   0  0  0  0  0  0  0  0  0  0  0  0
   59.5733   35.7223   44.6808 H   0  0  0  0  0  0  0  0  0  0  0  0
   59.6739   35.8966   47.1681 H   0  0  0  0  0  0  0  0  0  0  0  0
   58.9658   33.9670   48.5854 H   0  0  0  0  0  0  0  0  0  0  0  0
   58.1599   31.8614   47.5189 H   0  0  0  0  0  0  0  0  0  0  0  0
   59.0556   30.0418   46.1711 H   0  0  0  0  0  0  0  0  0  0  0  0
  1  2  1  0
  2  3  1  0
  3  4  1  0
  4  5  1  0
  5  6  1  0
  6  7  1  0
  3  8  1  0
  8  9  2  0
  9 10  1  0
 10 11  2  0
 11 12  1  0
 12 13  1  0
 13 14  2  0
 14 15  1  0
 15 16  2  0
 16 17  1  0
 17 18  2  0
 12 19  2  0
 19  8  1  0
 18 13  1  0
  1 20  1  0
  1 21  1  0
  1 22  1  0
  2 23  1  0
  2 24  1  0
  4 25  1  0
  4 26  1  0
  5 27  1  0
  5 28  1  0
  7 29  1  0
  7 30  1  0
  7 31  1  0
  9 32  1  0
 10 33  1  0
 11 34  1  0
 14 35  1  0
 15 36  1  0
 16 37  1  0
 17 38  1  0
 18 39  1  0
 19 40  1  0
M  END
>  <UniqueID>  (39) 
38

>  <SMILES>  (39) 
CCN(CCOC)c1cccc(-c2ccccc2)c1

>  <Energy>  (39) 
44.17232182907711

>  <Genealogy>  (39) 
CCN(CCOC)c1cccc(-c2ccccc2)c1 (3D coordinates assigned)
CCN(CCOC)c1cccc(-c2ccccc2)c1 (optimized conformer: 44.17232182907711 kcal/mol)

>  <smiles>  (39) 
CCN(CCOC)c1cccc(-c2ccccc2)c1

>  <score_type>  (39) 
oracle

>  <origin>  (39) 
adg

>  <m_score__min__energy>  (39) 
-7.1100000000000003

>  <m_primary>  (39) 
energy

$$$$
39:0
     RDKit          3D

 28 30  0  0  0  0  0  0  0  0999 V2000
   55.0080   26.6420   45.9680 O   0  0  0  0  0  0  0  0  0  0  0  0
   56.3520   26.2710   46.0670 C   0  0  0  0  0  0  0  0  0  0  0  0
   56.6790   24.9880   46.4840 C   0  0  0  0  0  0  0  0  0  0  0  0
   58.3450   24.8800   46.5830 S   0  0  0  0  0  0  0  0  0  0  0  0
   58.5980   26.4560   46.0710 C   0  0  0  0  0  0  0  0  0  0  0  0
   60.1050   27.0990   45.9950 S   0  0  0  0  0  0  0  0  0  0  0  0
   57.4200   27.1030   45.8020 N   0  0  0  0  0  0  0  0  0  0  0  0
   57.2840   28.4890   45.2860 C   0  0  2  0  0  0  0  0  0  0  0  0
   57.6900   28.6220   43.8070 C   0  0  0  0  0  0  0  0  0  0  0  0
   57.4570   29.9600   43.3640 O   0  0  0  0  0  0  0  0  0  0  0  0
   57.7050   31.0670   44.1850 C   0  0  0  0  0  0  0  0  0  0  0  0
   57.6610   32.3540   43.6370 C   0  0  0  0  0  0  0  0  0  0  0  0
   57.9030   33.4690   44.4460 C   0  0  0  0  0  0  0  0  0  0  0  0
   58.1890   33.3020   45.8030 C   0  0  0  0  0  0  0  0  0  0  0  0
   58.2270   32.0200   46.3600 C   0  0  0  0  0  0  0  0  0  0  0  0
   57.9710   30.8960   45.5600 C   0  0  0  0  0  0  0  0  0  0  0  0
   58.0360   29.5110   46.1590 C   0  0  0  0  0  0  0  0  0  0  0  0
   54.3710   26.7190   46.7470 H   0  0  0  0  0  0  0  0  0  0  0  0
   55.9657   24.1818   46.7102 H   0  0  0  0  0  0  0  0  0  0  0  0
   56.2106   28.7222   45.3451 H   0  0  0  0  0  0  0  0  0  0  0  0
   58.7576   28.3809   43.6975 H   0  0  0  0  0  0  0  0  0  0  0  0
   57.0911   27.9270   43.2001 H   0  0  0  0  0  0  0  0  0  0  0  0
   57.4358   32.4888   42.5688 H   0  0  0  0  0  0  0  0  0  0  0  0
   57.8680   34.4795   44.0127 H   0  0  0  0  0  0  0  0  0  0  0  0
   58.3848   34.1809   46.4348 H   0  0  0  0  0  0  0  0  0  0  0  0
   58.4581   31.8923   47.4278 H   0  0  0  0  0  0  0  0  0  0  0  0
   59.0894   29.2053   46.2419 H   0  0  0  0  0  0  0  0  0  0  0  0
   57.5600   29.5383   47.1503 H   0  0  0  0  0  0  0  0  0  0  0  0
  1  2  1  0
  2  3  2  0
  3  4  1  0
  4  5  1  0
  5  6  2  0
  5  7  1  0
  7  8  1  0
  8  9  1  0
  9 10  1  0
 10 11  1  0
 11 12  2  0
 12 13  1  0
 13 14  2  0
 14 15  1  0
 15 16  2  0
 16 17  1  0
  7  2  1  0
 17  8  1  0
 16 11  1  0
  1 18  1  0
  3 19  1  0
  8 20  1  6
  9 21  1  0
  9 22  1  0
 12 23  1  0
 13 24  1  0
 14 25  1  0
 15 26  1  0
 17 27  1  0
 17 28  1  0
M  END
>  <UniqueID>  (40) 
39

>  <SMILES>  (40) 
Oc1csc(=S)n1[C@@H]1COc2ccccc2C1

>  <Energy>  (40) 
69.3633055881866

>  <Genealogy>  (40) 
Oc1csc(=S)n1[C@@H]1COc2ccccc2C1 (chirality)
Oc1csc(=S)n1[C@@H]1COc2ccccc2C1 (3D coordinates assigned)
Oc1csc(=S)n1[C@@H]1COc2ccccc2C1 (nonaromatic ring conformer: 69.3633055881866 kcal/mol)

>  <smiles>  (40) 
Oc1csc(=S)n1C1COc2ccccc2C1

>  <score_type>  (40) 
oracle

>  <origin>  (40) 
adg

>  <m_score__min__energy>  (40) 
-7.8499999999999996

>  <m_primary>  (40) 
energy

$$$$
40:0
     RDKit          3D

 58 60  0  0  0  0  0  0  0  0999 V2000
   55.0710   24.9970   45.5780 C   0  0  0  0  0  0  0  0  0  0  0  0
   55.4940   26.2760   46.0260 O   0  0  0  0  0  0  0  0  0  0  0  0
   56.8210   26.6130   46.3330 C   0  0  0  0  0  0  0  0  0  0  0  0
   57.5150   25.7450   47.1860 C   0  0  0  0  0  0  0  0  0  0  0  0
   58.8250   26.0180   47.5730 C   0  0  0  0  0  0  0  0  0  0  0  0
   59.4620   27.1640   47.1070 C   0  0  0  0  0  0  0  0  0  0  0  0
   58.8030   28.0270   46.2320 C   0  0  0  0  0  0  0  0  0  0  0  0
   57.4880   27.7580   45.8120 C   0  0  0  0  0  0  0  0  0  0  0  0
   56.8670   28.6630   44.7760 C   0  0  0  0  0  0  0  0  0  0  0  0
   57.8760   29.5710   44.2280 N   0  0  0  0  0  0  0  0  0  0  0  0
   57.2520   31.1810   44.0430 S   0  0  0  0  0  0  0  0  0  0  0  0
   55.8340   31.2150   44.5350 O   0  0  0  0  0  0  0  0  0  0  0  0
   57.2670   31.5400   42.5830 O   0  0  0  0  0  0  0  0  0  0  0  0
   58.2180   32.3220   44.9480 N   0  0  0  0  0  0  0  0  0  0  0  0
   58.4930   33.5070   44.1220 C   0  0  0  0  0  0  0  0  0  0  0  0
   59.5300   34.4110   44.8130 C   0  0  0  0  0  0  0  0  0  0  0  0
   59.5210   34.2870   46.3550 C   0  0  0  0  0  0  0  0  0  0  0  0
   60.5750   33.3150   46.8460 C   0  0  0  0  0  0  0  0  0  0  0  0
   61.6500   33.7370   47.3580 O   0  0  0  0  0  0  0  0  0  0  0  0
   60.3400   31.9040   46.7450 N   0  0  0  0  0  0  0  0  0  0  0  0
   61.3830   30.9350   47.0880 C   0  0  0  0  0  0  0  0  0  0  0  0
   61.1070   30.2570   48.4360 C   0  0  0  0  0  0  0  0  0  0  0  0
   60.2730   31.1300   49.3370 C   0  0  0  0  0  0  0  0  0  0  0  0
   60.8380   32.2490   49.9740 C   0  0  0  0  0  0  0  0  0  0  0  0
   60.0650   33.0330   50.8360 C   0  0  0  0  0  0  0  0  0  0  0  0
   58.7250   32.7120   51.0660 C   0  0  0  0  0  0  0  0  0  0  0  0
   58.1550   31.5970   50.4400 C   0  0  0  0  0  0  0  0  0  0  0  0
   58.9240   30.8080   49.5790 C   0  0  0  0  0  0  0  0  0  0  0  0
   58.1120   33.9390   46.8760 C   0  0  0  0  0  0  0  0  0  0  0  0
   57.4950   32.7040   46.1800 C   0  0  0  0  0  0  0  0  0  0  0  0
   54.8590   24.3560   46.4464 H   0  0  0  0  0  0  0  0  0  0  0  0
   54.1604   25.1040   44.9702 H   0  0  0  0  0  0  0  0  0  0  0  0
   55.8658   24.5400   44.9702 H   0  0  0  0  0  0  0  0  0  0  0  0
   57.0186   24.8354   47.5552 H   0  0  0  0  0  0  0  0  0  0  0  0
   59.3553   25.3284   48.2462 H   0  0  0  0  0  0  0  0  0  0  0  0
   60.4890   27.3900   47.4299 H   0  0  0  0  0  0  0  0  0  0  0  0
   59.3173   28.9280   45.8663 H   0  0  0  0  0  0  0  0  0  0  0  0
   56.4487   28.0513   43.9630 H   0  0  0  0  0  0  0  0  0  0  0  0
   56.0697   29.2555   45.2485 H   0  0  0  0  0  0  0  0  0  0  0  0
   58.8849   33.1858   43.1457 H   0  0  0  0  0  0  0  0  0  0  0  0
   57.5595   34.0727   43.9858 H   0  0  0  0  0  0  0  0  0  0  0  0
   60.5305   34.1374   44.4468 H   0  0  0  0  0  0  0  0  0  0  0  0
   59.2687   35.4512   44.5688 H   0  0  0  0  0  0  0  0  0  0  0  0
   59.7862   35.2693   46.7731 H   0  0  0  0  0  0  0  0  0  0  0  0
   59.4170   31.5760   46.3770 H   0  0  0  0  0  0  0  0  0  0  0  0
   61.4257   30.1648   46.3038 H   0  0  0  0  0  0  0  0  0  0  0  0
   62.3392   31.4734   47.1646 H   0  0  0  0  0  0  0  0  0  0  0  0
   60.5707   29.3133   48.2575 H   0  0  0  0  0  0  0  0  0  0  0  0
   62.0715   30.0738   48.9321 H   0  0  0  0  0  0  0  0  0  0  0  0
   61.8916   32.5085   49.7936 H   0  0  0  0  0  0  0  0  0  0  0  0
   60.5134   33.9051   51.3345 H   0  0  0  0  0  0  0  0  0  0  0  0
   58.1178   33.3353   51.7389 H   0  0  0  0  0  0  0  0  0  0  0  0
   57.1013   31.3414   50.6256 H   0  0  0  0  0  0  0  0  0  0  0  0
   58.4732   29.9324   49.0889 H   0  0  0  0  0  0  0  0  0  0  0  0
   58.1782   33.7359   47.9551 H   0  0  0  0  0  0  0  0  0  0  0  0
   57.4605   34.7979   46.6573 H   0  0  0  0  0  0  0  0  0  0  0  0
   57.5208   31.8561   46.8803 H   0  0  0  0  0  0  0  0  0  0  0  0
   56.4653   32.9643   45.8935 H   0  0  0  0  0  0  0  0  0  0  0  0
  1  2  1  0
  2  3  1  0
  3  4  2  0
  4  5  1  0
  5  6  2  0
  6  7  1  0
  7  8  2  0
  8  9  1  0
  9 10  1  0
 10 11  1  0
 11 12  2  0
 11 13  2  0
 11 14  1  0
 14 15  1  0
 15 16  1  0
 16 17  1  0
 17 18  1  0
 18 19  2  0
 18 20  1  0
 20 21  1  0
 21 22  1  0
 22 23  1  0
 23 24  2  0
 24 25  1  0
 25 26  2  0
 26 27  1  0
 27 28  2  0
 17 29  1  0
 29 30  1  0
  8  3  1  0
 30 14  1  0
 28 23  1  0
  1 31  1  0
  1 32  1  0
  1 33  1  0
  4 34  1  0
  5 35  1  0
  6 36  1  0
  7 37  1  0
  9 38  1  0
  9 39  1  0
 15 40  1  0
 15 41  1  0
 16 42  1  0
 16 43  1  0
 17 44  1  0
 20 45  1  0
 21 46  1  0
 21 47  1  0
 22 48  1  0
 22 49  1  0
 24 50  1  0
 25 51  1  0
 26 52  1  0
 27 53  1  0
 28 54  1  0
 29 55  1  0
 29 56  1  0
 30 57  1  0
 30 58  1  0
M  CHG  1  10  -1
M  END
>  <UniqueID>  (41) 
40

>  <SMILES>  (41) 
COc1ccccc1C[N-]S(=O)(=O)N1CCC(C(=O)NCCc2ccccc2)CC1

>  <Energy>  (41) 
57.78642805615792

>  <Genealogy>  (41) 
COc1ccccc1C[N-]S(=O)(=O)N1CCC(C(=O)NCCc2ccccc2)CC1 (protonated)
COc1ccccc1C[N-]S(=O)(=O)N1CCC(C(=O)NCCc2ccccc2)CC1 (3D coordinates assigned)
COc1ccccc1C[N-]S(=O)(=O)N1CCC(C(=O)NCCc2ccccc2)CC1 (nonaromatic ring conformer: 57.78642805615792 kcal/mol)

>  <smiles>  (41) 
COc1ccccc1CNS(=O)(=O)N1CCC(C(=O)NCCc2ccccc2)CC1

>  <score_type>  (41) 
oracle

>  <origin>  (41) 
adg

>  <m_score__min__energy>  (41) 
-10.5

>  <m_primary>  (41) 
energy

$$$$
41:0
     RDKit          3D

 40 42  0  0  0  0  0  0  0  0999 V2000
   58.1560   32.3270   41.3880 C   0  0  0  0  0  0  0  0  0  0  0  0
   57.3950   32.7130   42.5280 O   0  0  0  0  0  0  0  0  0  0  0  0
   57.7630   32.4740   43.8610 C   0  0  0  0  0  0  0  0  0  0  0  0
   58.4480   33.4530   44.6070 C   0  0  0  0  0  0  0  0  0  0  0  0
   58.7990   33.2270   45.9390 C   0  0  0  0  0  0  0  0  0  0  0  0
   59.5240   34.2420   46.6500 N   0  0  0  0  0  0  0  0  0  0  0  0
   60.7030   34.1240   47.1990 C   0  0  0  0  0  0  0  0  0  0  0  0
   61.9600   33.9410   46.3700 C   0  0  0  0  0  0  0  0  0  0  0  0
   63.0860   33.2980   47.1330 C   0  0  0  0  0  0  0  0  0  0  0  0
   64.0180   32.7380   46.4940 O   0  0  0  0  0  0  0  0  0  0  0  0
   63.1630   33.3840   48.6020 C   0  0  0  0  0  0  0  0  0  0  0  0
   64.3080   33.0210   49.2420 N   0  0  0  0  0  0  0  0  0  0  0  0
   64.4120   33.0950   50.5940 C   0  0  0  0  0  0  0  0  0  0  0  0
   63.3620   33.5350   51.3330 N   0  0  0  0  0  0  0  0  0  0  0  0
   62.1960   33.9030   50.7420 C   0  0  0  0  0  0  0  0  0  0  0  0
   62.0640   33.8350   49.3480 C   0  0  0  0  0  0  0  0  0  0  0  0
   60.7980   34.1820   48.6710 C   0  0  0  0  0  0  0  0  0  0  0  0
   59.7870   34.5130   49.3480 O   0  0  0  0  0  0  0  0  0  0  0  0
   58.5210   31.9880   46.5240 C   0  0  0  0  0  0  0  0  0  0  0  0
   57.8370   30.9950   45.8040 C   0  0  0  0  0  0  0  0  0  0  0  0
   57.5240   29.7500   46.3730 O   0  0  0  0  0  0  0  0  0  0  0  0
   58.4870   28.8040   46.8300 C   0  0  0  0  0  0  0  0  0  0  0  0
   57.4480   31.2320   44.4740 C   0  0  0  0  0  0  0  0  0  0  0  0
   56.7600   30.1920   43.8220 O   0  0  0  0  0  0  0  0  0  0  0  0
   57.2790   28.9100   43.4840 C   0  0  0  0  0  0  0  0  0  0  0  0
   59.0924   31.8520   41.7159 H   0  0  0  0  0  0  0  0  0  0  0  0
   57.5754   31.6144   40.7837 H   0  0  0  0  0  0  0  0  0  0  0  0
   58.3880   33.2164   40.7837 H   0  0  0  0  0  0  0  0  0  0  0  0
   58.7103   34.4102   44.1327 H   0  0  0  0  0  0  0  0  0  0  0  0
   61.7182   33.3074   45.5039 H   0  0  0  0  0  0  0  0  0  0  0  0
   62.3004   34.9424   46.0679 H   0  0  0  0  0  0  0  0  0  0  0  0
   65.3477   32.7982   51.0905 H   0  0  0  0  0  0  0  0  0  0  0  0
   61.3548   34.2546   51.3574 H   0  0  0  0  0  0  0  0  0  0  0  0
   58.8409   31.7892   47.5575 H   0  0  0  0  0  0  0  0  0  0  0  0
   58.4975   28.7937   47.9299 H   0  0  0  0  0  0  0  0  0  0  0  0
   58.2240   27.8034   46.4564 H   0  0  0  0  0  0  0  0  0  0  0  0
   59.4828   29.0848   46.4564 H   0  0  0  0  0  0  0  0  0  0  0  0
   57.5050   28.3516   44.4044 H   0  0  0  0  0  0  0  0  0  0  0  0
   56.5340   28.3569   42.8932 H   0  0  0  0  0  0  0  0  0  0  0  0
   58.1990   29.0310   42.8932 H   0  0  0  0  0  0  0  0  0  0  0  0
  1  2  1  0
  2  3  1  0
  3  4  2  0
  4  5  1  0
  5  6  1  0
  6  7  2  3
  7  8  1  0
  8  9  1  0
  9 10  2  0
  9 11  1  0
 11 12  2  0
 12 13  1  0
 13 14  2  0
 14 15  1  0
 15 16  2  0
 16 17  1  0
 17 18  2  0
  5 19  2  0
 19 20  1  0
 20 21  1  0
 21 22  1  0
 20 23  2  0
 23 24  1  0
 24 25  1  0
 23  3  1  0
 17  7  1  0
 16 11  1  0
  1 26  1  0
  1 27  1  0
  1 28  1  0
  4 29  1  0
  8 30  1  0
  8 31  1  0
 13 32  1  0
 15 33  1  0
 19 34  1  0
 22 35  1  0
 22 36  1  0
 22 37  1  0
 25 38  1  0
 25 39  1  0
 25 40  1  0
M  END
>  <UniqueID>  (42) 
41

>  <SMILES>  (42) 
COc1cc(N=C2CC(=O)c3ncncc3C2=O)cc(OC)c1OC

>  <Energy>  (42) 
54.60776351831612

>  <Genealogy>  (42) 
COc1cc(N=C2CC(=O)c3ncncc3C2=O)cc(OC)c1OC (3D coordinates assigned)
COc1cc(N=C2CC(=O)c3ncncc3C2=O)cc(OC)c1OC (nonaromatic ring conformer: 54.60776351831612 kcal/mol)

>  <smiles>  (42) 
COc1cc(N=C2CC(=O)c3ncncc3C2=O)cc(OC)c1OC

>  <score_type>  (42) 
oracle

>  <origin>  (42) 
adg

>  <m_score__min__energy>  (42) 
-6.4800000000000004

>  <m_primary>  (42) 
energy

$$$$
42:0
     RDKit          3D

 40 42  0  0  0  0  0  0  0  0999 V2000
   59.2446   35.0156   49.3058 H   0  0  0  0  0  0  0  0  0  0  0  0
   59.8680   34.5930   48.5040 C   0  0  0  0  0  0  0  0  0  0  0  0
   59.3520   34.5340   47.2650 C   0  0  0  0  0  0  0  0  0  0  0  0
   58.4070   33.5250   46.8320 C   0  0  0  0  0  0  0  0  0  0  0  0
   57.8160   32.7180   47.5990 O   0  0  0  0  0  0  0  0  0  0  0  0
   58.1990   33.6480   45.3960 C   0  0  0  0  0  0  0  0  0  0  0  0
   57.4010   32.9050   44.6130 C   0  0  0  0  0  0  0  0  0  0  0  0
   56.6105   33.4239   44.0511 H   0  0  0  0  0  0  0  0  0  0  0  0
   57.5080   31.4430   44.4520 C   0  0  0  0  0  0  0  0  0  0  0  0
   56.8180   30.8130   43.4070 C   0  0  0  0  0  0  0  0  0  0  0  0
   56.1741   31.4059   42.7408 H   0  0  0  0  0  0  0  0  0  0  0  0
   56.9440   29.4340   43.2070 C   0  0  0  0  0  0  0  0  0  0  0  0
   56.3847   28.9450   42.3958 H   0  0  0  0  0  0  0  0  0  0  0  0
   57.7830   28.6700   44.0390 C   0  0  0  0  0  0  0  0  0  0  0  0
   57.9410   27.2850   43.8810 O   0  0  0  0  0  0  0  0  0  0  0  0
   57.8860   26.6070   42.6300 C   0  0  0  0  0  0  0  0  0  0  0  0
   57.7982   25.5243   42.8033 H   0  0  0  0  0  0  0  0  0  0  0  0
   57.0135   26.9591   42.0602 H   0  0  0  0  0  0  0  0  0  0  0  0
   58.8039   26.8139   42.0602 H   0  0  0  0  0  0  0  0  0  0  0  0
   58.4930   29.3080   45.0620 C   0  0  0  0  0  0  0  0  0  0  0  0
   59.1557   28.7201   45.7140 H   0  0  0  0  0  0  0  0  0  0  0  0
   58.3680   30.6850   45.2630 C   0  0  0  0  0  0  0  0  0  0  0  0
   58.9454   31.1771   46.0595 H   0  0  0  0  0  0  0  0  0  0  0  0
   58.9900   34.8100   44.8790 C   0  0  0  0  0  0  0  0  0  0  0  0
   59.7049   34.4746   44.1132 H   0  0  0  0  0  0  0  0  0  0  0  0
   58.3387   35.5631   44.4114 H   0  0  0  0  0  0  0  0  0  0  0  0
   59.7420   35.3920   46.0960 C   0  0  0  0  0  0  0  0  0  0  0  0
   60.8288   35.3462   45.9327 H   0  0  0  0  0  0  0  0  0  0  0  0
   59.4844   36.4481   46.2645 H   0  0  0  0  0  0  0  0  0  0  0  0
   61.2240   34.1230   48.8510 C   0  0  0  0  0  0  0  0  0  0  0  0
   61.5900   34.0260   50.2010 C   0  0  0  0  0  0  0  0  0  0  0  0
   60.8620   34.2815   50.9850 H   0  0  0  0  0  0  0  0  0  0  0  0
   62.8760   33.6060   50.5560 C   0  0  0  0  0  0  0  0  0  0  0  0
   63.1515   33.5178   51.6173 H   0  0  0  0  0  0  0  0  0  0  0  0
   63.8120   33.2980   49.5640 C   0  0  0  0  0  0  0  0  0  0  0  0
   65.5680   32.7280   50.0490 Br  0  0  0  0  0  0  0  0  0  0  0  0
   63.4630   33.4210   48.2150 C   0  0  0  0  0  0  0  0  0  0  0  0
   64.2014   33.1885   47.4335 H   0  0  0  0  0  0  0  0  0  0  0  0
   62.1770   33.8390   47.8580 C   0  0  0  0  0  0  0  0  0  0  0  0
   61.9105   33.9459   46.7961 H   0  0  0  0  0  0  0  0  0  0  0  0
  1  2  1  0
  2  3  2  3
  3  4  1  0
  4  5  2  0
  4  6  1  0
  6  7  2  0
  7  8  1  0
  7  9  1  0
  9 10  2  0
 10 11  1  0
 10 12  1  0
 12 13  1  0
 12 14  2  0
 14 15  1  0
 15 16  1  0
 16 17  1  0
 16 18  1  0
 16 19  1  0
 14 20  1  0
 20 21  1  0
 20 22  2  0
 22 23  1  0
  6 24  1  0
 24 25  1  0
 24 26  1  0
 24 27  1  0
 27 28  1  0
 27 29  1  0
  2 30  1  0
 30 31  2  0
 31 32  1  0
 31 33  1  0
 33 34  1  0
 33 35  2  0
 35 36  1  0
 35 37  1  0
 37 38  1  0
 37 39  2  0
 39 40  1  0
 27  3  1  0
 39 30  1  0
 22  9  1  0
M  END
>  <UniqueID>  (43) 
42

>  <SMILES>  (43) 
COc1ccc(/C=C2/CCC(=Cc3ccc(Br)cc3)C2=O)cc1

>  <Energy>  (43) 
64.37876580073795

>  <Genealogy>  (43) 
COc1ccc(/C=C2/CCC(=Cc3ccc(Br)cc3)C2=O)cc1 (cis-trans isomerization)
COc1ccc(/C=C2/CCC(=Cc3ccc(Br)cc3)C2=O)cc1 (3D coordinates assigned)
COc1ccc(/C=C2/CCC(=Cc3ccc(Br)cc3)C2=O)cc1 (nonaromatic ring conformer: 64.37876580073795 kcal/mol)

>  <smiles>  (43) 
COc1ccc(C=C2CCC(=Cc3ccc(Br)cc3)C2=O)cc1

>  <score_type>  (43) 
oracle

>  <origin>  (43) 
adg

>  <m_score__min__energy>  (43) 
-9.0199999999999996

>  <m_primary>  (43) 
energy

$$$$
43:0
     RDKit          3D

 39 41  0  0  0  0  0  0  0  0999 V2000
   60.7950   33.8300   49.7540 C   0  0  0  0  0  0  0  0  0  0  0  0
   62.2850   34.1480   49.8740 C   0  0  0  0  0  0  0  0  0  0  0  0
   63.1720   32.9150   49.6500 C   0  0  0  0  0  0  0  0  0  0  0  0
   64.2530   33.1520   48.5870 C   0  0  0  0  0  0  0  0  0  0  0  0
   63.7610   32.8180   47.2900 O   0  0  0  0  0  0  0  0  0  0  0  0
   62.4070   32.7380   46.9260 C   0  0  0  0  0  0  0  0  0  0  0  0
   61.6980   33.8230   46.3780 C   0  0  0  0  0  0  0  0  0  0  0  0
   60.3510   33.6880   46.0410 C   0  0  0  0  0  0  0  0  0  0  0  0
   59.6810   32.4700   46.2250 C   0  0  0  0  0  0  0  0  0  0  0  0
   60.3910   31.3760   46.7840 C   0  0  0  0  0  0  0  0  0  0  0  0
   61.7410   31.5250   47.1320 C   0  0  0  0  0  0  0  0  0  0  0  0
   59.7060   30.0560   47.0300 C   0  0  0  0  0  0  0  0  0  0  0  0
   58.4730   29.9820   46.2570 N   0  0  0  0  0  0  0  0  0  0  0  0
   57.8190   31.0400   45.7450 C   0  0  0  0  0  0  0  0  0  0  0  0
   56.6390   30.7150   45.1700 N   0  0  0  0  0  0  0  0  0  0  0  0
   56.5790   29.3760   45.3310 C   0  0  0  0  0  0  0  0  0  0  0  0
   55.5180   28.5940   44.8950 O   0  0  0  0  0  0  0  0  0  0  0  0
   57.6970   28.9170   45.9980 C   0  0  0  0  0  0  0  0  0  0  0  0
   57.9720   27.5150   46.4420 C   0  0  0  0  0  0  0  0  0  0  0  0
   58.2640   32.3920   45.9260 N   0  0  0  0  0  0  0  0  0  0  0  0
   60.3579   33.7367   50.7591 H   0  0  0  0  0  0  0  0  0  0  0  0
   60.2899   34.6406   49.2083 H   0  0  0  0  0  0  0  0  0  0  0  0
   60.6648   32.8838   49.2083 H   0  0  0  0  0  0  0  0  0  0  0  0
   62.5442   34.9094   49.1237 H   0  0  0  0  0  0  0  0  0  0  0  0
   62.4674   34.5080   50.8973 H   0  0  0  0  0  0  0  0  0  0  0  0
   63.6626   32.6564   50.6000 H   0  0  0  0  0  0  0  0  0  0  0  0
   62.5258   32.0998   49.2925 H   0  0  0  0  0  0  0  0  0  0  0  0
   64.5476   34.2117   48.6005 H   0  0  0  0  0  0  0  0  0  0  0  0
   65.1201   32.5141   48.8134 H   0  0  0  0  0  0  0  0  0  0  0  0
   62.2089   34.7833   46.2144 H   0  0  0  0  0  0  0  0  0  0  0  0
   59.8070   34.5489   45.6252 H   0  0  0  0  0  0  0  0  0  0  0  0
   62.2841   30.6763   47.5732 H   0  0  0  0  0  0  0  0  0  0  0  0
   60.3749   29.2367   46.7279 H   0  0  0  0  0  0  0  0  0  0  0  0
   59.4669   29.9675   48.1000 H   0  0  0  0  0  0  0  0  0  0  0  0
   57.9802   27.4734   47.5412 H   0  0  0  0  0  0  0  0  0  0  0  0
   57.1877   26.8475   46.0556 H   0  0  0  0  0  0  0  0  0  0  0  0
   58.9504   27.1933   46.0556 H   0  0  0  0  0  0  0  0  0  0  0  0
   57.7310   32.8130   46.7220 H   0  0  0  0  0  0  0  0  0  0  0  0
   58.0600   32.9260   45.0490 H   0  0  0  0  0  0  0  0  0  0  0  0
  1  2  1  0
  2  3  1  0
  3  4  1  0
  4  5  1  0
  5  6  1  0
  6  7  2  0
  7  8  1  0
  8  9  2  0
  9 10  1  0
 10 11  2  0
 10 12  1  0
 12 13  1  0
 13 14  1  0
 14 15  2  0
 15 16  1  0
 16 17  1  0
 16 18  2  0
 18 19  1  0
 14 20  1  0
 11  6  1  0
 18 13  1  0
 20  9  1  0
  1 21  1  0
  1 22  1  0
  1 23  1  0
  2 24  1  0
  2 25  1  0
  3 26  1  0
  3 27  1  0
  4 28  1  0
  4 29  1  0
  7 30  1  0
  8 31  1  0
 11 32  1  0
 12 33  1  0
 12 34  1  0
 19 35  1  0
 19 36  1  0
 19 37  1  0
 20 38  1  0
 20 39  1  0
M  CHG  2  17  -1  20   1
M  END
>  <UniqueID>  (44) 
43

>  <SMILES>  (44) 
CCCCOc1ccc2c(c1)Cn1c(nc([O-])c1C)[NH2+]2

>  <Energy>  (44) 
71.74982300571054

>  <Genealogy>  (44) 
CCCCOc1ccc2c(c1)Cn1c(nc([O-])c1C)[NH2+]2 (protonated)
CCCCOc1ccc2c(c1)Cn1c(nc([O-])c1C)[NH2+]2 (3D coordinates assigned)
CCCCOc1ccc2c(c1)Cn1c(nc([O-])c1C)[NH2+]2 (nonaromatic ring conformer: 71.74982300571054 kcal/mol)

>  <smiles>  (44) 
CCCCOc1ccc2c(c1)Cn1c(nc(O)c1C)N2

>  <score_type>  (44) 
oracle

>  <origin>  (44) 
adg

>  <m_score__min__energy>  (44) 
-7.3499999999999996

>  <m_primary>  (44) 
energy

$$$$
44:0
     RDKit          3D

 43 43  0  0  0  0  0  0  0  0999 V2000
   59.4407   34.6560   49.5909 H   0  0  0  0  0  0  0  0  0  0  0  0
   59.8660   34.4210   48.6040 C   0  0  0  0  0  0  0  0  0  0  0  0
   59.0740   34.5380   47.4590 C   0  0  0  0  0  0  0  0  0  0  0  0
   58.0261   34.8603   47.5484 H   0  0  0  0  0  0  0  0  0  0  0  0
   59.6100   34.2460   46.1950 C   0  0  0  0  0  0  0  0  0  0  0  0
   58.7390   34.3240   44.9680 C   0  0  0  0  0  0  0  0  0  0  0  0
   59.2943   33.9154   44.1109 H   0  0  0  0  0  0  0  0  0  0  0  0
   58.4759   35.3792   44.8027 H   0  0  0  0  0  0  0  0  0  0  0  0
   57.4390   33.5310   45.1400 C   0  0  0  0  0  0  0  0  0  0  0  0
   56.8779   33.5527   44.1941 H   0  0  0  0  0  0  0  0  0  0  0  0
   56.8544   33.9929   45.9492 H   0  0  0  0  0  0  0  0  0  0  0  0
   57.7790   31.7880   45.5930 S   0  0  0  0  0  0  0  0  0  0  0  0
   56.6270   31.0070   44.4010 C   0  0  0  0  0  0  0  0  0  0  0  0
   56.0745   31.7947   43.8677 H   0  0  0  0  0  0  0  0  0  0  0  0
   55.9364   30.3578   44.9593 H   0  0  0  0  0  0  0  0  0  0  0  0
   57.3810   30.1480   43.3810 C   0  0  0  0  0  0  0  0  0  0  0  0
   58.4621   30.3030   43.5123 H   0  0  0  0  0  0  0  0  0  0  0  0
   57.0627   30.4497   42.3722 H   0  0  0  0  0  0  0  0  0  0  0  0
   57.0790   28.7230   43.5530 N   0  0  0  0  0  0  0  0  0  0  0  0
   56.4990   28.2380   42.8300 H   0  0  0  0  0  0  0  0  0  0  0  0
   57.5190   27.9370   44.6770 C   0  0  0  0  0  0  0  0  0  0  0  0
   57.1410   26.5510   44.7130 N   0  0  0  0  0  0  0  0  0  0  0  0
   57.0300   26.0480   43.8060 H   0  0  0  0  0  0  0  0  0  0  0  0
   56.4860   25.9990   45.8230 C   0  0  0  0  0  0  0  0  0  0  0  0
   55.9440   25.5440   46.7380 N   0  0  0  0  0  0  0  0  0  0  0  0
   58.2920   28.4570   45.6010 N   0  0  0  0  0  0  0  0  0  0  0  0
   57.9200   29.2160   46.2120 H   0  0  0  0  0  0  0  0  0  0  0  0
   59.7010   28.0850   45.7870 C   0  0  0  0  0  0  0  0  0  0  0  0
   59.9617   27.2921   45.0705 H   0  0  0  0  0  0  0  0  0  0  0  0
   59.8374   27.7304   46.8193 H   0  0  0  0  0  0  0  0  0  0  0  0
   60.6200   29.2900   45.5580 C   0  0  0  0  0  0  0  0  0  0  0  0
   60.2719   29.8435   44.6734 H   0  0  0  0  0  0  0  0  0  0  0  0
   61.6454   28.9216   45.4071 H   0  0  0  0  0  0  0  0  0  0  0  0
   60.6160   30.2260   46.7640 C   0  0  0  0  0  0  0  0  0  0  0  0
   60.6185   29.6315   47.6895 H   0  0  0  0  0  0  0  0  0  0  0  0
   61.5114   30.8643   46.7357 H   0  0  0  0  0  0  0  0  0  0  0  0
   59.7152   30.8566   46.7357 H   0  0  0  0  0  0  0  0  0  0  0  0
   60.9450   33.8250   46.0940 C   0  0  0  0  0  0  0  0  0  0  0  0
   61.3693   33.5869   45.1075 H   0  0  0  0  0  0  0  0  0  0  0  0
   61.7400   33.7060   47.2390 C   0  0  0  0  0  0  0  0  0  0  0  0
   63.4050   33.1690   47.0680 Cl  0  0  0  0  0  0  0  0  0  0  0  0
   61.1980   34.0060   48.5000 C   0  0  0  0  0  0  0  0  0  0  0  0
   62.1610   33.8630   49.9650 Cl  0  0  0  0  0  0  0  0  0  0  0  0
  1  2  1  0
  2  3  2  0
  3  4  1  0
  3  5  1  0
  5  6  1  0
  6  7  1  0
  6  8  1  0
  6  9  1  0
  9 10  1  0
  9 11  1  0
  9 12  1  0
 12 13  1  0
 13 14  1  0
 13 15  1  0
 13 16  1  0
 16 17  1  0
 16 18  1  0
 16 19  1  0
 19 20  1  0
 19 21  1  0
 21 22  1  0
 22 23  1  0
 22 24  1  0
 24 25  3  0
 21 26  2  0
 26 27  1  0
 26 28  1  0
 28 29  1  0
 28 30  1  0
 28 31  1  0
 31 32  1  0
 31 33  1  0
 31 34  1  0
 34 35  1  0
 34 36  1  0
 34 37  1  0
  5 38  2  0
 38 39  1  0
 38 40  1  0
 40 41  1  0
 40 42  2  0
 42 43  1  0
 42  2  1  0
M  CHG  1  26   1
M  END
>  <UniqueID>  (45) 
44

>  <SMILES>  (45) 
CCC/[NH+]=C(\NC#N)NCCSCCc1ccc(Cl)c(Cl)c1

>  <Energy>  (45) 
32.4182710682597

>  <Genealogy>  (45) 
CCC[NH+]=C(NC#N)NCCSCCc1ccc(Cl)c(Cl)c1 (protonated)
CCC/[NH+]=C(\NC#N)NCCSCCc1ccc(Cl)c(Cl)c1 (cis-trans isomerization)
CCC/[NH+]=C(\NC#N)NCCSCCc1ccc(Cl)c(Cl)c1 (3D coordinates assigned)
CCC/[NH+]=C(\NC#N)NCCSCCc1ccc(Cl)c(Cl)c1 (optimized conformer: 32.4182710682597 kcal/mol)

>  <smiles>  (45) 
CCCN=C(NC#N)NCCSCCc1ccc(Cl)c(Cl)c1

>  <score_type>  (45) 
oracle

>  <origin>  (45) 
adg

>  <m_score__min__energy>  (45) 
-5.9500000000000002

>  <m_primary>  (45) 
energy

$$$$
45:0
     RDKit          3D

 35 38  0  0  0  0  0  0  0  0999 V2000
   67.7480   32.3410   51.0970 C   0  0  0  0  0  0  0  0  0  0  0  0
   66.4020   32.8650   50.9130 N   0  0  0  0  0  0  0  0  0  0  0  0
   65.6510   32.7330   49.8050 C   0  0  0  0  0  0  0  0  0  0  0  0
   64.4720   33.4340   49.9960 C   0  0  0  0  0  0  0  0  0  0  0  0
   63.3380   33.5770   49.0480 C   0  0  0  0  0  0  0  0  0  0  0  0
   62.0610   33.9500   49.5070 C   0  0  0  0  0  0  0  0  0  0  0  0
   60.9930   34.0830   48.6150 C   0  0  0  0  0  0  0  0  0  0  0  0
   61.1750   33.8350   47.2480 C   0  0  0  0  0  0  0  0  0  0  0  0
   60.0560   33.9910   46.2940 C   0  0  0  0  0  0  0  0  0  0  0  0
   59.6360   35.1830   45.7230 C   0  0  0  0  0  0  0  0  0  0  0  0
   58.5720   34.9590   44.9170 N   0  0  0  0  0  0  0  0  0  0  0  0
   58.3770   33.6280   45.0120 C   0  0  0  0  0  0  0  0  0  0  0  0
   57.3980   32.9020   44.3360 C   0  0  0  0  0  0  0  0  0  0  0  0
   57.3680   31.5110   44.5230 C   0  0  0  0  0  0  0  0  0  0  0  0
   58.3120   30.8880   45.3600 C   0  0  0  0  0  0  0  0  0  0  0  0
   59.2770   31.6670   46.0150 C   0  0  0  0  0  0  0  0  0  0  0  0
   59.2550   33.0140   45.8280 N   0  0  0  0  0  0  0  0  0  0  0  0
   62.4500   33.4830   46.7810 C   0  0  0  0  0  0  0  0  0  0  0  0
   63.5190   33.3490   47.6710 C   0  0  0  0  0  0  0  0  0  0  0  0
   64.5940   33.9820   51.2660 C   0  0  0  0  0  0  0  0  0  0  0  0
   65.7800   33.6270   51.7970 N   0  0  0  0  0  0  0  0  0  0  0  0
   67.9648   32.2566   52.1721 H   0  0  0  0  0  0  0  0  0  0  0  0
   67.8222   31.3483   50.6289 H   0  0  0  0  0  0  0  0  0  0  0  0
   68.4738   33.0222   50.6289 H   0  0  0  0  0  0  0  0  0  0  0  0
   65.9257   32.1663   48.9031 H   0  0  0  0  0  0  0  0  0  0  0  0
   61.9016   34.1389   50.5789 H   0  0  0  0  0  0  0  0  0  0  0  0
   60.0033   34.3843   48.9887 H   0  0  0  0  0  0  0  0  0  0  0  0
   60.0991   36.1651   45.8991 H   0  0  0  0  0  0  0  0  0  0  0  0
   56.6727   33.4025   43.6776 H   0  0  0  0  0  0  0  0  0  0  0  0
   56.6037   30.9059   44.0133 H   0  0  0  0  0  0  0  0  0  0  0  0
   58.2933   29.7971   45.4997 H   0  0  0  0  0  0  0  0  0  0  0  0
   60.0328   31.2002   46.6638 H   0  0  0  0  0  0  0  0  0  0  0  0
   62.6096   33.3112   45.7063 H   0  0  0  0  0  0  0  0  0  0  0  0
   64.5111   33.0627   47.2919 H   0  0  0  0  0  0  0  0  0  0  0  0
   63.8387   34.6093   51.7620 H   0  0  0  0  0  0  0  0  0  0  0  0
  1  2  1  0
  2  3  1  0
  3  4  2  0
  4  5  1  0
  5  6  2  0
  6  7  1  0
  7  8  2  0
  8  9  1  0
  9 10  2  0
 10 11  1  0
 11 12  2  0
 12 13  1  0
 13 14  2  0
 14 15  1  0
 15 16  2  0
 16 17  1  0
  8 18  1  0
 18 19  2  0
  4 20  1  0
 20 21  2  0
 21  2  1  0
 19  5  1  0
 17  9  1  0
 17 12  1  0
  1 22  1  0
  1 23  1  0
  1 24  1  0
  3 25  1  0
  6 26  1  0
  7 27  1  0
 10 28  1  0
 13 29  1  0
 14 30  1  0
 15 31  1  0
 16 32  1  0
 18 33  1  0
 19 34  1  0
 20 35  1  0
M  END
>  <UniqueID>  (46) 
45

>  <SMILES>  (46) 
Cn1cc(-c2ccc(-c3cnc4ccccn34)cc2)cn1

>  <Energy>  (46) 
110.72684035129244

>  <Genealogy>  (46) 
Cn1cc(-c2ccc(-c3cnc4ccccn34)cc2)cn1 (3D coordinates assigned)
Cn1cc(-c2ccc(-c3cnc4ccccn34)cc2)cn1 (optimized conformer: 110.72684035129244 kcal/mol)

>  <smiles>  (46) 
Cn1cc(-c2ccc(-c3cnc4ccccn34)cc2)cn1

>  <score_type>  (46) 
oracle

>  <origin>  (46) 
adg

>  <m_score__min__energy>  (46) 
-6.8399999999999999

>  <m_primary>  (46) 
energy

$$$$
46:0
     RDKit          3D

 46 49  0  0  0  0  0  0  0  0999 V2000
   59.4270   33.6180   53.6240 C   0  0  0  0  0  0  0  0  0  0  0  0
   60.2650   33.1070   52.5930 O   0  0  0  0  0  0  0  0  0  0  0  0
   59.9360   33.1120   51.2300 C   0  0  0  0  0  0  0  0  0  0  0  0
   60.6620   33.8530   50.2800 C   0  0  0  0  0  0  0  0  0  0  0  0
   60.2930   33.8250   48.9320 C   0  0  0  0  0  0  0  0  0  0  0  0
   59.1870   33.0660   48.5070 C   0  0  0  0  0  0  0  0  0  0  0  0
   58.8190   33.0330   47.0710 C   0  0  0  0  0  0  0  0  0  0  0  0
   58.1890   31.9850   46.6150 N   0  0  0  0  0  0  0  0  0  0  0  0
   57.8050   31.8710   45.2700 N   0  0  0  0  0  0  0  0  0  0  0  0
   57.6960   30.7540   44.5200 C   0  0  0  0  0  0  0  0  0  0  0  0
   57.7320   29.3630   45.0280 C   0  0  0  0  0  0  0  0  0  0  0  0
   58.9660   28.7470   45.2820 C   0  0  0  0  0  0  0  0  0  0  0  0
   59.0200   27.4400   45.7730 C   0  0  0  0  0  0  0  0  0  0  0  0
   57.8360   26.7210   46.0150 C   0  0  0  0  0  0  0  0  0  0  0  0
   57.8500   25.4090   46.5160 O   0  0  0  0  0  0  0  0  0  0  0  0
   58.4670   24.3040   45.8640 C   0  0  0  0  0  0  0  0  0  0  0  0
   56.5950   27.3210   45.7510 C   0  0  0  0  0  0  0  0  0  0  0  0
   55.4290   26.5800   46.0020 O   0  0  0  0  0  0  0  0  0  0  0  0
   55.2340   25.2240   45.6120 C   0  0  0  0  0  0  0  0  0  0  0  0
   56.5500   28.6350   45.2450 C   0  0  0  0  0  0  0  0  0  0  0  0
   57.6500   31.0740   43.2040 N   0  0  0  0  0  0  0  0  0  0  0  0
   57.7290   32.3970   43.1310 N   0  0  0  0  0  0  0  0  0  0  0  0
   57.8190   32.8680   44.3840 C   0  0  0  0  0  0  0  0  0  0  0  0
   58.0790   34.5660   44.8640 S   0  0  0  0  0  0  0  0  0  0  0  0
   59.3390   34.0890   46.1040 C   0  0  0  0  0  0  0  0  0  0  0  0
   58.4730   32.3170   49.4590 C   0  0  0  0  0  0  0  0  0  0  0  0
   58.8440   32.3470   50.8070 C   0  0  0  0  0  0  0  0  0  0  0  0
   59.8525   33.3586   54.6047 H   0  0  0  0  0  0  0  0  0  0  0  0
   59.3581   34.7120   53.5320 H   0  0  0  0  0  0  0  0  0  0  0  0
   58.4229   33.1783   53.5320 H   0  0  0  0  0  0  0  0  0  0  0  0
   61.5240   34.4572   50.5993 H   0  0  0  0  0  0  0  0  0  0  0  0
   60.8728   34.4019   48.1964 H   0  0  0  0  0  0  0  0  0  0  0  0
   59.8994   29.2975   45.0931 H   0  0  0  0  0  0  0  0  0  0  0  0
   59.9948   26.9705   45.9715 H   0  0  0  0  0  0  0  0  0  0  0  0
   58.8575   23.6047   46.6180 H   0  0  0  0  0  0  0  0  0  0  0  0
   57.7260   23.7889   45.2351 H   0  0  0  0  0  0  0  0  0  0  0  0
   59.2943   24.6646   45.2351 H   0  0  0  0  0  0  0  0  0  0  0  0
   55.1434   24.5939   46.5091 H   0  0  0  0  0  0  0  0  0  0  0  0
   54.3150   25.1433   45.0129 H   0  0  0  0  0  0  0  0  0  0  0  0
   56.0930   24.8876   45.0129 H   0  0  0  0  0  0  0  0  0  0  0  0
   55.5779   29.0966   45.0171 H   0  0  0  0  0  0  0  0  0  0  0  0
   57.7420   32.9480   42.2450 H   0  0  0  0  0  0  0  0  0  0  0  0
   60.2187   33.6876   45.5797 H   0  0  0  0  0  0  0  0  0  0  0  0
   59.5971   34.9852   46.6872 H   0  0  0  0  0  0  0  0  0  0  0  0
   57.6170   31.7035   49.1414 H   0  0  0  0  0  0  0  0  0  0  0  0
   58.2711   31.7629   51.5423 H   0  0  0  0  0  0  0  0  0  0  0  0
  1  2  1  0
  2  3  1  0
  3  4  2  0
  4  5  1  0
  5  6  2  0
  6  7  1  0
  7  8  2  0
  8  9  1  0
  9 10  1  0
 10 11  1  0
 11 12  2  0
 12 13  1  0
 13 14  2  0
 14 15  1  0
 15 16  1  0
 14 17  1  0
 17 18  1  0
 18 19  1  0
 17 20  2  0
 10 21  2  0
 21 22  1  0
 22 23  2  0
 23 24  1  0
 24 25  1  0
  6 26  1  0
 26 27  2  0
 27  3  1  0
 25  7  1  0
 23  9  1  0
 20 11  1  0
  1 28  1  0
  1 29  1  0
  1 30  1  0
  4 31  1  0
  5 32  1  0
 12 33  1  0
 13 34  1  0
 16 35  1  0
 16 36  1  0
 16 37  1  0
 19 38  1  0
 19 39  1  0
 19 40  1  0
 20 41  1  0
 22 42  1  0
 25 43  1  0
 25 44  1  0
 26 45  1  0
 27 46  1  0
M  CHG  1  22   1
M  END
>  <UniqueID>  (47) 
46

>  <SMILES>  (47) 
COc1ccc(C2=Nn3c(-c4ccc(OC)c(OC)c4)n[nH+]c3SC2)cc1

>  <Energy>  (47) 
98.8803851226335

>  <Genealogy>  (47) 
COc1ccc(C2=Nn3c(-c4ccc(OC)c(OC)c4)n[nH+]c3SC2)cc1 (protonated)
COc1ccc(C2=Nn3c(-c4ccc(OC)c(OC)c4)n[nH+]c3SC2)cc1 (3D coordinates assigned)
COc1ccc(C2=Nn3c(-c4ccc(OC)c(OC)c4)n[nH+]c3SC2)cc1 (nonaromatic ring conformer: 98.8803851226335 kcal/mol)

>  <smiles>  (47) 
COc1ccc(C2=Nn3c(nnc3-c3ccc(OC)c(OC)c3)SC2)cc1

>  <score_type>  (47) 
oracle

>  <origin>  (47) 
adg

>  <m_score__min__energy>  (47) 
-7.0800000000000001

>  <m_primary>  (47) 
energy

$$$$
