0:0
     RDKit          3D

 53 53  0  0  0  0  0  0  0  0999 V2000
   62.4790   33.8340   46.6710 C   0  0  0  0  0  0  0  0  0  0  0  0
   61.3730   33.8640   47.7240 C   0  0  0  0  0  0  0  0  0  0  0  0
   60.1010   33.3790   47.1570 N   0  0  0  0  0  0  0  0  0  0  0  0
   59.1530   34.4050   46.6900 C   0  0  0  0  0  0  0  0  0  0  0  0
   59.2740   34.6070   45.1810 C   0  0  0  0  0  0  0  0  0  0  0  0
   59.8010   31.9530   47.0530 C   0  0  0  0  0  0  0  0  0  0  0  0
   60.7780   30.9760   47.3530 C   0  0  0  0  0  0  0  0  0  0  0  0
   60.4950   29.6130   47.2380 C   0  0  0  0  0  0  0  0  0  0  0  0
   59.2340   29.1790   46.8120 C   0  0  0  0  0  0  0  0  0  0  0  0
   58.9060   27.7040   46.7770 C   0  0  0  0  0  0  0  0  0  0  0  0
   57.8630   27.3150   45.7970 N   0  0  2  0  0  0  0  0  0  0  0  0
   57.3920   25.9060   45.9220 C   0  0  0  0  0  0  0  0  0  0  0  0
   55.9030   25.7180   46.0760 C   0  0  0  0  0  0  0  0  0  0  0  0
   55.1450   26.7230   45.9990 O   0  0  0  0  0  0  0  0  0  0  0  0
   55.3490   24.4240   46.3280 N   0  0  0  0  0  0  0  0  0  0  0  0
   55.5800   23.2750   45.4560 C   0  0  0  0  0  0  0  0  0  0  0  0
   56.9220   22.6190   45.7970 C   0  0  0  0  0  0  0  0  0  0  0  0
   55.5590   23.7260   43.9980 C   0  0  0  0  0  0  0  0  0  0  0  0
   58.2140   27.8640   44.1650 S   0  0  0  0  0  0  0  0  0  0  0  0
   57.8400   26.5730   42.9980 C   0  0  0  0  0  0  0  0  0  0  0  0
   59.6540   28.2680   44.0160 O   0  0  0  0  0  0  0  0  0  0  0  0
   57.3440   29.0450   43.8330 O   0  0  0  0  0  0  0  0  0  0  0  0
   58.2490   30.1350   46.5310 C   0  0  0  0  0  0  0  0  0  0  0  0
   58.5270   31.4980   46.6420 C   0  0  0  0  0  0  0  0  0  0  0  0
   63.4592   33.8074   47.1695 H   0  0  0  0  0  0  0  0  0  0  0  0
   62.3628   32.9387   46.0426 H   0  0  0  0  0  0  0  0  0  0  0  0
   62.4115   34.7343   46.0426 H   0  0  0  0  0  0  0  0  0  0  0  0
   61.6607   33.2205   48.5685 H   0  0  0  0  0  0  0  0  0  0  0  0
   61.2362   34.9011   48.0642 H   0  0  0  0  0  0  0  0  0  0  0  0
   58.1282   34.0855   46.9302 H   0  0  0  0  0  0  0  0  0  0  0  0
   59.3851   35.3553   47.1931 H   0  0  0  0  0  0  0  0  0  0  0  0
   59.8296   35.5345   44.9786 H   0  0  0  0  0  0  0  0  0  0  0  0
   59.8103   33.7544   44.7388 H   0  0  0  0  0  0  0  0  0  0  0  0
   58.2693   34.6775   44.7388 H   0  0  0  0  0  0  0  0  0  0  0  0
   61.7779   31.2947   47.6826 H   0  0  0  0  0  0  0  0  0  0  0  0
   61.2708   28.8732   47.4846 H   0  0  0  0  0  0  0  0  0  0  0  0
   59.8271   27.1557   46.5301 H   0  0  0  0  0  0  0  0  0  0  0  0
   58.5017   27.4562   47.7696 H   0  0  0  0  0  0  0  0  0  0  0  0
   57.0380   27.9010   46.0710 H   0  0  0  0  0  0  0  0  0  0  0  0
   57.7081   25.3640   45.0185 H   0  0  0  0  0  0  0  0  0  0  0  0
   57.8370   25.5259   46.8534 H   0  0  0  0  0  0  0  0  0  0  0  0
   54.7820   22.5337   45.6099 H   0  0  0  0  0  0  0  0  0  0  0  0
   57.0358   22.5634   46.8897 H   0  0  0  0  0  0  0  0  0  0  0  0
   56.9524   21.6044   45.3731 H   0  0  0  0  0  0  0  0  0  0  0  0
   57.7413   23.2182   45.3731 H   0  0  0  0  0  0  0  0  0  0  0  0
   55.5079   24.8240   43.9545 H   0  0  0  0  0  0  0  0  0  0  0  0
   56.4742   23.3813   43.4944 H   0  0  0  0  0  0  0  0  0  0  0  0
   54.6798   23.2978   43.4944 H   0  0  0  0  0  0  0  0  0  0  0  0
   57.5738   25.6540   43.5407 H   0  0  0  0  0  0  0  0  0  0  0  0
   56.9949   26.8835   42.3661 H   0  0  0  0  0  0  0  0  0  0  0  0
   58.7202   26.3837   42.3661 H   0  0  0  0  0  0  0  0  0  0  0  0
   57.2460   29.8077   46.2196 H   0  0  0  0  0  0  0  0  0  0  0  0
   57.7415   32.2309   46.4057 H   0  0  0  0  0  0  0  0  0  0  0  0
  1  2  1  0
  2  3  1  0
  3  4  1  0
  4  5  1  0
  3  6  1  0
  6  7  2  0
  7  8  1  0
  8  9  2  0
  9 10  1  0
 10 11  1  0
 11 12  1  0
 12 13  1  0
 13 14  2  0
 13 15  1  0
 15 16  1  0
 16 17  1  0
 16 18  1  0
 11 19  1  0
 19 20  1  0
 19 21  2  0
 19 22  2  0
  9 23  1  0
 23 24  2  0
 24  6  1  0
  1 25  1  0
  1 26  1  0
  1 27  1  0
  2 28  1  0
  2 29  1  0
  4 30  1  0
  4 31  1  0
  5 32  1  0
  5 33  1  0
  5 34  1  0
  7 35  1  0
  8 36  1  0
 10 37  1  0
 10 38  1  0
 11 39  1  1
 12 40  1  0
 12 41  1  0
 16 42  1  0
 17 43  1  0
 17 44  1  0
 17 45  1  0
 18 46  1  0
 18 47  1  0
 18 48  1  0
 20 49  1  0
 20 50  1  0
 20 51  1  0
 23 52  1  0
 24 53  1  0
M  CHG  2  11   1  15  -1
M  END
>  <UniqueID>  (1) 
1

>  <SMILES>  (1) 
CCN(CC)c1ccc(C[N@H+](CC(=O)[N-]C(C)C)S(C)(=O)=O)cc1

>  <Energy>  (1) 
44.528151571253765

>  <Genealogy>  (1) 
CCN(CC)c1ccc(C[NH+](CC(=O)[N-]C(C)C)S(C)(=O)=O)cc1 (protonated)
CCN(CC)c1ccc(C[N@H+](CC(=O)[N-]C(C)C)S(C)(=O)=O)cc1 (chirality)
CCN(CC)c1ccc(C[N@H+](CC(=O)[N-]C(C)C)S(C)(=O)=O)cc1 (3D coordinates assigned)
CCN(CC)c1ccc(C[N@H+](CC(=O)[N-]C(C)C)S(C)(=O)=O)cc1 (optimized conformer: 44.528151571253765 kcal/mol)

>  <smiles>  (1) 
CCN(CC)c1ccc(CN(CC(=O)NC(C)C)S(C)(=O)=O)cc1

>  <score_type>  (1) 
oracle

>  <origin>  (1) 
adg

>  <m_score__min__energy>  (1) 
-7.4699999999999998

>  <m_primary>  (1) 
energy

$$$$
1:0
     RDKit          3D

 67 69  0  0  0  0  0  0  0  0999 V2000
   58.1600   27.1940   43.4350 C   0  0  0  0  0  0  0  0  0  0  0  0
   59.1930   27.6040   44.4930 C   0  0  0  0  0  0  0  0  0  0  0  0
   58.6670   27.4680   45.8790 N   0  0  0  0  0  0  0  0  0  0  0  0
   57.9670   26.1620   46.0320 C   0  0  0  0  0  0  0  0  0  0  0  0
   56.4630   26.3260   46.2870 C   0  0  0  0  0  0  0  0  0  0  0  0
   59.7680   27.5680   46.8780 C   0  0  0  0  0  0  0  0  0  0  0  0
   59.6990   28.8220   47.7720 C   0  0  0  0  0  0  0  0  0  0  0  0
   58.9760   29.8500   47.1250 O   0  0  0  0  0  0  0  0  0  0  0  0
   59.7190   30.3960   46.0530 C   0  0  0  0  0  0  0  0  0  0  0  0
   58.8210   30.8620   44.9010 C   0  0  0  0  0  0  0  0  0  0  0  0
   58.6290   32.2600   44.9720 O   0  0  0  0  0  0  0  0  0  0  0  0
   57.2510   32.5770   45.0570 C   0  0  0  0  0  0  0  0  0  0  0  0
   57.0430   33.8180   45.9300 C   0  0  0  0  0  0  0  0  0  0  0  0
   58.2590   34.1080   46.8150 C   0  0  0  0  0  0  0  0  0  0  0  0
   58.7150   32.8920   47.4860 N   0  0  0  0  0  0  0  0  0  0  0  0
   59.7410   32.9650   48.4860 C   0  0  0  0  0  0  0  0  0  0  0  0
   61.0550   33.2950   48.1200 C   0  0  0  0  0  0  0  0  0  0  0  0
   61.3940   33.5060   46.7670 C   0  0  0  0  0  0  0  0  0  0  0  0
   62.7080   33.7880   46.4000 C   0  0  0  0  0  0  0  0  0  0  0  0
   63.7030   33.8530   47.3680 C   0  0  0  0  0  0  0  0  0  0  0  0
   63.3880   33.6610   48.7130 C   0  0  0  0  0  0  0  0  0  0  0  0
   62.0530   33.4140   49.1240 C   0  0  0  0  0  0  0  0  0  0  0  0
   61.7130   33.2770   50.4590 N   0  0  0  0  0  0  0  0  0  0  0  0
   62.6720   33.6820   51.5110 C   0  0  0  0  0  0  0  0  0  0  0  0
   60.4690   32.7840   50.8080 C   0  0  0  0  0  0  0  0  0  0  0  0
   60.1710   32.3800   52.1330 C   0  0  0  0  0  0  0  0  0  0  0  0
   58.8990   31.9240   52.4790 C   0  0  0  0  0  0  0  0  0  0  0  0
   57.8980   31.8400   51.5170 C   0  0  0  0  0  0  0  0  0  0  0  0
   56.3040   31.2560   51.9620 Cl  0  0  0  0  0  0  0  0  0  0  0  0
   58.1720   32.1930   50.1970 C   0  0  0  0  0  0  0  0  0  0  0  0
   59.4520   32.6540   49.8250 C   0  0  0  0  0  0  0  0  0  0  0  0
   57.2485   26.8322   43.9333 H   0  0  0  0  0  0  0  0  0  0  0  0
   57.9141   28.0627   42.8066 H   0  0  0  0  0  0  0  0  0  0  0  0
   58.5768   26.3931   42.8066 H   0  0  0  0  0  0  0  0  0  0  0  0
   60.0810   26.9634   44.3872 H   0  0  0  0  0  0  0  0  0  0  0  0
   59.4399   28.6634   44.3293 H   0  0  0  0  0  0  0  0  0  0  0  0
   57.9770   28.2350   46.0540 H   0  0  0  0  0  0  0  0  0  0  0  0
   58.1066   25.5772   45.1108 H   0  0  0  0  0  0  0  0  0  0  0  0
   58.3997   25.6520   46.9053 H   0  0  0  0  0  0  0  0  0  0  0  0
   56.2749   26.3465   47.3706 H   0  0  0  0  0  0  0  0  0  0  0  0
   56.1152   27.2674   45.8366 H   0  0  0  0  0  0  0  0  0  0  0  0
   55.9205   25.4817   45.8366 H   0  0  0  0  0  0  0  0  0  0  0  0
   59.7275   26.6800   47.5259 H   0  0  0  0  0  0  0  0  0  0  0  0
   60.7062   27.6377   46.3080 H   0  0  0  0  0  0  0  0  0  0  0  0
   59.1977   28.5661   48.7171 H   0  0  0  0  0  0  0  0  0  0  0  0
   60.7217   29.1755   47.9698 H   0  0  0  0  0  0  0  0  0  0  0  0
   60.2944   31.2571   46.4237 H   0  0  0  0  0  0  0  0  0  0  0  0
   60.3810   29.6073   45.6660 H   0  0  0  0  0  0  0  0  0  0  0  0
   59.2972   30.6081   43.9425 H   0  0  0  0  0  0  0  0  0  0  0  0
   57.8455   30.3595   44.9781 H   0  0  0  0  0  0  0  0  0  0  0  0
   56.8613   32.7742   44.0474 H   0  0  0  0  0  0  0  0  0  0  0  0
   56.7162   31.7285   45.5087 H   0  0  0  0  0  0  0  0  0  0  0  0
   56.8639   34.6852   45.2774 H   0  0  0  0  0  0  0  0  0  0  0  0
   56.1815   33.6300   46.5877 H   0  0  0  0  0  0  0  0  0  0  0  0
   59.0739   34.5022   46.1901 H   0  0  0  0  0  0  0  0  0  0  0  0
   57.9711   34.8452   47.5789 H   0  0  0  0  0  0  0  0  0  0  0  0
   58.4420   31.9500   47.1250 H   0  0  0  0  0  0  0  0  0  0  0  0
   60.6133   33.4473   45.9943 H   0  0  0  0  0  0  0  0  0  0  0  0
   62.9583   33.9594   45.3427 H   0  0  0  0  0  0  0  0  0  0  0  0
   64.7428   34.0566   47.0723 H   0  0  0  0  0  0  0  0  0  0  0  0
   64.1877   33.7018   49.4672 H   0  0  0  0  0  0  0  0  0  0  0  0
   62.2305   33.4955   52.5011 H   0  0  0  0  0  0  0  0  0  0  0  0
   63.5986   33.0983   51.4069 H   0  0  0  0  0  0  0  0  0  0  0  0
   62.8997   34.7531   51.4069 H   0  0  0  0  0  0  0  0  0  0  0  0
   60.9562   32.4268   52.9019 H   0  0  0  0  0  0  0  0  0  0  0  0
   58.6866   31.6295   53.5173 H   0  0  0  0  0  0  0  0  0  0  0  0
   57.3812   32.1112   49.4368 H   0  0  0  0  0  0  0  0  0  0  0  0
  1  2  1  0
  2  3  1  0
  3  4  1  0
  4  5  1  0
  3  6  1  0
  6  7  1  0
  7  8  1  0
  8  9  1  0
  9 10  1  0
 10 11  1  0
 11 12  1  0
 12 13  1  0
 13 14  1  0
 14 15  1  0
 15 16  1  0
 16 17  2  0
 17 18  1  0
 18 19  2  0
 19 20  1  0
 20 21  2  0
 21 22  1  0
 22 23  2  0
 23 24  1  0
 23 25  1  0
 25 26  2  0
 26 27  1  0
 27 28  2  0
 28 29  1  0
 28 30  1  0
 30 31  2  0
 31 16  1  0
 22 17  1  0
 31 25  1  0
  1 32  1  0
  1 33  1  0
  1 34  1  0
  2 35  1  0
  2 36  1  0
  3 37  1  0
  4 38  1  0
  4 39  1  0
  5 40  1  0
  5 41  1  0
  5 42  1  0
  6 43  1  0
  6 44  1  0
  7 45  1  0
  7 46  1  0
  9 47  1  0
  9 48  1  0
 10 49  1  0
 10 50  1  0
 12 51  1  0
 12 52  1  0
 13 53  1  0
 13 54  1  0
 14 55  1  0
 14 56  1  0
 15 57  1  0
 18 58  1  0
 19 59  1  0
 20 60  1  0
 21 61  1  0
 24 62  1  0
 24 63  1  0
 24 64  1  0
 26 65  1  0
 27 66  1  0
 30 67  1  0
M  CHG  2   3   1  23   1
M  END
>  <UniqueID>  (2) 
2

>  <SMILES>  (2) 
CC[NH+](CC)CCOCCOCCCNc1c2ccccc2[n+](C)c2ccc(Cl)cc12

>  <Energy>  (2) 
90.68590250917686

>  <Genealogy>  (2) 
CC[NH+](CC)CCOCCOCCCNc1c2ccccc2[n+](C)c2ccc(Cl)cc12 (protonated)
CC[NH+](CC)CCOCCOCCCNc1c2ccccc2[n+](C)c2ccc(Cl)cc12 (3D coordinates assigned)
CC[NH+](CC)CCOCCOCCCNc1c2ccccc2[n+](C)c2ccc(Cl)cc12 (optimized conformer: 90.68590250917686 kcal/mol)

>  <smiles>  (2) 
CCN(CC)CCOCCOCCCNc1c2ccccc2[n+](C)c2ccc(Cl)cc12

>  <score_type>  (2) 
oracle

>  <origin>  (2) 
adg

>  <m_score__min__energy>  (2) 
-4.2199999999999998

>  <m_primary>  (2) 
energy

$$$$
2:0
     RDKit          3D

 73 76  0  0  0  0  0  0  0  0999 V2000
   62.4240   33.8140   46.4030 C   0  0  0  0  0  0  0  0  0  0  0  0
   63.5400   33.7270   47.4410 C   0  0  0  0  0  0  0  0  0  0  0  0
   63.7600   32.3200   47.8380 N   0  0  0  0  0  0  0  0  0  0  0  0
   62.6120   31.4880   47.4440 C   0  0  0  0  0  0  0  0  0  0  0  0
   64.0290   32.1950   49.2900 C   0  0  0  0  0  0  0  0  0  0  0  0
   63.0750   31.1790   49.9210 C   0  0  0  0  0  0  0  0  0  0  0  0
   61.9060   31.8340   50.3820 O   0  0  0  0  0  0  0  0  0  0  0  0
   62.1900   33.1350   50.8620 C   0  0  0  0  0  0  0  0  0  0  0  0
   60.9230   33.7990   51.3970 C   0  0  0  0  0  0  0  0  0  0  0  0
   59.9570   32.8050   51.6790 O   0  0  0  0  0  0  0  0  0  0  0  0
   58.8900   33.3430   52.4410 C   0  0  0  0  0  0  0  0  0  0  0  0
   57.5410   32.7510   52.0240 C   0  0  0  0  0  0  0  0  0  0  0  0
   57.7140   31.9290   50.8880 O   0  0  0  0  0  0  0  0  0  0  0  0
   57.7940   30.5770   51.2900 C   0  0  0  0  0  0  0  0  0  0  0  0
   58.7880   29.8480   50.3810 C   0  0  0  0  0  0  0  0  0  0  0  0
   59.7130   30.7610   49.6810 N   0  0  0  0  0  0  0  0  0  0  0  0
   59.2910   31.0410   48.3170 C   0  0  0  0  0  0  0  0  0  0  0  0
   58.9700   29.9770   47.4600 C   0  0  0  0  0  0  0  0  0  0  0  0
   58.5960   30.2010   46.1500 C   0  0  0  0  0  0  0  0  0  0  0  0
   58.3950   31.4630   45.6550 N   0  0  0  0  0  0  0  0  0  0  0  0
   57.6750   31.6510   44.3840 C   0  0  0  0  0  0  0  0  0  0  0  0
   58.8090   32.5450   46.4130 C   0  0  0  0  0  0  0  0  0  0  0  0
   58.8460   33.8510   45.8650 C   0  0  0  0  0  0  0  0  0  0  0  0
   59.2100   34.9490   46.6400 C   0  0  0  0  0  0  0  0  0  0  0  0
   59.5540   34.7770   47.9730 C   0  0  0  0  0  0  0  0  0  0  0  0
   59.5700   33.5040   48.5380 C   0  0  0  0  0  0  0  0  0  0  0  0
   59.2300   32.3610   47.7750 C   0  0  0  0  0  0  0  0  0  0  0  0
   58.3930   28.8950   45.5080 C   0  0  0  0  0  0  0  0  0  0  0  0
   58.2330   28.5360   44.1600 C   0  0  0  0  0  0  0  0  0  0  0  0
   58.1420   27.1740   43.8310 C   0  0  0  0  0  0  0  0  0  0  0  0
   58.2570   26.1910   44.8290 C   0  0  0  0  0  0  0  0  0  0  0  0
   58.4870   26.5630   46.1610 C   0  0  0  0  0  0  0  0  0  0  0  0
   58.5620   27.9210   46.4760 C   0  0  0  0  0  0  0  0  0  0  0  0
   58.9240   28.5100   47.7990 C   0  0  0  0  0  0  0  0  0  0  0  0
   61.4529   33.8897   46.9141 H   0  0  0  0  0  0  0  0  0  0  0  0
   62.5773   34.7029   45.7735 H   0  0  0  0  0  0  0  0  0  0  0  0
   62.4377   32.9121   45.7735 H   0  0  0  0  0  0  0  0  0  0  0  0
   64.4679   34.1326   47.0116 H   0  0  0  0  0  0  0  0  0  0  0  0
   63.2507   34.3091   48.3284 H   0  0  0  0  0  0  0  0  0  0  0  0
   62.1011   31.1177   48.3451 H   0  0  0  0  0  0  0  0  0  0  0  0
   61.9113   32.0894   46.8462 H   0  0  0  0  0  0  0  0  0  0  0  0
   62.9654   30.6349   46.8462 H   0  0  0  0  0  0  0  0  0  0  0  0
   65.0662   31.8604   49.4395 H   0  0  0  0  0  0  0  0  0  0  0  0
   63.8764   33.1740   49.7678 H   0  0  0  0  0  0  0  0  0  0  0  0
   62.7978   30.4243   49.1702 H   0  0  0  0  0  0  0  0  0  0  0  0
   63.5758   30.6927   50.7711 H   0  0  0  0  0  0  0  0  0  0  0  0
   62.9322   33.0678   51.6711 H   0  0  0  0  0  0  0  0  0  0  0  0
   62.5847   33.7406   50.0329 H   0  0  0  0  0  0  0  0  0  0  0  0
   61.1593   34.3532   52.3173 H   0  0  0  0  0  0  0  0  0  0  0  0
   60.5259   34.4952   50.6436 H   0  0  0  0  0  0  0  0  0  0  0  0
   59.0636   33.1203   53.5042 H   0  0  0  0  0  0  0  0  0  0  0  0
   58.8568   34.4284   52.2657 H   0  0  0  0  0  0  0  0  0  0  0  0
   57.1333   32.1512   52.8510 H   0  0  0  0  0  0  0  0  0  0  0  0
   56.8439   33.5666   51.7815 H   0  0  0  0  0  0  0  0  0  0  0  0
   58.1382   30.5216   52.3333 H   0  0  0  0  0  0  0  0  0  0  0  0
   56.8031   30.1057   51.2130 H   0  0  0  0  0  0  0  0  0  0  0  0
   59.3801   29.1541   50.9958 H   0  0  0  0  0  0  0  0  0  0  0  0
   58.2030   29.3223   49.6120 H   0  0  0  0  0  0  0  0  0  0  0  0
   59.7330   31.6610   50.2140 H   0  0  0  0  0  0  0  0  0  0  0  0
   60.6920   30.4090   49.7370 H   0  0  0  0  0  0  0  0  0  0  0  0
   56.6298   31.9239   44.5916 H   0  0  0  0  0  0  0  0  0  0  0  0
   58.1556   32.4538   43.8056 H   0  0  0  0  0  0  0  0  0  0  0  0
   57.7018   30.7157   43.8056 H   0  0  0  0  0  0  0  0  0  0  0  0
   58.5823   34.0003   44.8076 H   0  0  0  0  0  0  0  0  0  0  0  0
   59.2248   35.9547   46.1946 H   0  0  0  0  0  0  0  0  0  0  0  0
   59.8157   35.6512   48.5873 H   0  0  0  0  0  0  0  0  0  0  0  0
   59.8515   33.3848   49.5947 H   0  0  0  0  0  0  0  0  0  0  0  0
   58.1800   29.3067   43.3770 H   0  0  0  0  0  0  0  0  0  0  0  0
   57.9796   26.8743   42.7851 H   0  0  0  0  0  0  0  0  0  0  0  0
   58.1663   25.1272   44.5643 H   0  0  0  0  0  0  0  0  0  0  0  0
   58.6062   25.7990   46.9434 H   0  0  0  0  0  0  0  0  0  0  0  0
   58.1587   28.2953   48.5594 H   0  0  0  0  0  0  0  0  0  0  0  0
   59.8559   28.1157   48.2303 H   0  0  0  0  0  0  0  0  0  0  0  0
  1  2  1  0
  2  3  1  0
  3  4  1  0
  3  5  1  0
  5  6  1  0
  6  7  1  0
  7  8  1  0
  8  9  1  0
  9 10  1  0
 10 11  1  0
 11 12  1  0
 12 13  1  0
 13 14  1  0
 14 15  1  0
 15 16  1  0
 16 17  1  0
 17 18  2  0
 18 19  1  0
 19 20  2  0
 20 21  1  0
 20 22  1  0
 22 23  2  0
 23 24  1  0
 24 25  2  0
 25 26  1  0
 26 27  2  0
 19 28  1  0
 28 29  2  0
 29 30  1  0
 30 31  2  0
 31 32  1  0
 32 33  2  0
 33 34  1  0
 27 17  1  0
 33 28  1  0
 34 18  1  0
 27 22  1  0
  1 35  1  0
  1 36  1  0
  1 37  1  0
  2 38  1  0
  2 39  1  0
  4 40  1  0
  4 41  1  0
  4 42  1  0
  5 43  1  0
  5 44  1  0
  6 45  1  0
  6 46  1  0
  8 47  1  0
  8 48  1  0
  9 49  1  0
  9 50  1  0
 11 51  1  0
 11 52  1  0
 12 53  1  0
 12 54  1  0
 14 55  1  0
 14 56  1  0
 15 57  1  0
 15 58  1  0
 16 59  1  0
 16 60  1  0
 21 61  1  0
 21 62  1  0
 21 63  1  0
 23 64  1  0
 24 65  1  0
 25 66  1  0
 26 67  1  0
 29 68  1  0
 30 69  1  0
 31 70  1  0
 32 71  1  0
 34 72  1  0
 34 73  1  0
M  CHG  2  16   1  20   1
M  END
>  <UniqueID>  (3) 
3

>  <SMILES>  (3) 
CCN(C)CCOCCOCCOCC[NH2+]c1c2c([n+](C)c3ccccc13)-c1ccccc1C2

>  <Energy>  (3) 
118.01319925117843

>  <Genealogy>  (3) 
CCN(C)CCOCCOCCOCC[NH2+]c1c2c([n+](C)c3ccccc13)-c1ccccc1C2 (protonated)
CCN(C)CCOCCOCCOCC[NH2+]c1c2c([n+](C)c3ccccc13)-c1ccccc1C2 (3D coordinates assigned)
CCN(C)CCOCCOCCOCC[NH2+]c1c2c([n+](C)c3ccccc13)-c1ccccc1C2 (nonaromatic ring conformer: 118.01319925117843 kcal/mol)

>  <smiles>  (3) 
CCN(C)CCOCCOCCOCCNc1c2c([n+](C)c3ccccc13)-c1ccccc1C2

>  <score_type>  (3) 
oracle

>  <origin>  (3) 
adg

>  <m_score__min__energy>  (3) 
-4.5300000000000002

>  <m_primary>  (3) 
energy

$$$$
3:0
     RDKit          3D

 51 53  0  0  0  0  0  0  0  0999 V2000
   58.6920   32.2880   48.6870 C   0  0  0  0  0  0  0  0  0  0  0  0
   59.7170   32.9330   47.8750 N   0  0  0  0  0  0  0  0  0  0  0  0
   61.0090   32.6600   47.9820 N   0  0  0  0  0  0  0  0  0  0  0  0
   61.6570   33.4320   47.0880 C   0  0  0  0  0  0  0  0  0  0  0  0
   63.1450   33.4170   46.8930 C   0  0  0  0  0  0  0  0  0  0  0  0
   63.8180   32.5130   47.8450 N   0  0  0  0  0  0  0  0  0  0  0  0
   64.3770   33.2050   49.0300 C   0  0  0  0  0  0  0  0  0  0  0  0
   63.2500   33.5730   50.0120 C   0  0  0  0  0  0  0  0  0  0  0  0
   63.7930   34.3490   51.2330 C   0  0  0  0  0  0  0  0  0  0  0  0
   65.2080   34.0650   51.5350 N   0  0  0  0  0  0  0  0  0  0  0  0
   65.5570   32.6660   51.2560 C   0  0  0  0  0  0  0  0  0  0  0  0
   65.4490   32.3450   49.7520 C   0  0  0  0  0  0  0  0  0  0  0  0
   60.7550   34.2040   46.3810 C   0  0  0  0  0  0  0  0  0  0  0  0
   59.5300   33.8720   46.9230 C   0  0  0  0  0  0  0  0  0  0  0  0
   58.2110   34.4840   46.5360 C   0  0  0  0  0  0  0  0  0  0  0  0
   57.1880   33.4480   46.3230 N   0  0  0  0  0  0  0  0  0  0  0  0
   57.0450   33.0750   44.9050 C   0  0  0  0  0  0  0  0  0  0  0  0
   57.4100   31.6280   44.6940 C   0  0  0  0  0  0  0  0  0  0  0  0
   56.6160   30.8160   43.8680 C   0  0  0  0  0  0  0  0  0  0  0  0
   56.9140   29.4570   43.7200 C   0  0  0  0  0  0  0  0  0  0  0  0
   58.0100   28.9030   44.3860 C   0  0  0  0  0  0  0  0  0  0  0  0
   58.2930   27.5850   44.2490 F   0  0  0  0  0  0  0  0  0  0  0  0
   58.8160   29.7100   45.1950 C   0  0  0  0  0  0  0  0  0  0  0  0
   58.5220   31.0680   45.3460 C   0  0  0  0  0  0  0  0  0  0  0  0
   58.9231   32.4334   49.7526 H   0  0  0  0  0  0  0  0  0  0  0  0
   57.7115   32.7322   48.4605 H   0  0  0  0  0  0  0  0  0  0  0  0
   58.6682   31.2118   48.4605 H   0  0  0  0  0  0  0  0  0  0  0  0
   63.3656   33.0821   45.8687 H   0  0  0  0  0  0  0  0  0  0  0  0
   63.5209   34.4358   47.0681 H   0  0  0  0  0  0  0  0  0  0  0  0
   63.1270   31.7890   48.1560 H   0  0  0  0  0  0  0  0  0  0  0  0
   64.5860   32.0120   47.3380 H   0  0  0  0  0  0  0  0  0  0  0  0
   64.8684   34.1225   48.6742 H   0  0  0  0  0  0  0  0  0  0  0  0
   62.5116   34.1994   49.4900 H   0  0  0  0  0  0  0  0  0  0  0  0
   62.7889   32.6417   50.3725 H   0  0  0  0  0  0  0  0  0  0  0  0
   63.6899   35.4259   51.0338 H   0  0  0  0  0  0  0  0  0  0  0  0
   63.2070   34.0253   52.1058 H   0  0  0  0  0  0  0  0  0  0  0  0
   65.8170   34.6870   50.9520 H   0  0  0  0  0  0  0  0  0  0  0  0
   66.5898   32.4825   51.5872 H   0  0  0  0  0  0  0  0  0  0  0  0
   64.8508   32.0198   51.7980 H   0  0  0  0  0  0  0  0  0  0  0  0
   66.4255   32.5323   49.2814 H   0  0  0  0  0  0  0  0  0  0  0  0
   65.1470   31.2914   49.6585 H   0  0  0  0  0  0  0  0  0  0  0  0
   60.9651   34.9190   45.5719 H   0  0  0  0  0  0  0  0  0  0  0  0
   57.8781   35.1577   47.3393 H   0  0  0  0  0  0  0  0  0  0  0  0
   58.3462   35.0397   45.5963 H   0  0  0  0  0  0  0  0  0  0  0  0
   56.2730   33.8530   46.6320 H   0  0  0  0  0  0  0  0  0  0  0  0
   56.0019   33.2331   44.5937 H   0  0  0  0  0  0  0  0  0  0  0  0
   57.7220   33.7010   44.3052 H   0  0  0  0  0  0  0  0  0  0  0  0
   55.7568   31.2499   43.3355 H   0  0  0  0  0  0  0  0  0  0  0  0
   56.2842   28.8236   43.0781 H   0  0  0  0  0  0  0  0  0  0  0  0
   59.6832   29.2752   45.7136 H   0  0  0  0  0  0  0  0  0  0  0  0
   59.1632   31.7007   45.9773 H   0  0  0  0  0  0  0  0  0  0  0  0
  1  2  1  0
  2  3  1  0
  3  4  2  0
  4  5  1  0
  5  6  1  0
  6  7  1  0
  7  8  1  0
  8  9  1  0
  9 10  1  0
 10 11  1  0
 11 12  1  0
  4 13  1  0
 13 14  2  0
 14 15  1  0
 15 16  1  0
 16 17  1  0
 17 18  1  0
 18 19  2  0
 19 20  1  0
 20 21  2  0
 21 22  1  0
 21 23  1  0
 23 24  2  0
 14  2  1  0
 24 18  1  0
 12  7  1  0
  1 25  1  0
  1 26  1  0
  1 27  1  0
  5 28  1  0
  5 29  1  0
  6 30  1  0
  6 31  1  0
  7 32  1  0
  8 33  1  0
  8 34  1  0
  9 35  1  0
  9 36  1  0
 10 37  1  0
 11 38  1  0
 11 39  1  0
 12 40  1  0
 12 41  1  0
 13 42  1  0
 15 43  1  0
 15 44  1  0
 16 45  1  0
 17 46  1  0
 17 47  1  0
 19 48  1  0
 20 49  1  0
 23 50  1  0
 24 51  1  0
M  CHG  1   6   1
M  END
>  <UniqueID>  (4) 
4

>  <SMILES>  (4) 
Cn1nc(C[NH2+]C2CCNCC2)cc1CNCc1ccc(F)cc1

>  <Energy>  (4) 
81.90503328421183

>  <Genealogy>  (4) 
Cn1nc(C[NH2+]C2CCNCC2)cc1CNCc1ccc(F)cc1 (protonated)
Cn1nc(C[NH2+]C2CCNCC2)cc1CNCc1ccc(F)cc1 (3D coordinates assigned)
Cn1nc(C[NH2+]C2CCNCC2)cc1CNCc1ccc(F)cc1 (nonaromatic ring conformer: 81.90503328421183 kcal/mol)

>  <smiles>  (4) 
Cn1nc(CNC2CCNCC2)cc1CNCc1ccc(F)cc1

>  <score_type>  (4) 
oracle

>  <origin>  (4) 
adg

>  <m_score__min__energy>  (4) 
-6.29

>  <m_primary>  (4) 
energy

$$$$
4:0
     RDKit          3D

 51 53  0  0  0  0  0  0  0  0999 V2000
   57.6220   33.0840   47.4480 C   0  0  0  0  0  0  0  0  0  0  0  0
   57.3710   33.8150   46.1360 C   0  0  0  0  0  0  0  0  0  0  0  0
   58.4340   33.4630   45.1580 N   0  0  0  0  0  0  0  0  0  0  0  0
   59.7600   33.9630   45.5860 C   0  0  0  0  0  0  0  0  0  0  0  0
   59.6370   35.3100   46.2960 C   0  0  0  0  0  0  0  0  0  0  0  0
   58.4860   32.0050   44.9030 C   0  0  0  0  0  0  0  0  0  0  0  0
   57.2470   31.5360   44.1360 C   0  0  0  0  0  0  0  0  0  0  0  0
   56.6060   30.5150   44.8730 O   0  0  0  0  0  0  0  0  0  0  0  0
   57.2860   29.2840   44.7160 C   0  0  0  0  0  0  0  0  0  0  0  0
   57.9830   28.8980   46.0220 C   0  0  0  0  0  0  0  0  0  0  0  0
   59.3870   29.1340   45.9310 O   0  0  0  0  0  0  0  0  0  0  0  0
   60.2410   29.1640   47.0420 C   0  0  0  0  0  0  0  0  0  0  0  0
   60.6840   28.0850   47.5210 O   0  0  0  0  0  0  0  0  0  0  0  0
   60.6200   30.4690   47.6370 C   0  0  0  0  0  0  0  0  0  0  0  0
   61.7040   31.1940   47.0960 C   0  0  0  0  0  0  0  0  0  0  0  0
   62.0870   32.4330   47.6360 C   0  0  0  0  0  0  0  0  0  0  0  0
   61.4000   32.9800   48.7270 C   0  0  0  0  0  0  0  0  0  0  0  0
   60.3240   32.2740   49.2740 C   0  0  0  0  0  0  0  0  0  0  0  0
   59.9440   31.0400   48.7350 C   0  0  0  0  0  0  0  0  0  0  0  0
   58.6200   30.4380   49.6020 S   0  0  0  0  0  0  0  0  0  0  0  0
   58.5320   31.7420   50.6620 C   0  0  0  0  0  0  0  0  0  0  0  0
   57.6280   31.9340   51.7030 C   0  0  0  0  0  0  0  0  0  0  0  0
   57.7360   33.1050   52.4680 C   0  0  0  0  0  0  0  0  0  0  0  0
   58.7340   34.0530   52.1800 C   0  0  0  0  0  0  0  0  0  0  0  0
   59.6370   33.8420   51.1240 C   0  0  0  0  0  0  0  0  0  0  0  0
   59.5250   32.6690   50.3620 C   0  0  0  0  0  0  0  0  0  0  0  0
   57.3922   33.7531   48.2903 H   0  0  0  0  0  0  0  0  0  0  0  0
   56.9781   32.1937   47.5007 H   0  0  0  0  0  0  0  0  0  0  0  0
   58.6770   32.7771   47.5007 H   0  0  0  0  0  0  0  0  0  0  0  0
   56.3909   33.5192   45.7337 H   0  0  0  0  0  0  0  0  0  0  0  0
   57.3833   34.9004   46.3143 H   0  0  0  0  0  0  0  0  0  0  0  0
   60.2137   33.2344   46.2739 H   0  0  0  0  0  0  0  0  0  0  0  0
   60.3885   34.0949   44.6929 H   0  0  0  0  0  0  0  0  0  0  0  0
   59.6513   35.1533   47.3847 H   0  0  0  0  0  0  0  0  0  0  0  0
   60.4800   35.9550   46.0073 H   0  0  0  0  0  0  0  0  0  0  0  0
   58.6911   35.7917   46.0073 H   0  0  0  0  0  0  0  0  0  0  0  0
   59.3838   31.7756   44.3103 H   0  0  0  0  0  0  0  0  0  0  0  0
   58.5175   31.4817   45.8701 H   0  0  0  0  0  0  0  0  0  0  0  0
   56.5562   32.3812   43.9999 H   0  0  0  0  0  0  0  0  0  0  0  0
   57.5456   31.1498   43.1502 H   0  0  0  0  0  0  0  0  0  0  0  0
   56.5628   28.5009   44.4444 H   0  0  0  0  0  0  0  0  0  0  0  0
   58.0406   29.3882   43.9224 H   0  0  0  0  0  0  0  0  0  0  0  0
   57.5680   29.4990   46.8445 H   0  0  0  0  0  0  0  0  0  0  0  0
   57.8150   27.8274   46.2105 H   0  0  0  0  0  0  0  0  0  0  0  0
   62.2570   30.7825   46.2388 H   0  0  0  0  0  0  0  0  0  0  0  0
   62.9352   32.9791   47.1975 H   0  0  0  0  0  0  0  0  0  0  0  0
   61.7023   33.9505   49.1473 H   0  0  0  0  0  0  0  0  0  0  0  0
   56.8498   31.1875   51.9200 H   0  0  0  0  0  0  0  0  0  0  0  0
   57.0361   33.2826   53.2978 H   0  0  0  0  0  0  0  0  0  0  0  0
   58.8085   34.9676   52.7865 H   0  0  0  0  0  0  0  0  0  0  0  0
   60.4178   34.5833   50.8987 H   0  0  0  0  0  0  0  0  0  0  0  0
  1  2  1  0
  2  3  1  0
  3  4  1  0
  4  5  1  0
  3  6  1  0
  6  7  1  0
  7  8  1  0
  8  9  1  0
  9 10  1  0
 10 11  1  0
 11 12  1  0
 12 13  2  0
 12 14  1  0
 14 15  2  0
 15 16  1  0
 16 17  2  0
 17 18  1  0
 18 19  2  0
 19 20  1  0
 20 21  1  0
 21 22  2  0
 22 23  1  0
 23 24  2  0
 24 25  1  0
 25 26  2  0
 19 14  1  0
 26 21  1  0
 26 18  1  0
  1 27  1  0
  1 28  1  0
  1 29  1  0
  2 30  1  0
  2 31  1  0
  4 32  1  0
  4 33  1  0
  5 34  1  0
  5 35  1  0
  5 36  1  0
  6 37  1  0
  6 38  1  0
  7 39  1  0
  7 40  1  0
  9 41  1  0
  9 42  1  0
 10 43  1  0
 10 44  1  0
 15 45  1  0
 16 46  1  0
 17 47  1  0
 22 48  1  0
 23 49  1  0
 24 50  1  0
 25 51  1  0
M  END
>  <UniqueID>  (5) 
5

>  <SMILES>  (5) 
CCN(CC)CCOCCOC(=O)c1cccc2c1sc1ccccc12

>  <Energy>  (5) 
88.24633400076908

>  <Genealogy>  (5) 
CCN(CC)CCOCCOC(=O)c1cccc2c1sc1ccccc12 (3D coordinates assigned)
CCN(CC)CCOCCOC(=O)c1cccc2c1sc1ccccc12 (optimized conformer: 88.24633400076908 kcal/mol)

>  <smiles>  (5) 
CCN(CC)CCOCCOC(=O)c1cccc2c1sc1ccccc12

>  <score_type>  (5) 
oracle

>  <origin>  (5) 
adg

>  <m_score__min__energy>  (5) 
-7.5499999999999998

>  <m_primary>  (5) 
energy

$$$$
5:0
     RDKit          3D

 55 59  0  0  0  0  0  0  0  0999 V2000
   59.2980   29.1400   44.5930 C   0  0  0  0  0  0  0  0  0  0  0  0
   57.8670   29.4350   44.6350 N   0  0  0  0  0  0  0  0  0  0  0  0
   57.2130   30.4970   44.1150 C   0  0  0  0  0  0  0  0  0  0  0  0
   57.9860   31.8540   43.2320 S   0  0  0  0  0  0  0  0  0  0  0  0
   57.4780   33.0980   44.4680 C   0  0  0  0  0  0  0  0  0  0  0  0
   58.6830   33.9080   44.9520 C   0  0  0  0  0  0  0  0  0  0  0  0
   58.4510   34.5010   46.3640 C   0  0  0  0  0  0  0  0  0  0  0  0
   59.0430   33.7180   47.4700 N   0  0  0  0  0  0  0  0  0  0  0  0
   60.1720   34.3500   48.1700 C   0  0  0  0  0  0  0  0  0  0  0  0
   61.1430   33.2520   48.5710 C   0  0  2  0  0  0  0  0  0  0  0  0
   61.9800   32.6490   47.4520 C   0  0  0  0  0  0  0  0  0  0  0  0
   60.6740   31.9890   47.8780 C   0  0  1  0  0  0  0  0  0  0  0  0
   60.7400   30.7370   48.7130 C   0  0  0  0  0  0  0  0  0  0  0  0
   60.0060   29.5980   48.3480 C   0  0  0  0  0  0  0  0  0  0  0  0
   60.0950   28.4280   49.1070 C   0  0  0  0  0  0  0  0  0  0  0  0
   60.9450   28.3670   50.2240 C   0  0  0  0  0  0  0  0  0  0  0  0
   61.0010   27.1170   51.0680 C   0  0  0  0  0  0  0  0  0  0  0  0
   62.2880   26.9490   51.5440 F   0  0  0  0  0  0  0  0  0  0  0  0
   60.6450   26.0040   50.3270 F   0  0  0  0  0  0  0  0  0  0  0  0
   60.1330   27.2200   52.1400 F   0  0  0  0  0  0  0  0  0  0  0  0
   61.6750   29.5120   50.5900 C   0  0  0  0  0  0  0  0  0  0  0  0
   61.5850   30.6820   49.8300 C   0  0  0  0  0  0  0  0  0  0  0  0
   59.4040   32.3380   47.1170 C   0  0  0  0  0  0  0  0  0  0  0  0
   55.8860   30.4260   44.3370 N   0  0  0  0  0  0  0  0  0  0  0  0
   55.6850   29.3010   45.0060 N   0  0  0  0  0  0  0  0  0  0  0  0
   56.8770   28.6990   45.1870 C   0  0  0  0  0  0  0  0  0  0  0  0
   57.0580   27.4150   45.8930 C   0  0  0  0  0  0  0  0  0  0  0  0
   58.2380   26.9480   46.4400 C   0  0  0  0  0  0  0  0  0  0  0  0
   57.9350   25.7210   46.9890 C   0  0  0  0  0  0  0  0  0  0  0  0
   56.5940   25.5120   46.7440 C   0  0  0  0  0  0  0  0  0  0  0  0
   56.1010   26.5380   46.0900 O   0  0  0  0  0  0  0  0  0  0  0  0
   59.6861   29.0600   45.6191 H   0  0  0  0  0  0  0  0  0  0  0  0
   59.4610   28.1894   44.0641 H   0  0  0  0  0  0  0  0  0  0  0  0
   59.8237   29.9487   44.0641 H   0  0  0  0  0  0  0  0  0  0  0  0
   56.7446   33.7799   44.0128 H   0  0  0  0  0  0  0  0  0  0  0  0
   57.0343   32.5777   45.3296 H   0  0  0  0  0  0  0  0  0  0  0  0
   59.5643   33.2504   44.9829 H   0  0  0  0  0  0  0  0  0  0  0  0
   58.8356   34.7431   44.2525 H   0  0  0  0  0  0  0  0  0  0  0  0
   58.8876   35.5104   46.3873 H   0  0  0  0  0  0  0  0  0  0  0  0
   57.3633   34.4949   46.5277 H   0  0  0  0  0  0  0  0  0  0  0  0
   60.6725   35.0666   47.5022 H   0  0  0  0  0  0  0  0  0  0  0  0
   59.8178   34.8932   49.0585 H   0  0  0  0  0  0  0  0  0  0  0  0
   61.4182   33.6023   49.5768 H   0  0  0  0  0  0  0  0  0  0  0  0
   62.0483   33.1582   46.4794 H   0  0  0  0  0  0  0  0  0  0  0  0
   63.0242   32.3182   47.3506 H   0  0  0  0  0  0  0  0  0  0  0  0
   59.3574   29.6263   47.4600 H   0  0  0  0  0  0  0  0  0  0  0  0
   59.4955   27.5489   48.8280 H   0  0  0  0  0  0  0  0  0  0  0  0
   62.3210   29.4868   51.4800 H   0  0  0  0  0  0  0  0  0  0  0  0
   62.1802   31.5637   50.1100 H   0  0  0  0  0  0  0  0  0  0  0  0
   59.5819   32.2616   46.0342 H   0  0  0  0  0  0  0  0  0  0  0  0
   58.5913   31.6452   47.3809 H   0  0  0  0  0  0  0  0  0  0  0  0
   54.7500   28.9660   45.3240 H   0  0  0  0  0  0  0  0  0  0  0  0
   59.2161   27.4513   46.4376 H   0  0  0  0  0  0  0  0  0  0  0  0
   58.6238   25.0446   47.5163 H   0  0  0  0  0  0  0  0  0  0  0  0
   56.0246   24.6219   47.0498 H   0  0  0  0  0  0  0  0  0  0  0  0
  1  2  1  0
  2  3  1  0
  3  4  1  0
  4  5  1  0
  5  6  1  0
  6  7  1  0
  7  8  1  0
  8  9  1  0
  9 10  1  0
 10 11  1  0
 11 12  1  0
 12 13  1  1
 13 14  2  0
 14 15  1  0
 15 16  2  0
 16 17  1  0
 17 18  1  0
 17 19  1  0
 17 20  1  0
 16 21  1  0
 21 22  2  0
 12 23  1  0
  3 24  2  0
 24 25  1  0
 25 26  2  0
 26 27  1  0
 27 28  2  0
 28 29  1  0
 29 30  2  0
 30 31  1  0
 26  2  1  0
 31 27  1  0
 23  8  1  0
 12 10  1  0
 22 13  1  0
  1 32  1  0
  1 33  1  0
  1 34  1  0
  5 35  1  0
  5 36  1  0
  6 37  1  0
  6 38  1  0
  7 39  1  0
  7 40  1  0
  9 41  1  0
  9 42  1  0
 10 43  1  1
 11 44  1  0
 11 45  1  0
 14 46  1  0
 15 47  1  0
 21 48  1  0
 22 49  1  0
 23 50  1  0
 23 51  1  0
 25 52  1  0
 28 53  1  0
 29 54  1  0
 30 55  1  0
M  CHG  1  25   1
M  END
>  <UniqueID>  (6) 
6

>  <SMILES>  (6) 
Cn1c(SCCCN2C[C@@H]3C[C@]3(c3ccc(C(F)(F)F)cc3)C2)n[nH+]c1-c1ccco1

>  <Energy>  (6) 
390.3191416235111

>  <Genealogy>  (6) 
Cn1c(SCCCN2CC3CC3(c3ccc(C(F)(F)F)cc3)C2)n[nH+]c1-c1ccco1 (protonated)
Cn1c(SCCCN2C[C@@H]3C[C@]3(c3ccc(C(F)(F)F)cc3)C2)n[nH+]c1-c1ccco1 (chirality)
Cn1c(SCCCN2C[C@@H]3C[C@]3(c3ccc(C(F)(F)F)cc3)C2)n[nH+]c1-c1ccco1 (3D coordinates assigned)
Cn1c(SCCCN2C[C@@H]3C[C@]3(c3ccc(C(F)(F)F)cc3)C2)n[nH+]c1-c1ccco1 (nonaromatic ring conformer: 390.3191416235111 kcal/mol)

>  <smiles>  (6) 
Cn1c(SCCCN2CC3CC3(c3ccc(C(F)(F)F)cc3)C2)nnc1-c1ccco1

>  <score_type>  (6) 
oracle

>  <origin>  (6) 
adg

>  <m_score__min__energy>  (6) 
-8.0099999999999998

>  <m_primary>  (6) 
energy

$$$$
6:0
     RDKit          3D

 89 92  0  0  0  0  0  0  0  0999 V2000
   62.9440   33.9200   53.1970 C   0  0  0  0  0  0  0  0  0  0  0  0
   64.0120   34.4520   52.2300 C   0  0  0  0  0  0  0  0  0  0  0  0
   65.1650   33.5280   52.0670 N   0  0  0  0  0  0  0  0  0  0  0  0
   65.5500   32.9740   53.3910 C   0  0  0  0  0  0  0  0  0  0  0  0
   66.7140   33.7260   54.0500 C   0  0  0  0  0  0  0  0  0  0  0  0
   66.3050   34.1320   51.3160 C   0  0  0  0  0  0  0  0  0  0  0  0
   67.2090   33.1290   50.5800 C   0  0  0  0  0  0  0  0  0  0  0  0
   66.4490   31.9800   50.2660 O   0  0  0  0  0  0  0  0  0  0  0  0
   66.9950   30.8520   50.9140 C   0  0  0  0  0  0  0  0  0  0  0  0
   65.8710   30.0740   51.5990 C   0  0  0  0  0  0  0  0  0  0  0  0
   64.6960   30.8640   51.6830 O   0  0  0  0  0  0  0  0  0  0  0  0
   63.5420   30.0980   51.3800 C   0  0  0  0  0  0  0  0  0  0  0  0
   62.6220   30.8660   50.4320 C   0  0  0  0  0  0  0  0  0  0  0  0
   62.8730   32.2430   50.5600 O   0  0  0  0  0  0  0  0  0  0  0  0
   63.9480   32.5150   49.7710 N   0  0  0  0  0  0  0  0  0  0  0  0
   63.4450   33.0130   48.4890 C   0  0  0  0  0  0  0  0  0  0  0  0
   63.2920   31.8800   47.4630 C   0  0  0  0  0  0  0  0  0  0  0  0
   61.8250   31.5150   47.1400 C   0  0  0  0  0  0  0  0  0  0  0  0
   61.4990   30.0890   47.3010 N   0  0  0  0  0  0  0  0  0  0  0  0
   60.8170   29.5200   46.1300 C   0  0  0  0  0  0  0  0  0  0  0  0
   59.7350   28.5450   46.5790 C   0  0  0  0  0  0  0  0  0  0  0  0
   58.5640   29.2810   47.0530 N   0  0  0  0  0  0  0  0  0  0  0  0
   58.6030   30.6980   47.2820 C   0  0  0  0  0  0  0  0  0  0  0  0
   58.8720   31.1940   48.5550 C   0  0  0  0  0  0  0  0  0  0  0  0
   58.9850   32.5560   48.7770 C   0  0  0  0  0  0  0  0  0  0  0  0
   58.9270   33.4660   47.7520 N   0  0  0  0  0  0  0  0  0  0  0  0
   59.3740   34.8530   47.9680 C   0  0  0  0  0  0  0  0  0  0  0  0
   58.5200   33.0280   46.5020 C   0  0  0  0  0  0  0  0  0  0  0  0
   58.2070   33.9360   45.4620 C   0  0  0  0  0  0  0  0  0  0  0  0
   57.8480   33.4790   44.1950 C   0  0  0  0  0  0  0  0  0  0  0  0
   57.7750   32.1130   43.9340 C   0  0  0  0  0  0  0  0  0  0  0  0
   58.0380   31.1920   44.9460 C   0  0  0  0  0  0  0  0  0  0  0  0
   58.3920   31.6250   46.2380 C   0  0  0  0  0  0  0  0  0  0  0  0
   59.2650   32.7520   50.2060 C   0  0  0  0  0  0  0  0  0  0  0  0
   59.2740   33.9080   51.0020 C   0  0  0  0  0  0  0  0  0  0  0  0
   59.5110   33.7760   52.3790 C   0  0  0  0  0  0  0  0  0  0  0  0
   59.6830   32.5050   52.9540 C   0  0  0  0  0  0  0  0  0  0  0  0
   59.6030   31.3540   52.1570 C   0  0  0  0  0  0  0  0  0  0  0  0
   59.3840   31.4990   50.7850 C   0  0  0  0  0  0  0  0  0  0  0  0
   59.1600   30.4010   49.7960 C   0  0  0  0  0  0  0  0  0  0  0  0
   63.2735   34.0841   54.2336 H   0  0  0  0  0  0  0  0  0  0  0  0
   61.9963   34.4513   53.0250 H   0  0  0  0  0  0  0  0  0  0  0  0
   62.7972   32.8435   53.0250 H   0  0  0  0  0  0  0  0  0  0  0  0
   63.5464   34.6074   51.2456 H   0  0  0  0  0  0  0  0  0  0  0  0
   64.4009   35.3891   52.6550 H   0  0  0  0  0  0  0  0  0  0  0  0
   64.8260   32.7170   51.4960 H   0  0  0  0  0  0  0  0  0  0  0  0
   64.6775   33.0276   54.0587 H   0  0  0  0  0  0  0  0  0  0  0  0
   65.8836   31.9389   53.2258 H   0  0  0  0  0  0  0  0  0  0  0  0
   66.6180   33.6640   55.1440 H   0  0  0  0  0  0  0  0  0  0  0  0
   67.6666   33.2721   53.7392 H   0  0  0  0  0  0  0  0  0  0  0  0
   66.6918   34.7809   53.7392 H   0  0  0  0  0  0  0  0  0  0  0  0
   65.8913   34.8276   50.5710 H   0  0  0  0  0  0  0  0  0  0  0  0
   66.9411   34.6212   52.0683 H   0  0  0  0  0  0  0  0  0  0  0  0
   67.5907   33.5847   49.6544 H   0  0  0  0  0  0  0  0  0  0  0  0
   68.0601   32.8522   51.2195 H   0  0  0  0  0  0  0  0  0  0  0  0
   67.4914   30.2069   50.1742 H   0  0  0  0  0  0  0  0  0  0  0  0
   67.7310   31.1765   51.6643 H   0  0  0  0  0  0  0  0  0  0  0  0
   65.6547   29.1650   51.0185 H   0  0  0  0  0  0  0  0  0  0  0  0
   66.1930   29.8081   52.6167 H   0  0  0  0  0  0  0  0  0  0  0  0
   63.8484   29.1557   50.9023 H   0  0  0  0  0  0  0  0  0  0  0  0
   62.9977   29.8913   52.3133 H   0  0  0  0  0  0  0  0  0  0  0  0
   62.8157   30.5514   49.3959 H   0  0  0  0  0  0  0  0  0  0  0  0
   61.5722   30.6564   50.6848 H   0  0  0  0  0  0  0  0  0  0  0  0
   64.4230   31.5970   49.5980 H   0  0  0  0  0  0  0  0  0  0  0  0
   62.4641   33.4844   48.6492 H   0  0  0  0  0  0  0  0  0  0  0  0
   64.1702   33.7396   48.0937 H   0  0  0  0  0  0  0  0  0  0  0  0
   63.7843   32.1904   46.5296 H   0  0  0  0  0  0  0  0  0  0  0  0
   63.7510   30.9849   47.9081 H   0  0  0  0  0  0  0  0  0  0  0  0
   61.1719   32.0940   47.8095 H   0  0  0  0  0  0  0  0  0  0  0  0
   61.6716   31.7519   46.0768 H   0  0  0  0  0  0  0  0  0  0  0  0
   60.9120   29.9500   48.1550 H   0  0  0  0  0  0  0  0  0  0  0  0
   60.3569   30.3312   45.5467 H   0  0  0  0  0  0  0  0  0  0  0  0
   61.5509   28.9842   45.5100 H   0  0  0  0  0  0  0  0  0  0  0  0
   59.4454   27.9066   45.7313 H   0  0  0  0  0  0  0  0  0  0  0  0
   60.1264   27.9233   47.3977 H   0  0  0  0  0  0  0  0  0  0  0  0
   57.7790   28.7340   47.4750 H   0  0  0  0  0  0  0  0  0  0  0  0
   59.4386   35.0535   49.0476 H   0  0  0  0  0  0  0  0  0  0  0  0
   60.3634   34.9951   47.5088 H   0  0  0  0  0  0  0  0  0  0  0  0
   58.6537   35.5461   47.5088 H   0  0  0  0  0  0  0  0  0  0  0  0
   58.2477   35.0179   45.6566 H   0  0  0  0  0  0  0  0  0  0  0  0
   57.6211   34.2013   43.3970 H   0  0  0  0  0  0  0  0  0  0  0  0
   57.5091   31.7603   42.9266 H   0  0  0  0  0  0  0  0  0  0  0  0
   57.9683   30.1150   44.7331 H   0  0  0  0  0  0  0  0  0  0  0  0
   59.0988   34.8979   50.5554 H   0  0  0  0  0  0  0  0  0  0  0  0
   59.5625   34.6736   53.0128 H   0  0  0  0  0  0  0  0  0  0  0  0
   59.8809   32.4130   54.0321 H   0  0  0  0  0  0  0  0  0  0  0  0
   59.7108   30.3548   52.6042 H   0  0  0  0  0  0  0  0  0  0  0  0
   60.0562   29.7744   49.6770 H   0  0  0  0  0  0  0  0  0  0  0  0
   58.3683   29.6905   50.0762 H   0  0  0  0  0  0  0  0  0  0  0  0
  1  2  1  0
  2  3  1  0
  3  4  1  0
  4  5  1  0
  3  6  1  0
  6  7  1  0
  7  8  1  0
  8  9  1  0
  9 10  1  0
 10 11  1  0
 11 12  1  0
 12 13  1  0
 13 14  1  0
 14 15  1  0
 15 16  1  0
 16 17  1  0
 17 18  1  0
 18 19  1  0
 19 20  1  0
 20 21  1  0
 21 22  1  0
 22 23  1  0
 23 24  2  0
 24 25  1  0
 25 26  2  0
 26 27  1  0
 26 28  1  0
 28 29  2  0
 29 30  1  0
 30 31  2  0
 31 32  1  0
 32 33  2  0
 25 34  1  0
 34 35  2  0
 35 36  1  0
 36 37  2  0
 37 38  1  0
 38 39  2  0
 39 40  1  0
 33 23  1  0
 39 34  1  0
 40 24  1  0
 33 28  1  0
  1 41  1  0
  1 42  1  0
  1 43  1  0
  2 44  1  0
  2 45  1  0
  3 46  1  0
  4 47  1  0
  4 48  1  0
  5 49  1  0
  5 50  1  0
  5 51  1  0
  6 52  1  0
  6 53  1  0
  7 54  1  0
  7 55  1  0
  9 56  1  0
  9 57  1  0
 10 58  1  0
 10 59  1  0
 12 60  1  0
 12 61  1  0
 13 62  1  0
 13 63  1  0
 15 64  1  0
 16 65  1  0
 16 66  1  0
 17 67  1  0
 17 68  1  0
 18 69  1  0
 18 70  1  0
 19 71  1  0
 20 72  1  0
 20 73  1  0
 21 74  1  0
 21 75  1  0
 22 76  1  0
 27 77  1  0
 27 78  1  0
 27 79  1  0
 29 80  1  0
 30 81  1  0
 31 82  1  0
 32 83  1  0
 35 84  1  0
 36 85  1  0
 37 86  1  0
 38 87  1  0
 40 88  1  0
 40 89  1  0
M  CHG  2   3   1  26   1
M  END
>  <UniqueID>  (7) 
7

>  <SMILES>  (7) 
CC[NH+](CC)CCOCCOCCONCCCNCCNc1c2c([n+](C)c3ccccc13)-c1ccccc1C2

>  <Energy>  (7) 
130.92380828911595

>  <Genealogy>  (7) 
CC[NH+](CC)CCOCCOCCONCCCNCCNc1c2c([n+](C)c3ccccc13)-c1ccccc1C2 (protonated)
CC[NH+](CC)CCOCCOCCONCCCNCCNc1c2c([n+](C)c3ccccc13)-c1ccccc1C2 (3D coordinates assigned)
CC[NH+](CC)CCOCCOCCONCCCNCCNc1c2c([n+](C)c3ccccc13)-c1ccccc1C2 (nonaromatic ring conformer: 130.92380828911595 kcal/mol)

>  <smiles>  (7) 
CCN(CC)CCOCCOCCONCCCNCCNc1c2c([n+](C)c3ccccc13)-c1ccccc1C2

>  <score_type>  (7) 
oracle

>  <origin>  (7) 
adg

>  <m_score__min__energy>  (7) 
-4.7400000000000002

>  <m_primary>  (7) 
energy

$$$$
7:0
     RDKit          3D

 38 39  0  0  0  0  0  0  0  0999 V2000
   60.0670   27.4030   47.0590 C   0  0  0  0  0  0  0  0  0  0  0  0
   59.9430   28.7370   46.3320 C   0  0  0  0  0  0  0  0  0  0  0  0
   58.7010   29.4890   46.7260 C   0  0  0  0  0  0  0  0  0  0  0  0
   58.1640   29.2170   47.8330 O   0  0  0  0  0  0  0  0  0  0  0  0
   58.1260   30.5250   45.9030 N   0  0  0  0  0  0  0  0  0  0  0  0
   58.5060   31.8990   45.9000 C   0  0  0  0  0  0  0  0  0  0  0  0
   59.1940   32.6060   46.8960 C   0  0  0  0  0  0  0  0  0  0  0  0
   59.4760   33.9640   46.6860 C   0  0  0  0  0  0  0  0  0  0  0  0
   59.0820   34.5960   45.4930 C   0  0  0  0  0  0  0  0  0  0  0  0
   58.4080   33.8690   44.5010 C   0  0  0  0  0  0  0  0  0  0  0  0
   58.1350   32.5190   44.7320 C   0  0  0  0  0  0  0  0  0  0  0  0
   57.4670   31.5650   43.8120 C   0  0  0  0  0  0  0  0  0  0  0  0
   57.5110   30.2300   44.6010 C   0  0  2  0  0  0  0  0  0  0  0  0
   56.1600   29.5620   44.7680 C   0  0  0  0  0  0  0  0  0  0  0  0
   55.1360   30.1880   44.3880 O   0  0  0  0  0  0  0  0  0  0  0  0
   55.9950   28.2160   45.2440 N   0  0  0  0  0  0  0  0  0  0  0  0
   57.0490   27.2290   45.4650 C   0  0  0  0  0  0  0  0  0  0  0  0
   56.4340   25.9240   45.9820 C   0  0  0  0  0  0  0  0  0  0  0  0
   57.7800   26.9650   44.1480 C   0  0  0  0  0  0  0  0  0  0  0  0
   60.0510   27.5746   48.1454 H   0  0  0  0  0  0  0  0  0  0  0  0
   59.2254   26.7527   46.7781 H   0  0  0  0  0  0  0  0  0  0  0  0
   61.0140   26.9190   46.7781 H   0  0  0  0  0  0  0  0  0  0  0  0
   60.8213   29.3539   46.5727 H   0  0  0  0  0  0  0  0  0  0  0  0
   59.8819   28.5281   45.2538 H   0  0  0  0  0  0  0  0  0  0  0  0
   59.5067   32.1055   47.8243 H   0  0  0  0  0  0  0  0  0  0  0  0
   60.0083   34.5379   47.4589 H   0  0  0  0  0  0  0  0  0  0  0  0
   59.3029   35.6624   45.3377 H   0  0  0  0  0  0  0  0  0  0  0  0
   58.1011   34.3516   43.5614 H   0  0  0  0  0  0  0  0  0  0  0  0
   56.4298   31.8709   43.6101 H   0  0  0  0  0  0  0  0  0  0  0  0
   57.9514   31.5021   42.8264 H   0  0  0  0  0  0  0  0  0  0  0  0
   58.1005   29.4995   44.0275 H   0  0  0  0  0  0  0  0  0  0  0  0
   57.7608   27.6137   46.2102 H   0  0  0  0  0  0  0  0  0  0  0  0
   56.4360   25.9283   47.0820 H   0  0  0  0  0  0  0  0  0  0  0  0
   55.3998   25.8364   45.6175 H   0  0  0  0  0  0  0  0  0  0  0  0
   57.0247   25.0706   45.6175 H   0  0  0  0  0  0  0  0  0  0  0  0
   58.7953   26.5983   44.3593 H   0  0  0  0  0  0  0  0  0  0  0  0
   57.2302   26.2086   43.5687 H   0  0  0  0  0  0  0  0  0  0  0  0
   57.8403   27.8981   43.5687 H   0  0  0  0  0  0  0  0  0  0  0  0
  1  2  1  0
  2  3  1  0
  3  4  2  0
  3  5  1  0
  5  6  1  0
  6  7  2  0
  7  8  1  0
  8  9  2  0
  9 10  1  0
 10 11  2  0
 11 12  1  0
 12 13  1  0
 13 14  1  0
 14 15  2  0
 14 16  1  0
 16 17  1  0
 17 18  1  0
 17 19  1  0
 13  5  1  0
 11  6  1  0
  1 20  1  0
  1 21  1  0
  1 22  1  0
  2 23  1  0
  2 24  1  0
  7 25  1  0
  8 26  1  0
  9 27  1  0
 10 28  1  0
 12 29  1  0
 12 30  1  0
 13 31  1  6
 17 32  1  0
 18 33  1  0
 18 34  1  0
 18 35  1  0
 19 36  1  0
 19 37  1  0
 19 38  1  0
M  CHG  1  16  -1
M  END
>  <UniqueID>  (8) 
8

>  <SMILES>  (8) 
CCC(=O)N1c2ccccc2C[C@@H]1C(=O)[N-]C(C)C

>  <Energy>  (8) 
52.43433800456555

>  <Genealogy>  (8) 
CCC(=O)N1c2ccccc2CC1C(=O)[N-]C(C)C (protonated)
CCC(=O)N1c2ccccc2C[C@@H]1C(=O)[N-]C(C)C (chirality)
CCC(=O)N1c2ccccc2C[C@@H]1C(=O)[N-]C(C)C (3D coordinates assigned)
CCC(=O)N1c2ccccc2C[C@@H]1C(=O)[N-]C(C)C (nonaromatic ring conformer: 52.43433800456555 kcal/mol)

>  <smiles>  (8) 
CCC(=O)N1c2ccccc2CC1C(=O)NC(C)C

>  <score_type>  (8) 
oracle

>  <origin>  (8) 
adg

>  <m_score__min__energy>  (8) 
-8.9800000000000004

>  <m_primary>  (8) 
energy

$$$$
8:0
     RDKit          3D

 28 29  0  0  0  0  0  0  0  0999 V2000
   59.8570   28.7990   46.6560 C   0  0  0  0  0  0  0  0  0  0  0  0
   58.5160   29.4110   47.0650 C   0  0  0  0  0  0  0  0  0  0  0  0
   57.8200   30.1380   45.9370 C   0  0  0  0  0  0  0  0  0  0  0  0
   56.9580   29.5040   45.1910 N   0  0  0  0  0  0  0  0  0  0  0  0
   56.1870   30.1520   44.1270 C   0  0  0  0  0  0  0  0  0  0  0  0
   57.0280   31.2150   43.4110 C   0  0  0  0  0  0  0  0  0  0  0  0
   57.6910   32.1120   44.4240 C   0  0  0  0  0  0  0  0  0  0  0  0
   57.9590   33.4530   44.1200 C   0  0  0  0  0  0  0  0  0  0  0  0
   58.6100   34.2690   45.0480 C   0  0  0  0  0  0  0  0  0  0  0  0
   59.0210   33.7470   46.2840 C   0  0  0  0  0  0  0  0  0  0  0  0
   59.6780   34.6360   47.2970 C   0  0  0  0  0  0  0  0  0  0  0  0
   58.7540   32.4040   46.5920 C   0  0  0  0  0  0  0  0  0  0  0  0
   58.1040   31.5740   45.6600 C   0  0  0  0  0  0  0  0  0  0  0  0
   60.4307   28.5372   47.5573 H   0  0  0  0  0  0  0  0  0  0  0  0
   59.6794   27.8928   46.0583 H   0  0  0  0  0  0  0  0  0  0  0  0
   60.4252   29.5269   46.0583 H   0  0  0  0  0  0  0  0  0  0  0  0
   57.8576   28.6039   47.4186 H   0  0  0  0  0  0  0  0  0  0  0  0
   58.7231   30.1524   47.8508 H   0  0  0  0  0  0  0  0  0  0  0  0
   55.8706   29.3918   43.3976 H   0  0  0  0  0  0  0  0  0  0  0  0
   55.3107   30.6417   44.5767 H   0  0  0  0  0  0  0  0  0  0  0  0
   57.7989   30.7207   42.8016 H   0  0  0  0  0  0  0  0  0  0  0  0
   56.3743   31.8193   42.7649 H   0  0  0  0  0  0  0  0  0  0  0  0
   57.6554   33.8651   43.1463 H   0  0  0  0  0  0  0  0  0  0  0  0
   58.8014   35.3255   44.8089 H   0  0  0  0  0  0  0  0  0  0  0  0
   59.4222   34.2899   48.3093 H   0  0  0  0  0  0  0  0  0  0  0  0
   60.7692   34.6013   47.1624 H   0  0  0  0  0  0  0  0  0  0  0  0
   59.3246   35.6690   47.1624 H   0  0  0  0  0  0  0  0  0  0  0  0
   59.0550   31.9974   47.5688 H   0  0  0  0  0  0  0  0  0  0  0  0
  1  2  1  0
  2  3  1  0
  3  4  2  0
  4  5  1  0
  5  6  1  0
  6  7  1  0
  7  8  2  0
  8  9  1  0
  9 10  2  0
 10 11  1  0
 10 12  1  0
 12 13  2  0
 13  3  1  0
 13  7  1  0
  1 14  1  0
  1 15  1  0
  1 16  1  0
  2 17  1  0
  2 18  1  0
  5 19  1  0
  5 20  1  0
  6 21  1  0
  6 22  1  0
  8 23  1  0
  9 24  1  0
 11 25  1  0
 11 26  1  0
 11 27  1  0
 12 28  1  0
M  END
>  <UniqueID>  (9) 
9

>  <SMILES>  (9) 
CCC1=NCCc2ccc(C)cc21

>  <Energy>  (9) 
27.92618661411313

>  <Genealogy>  (9) 
CCC1=NCCc2ccc(C)cc21 (3D coordinates assigned)
CCC1=NCCc2ccc(C)cc21 (nonaromatic ring conformer: 27.92618661411313 kcal/mol)

>  <smiles>  (9) 
CCC1=NCCc2ccc(C)cc21

>  <score_type>  (9) 
oracle

>  <origin>  (9) 
adg

>  <m_score__min__energy>  (9) 
-5.75

>  <m_primary>  (9) 
energy

$$$$
9:0
     RDKit          3D

 35 35  0  0  0  0  0  0  0  0999 V2000
   61.1380   28.9650   44.8100 C   0  0  0  0  0  0  0  0  0  0  0  0
   59.9990   29.1390   45.8180 C   0  0  0  0  0  0  0  0  0  0  0  0
   59.1870   27.9060   45.9420 N   0  0  0  0  0  0  0  0  0  0  0  0
   58.5140   27.8470   47.2540 C   0  0  0  0  0  0  0  0  0  0  0  0
   58.1780   27.8430   44.8620 C   0  0  0  0  0  0  0  0  0  0  0  0
   56.8630   28.4010   45.3340 C   0  0  0  0  0  0  0  0  0  0  0  0
   55.9160   27.6130   45.5920 O   0  0  0  0  0  0  0  0  0  0  0  0
   56.6680   29.8090   45.5220 N   0  0  0  0  0  0  0  0  0  0  0  0
   57.1500   30.8040   44.6090 C   0  0  0  0  0  0  0  0  0  0  0  0
   57.8290   31.9380   45.1060 C   0  0  0  0  0  0  0  0  0  0  0  0
   57.9820   32.1710   46.5850 C   0  0  0  0  0  0  0  0  0  0  0  0
   58.3140   32.9020   44.2080 C   0  0  0  0  0  0  0  0  0  0  0  0
   58.1470   32.7340   42.8330 C   0  0  0  0  0  0  0  0  0  0  0  0
   57.4640   31.6220   42.3390 C   0  0  0  0  0  0  0  0  0  0  0  0
   56.9370   30.6630   43.2180 C   0  0  0  0  0  0  0  0  0  0  0  0
   56.1870   29.4880   42.6470 C   0  0  0  0  0  0  0  0  0  0  0  0
   62.0858   28.8202   45.3491 H   0  0  0  0  0  0  0  0  0  0  0  0
   60.9377   28.0870   44.1783 H   0  0  0  0  0  0  0  0  0  0  0  0
   61.2089   29.8627   44.1783 H   0  0  0  0  0  0  0  0  0  0  0  0
   60.4269   29.3850   46.8011 H   0  0  0  0  0  0  0  0  0  0  0  0
   59.3442   29.9476   45.4609 H   0  0  0  0  0  0  0  0  0  0  0  0
   59.2653   27.9129   48.0548 H   0  0  0  0  0  0  0  0  0  0  0  0
   57.8091   28.6868   47.3426 H   0  0  0  0  0  0  0  0  0  0  0  0
   57.9660   26.8974   47.3426 H   0  0  0  0  0  0  0  0  0  0  0  0
   58.5320   28.4299   44.0016 H   0  0  0  0  0  0  0  0  0  0  0  0
   58.0339   26.7919   44.5716 H   0  0  0  0  0  0  0  0  0  0  0  0
   57.4599   31.3759   47.1374 H   0  0  0  0  0  0  0  0  0  0  0  0
   59.0497   32.1607   46.8493 H   0  0  0  0  0  0  0  0  0  0  0  0
   57.5482   33.1467   46.8493 H   0  0  0  0  0  0  0  0  0  0  0  0
   58.8289   33.7955   44.5909 H   0  0  0  0  0  0  0  0  0  0  0  0
   58.5552   33.4807   42.1360 H   0  0  0  0  0  0  0  0  0  0  0  0
   57.3378   31.4961   41.2535 H   0  0  0  0  0  0  0  0  0  0  0  0
   55.7929   28.8706   43.4677 H   0  0  0  0  0  0  0  0  0  0  0  0
   55.3531   29.8509   42.0282 H   0  0  0  0  0  0  0  0  0  0  0  0
   56.8673   28.8844   42.0282 H   0  0  0  0  0  0  0  0  0  0  0  0
  1  2  1  0
  2  3  1  0
  3  4  1  0
  3  5  1  0
  5  6  1  0
  6  7  2  0
  6  8  1  0
  8  9  1  0
  9 10  2  0
 10 11  1  0
 10 12  1  0
 12 13  2  0
 13 14  1  0
 14 15  2  0
 15 16  1  0
 15  9  1  0
  1 17  1  0
  1 18  1  0
  1 19  1  0
  2 20  1  0
  2 21  1  0
  4 22  1  0
  4 23  1  0
  4 24  1  0
  5 25  1  0
  5 26  1  0
 11 27  1  0
 11 28  1  0
 11 29  1  0
 12 30  1  0
 13 31  1  0
 14 32  1  0
 16 33  1  0
 16 34  1  0
 16 35  1  0
M  CHG  1   8  -1
M  END
>  <UniqueID>  (10) 
10

>  <SMILES>  (10) 
CCN(C)CC(=O)[N-]c1c(C)cccc1C

>  <Energy>  (10) 
37.16164528522615

>  <Genealogy>  (10) 
CCN(C)CC(=O)[N-]c1c(C)cccc1C (protonated)
CCN(C)CC(=O)[N-]c1c(C)cccc1C (3D coordinates assigned)
CCN(C)CC(=O)[N-]c1c(C)cccc1C (optimized conformer: 37.16164528522615 kcal/mol)

>  <smiles>  (10) 
CCN(C)CC(=O)Nc1c(C)cccc1C

>  <score_type>  (10) 
oracle

>  <origin>  (10) 
adg

>  <m_score__min__energy>  (10) 
-7.3799999999999999

>  <m_primary>  (10) 
energy

$$$$
10:0
     RDKit          3D

 54 53  0  0  0  0  0  0  0  0999 V2000
   58.4950   32.6510   48.2280 C   0  0  0  0  0  0  0  0  0  0  0  0
   58.2220   33.7340   47.1670 C   0  0  0  0  0  0  0  0  0  0  0  0
   59.2080   33.8010   46.0340 N   0  0  0  0  0  0  0  0  0  0  0  0
   59.6440   35.2250   45.9780 C   0  0  0  0  0  0  0  0  0  0  0  0
   60.3790   32.9240   46.3780 C   0  0  0  0  0  0  0  0  0  0  0  0
   61.6850   33.6450   46.7510 C   0  0  0  0  0  0  0  0  0  0  0  0
   58.5220   33.3570   44.7650 C   0  0  0  0  0  0  0  0  0  0  0  0
   57.0700   32.8310   44.8880 C   0  0  0  0  0  0  0  0  0  0  0  0
   57.0520   31.4180   45.0100 O   0  0  0  0  0  0  0  0  0  0  0  0
   57.1810   30.7980   43.7440 C   0  0  0  0  0  0  0  0  0  0  0  0
   57.0900   29.2600   43.8910 C   0  0  0  0  0  0  0  0  0  0  0  0
   58.1970   28.5770   44.6610 N   0  0  0  0  0  0  0  0  0  0  0  0
   57.7850   28.5570   46.1060 C   0  0  0  0  0  0  0  0  0  0  0  0
   57.9210   27.2170   46.8410 C   0  0  0  0  0  0  0  0  0  0  0  0
   58.2730   27.1680   44.1150 C   0  0  0  0  0  0  0  0  0  0  0  0
   58.1460   26.9880   42.5870 C   0  0  0  0  0  0  0  0  0  0  0  0
   59.4930   29.3270   44.5200 C   0  0  0  0  0  0  0  0  0  0  0  0
   60.7310   28.5920   45.0600 C   0  0  0  0  0  0  0  0  0  0  0  0
   58.3854   33.0858   49.2324 H   0  0  0  0  0  0  0  0  0  0  0  0
   57.7764   31.8274   48.1046 H   0  0  0  0  0  0  0  0  0  0  0  0
   59.5182   32.2665   48.1046 H   0  0  0  0  0  0  0  0  0  0  0  0
   57.2271   33.5436   46.7382 H   0  0  0  0  0  0  0  0  0  0  0  0
   58.3047   34.6964   47.6933 H   0  0  0  0  0  0  0  0  0  0  0  0
   59.7627   35.6126   47.0006 H   0  0  0  0  0  0  0  0  0  0  0  0
   60.6044   35.2938   45.4460 H   0  0  0  0  0  0  0  0  0  0  0  0
   58.8868   35.8197   45.4460 H   0  0  0  0  0  0  0  0  0  0  0  0
   60.0874   32.2958   47.2326 H   0  0  0  0  0  0  0  0  0  0  0  0
   60.6058   32.3643   45.4586 H   0  0  0  0  0  0  0  0  0  0  0  0
   61.7762   33.6953   47.8461 H   0  0  0  0  0  0  0  0  0  0  0  0
   62.5406   33.0914   46.3369 H   0  0  0  0  0  0  0  0  0  0  0  0
   61.6724   34.6640   46.3369 H   0  0  0  0  0  0  0  0  0  0  0  0
   58.5046   34.2178   44.0804 H   0  0  0  0  0  0  0  0  0  0  0  0
   59.1064   32.4929   44.4159 H   0  0  0  0  0  0  0  0  0  0  0  0
   56.6002   33.2753   45.7779 H   0  0  0  0  0  0  0  0  0  0  0  0
   56.5163   33.1124   43.9801 H   0  0  0  0  0  0  0  0  0  0  0  0
   56.3740   31.1484   43.0838 H   0  0  0  0  0  0  0  0  0  0  0  0
   58.1586   31.0605   43.3135 H   0  0  0  0  0  0  0  0  0  0  0  0
   56.1419   29.0309   44.3996 H   0  0  0  0  0  0  0  0  0  0  0  0
   57.1727   28.8699   42.8658 H   0  0  0  0  0  0  0  0  0  0  0  0
   58.4029   29.2943   46.6394 H   0  0  0  0  0  0  0  0  0  0  0  0
   56.7074   28.7781   46.1033 H   0  0  0  0  0  0  0  0  0  0  0  0
   57.9033   27.3910   47.9270 H   0  0  0  0  0  0  0  0  0  0  0  0
   57.0850   26.5590   46.5615 H   0  0  0  0  0  0  0  0  0  0  0  0
   58.8721   26.7403   46.5615 H   0  0  0  0  0  0  0  0  0  0  0  0
   59.2447   26.7498   44.4164 H   0  0  0  0  0  0  0  0  0  0  0  0
   57.3918   26.6581   44.5315 H   0  0  0  0  0  0  0  0  0  0  0  0
   57.5241   26.1065   42.3721 H   0  0  0  0  0  0  0  0  0  0  0  0
   57.6779   27.8824   42.1501 H   0  0  0  0  0  0  0  0  0  0  0  0
   59.1456   26.8468   42.1501 H   0  0  0  0  0  0  0  0  0  0  0  0
   59.6556   29.5295   43.4511 H   0  0  0  0  0  0  0  0  0  0  0  0
   59.3881   30.2389   45.1261 H   0  0  0  0  0  0  0  0  0  0  0  0
   60.7130   28.6027   46.1598 H   0  0  0  0  0  0  0  0  0  0  0  0
   60.7243   27.5515   44.7032 H   0  0  0  0  0  0  0  0  0  0  0  0
   61.6413   29.0961   44.7032 H   0  0  0  0  0  0  0  0  0  0  0  0
  1  2  1  0
  2  3  1  0
  3  4  1  0
  3  5  1  0
  5  6  1  0
  3  7  1  0
  7  8  1  0
  8  9  1  0
  9 10  1  0
 10 11  1  0
 11 12  1  0
 12 13  1  0
 13 14  1  0
 12 15  1  0
 15 16  1  0
 12 17  1  0
 17 18  1  0
  1 19  1  0
  1 20  1  0
  1 21  1  0
  2 22  1  0
  2 23  1  0
  4 24  1  0
  4 25  1  0
  4 26  1  0
  5 27  1  0
  5 28  1  0
  6 29  1  0
  6 30  1  0
  6 31  1  0
  7 32  1  0
  7 33  1  0
  8 34  1  0
  8 35  1  0
 10 36  1  0
 10 37  1  0
 11 38  1  0
 11 39  1  0
 13 40  1  0
 13 41  1  0
 14 42  1  0
 14 43  1  0
 14 44  1  0
 15 45  1  0
 15 46  1  0
 16 47  1  0
 16 48  1  0
 16 49  1  0
 17 50  1  0
 17 51  1  0
 18 52  1  0
 18 53  1  0
 18 54  1  0
M  CHG  2   3   1  12   1
M  END
>  <UniqueID>  (11) 
11

>  <SMILES>  (11) 
CC[N+](C)(CC)CCOCC[N+](CC)(CC)CC

>  <Energy>  (11) 
88.78025147211112

>  <Genealogy>  (11) 
CC[N+](C)(CC)CCOCC[N+](CC)(CC)CC (3D coordinates assigned)
CC[N+](C)(CC)CCOCC[N+](CC)(CC)CC (optimized conformer: 88.78025147211112 kcal/mol)

>  <smiles>  (11) 
CC[N+](C)(CC)CCOCC[N+](CC)(CC)CC

>  <score_type>  (11) 
oracle

>  <origin>  (11) 
adg

>  <m_score__min__energy>  (11) 
-1.49

>  <m_primary>  (11) 
energy

$$$$
11:0
     RDKit          3D

 63 66  0  0  0  0  0  0  0  0999 V2000
   63.3630   33.8040   46.5160 C   0  0  0  0  0  0  0  0  0  0  0  0
   63.3990   32.4220   47.1830 C   0  0  0  0  0  0  0  0  0  0  0  0
   62.7980   32.4340   48.5450 N   0  0  0  0  0  0  0  0  0  0  0  0
   62.5030   33.8330   48.9630 C   0  0  0  0  0  0  0  0  0  0  0  0
   61.3290   33.9150   49.9480 C   0  0  0  0  0  0  0  0  0  0  0  0
   63.7190   31.7880   49.5220 C   0  0  0  0  0  0  0  0  0  0  0  0
   62.9940   30.8100   50.4590 C   0  0  0  0  0  0  0  0  0  0  0  0
   61.6520   30.6960   50.0360 O   0  0  0  0  0  0  0  0  0  0  0  0
   60.8530   30.1950   51.0880 C   0  0  0  0  0  0  0  0  0  0  0  0
   59.6330   29.5030   50.4830 C   0  0  0  0  0  0  0  0  0  0  0  0
   60.0320   28.4960   49.3970 C   0  0  0  0  0  0  0  0  0  0  0  0
   60.5810   29.1820   48.2260 N   0  0  0  0  0  0  0  0  0  0  0  0
   59.7930   29.5530   47.0770 C   0  0  0  0  0  0  0  0  0  0  0  0
   59.2040   28.5820   46.2280 C   0  0  0  0  0  0  0  0  0  0  0  0
   59.4170   27.2050   46.4470 C   0  0  0  0  0  0  0  0  0  0  0  0
   58.8780   26.2560   45.5820 C   0  0  0  0  0  0  0  0  0  0  0  0
   58.1440   26.6550   44.4700 C   0  0  0  0  0  0  0  0  0  0  0  0
   57.9250   28.0080   44.2190 C   0  0  0  0  0  0  0  0  0  0  0  0
   58.4180   29.0030   45.0980 C   0  0  0  0  0  0  0  0  0  0  0  0
   58.1860   30.3510   44.8680 N   0  0  0  0  0  0  0  0  0  0  0  0
   57.1900   30.8140   43.8880 C   0  0  0  0  0  0  0  0  0  0  0  0
   58.8720   31.2580   45.6340 C   0  0  0  0  0  0  0  0  0  0  0  0
   59.6210   30.8870   46.7290 C   0  0  0  0  0  0  0  0  0  0  0  0
   60.1180   31.9410   47.3430 O   0  0  0  0  0  0  0  0  0  0  0  0
   59.7430   32.9980   46.6600 C   0  0  0  0  0  0  0  0  0  0  0  0
   60.0720   34.3240   46.9310 C   0  0  0  0  0  0  0  0  0  0  0  0
   59.6240   35.3100   46.0380 C   0  0  0  0  0  0  0  0  0  0  0  0
   58.8800   34.9530   44.8950 C   0  0  0  0  0  0  0  0  0  0  0  0
   58.5560   33.6080   44.6410 C   0  0  0  0  0  0  0  0  0  0  0  0
   58.9740   32.6450   45.5670 C   0  0  0  0  0  0  0  0  0  0  0  0
   63.3427   34.5846   47.2907 H   0  0  0  0  0  0  0  0  0  0  0  0
   64.2581   33.9323   45.8896 H   0  0  0  0  0  0  0  0  0  0  0  0
   62.4624   33.8855   45.8896 H   0  0  0  0  0  0  0  0  0  0  0  0
   62.8393   31.7123   46.5560 H   0  0  0  0  0  0  0  0  0  0  0  0
   64.4534   32.1254   47.2840 H   0  0  0  0  0  0  0  0  0  0  0  0
   61.9000   31.8950   48.5230 H   0  0  0  0  0  0  0  0  0  0  0  0
   63.3980   34.2538   49.4446 H   0  0  0  0  0  0  0  0  0  0  0  0
   62.2249   34.4002   48.0624 H   0  0  0  0  0  0  0  0  0  0  0  0
   61.7125   33.8882   50.9786 H   0  0  0  0  0  0  0  0  0  0  0  0
   60.7791   34.8537   49.7857 H   0  0  0  0  0  0  0  0  0  0  0  0
   60.6539   33.0618   49.7857 H   0  0  0  0  0  0  0  0  0  0  0  0
   64.4917   31.2364   48.9663 H   0  0  0  0  0  0  0  0  0  0  0  0
   64.1565   32.5830   50.1437 H   0  0  0  0  0  0  0  0  0  0  0  0
   63.4815   29.8248   50.4163 H   0  0  0  0  0  0  0  0  0  0  0  0
   63.0328   31.1807   51.4939 H   0  0  0  0  0  0  0  0  0  0  0  0
   61.4322   29.4731   51.6824 H   0  0  0  0  0  0  0  0  0  0  0  0
   60.5328   31.0186   51.7431 H   0  0  0  0  0  0  0  0  0  0  0  0
   59.0926   28.9718   51.2804 H   0  0  0  0  0  0  0  0  0  0  0  0
   58.9971   30.2721   50.0203 H   0  0  0  0  0  0  0  0  0  0  0  0
   60.7914   27.8111   49.8022 H   0  0  0  0  0  0  0  0  0  0  0  0
   59.1360   27.9369   49.0893 H   0  0  0  0  0  0  0  0  0  0  0  0
   61.5860   29.4670   48.2630 H   0  0  0  0  0  0  0  0  0  0  0  0
   60.0151   26.8773   47.3101 H   0  0  0  0  0  0  0  0  0  0  0  0
   59.0336   25.1851   45.7793 H   0  0  0  0  0  0  0  0  0  0  0  0
   57.7341   25.8983   43.7849 H   0  0  0  0  0  0  0  0  0  0  0  0
   57.3603   28.3080   43.3240 H   0  0  0  0  0  0  0  0  0  0  0  0
   56.3158   31.2204   44.4177 H   0  0  0  0  0  0  0  0  0  0  0  0
   57.6336   31.5983   43.2570 H   0  0  0  0  0  0  0  0  0  0  0  0
   56.8764   29.9694   43.2570 H   0  0  0  0  0  0  0  0  0  0  0  0
   60.6651   34.5906   47.8182 H   0  0  0  0  0  0  0  0  0  0  0  0
   59.8549   36.3680   46.2313 H   0  0  0  0  0  0  0  0  0  0  0  0
   58.5495   35.7342   44.1947 H   0  0  0  0  0  0  0  0  0  0  0  0
   57.9911   33.3215   43.7417 H   0  0  0  0  0  0  0  0  0  0  0  0
  1  2  1  0
  2  3  1  0
  3  4  1  0
  4  5  1  0
  3  6  1  0
  6  7  1  0
  7  8  1  0
  8  9  1  0
  9 10  1  0
 10 11  1  0
 11 12  1  0
 12 13  1  0
 13 14  2  0
 14 15  1  0
 15 16  2  0
 16 17  1  0
 17 18  2  0
 18 19  1  0
 19 20  2  0
 20 21  1  0
 20 22  1  0
 22 23  2  0
 23 24  1  0
 24 25  1  0
 25 26  2  0
 26 27  1  0
 27 28  2  0
 28 29  1  0
 29 30  2  0
 23 13  1  0
 30 25  1  0
 19 14  1  0
 30 22  1  0
  1 31  1  0
  1 32  1  0
  1 33  1  0
  2 34  1  0
  2 35  1  0
  3 36  1  0
  4 37  1  0
  4 38  1  0
  5 39  1  0
  5 40  1  0
  5 41  1  0
  6 42  1  0
  6 43  1  0
  7 44  1  0
  7 45  1  0
  9 46  1  0
  9 47  1  0
 10 48  1  0
 10 49  1  0
 11 50  1  0
 11 51  1  0
 12 52  1  0
 15 53  1  0
 16 54  1  0
 17 55  1  0
 18 56  1  0
 21 57  1  0
 21 58  1  0
 21 59  1  0
 26 60  1  0
 27 61  1  0
 28 62  1  0
 29 63  1  0
M  CHG  2   3   1  20   1
M  END
>  <UniqueID>  (12) 
12

>  <SMILES>  (12) 
CC[NH+](CC)CCOCCCNc1c2ccccc2[n+](C)c2c1oc1ccccc12

>  <Energy>  (12) 
124.3441106995458

>  <Genealogy>  (12) 
CC[NH+](CC)CCOCCCNc1c2ccccc2[n+](C)c2c1oc1ccccc12 (protonated)
CC[NH+](CC)CCOCCCNc1c2ccccc2[n+](C)c2c1oc1ccccc12 (3D coordinates assigned)
CC[NH+](CC)CCOCCCNc1c2ccccc2[n+](C)c2c1oc1ccccc12 (optimized conformer: 124.3441106995458 kcal/mol)

>  <smiles>  (12) 
CCN(CC)CCOCCCNc1c2ccccc2[n+](C)c2c1oc1ccccc12

>  <score_type>  (12) 
oracle

>  <origin>  (12) 
adg

>  <m_score__min__energy>  (12) 
-4.3099999999999996

>  <m_primary>  (12) 
energy

$$$$
12:0
     RDKit          3D

 76 80  0  0  0  0  0  0  0  0999 V2000
   57.9660   31.9260   50.9070 C   0  0  0  0  0  0  0  0  0  0  0  0
   58.8880   31.1340   49.9720 C   0  0  0  0  0  0  0  0  0  0  0  0
   59.7310   30.1530   50.7050 N   0  0  2  0  0  0  0  0  0  0  0  0
   60.9590   30.8030   51.2080 C   0  0  0  0  0  0  0  0  0  0  0  0
   60.1020   29.0080   49.8290 C   0  0  0  0  0  0  0  0  0  0  0  0
   59.8520   29.2800   48.3310 C   0  0  0  0  0  0  0  0  0  0  0  0
   58.4960   28.9030   47.9280 N   0  0  0  0  0  0  0  0  0  0  0  0
   58.2510   28.4340   46.5970 C   0  0  0  0  0  0  0  0  0  0  0  0
   58.1270   27.0550   46.3180 C   0  0  0  0  0  0  0  0  0  0  0  0
   58.2090   26.1030   47.3530 C   0  0  0  0  0  0  0  0  0  0  0  0
   58.0560   24.7460   47.0840 C   0  0  0  0  0  0  0  0  0  0  0  0
   57.8120   24.3130   45.7850 C   0  0  0  0  0  0  0  0  0  0  0  0
   57.7400   25.2320   44.7370 C   0  0  0  0  0  0  0  0  0  0  0  0
   57.9160   26.6180   44.9670 C   0  0  0  0  0  0  0  0  0  0  0  0
   57.8800   27.5370   43.9290 N   0  0  0  0  0  0  0  0  0  0  0  0
   57.7710   27.1040   42.5240 C   0  0  0  0  0  0  0  0  0  0  0  0
   57.9320   28.8720   44.2400 C   0  0  0  0  0  0  0  0  0  0  0  0
   57.7940   29.9100   43.3750 N   0  0  0  0  0  0  0  0  0  0  0  0
   57.8980   31.0170   44.1380 C   0  0  0  0  0  0  0  0  0  0  0  0
   57.8020   32.3370   43.7050 C   0  0  0  0  0  0  0  0  0  0  0  0
   57.9120   33.3580   44.6630 C   0  0  0  0  0  0  0  0  0  0  0  0
   58.0970   33.0460   46.0380 C   0  0  0  0  0  0  0  0  0  0  0  0
   58.2130   34.0310   47.0340 O   0  0  0  0  0  0  0  0  0  0  0  0
   59.2960   34.9470   47.1790 C   0  0  0  0  0  0  0  0  0  0  0  0
   60.6380   34.3950   46.6340 C   0  0  0  0  0  0  0  0  0  0  0  0
   61.4900   33.5640   47.5600 N   0  0  0  0  0  0  0  0  0  0  0  0
   60.8730   33.6960   48.9130 C   0  0  0  0  0  0  0  0  0  0  0  0
   61.4540   32.1300   47.1410 C   0  0  0  0  0  0  0  0  0  0  0  0
   62.4050   31.2300   47.9580 C   0  0  0  0  0  0  0  0  0  0  0  0
   63.7790   31.7450   47.9480 N   0  0  0  0  0  0  0  0  0  0  0  0
   63.8290   33.1310   48.4280 C   0  0  0  0  0  0  0  0  0  0  0  0
   62.9020   34.0450   47.6010 C   0  0  0  0  0  0  0  0  0  0  0  0
   58.1710   31.6980   46.4410 C   0  0  0  0  0  0  0  0  0  0  0  0
   58.0880   30.7050   45.4640 C   0  0  0  0  0  0  0  0  0  0  0  0
   58.1150   29.3220   45.5330 C   0  0  0  0  0  0  0  0  0  0  0  0
   58.2252   31.7033   51.9526 H   0  0  0  0  0  0  0  0  0  0  0  0
   58.0909   33.0027   50.7196 H   0  0  0  0  0  0  0  0  0  0  0  0
   56.9205   31.6401   50.7196 H   0  0  0  0  0  0  0  0  0  0  0  0
   58.2693   30.5920   49.2416 H   0  0  0  0  0  0  0  0  0  0  0  0
   59.5603   31.8507   49.4776 H   0  0  0  0  0  0  0  0  0  0  0  0
   59.2100   29.7960   51.5390 H   0  0  0  0  0  0  0  0  0  0  0  0
   60.9517   30.7991   52.3080 H   0  0  0  0  0  0  0  0  0  0  0  0
   61.8399   30.2531   50.8452 H   0  0  0  0  0  0  0  0  0  0  0  0
   60.9996   31.8407   50.8452 H   0  0  0  0  0  0  0  0  0  0  0  0
   61.1712   28.7918   49.9710 H   0  0  0  0  0  0  0  0  0  0  0  0
   59.4657   28.1581   50.1166 H   0  0  0  0  0  0  0  0  0  0  0  0
   59.9962   30.3528   48.1352 H   0  0  0  0  0  0  0  0  0  0  0  0
   60.5621   28.6727   47.7505 H   0  0  0  0  0  0  0  0  0  0  0  0
   57.7620   28.7250   48.6490 H   0  0  0  0  0  0  0  0  0  0  0  0
   58.3959   26.4356   48.3847 H   0  0  0  0  0  0  0  0  0  0  0  0
   58.1283   24.0136   47.9015 H   0  0  0  0  0  0  0  0  0  0  0  0
   57.6750   23.2405   45.5825 H   0  0  0  0  0  0  0  0  0  0  0  0
   57.5433   24.8737   43.7158 H   0  0  0  0  0  0  0  0  0  0  0  0
   57.5026   26.0378   42.4887 H   0  0  0  0  0  0  0  0  0  0  0  0
   56.9936   27.6948   42.0175 H   0  0  0  0  0  0  0  0  0  0  0  0
   58.7355   27.2563   42.0175 H   0  0  0  0  0  0  0  0  0  0  0  0
   57.6020   29.8950   42.3500 H   0  0  0  0  0  0  0  0  0  0  0  0
   57.6444   32.5734   42.6423 H   0  0  0  0  0  0  0  0  0  0  0  0
   57.8545   34.4099   44.3465 H   0  0  0  0  0  0  0  0  0  0  0  0
   59.0495   35.8695   46.6328 H   0  0  0  0  0  0  0  0  0  0  0  0
   59.4296   35.1283   48.2557 H   0  0  0  0  0  0  0  0  0  0  0  0
   60.4039   33.7723   45.7579 H   0  0  0  0  0  0  0  0  0  0  0  0
   61.2431   35.2917   46.4346 H   0  0  0  0  0  0  0  0  0  0  0  0
   61.6406   33.5318   49.6836 H   0  0  0  0  0  0  0  0  0  0  0  0
   60.4498   34.7050   49.0261 H   0  0  0  0  0  0  0  0  0  0  0  0
   60.0740   32.9485   49.0261 H   0  0  0  0  0  0  0  0  0  0  0  0
   60.4270   31.7559   47.2652 H   0  0  0  0  0  0  0  0  0  0  0  0
   61.7870   32.0887   46.0934 H   0  0  0  0  0  0  0  0  0  0  0  0
   62.0484   31.1850   48.9976 H   0  0  0  0  0  0  0  0  0  0  0  0
   62.4095   30.2298   47.5001 H   0  0  0  0  0  0  0  0  0  0  0  0
   64.1430   31.7110   46.9650 H   0  0  0  0  0  0  0  0  0  0  0  0
   63.5114   33.1571   49.4808 H   0  0  0  0  0  0  0  0  0  0  0  0
   64.8609   33.4974   48.3232 H   0  0  0  0  0  0  0  0  0  0  0  0
   62.9162   35.0515   48.0447 H   0  0  0  0  0  0  0  0  0  0  0  0
   63.2785   34.0450   46.5675 H   0  0  0  0  0  0  0  0  0  0  0  0
   58.2915   31.4342   47.5021 H   0  0  0  0  0  0  0  0  0  0  0  0
  1  2  1  0
  2  3  1  0
  3  4  1  0
  3  5  1  0
  5  6  1  0
  6  7  1  0
  7  8  1  0
  8  9  2  0
  9 10  1  0
 10 11  2  0
 11 12  1  0
 12 13  2  0
 13 14  1  0
 14 15  2  0
 15 16  1  0
 15 17  1  0
 17 18  1  0
 18 19  1  0
 19 20  2  0
 20 21  1  0
 21 22  2  0
 22 23  1  0
 23 24  1  0
 24 25  1  0
 25 26  1  0
 26 27  1  0
 26 28  1  0
 28 29  1  0
 29 30  1  0
 30 31  1  0
 31 32  1  0
 22 33  1  0
 33 34  2  0
 34 35  1  0
 35  8  1  0
 14  9  1  0
 35 17  2  0
 34 19  1  0
 32 26  1  0
  1 36  1  0
  1 37  1  0
  1 38  1  0
  2 39  1  0
  2 40  1  0
  3 41  1  1
  4 42  1  0
  4 43  1  0
  4 44  1  0
  5 45  1  0
  5 46  1  0
  6 47  1  0
  6 48  1  0
  7 49  1  0
 10 50  1  0
 11 51  1  0
 12 52  1  0
 13 53  1  0
 16 54  1  0
 16 55  1  0
 16 56  1  0
 18 57  1  0
 20 58  1  0
 21 59  1  0
 24 60  1  0
 24 61  1  0
 25 62  1  0
 25 63  1  0
 27 64  1  0
 27 65  1  0
 27 66  1  0
 28 67  1  0
 28 68  1  0
 29 69  1  0
 29 70  1  0
 30 71  1  0
 31 72  1  0
 31 73  1  0
 32 74  1  0
 32 75  1  0
 33 76  1  0
M  CHG  3   3   1  15   1  26   1
M  END
>  <UniqueID>  (13) 
13

>  <SMILES>  (13) 
CC[N@H+](C)CCNc1c2ccccc2[n+](C)c2[nH]c3ccc(OCC[N+]4(C)CCNCC4)cc3c12

>  <Energy>  (13) 
148.9971788168181

>  <Genealogy>  (13) 
CC[NH+](C)CCNc1c2ccccc2[n+](C)c2[nH]c3ccc(OCC[N+]4(C)CCNCC4)cc3c12 (protonated)
CC[N@H+](C)CCNc1c2ccccc2[n+](C)c2[nH]c3ccc(OCC[N+]4(C)CCNCC4)cc3c12 (chirality)
CC[N@H+](C)CCNc1c2ccccc2[n+](C)c2[nH]c3ccc(OCC[N+]4(C)CCNCC4)cc3c12 (3D coordinates assigned)
CC[N@H+](C)CCNc1c2ccccc2[n+](C)c2[nH]c3ccc(OCC[N+]4(C)CCNCC4)cc3c12 (nonaromatic ring conformer: 148.9971788168181 kcal/mol)

>  <smiles>  (13) 
CCN(C)CCNc1c2ccccc2[n+](C)c2[nH]c3ccc(OCC[N+]4(C)CCNCC4)cc3c12

>  <score_type>  (13) 
oracle

>  <origin>  (13) 
adg

>  <m_score__min__energy>  (13) 
-5.2000000000000002

>  <m_primary>  (13) 
energy

$$$$
13:0
     RDKit          3D

 69 71  0  0  0  0  0  0  0  0999 V2000
   63.2700   31.6430   49.9290 C   0  0  0  0  0  0  0  0  0  0  0  0
   63.1340   32.2060   48.5060 C   0  0  0  0  0  0  0  0  0  0  0  0
   61.9000   32.9990   48.2650 N   0  0  0  0  0  0  0  0  0  0  0  0
   61.8990   33.7700   47.0020 C   0  0  0  0  0  0  0  0  0  0  0  0
   63.2920   33.8310   46.3750 C   0  0  0  0  0  0  0  0  0  0  0  0
   61.5190   33.8370   49.4280 C   0  0  0  0  0  0  0  0  0  0  0  0
   60.0500   34.2620   49.3300 C   0  0  0  0  0  0  0  0  0  0  0  0
   59.2410   33.4270   50.1410 O   0  0  0  0  0  0  0  0  0  0  0  0
   59.3740   33.7420   51.5140 C   0  0  0  0  0  0  0  0  0  0  0  0
   58.2260   33.1190   52.3130 C   0  0  0  0  0  0  0  0  0  0  0  0
   57.3530   32.4040   51.4580 O   0  0  0  0  0  0  0  0  0  0  0  0
   56.3960   31.6860   52.2080 C   0  0  0  0  0  0  0  0  0  0  0  0
   56.8550   30.2370   52.3610 C   0  0  0  0  0  0  0  0  0  0  0  0
   57.6300   29.8400   51.2430 O   0  0  0  0  0  0  0  0  0  0  0  0
   58.9670   29.5760   51.6240 C   0  0  0  0  0  0  0  0  0  0  0  0
   59.9210   30.2670   50.6510 C   0  0  0  0  0  0  0  0  0  0  0  0
   59.1890   30.8980   49.5530 N   0  0  0  0  0  0  0  0  0  0  0  0
   59.6070   30.8000   48.1850 C   0  0  0  0  0  0  0  0  0  0  0  0
   60.6850   30.2160   47.8870 O   0  0  0  0  0  0  0  0  0  0  0  0
   58.7970   31.4040   47.1180 C   0  0  0  0  0  0  0  0  0  0  0  0
   58.4110   32.7550   47.2060 C   0  0  0  0  0  0  0  0  0  0  0  0
   57.7240   33.3540   46.1840 N   0  0  0  0  0  0  0  0  0  0  0  0
   57.3840   32.6840   45.0470 C   0  0  0  0  0  0  0  0  0  0  0  0
   57.7430   31.3390   44.9340 C   0  0  0  0  0  0  0  0  0  0  0  0
   58.4180   30.7070   45.9590 C   0  0  0  0  0  0  0  0  0  0  0  0
   58.5090   29.3730   45.5840 C   0  0  0  0  0  0  0  0  0  0  0  0
   58.9700   28.2370   46.2590 C   0  0  0  0  0  0  0  0  0  0  0  0
   58.8450   26.9920   45.6220 C   0  0  0  0  0  0  0  0  0  0  0  0
   58.2520   26.8960   44.3470 C   0  0  0  0  0  0  0  0  0  0  0  0
   57.7680   28.0440   43.6970 C   0  0  0  0  0  0  0  0  0  0  0  0
   57.9090   29.2790   44.3390 C   0  0  0  0  0  0  0  0  0  0  0  0
   57.4560   30.4860   43.9220 N   0  0  0  0  0  0  0  0  0  0  0  0
   56.6750   30.7760   42.7190 C   0  0  0  0  0  0  0  0  0  0  0  0
   63.0769   32.4423   50.6596 H   0  0  0  0  0  0  0  0  0  0  0  0
   62.5422   30.8309   50.0731 H   0  0  0  0  0  0  0  0  0  0  0  0
   64.2883   31.2527   50.0731 H   0  0  0  0  0  0  0  0  0  0  0  0
   64.0010   32.8540   48.3100 H   0  0  0  0  0  0  0  0  0  0  0  0
   63.0805   31.3375   47.8330 H   0  0  0  0  0  0  0  0  0  0  0  0
   61.2093   33.2901   46.2920 H   0  0  0  0  0  0  0  0  0  0  0  0
   61.5798   34.7980   47.2284 H   0  0  0  0  0  0  0  0  0  0  0  0
   64.0510   33.8642   47.1705 H   0  0  0  0  0  0  0  0  0  0  0  0
   63.4529   32.9390   45.7517 H   0  0  0  0  0  0  0  0  0  0  0  0
   63.3743   34.7336   45.7517 H   0  0  0  0  0  0  0  0  0  0  0  0
   61.6673   33.2603   50.3529 H   0  0  0  0  0  0  0  0  0  0  0  0
   62.1487   34.7389   49.4361 H   0  0  0  0  0  0  0  0  0  0  0  0
   59.9503   35.3037   49.6689 H   0  0  0  0  0  0  0  0  0  0  0  0
   59.7207   34.1727   48.2842 H   0  0  0  0  0  0  0  0  0  0  0  0
   60.3313   33.3482   51.8861 H   0  0  0  0  0  0  0  0  0  0  0  0
   59.3446   34.8348   51.6360 H   0  0  0  0  0  0  0  0  0  0  0  0
   58.6405   32.4303   53.0640 H   0  0  0  0  0  0  0  0  0  0  0  0
   57.6596   33.9234   52.8051 H   0  0  0  0  0  0  0  0  0  0  0  0
   56.2898   32.1443   53.2023 H   0  0  0  0  0  0  0  0  0  0  0  0
   55.4269   31.7117   51.6882 H   0  0  0  0  0  0  0  0  0  0  0  0
   57.4623   30.1443   53.2735 H   0  0  0  0  0  0  0  0  0  0  0  0
   55.9688   29.5887   52.4271 H   0  0  0  0  0  0  0  0  0  0  0  0
   59.1405   29.9580   52.6408 H   0  0  0  0  0  0  0  0  0  0  0  0
   59.1460   28.4909   51.6038 H   0  0  0  0  0  0  0  0  0  0  0  0
   60.4904   31.0370   51.1922 H   0  0  0  0  0  0  0  0  0  0  0  0
   60.5982   29.5097   50.2292 H   0  0  0  0  0  0  0  0  0  0  0  0
   58.3320   31.4520   49.7810 H   0  0  0  0  0  0  0  0  0  0  0  0
   58.6640   33.3357   48.1054 H   0  0  0  0  0  0  0  0  0  0  0  0
   56.8393   33.1909   44.2368 H   0  0  0  0  0  0  0  0  0  0  0  0
   59.4177   28.3172   47.2605 H   0  0  0  0  0  0  0  0  0  0  0  0
   59.2129   26.0840   46.1222 H   0  0  0  0  0  0  0  0  0  0  0  0
   58.1674   25.9148   43.8569 H   0  0  0  0  0  0  0  0  0  0  0  0
   57.2904   27.9734   42.7086 H   0  0  0  0  0  0  0  0  0  0  0  0
   55.6800   31.1455   43.0080 H   0  0  0  0  0  0  0  0  0  0  0  0
   57.1916   31.5422   42.1223 H   0  0  0  0  0  0  0  0  0  0  0  0
   56.5663   29.8583   42.1223 H   0  0  0  0  0  0  0  0  0  0  0  0
  1  2  1  0
  2  3  1  0
  3  4  1  0
  4  5  1  0
  3  6  1  0
  6  7  1  0
  7  8  1  0
  8  9  1  0
  9 10  1  0
 10 11  1  0
 11 12  1  0
 12 13  1  0
 13 14  1  0
 14 15  1  0
 15 16  1  0
 16 17  1  0
 17 18  1  0
 18 19  2  0
 18 20  1  0
 20 21  2  0
 21 22  1  0
 22 23  2  0
 23 24  1  0
 24 25  2  0
 25 26  1  0
 26 27  2  0
 27 28  1  0
 28 29  2  0
 29 30  1  0
 30 31  2  0
 31 32  1  0
 32 33  1  0
 25 20  1  0
 31 26  1  0
 32 24  1  0
  1 34  1  0
  1 35  1  0
  1 36  1  0
  2 37  1  0
  2 38  1  0
  4 39  1  0
  4 40  1  0
  5 41  1  0
  5 42  1  0
  5 43  1  0
  6 44  1  0
  6 45  1  0
  7 46  1  0
  7 47  1  0
  9 48  1  0
  9 49  1  0
 10 50  1  0
 10 51  1  0
 12 52  1  0
 12 53  1  0
 13 54  1  0
 13 55  1  0
 15 56  1  0
 15 57  1  0
 16 58  1  0
 16 59  1  0
 17 60  1  0
 21 61  1  0
 23 62  1  0
 27 63  1  0
 28 64  1  0
 29 65  1  0
 30 66  1  0
 33 67  1  0
 33 68  1  0
 33 69  1  0
M  END
>  <UniqueID>  (14) 
14

>  <SMILES>  (14) 
CCN(CC)CCOCCOCCOCCNC(=O)c1cncc2c1c1ccccc1n2C

>  <Energy>  (14) 
120.90349899533501

>  <Genealogy>  (14) 
CCN(CC)CCOCCOCCOCCNC(=O)c1cncc2c1c1ccccc1n2C (3D coordinates assigned)
CCN(CC)CCOCCOCCOCCNC(=O)c1cncc2c1c1ccccc1n2C (optimized conformer: 120.90349899533501 kcal/mol)

>  <smiles>  (14) 
CCN(CC)CCOCCOCCOCCNC(=O)c1cncc2c1c1ccccc1n2C

>  <score_type>  (14) 
oracle

>  <origin>  (14) 
adg

>  <m_score__min__energy>  (14) 
-6.9900000000000002

>  <m_primary>  (14) 
energy

$$$$
14:0
     RDKit          3D

 53 55  0  0  0  0  0  0  0  0999 V2000
   65.0260   32.5120   49.7580 C   0  0  0  0  0  0  0  0  0  0  0  0
   63.5600   32.1000   49.6990 C   0  0  0  0  0  0  0  0  0  0  0  0
   62.8430   32.9340   48.7000 N   0  0  0  0  0  0  0  0  0  0  0  0
   63.7760   33.5360   47.7190 C   0  0  0  0  0  0  0  0  0  0  0  0
   63.0620   33.8430   46.4030 C   0  0  0  0  0  0  0  0  0  0  0  0
   61.9930   33.9690   49.3400 C   0  0  0  0  0  0  0  0  0  0  0  0
   60.9280   33.3270   50.2550 C   0  0  0  0  0  0  0  0  0  0  0  0
   59.9180   32.4300   49.5170 C   0  0  0  0  0  0  0  0  0  0  0  0
   60.5610   31.6390   48.4530 N   0  0  0  0  0  0  0  0  0  0  0  0
   59.6820   31.5340   47.2980 C   0  0  0  0  0  0  0  0  0  0  0  0
   59.3660   32.6830   46.5240 C   0  0  0  0  0  0  0  0  0  0  0  0
   59.7880   33.9800   46.9110 C   0  0  0  0  0  0  0  0  0  0  0  0
   59.5560   35.0860   46.0980 C   0  0  0  0  0  0  0  0  0  0  0  0
   58.9070   34.9310   44.8820 C   0  0  0  0  0  0  0  0  0  0  0  0
   58.4400   33.6780   44.4970 C   0  0  0  0  0  0  0  0  0  0  0  0
   58.6040   32.5400   45.3310 C   0  0  0  0  0  0  0  0  0  0  0  0
   58.0540   31.3200   44.9950 N   0  0  0  0  0  0  0  0  0  0  0  0
   57.0240   31.2440   43.9320 C   0  0  0  0  0  0  0  0  0  0  0  0
   58.4140   30.1800   45.6860 C   0  0  0  0  0  0  0  0  0  0  0  0
   58.0560   28.8890   45.2150 C   0  0  0  0  0  0  0  0  0  0  0  0
   58.3250   27.7460   45.9630 C   0  0  0  0  0  0  0  0  0  0  0  0
   57.8070   26.0270   45.3080 Br  0  0  0  0  0  0  0  0  0  0  0  0
   58.9610   27.8550   47.1920 C   0  0  0  0  0  0  0  0  0  0  0  0
   59.3800   29.1000   47.6520 C   0  0  0  0  0  0  0  0  0  0  0  0
   59.1670   30.2750   46.8890 C   0  0  0  0  0  0  0  0  0  0  0  0
   65.3401   32.6003   50.8085 H   0  0  0  0  0  0  0  0  0  0  0  0
   65.6411   31.7519   49.2540 H   0  0  0  0  0  0  0  0  0  0  0  0
   65.1551   33.4812   49.2540 H   0  0  0  0  0  0  0  0  0  0  0  0
   63.4895   31.0413   49.4089 H   0  0  0  0  0  0  0  0  0  0  0  0
   63.1019   32.2443   50.6886 H   0  0  0  0  0  0  0  0  0  0  0  0
   64.1820   34.4700   48.1347 H   0  0  0  0  0  0  0  0  0  0  0  0
   64.5864   32.8193   47.5198 H   0  0  0  0  0  0  0  0  0  0  0  0
   62.0703   34.2694   46.6147 H   0  0  0  0  0  0  0  0  0  0  0  0
   63.6557   34.5654   45.8236 H   0  0  0  0  0  0  0  0  0  0  0  0
   62.9461   32.9152   45.8236 H   0  0  0  0  0  0  0  0  0  0  0  0
   62.6294   34.6345   49.9418 H   0  0  0  0  0  0  0  0  0  0  0  0
   61.4785   34.5356   48.5499 H   0  0  0  0  0  0  0  0  0  0  0  0
   61.4449   32.7158   51.0094 H   0  0  0  0  0  0  0  0  0  0  0  0
   60.3520   34.1535   50.6968 H   0  0  0  0  0  0  0  0  0  0  0  0
   59.4567   31.7429   50.2416 H   0  0  0  0  0  0  0  0  0  0  0  0
   59.1627   33.0793   49.0501 H   0  0  0  0  0  0  0  0  0  0  0  0
   60.8290   30.6960   48.8120 H   0  0  0  0  0  0  0  0  0  0  0  0
   61.4810   32.0470   48.1830 H   0  0  0  0  0  0  0  0  0  0  0  0
   60.3081   34.1148   47.8709 H   0  0  0  0  0  0  0  0  0  0  0  0
   59.8878   36.0840   46.4203 H   0  0  0  0  0  0  0  0  0  0  0  0
   58.7614   35.7988   44.2218 H   0  0  0  0  0  0  0  0  0  0  0  0
   57.9335   33.5665   43.5269 H   0  0  0  0  0  0  0  0  0  0  0  0
   56.0274   31.1705   44.3917 H   0  0  0  0  0  0  0  0  0  0  0  0
   57.0740   32.1483   43.3077 H   0  0  0  0  0  0  0  0  0  0  0  0
   57.2062   30.3569   43.3077 H   0  0  0  0  0  0  0  0  0  0  0  0
   57.5563   28.7901   44.2400 H   0  0  0  0  0  0  0  0  0  0  0  0
   59.1340   26.9567   47.8029 H   0  0  0  0  0  0  0  0  0  0  0  0
   59.8859   29.1732   48.6260 H   0  0  0  0  0  0  0  0  0  0  0  0
  1  2  1  0
  2  3  1  0
  3  4  1  0
  4  5  1  0
  3  6  1  0
  6  7  1  0
  7  8  1  0
  8  9  1  0
  9 10  1  0
 10 11  2  0
 11 12  1  0
 12 13  2  0
 13 14  1  0
 14 15  2  0
 15 16  1  0
 16 17  2  0
 17 18  1  0
 17 19  1  0
 19 20  2  0
 20 21  1  0
 21 22  1  0
 21 23  2  0
 23 24  1  0
 24 25  2  0
 25 10  1  0
 16 11  1  0
 25 19  1  0
  1 26  1  0
  1 27  1  0
  1 28  1  0
  2 29  1  0
  2 30  1  0
  4 31  1  0
  4 32  1  0
  5 33  1  0
  5 34  1  0
  5 35  1  0
  6 36  1  0
  6 37  1  0
  7 38  1  0
  7 39  1  0
  8 40  1  0
  8 41  1  0
  9 42  1  0
  9 43  1  0
 12 44  1  0
 13 45  1  0
 14 46  1  0
 15 47  1  0
 18 48  1  0
 18 49  1  0
 18 50  1  0
 20 51  1  0
 23 52  1  0
 24 53  1  0
M  CHG  2   9   1  17   1
M  END
>  <UniqueID>  (15) 
15

>  <SMILES>  (15) 
CCN(CC)CCC[NH2+]c1c2ccccc2[n+](C)c2cc(Br)ccc12

>  <Energy>  (15) 
82.91155294201154

>  <Genealogy>  (15) 
CCN(CC)CCC[NH2+]c1c2ccccc2[n+](C)c2cc(Br)ccc12 (protonated)
CCN(CC)CCC[NH2+]c1c2ccccc2[n+](C)c2cc(Br)ccc12 (3D coordinates assigned)
CCN(CC)CCC[NH2+]c1c2ccccc2[n+](C)c2cc(Br)ccc12 (optimized conformer: 82.91155294201154 kcal/mol)

>  <smiles>  (15) 
CCN(CC)CCCNc1c2ccccc2[n+](C)c2cc(Br)ccc12

>  <score_type>  (15) 
oracle

>  <origin>  (15) 
adg

>  <m_score__min__energy>  (15) 
-4.46

>  <m_primary>  (15) 
energy

$$$$
15:0
     RDKit          3D

 67 69  0  0  0  0  0  0  0  0999 V2000
   63.2410   33.8350   46.4120 C   0  0  0  0  0  0  0  0  0  0  0  0
   62.8580   32.8220   47.4870 C   0  0  0  0  0  0  0  0  0  0  0  0
   63.2320   33.3150   48.8310 N   0  0  0  0  0  0  0  0  0  0  0  0
   64.0440   32.3360   49.5770 C   0  0  0  0  0  0  0  0  0  0  0  0
   62.0640   33.7830   49.6130 C   0  0  0  0  0  0  0  0  0  0  0  0
   61.4530   32.7090   50.5360 C   0  0  0  0  0  0  0  0  0  0  0  0
   60.0390   32.7520   50.4650 O   0  0  0  0  0  0  0  0  0  0  0  0
   59.5130   33.8170   51.2390 C   0  0  0  0  0  0  0  0  0  0  0  0
   58.2440   33.3830   51.9790 C   0  0  0  0  0  0  0  0  0  0  0  0
   57.5140   32.4440   51.2100 O   0  0  0  0  0  0  0  0  0  0  0  0
   57.0340   31.3800   52.0080 C   0  0  0  0  0  0  0  0  0  0  0  0
   58.0040   30.1920   51.9770 C   0  0  0  0  0  0  0  0  0  0  0  0
   58.1450   29.7150   50.6520 O   0  0  0  0  0  0  0  0  0  0  0  0
   59.4940   29.3880   50.3890 C   0  0  0  0  0  0  0  0  0  0  0  0
   59.9460   30.0950   49.1150 C   0  0  0  0  0  0  0  0  0  0  0  0
   58.9530   31.0840   48.6980 N   0  0  0  0  0  0  0  0  0  0  0  0
   58.7570   31.3820   47.3090 C   0  0  0  0  0  0  0  0  0  0  0  0
   58.4220   30.3570   46.4110 C   0  0  0  0  0  0  0  0  0  0  0  0
   58.2910   29.0240   46.8540 C   0  0  0  0  0  0  0  0  0  0  0  0
   58.0180   27.9990   45.9510 C   0  0  0  0  0  0  0  0  0  0  0  0
   57.8840   28.2830   44.5970 C   0  0  0  0  0  0  0  0  0  0  0  0
   57.9910   29.5950   44.1390 C   0  0  0  0  0  0  0  0  0  0  0  0
   58.2230   30.6680   45.0380 C   0  0  0  0  0  0  0  0  0  0  0  0
   58.2750   31.9810   44.6090 N   0  0  0  0  0  0  0  0  0  0  0  0
   57.7860   32.3400   43.2590 C   0  0  0  0  0  0  0  0  0  0  0  0
   58.7650   32.9640   45.4500 C   0  0  0  0  0  0  0  0  0  0  0  0
   59.0840   34.2620   44.9760 C   0  0  0  0  0  0  0  0  0  0  0  0
   59.5490   35.2510   45.8440 C   0  0  0  0  0  0  0  0  0  0  0  0
   59.7290   34.9720   47.1930 C   0  0  0  0  0  0  0  0  0  0  0  0
   59.4640   33.6950   47.6820 C   0  0  0  0  0  0  0  0  0  0  0  0
   58.9890   32.6800   46.8240 C   0  0  0  0  0  0  0  0  0  0  0  0
   63.5914   34.7618   46.8897 H   0  0  0  0  0  0  0  0  0  0  0  0
   64.0439   33.4191   45.7857 H   0  0  0  0  0  0  0  0  0  0  0  0
   62.3637   34.0543   45.7857 H   0  0  0  0  0  0  0  0  0  0  0  0
   61.7713   32.6545   47.4539 H   0  0  0  0  0  0  0  0  0  0  0  0
   63.3964   31.8824   47.2938 H   0  0  0  0  0  0  0  0  0  0  0  0
   63.9110   32.4964   50.6571 H   0  0  0  0  0  0  0  0  0  0  0  0
   63.7221   31.3173   49.3152 H   0  0  0  0  0  0  0  0  0  0  0  0
   65.1047   32.4640   49.3152 H   0  0  0  0  0  0  0  0  0  0  0  0
   62.3827   34.6324   50.2351 H   0  0  0  0  0  0  0  0  0  0  0  0
   61.2850   34.0572   48.8864 H   0  0  0  0  0  0  0  0  0  0  0  0
   61.8029   31.7154   50.2192 H   0  0  0  0  0  0  0  0  0  0  0  0
   61.7671   32.9042   51.5720 H   0  0  0  0  0  0  0  0  0  0  0  0
   60.2674   34.1343   51.9740 H   0  0  0  0  0  0  0  0  0  0  0  0
   59.2587   34.6480   50.5647 H   0  0  0  0  0  0  0  0  0  0  0  0
   58.5243   32.9242   52.9386 H   0  0  0  0  0  0  0  0  0  0  0  0
   57.6133   34.2679   52.1497 H   0  0  0  0  0  0  0  0  0  0  0  0
   56.9247   31.7288   53.0455 H   0  0  0  0  0  0  0  0  0  0  0  0
   56.0630   31.0515   51.6089 H   0  0  0  0  0  0  0  0  0  0  0  0
   58.9858   30.5138   52.3545 H   0  0  0  0  0  0  0  0  0  0  0  0
   57.6062   29.3852   52.6102 H   0  0  0  0  0  0  0  0  0  0  0  0
   60.1217   29.7130   51.2318 H   0  0  0  0  0  0  0  0  0  0  0  0
   59.5906   28.2999   50.2602 H   0  0  0  0  0  0  0  0  0  0  0  0
   60.9044   30.6012   49.3026 H   0  0  0  0  0  0  0  0  0  0  0  0
   60.0615   29.3482   48.3157 H   0  0  0  0  0  0  0  0  0  0  0  0
   58.4310   31.6490   49.4060 H   0  0  0  0  0  0  0  0  0  0  0  0
   58.4056   28.7917   47.9231 H   0  0  0  0  0  0  0  0  0  0  0  0
   57.9085   26.9648   46.3095 H   0  0  0  0  0  0  0  0  0  0  0  0
   57.6925   27.4682   43.8833 H   0  0  0  0  0  0  0  0  0  0  0  0
   57.8940   29.8020   43.0630 H   0  0  0  0  0  0  0  0  0  0  0  0
   56.9023   32.9888   43.3496 H   0  0  0  0  0  0  0  0  0  0  0  0
   58.5776   32.8730   42.7120 H   0  0  0  0  0  0  0  0  0  0  0  0
   57.5146   31.4250   42.7120 H   0  0  0  0  0  0  0  0  0  0  0  0
   58.9630   34.4929   43.9073 H   0  0  0  0  0  0  0  0  0  0  0  0
   59.7741   36.2562   45.4582 H   0  0  0  0  0  0  0  0  0  0  0  0
   60.0809   35.7599   47.8752 H   0  0  0  0  0  0  0  0  0  0  0  0
   59.6265   33.4754   48.7475 H   0  0  0  0  0  0  0  0  0  0  0  0
  1  2  1  0
  2  3  1  0
  3  4  1  0
  3  5  1  0
  5  6  1  0
  6  7  1  0
  7  8  1  0
  8  9  1  0
  9 10  1  0
 10 11  1  0
 11 12  1  0
 12 13  1  0
 13 14  1  0
 14 15  1  0
 15 16  1  0
 16 17  1  0
 17 18  2  0
 18 19  1  0
 19 20  2  0
 20 21  1  0
 21 22  2  0
 22 23  1  0
 23 24  2  0
 24 25  1  0
 24 26  1  0
 26 27  2  0
 27 28  1  0
 28 29  2  0
 29 30  1  0
 30 31  2  0
 31 17  1  0
 23 18  1  0
 31 26  1  0
  1 32  1  0
  1 33  1  0
  1 34  1  0
  2 35  1  0
  2 36  1  0
  4 37  1  0
  4 38  1  0
  4 39  1  0
  5 40  1  0
  5 41  1  0
  6 42  1  0
  6 43  1  0
  8 44  1  0
  8 45  1  0
  9 46  1  0
  9 47  1  0
 11 48  1  0
 11 49  1  0
 12 50  1  0
 12 51  1  0
 14 52  1  0
 14 53  1  0
 15 54  1  0
 15 55  1  0
 16 56  1  0
 19 57  1  0
 20 58  1  0
 21 59  1  0
 22 60  1  0
 25 61  1  0
 25 62  1  0
 25 63  1  0
 27 64  1  0
 28 65  1  0
 29 66  1  0
 30 67  1  0
M  CHG  1  24   1
M  END
>  <UniqueID>  (16) 
16

>  <SMILES>  (16) 
CCN(C)CCOCCOCCOCCNc1c2ccccc2[n+](C)c2ccccc12

>  <Energy>  (16) 
98.332693548338

>  <Genealogy>  (16) 
CCN(C)CCOCCOCCOCCNc1c2ccccc2[n+](C)c2ccccc12 (3D coordinates assigned)
CCN(C)CCOCCOCCOCCNc1c2ccccc2[n+](C)c2ccccc12 (optimized conformer: 98.332693548338 kcal/mol)

>  <smiles>  (16) 
CCN(C)CCOCCOCCOCCNc1c2ccccc2[n+](C)c2ccccc12

>  <score_type>  (16) 
oracle

>  <origin>  (16) 
adg

>  <m_score__min__energy>  (16) 
-5.5499999999999998

>  <m_primary>  (16) 
energy

$$$$
16:0
     RDKit          3D

 45 45  0  0  0  0  0  0  0  0999 V2000
   60.9030   30.7100   47.0970 C   0  0  0  0  0  0  0  0  0  0  0  0
   59.1680   30.2300   46.8260 S   0  0  0  0  0  0  0  0  0  0  0  0
   59.4300   28.4730   47.2440 C   0  0  0  0  0  0  0  0  0  0  0  0
   59.5150   27.6440   45.9610 C   0  0  0  0  0  0  0  0  0  0  0  0
   59.8340   28.4900   44.7110 C   0  0  0  0  0  0  0  0  0  0  0  0
   58.7020   28.6360   43.7740 N   0  0  0  0  0  0  0  0  0  0  0  0
   57.3980   28.3600   44.4080 C   0  0  0  0  0  0  0  0  0  0  0  0
   56.3130   29.3630   43.9670 C   0  0  0  0  0  0  0  0  0  0  0  0
   56.7090   30.8430   44.1430 C   0  0  0  0  0  0  0  0  0  0  0  0
   57.9300   31.2130   43.3950 N   0  0  0  0  0  0  0  0  0  0  0  0
   58.1510   32.6660   43.3520 C   0  0  0  0  0  0  0  0  0  0  0  0
   57.3850   33.3640   44.4780 C   0  0  0  0  0  0  0  0  0  0  0  0
   58.3110   33.6950   45.6180 C   0  0  0  0  0  0  0  0  0  0  0  0
   59.5540   34.3010   45.3630 C   0  0  0  0  0  0  0  0  0  0  0  0
   60.4290   34.5830   46.4170 C   0  0  0  0  0  0  0  0  0  0  0  0
   60.0770   34.2480   47.7270 C   0  0  0  0  0  0  0  0  0  0  0  0
   58.8520   33.6270   47.9870 C   0  0  0  0  0  0  0  0  0  0  0  0
   57.9730   33.3450   46.9360 C   0  0  0  0  0  0  0  0  0  0  0  0
   61.1037   30.7655   48.1771 H   0  0  0  0  0  0  0  0  0  0  0  0
   61.5663   29.9616   46.6388 H   0  0  0  0  0  0  0  0  0  0  0  0
   61.0874   31.6929   46.6388 H   0  0  0  0  0  0  0  0  0  0  0  0
   60.3674   28.3678   47.8099 H   0  0  0  0  0  0  0  0  0  0  0  0
   58.5876   28.1145   47.8538 H   0  0  0  0  0  0  0  0  0  0  0  0
   60.3061   26.8897   46.0839 H   0  0  0  0  0  0  0  0  0  0  0  0
   58.5279   27.1853   45.8021 H   0  0  0  0  0  0  0  0  0  0  0  0
   60.1392   29.4935   45.0423 H   0  0  0  0  0  0  0  0  0  0  0  0
   60.6295   27.9609   44.1658 H   0  0  0  0  0  0  0  0  0  0  0  0
   58.8570   27.9500   42.9980 H   0  0  0  0  0  0  0  0  0  0  0  0
   58.7110   29.5920   43.3530 H   0  0  0  0  0  0  0  0  0  0  0  0
   57.0766   27.3453   44.1303 H   0  0  0  0  0  0  0  0  0  0  0  0
   57.5244   28.4556   45.4965 H   0  0  0  0  0  0  0  0  0  0  0  0
   56.0946   29.1888   42.9031 H   0  0  0  0  0  0  0  0  0  0  0  0
   55.4415   29.1904   44.6157 H   0  0  0  0  0  0  0  0  0  0  0  0
   55.8785   31.4715   43.7891 H   0  0  0  0  0  0  0  0  0  0  0  0
   56.9202   30.9998   45.2111 H   0  0  0  0  0  0  0  0  0  0  0  0
   57.8880   30.8500   42.4140 H   0  0  0  0  0  0  0  0  0  0  0  0
   59.2257   32.8711   43.4654 H   0  0  0  0  0  0  0  0  0  0  0  0
   57.7885   33.0501   42.3871 H   0  0  0  0  0  0  0  0  0  0  0  0
   56.9398   34.2927   44.0917 H   0  0  0  0  0  0  0  0  0  0  0  0
   56.5966   32.6897   44.8438 H   0  0  0  0  0  0  0  0  0  0  0  0
   59.8391   34.5541   44.3312 H   0  0  0  0  0  0  0  0  0  0  0  0
   61.3949   35.0688   46.2145 H   0  0  0  0  0  0  0  0  0  0  0  0
   60.7651   34.4733   48.5551 H   0  0  0  0  0  0  0  0  0  0  0  0
   58.5791   33.3599   49.0186 H   0  0  0  0  0  0  0  0  0  0  0  0
   57.0138   32.8475   47.1422 H   0  0  0  0  0  0  0  0  0  0  0  0
  1  2  1  0
  2  3  1  0
  3  4  1  0
  4  5  1  0
  5  6  1  0
  6  7  1  0
  7  8  1  0
  8  9  1  0
  9 10  1  0
 10 11  1  0
 11 12  1  0
 12 13  1  0
 13 14  2  0
 14 15  1  0
 15 16  2  0
 16 17  1  0
 17 18  2  0
 18 13  1  0
  1 19  1  0
  1 20  1  0
  1 21  1  0
  3 22  1  0
  3 23  1  0
  4 24  1  0
  4 25  1  0
  5 26  1  0
  5 27  1  0
  6 28  1  0
  6 29  1  0
  7 30  1  0
  7 31  1  0
  8 32  1  0
  8 33  1  0
  9 34  1  0
  9 35  1  0
 10 36  1  0
 11 37  1  0
 11 38  1  0
 12 39  1  0
 12 40  1  0
 14 41  1  0
 15 42  1  0
 16 43  1  0
 17 44  1  0
 18 45  1  0
M  CHG  1   6   1
M  END
>  <UniqueID>  (17) 
17

>  <SMILES>  (17) 
CSCCC[NH2+]CCCNCCc1ccccc1

>  <Energy>  (17) 
30.20891159274069

>  <Genealogy>  (17) 
CSCCC[NH2+]CCCNCCc1ccccc1 (protonated)
CSCCC[NH2+]CCCNCCc1ccccc1 (3D coordinates assigned)
CSCCC[NH2+]CCCNCCc1ccccc1 (optimized conformer: 30.20891159274069 kcal/mol)

>  <smiles>  (17) 
CSCCCNCCCNCCc1ccccc1

>  <score_type>  (17) 
oracle

>  <origin>  (17) 
adg

>  <m_score__min__energy>  (17) 
-4.6500000000000004

>  <m_primary>  (17) 
energy

$$$$
17:0
     RDKit          3D

 43 44  0  0  0  0  0  0  0  0999 V2000
   65.7830   33.0530   50.1690 C   0  0  0  0  0  0  0  0  0  0  0  0
   64.3390   33.1790   49.6820 C   0  0  0  0  0  0  0  0  0  0  0  0
   63.8950   31.9860   48.7990 C   0  0  1  0  0  0  0  0  0  0  0  0
   62.6320   31.3220   49.3750 C   0  0  0  0  0  0  0  0  0  0  0  0
   63.7640   32.3070   47.3530 N   0  0  0  0  0  0  0  0  0  0  0  0
   63.0820   33.5710   46.9980 C   0  0  0  0  0  0  0  0  0  0  0  0
   61.6170   33.5850   47.3660 C   0  0  0  0  0  0  0  0  0  0  0  0
   61.1570   34.4000   48.4120 C   0  0  0  0  0  0  0  0  0  0  0  0
   59.8020   34.4150   48.7490 C   0  0  0  0  0  0  0  0  0  0  0  0
   58.8940   33.6240   48.0430 C   0  0  0  0  0  0  0  0  0  0  0  0
   59.3340   32.8080   46.9870 C   0  0  0  0  0  0  0  0  0  0  0  0
   58.4050   31.9870   46.2550 N   0  0  0  0  0  0  0  0  0  0  0  0
   57.3970   32.6020   45.3850 C   0  0  0  0  0  0  0  0  0  0  0  0
   57.0270   31.6310   44.2600 C   0  0  0  0  0  0  0  0  0  0  0  0
   56.6590   30.3690   44.7850 O   0  0  0  0  0  0  0  0  0  0  0  0
   57.7730   29.7720   45.4220 C   0  0  0  0  0  0  0  0  0  0  0  0
   58.2030   30.5880   46.6440 C   0  0  0  0  0  0  0  0  0  0  0  0
   60.6960   32.8070   46.6440 C   0  0  0  0  0  0  0  0  0  0  0  0
   65.8002   33.0515   51.2689 H   0  0  0  0  0  0  0  0  0  0  0  0
   66.2157   32.1137   49.7942 H   0  0  0  0  0  0  0  0  0  0  0  0
   66.3719   33.9032   49.7942 H   0  0  0  0  0  0  0  0  0  0  0  0
   63.6763   33.2329   50.5583 H   0  0  0  0  0  0  0  0  0  0  0  0
   64.2764   34.0877   49.0653 H   0  0  0  0  0  0  0  0  0  0  0  0
   64.7158   31.2547   48.8361 H   0  0  0  0  0  0  0  0  0  0  0  0
   62.6747   31.3444   50.4739 H   0  0  0  0  0  0  0  0  0  0  0  0
   61.7413   31.8684   49.0314 H   0  0  0  0  0  0  0  0  0  0  0  0
   62.5772   30.2785   49.0314 H   0  0  0  0  0  0  0  0  0  0  0  0
   63.2980   31.5090   46.8610 H   0  0  0  0  0  0  0  0  0  0  0  0
   64.7270   32.3520   46.9460 H   0  0  0  0  0  0  0  0  0  0  0  0
   63.5820   34.3971   47.5249 H   0  0  0  0  0  0  0  0  0  0  0  0
   63.1437   33.6779   45.9049 H   0  0  0  0  0  0  0  0  0  0  0  0
   61.8668   35.0295   48.9686 H   0  0  0  0  0  0  0  0  0  0  0  0
   59.4490   35.0521   49.5733 H   0  0  0  0  0  0  0  0  0  0  0  0
   57.8282   33.6395   48.3148 H   0  0  0  0  0  0  0  0  0  0  0  0
   56.4991   32.8377   45.9750 H   0  0  0  0  0  0  0  0  0  0  0  0
   57.8052   33.5262   44.9500 H   0  0  0  0  0  0  0  0  0  0  0  0
   56.1819   32.0447   43.6901 H   0  0  0  0  0  0  0  0  0  0  0  0
   57.9020   31.4991   43.6066 H   0  0  0  0  0  0  0  0  0  0  0  0
   57.5022   28.7557   45.7442 H   0  0  0  0  0  0  0  0  0  0  0  0
   58.6099   29.7376   44.7090 H   0  0  0  0  0  0  0  0  0  0  0  0
   57.4208   30.5318   47.4154 H   0  0  0  0  0  0  0  0  0  0  0  0
   59.1436   30.1803   47.0429 H   0  0  0  0  0  0  0  0  0  0  0  0
   61.0452   32.1912   45.8020 H   0  0  0  0  0  0  0  0  0  0  0  0
  1  2  1  0
  2  3  1  0
  3  4  1  0
  3  5  1  0
  5  6  1  0
  6  7  1  0
  7  8  2  0
  8  9  1  0
  9 10  2  0
 10 11  1  0
 11 12  1  0
 12 13  1  0
 13 14  1  0
 14 15  1  0
 15 16  1  0
 16 17  1  0
 11 18  2  0
 18  7  1  0
 17 12  1  0
  1 19  1  0
  1 20  1  0
  1 21  1  0
  2 22  1  0
  2 23  1  0
  3 24  1  6
  4 25  1  0
  4 26  1  0
  4 27  1  0
  5 28  1  0
  5 29  1  0
  6 30  1  0
  6 31  1  0
  8 32  1  0
  9 33  1  0
 10 34  1  0
 13 35  1  0
 13 36  1  0
 14 37  1  0
 14 38  1  0
 16 39  1  0
 16 40  1  0
 17 41  1  0
 17 42  1  0
 18 43  1  0
M  CHG  1   5   1
M  END
>  <UniqueID>  (18) 
18

>  <SMILES>  (18) 
CC[C@@H](C)[NH2+]Cc1cccc(N2CCOCC2)c1

>  <Energy>  (18) 
46.95876001011573

>  <Genealogy>  (18) 
CCC(C)[NH2+]Cc1cccc(N2CCOCC2)c1 (protonated)
CC[C@@H](C)[NH2+]Cc1cccc(N2CCOCC2)c1 (chirality)
CC[C@@H](C)[NH2+]Cc1cccc(N2CCOCC2)c1 (3D coordinates assigned)
CC[C@@H](C)[NH2+]Cc1cccc(N2CCOCC2)c1 (nonaromatic ring conformer: 46.95876001011573 kcal/mol)

>  <smiles>  (18) 
CCC(C)NCc1cccc(N2CCOCC2)c1

>  <score_type>  (18) 
oracle

>  <origin>  (18) 
adg

>  <m_score__min__energy>  (18) 
-5.2300000000000004

>  <m_primary>  (18) 
energy

$$$$
18:0
     RDKit          3D

 53 55  0  0  0  0  0  0  0  0999 V2000
   59.3440   34.9740   45.2480 C   0  0  0  0  0  0  0  0  0  0  0  0
   58.5870   34.5450   46.5050 C   0  0  0  0  0  0  0  0  0  0  0  0
   57.6030   33.5770   46.1820 O   0  0  0  0  0  0  0  0  0  0  0  0
   57.5740   33.3130   44.7920 C   0  0  0  0  0  0  0  0  0  0  0  0
   57.7950   31.8230   44.5220 C   0  0  0  0  0  0  0  0  0  0  0  0
   57.4550   31.0780   45.6710 O   0  0  0  0  0  0  0  0  0  0  0  0
   58.4530   30.1160   45.9550 C   0  0  0  0  0  0  0  0  0  0  0  0
   58.9570   30.2910   47.3870 C   0  0  0  0  0  0  0  0  0  0  0  0
   58.8300   31.6860   47.8080 N   0  0  0  0  0  0  0  0  0  0  0  0
   59.6990   32.2540   48.8040 C   0  0  0  0  0  0  0  0  0  0  0  0
   59.2480   32.3950   50.1280 C   0  0  0  0  0  0  0  0  0  0  0  0
   60.0960   33.0090   51.0880 C   0  0  0  0  0  0  0  0  0  0  0  0
   61.3980   33.3300   50.7570 N   0  0  0  0  0  0  0  0  0  0  0  0
   62.3560   33.7370   51.8110 C   0  0  0  0  0  0  0  0  0  0  0  0
   61.8080   33.3030   49.4380 C   0  0  0  0  0  0  0  0  0  0  0  0
   63.0600   33.8340   49.0360 C   0  0  0  0  0  0  0  0  0  0  0  0
   63.4670   33.7870   47.7040 C   0  0  0  0  0  0  0  0  0  0  0  0
   62.6400   33.2220   46.7400 C   0  0  0  0  0  0  0  0  0  0  0  0
   61.3950   32.7160   47.1000 C   0  0  0  0  0  0  0  0  0  0  0  0
   60.9590   32.7540   48.4400 C   0  0  0  0  0  0  0  0  0  0  0  0
   59.5720   33.2740   52.4950 C   0  0  0  0  0  0  0  0  0  0  0  0
   58.0450   33.2840   52.5920 C   0  0  0  0  0  0  0  0  0  0  0  0
   57.4910   32.0240   51.9490 C   0  0  0  0  0  0  0  0  0  0  0  0
   57.8140   32.0090   50.4550 C   0  0  0  0  0  0  0  0  0  0  0  0
   60.2674   35.4973   45.5368 H   0  0  0  0  0  0  0  0  0  0  0  0
   59.5974   34.0853   44.6514 H   0  0  0  0  0  0  0  0  0  0  0  0
   58.7118   35.6481   44.6514 H   0  0  0  0  0  0  0  0  0  0  0  0
   59.2968   34.1138   47.2263 H   0  0  0  0  0  0  0  0  0  0  0  0
   58.0925   35.4250   46.9420 H   0  0  0  0  0  0  0  0  0  0  0  0
   56.5959   33.6125   44.3875 H   0  0  0  0  0  0  0  0  0  0  0  0
   58.3782   33.8846   44.3056 H   0  0  0  0  0  0  0  0  0  0  0  0
   57.1625   31.5059   43.6797 H   0  0  0  0  0  0  0  0  0  0  0  0
   58.8526   31.6497   44.2741 H   0  0  0  0  0  0  0  0  0  0  0  0
   58.0299   29.1073   45.8387 H   0  0  0  0  0  0  0  0  0  0  0  0
   59.2931   30.2515   45.2580 H   0  0  0  0  0  0  0  0  0  0  0  0
   58.3637   29.6544   48.0599 H   0  0  0  0  0  0  0  0  0  0  0  0
   60.0175   30.0020   47.4286 H   0  0  0  0  0  0  0  0  0  0  0  0
   58.2810   32.3340   47.2010 H   0  0  0  0  0  0  0  0  0  0  0  0
   61.9140   33.5492   52.8006 H   0  0  0  0  0  0  0  0  0  0  0  0
   63.2839   33.1554   51.7075 H   0  0  0  0  0  0  0  0  0  0  0  0
   62.5815   34.8086   51.7075 H   0  0  0  0  0  0  0  0  0  0  0  0
   63.7207   34.2904   49.7878 H   0  0  0  0  0  0  0  0  0  0  0  0
   64.4454   34.1981   47.4146 H   0  0  0  0  0  0  0  0  0  0  0  0
   62.9702   33.1749   45.6918 H   0  0  0  0  0  0  0  0  0  0  0  0
   60.7424   32.2806   46.3289 H   0  0  0  0  0  0  0  0  0  0  0  0
   59.9570   32.4889   53.1624 H   0  0  0  0  0  0  0  0  0  0  0  0
   59.9185   34.2775   52.7829 H   0  0  0  0  0  0  0  0  0  0  0  0
   57.7445   33.3191   53.6496 H   0  0  0  0  0  0  0  0  0  0  0  0
   57.6492   34.1677   52.0701 H   0  0  0  0  0  0  0  0  0  0  0  0
   57.9431   31.1427   52.4275 H   0  0  0  0  0  0  0  0  0  0  0  0
   56.3991   32.0036   52.0808 H   0  0  0  0  0  0  0  0  0  0  0  0
   57.6333   30.9937   50.0723 H   0  0  0  0  0  0  0  0  0  0  0  0
   57.1662   32.7617   49.9819 H   0  0  0  0  0  0  0  0  0  0  0  0
  1  2  1  0
  2  3  1  0
  3  4  1  0
  4  5  1  0
  5  6  1  0
  6  7  1  0
  7  8  1  0
  8  9  1  0
  9 10  1  0
 10 11  2  0
 11 12  1  0
 12 13  2  0
 13 14  1  0
 13 15  1  0
 15 16  2  0
 16 17  1  0
 17 18  2  0
 18 19  1  0
 19 20  2  0
 12 21  1  0
 21 22  1  0
 22 23  1  0
 23 24  1  0
 20 10  1  0
 24 11  1  0
 20 15  1  0
  1 25  1  0
  1 26  1  0
  1 27  1  0
  2 28  1  0
  2 29  1  0
  4 30  1  0
  4 31  1  0
  5 32  1  0
  5 33  1  0
  7 34  1  0
  7 35  1  0
  8 36  1  0
  8 37  1  0
  9 38  1  0
 14 39  1  0
 14 40  1  0
 14 41  1  0
 16 42  1  0
 17 43  1  0
 18 44  1  0
 19 45  1  0
 21 46  1  0
 21 47  1  0
 22 48  1  0
 22 49  1  0
 23 50  1  0
 23 51  1  0
 24 52  1  0
 24 53  1  0
M  CHG  1  13   1
M  END
>  <UniqueID>  (19) 
19

>  <SMILES>  (19) 
CCOCCOCCNc1c2c([n+](C)c3ccccc13)CCCC2

>  <Energy>  (19) 
73.18598821695164

>  <Genealogy>  (19) 
CCOCCOCCNc1c2c([n+](C)c3ccccc13)CCCC2 (3D coordinates assigned)
CCOCCOCCNc1c2c([n+](C)c3ccccc13)CCCC2 (nonaromatic ring conformer: 73.18598821695164 kcal/mol)

>  <smiles>  (19) 
CCOCCOCCNc1c2c([n+](C)c3ccccc13)CCCC2

>  <score_type>  (19) 
oracle

>  <origin>  (19) 
adg

>  <m_score__min__energy>  (19) 
-6.1799999999999997

>  <m_primary>  (19) 
energy

$$$$
19:0
     RDKit          3D

 42 44  0  0  0  0  0  0  0  0999 V2000
   58.0667   34.4417   48.6944 H   0  0  0  0  0  0  0  0  0  0  0  0
   58.8600   33.8860   48.1730 C   0  0  0  0  0  0  0  0  0  0  0  0
   60.0540   33.7830   48.7760 C   0  0  0  0  0  0  0  0  0  0  0  0
   60.2740   33.7780   50.2250 C   0  0  0  0  0  0  0  0  0  0  0  0
   59.3710   33.8240   51.1020 O   0  0  0  0  0  0  0  0  0  0  0  0
   61.6630   33.7320   50.5330 N   0  0  0  0  0  0  0  0  0  0  0  0
   62.1040   33.6980   51.4780 H   0  0  0  0  0  0  0  0  0  0  0  0
   62.3110   33.6650   49.2680 C   0  0  0  0  0  0  0  0  0  0  0  0
   63.6820   33.5180   49.0610 C   0  0  0  0  0  0  0  0  0  0  0  0
   64.3833   33.5196   49.9085 H   0  0  0  0  0  0  0  0  0  0  0  0
   64.1450   33.3680   47.7450 C   0  0  0  0  0  0  0  0  0  0  0  0
   65.2239   33.2741   47.5520 H   0  0  0  0  0  0  0  0  0  0  0  0
   63.2360   33.3370   46.6700 C   0  0  0  0  0  0  0  0  0  0  0  0
   63.6090   33.2052   45.6436 H   0  0  0  0  0  0  0  0  0  0  0  0
   61.8570   33.4730   46.8980 C   0  0  0  0  0  0  0  0  0  0  0  0
   61.1414   33.4213   46.0642 H   0  0  0  0  0  0  0  0  0  0  0  0
   61.4130   33.6760   48.2110 C   0  0  0  0  0  0  0  0  0  0  0  0
   58.5430   33.3040   46.8600 C   0  0  0  0  0  0  0  0  0  0  0  0
   58.7020   31.9300   46.6300 C   0  0  0  0  0  0  0  0  0  0  0  0
   59.0438   31.2743   47.4444 H   0  0  0  0  0  0  0  0  0  0  0  0
   58.4280   31.3900   45.3700 C   0  0  0  0  0  0  0  0  0  0  0  0
   58.5403   30.3084   45.2040 H   0  0  0  0  0  0  0  0  0  0  0  0
   58.0100   32.2180   44.3130 C   0  0  0  0  0  0  0  0  0  0  0  0
   57.7010   31.6600   43.0140 N   0  0  0  0  0  0  0  0  0  0  0  0
   58.1390   32.3430   41.7880 C   0  0  0  0  0  0  0  0  0  0  0  0
   59.0123   31.8165   41.3754 H   0  0  0  0  0  0  0  0  0  0  0  0
   58.3986   33.3820   42.0394 H   0  0  0  0  0  0  0  0  0  0  0  0
   57.0260   32.3590   40.7430 C   0  0  0  0  0  0  0  0  0  0  0  0
   56.0489   32.3730   41.2481 H   0  0  0  0  0  0  0  0  0  0  0  0
   57.1265   33.2558   40.1140 H   0  0  0  0  0  0  0  0  0  0  0  0
   57.1007   31.4597   40.1140 H   0  0  0  0  0  0  0  0  0  0  0  0
   56.9410   30.4040   42.8990 C   0  0  0  0  0  0  0  0  0  0  0  0
   56.4618   30.3623   41.9097 H   0  0  0  0  0  0  0  0  0  0  0  0
   57.6353   29.5603   43.0255 H   0  0  0  0  0  0  0  0  0  0  0  0
   55.8660   30.3170   43.9790 C   0  0  0  0  0  0  0  0  0  0  0  0
   56.3392   30.3553   44.9713 H   0  0  0  0  0  0  0  0  0  0  0  0
   55.1696   31.1617   43.8720 H   0  0  0  0  0  0  0  0  0  0  0  0
   55.3145   29.3713   43.8720 H   0  0  0  0  0  0  0  0  0  0  0  0
   57.8940   33.6020   44.5420 C   0  0  0  0  0  0  0  0  0  0  0  0
   57.5855   34.2661   43.7212 H   0  0  0  0  0  0  0  0  0  0  0  0
   58.1670   34.1400   45.8020 C   0  0  0  0  0  0  0  0  0  0  0  0
   58.0862   35.2251   45.9634 H   0  0  0  0  0  0  0  0  0  0  0  0
  1  2  1  0
  2  3  2  0
  3  4  1  0
  4  5  2  0
  4  6  1  0
  6  7  1  0
  6  8  1  0
  8  9  2  0
  9 10  1  0
  9 11  1  0
 11 12  1  0
 11 13  2  0
 13 14  1  0
 13 15  1  0
 15 16  1  0
 15 17  2  0
  2 18  1  0
 18 19  2  0
 19 20  1  0
 19 21  1  0
 21 22  1  0
 21 23  2  0
 23 24  1  0
 24 25  1  0
 25 26  1  0
 25 27  1  0
 25 28  1  0
 28 29  1  0
 28 30  1  0
 28 31  1  0
 24 32  1  0
 32 33  1  0
 32 34  1  0
 32 35  1  0
 35 36  1  0
 35 37  1  0
 35 38  1  0
 23 39  1  0
 39 40  1  0
 39 41  2  0
 41 42  1  0
 17  3  1  0
 41 18  1  0
 17  8  1  0
M  END
>  <UniqueID>  (20) 
20

>  <SMILES>  (20) 
CCN(CC)c1ccc(/C=C2/C(=O)Nc3ccccc32)cc1

>  <Energy>  (20) 
79.33766546141779

>  <Genealogy>  (20) 
CCN(CC)c1ccc(/C=C2/C(=O)Nc3ccccc32)cc1 (cis-trans isomerization)
CCN(CC)c1ccc(/C=C2/C(=O)Nc3ccccc32)cc1 (3D coordinates assigned)
CCN(CC)c1ccc(/C=C2/C(=O)Nc3ccccc32)cc1 (nonaromatic ring conformer: 79.33766546141779 kcal/mol)

>  <smiles>  (20) 
CCN(CC)c1ccc(C=C2C(=O)Nc3ccccc32)cc1

>  <score_type>  (20) 
oracle

>  <origin>  (20) 
adg

>  <m_score__min__energy>  (20) 
-7.8200000000000003

>  <m_primary>  (20) 
energy

$$$$
20:0
     RDKit          3D

 57 59  0  0  0  0  0  0  0  0999 V2000
   63.3560   33.8440   46.4610 C   0  0  0  0  0  0  0  0  0  0  0  0
   63.3600   32.4660   47.1170 C   0  0  0  0  0  0  0  0  0  0  0  0
   62.9700   32.5690   48.5430 N   0  0  0  0  0  0  0  0  0  0  0  0
   63.8270   31.7070   49.3890 C   0  0  0  0  0  0  0  0  0  0  0  0
   65.0940   32.4550   49.7920 C   0  0  0  0  0  0  0  0  0  0  0  0
   63.0050   33.9770   49.0030 C   0  0  0  0  0  0  0  0  0  0  0  0
   61.9330   34.2190   50.0680 C   0  0  0  0  0  0  0  0  0  0  0  0
   60.6630   34.2130   49.4480 O   0  0  0  0  0  0  0  0  0  0  0  0
   59.6550   33.8370   50.3680 C   0  0  0  0  0  0  0  0  0  0  0  0
   59.7580   32.3440   50.7150 C   0  0  0  0  0  0  0  0  0  0  0  0
   59.5580   31.4330   49.4920 C   0  0  0  0  0  0  0  0  0  0  0  0
   60.4600   31.7880   48.3840 N   0  0  0  0  0  0  0  0  0  0  0  0
   59.7970   31.6020   47.1090 C   0  0  0  0  0  0  0  0  0  0  0  0
   59.5830   30.3200   46.5350 C   0  0  0  0  0  0  0  0  0  0  0  0
   60.0630   29.1460   47.1570 C   0  0  0  0  0  0  0  0  0  0  0  0
   59.8730   27.8970   46.5720 C   0  0  0  0  0  0  0  0  0  0  0  0
   59.2180   27.7880   45.3520 C   0  0  0  0  0  0  0  0  0  0  0  0
   58.7380   28.9260   44.7080 C   0  0  0  0  0  0  0  0  0  0  0  0
   58.8880   30.2130   45.2820 C   0  0  0  0  0  0  0  0  0  0  0  0
   58.4020   31.3470   44.6470 N   0  0  0  0  0  0  0  0  0  0  0  0
   57.5590   31.2410   43.4390 C   0  0  0  0  0  0  0  0  0  0  0  0
   58.7320   32.5820   45.1490 C   0  0  0  0  0  0  0  0  0  0  0  0
   58.4720   33.8310   44.5400 C   0  0  0  0  0  0  0  0  0  0  0  0
   58.9170   34.9140   45.2900 C   0  0  0  0  0  0  0  0  0  0  0  0
   59.6450   34.3400   46.6940 S   0  0  0  0  0  0  0  0  0  0  0  0
   59.4000   32.7080   46.3570 C   0  0  0  0  0  0  0  0  0  0  0  0
   63.3537   34.6208   47.2398 H   0  0  0  0  0  0  0  0  0  0  0  0
   64.2538   33.9548   45.8352 H   0  0  0  0  0  0  0  0  0  0  0  0
   62.4575   33.9496   45.8352 H   0  0  0  0  0  0  0  0  0  0  0  0
   62.6464   31.8134   46.5927 H   0  0  0  0  0  0  0  0  0  0  0  0
   64.3745   32.0454   47.0551 H   0  0  0  0  0  0  0  0  0  0  0  0
   63.2718   31.4193   50.2940 H   0  0  0  0  0  0  0  0  0  0  0  0
   64.1070   30.8093   48.8182 H   0  0  0  0  0  0  0  0  0  0  0  0
   65.1626   32.4955   50.8891 H   0  0  0  0  0  0  0  0  0  0  0  0
   65.9731   31.9310   49.3887 H   0  0  0  0  0  0  0  0  0  0  0  0
   65.0599   33.4778   49.3887 H   0  0  0  0  0  0  0  0  0  0  0  0
   63.9952   34.1939   49.4301 H   0  0  0  0  0  0  0  0  0  0  0  0
   62.8097   34.6369   48.1449 H   0  0  0  0  0  0  0  0  0  0  0  0
   61.9781   33.4224   50.8252 H   0  0  0  0  0  0  0  0  0  0  0  0
   62.1050   35.1895   50.5565 H   0  0  0  0  0  0  0  0  0  0  0  0
   59.7683   34.4291   51.2881 H   0  0  0  0  0  0  0  0  0  0  0  0
   58.6730   34.0239   49.9089 H   0  0  0  0  0  0  0  0  0  0  0  0
   60.7542   32.1496   51.1390 H   0  0  0  0  0  0  0  0  0  0  0  0
   58.9571   32.1148   51.4334 H   0  0  0  0  0  0  0  0  0  0  0  0
   59.7537   30.3921   49.7892 H   0  0  0  0  0  0  0  0  0  0  0  0
   58.5234   31.5598   49.1406 H   0  0  0  0  0  0  0  0  0  0  0  0
   60.8100   32.7680   48.4760 H   0  0  0  0  0  0  0  0  0  0  0  0
   61.3120   31.1820   48.4270 H   0  0  0  0  0  0  0  0  0  0  0  0
   60.5945   29.2197   48.1173 H   0  0  0  0  0  0  0  0  0  0  0  0
   60.2430   26.9930   47.0779 H   0  0  0  0  0  0  0  0  0  0  0  0
   59.0777   26.7985   44.8923 H   0  0  0  0  0  0  0  0  0  0  0  0
   58.2332   28.8239   43.7360 H   0  0  0  0  0  0  0  0  0  0  0  0
   56.5081   31.1089   43.7357 H   0  0  0  0  0  0  0  0  0  0  0  0
   57.6585   32.1587   42.8408 H   0  0  0  0  0  0  0  0  0  0  0  0
   57.8826   30.3765   42.8408 H   0  0  0  0  0  0  0  0  0  0  0  0
   57.9672   33.9358   43.5683 H   0  0  0  0  0  0  0  0  0  0  0  0
   58.8105   35.9727   45.0111 H   0  0  0  0  0  0  0  0  0  0  0  0
  1  2  1  0
  2  3  1  0
  3  4  1  0
  4  5  1  0
  3  6  1  0
  6  7  1  0
  7  8  1  0
  8  9  1  0
  9 10  1  0
 10 11  1  0
 11 12  1  0
 12 13  1  0
 13 14  2  0
 14 15  1  0
 15 16  2  0
 16 17  1  0
 17 18  2  0
 18 19  1  0
 19 20  2  0
 20 21  1  0
 20 22  1  0
 22 23  1  0
 23 24  2  0
 24 25  1  0
 25 26  1  0
 26 13  1  0
 19 14  1  0
 26 22  2  0
  1 27  1  0
  1 28  1  0
  1 29  1  0
  2 30  1  0
  2 31  1  0
  4 32  1  0
  4 33  1  0
  5 34  1  0
  5 35  1  0
  5 36  1  0
  6 37  1  0
  6 38  1  0
  7 39  1  0
  7 40  1  0
  9 41  1  0
  9 42  1  0
 10 43  1  0
 10 44  1  0
 11 45  1  0
 11 46  1  0
 12 47  1  0
 12 48  1  0
 15 49  1  0
 16 50  1  0
 17 51  1  0
 18 52  1  0
 21 53  1  0
 21 54  1  0
 21 55  1  0
 23 56  1  0
 24 57  1  0
M  CHG  2  12   1  20   1
M  END
>  <UniqueID>  (21) 
21

>  <SMILES>  (21) 
CCN(CC)CCOCCC[NH2+]c1c2ccccc2[n+](C)c2ccsc12

>  <Energy>  (21) 
100.98147022865096

>  <Genealogy>  (21) 
CCN(CC)CCOCCC[NH2+]c1c2ccccc2[n+](C)c2ccsc12 (protonated)
CCN(CC)CCOCCC[NH2+]c1c2ccccc2[n+](C)c2ccsc12 (3D coordinates assigned)
CCN(CC)CCOCCC[NH2+]c1c2ccccc2[n+](C)c2ccsc12 (optimized conformer: 100.98147022865096 kcal/mol)

>  <smiles>  (21) 
CCN(CC)CCOCCCNc1c2ccccc2[n+](C)c2ccsc12

>  <score_type>  (21) 
oracle

>  <origin>  (21) 
adg

>  <m_score__min__energy>  (21) 
-3.46

>  <m_primary>  (21) 
energy

$$$$
