0:0
     RDKit          3D

 39 41  0  0  0  0  0  0  0  0999 V2000
   57.1310   29.4690   52.5610 C   0  0  0  0  0  0  0  0  0  0  0  0
   57.4980   29.7490   51.2160 O   0  0  0  0  0  0  0  0  0  0  0  0
   58.1200   30.9320   50.7850 C   0  0  0  0  0  0  0  0  0  0  0  0
   58.2250   32.0610   51.6210 C   0  0  0  0  0  0  0  0  0  0  0  0
   58.9010   33.2030   51.1850 C   0  0  0  0  0  0  0  0  0  0  0  0
   59.4840   33.2320   49.9180 C   0  0  0  0  0  0  0  0  0  0  0  0
   59.3790   32.1240   49.0760 C   0  0  0  0  0  0  0  0  0  0  0  0
   58.6810   30.9800   49.4890 C   0  0  0  0  0  0  0  0  0  0  0  0
   58.6070   29.8510   48.6030 N   0  0  0  0  0  0  0  0  0  0  0  0
   59.6940   28.9350   48.4150 C   0  0  0  0  0  0  0  0  0  0  0  0
   60.5940   28.8300   49.2940 O   0  0  0  0  0  0  0  0  0  0  0  0
   59.7560   28.0740   47.1880 C   0  0  0  0  0  0  0  0  0  0  0  0
   58.4740   28.1150   46.4630 N   0  0  0  0  0  0  0  0  0  0  0  0
   57.7240   26.8490   46.3660 C   0  0  0  0  0  0  0  0  0  0  0  0
   56.2970   27.0480   45.9490 C   0  0  0  0  0  0  0  0  0  0  0  0
   55.4490   26.1420   46.1620 O   0  0  0  0  0  0  0  0  0  0  0  0
   55.9070   28.2210   45.2430 N   0  0  0  0  0  0  0  0  0  0  0  0
   56.8100   29.3100   45.0720 C   0  0  0  0  0  0  0  0  0  0  0  0
   56.4110   30.4150   44.3130 C   0  0  0  0  0  0  0  0  0  0  0  0
   57.2640   31.5080   44.1610 C   0  0  0  0  0  0  0  0  0  0  0  0
   58.5130   31.5060   44.7790 C   0  0  0  0  0  0  0  0  0  0  0  0
   58.9170   30.4090   45.5460 C   0  0  0  0  0  0  0  0  0  0  0  0
   58.0760   29.2830   45.6900 C   0  0  0  0  0  0  0  0  0  0  0  0
   57.8162   29.9918   53.2445 H   0  0  0  0  0  0  0  0  0  0  0  0
   56.1017   29.8134   52.7395 H   0  0  0  0  0  0  0  0  0  0  0  0
   57.1912   28.3852   52.7395 H   0  0  0  0  0  0  0  0  0  0  0  0
   57.7719   32.0432   52.6232 H   0  0  0  0  0  0  0  0  0  0  0  0
   58.9738   34.0818   51.8425 H   0  0  0  0  0  0  0  0  0  0  0  0
   60.0265   34.1282   49.5826 H   0  0  0  0  0  0  0  0  0  0  0  0
   59.8473   32.1482   48.0809 H   0  0  0  0  0  0  0  0  0  0  0  0
   57.6960   29.6430   48.1370 H   0  0  0  0  0  0  0  0  0  0  0  0
   60.5565   28.4407   46.5287 H   0  0  0  0  0  0  0  0  0  0  0  0
   59.9598   27.0365   47.4915 H   0  0  0  0  0  0  0  0  0  0  0  0
   58.2193   26.2031   45.6261 H   0  0  0  0  0  0  0  0  0  0  0  0
   57.7155   26.3922   47.3666 H   0  0  0  0  0  0  0  0  0  0  0  0
   55.4207   30.4221   43.8341 H   0  0  0  0  0  0  0  0  0  0  0  0
   56.9512   32.3705   43.5541 H   0  0  0  0  0  0  0  0  0  0  0  0
   59.1833   32.3704   44.6630 H   0  0  0  0  0  0  0  0  0  0  0  0
   59.8988   30.4228   46.0419 H   0  0  0  0  0  0  0  0  0  0  0  0
  1  2  1  0
  2  3  1  0
  3  4  2  0
  4  5  1  0
  5  6  2  0
  6  7  1  0
  7  8  2  0
  8  9  1  0
  9 10  1  0
 10 11  2  0
 10 12  1  0
 12 13  1  0
 13 14  1  0
 14 15  1  0
 15 16  2  0
 15 17  1  0
 17 18  1  0
 18 19  2  0
 19 20  1  0
 20 21  2  0
 21 22  1  0
 22 23  2  0
  8  3  1  0
 23 13  1  0
 23 18  1  0
  1 24  1  0
  1 25  1  0
  1 26  1  0
  4 27  1  0
  5 28  1  0
  6 29  1  0
  7 30  1  0
  9 31  1  0
 12 32  1  0
 12 33  1  0
 14 34  1  0
 14 35  1  0
 19 36  1  0
 20 37  1  0
 21 38  1  0
 22 39  1  0
M  CHG  1  17  -1
M  END
>  <UniqueID>  (1) 
1

>  <SMILES>  (1) 
COc1ccccc1NC(=O)CN1CC(=O)[N-]c2ccccc21

>  <Energy>  (1) 
45.46550389726652

>  <Genealogy>  (1) 
COc1ccccc1NC(=O)CN1CC(=O)[N-]c2ccccc21 (protonated)
COc1ccccc1NC(=O)CN1CC(=O)[N-]c2ccccc21 (3D coordinates assigned)
COc1ccccc1NC(=O)CN1CC(=O)[N-]c2ccccc21 (nonaromatic ring conformer: 45.46550389726652 kcal/mol)

>  <smiles>  (1) 
COc1ccccc1NC(=O)CN1CC(=O)Nc2ccccc21

>  <score_type>  (1) 
oracle

>  <origin>  (1) 
adg

>  <m_score__min__energy>  (1) 
-9.4900000000000002

>  <m_primary>  (1) 
energy

$$$$
1:0
     RDKit          3D

 44 44  0  0  0  0  0  0  0  0999 V2000
   59.7680   33.6610   49.6690 C   0  0  0  0  0  0  0  0  0  0  0  0
   60.1460   34.6060   48.5350 C   0  0  0  0  0  0  0  0  0  0  0  0
   59.5560   34.1360   47.2330 C   0  0  0  0  0  0  0  0  0  0  0  0
   59.6190   34.9500   46.0910 C   0  0  0  0  0  0  0  0  0  0  0  0
   59.1170   34.4920   44.8690 C   0  0  0  0  0  0  0  0  0  0  0  0
   58.5560   33.2090   44.7710 C   0  0  0  0  0  0  0  0  0  0  0  0
   58.0800   32.6830   43.4440 C   0  0  0  0  0  0  0  0  0  0  0  0
   57.8710   31.2270   43.5020 N   0  0  0  0  0  0  0  0  0  0  0  0
   56.5500   30.8590   44.0430 C   0  0  0  0  0  0  0  0  0  0  0  0
   56.2720   29.3540   43.8750 C   0  0  0  0  0  0  0  0  0  0  0  0
   57.3790   28.6340   43.2110 N   0  0  0  0  0  0  0  0  0  0  0  0
   58.3740   28.1390   44.1810 C   0  0  0  0  0  0  0  0  0  0  0  0
   57.9300   28.3690   45.6440 C   0  0  0  0  0  0  0  0  0  0  0  0
   57.5200   27.0580   46.3340 C   0  0  0  0  0  0  0  0  0  0  0  0
   59.0590   29.0430   46.4350 C   0  0  0  0  0  0  0  0  0  0  0  0
   58.4960   32.3950   45.9120 C   0  0  0  0  0  0  0  0  0  0  0  0
   58.9990   32.8510   47.1330 C   0  0  0  0  0  0  0  0  0  0  0  0
   59.9637   34.1502   50.6346 H   0  0  0  0  0  0  0  0  0  0  0  0
   58.6998   33.4089   49.5955 H   0  0  0  0  0  0  0  0  0  0  0  0
   60.3676   32.7417   49.5955 H   0  0  0  0  0  0  0  0  0  0  0  0
   59.7651   35.6128   48.7616 H   0  0  0  0  0  0  0  0  0  0  0  0
   61.2418   34.6252   48.4406 H   0  0  0  0  0  0  0  0  0  0  0  0
   60.0655   35.9531   46.1578 H   0  0  0  0  0  0  0  0  0  0  0  0
   59.1619   35.1396   43.9810 H   0  0  0  0  0  0  0  0  0  0  0  0
   57.1309   33.1732   43.1815 H   0  0  0  0  0  0  0  0  0  0  0  0
   58.8460   32.8987   42.6845 H   0  0  0  0  0  0  0  0  0  0  0  0
   58.6020   30.8370   44.1420 H   0  0  0  0  0  0  0  0  0  0  0  0
   56.5190   31.1111   45.1133 H   0  0  0  0  0  0  0  0  0  0  0  0
   55.7815   31.4165   43.4875 H   0  0  0  0  0  0  0  0  0  0  0  0
   56.1140   28.9132   44.8704 H   0  0  0  0  0  0  0  0  0  0  0  0
   55.3825   29.2525   43.2358 H   0  0  0  0  0  0  0  0  0  0  0  0
   57.0130   27.8400   42.6340 H   0  0  0  0  0  0  0  0  0  0  0  0
   57.8540   29.3080   42.5660 H   0  0  0  0  0  0  0  0  0  0  0  0
   58.5188   27.0605   44.0204 H   0  0  0  0  0  0  0  0  0  0  0  0
   59.3081   28.6973   44.0204 H   0  0  0  0  0  0  0  0  0  0  0  0
   57.0475   29.0253   45.6229 H   0  0  0  0  0  0  0  0  0  0  0  0
   57.5612   27.1896   47.4253 H   0  0  0  0  0  0  0  0  0  0  0  0
   56.4955   26.7912   46.0352 H   0  0  0  0  0  0  0  0  0  0  0  0
   58.2099   26.2551   46.0352 H   0  0  0  0  0  0  0  0  0  0  0  0
   58.8697   28.9300   47.5127 H   0  0  0  0  0  0  0  0  0  0  0  0
   60.0187   28.5699   46.1797 H   0  0  0  0  0  0  0  0  0  0  0  0
   59.0979   30.1122   46.1797 H   0  0  0  0  0  0  0  0  0  0  0  0
   58.0502   31.3916   45.8449 H   0  0  0  0  0  0  0  0  0  0  0  0
   58.9585   32.2009   48.0194 H   0  0  0  0  0  0  0  0  0  0  0  0
  1  2  1  0
  2  3  1  0
  3  4  2  0
  4  5  1  0
  5  6  2  0
  6  7  1  0
  7  8  1  0
  8  9  1  0
  9 10  1  0
 10 11  1  0
 11 12  1  0
 12 13  1  0
 13 14  1  0
 13 15  1  0
  6 16  1  0
 16 17  2  0
 17  3  1  0
  1 18  1  0
  1 19  1  0
  1 20  1  0
  2 21  1  0
  2 22  1  0
  4 23  1  0
  5 24  1  0
  7 25  1  0
  7 26  1  0
  8 27  1  0
  9 28  1  0
  9 29  1  0
 10 30  1  0
 10 31  1  0
 11 32  1  0
 11 33  1  0
 12 34  1  0
 12 35  1  0
 13 36  1  0
 14 37  1  0
 14 38  1  0
 14 39  1  0
 15 40  1  0
 15 41  1  0
 15 42  1  0
 16 43  1  0
 17 44  1  0
M  CHG  1  11   1
M  END
>  <UniqueID>  (2) 
2

>  <SMILES>  (2) 
CCc1ccc(CNCC[NH2+]CC(C)C)cc1

>  <Energy>  (2) 
31.366254054488735

>  <Genealogy>  (2) 
CCc1ccc(CNCC[NH2+]CC(C)C)cc1 (protonated)
CCc1ccc(CNCC[NH2+]CC(C)C)cc1 (3D coordinates assigned)
CCc1ccc(CNCC[NH2+]CC(C)C)cc1 (optimized conformer: 31.366254054488735 kcal/mol)

>  <smiles>  (2) 
CCc1ccc(CNCCNCC(C)C)cc1

>  <score_type>  (2) 
oracle

>  <origin>  (2) 
adg

>  <m_score__min__energy>  (2) 
-5.2699999999999996

>  <m_primary>  (2) 
energy

$$$$
2:0
     RDKit          3D

 40 42  0  0  0  0  0  0  0  0999 V2000
   64.9940   33.0930   49.5220 C   0  0  0  0  0  0  0  0  0  0  0  0
   64.1990   33.6460   48.4780 O   0  0  0  0  0  0  0  0  0  0  0  0
   63.0680   33.0230   47.9290 C   0  0  0  0  0  0  0  0  0  0  0  0
   62.9360   31.6270   47.8600 C   0  0  0  0  0  0  0  0  0  0  0  0
   61.7900   31.0510   47.3110 C   0  0  0  0  0  0  0  0  0  0  0  0
   60.7410   31.8600   46.8280 C   0  0  0  0  0  0  0  0  0  0  0  0
   60.8870   33.2640   46.8610 C   0  0  0  0  0  0  0  0  0  0  0  0
   62.0440   33.8300   47.4270 C   0  0  0  0  0  0  0  0  0  0  0  0
   59.8460   34.0900   46.2970 N   0  0  0  0  0  0  0  0  0  0  0  0
   59.6450   35.4720   46.7490 C   0  0  0  0  0  0  0  0  0  0  0  0
   59.0150   33.5380   45.2190 C   0  0  0  0  0  0  0  0  0  0  0  0
   58.6220   32.1140   45.5200 C   0  0  0  0  0  0  0  0  0  0  0  0
   57.4390   31.5960   44.9750 C   0  0  0  0  0  0  0  0  0  0  0  0
   57.0630   30.2630   45.2140 C   0  0  0  0  0  0  0  0  0  0  0  0
   55.8810   29.7170   44.6880 O   0  0  0  0  0  0  0  0  0  0  0  0
   55.5250   29.7350   43.3100 C   0  0  0  0  0  0  0  0  0  0  0  0
   57.8800   29.4450   46.0020 C   0  0  0  0  0  0  0  0  0  0  0  0
   57.4660   28.1240   46.2370 O   0  0  0  0  0  0  0  0  0  0  0  0
   57.7110   27.0280   45.3590 C   0  0  0  0  0  0  0  0  0  0  0  0
   59.0790   29.9580   46.5340 C   0  0  0  0  0  0  0  0  0  0  0  0
   59.4760   31.2850   46.2750 C   0  0  0  0  0  0  0  0  0  0  0  0
   64.5745   33.3848   50.4961 H   0  0  0  0  0  0  0  0  0  0  0  0
   64.9979   31.9962   49.4382 H   0  0  0  0  0  0  0  0  0  0  0  0
   66.0237   33.4708   49.4382 H   0  0  0  0  0  0  0  0  0  0  0  0
   63.7419   30.9828   48.2415 H   0  0  0  0  0  0  0  0  0  0  0  0
   61.7040   29.9558   47.2544 H   0  0  0  0  0  0  0  0  0  0  0  0
   62.1439   34.9244   47.4750 H   0  0  0  0  0  0  0  0  0  0  0  0
   59.6408   35.5012   47.8486 H   0  0  0  0  0  0  0  0  0  0  0  0
   60.4606   36.1045   46.3686 H   0  0  0  0  0  0  0  0  0  0  0  0
   58.6830   35.8460   46.3686 H   0  0  0  0  0  0  0  0  0  0  0  0
   58.1059   34.1487   45.1160 H   0  0  0  0  0  0  0  0  0  0  0  0
   59.5950   33.5531   44.2845 H   0  0  0  0  0  0  0  0  0  0  0  0
   56.7984   32.2393   44.3539 H   0  0  0  0  0  0  0  0  0  0  0  0
   54.4305   29.7903   43.2147 H   0  0  0  0  0  0  0  0  0  0  0  0
   55.9800   30.6113   42.8252 H   0  0  0  0  0  0  0  0  0  0  0  0
   55.8893   28.8173   42.8252 H   0  0  0  0  0  0  0  0  0  0  0  0
   57.9134   26.1227   45.9502 H   0  0  0  0  0  0  0  0  0  0  0  0
   56.8278   26.8618   44.7246 H   0  0  0  0  0  0  0  0  0  0  0  0
   58.5809   27.2537   44.7246 H   0  0  0  0  0  0  0  0  0  0  0  0
   59.7141   29.3141   47.1601 H   0  0  0  0  0  0  0  0  0  0  0  0
  1  2  1  0
  2  3  1  0
  3  4  2  0
  4  5  1  0
  5  6  2  0
  6  7  1  0
  7  8  2  0
  7  9  1  0
  9 10  1  0
  9 11  1  0
 11 12  1  0
 12 13  2  0
 13 14  1  0
 14 15  1  0
 15 16  1  0
 14 17  2  0
 17 18  1  0
 18 19  1  0
 17 20  1  0
 20 21  2  0
  8  3  1  0
 21 12  1  0
 21  6  1  0
  1 22  1  0
  1 23  1  0
  1 24  1  0
  4 25  1  0
  5 26  1  0
  8 27  1  0
 10 28  1  0
 10 29  1  0
 10 30  1  0
 11 31  1  0
 11 32  1  0
 13 33  1  0
 16 34  1  0
 16 35  1  0
 16 36  1  0
 19 37  1  0
 19 38  1  0
 19 39  1  0
 20 40  1  0
M  END
>  <UniqueID>  (3) 
3

>  <SMILES>  (3) 
COc1ccc2c(c1)N(C)Cc1cc(OC)c(OC)cc1-2

>  <Energy>  (3) 
48.26963437650625

>  <Genealogy>  (3) 
COc1ccc2c(c1)N(C)Cc1cc(OC)c(OC)cc1-2 (3D coordinates assigned)
COc1ccc2c(c1)N(C)Cc1cc(OC)c(OC)cc1-2 (nonaromatic ring conformer: 48.26963437650625 kcal/mol)

>  <smiles>  (3) 
COc1ccc2c(c1)N(C)Cc1cc(OC)c(OC)cc1-2

>  <score_type>  (3) 
oracle

>  <origin>  (3) 
adg

>  <m_score__min__energy>  (3) 
-6.3200000000000003

>  <m_primary>  (3) 
energy

$$$$
3:0
     RDKit          3D

 36 38  0  0  0  0  0  0  0  0999 V2000
   58.1380   26.7840   42.6330 C   0  0  0  0  0  0  0  0  0  0  0  0
   57.7660   26.2400   43.9770 C   0  0  0  0  0  0  0  0  0  0  0  0
   57.4300   24.9460   44.1650 N   0  0  0  0  0  0  0  0  0  0  0  0
   57.2010   24.8480   45.4900 C   0  0  0  0  0  0  0  0  0  0  0  0
   57.3990   26.0740   46.0840 C   0  0  0  0  0  0  0  0  0  0  0  0
   57.7420   26.9540   45.1280 N   0  0  0  0  0  0  0  0  0  0  0  0
   58.0350   28.3480   45.3330 C   0  0  0  0  0  0  0  0  0  0  0  0
   59.2580   28.7400   45.8920 C   0  0  0  0  0  0  0  0  0  0  0  0
   59.5350   30.0920   46.0990 C   0  0  0  0  0  0  0  0  0  0  0  0
   58.5740   31.0600   45.7560 C   0  0  0  0  0  0  0  0  0  0  0  0
   58.8210   32.4700   45.9550 N   0  0  0  0  0  0  0  0  0  0  0  0
   58.2490   33.4490   45.0180 C   0  0  0  0  0  0  0  0  0  0  0  0
   59.1940   34.6440   44.8590 C   0  0  0  0  0  0  0  0  0  0  0  0
   59.5550   35.3050   46.2060 C   0  0  0  0  0  0  0  0  0  0  0  0
   59.2610   34.4210   47.4280 C   0  0  0  0  0  0  0  0  0  0  0  0
   59.5460   32.9420   47.1480 C   0  0  0  0  0  0  0  0  0  0  0  0
   57.3860   30.6500   45.2270 N   0  0  0  0  0  0  0  0  0  0  0  0
   57.0970   29.3390   45.0130 C   0  0  0  0  0  0  0  0  0  0  0  0
   58.7547   27.6859   42.7604 H   0  0  0  0  0  0  0  0  0  0  0  0
   58.7077   26.0260   42.0755 H   0  0  0  0  0  0  0  0  0  0  0  0
   57.2249   27.0399   42.0755 H   0  0  0  0  0  0  0  0  0  0  0  0
   56.9018   23.9293   46.0158 H   0  0  0  0  0  0  0  0  0  0  0  0
   57.2945   26.2952   47.1564 H   0  0  0  0  0  0  0  0  0  0  0  0
   60.0029   27.9794   46.1688 H   0  0  0  0  0  0  0  0  0  0  0  0
   60.5001   30.3991   46.5283 H   0  0  0  0  0  0  0  0  0  0  0  0
   58.1002   32.9707   44.0387 H   0  0  0  0  0  0  0  0  0  0  0  0
   57.2856   33.8035   45.4132 H   0  0  0  0  0  0  0  0  0  0  0  0
   60.1207   34.2976   44.3781 H   0  0  0  0  0  0  0  0  0  0  0  0
   58.6746   35.3978   44.2491 H   0  0  0  0  0  0  0  0  0  0  0  0
   60.6292   35.5418   46.1994 H   0  0  0  0  0  0  0  0  0  0  0  0
   58.9270   36.2031   46.3012 H   0  0  0  0  0  0  0  0  0  0  0  0
   59.8922   34.7519   48.2659 H   0  0  0  0  0  0  0  0  0  0  0  0
   58.1929   34.5212   47.6709 H   0  0  0  0  0  0  0  0  0  0  0  0
   60.6260   32.8104   46.9856 H   0  0  0  0  0  0  0  0  0  0  0  0
   59.2064   32.3546   48.0138 H   0  0  0  0  0  0  0  0  0  0  0  0
   56.1234   29.0549   44.5871 H   0  0  0  0  0  0  0  0  0  0  0  0
  1  2  1  0
  2  3  2  0
  3  4  1  0
  4  5  2  0
  5  6  1  0
  6  7  1  0
  7  8  2  0
  8  9  1  0
  9 10  2  0
 10 11  1  0
 11 12  1  0
 12 13  1  0
 13 14  1  0
 14 15  1  0
 15 16  1  0
 10 17  1  0
 17 18  2  0
  6  2  1  0
 18  7  1  0
 16 11  1  0
  1 19  1  0
  1 20  1  0
  1 21  1  0
  4 22  1  0
  5 23  1  0
  8 24  1  0
  9 25  1  0
 12 26  1  0
 12 27  1  0
 13 28  1  0
 13 29  1  0
 14 30  1  0
 14 31  1  0
 15 32  1  0
 15 33  1  0
 16 34  1  0
 16 35  1  0
 18 36  1  0
M  END
>  <UniqueID>  (4) 
4

>  <SMILES>  (4) 
Cc1nccn1-c1ccc(N2CCCCC2)nc1

>  <Energy>  (4) 
74.08153494102245

>  <Genealogy>  (4) 
Cc1nccn1-c1ccc(N2CCCCC2)nc1 (3D coordinates assigned)
Cc1nccn1-c1ccc(N2CCCCC2)nc1 (nonaromatic ring conformer: 74.08153494102245 kcal/mol)

>  <smiles>  (4) 
Cc1nccn1-c1ccc(N2CCCCC2)nc1

>  <score_type>  (4) 
oracle

>  <origin>  (4) 
adg

>  <m_score__min__energy>  (4) 
-6.1699999999999999

>  <m_primary>  (4) 
energy

$$$$
4:0
     RDKit          3D

 51 53  0  0  0  0  0  0  0  0999 V2000
   59.6940   27.8960   48.1910 C   0  0  0  0  0  0  0  0  0  0  0  0
   58.6700   28.8760   48.3250 O   0  0  0  0  0  0  0  0  0  0  0  0
   58.8930   30.2270   48.6380 C   0  0  0  0  0  0  0  0  0  0  0  0
   59.4090   31.1300   47.6920 C   0  0  0  0  0  0  0  0  0  0  0  0
   59.6240   32.4690   48.0310 C   0  0  0  0  0  0  0  0  0  0  0  0
   60.1520   33.4310   46.9980 C   0  0  0  0  0  0  0  0  0  0  0  0
   59.1070   34.3990   46.5900 N   0  0  0  0  0  0  0  0  0  0  0  0
   57.7360   33.9150   46.8910 C   0  0  0  0  0  0  0  0  0  0  0  0
   57.0610   33.2060   45.6990 C   0  0  0  0  0  0  0  0  0  0  0  0
   58.0830   32.6430   44.8060 N   0  0  0  0  0  0  0  0  0  0  0  0
   57.5480   31.6700   43.8310 C   0  0  0  0  0  0  0  0  0  0  0  0
   57.5760   30.2440   44.3160 C   0  0  0  0  0  0  0  0  0  0  0  0
   58.7130   29.4650   44.4960 C   0  0  0  0  0  0  0  0  0  0  0  0
   58.4310   28.1800   44.9760 C   0  0  0  0  0  0  0  0  0  0  0  0
   57.0780   27.9450   45.1800 C   0  0  0  0  0  0  0  0  0  0  0  0
   56.2320   29.3380   44.7660 S   0  0  0  0  0  0  0  0  0  0  0  0
   58.9030   33.7010   44.1810 C   0  0  0  0  0  0  0  0  0  0  0  0
   59.2340   34.8310   45.1810 C   0  0  0  0  0  0  0  0  0  0  0  0
   59.3120   32.9130   49.3210 C   0  0  0  0  0  0  0  0  0  0  0  0
   58.7920   32.0280   50.2850 C   0  0  0  0  0  0  0  0  0  0  0  0
   58.4770   32.4770   51.5770 O   0  0  0  0  0  0  0  0  0  0  0  0
   58.8700   33.7310   52.1260 C   0  0  0  0  0  0  0  0  0  0  0  0
   58.5840   30.6680   49.9360 C   0  0  0  0  0  0  0  0  0  0  0  0
   58.0730   29.7020   50.8240 O   0  0  0  0  0  0  0  0  0  0  0  0
   58.5680   29.3960   52.1240 C   0  0  0  0  0  0  0  0  0  0  0  0
   60.0282   27.5761   49.1890 H   0  0  0  0  0  0  0  0  0  0  0  0
   59.3015   27.0285   47.6402 H   0  0  0  0  0  0  0  0  0  0  0  0
   60.5435   28.3262   47.6402 H   0  0  0  0  0  0  0  0  0  0  0  0
   59.6456   30.7799   46.6764 H   0  0  0  0  0  0  0  0  0  0  0  0
   61.0057   33.9805   47.4214 H   0  0  0  0  0  0  0  0  0  0  0  0
   60.4634   32.8578   46.1123 H   0  0  0  0  0  0  0  0  0  0  0  0
   57.7928   33.2071   47.7311 H   0  0  0  0  0  0  0  0  0  0  0  0
   57.1256   34.7979   47.1316 H   0  0  0  0  0  0  0  0  0  0  0  0
   56.4179   32.3959   46.0734 H   0  0  0  0  0  0  0  0  0  0  0  0
   56.4551   33.9349   45.1408 H   0  0  0  0  0  0  0  0  0  0  0  0
   56.5052   31.9400   43.6084 H   0  0  0  0  0  0  0  0  0  0  0  0
   58.1948   31.7186   42.9426 H   0  0  0  0  0  0  0  0  0  0  0  0
   59.7315   29.8218   44.2829 H   0  0  0  0  0  0  0  0  0  0  0  0
   59.2087   27.4274   45.1730 H   0  0  0  0  0  0  0  0  0  0  0  0
   56.6353   27.0081   45.5492 H   0  0  0  0  0  0  0  0  0  0  0  0
   59.8427   33.2575   43.8200 H   0  0  0  0  0  0  0  0  0  0  0  0
   58.3280   34.1353   43.3499 H   0  0  0  0  0  0  0  0  0  0  0  0
   60.2677   35.1643   45.0065 H   0  0  0  0  0  0  0  0  0  0  0  0
   58.5121   35.6443   45.0156 H   0  0  0  0  0  0  0  0  0  0  0  0
   59.4753   33.9681   49.5856 H   0  0  0  0  0  0  0  0  0  0  0  0
   58.8516   33.6724   53.2243 H   0  0  0  0  0  0  0  0  0  0  0  0
   59.8880   33.9760   51.7889 H   0  0  0  0  0  0  0  0  0  0  0  0
   58.1739   34.5132   51.7889 H   0  0  0  0  0  0  0  0  0  0  0  0
   57.8903   29.8150   52.8824 H   0  0  0  0  0  0  0  0  0  0  0  0
   58.6257   28.3044   52.2468 H   0  0  0  0  0  0  0  0  0  0  0  0
   59.5703   29.8323   52.2468 H   0  0  0  0  0  0  0  0  0  0  0  0
  1  2  1  0
  2  3  1  0
  3  4  2  0
  4  5  1  0
  5  6  1  0
  6  7  1  0
  7  8  1  0
  8  9  1  0
  9 10  1  0
 10 11  1  0
 11 12  1  0
 12 13  2  0
 13 14  1  0
 14 15  2  0
 15 16  1  0
 10 17  1  0
 17 18  1  0
  5 19  2  0
 19 20  1  0
 20 21  1  0
 21 22  1  0
 20 23  2  0
 23 24  1  0
 24 25  1  0
 23  3  1  0
 18  7  1  0
 16 12  1  0
  1 26  1  0
  1 27  1  0
  1 28  1  0
  4 29  1  0
  6 30  1  0
  6 31  1  0
  8 32  1  0
  8 33  1  0
  9 34  1  0
  9 35  1  0
 11 36  1  0
 11 37  1  0
 13 38  1  0
 14 39  1  0
 15 40  1  0
 17 41  1  0
 17 42  1  0
 18 43  1  0
 18 44  1  0
 19 45  1  0
 22 46  1  0
 22 47  1  0
 22 48  1  0
 25 49  1  0
 25 50  1  0
 25 51  1  0
M  END
>  <UniqueID>  (5) 
5

>  <SMILES>  (5) 
COc1cc(CN2CCN(Cc3cccs3)CC2)cc(OC)c1OC

>  <Energy>  (5) 
92.11658787078377

>  <Genealogy>  (5) 
COc1cc(CN2CCN(Cc3cccs3)CC2)cc(OC)c1OC (3D coordinates assigned)
COc1cc(CN2CCN(Cc3cccs3)CC2)cc(OC)c1OC (nonaromatic ring conformer: 92.11658787078377 kcal/mol)

>  <smiles>  (5) 
COc1cc(CN2CCN(Cc3cccs3)CC2)cc(OC)c1OC

>  <score_type>  (5) 
oracle

>  <origin>  (5) 
adg

>  <m_score__min__energy>  (5) 
-7.6399999999999997

>  <m_primary>  (5) 
energy

$$$$
5:0
     RDKit          3D

 58 60  0  0  0  0  0  0  0  0999 V2000
   60.8069   34.8887   46.3319 H   0  0  0  0  0  0  0  0  0  0  0  0
   60.9170   33.9650   46.9190 C   0  0  0  0  0  0  0  0  0  0  0  0
   62.1740   33.3650   47.0480 C   0  0  0  0  0  0  0  0  0  0  0  0
   63.3660   33.9570   46.3670 C   0  0  0  0  0  0  0  0  0  0  0  0
   64.0814   34.3123   47.1232 H   0  0  0  0  0  0  0  0  0  0  0  0
   63.8463   33.1927   45.7384 H   0  0  0  0  0  0  0  0  0  0  0  0
   63.0473   34.8015   45.7384 H   0  0  0  0  0  0  0  0  0  0  0  0
   62.3100   32.2300   47.7800 N   0  0  0  0  0  0  0  0  0  0  0  0
   61.2580   31.6450   48.4070 C   0  0  0  0  0  0  0  0  0  0  0  0
   61.4620   30.4790   49.1490 C   0  0  0  0  0  0  0  0  0  0  0  0
   62.4701   30.0436   49.2136 H   0  0  0  0  0  0  0  0  0  0  0  0
   60.3890   29.8560   49.8150 C   0  0  0  0  0  0  0  0  0  0  0  0
   60.5530   28.6910   50.5850 O   0  0  0  0  0  0  0  0  0  0  0  0
   60.7660   27.3700   50.0830 C   0  0  0  0  0  0  0  0  0  0  0  0
   60.3919   26.6414   50.8172 H   0  0  0  0  0  0  0  0  0  0  0  0
   61.8438   27.2283   49.9147 H   0  0  0  0  0  0  0  0  0  0  0  0
   60.0340   27.1640   48.7560 C   0  0  0  0  0  0  0  0  0  0  0  0
   59.0350   27.6205   48.8154 H   0  0  0  0  0  0  0  0  0  0  0  0
   59.9380   26.0863   48.5578 H   0  0  0  0  0  0  0  0  0  0  0  0
   60.7630   27.7670   47.7090 O   0  0  0  0  0  0  0  0  0  0  0  0
   60.0810   27.5840   46.4880 C   0  0  0  0  0  0  0  0  0  0  0  0
   59.0042   27.7517   46.6379 H   0  0  0  0  0  0  0  0  0  0  0  0
   60.2384   26.5581   46.1236 H   0  0  0  0  0  0  0  0  0  0  0  0
   60.6160   28.5800   45.4700 C   0  0  0  0  0  0  0  0  0  0  0  0
   61.0733   29.4314   45.9954 H   0  0  0  0  0  0  0  0  0  0  0  0
   61.3720   28.0894   44.8393 H   0  0  0  0  0  0  0  0  0  0  0  0
   59.7895   28.9394   44.8393 H   0  0  0  0  0  0  0  0  0  0  0  0
   59.1010   30.3990   49.7080 C   0  0  0  0  0  0  0  0  0  0  0  0
   58.0500   29.7430   50.3700 O   0  0  0  0  0  0  0  0  0  0  0  0
   57.7630   29.8720   51.7590 C   0  0  0  0  0  0  0  0  0  0  0  0
   58.6117   29.4905   52.3457 H   0  0  0  0  0  0  0  0  0  0  0  0
   57.5960   30.9317   52.0020 H   0  0  0  0  0  0  0  0  0  0  0  0
   56.8596   29.2933   52.0020 H   0  0  0  0  0  0  0  0  0  0  0  0
   58.8930   31.5700   48.9560 C   0  0  0  0  0  0  0  0  0  0  0  0
   57.8802   31.9918   48.8760 H   0  0  0  0  0  0  0  0  0  0  0  0
   59.9670   32.2090   48.3040 C   0  0  0  0  0  0  0  0  0  0  0  0
   59.7900   33.3870   47.5410 C   0  0  0  0  0  0  0  0  0  0  0  0
   58.5920   33.9020   47.4230 N   0  0  0  0  0  0  0  0  0  0  0  0
   57.5810   33.6310   46.3980 C   0  0  0  0  0  0  0  0  0  0  0  0
   56.7105   33.1527   46.8706 H   0  0  0  0  0  0  0  0  0  0  0  0
   57.2943   34.5850   45.9314 H   0  0  0  0  0  0  0  0  0  0  0  0
   58.1300   32.7040   45.3080 C   0  0  0  0  0  0  0  0  0  0  0  0
   58.1486   33.2426   44.3491 H   0  0  0  0  0  0  0  0  0  0  0  0
   59.1477   32.3906   45.5839 H   0  0  0  0  0  0  0  0  0  0  0  0
   57.2760   31.5040   45.1770 N   0  0  0  0  0  0  0  0  0  0  0  0
   57.8690   30.3200   45.8270 C   0  0  0  0  0  0  0  0  0  0  0  0
   58.8926   30.1763   45.4508 H   0  0  0  0  0  0  0  0  0  0  0  0
   57.8815   30.4828   46.9148 H   0  0  0  0  0  0  0  0  0  0  0  0
   57.0360   29.0570   45.5240 C   0  0  0  0  0  0  0  0  0  0  0  0
   57.5850   28.4273   44.8083 H   0  0  0  0  0  0  0  0  0  0  0  0
   56.8681   28.5141   46.4658 H   0  0  0  0  0  0  0  0  0  0  0  0
   55.7800   29.3980   44.9710 O   0  0  0  0  0  0  0  0  0  0  0  0
   55.9600   30.0180   43.7100 C   0  0  0  0  0  0  0  0  0  0  0  0
   56.3476   29.2715   43.0011 H   0  0  0  0  0  0  0  0  0  0  0  0
   54.9850   30.4114   43.3866 H   0  0  0  0  0  0  0  0  0  0  0  0
   56.9480   31.2010   43.7740 C   0  0  0  0  0  0  0  0  0  0  0  0
   57.8686   30.9371   43.2329 H   0  0  0  0  0  0  0  0  0  0  0  0
   56.4853   32.0850   43.3110 H   0  0  0  0  0  0  0  0  0  0  0  0
  1  2  1  0
  2  3  2  0
  3  4  1  0
  4  5  1  0
  4  6  1  0
  4  7  1  0
  3  8  1  0
  8  9  1  0
  9 10  2  0
 10 11  1  0
 10 12  1  0
 12 13  1  0
 13 14  1  0
 14 15  1  0
 14 16  1  0
 14 17  1  0
 17 18  1  0
 17 19  1  0
 17 20  1  0
 20 21  1  0
 21 22  1  0
 21 23  1  0
 21 24  1  0
 24 25  1  0
 24 26  1  0
 24 27  1  0
 12 28  2  0
 28 29  1  0
 29 30  1  0
 30 31  1  0
 30 32  1  0
 30 33  1  0
 28 34  1  0
 34 35  1  0
 34 36  2  0
 36 37  1  0
 37 38  2  0
 38 39  1  0
 39 40  1  0
 39 41  1  0
 39 42  1  0
 42 43  1  0
 42 44  1  0
 42 45  1  0
 45 46  1  0
 46 47  1  0
 46 48  1  0
 46 49  1  0
 49 50  1  0
 49 51  1  0
 49 52  1  0
 52 53  1  0
 53 54  1  0
 53 55  1  0
 53 56  1  0
 56 57  1  0
 56 58  1  0
 37  2  1  0
 56 45  1  0
 36  9  1  0
M  CHG  1   8  -1
M  END
>  <UniqueID>  (6) 
6

>  <SMILES>  (6) 
CCOCCOc1cc2[n-]c(C)c/c(=N\CCN3CCOCC3)c2cc1OC

>  <Energy>  (6) 
68.5882678393602

>  <Genealogy>  (6) 
CCOCCOc1cc2[n-]c(C)cc(=NCCN3CCOCC3)c2cc1OC (protonated)
CCOCCOc1cc2[n-]c(C)c/c(=N\CCN3CCOCC3)c2cc1OC (cis-trans isomerization)
CCOCCOc1cc2[n-]c(C)c/c(=N\CCN3CCOCC3)c2cc1OC (3D coordinates assigned)
CCOCCOc1cc2[n-]c(C)c/c(=N\CCN3CCOCC3)c2cc1OC (nonaromatic ring conformer: 68.5882678393602 kcal/mol)

>  <smiles>  (6) 
CCOCCOc1cc2[nH]c(C)cc(=NCCN3CCOCC3)c2cc1OC

>  <score_type>  (6) 
oracle

>  <origin>  (6) 
adg

>  <m_score__min__energy>  (6) 
-8.1999999999999993

>  <m_primary>  (6) 
energy

$$$$
6:0
     RDKit          3D

 46 49  0  0  0  0  0  0  0  0999 V2000
   54.9970   30.2090   52.3530 C   0  0  0  0  0  0  0  0  0  0  0  0
   56.3580   29.9010   52.0660 O   0  0  0  0  0  0  0  0  0  0  0  0
   57.3100   30.8390   51.6430 C   0  0  0  0  0  0  0  0  0  0  0  0
   58.1460   30.6180   50.5330 C   0  0  0  0  0  0  0  0  0  0  0  0
   59.0840   31.5820   50.1530 C   0  0  0  0  0  0  0  0  0  0  0  0
   59.2160   32.7740   50.8840 C   0  0  0  0  0  0  0  0  0  0  0  0
   60.2320   33.8220   50.4700 C   0  0  0  0  0  0  0  0  0  0  0  0
   60.4730   33.9090   49.0060 N   0  0  2  0  0  0  0  0  0  0  0  0
   59.2330   34.1560   48.2340 C   0  0  0  0  0  0  0  0  0  0  0  0
   59.5100   34.3620   46.7080 C   0  0  1  0  0  0  0  0  0  0  0  0
   60.9670   34.0700   46.3410 C   0  0  0  0  0  0  0  0  0  0  0  0
   61.3000   32.7020   46.9270 C   0  0  1  0  0  0  0  0  0  0  0  0
   61.2280   32.7380   48.4840 C   0  0  0  0  0  0  0  0  0  0  0  0
   60.3340   31.6630   46.3740 C   0  0  0  0  0  0  0  0  0  0  0  0
   60.7300   30.3170   46.3890 C   0  0  0  0  0  0  0  0  0  0  0  0
   59.8510   29.3310   45.9580 C   0  0  0  0  0  0  0  0  0  0  0  0
   58.5820   29.6850   45.5150 C   0  0  0  0  0  0  0  0  0  0  0  0
   58.2010   31.0290   45.5090 C   0  0  0  0  0  0  0  0  0  0  0  0
   57.0500   31.3280   45.0850 O   0  0  0  0  0  0  0  0  0  0  0  0
   59.0610   32.0060   45.9520 N   0  0  0  0  0  0  0  0  0  0  0  0
   58.6290   33.4210   45.8660 C   0  0  0  0  0  0  0  0  0  0  0  0
   58.3640   33.0020   51.9770 C   0  0  0  0  0  0  0  0  0  0  0  0
   57.4260   32.0370   52.3560 C   0  0  0  0  0  0  0  0  0  0  0  0
   54.8505   30.2422   53.4427 H   0  0  0  0  0  0  0  0  0  0  0  0
   54.7431   31.1873   51.9190 H   0  0  0  0  0  0  0  0  0  0  0  0
   54.3466   29.4353   51.9190 H   0  0  0  0  0  0  0  0  0  0  0  0
   58.0609   29.6820   49.9615 H   0  0  0  0  0  0  0  0  0  0  0  0
   59.7233   31.4059   49.2753 H   0  0  0  0  0  0  0  0  0  0  0  0
   59.8739   34.8024   50.8172 H   0  0  0  0  0  0  0  0  0  0  0  0
   61.1882   33.5246   50.9252 H   0  0  0  0  0  0  0  0  0  0  0  0
   61.0820   34.7540   48.8910 H   0  0  0  0  0  0  0  0  0  0  0  0
   58.5623   33.2929   48.3577 H   0  0  0  0  0  0  0  0  0  0  0  0
   58.7772   35.0800   48.6193 H   0  0  0  0  0  0  0  0  0  0  0  0
   59.2811   35.4166   46.4948 H   0  0  0  0  0  0  0  0  0  0  0  0
   61.0867   34.0536   45.2477 H   0  0  0  0  0  0  0  0  0  0  0  0
   61.6385   34.8452   46.7386 H   0  0  0  0  0  0  0  0  0  0  0  0
   62.3266   32.4305   46.6401 H   0  0  0  0  0  0  0  0  0  0  0  0
   60.7342   31.8191   48.8331 H   0  0  0  0  0  0  0  0  0  0  0  0
   62.2591   32.8189   48.8584 H   0  0  0  0  0  0  0  0  0  0  0  0
   61.7352   30.0427   46.7416 H   0  0  0  0  0  0  0  0  0  0  0  0
   60.1581   28.2748   45.9673 H   0  0  0  0  0  0  0  0  0  0  0  0
   57.8809   28.9104   45.1707 H   0  0  0  0  0  0  0  0  0  0  0  0
   58.6771   33.7406   44.8146 H   0  0  0  0  0  0  0  0  0  0  0  0
   57.6046   33.4809   46.2622 H   0  0  0  0  0  0  0  0  0  0  0  0
   58.4351   33.9454   52.5382 H   0  0  0  0  0  0  0  0  0  0  0  0
   56.7736   32.2213   53.2223 H   0  0  0  0  0  0  0  0  0  0  0  0
  1  2  1  0
  2  3  1  0
  3  4  2  0
  4  5  1  0
  5  6  2  0
  6  7  1  0
  7  8  1  0
  8  9  1  0
  9 10  1  0
 10 11  1  0
 11 12  1  0
 12 13  1  0
 12 14  1  0
 14 15  2  0
 15 16  1  0
 16 17  2  0
 17 18  1  0
 18 19  2  0
 18 20  1  0
 20 21  1  0
  6 22  1  0
 22 23  2  0
 23  3  1  0
 13  8  1  0
 20 14  1  0
 21 10  1  0
  1 24  1  0
  1 25  1  0
  1 26  1  0
  4 27  1  0
  5 28  1  0
  7 29  1  0
  7 30  1  0
  8 31  1  1
  9 32  1  0
  9 33  1  0
 10 34  1  6
 11 35  1  0
 11 36  1  0
 12 37  1  1
 13 38  1  0
 13 39  1  0
 15 40  1  0
 16 41  1  0
 17 42  1  0
 21 43  1  0
 21 44  1  0
 22 45  1  0
 23 46  1  0
M  CHG  1   8   1
M  END
>  <UniqueID>  (7) 
7

>  <SMILES>  (7) 
COc1ccc(C[N@H+]2CC3C[C@@H](Cn4c3cccc4=O)C2)cc1

>  <Energy>  (7) 
68.40521630716589

>  <Genealogy>  (7) 
COc1ccc(C[NH+]2CC3CC(C2)c2cccc(=O)n2C3)cc1 (protonated)
COc1ccc(C[N@H+]2CC3C[C@@H](Cn4c3cccc4=O)C2)cc1 (chirality)
COc1ccc(C[N@H+]2CC3C[C@@H](Cn4c3cccc4=O)C2)cc1 (3D coordinates assigned)
COc1ccc(C[N@H+]2CC3C[C@@H](Cn4c3cccc4=O)C2)cc1 (nonaromatic ring conformer: 68.40521630716589 kcal/mol)

>  <smiles>  (7) 
COc1ccc(CN2CC3CC(C2)c2cccc(=O)n2C3)cc1

>  <score_type>  (7) 
oracle

>  <origin>  (7) 
adg

>  <m_score__min__energy>  (7) 
-5.8300000000000001

>  <m_primary>  (7) 
energy

$$$$
7:0
     RDKit          3D

 39 41  0  0  0  0  0  0  0  0999 V2000
   55.0360   23.9520   46.2720 C   0  0  0  0  0  0  0  0  0  0  0  0
   54.4200   25.1860   45.6200 C   0  0  0  0  0  0  0  0  0  0  0  0
   55.1230   26.3970   46.0360 N   0  0  0  0  0  0  0  0  0  0  0  0
   56.4930   26.7070   45.7470 C   0  0  0  0  0  0  0  0  0  0  0  0
   57.3110   25.7610   45.5950 O   0  0  0  0  0  0  0  0  0  0  0  0
   56.9690   28.1000   45.6170 C   0  0  0  0  0  0  0  0  0  0  0  0
   56.2770   28.9790   44.7720 C   0  0  0  0  0  0  0  0  0  0  0  0
   56.7110   30.2940   44.6070 C   0  0  0  0  0  0  0  0  0  0  0  0
   57.8570   30.7510   45.2690 C   0  0  0  0  0  0  0  0  0  0  0  0
   58.2990   32.1080   45.0950 N   0  0  0  0  0  0  0  0  0  0  0  0
   58.3920   32.8440   43.9490 C   0  0  0  0  0  0  0  0  0  0  0  0
   58.0170   32.3450   42.5890 C   0  0  0  0  0  0  0  0  0  0  0  0
   58.8640   34.1060   44.1520 N   0  0  0  0  0  0  0  0  0  0  0  0
   59.0530   34.1460   45.4830 C   0  0  0  0  0  0  0  0  0  0  0  0
   59.5390   35.1950   46.2560 C   0  0  0  0  0  0  0  0  0  0  0  0
   59.6610   34.9710   47.6400 C   0  0  0  0  0  0  0  0  0  0  0  0
   59.3010   33.7150   48.1840 C   0  0  0  0  0  0  0  0  0  0  0  0
   58.8320   32.7170   47.3750 N   0  0  0  0  0  0  0  0  0  0  0  0
   58.7110   32.9590   46.0460 C   0  0  0  0  0  0  0  0  0  0  0  0
   58.5560   29.8770   46.1150 C   0  0  0  0  0  0  0  0  0  0  0  0
   58.1220   28.5540   46.3000 C   0  0  0  0  0  0  0  0  0  0  0  0
   58.8980   27.6450   47.2180 C   0  0  0  0  0  0  0  0  0  0  0  0
   54.9861   24.0520   47.3663 H   0  0  0  0  0  0  0  0  0  0  0  0
   54.4795   23.0560   45.9599 H   0  0  0  0  0  0  0  0  0  0  0  0
   56.0866   23.8583   45.9599 H   0  0  0  0  0  0  0  0  0  0  0  0
   54.4869   25.0876   44.5265 H   0  0  0  0  0  0  0  0  0  0  0  0
   53.3684   25.2630   45.9335 H   0  0  0  0  0  0  0  0  0  0  0  0
   55.3837   28.6283   44.2343 H   0  0  0  0  0  0  0  0  0  0  0  0
   56.1493   30.9767   43.9525 H   0  0  0  0  0  0  0  0  0  0  0  0
   57.3589   31.4692   42.6884 H   0  0  0  0  0  0  0  0  0  0  0  0
   57.4902   33.1391   42.0395 H   0  0  0  0  0  0  0  0  0  0  0  0
   58.9262   32.0599   42.0395 H   0  0  0  0  0  0  0  0  0  0  0  0
   59.8163   36.1591   45.8047 H   0  0  0  0  0  0  0  0  0  0  0  0
   60.0351   35.7699   48.2971 H   0  0  0  0  0  0  0  0  0  0  0  0
   59.3992   33.5402   49.2656 H   0  0  0  0  0  0  0  0  0  0  0  0
   59.4550   30.2322   46.6399 H   0  0  0  0  0  0  0  0  0  0  0  0
   58.6766   27.9043   48.2638 H   0  0  0  0  0  0  0  0  0  0  0  0
   58.6088   26.6005   47.0301 H   0  0  0  0  0  0  0  0  0  0  0  0
   59.9750   27.7667   47.0301 H   0  0  0  0  0  0  0  0  0  0  0  0
  1  2  1  0
  2  3  1  0
  3  4  1  0
  4  5  2  0
  4  6  1  0
  6  7  2  0
  7  8  1  0
  8  9  2  0
  9 10  1  0
 10 11  1  0
 11 12  1  0
 11 13  2  0
 13 14  1  0
 14 15  2  0
 15 16  1  0
 16 17  2  0
 17 18  1  0
 18 19  2  0
  9 20  1  0
 20 21  2  0
 21 22  1  0
 21  6  1  0
 19 10  1  0
 19 14  1  0
  1 23  1  0
  1 24  1  0
  1 25  1  0
  2 26  1  0
  2 27  1  0
  7 28  1  0
  8 29  1  0
 12 30  1  0
 12 31  1  0
 12 32  1  0
 15 33  1  0
 16 34  1  0
 17 35  1  0
 20 36  1  0
 22 37  1  0
 22 38  1  0
 22 39  1  0
M  CHG  1   3  -1
M  END
>  <UniqueID>  (8) 
8

>  <SMILES>  (8) 
CC[N-]C(=O)c1ccc(-n2c(C)nc3cccnc32)cc1C

>  <Energy>  (8) 
87.57266131653464

>  <Genealogy>  (8) 
CC[N-]C(=O)c1ccc(-n2c(C)nc3cccnc32)cc1C (protonated)
CC[N-]C(=O)c1ccc(-n2c(C)nc3cccnc32)cc1C (3D coordinates assigned)
CC[N-]C(=O)c1ccc(-n2c(C)nc3cccnc32)cc1C (optimized conformer: 87.57266131653464 kcal/mol)

>  <smiles>  (8) 
CCNC(=O)c1ccc(-n2c(C)nc3cccnc32)cc1C

>  <score_type>  (8) 
oracle

>  <origin>  (8) 
adg

>  <m_score__min__energy>  (8) 
-9.6699999999999999

>  <m_primary>  (8) 
energy

$$$$
8:0
     RDKit          3D

 54 56  0  0  0  0  0  0  0  0999 V2000
   55.9870   30.8350   52.1280 C   0  0  0  0  0  0  0  0  0  0  0  0
   57.0250   30.2600   51.3390 O   0  0  0  0  0  0  0  0  0  0  0  0
   58.1330   30.9700   50.8530 C   0  0  0  0  0  0  0  0  0  0  0  0
   58.5020   32.1530   51.5030 C   0  0  0  0  0  0  0  0  0  0  0  0
   59.5990   32.8970   51.0580 C   0  0  0  0  0  0  0  0  0  0  0  0
   60.3440   32.4640   49.9500 C   0  0  0  0  0  0  0  0  0  0  0  0
   61.5220   33.2630   49.4560 C   0  0  0  0  0  0  0  0  0  0  0  0
   61.1330   34.0930   48.2980 N   0  0  0  0  0  0  0  0  0  0  0  0
   61.3710   33.4010   47.0040 C   0  0  0  0  0  0  0  0  0  0  0  0
   60.0720   32.8990   46.3600 C   0  0  0  0  0  0  0  0  0  0  0  0
   59.1440   34.0190   46.0820 N   0  0  0  0  0  0  0  0  0  0  0  0
   57.7770   33.5130   45.8380 C   0  0  0  0  0  0  0  0  0  0  0  0
   57.7820   32.4830   44.7030 C   0  0  0  0  0  0  0  0  0  0  0  0
   57.0620   31.3100   45.0860 O   0  0  0  0  0  0  0  0  0  0  0  0
   57.6370   30.0810   45.4540 C   0  0  0  0  0  0  0  0  0  0  0  0
   58.9600   29.9780   45.9290 C   0  0  0  0  0  0  0  0  0  0  0  0
   59.4880   28.7350   46.2840 C   0  0  0  0  0  0  0  0  0  0  0  0
   58.7070   27.5850   46.1730 C   0  0  0  0  0  0  0  0  0  0  0  0
   57.3930   27.6740   45.7080 C   0  0  0  0  0  0  0  0  0  0  0  0
   56.8490   28.9220   45.3470 C   0  0  0  0  0  0  0  0  0  0  0  0
   55.5330   29.0520   44.8750 O   0  0  0  0  0  0  0  0  0  0  0  0
   55.1740   29.6910   43.6540 C   0  0  0  0  0  0  0  0  0  0  0  0
   59.1730   35.0810   47.1220 C   0  0  0  0  0  0  0  0  0  0  0  0
   59.7440   34.5820   48.4570 C   0  0  0  0  0  0  0  0  0  0  0  0
   59.9770   31.2780   49.2960 C   0  0  0  0  0  0  0  0  0  0  0  0
   58.8800   30.5360   49.7420 C   0  0  0  0  0  0  0  0  0  0  0  0
   56.2222   30.7047   53.1946 H   0  0  0  0  0  0  0  0  0  0  0  0
   55.9040   31.9077   51.8992 H   0  0  0  0  0  0  0  0  0  0  0  0
   55.0335   30.3364   51.8992 H   0  0  0  0  0  0  0  0  0  0  0  0
   57.9239   32.5007   52.3718 H   0  0  0  0  0  0  0  0  0  0  0  0
   59.8792   33.8249   51.5781 H   0  0  0  0  0  0  0  0  0  0  0  0
   61.8819   33.9157   50.2650 H   0  0  0  0  0  0  0  0  0  0  0  0
   62.3181   32.5700   49.1464 H   0  0  0  0  0  0  0  0  0  0  0  0
   61.8592   34.1035   46.3126 H   0  0  0  0  0  0  0  0  0  0  0  0
   62.0055   32.5251   47.2045 H   0  0  0  0  0  0  0  0  0  0  0  0
   60.3134   32.3902   45.4151 H   0  0  0  0  0  0  0  0  0  0  0  0
   59.5817   32.2061   47.0597 H   0  0  0  0  0  0  0  0  0  0  0  0
   57.3969   33.0395   46.7552 H   0  0  0  0  0  0  0  0  0  0  0  0
   57.1309   34.3559   45.5515 H   0  0  0  0  0  0  0  0  0  0  0  0
   57.3087   32.9233   43.8130 H   0  0  0  0  0  0  0  0  0  0  0  0
   58.8227   32.2041   44.4815 H   0  0  0  0  0  0  0  0  0  0  0  0
   59.5801   30.8819   46.0206 H   0  0  0  0  0  0  0  0  0  0  0  0
   60.5221   28.6628   46.6520 H   0  0  0  0  0  0  0  0  0  0  0  0
   59.1262   26.6070   46.4519 H   0  0  0  0  0  0  0  0  0  0  0  0
   56.7798   26.7647   45.6233 H   0  0  0  0  0  0  0  0  0  0  0  0
   54.6460   30.6307   43.8734 H   0  0  0  0  0  0  0  0  0  0  0  0
   56.0824   29.9078   43.0727 H   0  0  0  0  0  0  0  0  0  0  0  0
   54.5163   29.0280   43.0727 H   0  0  0  0  0  0  0  0  0  0  0  0
   59.7966   35.9119   46.7603 H   0  0  0  0  0  0  0  0  0  0  0  0
   58.1361   35.4014   47.3012 H   0  0  0  0  0  0  0  0  0  0  0  0
   59.7360   35.4093   49.1819 H   0  0  0  0  0  0  0  0  0  0  0  0
   59.1204   33.7482   48.8118 H   0  0  0  0  0  0  0  0  0  0  0  0
   60.5559   30.9305   48.4276 H   0  0  0  0  0  0  0  0  0  0  0  0
   58.5990   29.6082   49.2222 H   0  0  0  0  0  0  0  0  0  0  0  0
  1  2  1  0
  2  3  1  0
  3  4  2  0
  4  5  1  0
  5  6  2  0
  6  7  1  0
  7  8  1  0
  8  9  1  0
  9 10  1  0
 10 11  1  0
 11 12  1  0
 12 13  1  0
 13 14  1  0
 14 15  1  0
 15 16  2  0
 16 17  1  0
 17 18  2  0
 18 19  1  0
 19 20  2  0
 20 21  1  0
 21 22  1  0
 11 23  1  0
 23 24  1  0
  6 25  1  0
 25 26  2  0
 26  3  1  0
 24  8  1  0
 20 15  1  0
  1 27  1  0
  1 28  1  0
  1 29  1  0
  4 30  1  0
  5 31  1  0
  7 32  1  0
  7 33  1  0
  9 34  1  0
  9 35  1  0
 10 36  1  0
 10 37  1  0
 12 38  1  0
 12 39  1  0
 13 40  1  0
 13 41  1  0
 16 42  1  0
 17 43  1  0
 18 44  1  0
 19 45  1  0
 22 46  1  0
 22 47  1  0
 22 48  1  0
 23 49  1  0
 23 50  1  0
 24 51  1  0
 24 52  1  0
 25 53  1  0
 26 54  1  0
M  END
>  <UniqueID>  (9) 
9

>  <SMILES>  (9) 
COc1ccc(CN2CCN(CCOc3ccccc3OC)CC2)cc1

>  <Energy>  (9) 
65.64413018238395

>  <Genealogy>  (9) 
COc1ccc(CN2CCN(CCOc3ccccc3OC)CC2)cc1 (3D coordinates assigned)
COc1ccc(CN2CCN(CCOc3ccccc3OC)CC2)cc1 (nonaromatic ring conformer: 65.64413018238395 kcal/mol)

>  <smiles>  (9) 
COc1ccc(CN2CCN(CCOc3ccccc3OC)CC2)cc1

>  <score_type>  (9) 
oracle

>  <origin>  (9) 
adg

>  <m_score__min__energy>  (9) 
-9.3499999999999996

>  <m_primary>  (9) 
energy

$$$$
9:0
     RDKit          3D

 43 45  0  0  0  0  0  0  0  0999 V2000
   57.1900   34.2050   45.0520 C   0  0  0  0  0  0  0  0  0  0  0  0
   58.6680   33.8320   45.0970 C   0  0  0  0  0  0  0  0  0  0  0  0
   58.9590   33.0330   46.2950 N   0  0  0  0  0  0  0  0  0  0  0  0
   59.5000   33.6670   47.5030 C   0  0  0  0  0  0  0  0  0  0  0  0
   60.9990   33.5510   47.5140 C   0  0  0  0  0  0  0  0  0  0  0  0
   61.7450   33.9490   46.3950 C   0  0  0  0  0  0  0  0  0  0  0  0
   63.1330   33.7930   46.3830 C   0  0  0  0  0  0  0  0  0  0  0  0
   63.7850   33.2200   47.4780 C   0  0  0  0  0  0  0  0  0  0  0  0
   63.0470   32.7840   48.5890 C   0  0  0  0  0  0  0  0  0  0  0  0
   63.7460   32.1860   49.7750 C   0  0  0  0  0  0  0  0  0  0  0  0
   61.6550   32.9630   48.6080 C   0  0  0  0  0  0  0  0  0  0  0  0
   58.7910   31.6030   46.2640 C   0  0  0  0  0  0  0  0  0  0  0  0
   58.9030   30.8550   47.4450 C   0  0  0  0  0  0  0  0  0  0  0  0
   58.7720   29.4640   47.4180 C   0  0  0  0  0  0  0  0  0  0  0  0
   58.5310   28.8040   46.2050 C   0  0  0  0  0  0  0  0  0  0  0  0
   58.4010   27.4110   46.1540 C   0  0  0  0  0  0  0  0  0  0  0  0
   58.1670   26.7790   44.9290 C   0  0  0  0  0  0  0  0  0  0  0  0
   58.0330   25.3480   44.8650 C   0  0  0  0  0  0  0  0  0  0  0  0
   57.9250   24.1970   44.8140 N   0  0  0  0  0  0  0  0  0  0  0  0
   58.0640   27.5520   43.7670 C   0  0  0  0  0  0  0  0  0  0  0  0
   58.1910   28.9050   43.8270 N   0  0  0  0  0  0  0  0  0  0  0  0
   58.4190   29.5490   45.0080 C   0  0  0  0  0  0  0  0  0  0  0  0
   58.5500   30.9450   45.0470 C   0  0  0  0  0  0  0  0  0  0  0  0
   56.8050   34.3022   46.0778 H   0  0  0  0  0  0  0  0  0  0  0  0
   57.0692   35.1618   44.5229 H   0  0  0  0  0  0  0  0  0  0  0  0
   56.6297   33.4201   44.5229 H   0  0  0  0  0  0  0  0  0  0  0  0
   58.9214   33.2467   44.2008 H   0  0  0  0  0  0  0  0  0  0  0  0
   59.2675   34.7537   45.1289 H   0  0  0  0  0  0  0  0  0  0  0  0
   59.2163   34.7297   47.5155 H   0  0  0  0  0  0  0  0  0  0  0  0
   59.0911   33.1626   48.3909 H   0  0  0  0  0  0  0  0  0  0  0  0
   61.2351   34.3856   45.5236 H   0  0  0  0  0  0  0  0  0  0  0  0
   63.7144   34.1221   45.5091 H   0  0  0  0  0  0  0  0  0  0  0  0
   64.8795   33.1104   47.4691 H   0  0  0  0  0  0  0  0  0  0  0  0
   63.2941   32.5726   50.7003 H   0  0  0  0  0  0  0  0  0  0  0  0
   63.6442   31.0911   49.7469 H   0  0  0  0  0  0  0  0  0  0  0  0
   64.8120   32.4560   49.7469 H   0  0  0  0  0  0  0  0  0  0  0  0
   61.0743   32.6409   49.4849 H   0  0  0  0  0  0  0  0  0  0  0  0
   59.0953   31.3669   48.3994 H   0  0  0  0  0  0  0  0  0  0  0  0
   58.8581   28.8861   48.3500 H   0  0  0  0  0  0  0  0  0  0  0  0
   58.4827   26.8154   47.0752 H   0  0  0  0  0  0  0  0  0  0  0  0
   57.8792   27.0626   42.7994 H   0  0  0  0  0  0  0  0  0  0  0  0
   58.1090   29.4520   42.9390 H   0  0  0  0  0  0  0  0  0  0  0  0
   58.4634   31.5281   44.1183 H   0  0  0  0  0  0  0  0  0  0  0  0
  1  2  1  0
  2  3  1  0
  3  4  1  0
  4  5  1  0
  5  6  2  0
  6  7  1  0
  7  8  2  0
  8  9  1  0
  9 10  1  0
  9 11  2  0
  3 12  1  0
 12 13  2  0
 13 14  1  0
 14 15  2  0
 15 16  1  0
 16 17  2  0
 17 18  1  0
 18 19  3  0
 17 20  1  0
 20 21  2  0
 21 22  1  0
 22 23  2  0
 11  5  1  0
 23 12  1  0
 22 15  1  0
  1 24  1  0
  1 25  1  0
  1 26  1  0
  2 27  1  0
  2 28  1  0
  4 29  1  0
  4 30  1  0
  6 31  1  0
  7 32  1  0
  8 33  1  0
 10 34  1  0
 10 35  1  0
 10 36  1  0
 11 37  1  0
 13 38  1  0
 14 39  1  0
 16 40  1  0
 20 41  1  0
 21 42  1  0
 23 43  1  0
M  CHG  1  21   1
M  END
>  <UniqueID>  (10) 
10

>  <SMILES>  (10) 
CCN(Cc1cccc(C)c1)c1ccc2cc(C#N)c[nH+]c2c1

>  <Energy>  (10) 
45.055407993313636

>  <Genealogy>  (10) 
CCN(Cc1cccc(C)c1)c1ccc2cc(C#N)c[nH+]c2c1 (protonated)
CCN(Cc1cccc(C)c1)c1ccc2cc(C#N)c[nH+]c2c1 (3D coordinates assigned)
CCN(Cc1cccc(C)c1)c1ccc2cc(C#N)c[nH+]c2c1 (optimized conformer: 45.055407993313636 kcal/mol)

>  <smiles>  (10) 
CCN(Cc1cccc(C)c1)c1ccc2cc(C#N)cnc2c1

>  <score_type>  (10) 
oracle

>  <origin>  (10) 
adg

>  <m_score__min__energy>  (10) 
-6.3899999999999997

>  <m_primary>  (10) 
energy

$$$$
10:0
     RDKit          3D

 41 43  0  0  0  0  0  0  0  0999 V2000
   56.2690   20.1260   44.5250 C   0  0  0  0  0  0  0  0  0  0  0  0
   55.9560   21.2820   43.7560 O   0  0  0  0  0  0  0  0  0  0  0  0
   56.4060   22.5760   44.0530 C   0  0  0  0  0  0  0  0  0  0  0  0
   56.6510   23.0070   45.3700 C   0  0  0  0  0  0  0  0  0  0  0  0
   57.1000   24.3090   45.6150 C   0  0  0  0  0  0  0  0  0  0  0  0
   57.3130   25.2030   44.5510 C   0  0  0  0  0  0  0  0  0  0  0  0
   57.8200   26.5750   44.7820 C   0  0  0  0  0  0  0  0  0  0  0  0
   57.5620   27.6400   43.9930 N   0  0  0  0  0  0  0  0  0  0  0  0
   58.1550   28.6720   44.6180 C   0  0  0  0  0  0  0  0  0  0  0  0
   58.0800   30.1010   44.1710 C   0  0  0  0  0  0  0  0  0  0  0  0
   57.0240   30.8290   44.8930 N   0  0  0  0  0  0  0  0  0  0  0  0
   57.0190   32.2720   44.5920 C   0  0  0  0  0  0  0  0  0  0  0  0
   57.8850   33.0220   45.5710 C   0  0  0  0  0  0  0  0  0  0  0  0
   58.1260   32.4890   46.8490 C   0  0  0  0  0  0  0  0  0  0  0  0
   58.9890   33.1420   47.7340 C   0  0  0  0  0  0  0  0  0  0  0  0
   59.6110   34.3350   47.3540 C   0  0  0  0  0  0  0  0  0  0  0  0
   60.4590   34.9580   48.2090 F   0  0  0  0  0  0  0  0  0  0  0  0
   59.3630   34.8800   46.0920 C   0  0  0  0  0  0  0  0  0  0  0  0
   58.5010   34.2300   45.2030 C   0  0  0  0  0  0  0  0  0  0  0  0
   58.7880   28.2000   45.7470 C   0  0  0  0  0  0  0  0  0  0  0  0
   58.5610   26.9080   45.8180 O   0  0  0  0  0  0  0  0  0  0  0  0
   57.0710   24.7660   43.2380 C   0  0  0  0  0  0  0  0  0  0  0  0
   56.6200   23.4650   42.9950 C   0  0  0  0  0  0  0  0  0  0  0  0
   56.2032   20.3691   45.5958 H   0  0  0  0  0  0  0  0  0  0  0  0
   55.5559   19.3230   44.2868 H   0  0  0  0  0  0  0  0  0  0  0  0
   57.2898   19.7925   44.2868 H   0  0  0  0  0  0  0  0  0  0  0  0
   56.4887   22.3167   46.2109 H   0  0  0  0  0  0  0  0  0  0  0  0
   57.2879   24.6360   46.6483 H   0  0  0  0  0  0  0  0  0  0  0  0
   57.0020   27.6840   43.1140 H   0  0  0  0  0  0  0  0  0  0  0  0
   59.0474   30.5883   44.3627 H   0  0  0  0  0  0  0  0  0  0  0  0
   57.8436   30.1184   43.0969 H   0  0  0  0  0  0  0  0  0  0  0  0
   56.1070   30.4390   44.5690 H   0  0  0  0  0  0  0  0  0  0  0  0
   57.4043   32.4301   43.5739 H   0  0  0  0  0  0  0  0  0  0  0  0
   55.9879   32.6469   44.6716 H   0  0  0  0  0  0  0  0  0  0  0  0
   57.6334   31.5540   47.1542 H   0  0  0  0  0  0  0  0  0  0  0  0
   59.1789   32.7166   48.7305 H   0  0  0  0  0  0  0  0  0  0  0  0
   59.8469   35.8227   45.7967 H   0  0  0  0  0  0  0  0  0  0  0  0
   58.3046   34.6659   44.2123 H   0  0  0  0  0  0  0  0  0  0  0  0
   59.3765   28.7966   46.4595 H   0  0  0  0  0  0  0  0  0  0  0  0
   57.2376   25.4525   42.3948 H   0  0  0  0  0  0  0  0  0  0  0  0
   56.4318   23.1377   41.9618 H   0  0  0  0  0  0  0  0  0  0  0  0
  1  2  1  0
  2  3  1  0
  3  4  2  0
  4  5  1  0
  5  6  2  0
  6  7  1  0
  7  8  2  0
  8  9  1  0
  9 10  1  0
 10 11  1  0
 11 12  1  0
 12 13  1  0
 13 14  2  0
 14 15  1  0
 15 16  2  0
 16 17  1  0
 16 18  1  0
 18 19  2  0
  9 20  2  0
 20 21  1  0
  6 22  1  0
 22 23  2  0
 23  3  1  0
 21  7  1  0
 19 13  1  0
  1 24  1  0
  1 25  1  0
  1 26  1  0
  4 27  1  0
  5 28  1  0
  8 29  1  0
 10 30  1  0
 10 31  1  0
 11 32  1  0
 12 33  1  0
 12 34  1  0
 14 35  1  0
 15 36  1  0
 18 37  1  0
 19 38  1  0
 20 39  1  0
 22 40  1  0
 23 41  1  0
M  CHG  1   8   1
M  END
>  <UniqueID>  (11) 
11

>  <SMILES>  (11) 
COc1ccc(-c2[nH+]c(CNCc3ccc(F)cc3)co2)cc1

>  <Energy>  (11) 
70.00574500860083

>  <Genealogy>  (11) 
COc1ccc(-c2[nH+]c(CNCc3ccc(F)cc3)co2)cc1 (protonated)
COc1ccc(-c2[nH+]c(CNCc3ccc(F)cc3)co2)cc1 (3D coordinates assigned)
COc1ccc(-c2[nH+]c(CNCc3ccc(F)cc3)co2)cc1 (optimized conformer: 70.00574500860083 kcal/mol)

>  <smiles>  (11) 
COc1ccc(-c2nc(CNCc3ccc(F)cc3)co2)cc1

>  <score_type>  (11) 
oracle

>  <origin>  (11) 
adg

>  <m_score__min__energy>  (11) 
-5.7599999999999998

>  <m_primary>  (11) 
energy

$$$$
11:0
     RDKit          3D

 47 51  0  0  0  0  0  0  0  0999 V2000
   57.8060   32.3130   41.7850 C   0  0  0  0  0  0  0  0  0  0  0  0
   57.4210   31.5510   42.6370 C   0  0  0  0  0  0  0  0  0  0  0  0
   56.9570   30.6230   43.6750 C   0  0  0  0  0  0  0  0  0  0  0  0
   57.0400   31.2330   44.9510 O   0  0  0  0  0  0  0  0  0  0  0  0
   58.3790   31.5850   45.2850 C   0  0  2  0  0  0  0  0  0  0  0  0
   59.0040   30.4480   46.0970 C   0  0  0  0  0  0  0  0  0  0  0  0
   58.6530   29.1270   45.7350 C   0  0  0  0  0  0  0  0  0  0  0  0
   59.2710   28.0250   46.3200 C   0  0  0  0  0  0  0  0  0  0  0  0
   60.2880   28.2100   47.2460 C   0  0  0  0  0  0  0  0  0  0  0  0
   60.6790   29.4970   47.6040 C   0  0  0  0  0  0  0  0  0  0  0  0
   60.0260   30.6340   47.0790 C   0  0  0  0  0  0  0  0  0  0  0  0
   60.5470   32.0200   47.4870 C   0  0  2  0  0  0  0  0  0  0  0  0
   60.9830   32.9620   46.3590 C   0  0  2  0  0  0  0  0  0  0  0  0
   62.1830   33.8620   46.7490 C   0  0  0  0  0  0  0  0  0  0  0  0
   62.9980   33.2060   47.8270 C   0  0  0  0  0  0  0  0  0  0  0  0
   64.2050   33.0770   47.6940 O   0  0  0  0  0  0  0  0  0  0  0  0
   62.3210   32.7750   49.1090 C   0  0  0  0  0  0  0  0  0  0  0  0
   61.0580   32.0360   48.8850 N   0  0  1  0  0  0  0  0  0  0  0  0
   59.9150   32.8980   48.5260 C   0  0  2  0  0  0  0  0  0  0  0  0
   58.4750   32.5410   48.5440 C   0  0  0  0  0  0  0  0  0  0  0  0
   57.7500   32.7840   47.4280 C   0  0  0  0  0  0  0  0  0  0  0  0
   58.3480   32.9550   46.0090 C   0  0  1  0  0  0  0  0  0  0  0  0
   59.7120   33.7400   45.8280 C   0  0  1  0  0  0  0  0  0  0  0  0
   59.5860   35.0080   46.4600 O   0  0  0  0  0  0  0  0  0  0  0  0
   59.6960   36.0600   45.5260 C   0  0  0  0  0  0  0  0  0  0  0  0
   58.1571   33.0079   41.0080 H   0  0  0  0  0  0  0  0  0  0  0  0
   55.9121   30.3450   43.4727 H   0  0  0  0  0  0  0  0  0  0  0  0
   57.5938   29.7261   43.6645 H   0  0  0  0  0  0  0  0  0  0  0  0
   59.0195   31.7081   44.3992 H   0  0  0  0  0  0  0  0  0  0  0  0
   57.8746   28.9664   44.9745 H   0  0  0  0  0  0  0  0  0  0  0  0
   58.9531   27.0076   46.0482 H   0  0  0  0  0  0  0  0  0  0  0  0
   60.7855   27.3389   47.6974 H   0  0  0  0  0  0  0  0  0  0  0  0
   61.5125   29.6311   48.3092 H   0  0  0  0  0  0  0  0  0  0  0  0
   61.3859   32.3736   45.5215 H   0  0  0  0  0  0  0  0  0  0  0  0
   62.8161   34.0261   45.8645 H   0  0  0  0  0  0  0  0  0  0  0  0
   61.8022   34.8236   47.1235 H   0  0  0  0  0  0  0  0  0  0  0  0
   63.0113   32.1253   49.6669 H   0  0  0  0  0  0  0  0  0  0  0  0
   62.0690   33.6887   49.6672 H   0  0  0  0  0  0  0  0  0  0  0  0
   60.7410   31.3260   49.5850 H   0  0  0  0  0  0  0  0  0  0  0  0
   59.7491   33.9366   48.8481 H   0  0  0  0  0  0  0  0  0  0  0  0
   58.0120   32.0933   49.4357 H   0  0  0  0  0  0  0  0  0  0  0  0
   56.6584   32.8660   47.5357 H   0  0  0  0  0  0  0  0  0  0  0  0
   57.6483   33.6600   45.5363 H   0  0  0  0  0  0  0  0  0  0  0  0
   59.8885   33.8557   44.7484 H   0  0  0  0  0  0  0  0  0  0  0  0
   59.7960   37.0161   46.0607 H   0  0  0  0  0  0  0  0  0  0  0  0
   60.5822   35.8986   44.8946 H   0  0  0  0  0  0  0  0  0  0  0  0
   58.7956   36.0854   44.8946 H   0  0  0  0  0  0  0  0  0  0  0  0
  1  2  3  0
  2  3  1  0
  3  4  1  0
  4  5  1  0
  5  6  1  0
  6  7  2  0
  7  8  1  0
  8  9  2  0
  9 10  1  0
 10 11  2  0
 12 11  1  6
 12 13  1  0
 13 14  1  0
 14 15  1  0
 15 16  2  0
 15 17  1  0
 17 18  1  0
 18 19  1  0
 19 20  1  0
 20 21  2  0
 21 22  1  0
 22 23  1  0
 23 24  1  0
 24 25  1  0
 22  5  1  0
 11  6  1  0
 18 12  1  0
 19 12  1  0
 23 13  1  0
  1 26  1  0
  3 27  1  0
  3 28  1  0
  5 29  1  6
  7 30  1  0
  8 31  1  0
  9 32  1  0
 10 33  1  0
 13 34  1  6
 14 35  1  0
 14 36  1  0
 17 37  1  0
 17 38  1  0
 18 39  1  1
 19 40  1  6
 20 41  1  0
 21 42  1  0
 22 43  1  6
 23 44  1  6
 25 45  1  0
 25 46  1  0
 25 47  1  0
M  CHG  1  18   1
M  END
>  <UniqueID>  (12) 
12

>  <SMILES>  (12) 
C#CCO[C@@H]1c2ccccc2[C@]23C4CC(=O)C[NH+]2C3C=CC1C4OC

>  <Energy>  (12) 
468.5385642423887

>  <Genealogy>  (12) 
C#CCOC1c2ccccc2C23C4CC(=O)C[NH+]2C3C=CC1C4OC (protonated)
C#CCO[C@@H]1c2ccccc2[C@]23C4CC(=O)C[NH+]2C3C=CC1C4OC (chirality)
C#CCO[C@@H]1c2ccccc2[C@]23C4CC(=O)C[NH+]2C3C=CC1C4OC (3D coordinates assigned)
C#CCO[C@@H]1c2ccccc2[C@]23C4CC(=O)C[NH+]2C3C=CC1C4OC (nonaromatic ring conformer: 468.5385642423887 kcal/mol)

>  <smiles>  (12) 
C#CCOC1c2ccccc2C23C4CC(=O)CN2C3C=CC1C4OC

>  <score_type>  (12) 
oracle

>  <origin>  (12) 
adg

>  <m_score__min__energy>  (12) 
-4.5300000000000002

>  <m_primary>  (12) 
energy

$$$$
12:0
     RDKit          3D

 25 26  0  0  0  0  0  0  0  0999 V2000
   56.2690   27.4350   45.6160 N   0  0  0  0  0  0  0  0  0  0  0  0
   56.7120   28.6510   45.0070 C   0  0  0  0  0  0  0  0  0  0  0  0
   55.7990   29.4820   44.3420 C   0  0  0  0  0  0  0  0  0  0  0  0
   56.2350   30.6710   43.7480 C   0  0  0  0  0  0  0  0  0  0  0  0
   57.5840   31.0390   43.8190 C   0  0  0  0  0  0  0  0  0  0  0  0
   58.1390   32.5670   43.0630 S   0  0  0  0  0  0  0  0  0  0  0  0
   58.4290   33.3550   44.6470 C   0  0  0  0  0  0  0  0  0  0  0  0
   59.4630   34.2900   44.7890 C   0  0  0  0  0  0  0  0  0  0  0  0
   59.6910   34.9000   46.0260 C   0  0  0  0  0  0  0  0  0  0  0  0
   58.8860   34.5810   47.1230 C   0  0  0  0  0  0  0  0  0  0  0  0
   57.8510   33.6510   46.9840 C   0  0  0  0  0  0  0  0  0  0  0  0
   57.6200   33.0390   45.7460 C   0  0  0  0  0  0  0  0  0  0  0  0
   58.4980   30.2100   44.4800 C   0  0  0  0  0  0  0  0  0  0  0  0
   58.0640   29.0210   45.0730 C   0  0  0  0  0  0  0  0  0  0  0  0
   55.9710   26.6220   45.0320 H   0  0  0  0  0  0  0  0  0  0  0  0
   56.2340   27.3410   46.6560 H   0  0  0  0  0  0  0  0  0  0  0  0
   54.7376   29.1982   44.2873 H   0  0  0  0  0  0  0  0  0  0  0  0
   55.5164   31.3183   43.2240 H   0  0  0  0  0  0  0  0  0  0  0  0
   60.0960   34.5443   43.9261 H   0  0  0  0  0  0  0  0  0  0  0  0
   60.5048   35.6318   46.1360 H   0  0  0  0  0  0  0  0  0  0  0  0
   59.0666   35.0615   48.0959 H   0  0  0  0  0  0  0  0  0  0  0  0
   57.2179   33.4001   47.8478 H   0  0  0  0  0  0  0  0  0  0  0  0
   56.8034   32.3102   45.6365 H   0  0  0  0  0  0  0  0  0  0  0  0
   59.5592   30.4947   44.5328 H   0  0  0  0  0  0  0  0  0  0  0  0
   58.7848   28.3731   45.5932 H   0  0  0  0  0  0  0  0  0  0  0  0
  1  2  1  0
  2  3  2  0
  3  4  1  0
  4  5  2  0
  5  6  1  0
  6  7  1  0
  7  8  2  0
  8  9  1  0
  9 10  2  0
 10 11  1  0
 11 12  2  0
  5 13  1  0
 13 14  2  0
 14  2  1  0
 12  7  1  0
  1 15  1  0
  1 16  1  0
  3 17  1  0
  4 18  1  0
  8 19  1  0
  9 20  1  0
 10 21  1  0
 11 22  1  0
 12 23  1  0
 13 24  1  0
 14 25  1  0
M  END
>  <UniqueID>  (13) 
13

>  <SMILES>  (13) 
Nc1ccc(Sc2ccccc2)cc1

>  <Energy>  (13) 
20.037749011647293

>  <Genealogy>  (13) 
Nc1ccc(Sc2ccccc2)cc1 (3D coordinates assigned)
Nc1ccc(Sc2ccccc2)cc1 (optimized conformer: 20.037749011647293 kcal/mol)

>  <smiles>  (13) 
Nc1ccc(Sc2ccccc2)cc1

>  <score_type>  (13) 
oracle

>  <origin>  (13) 
adg

>  <m_score__min__energy>  (13) 
-6.4699999999999998

>  <m_primary>  (13) 
energy

$$$$
13:0
     RDKit          3D

 27 28  0  0  0  0  0  0  0  0999 V2000
   59.3680   34.7910   45.8340 C   0  0  0  0  0  0  0  0  0  0  0  0
   58.6370   33.5260   46.2680 C   0  0  0  0  0  0  0  0  0  0  0  0
   58.1140   32.7900   45.0750 C   0  0  0  0  0  0  0  0  0  0  0  0
   57.3570   31.6800   45.1510 N   0  0  0  0  0  0  0  0  0  0  0  0
   57.1450   31.3360   43.8690 C   0  0  0  0  0  0  0  0  0  0  0  0
   56.4130   30.1070   43.4240 C   0  0  0  0  0  0  0  0  0  0  0  0
   55.8880   29.3770   44.5770 N   0  0  0  0  0  0  0  0  0  0  0  0
   56.5970   28.6260   45.3680 C   0  0  0  0  0  0  0  0  0  0  0  0
   56.2360   27.3380   45.6230 N   0  0  0  0  0  0  0  0  0  0  0  0
   56.9720   26.5540   46.4520 C   0  0  0  0  0  0  0  0  0  0  0  0
   58.1190   27.0680   47.0560 C   0  0  0  0  0  0  0  0  0  0  0  0
   58.4790   28.3870   46.7830 C   0  0  0  0  0  0  0  0  0  0  0  0
   57.7140   29.1390   45.9480 N   0  0  0  0  0  0  0  0  0  0  0  0
   57.7910   32.2430   43.0550 C   0  0  0  0  0  0  0  0  0  0  0  0
   58.3770   33.1280   43.8310 O   0  0  0  0  0  0  0  0  0  0  0  0
   59.6916   35.3510   46.7237 H   0  0  0  0  0  0  0  0  0  0  0  0
   60.2476   34.5181   45.2325 H   0  0  0  0  0  0  0  0  0  0  0  0
   58.6923   35.4169   45.2325 H   0  0  0  0  0  0  0  0  0  0  0  0
   59.3331   32.8759   46.8183 H   0  0  0  0  0  0  0  0  0  0  0  0
   57.7912   33.8064   46.9131 H   0  0  0  0  0  0  0  0  0  0  0  0
   57.0280   31.1850   46.0100 H   0  0  0  0  0  0  0  0  0  0  0  0
   55.5781   30.3999   42.7704 H   0  0  0  0  0  0  0  0  0  0  0  0
   57.1115   29.4552   42.8787 H   0  0  0  0  0  0  0  0  0  0  0  0
   56.6643   25.5160   46.6467 H   0  0  0  0  0  0  0  0  0  0  0  0
   58.7255   26.4474   47.7320 H   0  0  0  0  0  0  0  0  0  0  0  0
   59.3805   28.8184   47.2425 H   0  0  0  0  0  0  0  0  0  0  0  0
   57.8121   32.2285   41.9553 H   0  0  0  0  0  0  0  0  0  0  0  0
  1  2  1  0
  2  3  1  0
  3  4  2  0
  4  5  1  0
  5  6  1  0
  6  7  1  0
  7  8  2  3
  8  9  1  0
  9 10  2  0
 10 11  1  0
 11 12  2  0
 12 13  1  0
  5 14  2  0
 14 15  1  0
 15  3  1  0
 13  8  1  0
  1 16  1  0
  1 17  1  0
  1 18  1  0
  2 19  1  0
  2 20  1  0
  4 21  1  0
  6 22  1  0
  6 23  1  0
 10 24  1  0
 11 25  1  0
 12 26  1  0
 14 27  1  0
M  CHG  2   4   1  13  -1
M  END
>  <UniqueID>  (14) 
14

>  <SMILES>  (14) 
CCc1[nH+]c(CN=c2nccc[n-]2)co1

>  <Energy>  (14) 
53.09423957525641

>  <Genealogy>  (14) 
CCc1[nH+]c(CN=c2nccc[n-]2)co1 (protonated)
CCc1[nH+]c(CN=c2nccc[n-]2)co1 (3D coordinates assigned)
CCc1[nH+]c(CN=c2nccc[n-]2)co1 (optimized conformer: 53.09423957525641 kcal/mol)

>  <smiles>  (14) 
CCc1nc(CN=c2nccc[nH]2)co1

>  <score_type>  (14) 
oracle

>  <origin>  (14) 
adg

>  <m_score__min__energy>  (14) 
-5.3499999999999996

>  <m_primary>  (14) 
energy

$$$$
14:0
     RDKit          3D

 36 38  0  0  0  0  0  0  0  0999 V2000
   59.6660   26.6750   48.1240 C   0  0  0  0  0  0  0  0  0  0  0  0
   58.5630   26.6840   47.2220 O   0  0  0  0  0  0  0  0  0  0  0  0
   58.2910   27.7030   46.2950 C   0  0  0  0  0  0  0  0  0  0  0  0
   59.2950   28.6100   45.9010 C   0  0  0  0  0  0  0  0  0  0  0  0
   59.0220   29.6200   44.9820 C   0  0  0  0  0  0  0  0  0  0  0  0
   57.7400   29.7580   44.4410 C   0  0  0  0  0  0  0  0  0  0  0  0
   57.4620   30.7960   43.4860 N   0  0  0  0  0  0  0  0  0  0  0  0
   57.0280   30.5860   42.2550 N   0  0  0  0  0  0  0  0  0  0  0  0
   57.0150   31.7250   41.5830 N   0  0  0  0  0  0  0  0  0  0  0  0
   57.4400   32.7060   42.3700 N   0  0  0  0  0  0  0  0  0  0  0  0
   57.7170   32.1220   43.5550 C   0  0  0  0  0  0  0  0  0  0  0  0
   58.1760   32.8710   44.7440 C   0  0  0  0  0  0  0  0  0  0  0  0
   59.1350   33.8950   44.6330 C   0  0  0  0  0  0  0  0  0  0  0  0
   59.5650   34.5840   45.7710 C   0  0  0  0  0  0  0  0  0  0  0  0
   59.0560   34.2490   47.0270 C   0  0  0  0  0  0  0  0  0  0  0  0
   58.1210   33.2190   47.1500 C   0  0  0  0  0  0  0  0  0  0  0  0
   57.6870   32.5270   46.0160 C   0  0  0  0  0  0  0  0  0  0  0  0
   56.7350   28.8550   44.8160 C   0  0  0  0  0  0  0  0  0  0  0  0
   55.4850   28.9870   44.3020 F   0  0  0  0  0  0  0  0  0  0  0  0
   56.9920   27.8300   45.7400 C   0  0  0  0  0  0  0  0  0  0  0  0
   55.9130   26.9830   46.0590 O   0  0  0  0  0  0  0  0  0  0  0  0
   55.9120   25.5600   46.0080 C   0  0  0  0  0  0  0  0  0  0  0  0
   59.2933   26.6780   49.1589 H   0  0  0  0  0  0  0  0  0  0  0  0
   60.2708   25.7719   47.9547 H   0  0  0  0  0  0  0  0  0  0  0  0
   60.2854   27.5681   47.9547 H   0  0  0  0  0  0  0  0  0  0  0  0
   60.3062   28.5191   46.3244 H   0  0  0  0  0  0  0  0  0  0  0  0
   59.8202   30.3139   44.6796 H   0  0  0  0  0  0  0  0  0  0  0  0
   56.7770   29.6570   41.8510 H   0  0  0  0  0  0  0  0  0  0  0  0
   59.5479   34.1543   43.6470 H   0  0  0  0  0  0  0  0  0  0  0  0
   60.3058   35.3916   45.6765 H   0  0  0  0  0  0  0  0  0  0  0  0
   59.3915   34.7965   47.9201 H   0  0  0  0  0  0  0  0  0  0  0  0
   57.7255   32.9519   48.1411 H   0  0  0  0  0  0  0  0  0  0  0  0
   56.9590   31.7089   46.1195 H   0  0  0  0  0  0  0  0  0  0  0  0
   55.9117   25.1564   47.0313 H   0  0  0  0  0  0  0  0  0  0  0  0
   55.0136   25.2128   45.4767 H   0  0  0  0  0  0  0  0  0  0  0  0
   56.8099   25.2115   45.4767 H   0  0  0  0  0  0  0  0  0  0  0  0
  1  2  1  0
  2  3  1  0
  3  4  2  0
  4  5  1  0
  5  6  2  0
  6  7  1  0
  7  8  1  0
  8  9  2  0
  9 10  1  0
 10 11  2  0
 11 12  1  0
 12 13  2  0
 13 14  1  0
 14 15  2  0
 15 16  1  0
 16 17  2  0
  6 18  1  0
 18 19  1  0
 18 20  2  0
 20 21  1  0
 21 22  1  0
 20  3  1  0
 11  7  1  0
 17 12  1  0
  1 23  1  0
  1 24  1  0
  1 25  1  0
  4 26  1  0
  5 27  1  0
  8 28  1  0
 13 29  1  0
 14 30  1  0
 15 31  1  0
 16 32  1  0
 17 33  1  0
 22 34  1  0
 22 35  1  0
 22 36  1  0
M  CHG  1   8   1
M  END
>  <UniqueID>  (15) 
15

>  <SMILES>  (15) 
COc1ccc(-n2[nH+]nnc2-c2ccccc2)c(F)c1OC

>  <Energy>  (15) 
89.99792255341261

>  <Genealogy>  (15) 
COc1ccc(-n2[nH+]nnc2-c2ccccc2)c(F)c1OC (protonated)
COc1ccc(-n2[nH+]nnc2-c2ccccc2)c(F)c1OC (3D coordinates assigned)
COc1ccc(-n2[nH+]nnc2-c2ccccc2)c(F)c1OC (optimized conformer: 89.99792255341261 kcal/mol)

>  <smiles>  (15) 
COc1ccc(-n2nnnc2-c2ccccc2)c(F)c1OC

>  <score_type>  (15) 
oracle

>  <origin>  (15) 
adg

>  <m_score__min__energy>  (15) 
-6.25

>  <m_primary>  (15) 
energy

$$$$
15:0
     RDKit          3D

 49 53  0  0  0  0  0  0  0  0999 V2000
   55.6990   26.6930   46.2670 O   0  0  0  0  0  0  0  0  0  0  0  0
   56.3630   27.5090   45.5710 C   0  0  0  0  0  0  0  0  0  0  0  0
   57.7240   27.1290   45.0830 C   0  0  0  0  0  0  0  0  0  0  0  0
   58.7650   27.9880   45.7470 C   0  0  0  0  0  0  0  0  0  0  0  0
   58.8000   28.1000   47.1480 C   0  0  0  0  0  0  0  0  0  0  0  0
   59.7930   28.8660   47.7670 C   0  0  0  0  0  0  0  0  0  0  0  0
   60.7600   29.5160   46.9970 C   0  0  0  0  0  0  0  0  0  0  0  0
   60.7380   29.4000   45.6040 C   0  0  0  0  0  0  0  0  0  0  0  0
   59.7490   28.6340   44.9790 C   0  0  0  0  0  0  0  0  0  0  0  0
   55.8300   28.7970   45.2420 N   0  0  0  0  0  0  0  0  0  0  0  0
   56.4880   29.8140   44.4730 C   0  0  0  0  0  0  0  0  0  0  0  0
   56.3710   29.8780   43.0740 C   0  0  0  0  0  0  0  0  0  0  0  0
   57.0090   30.8970   42.3630 C   0  0  0  0  0  0  0  0  0  0  0  0
   57.7480   31.8710   43.0390 C   0  0  0  0  0  0  0  0  0  0  0  0
   57.8380   31.8450   44.4400 C   0  0  0  0  0  0  0  0  0  0  0  0
   58.6090   32.8690   45.1740 C   0  0  0  0  0  0  0  0  0  0  0  0
   59.2910   33.8710   44.5700 N   0  0  0  0  0  0  0  0  0  0  0  0
   59.8820   34.6200   45.4960 N   0  0  0  0  0  0  0  0  0  0  0  0
   59.5780   34.0890   46.6930 C   0  0  0  0  0  0  0  0  0  0  0  0
   60.0020   34.5220   47.9440 C   0  0  0  0  0  0  0  0  0  0  0  0
   59.5990   33.7780   49.0680 C   0  0  0  0  0  0  0  0  0  0  0  0
   58.7950   32.6150   48.9230 C   0  0  0  0  0  0  0  0  0  0  0  0
   58.3900   31.8270   50.1130 C   0  0  0  0  0  0  0  0  0  0  0  0
   57.8890   32.4600   51.2630 C   0  0  0  0  0  0  0  0  0  0  0  0
   57.5200   31.7040   52.3770 C   0  0  0  0  0  0  0  0  0  0  0  0
   57.6510   30.3160   52.3350 C   0  0  0  0  0  0  0  0  0  0  0  0
   58.1330   29.7110   51.2190 N   0  0  0  0  0  0  0  0  0  0  0  0
   58.5030   30.4250   50.1210 C   0  0  0  0  0  0  0  0  0  0  0  0
   58.3910   32.2080   47.6280 C   0  0  0  0  0  0  0  0  0  0  0  0
   58.7870   32.9870   46.5400 C   0  0  0  0  0  0  0  0  0  0  0  0
   57.2110   30.8060   45.1490 C   0  0  0  0  0  0  0  0  0  0  0  0
   57.9156   26.0728   45.3230 H   0  0  0  0  0  0  0  0  0  0  0  0
   57.7727   27.2780   43.9942 H   0  0  0  0  0  0  0  0  0  0  0  0
   58.0446   27.5839   47.7587 H   0  0  0  0  0  0  0  0  0  0  0  0
   59.8124   28.9567   48.8631 H   0  0  0  0  0  0  0  0  0  0  0  0
   61.5388   30.1191   47.4865 H   0  0  0  0  0  0  0  0  0  0  0  0
   61.5001   29.9123   44.9984 H   0  0  0  0  0  0  0  0  0  0  0  0
   59.7411   28.5368   43.8833 H   0  0  0  0  0  0  0  0  0  0  0  0
   55.7758   29.1241   42.5379 H   0  0  0  0  0  0  0  0  0  0  0  0
   56.9293   30.9327   41.2665 H   0  0  0  0  0  0  0  0  0  0  0  0
   58.2613   32.6613   42.4716 H   0  0  0  0  0  0  0  0  0  0  0  0
   60.6321   35.4172   48.0516 H   0  0  0  0  0  0  0  0  0  0  0  0
   59.9103   34.1007   50.0725 H   0  0  0  0  0  0  0  0  0  0  0  0
   57.7872   33.5550   51.2856 H   0  0  0  0  0  0  0  0  0  0  0  0
   57.1298   32.1980   53.2790 H   0  0  0  0  0  0  0  0  0  0  0  0
   57.3634   29.7106   53.2072 H   0  0  0  0  0  0  0  0  0  0  0  0
   58.8926   29.9027   49.2348 H   0  0  0  0  0  0  0  0  0  0  0  0
   57.7822   31.3033   47.4839 H   0  0  0  0  0  0  0  0  0  0  0  0
   57.2886   30.7711   46.2457 H   0  0  0  0  0  0  0  0  0  0  0  0
  1  2  2  0
  2  3  1  0
  3  4  1  0
  4  5  2  0
  5  6  1  0
  6  7  2  0
  7  8  1  0
  8  9  2  0
  2 10  1  0
 10 11  1  0
 11 12  2  0
 12 13  1  0
 13 14  2  0
 14 15  1  0
 15 16  1  0
 16 17  1  0
 17 18  1  0
 18 19  2  0
 19 20  1  0
 20 21  2  0
 21 22  1  0
 22 23  1  0
 23 24  2  0
 24 25  1  0
 25 26  2  0
 26 27  1  0
 27 28  2  0
 22 29  2  0
 29 30  1  0
 15 31  2  0
  9  4  1  0
 31 11  1  0
 30 16  2  0
 30 19  1  0
 28 23  1  0
  3 32  1  0
  3 33  1  0
  5 34  1  0
  6 35  1  0
  7 36  1  0
  8 37  1  0
  9 38  1  0
 12 39  1  0
 13 40  1  0
 14 41  1  0
 20 42  1  0
 21 43  1  0
 24 44  1  0
 25 45  1  0
 26 46  1  0
 28 47  1  0
 29 48  1  0
 31 49  1  0
M  CHG  2  10  -1  17  -1
M  END
>  <UniqueID>  (16) 
16

>  <SMILES>  (16) 
O=C(Cc1ccccc1)[N-]c1cccc(-c2[n-]nc3ccc(-c4cccnc4)cc23)c1

>  <Energy>  (16) 
105.53959933142862

>  <Genealogy>  (16) 
O=C(Cc1ccccc1)[N-]c1cccc(-c2[n-]nc3ccc(-c4cccnc4)cc23)c1 (protonated)
O=C(Cc1ccccc1)[N-]c1cccc(-c2[n-]nc3ccc(-c4cccnc4)cc23)c1 (3D coordinates assigned)
O=C(Cc1ccccc1)[N-]c1cccc(-c2[n-]nc3ccc(-c4cccnc4)cc23)c1 (optimized conformer: 105.53959933142862 kcal/mol)

>  <smiles>  (16) 
O=C(Cc1ccccc1)Nc1cccc(-c2[nH]nc3ccc(-c4cccnc4)cc23)c1

>  <score_type>  (16) 
oracle

>  <origin>  (16) 
adg

>  <m_score__min__energy>  (16) 
-13.949999999999999

>  <m_primary>  (16) 
energy

$$$$
16:0
     RDKit          3D

 46 49  0  0  0  0  0  0  0  0999 V2000
   57.7380   21.1850   43.5200 C   0  0  0  0  0  0  0  0  0  0  0  0
   56.9130   22.2240   44.0250 O   0  0  0  0  0  0  0  0  0  0  0  0
   57.3940   23.3290   44.7360 C   0  0  0  0  0  0  0  0  0  0  0  0
   58.6730   23.2570   45.2860 C   0  0  0  0  0  0  0  0  0  0  0  0
   59.2140   24.3460   45.9690 C   0  0  0  0  0  0  0  0  0  0  0  0
   58.4930   25.5430   46.0950 C   0  0  0  0  0  0  0  0  0  0  0  0
   57.1850   25.6210   45.5540 C   0  0  0  0  0  0  0  0  0  0  0  0
   56.6430   24.5070   44.8960 C   0  0  0  0  0  0  0  0  0  0  0  0
   56.3510   26.8420   45.6650 C   0  0  0  0  0  0  0  0  0  0  0  0
   55.1400   26.7140   46.0120 O   0  0  0  0  0  0  0  0  0  0  0  0
   56.8590   28.1530   45.3220 N   0  0  0  0  0  0  0  0  0  0  0  0
   55.9110   29.2460   45.1020 C   0  0  0  0  0  0  0  0  0  0  0  0
   58.2910   28.3760   45.1150 C   0  0  0  0  0  0  0  0  0  0  0  0
   59.0400   27.9510   46.3400 C   0  0  0  0  0  0  0  0  0  0  0  0
   59.8800   28.6980   47.1510 C   0  0  0  0  0  0  0  0  0  0  0  0
   60.2120   30.1260   47.0390 C   0  0  0  0  0  0  0  0  0  0  0  0
   59.4090   31.0080   46.4090 N   0  0  0  0  0  0  0  0  0  0  0  0
   59.8840   32.2860   46.4710 C   0  0  0  0  0  0  0  0  0  0  0  0
   59.0460   33.4310   45.9490 C   0  0  0  0  0  0  0  0  0  0  0  0
   59.2510   34.7380   46.7290 C   0  0  0  0  0  0  0  0  0  0  0  0
   57.5660   33.0350   45.9610 C   0  0  0  0  0  0  0  0  0  0  0  0
   61.0910   32.4220   47.1670 C   0  0  0  0  0  0  0  0  0  0  0  0
   61.5630   30.8940   47.6860 S   0  0  0  0  0  0  0  0  0  0  0  0
   60.4880   27.8750   48.0310 N   0  0  0  0  0  0  0  0  0  0  0  0
   59.9880   26.6530   47.7560 C   0  0  0  0  0  0  0  0  0  0  0  0
   59.1030   26.6710   46.7380 N   0  0  0  0  0  0  0  0  0  0  0  0
   58.1805   20.6277   44.3588 H   0  0  0  0  0  0  0  0  0  0  0  0
   57.1330   20.5026   42.9049 H   0  0  0  0  0  0  0  0  0  0  0  0
   58.5398   21.6196   42.9049 H   0  0  0  0  0  0  0  0  0  0  0  0
   59.2607   22.3331   45.1803 H   0  0  0  0  0  0  0  0  0  0  0  0
   60.2169   24.2656   46.4137 H   0  0  0  0  0  0  0  0  0  0  0  0
   55.6178   24.5556   44.5003 H   0  0  0  0  0  0  0  0  0  0  0  0
   55.5713   29.6376   46.0722 H   0  0  0  0  0  0  0  0  0  0  0  0
   56.4030   30.0494   44.5342 H   0  0  0  0  0  0  0  0  0  0  0  0
   55.0461   28.8725   44.5342 H   0  0  0  0  0  0  0  0  0  0  0  0
   58.6337   27.7866   44.2518 H   0  0  0  0  0  0  0  0  0  0  0  0
   58.4738   29.4436   44.9231 H   0  0  0  0  0  0  0  0  0  0  0  0
   59.3788   33.6281   44.9192 H   0  0  0  0  0  0  0  0  0  0  0  0
   59.2183   34.5297   47.8086 H   0  0  0  0  0  0  0  0  0  0  0  0
   60.2280   35.1711   46.4685 H   0  0  0  0  0  0  0  0  0  0  0  0
   58.4535   35.4494   46.4685 H   0  0  0  0  0  0  0  0  0  0  0  0
   57.2197   32.9423   47.0009 H   0  0  0  0  0  0  0  0  0  0  0  0
   56.9757   33.8068   45.4453 H   0  0  0  0  0  0  0  0  0  0  0  0
   57.4400   32.0716   45.4453 H   0  0  0  0  0  0  0  0  0  0  0  0
   61.6344   33.3621   47.3431 H   0  0  0  0  0  0  0  0  0  0  0  0
   60.2710   25.7411   48.3022 H   0  0  0  0  0  0  0  0  0  0  0  0
  1  2  1  0
  2  3  1  0
  3  4  2  0
  4  5  1  0
  5  6  2  0
  6  7  1  0
  7  8  2  0
  7  9  1  0
  9 10  2  0
  9 11  1  0
 11 12  1  0
 11 13  1  0
 13 14  1  0
 14 15  2  0
 15 16  1  0
 16 17  2  0
 17 18  1  0
 18 19  1  0
 19 20  1  0
 19 21  1  0
 18 22  2  0
 22 23  1  0
 15 24  1  0
 24 25  2  0
 25 26  1  0
  8  3  1  0
 26 14  1  0
 26  6  1  0
 23 16  1  0
  1 27  1  0
  1 28  1  0
  1 29  1  0
  4 30  1  0
  5 31  1  0
  8 32  1  0
 12 33  1  0
 12 34  1  0
 12 35  1  0
 13 36  1  0
 13 37  1  0
 19 38  1  0
 20 39  1  0
 20 40  1  0
 20 41  1  0
 21 42  1  0
 21 43  1  0
 21 44  1  0
 22 45  1  0
 25 46  1  0
M  END
>  <UniqueID>  (17) 
17

>  <SMILES>  (17) 
COc1ccc2c(c1)C(=O)N(C)Cc1c(-c3nc(C(C)C)cs3)ncn1-2

>  <Energy>  (17) 
120.46295902546797

>  <Genealogy>  (17) 
COc1ccc2c(c1)C(=O)N(C)Cc1c(-c3nc(C(C)C)cs3)ncn1-2 (3D coordinates assigned)
COc1ccc2c(c1)C(=O)N(C)Cc1c(-c3nc(C(C)C)cs3)ncn1-2 (nonaromatic ring conformer: 120.46295902546797 kcal/mol)

>  <smiles>  (17) 
COc1ccc2c(c1)C(=O)N(C)Cc1c(-c3nc(C(C)C)cs3)ncn1-2

>  <score_type>  (17) 
oracle

>  <origin>  (17) 
adg

>  <m_score__min__energy>  (17) 
-7.4199999999999999

>  <m_primary>  (17) 
energy

$$$$
17:0
     RDKit          3D

 42 43  0  0  0  0  0  0  0  0999 V2000
   56.0970   30.0600   43.4810 C   0  0  0  0  0  0  0  0  0  0  0  0
   56.0900   30.0010   44.8900 O   0  0  0  0  0  0  0  0  0  0  0  0
   57.2740   29.3880   45.3660 C   0  0  0  0  0  0  0  0  0  0  0  0
   58.4950   30.2130   44.9510 C   0  0  0  0  0  0  0  0  0  0  0  0
   59.8030   29.5190   45.3430 C   0  0  0  0  0  0  0  0  0  0  0  0
   60.5100   30.3110   46.3460 N   0  0  0  0  0  0  0  0  0  0  0  0
   60.0540   30.4150   47.7010 C   0  0  0  0  0  0  0  0  0  0  0  0
   58.9050   30.0040   48.0190 O   0  0  0  0  0  0  0  0  0  0  0  0
   60.9400   31.0150   48.7520 C   0  0  0  0  0  0  0  0  0  0  0  0
   61.8730   31.9760   48.1550 N   0  0  0  0  0  0  0  0  0  0  0  0
   63.1660   31.7240   47.8700 C   0  0  0  0  0  0  0  0  0  0  0  0
   63.7610   32.8470   47.3350 C   0  0  0  0  0  0  0  0  0  0  0  0
   62.7910   33.8280   47.2930 C   0  0  0  0  0  0  0  0  0  0  0  0
   61.6380   33.2660   47.8120 C   0  0  0  0  0  0  0  0  0  0  0  0
   60.3360   33.9590   47.9380 C   0  0  0  0  0  0  0  0  0  0  0  0
   60.0980   34.6090   48.9910 O   0  0  0  0  0  0  0  0  0  0  0  0
   59.3030   33.9090   46.8700 C   0  0  0  0  0  0  0  0  0  0  0  0
   57.9900   33.4740   47.1390 C   0  0  0  0  0  0  0  0  0  0  0  0
   57.0420   33.4000   46.1140 C   0  0  0  0  0  0  0  0  0  0  0  0
   57.3920   33.7480   44.8090 C   0  0  0  0  0  0  0  0  0  0  0  0
   58.6920   34.1720   44.5260 C   0  0  0  0  0  0  0  0  0  0  0  0
   59.6440   34.2510   45.5470 C   0  0  0  0  0  0  0  0  0  0  0  0
   56.2209   31.1043   43.1584 H   0  0  0  0  0  0  0  0  0  0  0  0
   56.9297   29.4550   43.0928 H   0  0  0  0  0  0  0  0  0  0  0  0
   55.1459   29.6667   43.0928 H   0  0  0  0  0  0  0  0  0  0  0  0
   57.2345   29.3228   46.4634 H   0  0  0  0  0  0  0  0  0  0  0  0
   57.3566   28.3795   44.9347 H   0  0  0  0  0  0  0  0  0  0  0  0
   58.4777   30.3525   43.8600 H   0  0  0  0  0  0  0  0  0  0  0  0
   58.4495   31.1812   45.4711 H   0  0  0  0  0  0  0  0  0  0  0  0
   59.5777   28.5250   45.7568 H   0  0  0  0  0  0  0  0  0  0  0  0
   60.4383   29.4176   44.4508 H   0  0  0  0  0  0  0  0  0  0  0  0
   61.3920   30.8000   46.0670 H   0  0  0  0  0  0  0  0  0  0  0  0
   60.3175   31.5313   49.4976 H   0  0  0  0  0  0  0  0  0  0  0  0
   61.5180   30.2101   49.2296 H   0  0  0  0  0  0  0  0  0  0  0  0
   63.6728   30.7625   48.0395 H   0  0  0  0  0  0  0  0  0  0  0  0
   64.8061   32.9425   47.0055 H   0  0  0  0  0  0  0  0  0  0  0  0
   62.9111   34.8558   46.9198 H   0  0  0  0  0  0  0  0  0  0  0  0
   57.7086   33.1903   48.1638 H   0  0  0  0  0  0  0  0  0  0  0  0
   56.0177   33.0666   46.3370 H   0  0  0  0  0  0  0  0  0  0  0  0
   56.6447   33.6884   44.0040 H   0  0  0  0  0  0  0  0  0  0  0  0
   58.9680   34.4447   43.4967 H   0  0  0  0  0  0  0  0  0  0  0  0
   60.6669   34.5827   45.3152 H   0  0  0  0  0  0  0  0  0  0  0  0
  1  2  1  0
  2  3  1  0
  3  4  1  0
  4  5  1  0
  5  6  1  0
  6  7  1  0
  7  8  2  0
  7  9  1  0
  9 10  1  0
 10 11  1  0
 11 12  2  0
 12 13  1  0
 13 14  2  0
 14 15  1  0
 15 16  2  0
 15 17  1  0
 17 18  2  0
 18 19  1  0
 19 20  2  0
 20 21  1  0
 21 22  2  0
 14 10  1  0
 22 17  1  0
  1 23  1  0
  1 24  1  0
  1 25  1  0
  3 26  1  0
  3 27  1  0
  4 28  1  0
  4 29  1  0
  5 30  1  0
  5 31  1  0
  6 32  1  0
  9 33  1  0
  9 34  1  0
 11 35  1  0
 12 36  1  0
 13 37  1  0
 18 38  1  0
 19 39  1  0
 20 40  1  0
 21 41  1  0
 22 42  1  0
M  END
>  <UniqueID>  (18) 
18

>  <SMILES>  (18) 
COCCCNC(=O)Cn1cccc1C(=O)c1ccccc1

>  <Energy>  (18) 
63.82148833539762

>  <Genealogy>  (18) 
COCCCNC(=O)Cn1cccc1C(=O)c1ccccc1 (3D coordinates assigned)
COCCCNC(=O)Cn1cccc1C(=O)c1ccccc1 (optimized conformer: 63.82148833539762 kcal/mol)

>  <smiles>  (18) 
COCCCNC(=O)Cn1cccc1C(=O)c1ccccc1

>  <score_type>  (18) 
oracle

>  <origin>  (18) 
adg

>  <m_score__min__energy>  (18) 
-7.0099999999999998

>  <m_primary>  (18) 
energy

$$$$
18:0
     RDKit          3D

 40 42  0  0  0  0  0  0  0  0999 V2000
   55.2030   28.6410   45.6220 H   0  0  0  0  0  0  0  0  0  0  0  0
   55.1400   29.3300   44.8390 N   0  0  0  0  0  0  0  0  0  0  0  0
   56.3020   30.0090   44.3660 C   0  0  0  0  0  0  0  0  0  0  0  0
   56.3930   30.3140   43.1460 O   0  0  0  0  0  0  0  0  0  0  0  0
   57.4030   30.3280   45.3020 C   0  0  0  0  0  0  0  0  0  0  0  0
   58.0540   31.5830   45.1920 C   0  0  0  0  0  0  0  0  0  0  0  0
   57.5210   32.6790   44.3020 C   0  0  0  0  0  0  0  0  0  0  0  0
   57.1240   33.4953   44.9233 H   0  0  0  0  0  0  0  0  0  0  0  0
   58.3329   33.0631   43.6670 H   0  0  0  0  0  0  0  0  0  0  0  0
   56.7175   32.2775   43.6670 H   0  0  0  0  0  0  0  0  0  0  0  0
   59.2460   31.8060   45.8880 C   0  0  0  0  0  0  0  0  0  0  0  0
   59.7358   32.7897   45.8380 H   0  0  0  0  0  0  0  0  0  0  0  0
   59.8140   30.7830   46.6450 C   0  0  0  0  0  0  0  0  0  0  0  0
   61.0980   31.0230   47.3850 C   0  0  0  0  0  0  0  0  0  0  0  0
   60.9091   30.9877   48.4681 H   0  0  0  0  0  0  0  0  0  0  0  0
   61.8279   30.2457   47.1146 H   0  0  0  0  0  0  0  0  0  0  0  0
   61.4978   32.0114   47.1146 H   0  0  0  0  0  0  0  0  0  0  0  0
   59.1620   29.5970   46.7760 N   0  0  0  0  0  0  0  0  0  0  0  0
   59.5790   28.8620   47.3930 H   0  0  0  0  0  0  0  0  0  0  0  0
   57.9560   29.3490   46.1850 C   0  0  0  0  0  0  0  0  0  0  0  0
   57.3720   28.2160   46.4800 N   0  0  0  0  0  0  0  0  0  0  0  0
   57.9440   26.9260   46.7450 C   0  0  0  0  0  0  0  0  0  0  0  0
   58.9500   26.8330   47.5010 O   0  0  0  0  0  0  0  0  0  0  0  0
   57.4210   25.7230   46.0580 C   0  0  0  0  0  0  0  0  0  0  0  0
   56.0400   25.5710   45.8400 C   0  0  0  0  0  0  0  0  0  0  0  0
   55.3456   26.3493   46.1893 H   0  0  0  0  0  0  0  0  0  0  0  0
   55.5400   24.4430   45.1850 C   0  0  0  0  0  0  0  0  0  0  0  0
   54.4570   24.3381   45.0233 H   0  0  0  0  0  0  0  0  0  0  0  0
   56.4140   23.4440   44.7330 C   0  0  0  0  0  0  0  0  0  0  0  0
   55.9210   22.3080   44.0720 C   0  0  0  0  0  0  0  0  0  0  0  0
   54.8395   22.1955   43.9057 H   0  0  0  0  0  0  0  0  0  0  0  0
   56.8020   21.3200   43.6250 C   0  0  0  0  0  0  0  0  0  0  0  0
   56.4117   20.4304   43.1091 H   0  0  0  0  0  0  0  0  0  0  0  0
   58.1770   21.4580   43.8310 C   0  0  0  0  0  0  0  0  0  0  0  0
   58.8658   20.6772   43.4762 H   0  0  0  0  0  0  0  0  0  0  0  0
   58.6800   22.5860   44.4870 C   0  0  0  0  0  0  0  0  0  0  0  0
   59.7633   22.6900   44.6469 H   0  0  0  0  0  0  0  0  0  0  0  0
   57.8060   23.5860   44.9420 C   0  0  0  0  0  0  0  0  0  0  0  0
   58.3000   24.7220   45.6020 C   0  0  0  0  0  0  0  0  0  0  0  0
   59.3825   24.8311   45.7643 H   0  0  0  0  0  0  0  0  0  0  0  0
  1  2  1  0
  2  3  1  0
  3  4  2  0
  3  5  1  0
  5  6  2  0
  6  7  1  0
  7  8  1  0
  7  9  1  0
  7 10  1  0
  6 11  1  0
 11 12  1  0
 11 13  2  0
 13 14  1  0
 14 15  1  0
 14 16  1  0
 14 17  1  0
 13 18  1  0
 18 19  1  0
 18 20  1  0
 20 21  2  0
 21 22  1  0
 22 23  2  0
 22 24  1  0
 24 25  2  0
 25 26  1  0
 25 27  1  0
 27 28  1  0
 27 29  2  0
 29 30  1  0
 30 31  1  0
 30 32  2  0
 32 33  1  0
 32 34  1  0
 34 35  1  0
 34 36  2  0
 36 37  1  0
 36 38  1  0
 38 39  2  0
 39 40  1  0
 20  5  1  0
 39 24  1  0
 38 29  1  0
M  CHG  1   2  -1
M  END
>  <UniqueID>  (19) 
19

>  <SMILES>  (19) 
Cc1cc(C)c(C([NH-])=O)/c(=N\C(=O)c2ccc3ccccc3c2)[nH]1

>  <Energy>  (19) 
67.95318984291168

>  <Genealogy>  (19) 
Cc1cc(C)c(C([NH-])=O)c(=NC(=O)c2ccc3ccccc3c2)[nH]1 (protonated)
Cc1cc(C)c(C([NH-])=O)/c(=N\C(=O)c2ccc3ccccc3c2)[nH]1 (cis-trans isomerization)
Cc1cc(C)c(C([NH-])=O)/c(=N\C(=O)c2ccc3ccccc3c2)[nH]1 (3D coordinates assigned)
Cc1cc(C)c(C([NH-])=O)/c(=N\C(=O)c2ccc3ccccc3c2)[nH]1 (optimized conformer: 67.95318984291168 kcal/mol)

>  <smiles>  (19) 
Cc1cc(C)c(C(N)=O)c(=NC(=O)c2ccc3ccccc3c2)[nH]1

>  <score_type>  (19) 
oracle

>  <origin>  (19) 
adg

>  <m_score__min__energy>  (19) 
-11.98

>  <m_primary>  (19) 
energy

$$$$
19:0
     RDKit          3D

 55 57  0  0  0  0  0  0  0  0999 V2000
   56.6460   30.1290   42.8430 C   0  0  0  0  0  0  0  0  0  0  0  0
   56.5940   30.7000   44.2610 C   0  0  0  0  0  0  0  0  0  0  0  0
   57.5480   31.8890   44.4400 C   0  0  0  0  0  0  0  0  0  0  0  0
   57.3560   32.5240   45.7760 N   0  0  0  0  0  0  0  0  0  0  0  0
   57.5160   34.0000   45.6790 C   0  0  0  0  0  0  0  0  0  0  0  0
   58.7500   34.4340   44.8540 C   0  0  0  0  0  0  0  0  0  0  0  0
   59.6310   35.4000   45.6490 C   0  0  0  0  0  0  0  0  0  0  0  0
   58.1410   31.8610   46.8640 C   0  0  2  0  0  0  0  0  0  0  0  0
   59.0650   32.8990   47.5680 C   0  0  0  0  0  0  0  0  0  0  0  0
   60.2110   32.3130   48.4340 C   0  0  0  0  0  0  0  0  0  0  0  0
   60.2020   30.8160   48.5480 C   0  0  0  0  0  0  0  0  0  0  0  0
   60.7620   30.2230   49.6360 N   0  0  0  0  0  0  0  0  0  0  0  0
   60.8370   28.8980   49.7540 N   0  0  0  0  0  0  0  0  0  0  0  0
   60.3870   28.0770   48.7670 C   0  0  0  0  0  0  0  0  0  0  0  0
   59.8200   28.6210   47.6130 C   0  0  0  0  0  0  0  0  0  0  0  0
   59.3880   27.7450   46.5680 N   0  0  0  0  0  0  0  0  0  0  0  0
   58.3680   26.7340   46.8530 C   0  0  0  0  0  0  0  0  0  0  0  0
   57.7650   26.2060   45.5520 C   0  0  0  0  0  0  0  0  0  0  0  0
   57.6040   27.3280   44.6200 N   0  0  0  0  0  0  0  0  0  0  0  0
   58.9080   27.8110   44.1310 C   0  0  0  0  0  0  0  0  0  0  0  0
   59.9930   27.8320   45.2340 C   0  0  0  0  0  0  0  0  0  0  0  0
   59.7040   30.0220   47.5080 C   0  0  0  0  0  0  0  0  0  0  0  0
   59.0270   30.6980   46.3430 C   0  0  0  0  0  0  0  0  0  0  0  0
   56.7457   29.0346   42.8918 H   0  0  0  0  0  0  0  0  0  0  0  0
   55.7204   30.3894   42.3087 H   0  0  0  0  0  0  0  0  0  0  0  0
   57.5093   30.5523   42.3087 H   0  0  0  0  0  0  0  0  0  0  0  0
   55.5673   31.0342   44.4714 H   0  0  0  0  0  0  0  0  0  0  0  0
   56.9062   29.9074   44.9570 H   0  0  0  0  0  0  0  0  0  0  0  0
   58.5859   31.5349   44.3545 H   0  0  0  0  0  0  0  0  0  0  0  0
   57.3331   32.6347   43.6604 H   0  0  0  0  0  0  0  0  0  0  0  0
   56.6156   34.4173   45.2045 H   0  0  0  0  0  0  0  0  0  0  0  0
   57.6617   34.3775   46.7019 H   0  0  0  0  0  0  0  0  0  0  0  0
   59.3391   33.5426   44.5925 H   0  0  0  0  0  0  0  0  0  0  0  0
   58.4007   34.9463   43.9454 H   0  0  0  0  0  0  0  0  0  0  0  0
   59.4790   35.2334   46.7256 H   0  0  0  0  0  0  0  0  0  0  0  0
   60.6873   35.2253   45.3964 H   0  0  0  0  0  0  0  0  0  0  0  0
   59.3600   36.4358   45.3964 H   0  0  0  0  0  0  0  0  0  0  0  0
   57.4043   31.4462   47.5677 H   0  0  0  0  0  0  0  0  0  0  0  0
   59.5201   33.5276   46.7884 H   0  0  0  0  0  0  0  0  0  0  0  0
   58.4162   33.4473   48.2669 H   0  0  0  0  0  0  0  0  0  0  0  0
   61.1691   32.6179   47.9879 H   0  0  0  0  0  0  0  0  0  0  0  0
   60.0662   32.7052   49.4515 H   0  0  0  0  0  0  0  0  0  0  0  0
   61.2630   28.4830   50.6120 H   0  0  0  0  0  0  0  0  0  0  0  0
   60.4698   26.9858   48.8780 H   0  0  0  0  0  0  0  0  0  0  0  0
   58.8277   25.9004   47.4042 H   0  0  0  0  0  0  0  0  0  0  0  0
   57.5704   27.1914   47.4568 H   0  0  0  0  0  0  0  0  0  0  0  0
   58.4350   25.4525   45.1123 H   0  0  0  0  0  0  0  0  0  0  0  0
   56.7882   25.7415   45.7524 H   0  0  0  0  0  0  0  0  0  0  0  0
   57.0320   27.0070   43.8020 H   0  0  0  0  0  0  0  0  0  0  0  0
   59.2454   27.1500   43.3190 H   0  0  0  0  0  0  0  0  0  0  0  0
   58.7686   28.8457   43.7845 H   0  0  0  0  0  0  0  0  0  0  0  0
   60.6697   26.9769   45.0894 H   0  0  0  0  0  0  0  0  0  0  0  0
   60.5480   28.7790   45.1618 H   0  0  0  0  0  0  0  0  0  0  0  0
   59.7889   31.0963   45.6568 H   0  0  0  0  0  0  0  0  0  0  0  0
   58.3992   29.9688   45.8100 H   0  0  0  0  0  0  0  0  0  0  0  0
  1  2  1  0
  2  3  1  0
  3  4  1  0
  4  5  1  0
  5  6  1  0
  6  7  1  0
  4  8  1  0
  8  9  1  0
  9 10  1  0
 10 11  1  0
 11 12  2  0
 12 13  1  0
 13 14  2  0
 14 15  1  0
 15 16  1  0
 16 17  1  0
 17 18  1  0
 18 19  1  0
 19 20  1  0
 20 21  1  0
 15 22  2  0
 22 23  1  0
 23  8  1  0
 22 11  1  0
 21 16  1  0
  1 24  1  0
  1 25  1  0
  1 26  1  0
  2 27  1  0
  2 28  1  0
  3 29  1  0
  3 30  1  0
  5 31  1  0
  5 32  1  0
  6 33  1  0
  6 34  1  0
  7 35  1  0
  7 36  1  0
  7 37  1  0
  8 38  1  1
  9 39  1  0
  9 40  1  0
 10 41  1  0
 10 42  1  0
 13 43  1  0
 14 44  1  0
 17 45  1  0
 17 46  1  0
 18 47  1  0
 18 48  1  0
 19 49  1  0
 20 50  1  0
 20 51  1  0
 21 52  1  0
 21 53  1  0
 23 54  1  0
 23 55  1  0
M  CHG  1  13   1
M  END
>  <UniqueID>  (20) 
20

>  <SMILES>  (20) 
CCCN(CCC)[C@@H]1CCc2n[nH+]cc(N3CCNCC3)c2C1

>  <Energy>  (20) 
72.81522176346326

>  <Genealogy>  (20) 
CCCN(CCC)C1CCc2n[nH+]cc(N3CCNCC3)c2C1 (protonated)
CCCN(CCC)[C@@H]1CCc2n[nH+]cc(N3CCNCC3)c2C1 (chirality)
CCCN(CCC)[C@@H]1CCc2n[nH+]cc(N3CCNCC3)c2C1 (3D coordinates assigned)
CCCN(CCC)[C@@H]1CCc2n[nH+]cc(N3CCNCC3)c2C1 (nonaromatic ring conformer: 72.81522176346326 kcal/mol)

>  <smiles>  (20) 
CCCN(CCC)C1CCc2nncc(N3CCNCC3)c2C1

>  <score_type>  (20) 
oracle

>  <origin>  (20) 
adg

>  <m_score__min__energy>  (20) 
-6.0199999999999996

>  <m_primary>  (20) 
energy

$$$$
20:0
     RDKit          3D

 48 49  0  0  0  0  0  0  0  0999 V2000
   63.3490   33.4810   46.7620 C   0  0  0  0  0  0  0  0  0  0  0  0
   63.0680   32.3360   47.7450 C   0  0  0  0  0  0  0  0  0  0  0  0
   61.7880   32.5310   48.4790 N   0  0  0  0  0  0  0  0  0  0  0  0
   61.9430   32.1060   49.8970 C   0  0  0  0  0  0  0  0  0  0  0  0
   61.9160   30.5820   50.0600 C   0  0  0  0  0  0  0  0  0  0  0  0
   61.3540   33.9580   48.4100 C   0  0  0  0  0  0  0  0  0  0  0  0
   59.8820   34.1610   48.8200 C   0  0  0  0  0  0  0  0  0  0  0  0
   59.0090   33.1500   48.2170 N   0  0  0  0  0  0  0  0  0  0  0  0
   58.5820   33.0930   46.8320 C   0  0  0  0  0  0  0  0  0  0  0  0
   57.9080   34.1810   46.2310 C   0  0  0  0  0  0  0  0  0  0  0  0
   57.5240   34.1370   44.8910 C   0  0  0  0  0  0  0  0  0  0  0  0
   57.7940   33.0120   44.1210 C   0  0  0  0  0  0  0  0  0  0  0  0
   58.4440   31.9180   44.6900 C   0  0  0  0  0  0  0  0  0  0  0  0
   58.8360   31.9350   46.0390 C   0  0  0  0  0  0  0  0  0  0  0  0
   59.6600   30.4990   46.6770 S   0  0  0  0  0  0  0  0  0  0  0  0
   61.1300   30.5820   46.3680 O   0  0  0  0  0  0  0  0  0  0  0  0
   59.5060   30.4220   48.1700 O   0  0  0  0  0  0  0  0  0  0  0  0
   58.9450   29.0510   45.9740 C   0  0  0  0  0  0  0  0  0  0  0  0
   59.1320   28.7380   44.6190 C   0  0  0  0  0  0  0  0  0  0  0  0
   58.5230   27.6060   44.0710 C   0  0  0  0  0  0  0  0  0  0  0  0
   57.7320   26.7770   44.8720 C   0  0  0  0  0  0  0  0  0  0  0  0
   57.5520   27.0790   46.2250 C   0  0  0  0  0  0  0  0  0  0  0  0
   58.1580   28.2130   46.7760 C   0  0  0  0  0  0  0  0  0  0  0  0
   63.5744   34.3995   47.3237 H   0  0  0  0  0  0  0  0  0  0  0  0
   64.2092   33.2179   46.1289 H   0  0  0  0  0  0  0  0  0  0  0  0
   62.4647   33.6461   46.1289 H   0  0  0  0  0  0  0  0  0  0  0  0
   63.0149   31.3914   47.1838 H   0  0  0  0  0  0  0  0  0  0  0  0
   63.8828   32.3155   48.4837 H   0  0  0  0  0  0  0  0  0  0  0  0
   61.0620   31.9270   48.0300 H   0  0  0  0  0  0  0  0  0  0  0  0
   62.9041   32.4842   50.2754 H   0  0  0  0  0  0  0  0  0  0  0  0
   61.0947   32.5176   50.4636 H   0  0  0  0  0  0  0  0  0  0  0  0
   61.9115   30.3277   51.1302 H   0  0  0  0  0  0  0  0  0  0  0  0
   61.0106   30.1782   49.5834 H   0  0  0  0  0  0  0  0  0  0  0  0
   62.8066   30.1464   49.5834 H   0  0  0  0  0  0  0  0  0  0  0  0
   61.9903   34.5507   49.0836 H   0  0  0  0  0  0  0  0  0  0  0  0
   61.4512   34.2809   47.3630 H   0  0  0  0  0  0  0  0  0  0  0  0
   59.8039   34.0926   49.9151 H   0  0  0  0  0  0  0  0  0  0  0  0
   59.5593   35.1504   48.4638 H   0  0  0  0  0  0  0  0  0  0  0  0
   58.7760   32.3630   48.8570 H   0  0  0  0  0  0  0  0  0  0  0  0
   57.6830   35.0760   46.8296 H   0  0  0  0  0  0  0  0  0  0  0  0
   57.0051   34.9965   44.4416 H   0  0  0  0  0  0  0  0  0  0  0  0
   57.4949   32.9849   43.0628 H   0  0  0  0  0  0  0  0  0  0  0  0
   58.6526   31.0302   44.0750 H   0  0  0  0  0  0  0  0  0  0  0  0
   59.7588   29.3846   43.9873 H   0  0  0  0  0  0  0  0  0  0  0  0
   58.6663   27.3666   43.0070 H   0  0  0  0  0  0  0  0  0  0  0  0
   57.2516   25.8877   44.4379 H   0  0  0  0  0  0  0  0  0  0  0  0
   56.9335   26.4245   46.8567 H   0  0  0  0  0  0  0  0  0  0  0  0
   58.0166   28.4477   47.8413 H   0  0  0  0  0  0  0  0  0  0  0  0
  1  2  1  0
  2  3  1  0
  3  4  1  0
  4  5  1  0
  3  6  1  0
  6  7  1  0
  7  8  1  0
  8  9  1  0
  9 10  2  0
 10 11  1  0
 11 12  2  0
 12 13  1  0
 13 14  2  0
 14 15  1  0
 15 16  2  0
 15 17  2  0
 15 18  1  0
 18 19  2  0
 19 20  1  0
 20 21  2  0
 21 22  1  0
 22 23  2  0
 14  9  1  0
 23 18  1  0
  1 24  1  0
  1 25  1  0
  1 26  1  0
  2 27  1  0
  2 28  1  0
  3 29  1  0
  4 30  1  0
  4 31  1  0
  5 32  1  0
  5 33  1  0
  5 34  1  0
  6 35  1  0
  6 36  1  0
  7 37  1  0
  7 38  1  0
  8 39  1  0
 10 40  1  0
 11 41  1  0
 12 42  1  0
 13 43  1  0
 19 44  1  0
 20 45  1  0
 21 46  1  0
 22 47  1  0
 23 48  1  0
M  CHG  1   3   1
M  END
>  <UniqueID>  (21) 
21

>  <SMILES>  (21) 
CC[NH+](CC)CCNc1ccccc1S(=O)(=O)c1ccccc1

>  <Energy>  (21) 
52.06229012636084

>  <Genealogy>  (21) 
CC[NH+](CC)CCNc1ccccc1S(=O)(=O)c1ccccc1 (protonated)
CC[NH+](CC)CCNc1ccccc1S(=O)(=O)c1ccccc1 (3D coordinates assigned)
CC[NH+](CC)CCNc1ccccc1S(=O)(=O)c1ccccc1 (optimized conformer: 52.06229012636084 kcal/mol)

>  <smiles>  (21) 
CCN(CC)CCNc1ccccc1S(=O)(=O)c1ccccc1

>  <score_type>  (21) 
oracle

>  <origin>  (21) 
adg

>  <m_score__min__energy>  (21) 
-4.6100000000000003

>  <m_primary>  (21) 
energy

$$$$
21:0
     RDKit          3D

 44 46  0  0  0  0  0  0  0  0999 V2000
   55.6670   30.1360   44.0200 C   0  0  0  0  0  0  0  0  0  0  0  0
   56.3950   29.8100   45.1990 O   0  0  0  0  0  0  0  0  0  0  0  0
   57.5750   29.0460   45.2270 C   0  0  0  0  0  0  0  0  0  0  0  0
   57.6920   27.8530   44.4840 C   0  0  0  0  0  0  0  0  0  0  0  0
   58.8760   27.1150   44.5070 C   0  0  0  0  0  0  0  0  0  0  0  0
   59.9560   27.5510   45.2700 C   0  0  0  0  0  0  0  0  0  0  0  0
   59.8570   28.7260   46.0150 C   0  0  0  0  0  0  0  0  0  0  0  0
   58.6720   29.4890   46.0060 C   0  0  0  0  0  0  0  0  0  0  0  0
   58.5880   30.7310   46.8280 C   0  0  0  0  0  0  0  0  0  0  0  0
   58.5650   30.6550   48.0860 O   0  0  0  0  0  0  0  0  0  0  0  0
   58.5060   32.0670   46.1970 C   0  0  0  0  0  0  0  0  0  0  0  0
   58.2900   32.1390   44.8120 C   0  0  0  0  0  0  0  0  0  0  0  0
   58.2120   33.3740   44.1680 C   0  0  0  0  0  0  0  0  0  0  0  0
   58.3580   34.5520   44.8970 C   0  0  0  0  0  0  0  0  0  0  0  0
   58.5810   34.5010   46.2730 C   0  0  0  0  0  0  0  0  0  0  0  0
   58.6480   33.2660   46.9470 C   0  0  0  0  0  0  0  0  0  0  0  0
   58.9570   33.2490   48.3600 N   0  0  0  0  0  0  0  0  0  0  0  0
   59.9310   34.3030   48.6820 C   0  0  0  0  0  0  0  0  0  0  0  0
   61.3280   33.8450   48.3580 C   0  0  0  0  0  0  0  0  0  0  0  0
   61.7830   33.8380   47.0290 C   0  0  0  0  0  0  0  0  0  0  0  0
   63.0930   33.4470   46.7360 C   0  0  0  0  0  0  0  0  0  0  0  0
   63.9600   33.0720   47.7660 C   0  0  0  0  0  0  0  0  0  0  0  0
   63.5180   33.0910   49.0930 C   0  0  0  0  0  0  0  0  0  0  0  0
   62.2090   33.4820   49.3900 C   0  0  0  0  0  0  0  0  0  0  0  0
   54.6955   30.5710   44.2975 H   0  0  0  0  0  0  0  0  0  0  0  0
   56.2385   30.8642   43.4257 H   0  0  0  0  0  0  0  0  0  0  0  0
   55.5044   29.2247   43.4257 H   0  0  0  0  0  0  0  0  0  0  0  0
   56.8421   27.5011   43.8808 H   0  0  0  0  0  0  0  0  0  0  0  0
   58.9563   26.1873   43.9214 H   0  0  0  0  0  0  0  0  0  0  0  0
   60.8886   26.9680   45.2853 H   0  0  0  0  0  0  0  0  0  0  0  0
   60.7144   29.0613   46.6170 H   0  0  0  0  0  0  0  0  0  0  0  0
   58.1812   31.2127   44.2288 H   0  0  0  0  0  0  0  0  0  0  0  0
   58.0350   33.4177   43.0832 H   0  0  0  0  0  0  0  0  0  0  0  0
   58.2973   35.5245   44.3865 H   0  0  0  0  0  0  0  0  0  0  0  0
   58.7060   35.4363   46.8384 H   0  0  0  0  0  0  0  0  0  0  0  0
   59.3260   32.3140   48.6450 H   0  0  0  0  0  0  0  0  0  0  0  0
   58.0830   33.4090   48.9160 H   0  0  0  0  0  0  0  0  0  0  0  0
   59.6991   35.2027   48.0932 H   0  0  0  0  0  0  0  0  0  0  0  0
   59.8701   34.5280   49.7570 H   0  0  0  0  0  0  0  0  0  0  0  0
   61.1065   34.1411   46.2163 H   0  0  0  0  0  0  0  0  0  0  0  0
   63.4419   33.4345   45.6929 H   0  0  0  0  0  0  0  0  0  0  0  0
   64.9895   32.7621   47.5333 H   0  0  0  0  0  0  0  0  0  0  0  0
   64.2012   32.7980   49.9038 H   0  0  0  0  0  0  0  0  0  0  0  0
   61.8678   33.5054   50.4355 H   0  0  0  0  0  0  0  0  0  0  0  0
  1  2  1  0
  2  3  1  0
  3  4  2  0
  4  5  1  0
  5  6  2  0
  6  7  1  0
  7  8  2  0
  8  9  1  0
  9 10  2  0
  9 11  1  0
 11 12  2  0
 12 13  1  0
 13 14  2  0
 14 15  1  0
 15 16  2  0
 16 17  1  0
 17 18  1  0
 18 19  1  0
 19 20  2  0
 20 21  1  0
 21 22  2  0
 22 23  1  0
 23 24  2  0
  8  3  1  0
 16 11  1  0
 24 19  1  0
  1 25  1  0
  1 26  1  0
  1 27  1  0
  4 28  1  0
  5 29  1  0
  6 30  1  0
  7 31  1  0
 12 32  1  0
 13 33  1  0
 14 34  1  0
 15 35  1  0
 17 36  1  0
 17 37  1  0
 18 38  1  0
 18 39  1  0
 20 40  1  0
 21 41  1  0
 22 42  1  0
 23 43  1  0
 24 44  1  0
M  CHG  1  17   1
M  END
>  <UniqueID>  (22) 
22

>  <SMILES>  (22) 
COc1ccccc1C(=O)c1ccccc1[NH2+]Cc1ccccc1

>  <Energy>  (22) 
56.11907809154392

>  <Genealogy>  (22) 
COc1ccccc1C(=O)c1ccccc1[NH2+]Cc1ccccc1 (protonated)
COc1ccccc1C(=O)c1ccccc1[NH2+]Cc1ccccc1 (3D coordinates assigned)
COc1ccccc1C(=O)c1ccccc1[NH2+]Cc1ccccc1 (optimized conformer: 56.11907809154392 kcal/mol)

>  <smiles>  (22) 
COc1ccccc1C(=O)c1ccccc1NCc1ccccc1

>  <score_type>  (22) 
oracle

>  <origin>  (22) 
adg

>  <m_score__min__energy>  (22) 
-7.25

>  <m_primary>  (22) 
energy

$$$$
22:0
     RDKit          3D

 56 58  0  0  0  0  0  0  0  0999 V2000
   62.7711   35.0702   49.5198 H   0  0  0  0  0  0  0  0  0  0  0  0
   62.3840   34.2220   48.9360 C   0  0  0  0  0  0  0  0  0  0  0  0
   63.2240   33.1500   48.6230 C   0  0  0  0  0  0  0  0  0  0  0  0
   64.2710   33.1577   48.9603 H   0  0  0  0  0  0  0  0  0  0  0  0
   62.7390   32.0680   47.8830 C   0  0  0  0  0  0  0  0  0  0  0  0
   63.4047   31.2267   47.6398 H   0  0  0  0  0  0  0  0  0  0  0  0
   61.4050   32.0530   47.4500 C   0  0  0  0  0  0  0  0  0  0  0  0
   60.9050   30.9730   46.7050 C   0  0  0  0  0  0  0  0  0  0  0  0
   61.5685   30.1329   46.4519 H   0  0  0  0  0  0  0  0  0  0  0  0
   59.5680   30.9540   46.2800 C   0  0  0  0  0  0  0  0  0  0  0  0
   59.0850   29.8240   45.5290 N   0  0  0  0  0  0  0  0  0  0  0  0
   59.5290   28.8920   45.6900 H   0  0  0  0  0  0  0  0  0  0  0  0
   57.8650   29.8400   44.7690 C   0  0  0  0  0  0  0  0  0  0  0  0
   56.7160   29.0580   45.2710 C   0  0  0  0  0  0  0  0  0  0  0  0
   55.5420   29.3350   44.9040 O   0  0  0  0  0  0  0  0  0  0  0  0
   56.9510   27.9480   46.1450 N   0  0  0  0  0  0  0  0  0  0  0  0
   56.3290   26.6380   45.9800 C   0  0  0  0  0  0  0  0  0  0  0  0
   55.3650   26.6321   46.5099 H   0  0  0  0  0  0  0  0  0  0  0  0
   56.1892   26.4586   44.9038 H   0  0  0  0  0  0  0  0  0  0  0  0
   57.2100   25.5160   46.5400 C   0  0  0  0  0  0  0  0  0  0  0  0
   57.7663   25.9046   47.4057 H   0  0  0  0  0  0  0  0  0  0  0  0
   56.5481   24.6836   46.8212 H   0  0  0  0  0  0  0  0  0  0  0  0
   58.2200   24.9780   45.5060 C   0  0  0  0  0  0  0  0  0  0  0  0
   58.4897   25.7886   44.8131 H   0  0  0  0  0  0  0  0  0  0  0  0
   59.1080   24.6148   46.0442 H   0  0  0  0  0  0  0  0  0  0  0  0
   57.6480   23.8500   44.7310 N   0  0  0  0  0  0  0  0  0  0  0  0
   56.5860   24.3280   43.8300 C   0  0  0  0  0  0  0  0  0  0  0  0
   55.7307   24.6732   44.4295 H   0  0  0  0  0  0  0  0  0  0  0  0
   56.9808   25.1551   43.2217 H   0  0  0  0  0  0  0  0  0  0  0  0
   56.1240   23.1950   42.8920 C   0  0  0  0  0  0  0  0  0  0  0  0
   55.0862   23.3961   42.5877 H   0  0  0  0  0  0  0  0  0  0  0  0
   56.8143   23.1817   42.0357 H   0  0  0  0  0  0  0  0  0  0  0  0
   56.1780   21.8520   43.5170 N   0  0  0  0  0  0  0  0  0  0  0  0
   57.3730   21.0940   43.1100 C   0  0  0  0  0  0  0  0  0  0  0  0
   57.9126   20.7517   44.0053 H   0  0  0  0  0  0  0  0  0  0  0  0
   57.0685   20.2236   42.5103 H   0  0  0  0  0  0  0  0  0  0  0  0
   58.0306   21.7405   42.5103 H   0  0  0  0  0  0  0  0  0  0  0  0
   56.0440   21.9130   44.9830 C   0  0  0  0  0  0  0  0  0  0  0  0
   55.0613   22.3401   45.2315 H   0  0  0  0  0  0  0  0  0  0  0  0
   56.1462   20.8902   45.3746 H   0  0  0  0  0  0  0  0  0  0  0  0
   57.1430   22.7820   45.6330 C   0  0  0  0  0  0  0  0  0  0  0  0
   56.7287   23.2531   46.5366 H   0  0  0  0  0  0  0  0  0  0  0  0
   57.9903   22.1206   45.8666 H   0  0  0  0  0  0  0  0  0  0  0  0
   57.8090   30.4330   43.6060 N   0  0  0  0  0  0  0  0  0  0  0  0
   57.9460   29.8790   42.7300 H   0  0  0  0  0  0  0  0  0  0  0  0
   57.6660   31.8810   43.4500 C   0  0  0  0  0  0  0  0  0  0  0  0
   57.6193   32.3538   44.4421 H   0  0  0  0  0  0  0  0  0  0  0  0
   58.5294   32.2771   42.8953 H   0  0  0  0  0  0  0  0  0  0  0  0
   56.7418   32.1005   42.8953 H   0  0  0  0  0  0  0  0  0  0  0  0
   58.7300   32.0360   46.6100 C   0  0  0  0  0  0  0  0  0  0  0  0
   57.6773   32.0260   46.2911 H   0  0  0  0  0  0  0  0  0  0  0  0
   59.2210   33.1220   47.3380 C   0  0  0  0  0  0  0  0  0  0  0  0
   58.5581   33.9670   47.5760 H   0  0  0  0  0  0  0  0  0  0  0  0
   60.5540   33.1390   47.7660 C   0  0  0  0  0  0  0  0  0  0  0  0
   61.0530   34.2190   48.5090 C   0  0  0  0  0  0  0  0  0  0  0  0
   60.3955   35.0655   48.7562 H   0  0  0  0  0  0  0  0  0  0  0  0
  1  2  1  0
  2  3  2  0
  3  4  1  0
  3  5  1  0
  5  6  1  0
  5  7  2  0
  7  8  1  0
  8  9  1  0
  8 10  2  0
 10 11  1  0
 11 12  1  0
 11 13  1  0
 13 14  1  0
 14 15  2  0
 14 16  1  0
 16 17  1  0
 17 18  1  0
 17 19  1  0
 17 20  1  0
 20 21  1  0
 20 22  1  0
 20 23  1  0
 23 24  1  0
 23 25  1  0
 23 26  1  0
 26 27  1  0
 27 28  1  0
 27 29  1  0
 27 30  1  0
 30 31  1  0
 30 32  1  0
 30 33  1  0
 33 34  1  0
 34 35  1  0
 34 36  1  0
 34 37  1  0
 33 38  1  0
 38 39  1  0
 38 40  1  0
 38 41  1  0
 41 42  1  0
 41 43  1  0
 13 44  2  0
 44 45  1  0
 44 46  1  0
 46 47  1  0
 46 48  1  0
 46 49  1  0
 10 50  1  0
 50 51  1  0
 50 52  2  0
 52 53  1  0
 52 54  1  0
 54 55  2  0
 55 56  1  0
 55  2  1  0
 54  7  1  0
 41 26  1  0
M  CHG  2  16  -1  44   1
M  END
>  <UniqueID>  (23) 
23

>  <SMILES>  (23) 
C/[NH+]=C(\Nc1ccc2ccccc2c1)C(=O)[N-]CCCN1CCN(C)CC1

>  <Energy>  (23) 
71.04183948962758

>  <Genealogy>  (23) 
C[NH+]=C(Nc1ccc2ccccc2c1)C(=O)[N-]CCCN1CCN(C)CC1 (protonated)
C/[NH+]=C(\Nc1ccc2ccccc2c1)C(=O)[N-]CCCN1CCN(C)CC1 (cis-trans isomerization)
C/[NH+]=C(\Nc1ccc2ccccc2c1)C(=O)[N-]CCCN1CCN(C)CC1 (3D coordinates assigned)
C/[NH+]=C(\Nc1ccc2ccccc2c1)C(=O)[N-]CCCN1CCN(C)CC1 (nonaromatic ring conformer: 71.04183948962758 kcal/mol)

>  <smiles>  (23) 
CN=C(Nc1ccc2ccccc2c1)C(=O)NCCCN1CCN(C)CC1

>  <score_type>  (23) 
oracle

>  <origin>  (23) 
adg

>  <m_score__min__energy>  (23) 
-8.6500000000000004

>  <m_primary>  (23) 
energy

$$$$
23:0
     RDKit          3D

 50 52  0  0  0  0  0  0  0  0999 V2000
   58.3019   32.2397   42.6011 H   0  0  0  0  0  0  0  0  0  0  0  0
   57.5120   31.5200   42.8620 C   0  0  0  0  0  0  0  0  0  0  0  0
   56.6460   30.7310   43.1480 C   0  0  0  0  0  0  0  0  0  0  0  0
   55.5890   29.7720   43.4930 C   0  0  0  0  0  0  0  0  0  0  0  0
   54.6106   30.2672   43.4063 H   0  0  0  0  0  0  0  0  0  0  0  0
   55.6489   28.9181   42.8022 H   0  0  0  0  0  0  0  0  0  0  0  0
   55.7580   29.2820   44.8580 N   0  0  0  0  0  0  0  0  0  0  0  0
   56.6440   28.5420   45.4770 C   0  0  0  0  0  0  0  0  0  0  0  0
   56.2950   27.2350   45.6320 N   0  0  0  0  0  0  0  0  0  0  0  0
   57.0470   26.3260   46.2950 C   0  0  0  0  0  0  0  0  0  0  0  0
   56.7070   25.2828   46.3733 H   0  0  0  0  0  0  0  0  0  0  0  0
   58.2430   26.7090   46.8740 C   0  0  0  0  0  0  0  0  0  0  0  0
   58.8447   25.9786   47.4348 H   0  0  0  0  0  0  0  0  0  0  0  0
   58.6830   28.0280   46.7430 C   0  0  0  0  0  0  0  0  0  0  0  0
   59.9070   28.3920   47.3220 C   0  0  0  0  0  0  0  0  0  0  0  0
   60.4827   27.6478   47.8918 H   0  0  0  0  0  0  0  0  0  0  0  0
   60.4000   29.6840   47.1830 C   0  0  0  0  0  0  0  0  0  0  0  0
   61.3545   29.9614   47.6541 H   0  0  0  0  0  0  0  0  0  0  0  0
   59.6830   30.6330   46.4440 C   0  0  0  0  0  0  0  0  0  0  0  0
   60.1520   31.9410   46.2420 O   0  0  0  0  0  0  0  0  0  0  0  0
   59.4180   33.1370   46.5120 C   0  0  0  0  0  0  0  0  0  0  0  0
   59.5764   33.8485   45.6882 H   0  0  0  0  0  0  0  0  0  0  0  0
   58.3528   32.8780   46.6026 H   0  0  0  0  0  0  0  0  0  0  0  0
   59.8730   33.7850   47.8270 C   0  0  0  0  0  0  0  0  0  0  0  0
   60.8265   34.3063   47.6565 H   0  0  0  0  0  0  0  0  0  0  0  0
   59.0920   34.4885   48.1512 H   0  0  0  0  0  0  0  0  0  0  0  0
   60.0680   32.7400   48.9370 C   0  0  0  0  0  0  0  0  0  0  0  0
   59.2814   32.8684   49.6951 H   0  0  0  0  0  0  0  0  0  0  0  0
   60.0097   31.7366   48.4901 H   0  0  0  0  0  0  0  0  0  0  0  0
   61.3930   32.8960   49.5810 N   0  0  0  0  0  0  0  0  0  0  0  0
   62.3150   31.7790   49.2740 C   0  0  0  0  0  0  0  0  0  0  0  0
   63.1188   31.7683   50.0248 H   0  0  0  0  0  0  0  0  0  0  0  0
   61.7306   30.8473   49.2947 H   0  0  0  0  0  0  0  0  0  0  0  0
   62.9480   31.9050   47.8730 C   0  0  0  0  0  0  0  0  0  0  0  0
   63.7964   31.2076   47.8117 H   0  0  0  0  0  0  0  0  0  0  0  0
   62.1588   31.6729   47.1427 H   0  0  0  0  0  0  0  0  0  0  0  0
   63.4400   33.2690   47.5590 N   0  0  0  0  0  0  0  0  0  0  0  0
   62.7690   33.8370   46.3770 C   0  0  0  0  0  0  0  0  0  0  0  0
   61.9668   34.5160   46.7017 H   0  0  0  0  0  0  0  0  0  0  0  0
   63.4998   34.3951   45.7733 H   0  0  0  0  0  0  0  0  0  0  0  0
   62.3393   33.0240   45.7733 H   0  0  0  0  0  0  0  0  0  0  0  0
   63.3940   34.1900   48.7110 C   0  0  0  0  0  0  0  0  0  0  0  0
   64.1203   33.8526   49.4650 H   0  0  0  0  0  0  0  0  0  0  0  0
   63.6373   35.2000   48.3493 H   0  0  0  0  0  0  0  0  0  0  0  0
   61.9950   34.2380   49.3540 C   0  0  0  0  0  0  0  0  0  0  0  0
   62.0763   34.7504   50.3240 H   0  0  0  0  0  0  0  0  0  0  0  0
   61.3370   34.7701   48.6512 H   0  0  0  0  0  0  0  0  0  0  0  0
   58.4530   30.2810   45.8750 C   0  0  0  0  0  0  0  0  0  0  0  0
   57.8967   31.0342   45.2978 H   0  0  0  0  0  0  0  0  0  0  0  0
   57.9040   28.9830   46.0210 C   0  0  0  0  0  0  0  0  0  0  0  0
  1  2  1  0
  2  3  3  0
  3  4  1  0
  4  5  1  0
  4  6  1  0
  4  7  1  0
  7  8  2  0
  8  9  1  0
  9 10  1  0
 10 11  1  0
 10 12  2  0
 12 13  1  0
 12 14  1  0
 14 15  2  0
 15 16  1  0
 15 17  1  0
 17 18  1  0
 17 19  2  0
 19 20  1  0
 20 21  1  0
 21 22  1  0
 21 23  1  0
 21 24  1  0
 24 25  1  0
 24 26  1  0
 24 27  1  0
 27 28  1  0
 27 29  1  0
 27 30  1  0
 30 31  1  0
 31 32  1  0
 31 33  1  0
 31 34  1  0
 34 35  1  0
 34 36  1  0
 34 37  1  0
 37 38  1  0
 38 39  1  0
 38 40  1  0
 38 41  1  0
 37 42  1  0
 42 43  1  0
 42 44  1  0
 42 45  1  0
 45 46  1  0
 45 47  1  0
 19 48  1  0
 48 49  1  0
 48 50  2  0
 50  8  1  0
 50 14  1  0
 45 30  1  0
M  CHG  1   9  -1
M  END
>  <UniqueID>  (24) 
24

>  <SMILES>  (24) 
C#CC/N=c1/[n-]ccc2ccc(OCCCN3CCN(C)CC3)cc12

>  <Energy>  (24) 
81.91007332386982

>  <Genealogy>  (24) 
C#CCN=c1[n-]ccc2ccc(OCCCN3CCN(C)CC3)cc12 (protonated)
C#CC/N=c1/[n-]ccc2ccc(OCCCN3CCN(C)CC3)cc12 (cis-trans isomerization)
C#CC/N=c1/[n-]ccc2ccc(OCCCN3CCN(C)CC3)cc12 (3D coordinates assigned)
C#CC/N=c1/[n-]ccc2ccc(OCCCN3CCN(C)CC3)cc12 (nonaromatic ring conformer: 81.91007332386982 kcal/mol)

>  <smiles>  (24) 
C#CCN=c1[nH]ccc2ccc(OCCCN3CCN(C)CC3)cc12

>  <score_type>  (24) 
oracle

>  <origin>  (24) 
adg

>  <m_score__min__energy>  (24) 
-9.5099999999999998

>  <m_primary>  (24) 
energy

$$$$
24:0
     RDKit          3D

 47 49  0  0  0  0  0  0  0  0999 V2000
   56.3490   24.2090   47.1630 C   0  0  0  0  0  0  0  0  0  0  0  0
   55.8970   25.3610   46.4590 O   0  0  0  0  0  0  0  0  0  0  0  0
   56.7110   26.1570   45.6380 C   0  0  0  0  0  0  0  0  0  0  0  0
   57.3370   25.5570   44.5390 C   0  0  0  0  0  0  0  0  0  0  0  0
   58.1450   26.3120   43.6850 C   0  0  0  0  0  0  0  0  0  0  0  0
   58.3340   27.6750   43.9220 C   0  0  0  0  0  0  0  0  0  0  0  0
   57.7170   28.2910   45.0180 C   0  0  0  0  0  0  0  0  0  0  0  0
   57.8900   29.7370   45.2560 C   0  0  0  0  0  0  0  0  0  0  0  0
   58.7900   30.3030   46.1650 C   0  0  0  0  0  0  0  0  0  0  0  0
   59.8020   29.5860   47.0200 C   0  0  0  0  0  0  0  0  0  0  0  0
   59.1170   28.6840   48.0540 C   0  0  0  0  0  0  0  0  0  0  0  0
   59.7040   27.3250   48.0390 N   0  0  0  0  0  0  0  0  0  0  0  0
   60.6640   27.1480   49.1420 C   0  0  0  0  0  0  0  0  0  0  0  0
   60.3730   27.0610   46.7550 C   0  0  0  0  0  0  0  0  0  0  0  0
   58.7090   31.6670   45.9590 C   0  0  0  0  0  0  0  0  0  0  0  0
   59.4260   32.7200   46.5320 C   0  0  0  0  0  0  0  0  0  0  0  0
   59.1540   34.0230   46.0840 C   0  0  0  0  0  0  0  0  0  0  0  0
   58.1930   34.2470   45.0760 C   0  0  0  0  0  0  0  0  0  0  0  0
   57.4940   33.1690   44.5050 C   0  0  0  0  0  0  0  0  0  0  0  0
   57.7750   31.8810   44.9750 C   0  0  0  0  0  0  0  0  0  0  0  0
   57.2570   30.7110   44.5460 N   0  0  0  0  0  0  0  0  0  0  0  0
   56.2880   30.5270   43.4640 C   0  0  0  0  0  0  0  0  0  0  0  0
   56.9130   27.5300   45.8790 C   0  0  0  0  0  0  0  0  0  0  0  0
   56.2781   24.3897   48.2457 H   0  0  0  0  0  0  0  0  0  0  0  0
   55.7230   23.3456   46.8936 H   0  0  0  0  0  0  0  0  0  0  0  0
   57.3952   24.0017   46.8936 H   0  0  0  0  0  0  0  0  0  0  0  0
   57.1918   24.4838   44.3464 H   0  0  0  0  0  0  0  0  0  0  0  0
   58.6332   25.8317   42.8242 H   0  0  0  0  0  0  0  0  0  0  0  0
   58.9691   28.2664   43.2461 H   0  0  0  0  0  0  0  0  0  0  0  0
   60.4435   28.9683   46.3744 H   0  0  0  0  0  0  0  0  0  0  0  0
   60.3995   30.3381   47.5561 H   0  0  0  0  0  0  0  0  0  0  0  0
   59.2458   29.1212   49.0552 H   0  0  0  0  0  0  0  0  0  0  0  0
   58.0487   28.6088   47.8028 H   0  0  0  0  0  0  0  0  0  0  0  0
   60.1392   27.2448   50.1039 H   0  0  0  0  0  0  0  0  0  0  0  0
   61.1220   26.1503   49.0729 H   0  0  0  0  0  0  0  0  0  0  0  0
   61.4477   27.9168   49.0729 H   0  0  0  0  0  0  0  0  0  0  0  0
   61.3813   26.6631   46.9419 H   0  0  0  0  0  0  0  0  0  0  0  0
   59.7892   26.3258   46.1817 H   0  0  0  0  0  0  0  0  0  0  0  0
   60.4485   27.9967   46.1817 H   0  0  0  0  0  0  0  0  0  0  0  0
   60.1807   32.5343   47.3104 H   0  0  0  0  0  0  0  0  0  0  0  0
   59.6943   34.8750   46.5223 H   0  0  0  0  0  0  0  0  0  0  0  0
   57.9890   35.2725   44.7342 H   0  0  0  0  0  0  0  0  0  0  0  0
   56.7487   33.3330   43.7127 H   0  0  0  0  0  0  0  0  0  0  0  0
   55.2923   30.3379   43.8917 H   0  0  0  0  0  0  0  0  0  0  0  0
   56.2543   31.4348   42.8437 H   0  0  0  0  0  0  0  0  0  0  0  0
   56.5894   29.6700   42.8437 H   0  0  0  0  0  0  0  0  0  0  0  0
   56.4372   28.0083   46.7478 H   0  0  0  0  0  0  0  0  0  0  0  0
  1  2  1  0
  2  3  1  0
  3  4  2  0
  4  5  1  0
  5  6  2  0
  6  7  1  0
  7  8  1  0
  8  9  2  0
  9 10  1  0
 10 11  1  0
 11 12  1  0
 12 13  1  0
 12 14  1  0
  9 15  1  0
 15 16  2  0
 16 17  1  0
 17 18  2  0
 18 19  1  0
 19 20  2  0
 20 21  1  0
 21 22  1  0
  7 23  2  0
 23  3  1  0
 21  8  1  0
 20 15  1  0
  1 24  1  0
  1 25  1  0
  1 26  1  0
  4 27  1  0
  5 28  1  0
  6 29  1  0
 10 30  1  0
 10 31  1  0
 11 32  1  0
 11 33  1  0
 13 34  1  0
 13 35  1  0
 13 36  1  0
 14 37  1  0
 14 38  1  0
 14 39  1  0
 16 40  1  0
 17 41  1  0
 18 42  1  0
 19 43  1  0
 22 44  1  0
 22 45  1  0
 22 46  1  0
 23 47  1  0
M  END
>  <UniqueID>  (25) 
25

>  <SMILES>  (25) 
COc1cccc(-c2c(CCN(C)C)c3ccccc3n2C)c1

>  <Energy>  (25) 
82.58210799431701

>  <Genealogy>  (25) 
COc1cccc(-c2c(CCN(C)C)c3ccccc3n2C)c1 (3D coordinates assigned)
COc1cccc(-c2c(CCN(C)C)c3ccccc3n2C)c1 (optimized conformer: 82.58210799431701 kcal/mol)

>  <smiles>  (25) 
COc1cccc(-c2c(CCN(C)C)c3ccccc3n2C)c1

>  <score_type>  (25) 
oracle

>  <origin>  (25) 
adg

>  <m_score__min__energy>  (25) 
-7.4800000000000004

>  <m_primary>  (25) 
energy

$$$$
25:0
     RDKit          3D

 60 63  0  0  0  0  0  0  0  0999 V2000
   58.8960   29.6750   48.7860 C   0  0  0  0  0  0  0  0  0  0  0  0
   59.2330   28.5780   47.8120 C   0  0  0  0  0  0  0  0  0  0  0  0
   60.3430   27.7560   48.0590 C   0  0  0  0  0  0  0  0  0  0  0  0
   60.7010   26.7640   47.1440 C   0  0  0  0  0  0  0  0  0  0  0  0
   59.9570   26.5790   45.9750 C   0  0  0  0  0  0  0  0  0  0  0  0
   58.8410   27.3850   45.7100 C   0  0  0  0  0  0  0  0  0  0  0  0
   58.0610   27.1380   44.4480 C   0  0  0  0  0  0  0  0  0  0  0  0
   58.4980   28.4220   46.6150 C   0  0  0  0  0  0  0  0  0  0  0  0
   57.3870   29.2940   46.3560 N   0  0  0  0  0  0  0  0  0  0  0  0
   57.2780   30.1900   45.2400 C   0  0  0  0  0  0  0  0  0  0  0  0
   56.2610   30.0940   44.5020 O   0  0  0  0  0  0  0  0  0  0  0  0
   58.2240   31.2730   45.0370 N   0  0  0  0  0  0  0  0  0  0  0  0
   57.6730   32.2940   44.1120 C   0  0  0  0  0  0  0  0  0  0  0  0
   58.4810   33.5930   44.2020 C   0  0  0  0  0  0  0  0  0  0  0  0
   58.3990   34.2010   45.5550 N   0  0  0  0  0  0  0  0  0  0  0  0
   59.5980   35.0190   45.8310 C   0  0  0  0  0  0  0  0  0  0  0  0
   60.5220   34.3810   46.8410 C   0  0  0  0  0  0  0  0  0  0  0  0
   61.7030   33.7670   46.3970 C   0  0  0  0  0  0  0  0  0  0  0  0
   62.5940   33.2060   47.3120 C   0  0  0  0  0  0  0  0  0  0  0  0
   62.3100   33.2380   48.6800 C   0  0  0  0  0  0  0  0  0  0  0  0
   61.1310   33.8350   49.1390 C   0  0  0  0  0  0  0  0  0  0  0  0
   60.8650   33.8360   50.5160 O   0  0  0  0  0  0  0  0  0  0  0  0
   59.6750   33.3990   51.1240 C   0  0  0  0  0  0  0  0  0  0  0  0
   59.3080   33.9580   52.3540 C   0  0  0  0  0  0  0  0  0  0  0  0
   58.1550   33.5290   53.0170 C   0  0  0  0  0  0  0  0  0  0  0  0
   57.3530   32.5380   52.4500 C   0  0  0  0  0  0  0  0  0  0  0  0
   57.7060   31.9730   51.2230 C   0  0  0  0  0  0  0  0  0  0  0  0
   58.8690   32.3870   50.5650 C   0  0  0  0  0  0  0  0  0  0  0  0
   60.2640   34.4520   48.2210 C   0  0  0  0  0  0  0  0  0  0  0  0
   58.1040   33.2260   46.6340 C   0  0  0  0  0  0  0  0  0  0  0  0
   58.6730   31.8280   46.3450 C   0  0  0  0  0  0  0  0  0  0  0  0
   59.0110   29.3007   49.8140 H   0  0  0  0  0  0  0  0  0  0  0  0
   59.5739   30.5267   48.6279 H   0  0  0  0  0  0  0  0  0  0  0  0
   57.8568   29.9992   48.6279 H   0  0  0  0  0  0  0  0  0  0  0  0
   60.9333   27.8936   48.9769 H   0  0  0  0  0  0  0  0  0  0  0  0
   61.5733   26.1245   47.3441 H   0  0  0  0  0  0  0  0  0  0  0  0
   60.2489   25.7966   45.2590 H   0  0  0  0  0  0  0  0  0  0  0  0
   57.0412   26.8151   44.7045 H   0  0  0  0  0  0  0  0  0  0  0  0
   58.0145   28.0654   43.8582 H   0  0  0  0  0  0  0  0  0  0  0  0
   58.5568   26.3529   43.8582 H   0  0  0  0  0  0  0  0  0  0  0  0
   59.0740   30.8870   44.5630 H   0  0  0  0  0  0  0  0  0  0  0  0
   57.7177   31.9107   43.0819 H   0  0  0  0  0  0  0  0  0  0  0  0
   56.6307   32.5036   44.3942 H   0  0  0  0  0  0  0  0  0  0  0  0
   59.5344   33.3737   43.9734 H   0  0  0  0  0  0  0  0  0  0  0  0
   58.0604   34.3081   43.4797 H   0  0  0  0  0  0  0  0  0  0  0  0
   60.1502   35.1617   44.8904 H   0  0  0  0  0  0  0  0  0  0  0  0
   59.2563   35.9757   46.2528 H   0  0  0  0  0  0  0  0  0  0  0  0
   61.9276   33.7278   45.3209 H   0  0  0  0  0  0  0  0  0  0  0  0
   63.5230   32.7370   46.9557 H   0  0  0  0  0  0  0  0  0  0  0  0
   63.0151   32.7928   49.3974 H   0  0  0  0  0  0  0  0  0  0  0  0
   59.9338   34.7432   52.8033 H   0  0  0  0  0  0  0  0  0  0  0  0
   57.8799   33.9724   53.9854 H   0  0  0  0  0  0  0  0  0  0  0  0
   56.4433   32.2021   52.9693 H   0  0  0  0  0  0  0  0  0  0  0  0
   57.0672   31.1994   50.7720 H   0  0  0  0  0  0  0  0  0  0  0  0
   59.1548   31.9220   49.6100 H   0  0  0  0  0  0  0  0  0  0  0  0
   59.3783   34.9937   48.5845 H   0  0  0  0  0  0  0  0  0  0  0  0
   58.5423   33.5968   47.5723 H   0  0  0  0  0  0  0  0  0  0  0  0
   57.0104   33.1305   46.7043 H   0  0  0  0  0  0  0  0  0  0  0  0
   59.7712   31.8912   46.3400 H   0  0  0  0  0  0  0  0  0  0  0  0
   58.3027   31.1542   47.1317 H   0  0  0  0  0  0  0  0  0  0  0  0
  1  2  1  0
  2  3  2  0
  3  4  1  0
  4  5  2  0
  5  6  1  0
  6  7  1  0
  6  8  2  0
  8  9  1  0
  9 10  1  0
 10 11  2  0
 10 12  1  0
 12 13  1  0
 13 14  1  0
 14 15  1  0
 15 16  1  0
 16 17  1  0
 17 18  2  0
 18 19  1  0
 19 20  2  0
 20 21  1  0
 21 22  1  0
 22 23  1  0
 23 24  2  0
 24 25  1  0
 25 26  2  0
 26 27  1  0
 27 28  2  0
 21 29  2  0
 15 30  1  0
 30 31  1  0
  8  2  1  0
 31 12  1  0
 29 17  1  0
 28 23  1  0
  1 32  1  0
  1 33  1  0
  1 34  1  0
  3 35  1  0
  4 36  1  0
  5 37  1  0
  7 38  1  0
  7 39  1  0
  7 40  1  0
 12 41  1  0
 13 42  1  0
 13 43  1  0
 14 44  1  0
 14 45  1  0
 16 46  1  0
 16 47  1  0
 18 48  1  0
 19 49  1  0
 20 50  1  0
 24 51  1  0
 25 52  1  0
 26 53  1  0
 27 54  1  0
 28 55  1  0
 29 56  1  0
 30 57  1  0
 30 58  1  0
 31 59  1  0
 31 60  1  0
M  CHG  2   9  -1  12   1
M  END
>  <UniqueID>  (26) 
26

>  <SMILES>  (26) 
Cc1cccc(C)c1[N-]C(=O)[NH+]1CCN(Cc2cccc(Oc3ccccc3)c2)CC1

>  <Energy>  (26) 
92.7670596970161

>  <Genealogy>  (26) 
Cc1cccc(C)c1[N-]C(=O)[NH+]1CCN(Cc2cccc(Oc3ccccc3)c2)CC1 (protonated)
Cc1cccc(C)c1[N-]C(=O)[NH+]1CCN(Cc2cccc(Oc3ccccc3)c2)CC1 (3D coordinates assigned)
Cc1cccc(C)c1[N-]C(=O)[NH+]1CCN(Cc2cccc(Oc3ccccc3)c2)CC1 (nonaromatic ring conformer: 92.7670596970161 kcal/mol)

>  <smiles>  (26) 
Cc1cccc(C)c1NC(=O)N1CCN(Cc2cccc(Oc3ccccc3)c2)CC1

>  <score_type>  (26) 
oracle

>  <origin>  (26) 
adg

>  <m_score__min__energy>  (26) 
-8.8000000000000007

>  <m_primary>  (26) 
energy

$$$$
26:0
     RDKit          3D

 59 61  0  0  0  0  0  0  0  0999 V2000
   64.4260   32.4140   49.7530 C   0  0  0  0  0  0  0  0  0  0  0  0
   62.9010   32.4800   49.7930 C   0  0  0  0  0  0  0  0  0  0  0  0
   62.3510   32.5460   48.4230 N   0  0  0  0  0  0  0  0  0  0  0  0
   62.4950   33.8850   47.8020 C   0  0  0  0  0  0  0  0  0  0  0  0
   63.3360   33.8930   46.5140 C   0  0  0  0  0  0  0  0  0  0  0  0
   62.8210   31.4500   47.5450 C   0  0  0  0  0  0  0  0  0  0  0  0
   61.6150   30.7890   46.8680 C   0  0  0  0  0  0  0  0  0  0  0  0
   60.4180   30.7510   47.7300 N   0  0  0  0  0  0  0  0  0  0  0  0
   59.2140   30.3820   46.9890 C   0  0  0  0  0  0  0  0  0  0  0  0
   58.5430   31.4100   46.2630 C   0  0  0  0  0  0  0  0  0  0  0  0
   58.9430   32.8330   46.3460 C   0  0  0  0  0  0  0  0  0  0  0  0
   59.1840   33.5680   45.1740 C   0  0  0  0  0  0  0  0  0  0  0  0
   59.5340   34.9190   45.2510 C   0  0  0  0  0  0  0  0  0  0  0  0
   59.6310   35.5470   46.4970 C   0  0  0  0  0  0  0  0  0  0  0  0
   59.3710   34.8270   47.6670 C   0  0  0  0  0  0  0  0  0  0  0  0
   59.0210   33.4740   47.5930 C   0  0  0  0  0  0  0  0  0  0  0  0
   57.4740   31.1150   45.4230 C   0  0  0  0  0  0  0  0  0  0  0  0
   57.0220   29.8090   45.2590 C   0  0  0  0  0  0  0  0  0  0  0  0
   55.9510   29.5160   44.3920 O   0  0  0  0  0  0  0  0  0  0  0  0
   55.9610   29.7150   42.9820 C   0  0  0  0  0  0  0  0  0  0  0  0
   57.6400   28.7650   45.9720 C   0  0  0  0  0  0  0  0  0  0  0  0
   57.1650   27.4550   45.7810 C   0  0  0  0  0  0  0  0  0  0  0  0
   57.7280   26.3880   46.4560 C   0  0  0  0  0  0  0  0  0  0  0  0
   58.7620   26.6020   47.3480 C   0  0  0  0  0  0  0  0  0  0  0  0
   59.2700   27.8940   47.5870 C   0  0  0  0  0  0  0  0  0  0  0  0
   60.2880   28.0510   48.5370 O   0  0  0  0  0  0  0  0  0  0  0  0
   60.7610   27.0460   49.4300 C   0  0  0  0  0  0  0  0  0  0  0  0
   58.7310   29.0210   46.8700 C   0  0  0  0  0  0  0  0  0  0  0  0
   64.8193   32.3970   50.7801 H   0  0  0  0  0  0  0  0  0  0  0  0
   64.7398   31.5014   49.2250 H   0  0  0  0  0  0  0  0  0  0  0  0
   64.8175   33.2960   49.2250 H   0  0  0  0  0  0  0  0  0  0  0  0
   62.5127   31.5823   50.2964 H   0  0  0  0  0  0  0  0  0  0  0  0
   62.5977   33.3833   50.3426 H   0  0  0  0  0  0  0  0  0  0  0  0
   61.4908   34.2639   47.5612 H   0  0  0  0  0  0  0  0  0  0  0  0
   63.0243   34.5171   48.5303 H   0  0  0  0  0  0  0  0  0  0  0  0
   64.4048   33.9032   46.7740 H   0  0  0  0  0  0  0  0  0  0  0  0
   63.1108   32.9927   45.9235 H   0  0  0  0  0  0  0  0  0  0  0  0
   63.0938   34.7889   45.9235 H   0  0  0  0  0  0  0  0  0  0  0  0
   63.4951   31.8578   46.7774 H   0  0  0  0  0  0  0  0  0  0  0  0
   63.3609   30.7032   48.1456 H   0  0  0  0  0  0  0  0  0  0  0  0
   61.3721   31.3539   45.9559 H   0  0  0  0  0  0  0  0  0  0  0  0
   61.8928   29.7482   46.6453 H   0  0  0  0  0  0  0  0  0  0  0  0
   60.5830   30.2100   48.5970 H   0  0  0  0  0  0  0  0  0  0  0  0
   60.2990   31.7100   48.1240 H   0  0  0  0  0  0  0  0  0  0  0  0
   59.0971   33.0791   44.1925 H   0  0  0  0  0  0  0  0  0  0  0  0
   59.7332   35.4886   44.3313 H   0  0  0  0  0  0  0  0  0  0  0  0
   59.9122   36.6088   46.5565 H   0  0  0  0  0  0  0  0  0  0  0  0
   59.4416   35.3241   48.6458 H   0  0  0  0  0  0  0  0  0  0  0  0
   58.8065   32.9114   48.5136 H   0  0  0  0  0  0  0  0  0  0  0  0
   56.9761   31.9302   44.8776 H   0  0  0  0  0  0  0  0  0  0  0  0
   56.0151   30.7918   42.7641 H   0  0  0  0  0  0  0  0  0  0  0  0
   56.8348   29.2084   42.5464 H   0  0  0  0  0  0  0  0  0  0  0  0
   55.0408   29.2985   42.5464 H   0  0  0  0  0  0  0  0  0  0  0  0
   56.3329   27.2768   45.0840 H   0  0  0  0  0  0  0  0  0  0  0  0
   57.3530   25.3684   46.2832 H   0  0  0  0  0  0  0  0  0  0  0  0
   59.1975   25.7450   47.8827 H   0  0  0  0  0  0  0  0  0  0  0  0
   60.6060   27.3754   50.4680 H   0  0  0  0  0  0  0  0  0  0  0  0
   60.2084   26.1110   49.2556 H   0  0  0  0  0  0  0  0  0  0  0  0
   61.8337   26.8759   49.2556 H   0  0  0  0  0  0  0  0  0  0  0  0
  1  2  1  0
  2  3  1  0
  3  4  1  0
  4  5  1  0
  3  6  1  0
  6  7  1  0
  7  8  1  0
  8  9  1  0
  9 10  2  0
 10 11  1  0
 11 12  2  0
 12 13  1  0
 13 14  2  0
 14 15  1  0
 15 16  2  0
 10 17  1  0
 17 18  2  0
 18 19  1  0
 19 20  1  0
 18 21  1  0
 21 22  2  0
 22 23  1  0
 23 24  2  0
 24 25  1  0
 25 26  1  0
 26 27  1  0
 25 28  2  0
 28  9  1  0
 16 11  1  0
 28 21  1  0
  1 29  1  0
  1 30  1  0
  1 31  1  0
  2 32  1  0
  2 33  1  0
  4 34  1  0
  4 35  1  0
  5 36  1  0
  5 37  1  0
  5 38  1  0
  6 39  1  0
  6 40  1  0
  7 41  1  0
  7 42  1  0
  8 43  1  0
  8 44  1  0
 12 45  1  0
 13 46  1  0
 14 47  1  0
 15 48  1  0
 16 49  1  0
 17 50  1  0
 20 51  1  0
 20 52  1  0
 20 53  1  0
 22 54  1  0
 23 55  1  0
 24 56  1  0
 27 57  1  0
 27 58  1  0
 27 59  1  0
M  CHG  1   8   1
M  END
>  <UniqueID>  (27) 
27

>  <SMILES>  (27) 
CCN(CC)CC[NH2+]c1c(-c2ccccc2)cc(OC)c2cccc(OC)c12

>  <Energy>  (27) 
86.88417681943204

>  <Genealogy>  (27) 
CCN(CC)CC[NH2+]c1c(-c2ccccc2)cc(OC)c2cccc(OC)c12 (protonated)
CCN(CC)CC[NH2+]c1c(-c2ccccc2)cc(OC)c2cccc(OC)c12 (3D coordinates assigned)
CCN(CC)CC[NH2+]c1c(-c2ccccc2)cc(OC)c2cccc(OC)c12 (optimized conformer: 86.88417681943204 kcal/mol)

>  <smiles>  (27) 
CCN(CC)CCNc1c(-c2ccccc2)cc(OC)c2cccc(OC)c12

>  <score_type>  (27) 
oracle

>  <origin>  (27) 
adg

>  <m_score__min__energy>  (27) 
-5.8099999999999996

>  <m_primary>  (27) 
energy

$$$$
27:0
     RDKit          3D

 46 48  0  0  1  0  0  0  0  0999 V2000
   58.6720   22.5710   45.2730 C   0  0  0  0  0  0  0  0  0  0  0  0
   58.4690   23.5340   46.3200 O   0  0  0  0  0  0  0  0  0  0  0  0
   58.0210   24.8140   46.0320 C   0  0  0  0  0  0  0  0  0  0  0  0
   58.8580   25.7060   45.3970 C   0  0  0  0  0  0  0  0  0  0  0  0
   58.4830   26.9960   45.0760 C   0  0  0  0  0  0  0  0  0  0  0  0
   57.2060   27.4560   45.3920 C   0  0  0  0  0  0  0  0  0  0  0  0
   56.8800   28.8140   45.0220 C   0  0  0  0  0  0  0  0  0  0  0  0
   55.6320   29.1780   44.6120 N   0  0  0  0  0  0  0  0  0  0  0  0
   55.6060   30.4760   44.3430 N   0  0  0  0  0  0  0  0  0  0  0  0
   56.8280   30.9700   44.5740 C   0  0  0  0  0  0  0  0  0  0  0  0
   57.6710   29.9450   45.0080 C   0  0  0  0  0  0  0  0  0  0  0  0
   59.0750   30.1600   45.3350 C   0  0  0  0  0  0  0  0  0  0  0  0
   59.2930   30.6770   46.6810 N   0  0  0  0  0  0  0  0  0  0  0  0
   60.3600   29.8230   47.2440 C   0  0  0  0  0  0  0  0  0  0  0  0
   59.8260   32.0240   46.6810 C   0  0  0  0  0  0  0  0  0  0  0  0
   58.8940   33.0720   47.2210 C   0  0  1  0  0  0  0  0  0  0  0  0
   59.6050   34.3750   47.5190 C   0  0  0  0  0  0  0  0  0  0  0  0
   59.2870   35.4010   46.6600 O   0  0  0  0  0  0  0  0  0  0  0  0
   59.2440   34.9550   45.3590 C   0  0  0  0  0  0  0  0  0  0  0  0
   58.0760   34.0110   45.2460 C   0  0  0  0  0  0  0  0  0  0  0  0
   57.8120   33.2670   46.3640 O   0  0  0  0  0  0  0  0  0  0  0  0
   56.3920   26.5600   46.0190 C   0  0  0  0  0  0  0  0  0  0  0  0
   56.7620   25.2580   46.3480 C   0  0  0  0  0  0  0  0  0  0  0  0
   58.8797   21.5859   45.7161 H   0  0  0  0  0  0  0  0  0  0  0  0
   57.7670   22.5097   44.6507 H   0  0  0  0  0  0  0  0  0  0  0  0
   59.5247   22.8802   44.6507 H   0  0  0  0  0  0  0  0  0  0  0  0
   59.8732   25.3747   45.1332 H   0  0  0  0  0  0  0  0  0  0  0  0
   59.1954   27.6632   44.5687 H   0  0  0  0  0  0  0  0  0  0  0  0
   54.7740   28.5970   44.4970 H   0  0  0  0  0  0  0  0  0  0  0  0
   57.1229   32.0215   44.4423 H   0  0  0  0  0  0  0  0  0  0  0  0
   59.6037   29.1998   45.2424 H   0  0  0  0  0  0  0  0  0  0  0  0
   59.4546   30.9187   44.6348 H   0  0  0  0  0  0  0  0  0  0  0  0
   60.3163   29.8580   48.3426 H   0  0  0  0  0  0  0  0  0  0  0  0
   60.2177   28.7865   46.9042 H   0  0  0  0  0  0  0  0  0  0  0  0
   61.3401   30.1889   46.9042 H   0  0  0  0  0  0  0  0  0  0  0  0
   60.7395   32.0303   47.2938 H   0  0  0  0  0  0  0  0  0  0  0  0
   60.0072   32.2847   45.6278 H   0  0  0  0  0  0  0  0  0  0  0  0
   58.5070   32.6978   48.1803 H   0  0  0  0  0  0  0  0  0  0  0  0
   59.3409   34.6861   48.5405 H   0  0  0  0  0  0  0  0  0  0  0  0
   60.6811   34.1827   47.3964 H   0  0  0  0  0  0  0  0  0  0  0  0
   59.1082   35.8051   44.6742 H   0  0  0  0  0  0  0  0  0  0  0  0
   60.1820   34.4468   45.0910 H   0  0  0  0  0  0  0  0  0  0  0  0
   57.1800   34.6059   45.0149 H   0  0  0  0  0  0  0  0  0  0  0  0
   58.3436   33.2907   44.4589 H   0  0  0  0  0  0  0  0  0  0  0  0
   55.3753   26.8870   46.2827 H   0  0  0  0  0  0  0  0  0  0  0  0
   56.0505   24.5912   46.8571 H   0  0  0  0  0  0  0  0  0  0  0  0
  1  2  1  0
  2  3  1  0
  3  4  2  0
  4  5  1  0
  5  6  2  0
  6  7  1  0
  7  8  1  0
  8  9  1  0
  9 10  2  0
 10 11  1  0
 11 12  1  0
 12 13  1  0
 13 14  1  0
 13 15  1  0
 15 16  1  0
 16 17  1  0
 17 18  1  0
 18 19  1  0
 19 20  1  0
 20 21  1  0
  6 22  1  0
 22 23  2  0
 23  3  1  0
 11  7  2  0
 21 16  1  0
  1 24  1  0
  1 25  1  0
  1 26  1  0
  4 27  1  0
  5 28  1  0
  8 29  1  0
 10 30  1  0
 12 31  1  0
 12 32  1  0
 14 33  1  0
 14 34  1  0
 14 35  1  0
 15 36  1  0
 15 37  1  0
 16 38  1  1
 17 39  1  0
 17 40  1  0
 19 41  1  0
 19 42  1  0
 20 43  1  0
 20 44  1  0
 22 45  1  0
 23 46  1  0
M  END
>  <smiles>  (28) 
COc1ccc(-c2[nH]ncc2CN(C)CC2COCCO2)cc1

>  <score_type>  (28) 
oracle

>  <origin>  (28) 
adg

>  <m_score__min__energy>  (28) 
-7.4699999999999998

>  <m_primary>  (28) 
energy

$$$$
28:0
     RDKit          3D

 38 40  0  0  0  0  0  0  0  0999 V2000
   58.8880   29.0420   48.1760 C   0  0  0  0  0  0  0  0  0  0  0  0
   59.2940   30.5110   48.1300 C   0  0  0  0  0  0  0  0  0  0  0  0
   59.5950   30.9200   46.7490 N   0  0  0  0  0  0  0  0  0  0  0  0
   59.9910   29.9710   45.7290 C   0  0  0  0  0  0  0  0  0  0  0  0
   61.0540   29.3070   45.8770 O   0  0  0  0  0  0  0  0  0  0  0  0
   59.1550   29.7010   44.5050 C   0  0  0  0  0  0  0  0  0  0  0  0
   57.9920   28.8720   44.8370 N   0  0  0  0  0  0  0  0  0  0  0  0
   56.6830   29.2370   44.8430 C   0  0  0  0  0  0  0  0  0  0  0  0
   56.2730   30.3760   44.4940 O   0  0  0  0  0  0  0  0  0  0  0  0
   55.8780   28.2800   45.2680 O   0  0  0  0  0  0  0  0  0  0  0  0
   56.6580   27.2690   45.5650 C   0  0  0  0  0  0  0  0  0  0  0  0
   56.3030   26.0200   46.0650 C   0  0  0  0  0  0  0  0  0  0  0  0
   57.3380   25.1020   46.3200 C   0  0  0  0  0  0  0  0  0  0  0  0
   58.6860   25.4540   46.0750 C   0  0  0  0  0  0  0  0  0  0  0  0
   59.0110   26.7260   45.5680 C   0  0  0  0  0  0  0  0  0  0  0  0
   57.9590   27.6130   45.3180 C   0  0  0  0  0  0  0  0  0  0  0  0
   59.3550   32.2910   46.3830 C   0  0  0  0  0  0  0  0  0  0  0  0
   58.1910   32.6430   45.6820 C   0  0  0  0  0  0  0  0  0  0  0  0
   57.9640   33.9740   45.3200 C   0  0  0  0  0  0  0  0  0  0  0  0
   58.8960   34.9610   45.6540 C   0  0  0  0  0  0  0  0  0  0  0  0
   60.0580   34.6180   46.3500 C   0  0  0  0  0  0  0  0  0  0  0  0
   60.2890   33.2870   46.7140 C   0  0  0  0  0  0  0  0  0  0  0  0
   58.7987   28.7189   49.2237 H   0  0  0  0  0  0  0  0  0  0  0  0
   57.9205   28.9129   47.6688 H   0  0  0  0  0  0  0  0  0  0  0  0
   59.6519   28.4344   47.6688 H   0  0  0  0  0  0  0  0  0  0  0  0
   58.4693   31.1267   48.5182 H   0  0  0  0  0  0  0  0  0  0  0  0
   60.1944   30.6505   48.7464 H   0  0  0  0  0  0  0  0  0  0  0  0
   58.8078   30.6578   44.0880 H   0  0  0  0  0  0  0  0  0  0  0  0
   59.7718   29.1625   43.7704 H   0  0  0  0  0  0  0  0  0  0  0  0
   55.2511   25.7598   46.2541 H   0  0  0  0  0  0  0  0  0  0  0  0
   57.0973   24.1031   46.7128 H   0  0  0  0  0  0  0  0  0  0  0  0
   59.4861   24.7282   46.2823 H   0  0  0  0  0  0  0  0  0  0  0  0
   60.0554   27.0124   45.3752 H   0  0  0  0  0  0  0  0  0  0  0  0
   57.4554   31.8694   45.4168 H   0  0  0  0  0  0  0  0  0  0  0  0
   57.0501   34.2453   44.7712 H   0  0  0  0  0  0  0  0  0  0  0  0
   58.7145   36.0078   45.3688 H   0  0  0  0  0  0  0  0  0  0  0  0
   60.7915   35.3948   46.6119 H   0  0  0  0  0  0  0  0  0  0  0  0
   61.2050   33.0194   47.2612 H   0  0  0  0  0  0  0  0  0  0  0  0
  1  2  1  0
  2  3  1  0
  3  4  1  0
  4  5  2  0
  4  6  1  0
  6  7  1  0
  7  8  1  0
  8  9  2  0
  8 10  1  0
 10 11  1  0
 11 12  2  0
 12 13  1  0
 13 14  2  0
 14 15  1  0
 15 16  2  0
  3 17  1  0
 17 18  2  0
 18 19  1  0
 19 20  2  0
 20 21  1  0
 21 22  2  0
 16  7  1  0
 22 17  1  0
 16 11  1  0
  1 23  1  0
  1 24  1  0
  1 25  1  0
  2 26  1  0
  2 27  1  0
  6 28  1  0
  6 29  1  0
 12 30  1  0
 13 31  1  0
 14 32  1  0
 15 33  1  0
 18 34  1  0
 19 35  1  0
 20 36  1  0
 21 37  1  0
 22 38  1  0
M  END
>  <UniqueID>  (29) 
28

>  <SMILES>  (29) 
CCN(C(=O)Cn1c(=O)oc2ccccc21)c1ccccc1

>  <Energy>  (29) 
85.00975856959468

>  <Genealogy>  (29) 
CCN(C(=O)Cn1c(=O)oc2ccccc21)c1ccccc1 (3D coordinates assigned)
CCN(C(=O)Cn1c(=O)oc2ccccc21)c1ccccc1 (optimized conformer: 85.00975856959468 kcal/mol)

>  <smiles>  (29) 
CCN(C(=O)Cn1c(=O)oc2ccccc21)c1ccccc1

>  <score_type>  (29) 
oracle

>  <origin>  (29) 
adg

>  <m_score__min__energy>  (29) 
-7.4400000000000004

>  <m_primary>  (29) 
energy

$$$$
29:0
     RDKit          3D

 32 33  0  0  0  0  0  0  0  0999 V2000
   60.6350   33.9640   47.3790 C   0  0  0  0  0  0  0  0  0  0  0  0
   59.5470   34.0830   46.4490 N   0  0  0  0  0  0  0  0  0  0  0  0
   59.6350   35.3760   45.8070 C   0  0  0  0  0  0  0  0  0  0  0  0
   58.3070   33.8730   47.1260 C   0  0  0  0  0  0  0  0  0  0  0  0
   57.3790   33.1110   46.2030 C   0  0  0  0  0  0  0  0  0  0  0  0
   58.0910   32.6030   45.0380 N   0  0  0  0  0  0  0  0  0  0  0  0
   57.9270   31.2660   44.5960 C   0  0  0  0  0  0  0  0  0  0  0  0
   57.1050   30.9310   43.5470 C   0  0  0  0  0  0  0  0  0  0  0  0
   56.9840   29.6120   43.1610 C   0  0  0  0  0  0  0  0  0  0  0  0
   57.6790   28.5850   43.8080 C   0  0  0  0  0  0  0  0  0  0  0  0
   57.7480   27.2590   43.6460 N   0  0  0  0  0  0  0  0  0  0  0  0
   58.5850   26.7680   44.5620 N   0  0  0  0  0  0  0  0  0  0  0  0
   59.0700   27.7500   45.3230 C   0  0  0  0  0  0  0  0  0  0  0  0
   59.9980   27.6810   46.4260 C   0  0  0  0  0  0  0  0  0  0  0  0
   60.7460   27.6130   47.3090 N   0  0  0  0  0  0  0  0  0  0  0  0
   58.5070   28.9220   44.8640 C   0  0  0  0  0  0  0  0  0  0  0  0
   58.6050   30.2490   45.2240 C   0  0  0  0  0  0  0  0  0  0  0  0
   60.2452   34.0066   48.4067 H   0  0  0  0  0  0  0  0  0  0  0  0
   61.1489   33.0043   47.2213 H   0  0  0  0  0  0  0  0  0  0  0  0
   61.3442   34.7899   47.2213 H   0  0  0  0  0  0  0  0  0  0  0  0
   59.6886   36.1631   46.5736 H   0  0  0  0  0  0  0  0  0  0  0  0
   60.5378   35.4132   45.1796 H   0  0  0  0  0  0  0  0  0  0  0  0
   58.7456   35.5351   45.1796 H   0  0  0  0  0  0  0  0  0  0  0  0
   58.4789   33.2904   48.0431 H   0  0  0  0  0  0  0  0  0  0  0  0
   57.8578   34.8394   47.3985 H   0  0  0  0  0  0  0  0  0  0  0  0
   56.9421   32.2646   46.7531 H   0  0  0  0  0  0  0  0  0  0  0  0
   56.5925   33.7978   45.8570 H   0  0  0  0  0  0  0  0  0  0  0  0
   58.7200   33.2480   44.5420 H   0  0  0  0  0  0  0  0  0  0  0  0
   56.5440   31.7138   43.0155 H   0  0  0  0  0  0  0  0  0  0  0  0
   56.3215   29.3606   42.3197 H   0  0  0  0  0  0  0  0  0  0  0  0
   57.2160   26.7220   42.9110 H   0  0  0  0  0  0  0  0  0  0  0  0
   59.2654   30.5094   46.0642 H   0  0  0  0  0  0  0  0  0  0  0  0
  1  2  1  0
  2  3  1  0
  2  4  1  0
  4  5  1  0
  5  6  1  0
  6  7  1  0
  7  8  2  0
  8  9  1  0
  9 10  2  0
 10 11  1  0
 11 12  1  0
 12 13  2  0
 13 14  1  0
 14 15  3  0
 13 16  1  0
 16 17  2  0
 17  7  1  0
 16 10  1  0
  1 18  1  0
  1 19  1  0
  1 20  1  0
  3 21  1  0
  3 22  1  0
  3 23  1  0
  4 24  1  0
  4 25  1  0
  5 26  1  0
  5 27  1  0
  6 28  1  0
  8 29  1  0
  9 30  1  0
 11 31  1  0
 17 32  1  0
M  END
>  <smiles>  (30) 
CN(C)CCNc1ccc2[nH]nc(C#N)c2c1

>  <score_type>  (30) 
oracle

>  <origin>  (30) 
adg

>  <m_score__min__energy>  (30) 
-5.3600000000000003

>  <m_primary>  (30) 
energy

$$$$
30:0
     RDKit          3D

 40 41  0  0  0  0  0  0  0  0999 V2000
   64.7090   32.0300   50.0480 C   0  0  0  0  0  0  0  0  0  0  0  0
   64.5060   33.1000   48.9820 C   0  0  0  0  0  0  0  0  0  0  0  0
   63.2000   32.6460   47.8530 S   0  0  0  0  0  0  0  0  0  0  0  0
   62.9070   33.8090   46.6760 O   0  0  0  0  0  0  0  0  0  0  0  0
   61.7340   32.1950   48.6670 N   0  0  0  0  0  0  0  0  0  0  0  0
   61.3000   32.9670   49.8390 C   0  0  0  0  0  0  0  0  0  0  0  0
   60.4850   34.2000   49.4290 C   0  0  0  0  0  0  0  0  0  0  0  0
   60.6020   34.4560   48.0300 O   0  0  0  0  0  0  0  0  0  0  0  0
   59.5990   34.2350   47.0720 C   0  0  0  0  0  0  0  0  0  0  0  0
   59.6520   34.7750   45.7700 C   0  0  0  0  0  0  0  0  0  0  0  0
   58.6140   34.5300   44.8650 C   0  0  0  0  0  0  0  0  0  0  0  0
   57.5210   33.7460   45.2450 C   0  0  0  0  0  0  0  0  0  0  0  0
   57.4670   33.2000   46.5290 C   0  0  0  0  0  0  0  0  0  0  0  0
   58.5040   33.4400   47.4360 C   0  0  0  0  0  0  0  0  0  0  0  0
   60.9270   31.1390   48.1050 C   0  0  0  0  0  0  0  0  0  0  0  0
   61.1130   30.7470   46.7670 C   0  0  0  0  0  0  0  0  0  0  0  0
   60.3410   29.7200   46.2150 C   0  0  0  0  0  0  0  0  0  0  0  0
   59.3750   29.0770   46.9910 C   0  0  0  0  0  0  0  0  0  0  0  0
   59.1790   29.4580   48.3200 C   0  0  0  0  0  0  0  0  0  0  0  0
   59.9490   30.4830   48.8760 C   0  0  0  0  0  0  0  0  0  0  0  0
   64.6226   32.4853   51.0456 H   0  0  0  0  0  0  0  0  0  0  0  0
   63.9430   31.2488   49.9339 H   0  0  0  0  0  0  0  0  0  0  0  0
   65.7079   31.5836   49.9339 H   0  0  0  0  0  0  0  0  0  0  0  0
   64.2432   34.0492   49.4718 H   0  0  0  0  0  0  0  0  0  0  0  0
   65.4401   33.2043   48.4106 H   0  0  0  0  0  0  0  0  0  0  0  0
   62.0240   34.1850   46.9150 H   0  0  0  0  0  0  0  0  0  0  0  0
   60.6785   32.3246   50.4801 H   0  0  0  0  0  0  0  0  0  0  0  0
   62.1957   33.3088   50.3784 H   0  0  0  0  0  0  0  0  0  0  0  0
   59.4267   34.0281   49.6747 H   0  0  0  0  0  0  0  0  0  0  0  0
   60.8744   35.0716   49.9756 H   0  0  0  0  0  0  0  0  0  0  0  0
   60.5116   35.3902   45.4657 H   0  0  0  0  0  0  0  0  0  0  0  0
   58.6580   34.9554   43.8516 H   0  0  0  0  0  0  0  0  0  0  0  0
   56.7037   33.5592   44.5328 H   0  0  0  0  0  0  0  0  0  0  0  0
   56.6082   32.5807   46.8273 H   0  0  0  0  0  0  0  0  0  0  0  0
   58.4598   33.0010   48.4436 H   0  0  0  0  0  0  0  0  0  0  0  0
   61.8712   31.2520   46.1504 H   0  0  0  0  0  0  0  0  0  0  0  0
   60.4950   29.4185   45.1684 H   0  0  0  0  0  0  0  0  0  0  0  0
   58.7679   28.2698   46.5553 H   0  0  0  0  0  0  0  0  0  0  0  0
   58.4173   28.9505   48.9302 H   0  0  0  0  0  0  0  0  0  0  0  0
   59.7898   30.7792   49.9233 H   0  0  0  0  0  0  0  0  0  0  0  0
  1  2  1  0
  2  3  1  0
  3  4  1  6
  3  5  1  0
  5  6  1  0
  6  7  1  0
  7  8  1  0
  8  9  1  0
  9 10  2  0
 10 11  1  0
 11 12  2  0
 12 13  1  0
 13 14  2  0
  5 15  1  0
 15 16  2  0
 16 17  1  0
 17 18  2  0
 18 19  1  0
 19 20  2  0
 14  9  1  0
 20 15  1  0
  1 21  1  0
  1 22  1  0
  1 23  1  0
  2 24  1  0
  2 25  1  0
  4 26  1  0
  6 27  1  0
  6 28  1  0
  7 29  1  0
  7 30  1  0
 10 31  1  0
 11 32  1  0
 12 33  1  0
 13 34  1  0
 14 35  1  0
 16 36  1  0
 17 37  1  0
 18 38  1  0
 19 39  1  0
 20 40  1  0
M  CHG  1   3   1
M  END
>  <UniqueID>  (31) 
29

>  <SMILES>  (31) 
CC[S@+](O)N(CCOc1ccccc1)c1ccccc1

>  <Energy>  (31) 
32.51409964075022

>  <Genealogy>  (31) 
CC[S+](O)N(CCOc1ccccc1)c1ccccc1 (protonated)
CC[S@+](O)N(CCOc1ccccc1)c1ccccc1 (chirality)
CC[S@+](O)N(CCOc1ccccc1)c1ccccc1 (3D coordinates assigned)
CC[S@+](O)N(CCOc1ccccc1)c1ccccc1 (optimized conformer: 32.51409964075022 kcal/mol)

>  <smiles>  (31) 
CC[S+]([O-])N(CCOc1ccccc1)c1ccccc1

>  <score_type>  (31) 
oracle

>  <origin>  (31) 
adg

>  <m_score__min__energy>  (31) 
-5.1600000000000001

>  <m_primary>  (31) 
energy

$$$$
31:0
     RDKit          3D

 31 31  0  0  0  0  0  0  0  0999 V2000
   56.6340   28.1870   45.2520 C   0  0  0  0  0  0  0  0  0  0  0  0
   55.7030   29.3170   45.1730 N   0  0  0  0  0  0  0  0  0  0  0  0
   55.5340   29.7840   43.7880 C   0  0  0  0  0  0  0  0  0  0  0  0
   56.8890   29.9230   43.0800 C   0  0  0  0  0  0  0  0  0  0  0  0
   57.9830   30.5630   43.9570 C   0  0  0  0  0  0  0  0  0  0  0  0
   58.1120   32.0130   43.7150 N   0  0  0  0  0  0  0  0  0  0  0  0
   58.0190   32.4790   42.3240 C   0  0  0  0  0  0  0  0  0  0  0  0
   58.4020   32.9640   44.7820 C   0  0  0  0  0  0  0  0  0  0  0  0
   57.8890   32.7900   46.0880 C   0  0  0  0  0  0  0  0  0  0  0  0
   58.1700   33.7120   47.1000 C   0  0  0  0  0  0  0  0  0  0  0  0
   58.9640   34.8260   46.8350 C   0  0  0  0  0  0  0  0  0  0  0  0
   59.4780   35.0220   45.5540 C   0  0  0  0  0  0  0  0  0  0  0  0
   59.2010   34.1050   44.5360 C   0  0  0  0  0  0  0  0  0  0  0  0
   56.8313   27.9475   46.3073 H   0  0  0  0  0  0  0  0  0  0  0  0
   56.1914   27.3117   44.7540 H   0  0  0  0  0  0  0  0  0  0  0  0
   57.5778   28.4540   44.7540 H   0  0  0  0  0  0  0  0  0  0  0  0
   54.7750   28.9700   45.5100 H   0  0  0  0  0  0  0  0  0  0  0  0
   54.9145   29.0601   43.2383 H   0  0  0  0  0  0  0  0  0  0  0  0
   55.0494   30.7713   43.8099 H   0  0  0  0  0  0  0  0  0  0  0  0
   57.2277   28.9209   42.7783 H   0  0  0  0  0  0  0  0  0  0  0  0
   56.7352   30.5906   42.2193 H   0  0  0  0  0  0  0  0  0  0  0  0
   57.7289   30.4014   45.0150 H   0  0  0  0  0  0  0  0  0  0  0  0
   58.9424   30.0904   43.6998 H   0  0  0  0  0  0  0  0  0  0  0  0
   57.8037   33.5577   42.3123 H   0  0  0  0  0  0  0  0  0  0  0  0
   58.9726   32.2898   41.8094 H   0  0  0  0  0  0  0  0  0  0  0  0
   57.2111   31.9383   41.8094 H   0  0  0  0  0  0  0  0  0  0  0  0
   57.2594   31.9160   46.3108 H   0  0  0  0  0  0  0  0  0  0  0  0
   57.7626   33.5576   48.1101 H   0  0  0  0  0  0  0  0  0  0  0  0
   59.1846   35.5488   47.6343 H   0  0  0  0  0  0  0  0  0  0  0  0
   60.1040   35.9017   45.3435 H   0  0  0  0  0  0  0  0  0  0  0  0
   59.6103   34.2731   43.5289 H   0  0  0  0  0  0  0  0  0  0  0  0
  1  2  1  0
  2  3  1  0
  3  4  1  0
  4  5  1  0
  5  6  1  0
  6  7  1  0
  6  8  1  0
  8  9  2  0
  9 10  1  0
 10 11  2  0
 11 12  1  0
 12 13  2  0
 13  8  1  0
  1 14  1  0
  1 15  1  0
  1 16  1  0
  2 17  1  0
  3 18  1  0
  3 19  1  0
  4 20  1  0
  4 21  1  0
  5 22  1  0
  5 23  1  0
  7 24  1  0
  7 25  1  0
  7 26  1  0
  9 27  1  0
 10 28  1  0
 11 29  1  0
 12 30  1  0
 13 31  1  0
M  END
>  <UniqueID>  (32) 
30

>  <SMILES>  (32) 
CNCCCN(C)c1ccccc1

>  <Energy>  (32) 
28.99618299110051

>  <Genealogy>  (32) 
CNCCCN(C)c1ccccc1 (3D coordinates assigned)
CNCCCN(C)c1ccccc1 (optimized conformer: 28.99618299110051 kcal/mol)

>  <smiles>  (32) 
CNCCCN(C)c1ccccc1

>  <score_type>  (32) 
oracle

>  <origin>  (32) 
adg

>  <m_score__min__energy>  (32) 
-5.4900000000000002

>  <m_primary>  (32) 
energy

$$$$
32:0
     RDKit          3D

 46 49  0  0  0  0  0  0  0  0999 V2000
   57.4640   25.6480   44.8840 C   0  0  0  0  0  0  0  0  0  0  0  0
   57.2740   26.5120   46.1260 C   0  0  0  0  0  0  0  0  0  0  0  0
   56.3890   27.6000   45.8570 O   0  0  0  0  0  0  0  0  0  0  0  0
   56.6780   28.7030   45.0370 C   0  0  0  0  0  0  0  0  0  0  0  0
   55.6900   29.3990   44.3150 C   0  0  0  0  0  0  0  0  0  0  0  0
   56.0370   30.4930   43.5170 C   0  0  0  0  0  0  0  0  0  0  0  0
   57.3720   30.9150   43.4330 C   0  0  0  0  0  0  0  0  0  0  0  0
   57.7400   32.0980   42.5750 C   0  0  0  0  0  0  0  0  0  0  0  0
   58.5250   33.0700   43.3400 N   0  0  0  0  0  0  0  0  0  0  0  0
   58.4660   33.2210   44.7720 C   0  0  0  0  0  0  0  0  0  0  0  0
   57.2140   33.3330   45.3960 C   0  0  0  0  0  0  0  0  0  0  0  0
   57.1230   33.4650   46.7830 C   0  0  0  0  0  0  0  0  0  0  0  0
   58.2800   33.4880   47.5640 C   0  0  0  0  0  0  0  0  0  0  0  0
   59.5430   33.3840   46.9620 C   0  0  0  0  0  0  0  0  0  0  0  0
   60.7650   33.4020   47.7930 C   0  0  0  0  0  0  0  0  0  0  0  0
   61.9410   32.8300   47.4120 N   0  0  0  0  0  0  0  0  0  0  0  0
   62.7350   33.0920   48.4630 C   0  0  0  0  0  0  0  0  0  0  0  0
   64.0710   32.7420   48.6350 C   0  0  0  0  0  0  0  0  0  0  0  0
   64.6990   33.1300   49.8350 C   0  0  0  0  0  0  0  0  0  0  0  0
   66.3810   32.7180   50.1130 Cl  0  0  0  0  0  0  0  0  0  0  0  0
   63.9790   33.8540   50.8170 C   0  0  0  0  0  0  0  0  0  0  0  0
   62.6290   34.1900   50.6070 C   0  0  0  0  0  0  0  0  0  0  0  0
   62.0450   33.7870   49.4090 C   0  0  0  0  0  0  0  0  0  0  0  0
   60.8260   33.9740   48.9860 O   0  0  0  0  0  0  0  0  0  0  0  0
   59.6300   33.2580   45.5650 C   0  0  0  0  0  0  0  0  0  0  0  0
   58.3600   30.2100   44.1370 C   0  0  0  0  0  0  0  0  0  0  0  0
   58.0120   29.1160   44.9340 C   0  0  0  0  0  0  0  0  0  0  0  0
   57.6911   24.6152   45.1870 H   0  0  0  0  0  0  0  0  0  0  0  0
   56.5418   25.6598   44.2845 H   0  0  0  0  0  0  0  0  0  0  0  0
   58.2962   26.0456   44.2845 H   0  0  0  0  0  0  0  0  0  0  0  0
   56.8521   25.8952   46.9332 H   0  0  0  0  0  0  0  0  0  0  0  0
   58.2513   26.9185   46.4253 H   0  0  0  0  0  0  0  0  0  0  0  0
   54.6392   29.0802   44.3792 H   0  0  0  0  0  0  0  0  0  0  0  0
   55.2585   31.0261   42.9516 H   0  0  0  0  0  0  0  0  0  0  0  0
   58.3335   31.7504   41.7166 H   0  0  0  0  0  0  0  0  0  0  0  0
   56.8160   32.5843   42.2291 H   0  0  0  0  0  0  0  0  0  0  0  0
   59.1340   33.7230   42.7950 H   0  0  0  0  0  0  0  0  0  0  0  0
   56.2975   33.3167   44.7879 H   0  0  0  0  0  0  0  0  0  0  0  0
   56.1365   33.5512   47.2619 H   0  0  0  0  0  0  0  0  0  0  0  0
   58.2010   33.5881   48.6566 H   0  0  0  0  0  0  0  0  0  0  0  0
   64.6172   32.1823   47.8615 H   0  0  0  0  0  0  0  0  0  0  0  0
   64.4785   34.1554   51.7495 H   0  0  0  0  0  0  0  0  0  0  0  0
   62.0564   34.7501   51.3610 H   0  0  0  0  0  0  0  0  0  0  0  0
   60.6175   33.1875   45.0855 H   0  0  0  0  0  0  0  0  0  0  0  0
   59.4128   30.5197   44.0613 H   0  0  0  0  0  0  0  0  0  0  0  0
   58.7939   28.5739   45.4860 H   0  0  0  0  0  0  0  0  0  0  0  0
  1  2  1  0
  2  3  1  0
  3  4  1  0
  4  5  2  0
  5  6  1  0
  6  7  2  0
  7  8  1  0
  8  9  1  0
  9 10  1  0
 10 11  2  0
 11 12  1  0
 12 13  2  0
 13 14  1  0
 14 15  1  0
 15 16  2  0
 16 17  1  0
 17 18  2  0
 18 19  1  0
 19 20  1  0
 19 21  2  0
 21 22  1  0
 22 23  2  0
 23 24  1  0
 14 25  2  0
  7 26  1  0
 26 27  2  0
 27  4  1  0
 25 10  1  0
 24 15  1  0
 23 17  1  0
  1 28  1  0
  1 29  1  0
  1 30  1  0
  2 31  1  0
  2 32  1  0
  5 33  1  0
  6 34  1  0
  8 35  1  0
  8 36  1  0
  9 37  1  0
 11 38  1  0
 12 39  1  0
 13 40  1  0
 18 41  1  0
 21 42  1  0
 22 43  1  0
 25 44  1  0
 26 45  1  0
 27 46  1  0
M  END
>  <UniqueID>  (33) 
31

>  <SMILES>  (33) 
CCOc1ccc(CNc2cccc(-c3nc4cc(Cl)ccc4o3)c2)cc1

>  <Energy>  (33) 
84.62134259432058

>  <Genealogy>  (33) 
CCOc1ccc(CNc2cccc(-c3nc4cc(Cl)ccc4o3)c2)cc1 (3D coordinates assigned)
CCOc1ccc(CNc2cccc(-c3nc4cc(Cl)ccc4o3)c2)cc1 (optimized conformer: 84.62134259432058 kcal/mol)

>  <smiles>  (33) 
CCOc1ccc(CNc2cccc(-c3nc4cc(Cl)ccc4o3)c2)cc1

>  <score_type>  (33) 
oracle

>  <origin>  (33) 
adg

>  <m_score__min__energy>  (33) 
-7.9500000000000002

>  <m_primary>  (33) 
energy

$$$$
33:0
     RDKit          3D

 30 31  0  0  0  0  0  0  0  0999 V2000
   57.8010   32.3140   42.6590 N   0  0  0  0  0  0  0  0  0  0  0  0
   57.4250   31.5220   43.7860 C   0  0  0  0  0  0  0  0  0  0  0  0
   56.8840   32.0780   44.7790 O   0  0  0  0  0  0  0  0  0  0  0  0
   57.6510   30.1040   43.7700 N   0  0  0  0  0  0  0  0  0  0  0  0
   57.3970   29.2440   44.8950 C   0  0  0  0  0  0  0  0  0  0  0  0
   57.2150   29.7440   46.0390 O   0  0  0  0  0  0  0  0  0  0  0  0
   57.3800   27.7690   44.7390 C   0  0  0  0  0  0  0  0  0  0  0  0
   57.7800   27.1850   43.5250 C   0  0  0  0  0  0  0  0  0  0  0  0
   57.7720   25.7950   43.3680 C   0  0  0  0  0  0  0  0  0  0  0  0
   57.3730   24.9590   44.4230 C   0  0  0  0  0  0  0  0  0  0  0  0
   57.3660   23.4820   44.2560 C   0  0  0  0  0  0  0  0  0  0  0  0
   58.0620   22.6550   45.1550 C   0  0  0  0  0  0  0  0  0  0  0  0
   58.0430   21.2700   44.9780 C   0  0  0  0  0  0  0  0  0  0  0  0
   57.3530   20.7200   43.9430 N   0  0  0  0  0  0  0  0  0  0  0  0
   56.6700   21.4950   43.0570 C   0  0  0  0  0  0  0  0  0  0  0  0
   56.6640   22.8850   43.1960 C   0  0  0  0  0  0  0  0  0  0  0  0
   56.9860   25.5420   45.6410 C   0  0  0  0  0  0  0  0  0  0  0  0
   56.9910   26.9320   45.7980 C   0  0  0  0  0  0  0  0  0  0  0  0
   58.2470   31.8740   41.8250 H   0  0  0  0  0  0  0  0  0  0  0  0
   57.6360   33.3450   42.6610 H   0  0  0  0  0  0  0  0  0  0  0  0
   58.0600   29.6930   42.9020 H   0  0  0  0  0  0  0  0  0  0  0  0
   58.1021   27.8262   42.6913 H   0  0  0  0  0  0  0  0  0  0  0  0
   58.0811   25.3530   42.4093 H   0  0  0  0  0  0  0  0  0  0  0  0
   58.6191   23.0970   45.9942 H   0  0  0  0  0  0  0  0  0  0  0  0
   58.5885   20.6209   45.6788 H   0  0  0  0  0  0  0  0  0  0  0  0
   57.3480   19.6830   43.8240 H   0  0  0  0  0  0  0  0  0  0  0  0
   56.1205   21.0250   42.2281 H   0  0  0  0  0  0  0  0  0  0  0  0
   56.1118   23.5094   42.4783 H   0  0  0  0  0  0  0  0  0  0  0  0
   56.6763   24.8999   46.4787 H   0  0  0  0  0  0  0  0  0  0  0  0
   56.6878   27.3734   46.7589 H   0  0  0  0  0  0  0  0  0  0  0  0
  1  2  1  0
  2  3  2  0
  2  4  1  0
  4  5  1  0
  5  6  2  0
  5  7  1  0
  7  8  2  0
  8  9  1  0
  9 10  2  0
 10 11  1  0
 11 12  2  0
 12 13  1  0
 13 14  2  0
 14 15  1  0
 15 16  2  0
 10 17  1  0
 17 18  2  0
 18  7  1  0
 16 11  1  0
  1 19  1  0
  1 20  1  0
  4 21  1  0
  8 22  1  0
  9 23  1  0
 12 24  1  0
 13 25  1  0
 14 26  1  0
 15 27  1  0
 16 28  1  0
 17 29  1  0
 18 30  1  0
M  CHG  1  14   1
M  END
>  <UniqueID>  (34) 
32

>  <SMILES>  (34) 
NC(=O)NC(=O)c1ccc(-c2cc[nH+]cc2)cc1

>  <Energy>  (34) 
36.8962177744737

>  <Genealogy>  (34) 
NC(=O)NC(=O)c1ccc(-c2cc[nH+]cc2)cc1 (protonated)
NC(=O)NC(=O)c1ccc(-c2cc[nH+]cc2)cc1 (3D coordinates assigned)
NC(=O)NC(=O)c1ccc(-c2cc[nH+]cc2)cc1 (optimized conformer: 36.8962177744737 kcal/mol)

>  <smiles>  (34) 
NC(=O)NC(=O)c1ccc(-c2ccncc2)cc1

>  <score_type>  (34) 
oracle

>  <origin>  (34) 
adg

>  <m_score__min__energy>  (34) 
-5.7699999999999996

>  <m_primary>  (34) 
energy

$$$$
34:0
     RDKit          3D

 35 37  0  0  0  0  0  0  0  0999 V2000
   58.1440   32.5640   41.4760 C   0  0  0  0  0  0  0  0  0  0  0  0
   57.7700   32.0190   42.7370 O   0  0  0  0  0  0  0  0  0  0  0  0
   58.1130   32.5740   43.9800 C   0  0  0  0  0  0  0  0  0  0  0  0
   58.7290   33.8380   44.0820 C   0  0  0  0  0  0  0  0  0  0  0  0
   59.0120   34.3870   45.3360 C   0  0  0  0  0  0  0  0  0  0  0  0
   58.6810   33.6890   46.4970 C   0  0  0  0  0  0  0  0  0  0  0  0
   58.0780   32.4330   46.4100 C   0  0  0  0  0  0  0  0  0  0  0  0
   57.8110   31.8580   45.1580 C   0  0  0  0  0  0  0  0  0  0  0  0
   57.1780   30.5240   45.1020 C   0  0  0  0  0  0  0  0  0  0  0  0
   55.9110   30.3320   44.6810 N   0  0  0  0  0  0  0  0  0  0  0  0
   55.6740   29.0360   44.7990 N   0  0  0  0  0  0  0  0  0  0  0  0
   56.7800   28.4460   45.2880 C   0  0  0  0  0  0  0  0  0  0  0  0
   56.8760   26.9980   45.5750 C   0  0  0  0  0  0  0  0  0  0  0  0
   58.0380   26.2870   45.2390 C   0  0  0  0  0  0  0  0  0  0  0  0
   58.1310   24.9230   45.5230 C   0  0  0  0  0  0  0  0  0  0  0  0
   57.0650   24.2820   46.1540 C   0  0  0  0  0  0  0  0  0  0  0  0
   55.9520   24.9840   46.4920 N   0  0  0  0  0  0  0  0  0  0  0  0
   55.8350   26.3120   46.2230 C   0  0  0  0  0  0  0  0  0  0  0  0
   57.7490   29.3640   45.5080 N   0  0  0  0  0  0  0  0  0  0  0  0
   59.0340   29.1790   46.1840 C   0  0  0  0  0  0  0  0  0  0  0  0
   58.7601   33.4617   41.6327 H   0  0  0  0  0  0  0  0  0  0  0  0
   58.7210   31.8175   40.9105 H   0  0  0  0  0  0  0  0  0  0  0  0
   57.2399   32.8339   40.9105 H   0  0  0  0  0  0  0  0  0  0  0  0
   58.9884   34.3953   43.1698 H   0  0  0  0  0  0  0  0  0  0  0  0
   59.4969   35.3718   45.4072 H   0  0  0  0  0  0  0  0  0  0  0  0
   58.8953   34.1286   47.4823 H   0  0  0  0  0  0  0  0  0  0  0  0
   57.8104   31.8905   47.3287 H   0  0  0  0  0  0  0  0  0  0  0  0
   54.7730   28.5760   44.5420 H   0  0  0  0  0  0  0  0  0  0  0  0
   58.8769   26.8049   44.7511 H   0  0  0  0  0  0  0  0  0  0  0  0
   59.0360   24.3596   45.2518 H   0  0  0  0  0  0  0  0  0  0  0  0
   57.1255   23.2068   46.3782 H   0  0  0  0  0  0  0  0  0  0  0  0
   54.9215   26.8513   46.5140 H   0  0  0  0  0  0  0  0  0  0  0  0
   58.8818   29.2009   47.2732 H   0  0  0  0  0  0  0  0  0  0  0  0
   59.4650   28.2096   45.8934 H   0  0  0  0  0  0  0  0  0  0  0  0
   59.7209   29.9875   45.8934 H   0  0  0  0  0  0  0  0  0  0  0  0
  1  2  1  0
  2  3  1  0
  3  4  2  0
  4  5  1  0
  5  6  2  0
  6  7  1  0
  7  8  2  0
  8  9  1  0
  9 10  2  0
 10 11  1  0
 11 12  2  0
 12 13  1  0
 13 14  2  0
 14 15  1  0
 15 16  2  0
 16 17  1  0
 17 18  2  0
 12 19  1  0
 19 20  1  0
  8  3  1  0
 19  9  1  0
 18 13  1  0
  1 21  1  0
  1 22  1  0
  1 23  1  0
  4 24  1  0
  5 25  1  0
  6 26  1  0
  7 27  1  0
 11 28  1  0
 14 29  1  0
 15 30  1  0
 16 31  1  0
 18 32  1  0
 20 33  1  0
 20 34  1  0
 20 35  1  0
M  CHG  1  11   1
M  END
>  <UniqueID>  (35) 
33

>  <SMILES>  (35) 
COc1ccccc1-c1n[nH+]c(-c2cccnc2)n1C

>  <Energy>  (35) 
83.24142498871102

>  <Genealogy>  (35) 
COc1ccccc1-c1n[nH+]c(-c2cccnc2)n1C (protonated)
COc1ccccc1-c1n[nH+]c(-c2cccnc2)n1C (3D coordinates assigned)
COc1ccccc1-c1n[nH+]c(-c2cccnc2)n1C (optimized conformer: 83.24142498871102 kcal/mol)

>  <smiles>  (35) 
COc1ccccc1-c1nnc(-c2cccnc2)n1C

>  <score_type>  (35) 
oracle

>  <origin>  (35) 
adg

>  <m_score__min__energy>  (35) 
-5.6100000000000003

>  <m_primary>  (35) 
energy

$$$$
35:0
     RDKit          3D

 41 43  0  0  0  0  0  0  0  0999 V2000
   59.5610   31.6160   49.5120 C   0  0  0  0  0  0  0  0  0  0  0  0
   59.2300   33.1020   49.4410 C   0  0  0  0  0  0  0  0  0  0  0  0
   60.1780   33.7970   48.5580 N   0  0  0  0  0  0  0  0  0  0  0  0
   59.6900   34.6150   47.4400 C   0  0  0  0  0  0  0  0  0  0  0  0
   59.0660   33.7330   46.3950 C   0  0  0  0  0  0  0  0  0  0  0  0
   58.0060   34.2090   45.6120 C   0  0  0  0  0  0  0  0  0  0  0  0
   57.3880   33.3730   44.6810 C   0  0  0  0  0  0  0  0  0  0  0  0
   57.8030   32.0430   44.5350 C   0  0  0  0  0  0  0  0  0  0  0  0
   57.1790   31.2330   43.5180 C   0  0  0  0  0  0  0  0  0  0  0  0
   56.6780   30.5840   42.7010 N   0  0  0  0  0  0  0  0  0  0  0  0
   58.8490   31.5410   45.3400 C   0  0  0  0  0  0  0  0  0  0  0  0
   59.2820   30.1710   45.2440 N   0  0  0  0  0  0  0  0  0  0  0  0
   59.9140   29.4530   46.1910 C   0  0  0  0  0  0  0  0  0  0  0  0
   60.1150   28.1800   45.7910 N   0  0  0  0  0  0  0  0  0  0  0  0
   59.5630   28.1650   44.5570 C   0  0  0  0  0  0  0  0  0  0  0  0
   59.0540   29.3630   44.2260 N   0  0  0  0  0  0  0  0  0  0  0  0
   59.4780   32.3980   46.2600 C   0  0  0  0  0  0  0  0  0  0  0  0
   61.5950   33.6210   48.7410 C   0  0  0  0  0  0  0  0  0  0  0  0
   62.1800   33.8220   50.0030 C   0  0  0  0  0  0  0  0  0  0  0  0
   63.5520   33.6230   50.1830 C   0  0  0  0  0  0  0  0  0  0  0  0
   64.3490   33.2230   49.1080 C   0  0  0  0  0  0  0  0  0  0  0  0
   65.6790   33.0280   49.2860 F   0  0  0  0  0  0  0  0  0  0  0  0
   63.7750   33.0200   47.8500 C   0  0  0  0  0  0  0  0  0  0  0  0
   62.4030   33.2170   47.6650 C   0  0  0  0  0  0  0  0  0  0  0  0
   59.6301   31.3057   50.5650 H   0  0  0  0  0  0  0  0  0  0  0  0
   58.7692   31.0396   49.0111 H   0  0  0  0  0  0  0  0  0  0  0  0
   60.5225   31.4302   49.0111 H   0  0  0  0  0  0  0  0  0  0  0  0
   58.2102   33.2277   49.0484 H   0  0  0  0  0  0  0  0  0  0  0  0
   59.3022   33.5321   50.4508 H   0  0  0  0  0  0  0  0  0  0  0  0
   58.9394   35.3286   47.8106 H   0  0  0  0  0  0  0  0  0  0  0  0
   60.5348   35.1614   46.9953 H   0  0  0  0  0  0  0  0  0  0  0  0
   57.6595   35.2461   45.7316 H   0  0  0  0  0  0  0  0  0  0  0  0
   56.5692   33.7612   44.0574 H   0  0  0  0  0  0  0  0  0  0  0  0
   60.2268   29.8530   47.1668 H   0  0  0  0  0  0  0  0  0  0  0  0
   59.5343   27.2802   43.9041 H   0  0  0  0  0  0  0  0  0  0  0  0
   58.5360   29.6040   43.3520 H   0  0  0  0  0  0  0  0  0  0  0  0
   60.3025   32.0180   46.8812 H   0  0  0  0  0  0  0  0  0  0  0  0
   61.5560   34.1371   50.8523 H   0  0  0  0  0  0  0  0  0  0  0  0
   64.0046   33.7817   51.1729 H   0  0  0  0  0  0  0  0  0  0  0  0
   64.4035   32.7048   47.0040 H   0  0  0  0  0  0  0  0  0  0  0  0
   61.9548   33.0551   46.6736 H   0  0  0  0  0  0  0  0  0  0  0  0
  1  2  1  0
  2  3  1  0
  3  4  1  0
  4  5  1  0
  5  6  2  0
  6  7  1  0
  7  8  2  0
  8  9  1  0
  9 10  3  0
  8 11  1  0
 11 12  1  0
 12 13  1  0
 13 14  2  0
 14 15  1  0
 15 16  2  0
 11 17  2  0
  3 18  1  0
 18 19  2  0
 19 20  1  0
 20 21  2  0
 21 22  1  0
 21 23  1  0
 23 24  2  0
 17  5  1  0
 24 18  1  0
 16 12  1  0
  1 25  1  0
  1 26  1  0
  1 27  1  0
  2 28  1  0
  2 29  1  0
  4 30  1  0
  4 31  1  0
  6 32  1  0
  7 33  1  0
 13 34  1  0
 15 35  1  0
 16 36  1  0
 17 37  1  0
 19 38  1  0
 20 39  1  0
 23 40  1  0
 24 41  1  0
M  CHG  1  16   1
M  END
>  <UniqueID>  (36) 
34

>  <SMILES>  (36) 
CCN(Cc1ccc(C#N)c(-n2cnc[nH+]2)c1)c1ccc(F)cc1

>  <Energy>  (36) 
80.80779393014464

>  <Genealogy>  (36) 
CCN(Cc1ccc(C#N)c(-n2cnc[nH+]2)c1)c1ccc(F)cc1 (protonated)
CCN(Cc1ccc(C#N)c(-n2cnc[nH+]2)c1)c1ccc(F)cc1 (3D coordinates assigned)
CCN(Cc1ccc(C#N)c(-n2cnc[nH+]2)c1)c1ccc(F)cc1 (optimized conformer: 80.80779393014464 kcal/mol)

>  <smiles>  (36) 
CCN(Cc1ccc(C#N)c(-n2cncn2)c1)c1ccc(F)cc1

>  <score_type>  (36) 
oracle

>  <origin>  (36) 
adg

>  <m_score__min__energy>  (36) 
-5.9299999999999997

>  <m_primary>  (36) 
energy

$$$$
36:0
     RDKit          3D

 59 61  0  0  0  0  0  0  0  0999 V2000
   57.7640   30.6420   55.0400 C   0  0  0  0  0  0  0  0  0  0  0  0
   57.1360   31.5220   54.1180 O   0  0  0  0  0  0  0  0  0  0  0  0
   57.7280   31.9860   52.9330 C   0  0  0  0  0  0  0  0  0  0  0  0
   58.5340   33.1400   52.9020 C   0  0  0  0  0  0  0  0  0  0  0  0
   59.1120   33.5670   51.7060 C   0  0  0  0  0  0  0  0  0  0  0  0
   58.8880   32.8590   50.5190 C   0  0  0  0  0  0  0  0  0  0  0  0
   59.4960   33.3390   49.2200 C   0  0  0  0  0  0  0  0  0  0  0  0
   59.1310   32.4700   48.0750 N   0  0  0  0  0  0  0  0  0  0  0  0
   60.2210   31.5100   47.7570 C   0  0  0  0  0  0  0  0  0  0  0  0
   59.9780   30.7660   46.4260 C   0  0  0  0  0  0  0  0  0  0  0  0
   58.6020   31.0020   45.9480 N   0  0  0  0  0  0  0  0  0  0  0  0
   58.2000   30.1330   44.8210 C   0  0  0  0  0  0  0  0  0  0  0  0
   57.9610   28.6840   45.2040 C   0  0  0  0  0  0  0  0  0  0  0  0
   59.0530   27.8310   45.4110 C   0  0  0  0  0  0  0  0  0  0  0  0
   58.8500   26.5090   45.7970 C   0  0  0  0  0  0  0  0  0  0  0  0
   57.5590   26.0210   45.9860 C   0  0  0  0  0  0  0  0  0  0  0  0
   56.4480   26.8460   45.7540 C   0  0  0  0  0  0  0  0  0  0  0  0
   55.1330   26.3900   45.9380 O   0  0  0  0  0  0  0  0  0  0  0  0
   54.6830   25.0740   45.6300 C   0  0  0  0  0  0  0  0  0  0  0  0
   56.6520   28.1750   45.3410 C   0  0  0  0  0  0  0  0  0  0  0  0
   55.5610   29.0010   45.0690 O   0  0  0  0  0  0  0  0  0  0  0  0
   55.4390   29.7040   43.8370 C   0  0  0  0  0  0  0  0  0  0  0  0
   58.3680   32.4350   45.6900 C   0  0  0  0  0  0  0  0  0  0  0  0
   58.8130   33.3010   46.8930 C   0  0  0  0  0  0  0  0  0  0  0  0
   58.0840   31.7120   50.5450 C   0  0  0  0  0  0  0  0  0  0  0  0
   57.5070   31.2670   51.7490 C   0  0  0  0  0  0  0  0  0  0  0  0
   56.7050   30.1180   51.8080 O   0  0  0  0  0  0  0  0  0  0  0  0
   55.3660   30.0940   52.2850 C   0  0  0  0  0  0  0  0  0  0  0  0
   57.5351   30.9627   56.0670 H   0  0  0  0  0  0  0  0  0  0  0  0
   57.3904   29.6193   54.8834 H   0  0  0  0  0  0  0  0  0  0  0  0
   58.8526   30.6627   54.8834 H   0  0  0  0  0  0  0  0  0  0  0  0
   58.7092   33.7089   53.8270 H   0  0  0  0  0  0  0  0  0  0  0  0
   59.7473   34.4650   51.6956 H   0  0  0  0  0  0  0  0  0  0  0  0
   59.1391   34.3597   49.0178 H   0  0  0  0  0  0  0  0  0  0  0  0
   60.5902   33.3114   49.3291 H   0  0  0  0  0  0  0  0  0  0  0  0
   58.2660   31.9310   48.3350 H   0  0  0  0  0  0  0  0  0  0  0  0
   61.1692   32.0629   47.6850 H   0  0  0  0  0  0  0  0  0  0  0  0
   60.2530   30.7595   48.5606 H   0  0  0  0  0  0  0  0  0  0  0  0
   60.6911   31.1303   45.6718 H   0  0  0  0  0  0  0  0  0  0  0  0
   60.1186   29.6874   46.5896 H   0  0  0  0  0  0  0  0  0  0  0  0
   57.2699   30.5338   44.3917 H   0  0  0  0  0  0  0  0  0  0  0  0
   59.0366   30.1362   44.1068 H   0  0  0  0  0  0  0  0  0  0  0  0
   60.0764   28.2080   45.2677 H   0  0  0  0  0  0  0  0  0  0  0  0
   59.7137   25.8461   45.9536 H   0  0  0  0  0  0  0  0  0  0  0  0
   57.4097   24.9833   46.3189 H   0  0  0  0  0  0  0  0  0  0  0  0
   54.4946   24.5231   46.5633 H   0  0  0  0  0  0  0  0  0  0  0  0
   53.7536   25.1319   45.0444 H   0  0  0  0  0  0  0  0  0  0  0  0
   55.4533   24.5507   45.0444 H   0  0  0  0  0  0  0  0  0  0  0  0
   55.2541   30.7693   44.0395 H   0  0  0  0  0  0  0  0  0  0  0  0
   56.3692   29.5965   43.2598 H   0  0  0  0  0  0  0  0  0  0  0  0
   54.5994   29.2894   43.2598 H   0  0  0  0  0  0  0  0  0  0  0  0
   58.9392   32.7371   44.7998 H   0  0  0  0  0  0  0  0  0  0  0  0
   57.2905   32.5885   45.5304 H   0  0  0  0  0  0  0  0  0  0  0  0
   59.7078   33.8741   46.6085 H   0  0  0  0  0  0  0  0  0  0  0  0
   57.9835   33.9730   47.1583 H   0  0  0  0  0  0  0  0  0  0  0  0
   57.9019   31.1536   49.6149 H   0  0  0  0  0  0  0  0  0  0  0  0
   55.3686   30.0940   53.3850 H   0  0  0  0  0  0  0  0  0  0  0  0
   54.8306   30.9827   51.9195 H   0  0  0  0  0  0  0  0  0  0  0  0
   54.8628   29.1867   51.9195 H   0  0  0  0  0  0  0  0  0  0  0  0
  1  2  1  0
  2  3  1  0
  3  4  2  0
  4  5  1  0
  5  6  2  0
  6  7  1  0
  7  8  1  0
  8  9  1  0
  9 10  1  0
 10 11  1  0
 11 12  1  0
 12 13  1  0
 13 14  2  0
 14 15  1  0
 15 16  2  0
 16 17  1  0
 17 18  1  0
 18 19  1  0
 17 20  2  0
 20 21  1  0
 21 22  1  0
 11 23  1  0
 23 24  1  0
  6 25  1  0
 25 26  2  0
 26 27  1  0
 27 28  1  0
 26  3  1  0
 24  8  1  0
 20 13  1  0
  1 29  1  0
  1 30  1  0
  1 31  1  0
  4 32  1  0
  5 33  1  0
  7 34  1  0
  7 35  1  0
  8 36  1  0
  9 37  1  0
  9 38  1  0
 10 39  1  0
 10 40  1  0
 12 41  1  0
 12 42  1  0
 14 43  1  0
 15 44  1  0
 16 45  1  0
 19 46  1  0
 19 47  1  0
 19 48  1  0
 22 49  1  0
 22 50  1  0
 22 51  1  0
 23 52  1  0
 23 53  1  0
 24 54  1  0
 24 55  1  0
 25 56  1  0
 28 57  1  0
 28 58  1  0
 28 59  1  0
M  CHG  1   8   1
M  END
>  <UniqueID>  (37) 
35

>  <SMILES>  (37) 
COc1ccc(C[NH+]2CCN(Cc3cccc(OC)c3OC)CC2)cc1OC

>  <Energy>  (37) 
76.81418435557823

>  <Genealogy>  (37) 
COc1ccc(C[NH+]2CCN(Cc3cccc(OC)c3OC)CC2)cc1OC (protonated)
COc1ccc(C[NH+]2CCN(Cc3cccc(OC)c3OC)CC2)cc1OC (3D coordinates assigned)
COc1ccc(C[NH+]2CCN(Cc3cccc(OC)c3OC)CC2)cc1OC (nonaromatic ring conformer: 76.81418435557823 kcal/mol)

>  <smiles>  (37) 
COc1ccc(CN2CCN(Cc3cccc(OC)c3OC)CC2)cc1OC

>  <score_type>  (37) 
oracle

>  <origin>  (37) 
adg

>  <m_score__min__energy>  (37) 
-6.9500000000000002

>  <m_primary>  (37) 
energy

$$$$
37:0
     RDKit          3D

 56 59  0  0  1  0  0  0  0  0999 V2000
   59.0320   26.4430   45.6530 C   0  0  0  0  0  0  0  0  0  0  0  0
   58.5110   27.8270   45.4780 C   0  0  0  0  0  0  0  0  0  0  0  0
   58.0840   28.1770   44.2130 C   0  0  0  0  0  0  0  0  0  0  0  0
   58.1400   27.0710   42.8580 Cl  0  0  0  0  0  0  0  0  0  0  0  0
   57.6130   29.4420   44.0690 N   0  0  0  0  0  0  0  0  0  0  0  0
   57.5620   30.3040   45.0910 C   0  0  0  0  0  0  0  0  0  0  0  0
   57.0860   31.4980   44.8430 N   0  0  0  0  0  0  0  0  0  0  0  0
   59.4800   29.2400   48.5670 C   0  0  0  0  0  0  0  0  0  0  0  0
   58.7780   29.9620   49.5110 C   0  0  0  0  0  0  0  0  0  0  0  0
   58.5710   33.9940   47.1200 C   0  0  0  0  0  0  0  0  0  0  0  0
   59.2390   34.8160   46.2130 C   0  0  0  0  0  0  0  0  0  0  0  0
   59.2070   34.5600   44.8560 C   0  0  0  0  0  0  0  0  0  0  0  0
   60.8610   29.4730   48.5120 C   0  0  0  0  0  0  0  0  0  0  0  0
   57.9800   29.9660   46.3350 N   0  0  0  0  0  0  0  0  0  0  0  0
   58.4580   28.7280   46.5430 C   0  0  0  0  0  0  0  0  0  0  0  0
   58.8790   28.3040   47.6850 N   0  0  0  0  0  0  0  0  0  0  0  0
   57.8350   32.6420   45.2410 C   0  0  0  0  0  0  0  0  0  0  0  0
   57.8690   32.9020   46.6080 C   0  0  0  0  0  0  0  0  0  0  0  0
   59.3710   30.8680   50.3670 C   0  0  0  0  0  0  0  0  0  0  0  0
   60.7330   31.0800   50.2940 C   0  0  0  0  0  0  0  0  0  0  0  0
   61.3430   31.9900   51.1520 O   0  0  0  0  0  0  0  0  0  0  0  0
   61.5930   33.3320   50.7880 C   0  0  0  0  0  0  0  0  0  0  0  0
   61.2810   33.5460   49.3450 C   0  0  0  0  0  0  0  0  0  0  0  0
   62.3580   34.2020   48.6620 N   0  0  0  0  0  0  0  0  0  0  0  0
   62.4330   33.8430   47.2660 C   0  0  0  0  0  0  0  0  0  0  0  0
   63.3640   32.6640   47.1740 C   0  0  0  0  0  0  0  0  0  0  0  0
   63.8050   32.4360   48.5810 C   0  0  0  0  0  0  0  0  0  0  0  0
   63.6100   33.7590   49.2510 C   0  0  0  0  0  0  0  0  0  0  0  0
   61.4660   30.3740   49.3600 C   0  0  0  0  0  0  0  0  0  0  0  0
   58.5000   33.4610   44.3570 C   0  0  0  0  0  0  0  0  0  0  0  0
   59.1173   26.2163   46.7260 H   0  0  0  0  0  0  0  0  0  0  0  0
   58.3412   25.7288   45.1811 H   0  0  0  0  0  0  0  0  0  0  0  0
   60.0223   26.3616   45.1811 H   0  0  0  0  0  0  0  0  0  0  0  0
   57.2900   29.7100   43.1220 H   0  0  0  0  0  0  0  0  0  0  0  0
   57.6914   29.8076   49.5848 H   0  0  0  0  0  0  0  0  0  0  0  0
   58.5965   34.1990   48.2004 H   0  0  0  0  0  0  0  0  0  0  0  0
   59.8020   35.6846   46.5852 H   0  0  0  0  0  0  0  0  0  0  0  0
   59.7417   35.2256   44.1623 H   0  0  0  0  0  0  0  0  0  0  0  0
   61.4724   28.9267   47.7787 H   0  0  0  0  0  0  0  0  0  0  0  0
   57.9350   30.6500   47.1210 H   0  0  0  0  0  0  0  0  0  0  0  0
   57.3323   32.2340   47.2978 H   0  0  0  0  0  0  0  0  0  0  0  0
   58.7631   31.4167   51.1014 H   0  0  0  0  0  0  0  0  0  0  0  0
   60.9628   33.9963   51.3975 H   0  0  0  0  0  0  0  0  0  0  0  0
   62.6560   33.5565   50.9604 H   0  0  0  0  0  0  0  0  0  0  0  0
   61.0997   32.5702   48.8708 H   0  0  0  0  0  0  0  0  0  0  0  0
   60.3903   34.1879   49.2779 H   0  0  0  0  0  0  0  0  0  0  0  0
   61.4359   33.5694   46.8905 H   0  0  0  0  0  0  0  0  0  0  0  0
   62.7981   34.6847   46.6592 H   0  0  0  0  0  0  0  0  0  0  0  0
   62.8380   31.7810   46.7820 H   0  0  0  0  0  0  0  0  0  0  0  0
   64.2077   32.8453   46.4919 H   0  0  0  0  0  0  0  0  0  0  0  0
   63.1888   31.6618   49.0615 H   0  0  0  0  0  0  0  0  0  0  0  0
   64.8454   32.0842   48.6425 H   0  0  0  0  0  0  0  0  0  0  0  0
   63.5234   33.6477   50.3419 H   0  0  0  0  0  0  0  0  0  0  0  0
   64.4451   34.4607   49.1084 H   0  0  0  0  0  0  0  0  0  0  0  0
   62.5522   30.5342   49.2923 H   0  0  0  0  0  0  0  0  0  0  0  0
   58.4759   33.2549   43.2768 H   0  0  0  0  0  0  0  0  0  0  0  0
  1  2  1  0
  2  3  2  0
  3  4  1  0
  3  5  1  0
  5  6  1  0
  6  7  2  0
  7  8  1  0
  8  9  2  0
  9 10  1  0
 10 11  2  0
 11 12  1  0
 12 13  2  0
  6 14  1  0
 14 15  1  0
 15 16  2  0
 16 17  1  0
 17 18  2  0
 18 19  1  0
 19 20  2  0
 20 21  1  0
 21 22  1  0
 22 23  1  0
 23 24  1  0
 24 25  1  0
 25 26  1  0
 26 27  1  0
 27 28  1  0
 20 29  1  0
 29 30  2  0
 15  2  1  0
 30 17  1  0
 13  8  1  0
 28 24  1  0
  1 31  1  0
  1 32  1  0
  1 33  1  0
  5 34  1  0
  9 35  1  0
 10 36  1  0
 11 37  1  0
 12 38  1  0
 13 39  1  0
 14 40  1  0
 18 41  1  0
 19 42  1  0
 22 43  1  0
 22 44  1  0
 23 45  1  0
 23 46  1  0
 25 47  1  0
 25 48  1  0
 26 49  1  0
 26 50  1  0
 27 51  1  0
 27 52  1  0
 28 53  1  0
 28 54  1  0
 29 55  1  0
 30 56  1  0
M  END
>  <smiles>  (38) 
Cc1c(Cl)[nH]c(=Nc2ccccc2)[nH]c1=Nc1ccc(OCCN2CCCC2)cc1

>  <score_type>  (38) 
oracle

>  <origin>  (38) 
adg

>  <m_score__min__energy>  (38) 
-8.7599999999999998

>  <m_primary>  (38) 
energy

$$$$
38:0
     RDKit          3D

 36 37  0  0  0  0  0  0  0  0999 V2000
   60.0210   34.6670   46.0040 C   0  0  0  0  0  0  0  0  0  0  0  0
   58.6760   34.3780   45.6400 O   0  0  0  0  0  0  0  0  0  0  0  0
   58.2380   33.1450   45.1320 C   0  0  0  0  0  0  0  0  0  0  0  0
   57.8860   32.9760   43.7790 C   0  0  0  0  0  0  0  0  0  0  0  0
   57.4530   31.7320   43.3110 C   0  0  0  0  0  0  0  0  0  0  0  0
   57.3530   30.6410   44.1870 C   0  0  0  0  0  0  0  0  0  0  0  0
   56.9400   29.2930   43.6670 C   0  0  0  0  0  0  0  0  0  0  0  0
   57.2650   28.2670   44.6630 N   0  0  0  0  0  0  0  0  0  0  0  0
   58.4910   27.5530   44.2930 C   0  0  0  0  0  0  0  0  0  0  0  0
   59.3120   27.2210   45.5420 C   0  0  0  0  0  0  0  0  0  0  0  0
   58.9750   25.5230   46.1390 S   0  0  0  0  0  0  0  0  0  0  0  0
   57.1860   25.6530   46.0460 C   0  0  0  0  0  0  0  0  0  0  0  0
   56.4630   26.6270   46.6270 N   0  0  0  0  0  0  0  0  0  0  0  0
   55.2010   26.3300   46.3470 N   0  0  0  0  0  0  0  0  0  0  0  0
   55.1430   25.2160   45.6310 N   0  0  0  0  0  0  0  0  0  0  0  0
   56.3730   24.7800   45.4320 N   0  0  0  0  0  0  0  0  0  0  0  0
   56.7270   23.5560   44.7260 C   0  0  0  0  0  0  0  0  0  0  0  0
   57.7200   30.8020   45.5310 C   0  0  0  0  0  0  0  0  0  0  0  0
   58.1510   32.0480   46.0030 C   0  0  0  0  0  0  0  0  0  0  0  0
   58.5940   32.2160   47.6950 Cl  0  0  0  0  0  0  0  0  0  0  0  0
   60.1082   34.6857   47.1004 H   0  0  0  0  0  0  0  0  0  0  0  0
   60.6859   33.8912   45.5965 H   0  0  0  0  0  0  0  0  0  0  0  0
   60.3086   35.6474   45.5965 H   0  0  0  0  0  0  0  0  0  0  0  0
   57.9522   33.8279   43.0863 H   0  0  0  0  0  0  0  0  0  0  0  0
   57.1893   31.6080   42.2503 H   0  0  0  0  0  0  0  0  0  0  0  0
   55.8567   29.2893   43.4762 H   0  0  0  0  0  0  0  0  0  0  0  0
   57.4768   29.0798   42.7308 H   0  0  0  0  0  0  0  0  0  0  0  0
   56.4800   27.5720   44.6790 H   0  0  0  0  0  0  0  0  0  0  0  0
   58.2248   26.6196   43.7754 H   0  0  0  0  0  0  0  0  0  0  0  0
   59.0916   28.1940   43.6308 H   0  0  0  0  0  0  0  0  0  0  0  0
   60.3814   27.3085   45.2998 H   0  0  0  0  0  0  0  0  0  0  0  0
   59.0299   27.9273   46.3367 H   0  0  0  0  0  0  0  0  0  0  0  0
   56.9558   22.7651   45.4554 H   0  0  0  0  0  0  0  0  0  0  0  0
   55.8835   23.2398   44.0947 H   0  0  0  0  0  0  0  0  0  0  0  0
   57.6091   23.7389   44.0947 H   0  0  0  0  0  0  0  0  0  0  0  0
   57.6690   29.9447   46.2183 H   0  0  0  0  0  0  0  0  0  0  0  0
  1  2  1  0
  2  3  1  0
  3  4  2  0
  4  5  1  0
  5  6  2  0
  6  7  1  0
  7  8  1  0
  8  9  1  0
  9 10  1  0
 10 11  1  0
 11 12  1  0
 12 13  2  0
 13 14  1  0
 14 15  2  0
 15 16  1  0
 16 17  1  0
  6 18  1  0
 18 19  2  0
 19 20  1  0
 19  3  1  0
 16 12  1  0
  1 21  1  0
  1 22  1  0
  1 23  1  0
  4 24  1  0
  5 25  1  0
  7 26  1  0
  7 27  1  0
  8 28  1  0
  9 29  1  0
  9 30  1  0
 10 31  1  0
 10 32  1  0
 17 33  1  0
 17 34  1  0
 17 35  1  0
 18 36  1  0
M  END
>  <UniqueID>  (39) 
36

>  <SMILES>  (39) 
COc1ccc(CNCCSc2nnnn2C)cc1Cl

>  <Energy>  (39) 
67.16217982006467

>  <Genealogy>  (39) 
COc1ccc(CNCCSc2nnnn2C)cc1Cl (3D coordinates assigned)
COc1ccc(CNCCSc2nnnn2C)cc1Cl (optimized conformer: 67.16217982006467 kcal/mol)

>  <smiles>  (39) 
COc1ccc(CNCCSc2nnnn2C)cc1Cl

>  <score_type>  (39) 
oracle

>  <origin>  (39) 
adg

>  <m_score__min__energy>  (39) 
-7.2599999999999998

>  <m_primary>  (39) 
energy

$$$$
39:0
     RDKit          3D

 42 44  0  0  0  0  0  0  0  0999 V2000
   60.0250   28.6060   44.5750 C   0  0  0  0  0  0  0  0  0  0  0  0
   59.5050   28.4980   45.9380 N   0  0  0  0  0  0  0  0  0  0  0  0
   59.9580   29.4350   46.9670 C   0  0  0  0  0  0  0  0  0  0  0  0
   58.6310   27.4060   46.2700 C   0  0  0  0  0  0  0  0  0  0  0  0
   58.9410   26.5890   47.3190 N   0  0  0  0  0  0  0  0  0  0  0  0
   58.1310   25.5610   47.6900 C   0  0  0  0  0  0  0  0  0  0  0  0
   56.9460   25.3160   46.9980 C   0  0  0  0  0  0  0  0  0  0  0  0
   56.5970   26.1390   45.9290 C   0  0  0  0  0  0  0  0  0  0  0  0
   57.4290   27.2070   45.5630 C   0  0  0  0  0  0  0  0  0  0  0  0
   57.0720   28.0900   44.4880 N   0  0  0  0  0  0  0  0  0  0  0  0
   56.3910   29.3440   44.6290 C   0  0  0  0  0  0  0  0  0  0  0  0
   55.1540   29.3350   44.8650 O   0  0  0  0  0  0  0  0  0  0  0  0
   57.0930   30.6370   44.4410 C   0  0  0  0  0  0  0  0  0  0  0  0
   57.6860   31.2860   45.5380 C   0  0  0  0  0  0  0  0  0  0  0  0
   58.3420   32.5200   45.3820 C   0  0  0  0  0  0  0  0  0  0  0  0
   58.9440   33.2060   46.5540 C   0  0  0  0  0  0  0  0  0  0  0  0
   58.7150   32.7410   47.8600 C   0  0  0  0  0  0  0  0  0  0  0  0
   59.2790   33.4040   48.9520 C   0  0  0  0  0  0  0  0  0  0  0  0
   60.0690   34.5320   48.7330 C   0  0  0  0  0  0  0  0  0  0  0  0
   60.2850   34.9750   47.4670 N   0  0  0  0  0  0  0  0  0  0  0  0
   59.7490   34.3470   46.3860 C   0  0  0  0  0  0  0  0  0  0  0  0
   58.4160   33.0930   44.1010 C   0  0  0  0  0  0  0  0  0  0  0  0
   57.8460   32.4460   43.0040 C   0  0  0  0  0  0  0  0  0  0  0  0
   57.1890   31.2240   43.1660 C   0  0  0  0  0  0  0  0  0  0  0  0
   56.6240   30.6320   42.0820 F   0  0  0  0  0  0  0  0  0  0  0  0
   61.1015   28.8296   44.6099 H   0  0  0  0  0  0  0  0  0  0  0  0
   59.8649   27.6554   44.0451 H   0  0  0  0  0  0  0  0  0  0  0  0
   59.4996   29.4142   44.0451 H   0  0  0  0  0  0  0  0  0  0  0  0
   59.7541   29.0133   47.9623 H   0  0  0  0  0  0  0  0  0  0  0  0
   61.0388   29.6071   46.8561 H   0  0  0  0  0  0  0  0  0  0  0  0
   59.4216   30.3889   46.8561 H   0  0  0  0  0  0  0  0  0  0  0  0
   59.8270   26.7410   47.8490 H   0  0  0  0  0  0  0  0  0  0  0  0
   58.4121   24.9208   48.5391 H   0  0  0  0  0  0  0  0  0  0  0  0
   56.2929   24.4814   47.2928 H   0  0  0  0  0  0  0  0  0  0  0  0
   55.6676   25.9507   45.3715 H   0  0  0  0  0  0  0  0  0  0  0  0
   57.6361   30.8214   46.5338 H   0  0  0  0  0  0  0  0  0  0  0  0
   58.0890   31.8513   48.0229 H   0  0  0  0  0  0  0  0  0  0  0  0
   59.1018   33.0400   49.9748 H   0  0  0  0  0  0  0  0  0  0  0  0
   60.5174   35.0632   49.5855 H   0  0  0  0  0  0  0  0  0  0  0  0
   59.9462   34.7335   45.3752 H   0  0  0  0  0  0  0  0  0  0  0  0
   58.9264   34.0575   43.9622 H   0  0  0  0  0  0  0  0  0  0  0  0
   57.9145   32.9013   42.0050 H   0  0  0  0  0  0  0  0  0  0  0  0
  1  2  1  0
  2  3  1  0
  2  4  1  0
  4  5  2  0
  5  6  1  0
  6  7  2  0
  7  8  1  0
  8  9  2  0
  9 10  1  0
 10 11  1  0
 11 12  2  0
 11 13  1  0
 13 14  2  0
 14 15  1  0
 15 16  1  0
 16 17  2  0
 17 18  1  0
 18 19  2  0
 19 20  1  0
 20 21  2  0
 15 22  2  0
 22 23  1  0
 23 24  2  0
 24 25  1  0
  9  4  1  0
 24 13  1  0
 21 16  1  0
  1 26  1  0
  1 27  1  0
  1 28  1  0
  3 29  1  0
  3 30  1  0
  3 31  1  0
  5 32  1  0
  6 33  1  0
  7 34  1  0
  8 35  1  0
 14 36  1  0
 17 37  1  0
 18 38  1  0
 19 39  1  0
 21 40  1  0
 22 41  1  0
 23 42  1  0
M  CHG  2   5   1  10  -1
M  END
>  <UniqueID>  (40) 
37

>  <SMILES>  (40) 
CN(C)c1[nH+]cccc1[N-]C(=O)c1cc(-c2cccnc2)ccc1F

>  <Energy>  (40) 
60.73334288063028

>  <Genealogy>  (40) 
CN(C)c1[nH+]cccc1[N-]C(=O)c1cc(-c2cccnc2)ccc1F (protonated)
CN(C)c1[nH+]cccc1[N-]C(=O)c1cc(-c2cccnc2)ccc1F (3D coordinates assigned)
CN(C)c1[nH+]cccc1[N-]C(=O)c1cc(-c2cccnc2)ccc1F (optimized conformer: 60.73334288063028 kcal/mol)

>  <smiles>  (40) 
CN(C)c1ncccc1NC(=O)c1cc(-c2cccnc2)ccc1F

>  <score_type>  (40) 
oracle

>  <origin>  (40) 
adg

>  <m_score__min__energy>  (40) 
-7.96

>  <m_primary>  (40) 
energy

$$$$
40:0
     RDKit          3D

 49 52  0  0  0  0  0  0  0  0999 V2000
   52.4540   21.5340   47.1150 C   0  0  0  0  0  0  0  0  0  0  0  0
   53.2630   21.7920   45.9710 O   0  0  0  0  0  0  0  0  0  0  0  0
   54.5450   22.3640   45.9990 C   0  0  0  0  0  0  0  0  0  0  0  0
   55.6880   21.5480   46.0500 C   0  0  0  0  0  0  0  0  0  0  0  0
   56.9600   22.1040   46.0770 C   0  0  0  0  0  0  0  0  0  0  0  0
   57.1330   23.4910   46.0530 C   0  0  0  0  0  0  0  0  0  0  0  0
   58.3920   24.0110   46.0750 N   0  0  0  0  0  0  0  0  0  0  0  0
   58.6280   25.3510   46.0430 C   0  0  0  0  0  0  0  0  0  0  0  0
   60.0530   25.8450   46.0530 C   0  0  0  0  0  0  0  0  0  0  0  0
   57.5420   26.2510   46.0190 C   0  0  0  0  0  0  0  0  0  0  0  0
   57.7620   27.7170   46.0190 C   0  0  0  0  0  0  0  0  0  0  0  0
   58.3540   28.3410   47.1250 C   0  0  0  0  0  0  0  0  0  0  0  0
   58.5630   29.7220   47.1280 C   0  0  0  0  0  0  0  0  0  0  0  0
   58.1860   30.5040   46.0200 C   0  0  0  0  0  0  0  0  0  0  0  0
   58.4080   31.9730   46.0220 C   0  0  0  0  0  0  0  0  0  0  0  0
   57.6170   32.8170   45.2200 C   0  0  0  0  0  0  0  0  0  0  0  0
   57.8280   34.2000   45.2240 C   0  0  0  0  0  0  0  0  0  0  0  0
   58.8280   34.7540   46.0250 C   0  0  0  0  0  0  0  0  0  0  0  0
   59.6200   33.9270   46.8260 C   0  0  0  0  0  0  0  0  0  0  0  0
   59.4130   32.5440   46.8260 C   0  0  0  0  0  0  0  0  0  0  0  0
   57.5990   29.8710   44.9100 C   0  0  0  0  0  0  0  0  0  0  0  0
   57.3900   28.4890   44.9100 C   0  0  0  0  0  0  0  0  0  0  0  0
   56.2300   25.7420   45.9920 C   0  0  0  0  0  0  0  0  0  0  0  0
   55.2620   26.5520   45.9690 O   0  0  0  0  0  0  0  0  0  0  0  0
   56.0030   24.3430   46.0030 C   0  0  0  0  0  0  0  0  0  0  0  0
   54.6950   23.7780   45.9740 C   0  0  0  0  0  0  0  0  0  0  0  0
   53.5920   24.6560   45.9210 O   0  0  0  0  0  0  0  0  0  0  0  0
   52.3720   24.4660   45.2120 C   0  0  0  0  0  0  0  0  0  0  0  0
   53.0392   21.7206   48.0275 H   0  0  0  0  0  0  0  0  0  0  0  0
   51.5762   22.1968   47.1004 H   0  0  0  0  0  0  0  0  0  0  0  0
   52.1220   20.4854   47.1004 H   0  0  0  0  0  0  0  0  0  0  0  0
   55.5734   20.4541   46.0688 H   0  0  0  0  0  0  0  0  0  0  0  0
   57.8408   21.4463   46.1177 H   0  0  0  0  0  0  0  0  0  0  0  0
   59.2100   23.3580   46.1140 H   0  0  0  0  0  0  0  0  0  0  0  0
   60.3929   25.9628   47.0925 H   0  0  0  0  0  0  0  0  0  0  0  0
   60.6969   25.1176   45.5369 H   0  0  0  0  0  0  0  0  0  0  0  0
   60.1085   26.8148   45.5369 H   0  0  0  0  0  0  0  0  0  0  0  0
   58.6558   27.7401   47.9956 H   0  0  0  0  0  0  0  0  0  0  0  0
   59.0257   30.2021   48.0029 H   0  0  0  0  0  0  0  0  0  0  0  0
   56.8279   32.3864   44.5860 H   0  0  0  0  0  0  0  0  0  0  0  0
   57.2046   34.8522   44.5947 H   0  0  0  0  0  0  0  0  0  0  0  0
   58.9926   35.8416   46.0257 H   0  0  0  0  0  0  0  0  0  0  0  0
   60.4074   34.3645   47.4574 H   0  0  0  0  0  0  0  0  0  0  0  0
   60.0396   31.8978   47.4584 H   0  0  0  0  0  0  0  0  0  0  0  0
   57.3021   30.4680   44.0351 H   0  0  0  0  0  0  0  0  0  0  0  0
   56.9313   28.0049   44.0352 H   0  0  0  0  0  0  0  0  0  0  0  0
   51.5475   24.3376   45.9288 H   0  0  0  0  0  0  0  0  0  0  0  0
   52.1747   25.3443   44.5797 H   0  0  0  0  0  0  0  0  0  0  0  0
   52.4512   23.5694   44.5797 H   0  0  0  0  0  0  0  0  0  0  0  0
  1  2  1  0
  2  3  1  0
  3  4  2  0
  4  5  1  0
  5  6  2  0
  6  7  1  0
  7  8  1  0
  8  9  1  0
  8 10  2  0
 10 11  1  0
 11 12  2  0
 12 13  1  0
 13 14  2  0
 14 15  1  0
 15 16  2  0
 16 17  1  0
 17 18  2  0
 18 19  1  0
 19 20  2  0
 14 21  1  0
 21 22  2  0
 10 23  1  0
 23 24  2  0
 23 25  1  0
 25 26  2  0
 26 27  1  0
 27 28  1  0
 26  3  1  0
 25  6  1  0
 22 11  1  0
 20 15  1  0
  1 29  1  0
  1 30  1  0
  1 31  1  0
  4 32  1  0
  5 33  1  0
  7 34  1  0
  9 35  1  0
  9 36  1  0
  9 37  1  0
 12 38  1  0
 13 39  1  0
 16 40  1  0
 17 41  1  0
 18 42  1  0
 19 43  1  0
 20 44  1  0
 21 45  1  0
 22 46  1  0
 28 47  1  0
 28 48  1  0
 28 49  1  0
M  END
>  <UniqueID>  (41) 
38

>  <SMILES>  (41) 
COc1ccc2[nH]c(C)c(-c3ccc(-c4ccccc4)cc3)c(=O)c2c1OC

>  <Energy>  (41) 
76.65458116008439

>  <Genealogy>  (41) 
COc1ccc2[nH]c(C)c(-c3ccc(-c4ccccc4)cc3)c(=O)c2c1OC (3D coordinates assigned)
COc1ccc2[nH]c(C)c(-c3ccc(-c4ccccc4)cc3)c(=O)c2c1OC (optimized conformer: 76.65458116008439 kcal/mol)

>  <smiles>  (41) 
COc1ccc2[nH]c(C)c(-c3ccc(-c4ccccc4)cc3)c(=O)c2c1OC

>  <score_type>  (41) 
oracle

>  <origin>  (41) 
adg

>  <m_score__min__energy>  (41) 
-8.4499999999999993

>  <m_primary>  (41) 
energy

$$$$
41:0
     RDKit          3D

 44 44  0  0  0  0  0  0  0  0999 V2000
   60.5710   28.8920   44.8730 C   0  0  0  0  0  0  0  0  0  0  0  0
   59.1130   29.0190   45.3150 C   0  0  0  0  0  0  0  0  0  0  0  0
   58.1200   28.7130   44.1830 C   0  0  0  0  0  0  0  0  0  0  0  0
   56.6730   29.0630   44.5580 C   0  0  0  0  0  0  0  0  0  0  0  0
   56.2650   30.4190   43.9720 C   0  0  0  0  0  0  0  0  0  0  0  0
   56.6400   31.4750   44.8540 O   0  0  0  0  0  0  0  0  0  0  0  0
   57.6440   32.4080   44.5600 C   0  0  0  0  0  0  0  0  0  0  0  0
   57.7270   32.9070   43.4040 O   0  0  0  0  0  0  0  0  0  0  0  0
   58.5840   32.7880   45.5800 N   0  0  0  0  0  0  0  0  0  0  0  0
   58.5790   32.0930   46.8720 C   0  0  0  0  0  0  0  0  0  0  0  0
   59.9220   32.2850   47.5950 C   0  0  0  0  0  0  0  0  0  0  0  0
   60.2990   33.7280   47.7750 N   0  0  0  0  0  0  0  0  0  0  0  0
   59.6570   34.2120   49.0280 C   0  0  0  0  0  0  0  0  0  0  0  0
   61.7800   33.8500   47.9840 C   0  0  0  0  0  0  0  0  0  0  0  0
   62.6650   33.4880   46.7740 C   0  0  0  0  0  0  0  0  0  0  0  0
   59.8320   34.6070   46.6470 C   0  0  0  0  0  0  0  0  0  0  0  0
   59.5730   33.8440   45.3400 C   0  0  0  0  0  0  0  0  0  0  0  0
   61.2194   28.8355   45.7598 H   0  0  0  0  0  0  0  0  0  0  0  0
   60.6934   27.9798   44.2706 H   0  0  0  0  0  0  0  0  0  0  0  0
   60.8493   29.7693   44.2706 H   0  0  0  0  0  0  0  0  0  0  0  0
   58.9332   28.3146   46.1405 H   0  0  0  0  0  0  0  0  0  0  0  0
   58.9503   30.0615   45.6261 H   0  0  0  0  0  0  0  0  0  0  0  0
   58.4055   29.2975   43.2960 H   0  0  0  0  0  0  0  0  0  0  0  0
   58.1614   27.6316   43.9860 H   0  0  0  0  0  0  0  0  0  0  0  0
   56.0017   28.2851   44.1654 H   0  0  0  0  0  0  0  0  0  0  0  0
   56.5994   29.1191   45.6541 H   0  0  0  0  0  0  0  0  0  0  0  0
   56.7663   30.5607   43.0032 H   0  0  0  0  0  0  0  0  0  0  0  0
   55.1732   30.4361   43.8389 H   0  0  0  0  0  0  0  0  0  0  0  0
   57.7704   32.4988   47.4977 H   0  0  0  0  0  0  0  0  0  0  0  0
   58.4214   31.0186   46.6961 H   0  0  0  0  0  0  0  0  0  0  0  0
   59.8545   31.8154   48.5874 H   0  0  0  0  0  0  0  0  0  0  0  0
   60.6983   31.8211   46.9688 H   0  0  0  0  0  0  0  0  0  0  0  0
   60.1959   33.8058   49.8967 H   0  0  0  0  0  0  0  0  0  0  0  0
   59.6911   35.3111   49.0566 H   0  0  0  0  0  0  0  0  0  0  0  0
   58.6097   33.8768   49.0566 H   0  0  0  0  0  0  0  0  0  0  0  0
   61.9964   34.8928   48.2594 H   0  0  0  0  0  0  0  0  0  0  0  0
   62.0309   33.1172   48.7650 H   0  0  0  0  0  0  0  0  0  0  0  0
   63.6285   33.0939   47.1293 H   0  0  0  0  0  0  0  0  0  0  0  0
   62.1588   32.7247   46.1648 H   0  0  0  0  0  0  0  0  0  0  0  0
   62.8389   34.3873   46.1648 H   0  0  0  0  0  0  0  0  0  0  0  0
   58.8971   35.0990   46.9536 H   0  0  0  0  0  0  0  0  0  0  0  0
   60.6376   35.3283   46.4453 H   0  0  0  0  0  0  0  0  0  0  0  0
   59.1898   34.5395   44.5788 H   0  0  0  0  0  0  0  0  0  0  0  0
   60.5119   33.3941   44.9850 H   0  0  0  0  0  0  0  0  0  0  0  0
  1  2  1  0
  2  3  1  0
  3  4  1  0
  4  5  1  0
  5  6  1  0
  6  7  1  0
  7  8  2  0
  7  9  1  0
  9 10  1  0
 10 11  1  0
 11 12  1  0
 12 13  1  0
 12 14  1  0
 14 15  1  0
 12 16  1  0
 16 17  1  0
 17  9  1  0
  1 18  1  0
  1 19  1  0
  1 20  1  0
  2 21  1  0
  2 22  1  0
  3 23  1  0
  3 24  1  0
  4 25  1  0
  4 26  1  0
  5 27  1  0
  5 28  1  0
 10 29  1  0
 10 30  1  0
 11 31  1  0
 11 32  1  0
 13 33  1  0
 13 34  1  0
 13 35  1  0
 14 36  1  0
 14 37  1  0
 15 38  1  0
 15 39  1  0
 15 40  1  0
 16 41  1  0
 16 42  1  0
 17 43  1  0
 17 44  1  0
M  CHG  1  12   1
M  END
>  <UniqueID>  (42) 
39

>  <SMILES>  (42) 
CCCCCOC(=O)N1CC[N+](C)(CC)CC1

>  <Energy>  (42) 
45.8545972113367

>  <Genealogy>  (42) 
CCCCCOC(=O)N1CC[N+](C)(CC)CC1 (3D coordinates assigned)
CCCCCOC(=O)N1CC[N+](C)(CC)CC1 (nonaromatic ring conformer: 45.8545972113367 kcal/mol)

>  <smiles>  (42) 
CCCCCOC(=O)N1CC[N+](C)(CC)CC1

>  <score_type>  (42) 
oracle

>  <origin>  (42) 
adg

>  <m_score__min__energy>  (42) 
-4.1600000000000001

>  <m_primary>  (42) 
energy

$$$$
42:0
     RDKit          3D

 37 39  0  0  0  0  0  0  0  0999 V2000
   62.1480   31.6540   47.4700 C   0  0  0  0  0  0  0  0  0  0  0  0
   61.4540   30.5220   47.9850 O   0  0  0  0  0  0  0  0  0  0  0  0
   60.3570   29.9150   47.3570 C   0  0  0  0  0  0  0  0  0  0  0  0
   59.2810   29.3670   48.0790 C   0  0  0  0  0  0  0  0  0  0  0  0
   58.2090   28.7730   47.4060 C   0  0  0  0  0  0  0  0  0  0  0  0
   58.1960   28.7150   46.0040 C   0  0  0  0  0  0  0  0  0  0  0  0
   57.0280   28.0890   45.2790 C   0  0  0  0  0  0  0  0  0  0  0  0
   55.8760   29.0020   45.1740 N   0  0  0  0  0  0  0  0  0  0  0  0
   55.8640   29.7750   43.9240 C   0  0  0  0  0  0  0  0  0  0  0  0
   56.7540   30.9760   44.0270 C   0  0  0  0  0  0  0  0  0  0  0  0
   57.3990   31.6010   42.9840 C   0  0  0  0  0  0  0  0  0  0  0  0
   58.1130   32.5730   43.4940 O   0  0  0  0  0  0  0  0  0  0  0  0
   57.9260   32.5520   44.7960 C   0  0  0  0  0  0  0  0  0  0  0  0
   58.5670   33.4930   45.7270 C   0  0  0  0  0  0  0  0  0  0  0  0
   59.2520   34.6430   45.3030 C   0  0  0  0  0  0  0  0  0  0  0  0
   59.7810   35.3890   46.3470 C   0  0  0  0  0  0  0  0  0  0  0  0
   59.3950   34.6160   47.7890 S   0  0  0  0  0  0  0  0  0  0  0  0
   58.5550   33.3290   47.1080 C   0  0  0  0  0  0  0  0  0  0  0  0
   57.0870   31.5700   45.1890 N   0  0  0  0  0  0  0  0  0  0  0  0
   59.2700   29.2620   45.2840 C   0  0  0  0  0  0  0  0  0  0  0  0
   60.3400   29.8570   45.9580 C   0  0  0  0  0  0  0  0  0  0  0  0
   62.5227   32.2652   48.3043 H   0  0  0  0  0  0  0  0  0  0  0  0
   62.9944   31.3162   46.8540 H   0  0  0  0  0  0  0  0  0  0  0  0
   61.4630   32.2550   46.8540 H   0  0  0  0  0  0  0  0  0  0  0  0
   59.2831   29.4060   49.1783 H   0  0  0  0  0  0  0  0  0  0  0  0
   57.3711   28.3488   47.9787 H   0  0  0  0  0  0  0  0  0  0  0  0
   57.3505   27.8095   44.2652 H   0  0  0  0  0  0  0  0  0  0  0  0
   56.7071   27.2100   45.8572 H   0  0  0  0  0  0  0  0  0  0  0  0
   55.8980   29.6720   45.9770 H   0  0  0  0  0  0  0  0  0  0  0  0
   56.2170   29.1351   43.1019 H   0  0  0  0  0  0  0  0  0  0  0  0
   54.8359   30.1160   43.7326 H   0  0  0  0  0  0  0  0  0  0  0  0
   57.3279   31.3335   41.9194 H   0  0  0  0  0  0  0  0  0  0  0  0
   59.3591   34.9255   44.2453 H   0  0  0  0  0  0  0  0  0  0  0  0
   60.3531   36.3233   46.2481 H   0  0  0  0  0  0  0  0  0  0  0  0
   58.0798   32.5031   47.6575 H   0  0  0  0  0  0  0  0  0  0  0  0
   59.2693   29.2221   44.1847 H   0  0  0  0  0  0  0  0  0  0  0  0
   61.1762   30.2835   45.3845 H   0  0  0  0  0  0  0  0  0  0  0  0
  1  2  1  0
  2  3  1  0
  3  4  2  0
  4  5  1  0
  5  6  2  0
  6  7  1  0
  7  8  1  0
  8  9  1  0
  9 10  1  0
 10 11  2  0
 11 12  1  0
 12 13  1  0
 13 14  1  0
 14 15  1  0
 15 16  2  0
 16 17  1  0
 17 18  1  0
 13 19  2  0
  6 20  1  0
 20 21  2  0
 21  3  1  0
 19 10  1  0
 18 14  2  0
  1 22  1  0
  1 23  1  0
  1 24  1  0
  4 25  1  0
  5 26  1  0
  7 27  1  0
  7 28  1  0
  8 29  1  0
  9 30  1  0
  9 31  1  0
 11 32  1  0
 15 33  1  0
 16 34  1  0
 18 35  1  0
 20 36  1  0
 21 37  1  0
M  END
>  <UniqueID>  (43) 
40

>  <SMILES>  (43) 
COc1ccc(CNCc2coc(-c3ccsc3)n2)cc1

>  <Energy>  (43) 
91.86356605667916

>  <Genealogy>  (43) 
COc1ccc(CNCc2coc(-c3ccsc3)n2)cc1 (3D coordinates assigned)
COc1ccc(CNCc2coc(-c3ccsc3)n2)cc1 (optimized conformer: 91.86356605667916 kcal/mol)

>  <smiles>  (43) 
COc1ccc(CNCc2coc(-c3ccsc3)n2)cc1

>  <score_type>  (43) 
oracle

>  <origin>  (43) 
adg

>  <m_score__min__energy>  (43) 
-7.3600000000000003

>  <m_primary>  (43) 
energy

$$$$
43:0
     RDKit          3D

 46 49  0  0  0  0  0  0  0  0999 V2000
   57.5680   34.1650   45.1030 C   0  0  0  0  0  0  0  0  0  0  0  0
   58.5910   34.9470   45.7090 O   0  0  0  0  0  0  0  0  0  0  0  0
   59.5670   34.4380   46.5790 C   0  0  0  0  0  0  0  0  0  0  0  0
   59.4860   34.5900   47.9760 C   0  0  0  0  0  0  0  0  0  0  0  0
   60.4820   34.0620   48.8010 C   0  0  0  0  0  0  0  0  0  0  0  0
   61.5690   33.3650   48.2460 C   0  0  0  0  0  0  0  0  0  0  0  0
   62.6220   32.7940   49.1200 C   0  0  0  0  0  0  0  0  0  0  0  0
   63.9610   33.1600   48.8870 C   0  0  0  0  0  0  0  0  0  0  0  0
   64.9750   32.7030   49.7280 C   0  0  0  0  0  0  0  0  0  0  0  0
   64.6750   31.8490   50.7930 C   0  0  0  0  0  0  0  0  0  0  0  0
   63.3520   31.4780   51.0430 C   0  0  0  0  0  0  0  0  0  0  0  0
   62.3160   31.9300   50.2070 C   0  0  0  0  0  0  0  0  0  0  0  0
   60.9370   31.4480   50.4650 C   0  0  0  0  0  0  0  0  0  0  0  0
   60.1600   32.0190   51.4850 C   0  0  0  0  0  0  0  0  0  0  0  0
   58.8660   31.5560   51.7310 C   0  0  0  0  0  0  0  0  0  0  0  0
   58.3210   30.5240   50.9590 C   0  0  0  0  0  0  0  0  0  0  0  0
   57.0170   30.0920   51.2460 O   0  0  0  0  0  0  0  0  0  0  0  0
   56.0750   30.8370   52.0100 C   0  0  0  0  0  0  0  0  0  0  0  0
   59.0930   29.9590   49.9250 C   0  0  0  0  0  0  0  0  0  0  0  0
   60.3890   30.4220   49.6800 C   0  0  0  0  0  0  0  0  0  0  0  0
   65.7140   31.3720   51.5970 O   0  0  0  0  0  0  0  0  0  0  0  0
   67.0800   31.5100   51.1970 C   0  0  0  0  0  0  0  0  0  0  0  0
   67.3010   32.8710   50.5230 C   0  0  0  0  0  0  0  0  0  0  0  0
   66.3030   33.0950   49.5250 O   0  0  0  0  0  0  0  0  0  0  0  0
   61.6540   33.2260   46.8530 C   0  0  0  0  0  0  0  0  0  0  0  0
   60.6580   33.7560   46.0280 C   0  0  0  0  0  0  0  0  0  0  0  0
   56.9536   33.6953   45.8852 H   0  0  0  0  0  0  0  0  0  0  0  0
   56.9344   34.8112   44.4777 H   0  0  0  0  0  0  0  0  0  0  0  0
   58.0253   33.3841   44.4777 H   0  0  0  0  0  0  0  0  0  0  0  0
   58.6347   35.1269   48.4200 H   0  0  0  0  0  0  0  0  0  0  0  0
   60.4152   34.1925   49.8912 H   0  0  0  0  0  0  0  0  0  0  0  0
   64.2092   33.8109   48.0357 H   0  0  0  0  0  0  0  0  0  0  0  0
   63.1191   30.8281   51.8994 H   0  0  0  0  0  0  0  0  0  0  0  0
   60.5731   32.8363   52.0943 H   0  0  0  0  0  0  0  0  0  0  0  0
   58.2699   32.0063   52.5385 H   0  0  0  0  0  0  0  0  0  0  0  0
   56.2690   30.6836   53.0818 H   0  0  0  0  0  0  0  0  0  0  0  0
   56.1712   31.9060   51.7693 H   0  0  0  0  0  0  0  0  0  0  0  0
   55.0569   30.4971   51.7693 H   0  0  0  0  0  0  0  0  0  0  0  0
   58.6744   29.1503   49.3080 H   0  0  0  0  0  0  0  0  0  0  0  0
   60.9830   29.9793   48.8668 H   0  0  0  0  0  0  0  0  0  0  0  0
   67.7273   31.4342   52.0831 H   0  0  0  0  0  0  0  0  0  0  0  0
   67.3266   30.7115   50.4818 H   0  0  0  0  0  0  0  0  0  0  0  0
   67.2417   33.6659   51.2811 H   0  0  0  0  0  0  0  0  0  0  0  0
   68.2928   32.8792   50.0472 H   0  0  0  0  0  0  0  0  0  0  0  0
   62.5092   32.6970   46.4073 H   0  0  0  0  0  0  0  0  0  0  0  0
   60.7322   33.6362   44.9371 H   0  0  0  0  0  0  0  0  0  0  0  0
  1  2  1  0
  2  3  1  0
  3  4  2  0
  4  5  1  0
  5  6  2  0
  6  7  1  0
  7  8  2  0
  8  9  1  0
  9 10  2  0
 10 11  1  0
 11 12  2  0
 12 13  1  0
 13 14  2  0
 14 15  1  0
 15 16  2  0
 16 17  1  0
 17 18  1  0
 16 19  1  0
 19 20  2  0
 10 21  1  0
 21 22  1  0
 22 23  1  0
 23 24  1  0
  6 25  1  0
 25 26  2  0
 26  3  1  0
 12  7  1  0
 20 13  1  0
 24  9  1  0
  1 27  1  0
  1 28  1  0
  1 29  1  0
  4 30  1  0
  5 31  1  0
  8 32  1  0
 11 33  1  0
 14 34  1  0
 15 35  1  0
 18 36  1  0
 18 37  1  0
 18 38  1  0
 19 39  1  0
 20 40  1  0
 22 41  1  0
 22 42  1  0
 23 43  1  0
 23 44  1  0
 25 45  1  0
 26 46  1  0
M  END
>  <UniqueID>  (44) 
41

>  <SMILES>  (44) 
COc1ccc(-c2cc3c(cc2-c2ccc(OC)cc2)OCCO3)cc1

>  <Energy>  (44) 
62.00680392970476

>  <Genealogy>  (44) 
COc1ccc(-c2cc3c(cc2-c2ccc(OC)cc2)OCCO3)cc1 (3D coordinates assigned)
COc1ccc(-c2cc3c(cc2-c2ccc(OC)cc2)OCCO3)cc1 (nonaromatic ring conformer: 62.00680392970476 kcal/mol)

>  <smiles>  (44) 
COc1ccc(-c2cc3c(cc2-c2ccc(OC)cc2)OCCO3)cc1

>  <score_type>  (44) 
oracle

>  <origin>  (44) 
adg

>  <m_score__min__energy>  (44) 
-6.3600000000000003

>  <m_primary>  (44) 
energy

$$$$
44:0
     RDKit          3D

 42 43  0  0  0  0  0  0  0  0999 V2000
   60.4170   26.8800   47.3640 C   0  0  0  0  0  0  0  0  0  0  0  0
   59.2530   26.9530   47.0550 C   0  0  0  0  0  0  0  0  0  0  0  0
   57.8360   27.0530   46.6660 C   0  0  0  0  0  0  0  0  0  0  0  0
   57.6280   27.0110   45.1990 N   0  0  0  0  0  0  0  0  0  0  0  0
   57.7490   25.6370   44.6810 C   0  0  0  0  0  0  0  0  0  0  0  0
   58.5160   27.9280   44.4500 C   0  0  0  0  0  0  0  0  0  0  0  0
   58.1830   29.3740   44.7380 C   0  0  0  0  0  0  0  0  0  0  0  0
   56.9530   29.8990   44.3390 C   0  0  0  0  0  0  0  0  0  0  0  0
   56.6450   31.1640   44.5840 O   0  0  0  0  0  0  0  0  0  0  0  0
   57.4670   31.9990   45.2080 C   0  0  0  0  0  0  0  0  0  0  0  0
   57.0350   33.3060   45.4360 C   0  0  0  0  0  0  0  0  0  0  0  0
   57.8500   34.2090   46.1070 C   0  0  0  0  0  0  0  0  0  0  0  0
   59.1170   33.8250   46.5330 C   0  0  0  0  0  0  0  0  0  0  0  0
   59.6060   32.5260   46.2920 C   0  0  0  0  0  0  0  0  0  0  0  0
   61.0090   32.2260   46.7820 C   0  0  0  0  0  0  0  0  0  0  0  0
   61.8930   33.4840   46.7280 C   0  0  0  0  0  0  0  0  0  0  0  0
   63.3880   33.1580   46.8600 C   0  0  0  0  0  0  0  0  0  0  0  0
   63.7660   32.6710   48.2600 C   0  0  0  0  0  0  0  0  0  0  0  0
   58.7540   31.5730   45.6420 C   0  0  0  0  0  0  0  0  0  0  0  0
   59.0980   30.2180   45.3900 C   0  0  0  0  0  0  0  0  0  0  0  0
   60.2100   29.7420   45.7440 O   0  0  0  0  0  0  0  0  0  0  0  0
   61.4782   26.8134   47.6457 H   0  0  0  0  0  0  0  0  0  0  0  0
   57.2888   26.2141   47.1207 H   0  0  0  0  0  0  0  0  0  0  0  0
   57.4681   28.0273   47.0202 H   0  0  0  0  0  0  0  0  0  0  0  0
   57.8111   24.9319   45.5230 H   0  0  0  0  0  0  0  0  0  0  0  0
   56.8684   25.3979   44.0666 H   0  0  0  0  0  0  0  0  0  0  0  0
   58.6578   25.5555   44.0666 H   0  0  0  0  0  0  0  0  0  0  0  0
   59.5587   27.7355   44.7428 H   0  0  0  0  0  0  0  0  0  0  0  0
   58.3735   27.7470   43.3744 H   0  0  0  0  0  0  0  0  0  0  0  0
   56.2311   29.2552   43.8152 H   0  0  0  0  0  0  0  0  0  0  0  0
   56.0430   33.6233   45.0822 H   0  0  0  0  0  0  0  0  0  0  0  0
   57.4922   35.2307   46.3019 H   0  0  0  0  0  0  0  0  0  0  0  0
   59.7490   34.5490   47.0681 H   0  0  0  0  0  0  0  0  0  0  0  0
   60.9581   31.8665   47.8203 H   0  0  0  0  0  0  0  0  0  0  0  0
   61.4513   31.4587   46.1296 H   0  0  0  0  0  0  0  0  0  0  0  0
   61.7261   33.9915   45.7664 H   0  0  0  0  0  0  0  0  0  0  0  0
   61.6143   34.1252   47.5772 H   0  0  0  0  0  0  0  0  0  0  0  0
   63.6420   32.3719   46.1337 H   0  0  0  0  0  0  0  0  0  0  0  0
   63.9478   34.0854   46.6690 H   0  0  0  0  0  0  0  0  0  0  0  0
   63.2746   33.3041   49.0135 H   0  0  0  0  0  0  0  0  0  0  0  0
   63.4381   31.6287   48.3866 H   0  0  0  0  0  0  0  0  0  0  0  0
   64.8571   32.7301   48.3866 H   0  0  0  0  0  0  0  0  0  0  0  0
  1  2  3  0
  2  3  1  0
  3  4  1  0
  4  5  1  0
  4  6  1  0
  6  7  1  0
  7  8  2  0
  8  9  1  0
  9 10  1  0
 10 11  2  0
 11 12  1  0
 12 13  2  0
 13 14  1  0
 14 15  1  0
 15 16  1  0
 16 17  1  0
 17 18  1  0
 14 19  2  0
 19 20  1  0
 20 21  2  0
 20  7  1  0
 19 10  1  0
  1 22  1  0
  3 23  1  0
  3 24  1  0
  5 25  1  0
  5 26  1  0
  5 27  1  0
  6 28  1  0
  6 29  1  0
  8 30  1  0
 11 31  1  0
 12 32  1  0
 13 33  1  0
 15 34  1  0
 15 35  1  0
 16 36  1  0
 16 37  1  0
 17 38  1  0
 17 39  1  0
 18 40  1  0
 18 41  1  0
 18 42  1  0
M  END
>  <UniqueID>  (45) 
42

>  <SMILES>  (45) 
C#CCN(C)Cc1coc2cccc(CCCC)c2c1=O

>  <Energy>  (45) 
48.02190400393218

>  <Genealogy>  (45) 
C#CCN(C)Cc1coc2cccc(CCCC)c2c1=O (3D coordinates assigned)
C#CCN(C)Cc1coc2cccc(CCCC)c2c1=O (optimized conformer: 48.02190400393218 kcal/mol)

>  <smiles>  (45) 
C#CCN(C)Cc1coc2cccc(CCCC)c2c1=O

>  <score_type>  (45) 
oracle

>  <origin>  (45) 
adg

>  <m_score__min__energy>  (45) 
-6.6100000000000003

>  <m_primary>  (45) 
energy

$$$$
