0:0
     RDKit          3D

 40 41  0  0  0  0  0  0  0  0999 V2000
   56.1700   23.7410   43.5140 C   0  0  0  0  0  0  0  0  0  0  0  0
   54.6930   23.4650   43.7870 C   0  0  0  0  0  0  0  0  0  0  0  0
   54.1920   24.2370   44.9480 N   0  0  0  0  0  0  0  0  0  0  0  0
   52.7130   24.3440   45.0170 C   0  0  0  0  0  0  0  0  0  0  0  0
   51.9790   23.8040   43.7830 C   0  0  0  0  0  0  0  0  0  0  0  0
   54.7730   23.7420   46.2140 C   0  0  0  0  0  0  0  0  0  0  0  0
   55.9790   24.5040   46.5390 N   0  0  0  0  0  0  0  0  0  0  0  0
   57.1720   24.0190   46.9380 C   0  0  0  0  0  0  0  0  0  0  0  0
   57.4370   22.6680   47.1370 O   0  0  0  0  0  0  0  0  0  0  0  0
   58.0940   25.0340   47.1020 C   0  0  0  0  0  0  0  0  0  0  0  0
   57.4200   26.2050   46.7920 C   0  0  0  0  0  0  0  0  0  0  0  0
   58.0170   27.5760   46.7120 C   0  0  0  0  0  0  0  0  0  0  0  0
   57.5800   28.2540   45.4420 C   0  0  0  0  0  0  0  0  0  0  0  0
   57.0310   29.5480   45.4840 C   0  0  0  0  0  0  0  0  0  0  0  0
   56.6650   30.1950   44.3010 C   0  0  0  0  0  0  0  0  0  0  0  0
   56.8490   29.5610   43.0690 C   0  0  0  0  0  0  0  0  0  0  0  0
   56.4960   30.1920   41.9220 F   0  0  0  0  0  0  0  0  0  0  0  0
   57.4050   28.2800   43.0180 C   0  0  0  0  0  0  0  0  0  0  0  0
   57.7730   27.6280   44.2000 C   0  0  0  0  0  0  0  0  0  0  0  0
   56.1340   25.8380   46.4410 C   0  0  0  0  0  0  0  0  0  0  0  0
   55.1350   26.7090   46.0230 O   0  0  0  0  0  0  0  0  0  0  0  0
   56.7069   23.8413   44.4688 H   0  0  0  0  0  0  0  0  0  0  0  0
   56.5985   22.9074   42.9383 H   0  0  0  0  0  0  0  0  0  0  0  0
   56.2685   24.6731   42.9383 H   0  0  0  0  0  0  0  0  0  0  0  0
   54.1090   23.7421   42.8970 H   0  0  0  0  0  0  0  0  0  0  0  0
   54.5829   22.3948   44.0162 H   0  0  0  0  0  0  0  0  0  0  0  0
   52.3682   23.7801   45.8962 H   0  0  0  0  0  0  0  0  0  0  0  0
   52.4789   25.4172   45.0761 H   0  0  0  0  0  0  0  0  0  0  0  0
   51.1315   23.1805   44.1041 H   0  0  0  0  0  0  0  0  0  0  0  0
   51.6073   24.6456   43.1800 H   0  0  0  0  0  0  0  0  0  0  0  0
   52.6718   23.1987   43.1800 H   0  0  0  0  0  0  0  0  0  0  0  0
   54.0377   23.8598   47.0236 H   0  0  0  0  0  0  0  0  0  0  0  0
   55.0348   22.6795   46.1017 H   0  0  0  0  0  0  0  0  0  0  0  0
   59.1442   24.9341   47.4136 H   0  0  0  0  0  0  0  0  0  0  0  0
   57.6829   28.1698   47.5756 H   0  0  0  0  0  0  0  0  0  0  0  0
   59.1139   27.4932   46.7182 H   0  0  0  0  0  0  0  0  0  0  0  0
   56.8893   30.0523   46.4512 H   0  0  0  0  0  0  0  0  0  0  0  0
   56.2313   31.2052   44.3393 H   0  0  0  0  0  0  0  0  0  0  0  0
   57.5535   27.7837   42.0476 H   0  0  0  0  0  0  0  0  0  0  0  0
   58.2150   26.6217   44.1562 H   0  0  0  0  0  0  0  0  0  0  0  0
  1  2  1  0
  2  3  1  0
  3  4  1  0
  4  5  1  0
  3  6  1  0
  6  7  1  0
  7  8  1  0
  8  9  1  0
  8 10  2  0
 10 11  1  0
 11 12  1  0
 12 13  1  0
 13 14  2  0
 14 15  1  0
 15 16  2  0
 16 17  1  0
 16 18  1  0
 18 19  2  0
 11 20  2  0
 20 21  1  0
 20  7  1  0
 19 13  1  0
  1 22  1  0
  1 23  1  0
  1 24  1  0
  2 25  1  0
  2 26  1  0
  4 27  1  0
  4 28  1  0
  5 29  1  0
  5 30  1  0
  5 31  1  0
  6 32  1  0
  6 33  1  0
 10 34  1  0
 12 35  1  0
 12 36  1  0
 14 37  1  0
 15 38  1  0
 18 39  1  0
 19 40  1  0
M  CHG  2   9  -1  21  -1
M  END
>  <UniqueID>  (1) 
1

>  <SMILES>  (1) 
CCN(CC)Cn1c([O-])cc(Cc2ccc(F)cc2)c1[O-]

>  <Energy>  (1) 
66.55844607399918

>  <Genealogy>  (1) 
CCN(CC)Cn1c([O-])cc(Cc2ccc(F)cc2)c1[O-] (protonated)
CCN(CC)Cn1c([O-])cc(Cc2ccc(F)cc2)c1[O-] (3D coordinates assigned)
CCN(CC)Cn1c([O-])cc(Cc2ccc(F)cc2)c1[O-] (optimized conformer: 66.55844607399918 kcal/mol)

>  <smiles>  (1) 
CCN(CC)Cn1c(O)cc(Cc2ccc(F)cc2)c1O

>  <score_type>  (1) 
oracle

>  <origin>  (1) 
adg

>  <m_score__min__energy>  (1) 
-10.82

>  <m_primary>  (1) 
energy

$$$$
1:0
     RDKit          3D

 41 43  0  0  0  0  0  0  0  0999 V2000
   57.0100   28.4790   45.5510 C   0  0  0  0  0  0  0  0  0  0  0  0
   57.1090   29.5570   44.5070 C   0  0  0  0  0  0  0  0  0  0  0  0
   56.5770   29.3460   43.2250 C   0  0  0  0  0  0  0  0  0  0  0  0
   56.6630   30.3400   42.2510 C   0  0  0  0  0  0  0  0  0  0  0  0
   57.2880   31.5540   42.5400 C   0  0  0  0  0  0  0  0  0  0  0  0
   57.8280   31.7880   43.8140 C   0  0  0  0  0  0  0  0  0  0  0  0
   58.5280   33.0830   44.1070 C   0  0  0  0  0  0  0  0  0  0  0  0
   57.7270   30.7900   44.8060 C   0  0  0  0  0  0  0  0  0  0  0  0
   58.2570   31.0280   46.1170 N   0  0  0  0  0  0  0  0  0  0  0  0
   59.5730   30.5890   46.4830 C   0  0  0  0  0  0  0  0  0  0  0  0
   60.2880   29.9700   45.6500 O   0  0  0  0  0  0  0  0  0  0  0  0
   60.1020   30.8530   47.8580 C   0  0  0  0  0  0  0  0  0  0  0  0
   58.9750   31.9540   48.7830 S   0  0  0  0  0  0  0  0  0  0  0  0
   59.2830   33.4000   47.7630 C   0  0  0  0  0  0  0  0  0  0  0  0
   58.1500   34.1950   46.8360 S   0  0  0  0  0  0  0  0  0  0  0  0
   59.1700   35.2920   46.1230 N   0  0  0  0  0  0  0  0  0  0  0  0
   60.3960   35.0700   46.5880 N   0  0  0  0  0  0  0  0  0  0  0  0
   60.4940   34.0480   47.4950 C   0  0  0  0  0  0  0  0  0  0  0  0
   61.7850   33.7100   48.1240 C   0  0  0  0  0  0  0  0  0  0  0  0
   62.8820   33.3590   47.3220 C   0  0  0  0  0  0  0  0  0  0  0  0
   64.1140   33.0540   47.9070 C   0  0  0  0  0  0  0  0  0  0  0  0
   64.2680   33.1220   49.2950 C   0  0  0  0  0  0  0  0  0  0  0  0
   65.9500   32.6980   50.0910 Br  0  0  0  0  0  0  0  0  0  0  0  0
   63.1880   33.4990   50.0990 C   0  0  0  0  0  0  0  0  0  0  0  0
   61.9490   33.7870   49.5180 C   0  0  0  0  0  0  0  0  0  0  0  0
   57.0517   28.9331   46.5520 H   0  0  0  0  0  0  0  0  0  0  0  0
   56.0586   27.9399   45.4323 H   0  0  0  0  0  0  0  0  0  0  0  0
   57.8473   27.7756   45.4323 H   0  0  0  0  0  0  0  0  0  0  0  0
   56.0887   28.3894   42.9872 H   0  0  0  0  0  0  0  0  0  0  0  0
   56.2369   30.1668   41.2517 H   0  0  0  0  0  0  0  0  0  0  0  0
   57.3577   32.3315   41.7650 H   0  0  0  0  0  0  0  0  0  0  0  0
   58.6027   33.2213   45.1957 H   0  0  0  0  0  0  0  0  0  0  0  0
   59.5372   33.0613   43.6700 H   0  0  0  0  0  0  0  0  0  0  0  0
   57.9570   33.9155   43.6700 H   0  0  0  0  0  0  0  0  0  0  0  0
   57.7040   31.6180   46.7760 H   0  0  0  0  0  0  0  0  0  0  0  0
   60.1981   29.8991   48.3973 H   0  0  0  0  0  0  0  0  0  0  0  0
   61.0830   31.3430   47.7715 H   0  0  0  0  0  0  0  0  0  0  0  0
   62.7716   33.3238   46.2281 H   0  0  0  0  0  0  0  0  0  0  0  0
   64.9643   32.7598   47.2742 H   0  0  0  0  0  0  0  0  0  0  0  0
   63.3130   33.5691   51.1896 H   0  0  0  0  0  0  0  0  0  0  0  0
   61.0993   34.0750   50.1544 H   0  0  0  0  0  0  0  0  0  0  0  0
  1  2  1  0
  2  3  2  0
  3  4  1  0
  4  5  2  0
  5  6  1  0
  6  7  1  0
  6  8  2  0
  8  9  1  0
  9 10  1  0
 10 11  2  0
 10 12  1  0
 12 13  1  0
 13 14  1  0
 14 15  1  0
 15 16  1  0
 16 17  2  0
 17 18  1  0
 18 19  1  0
 19 20  2  0
 20 21  1  0
 21 22  2  0
 22 23  1  0
 22 24  1  0
 24 25  2  0
  8  2  1  0
 18 14  2  0
 25 19  1  0
  1 26  1  0
  1 27  1  0
  1 28  1  0
  3 29  1  0
  4 30  1  0
  5 31  1  0
  7 32  1  0
  7 33  1  0
  7 34  1  0
  9 35  1  0
 12 36  1  0
 12 37  1  0
 20 38  1  0
 21 39  1  0
 24 40  1  0
 25 41  1  0
M  END
>  <UniqueID>  (2) 
2

>  <SMILES>  (2) 
Cc1cccc(C)c1NC(=O)CSc1snnc1-c1ccc(Br)cc1

>  <Energy>  (2) 
84.5179431550655

>  <Genealogy>  (2) 
Cc1cccc(C)c1NC(=O)CSc1snnc1-c1ccc(Br)cc1 (3D coordinates assigned)
Cc1cccc(C)c1NC(=O)CSc1snnc1-c1ccc(Br)cc1 (optimized conformer: 84.5179431550655 kcal/mol)

>  <smiles>  (2) 
Cc1cccc(C)c1NC(=O)CSc1snnc1-c1ccc(Br)cc1

>  <score_type>  (2) 
oracle

>  <origin>  (2) 
adg

>  <m_score__min__energy>  (2) 
-8.7100000000000009

>  <m_primary>  (2) 
energy

$$$$
2:0
     RDKit          3D

 41 42  0  0  0  0  0  0  0  0999 V2000
   63.1520   33.8350   46.3640 C   0  0  0  0  0  0  0  0  0  0  0  0
   62.2850   33.3220   47.5210 C   0  0  1  0  0  0  0  0  0  0  0  0
   62.9430   33.6250   48.8990 C   0  0  0  0  0  0  0  0  0  0  0  0
   61.9720   34.2160   49.9350 C   0  0  0  0  0  0  0  0  0  0  0  0
   60.6200   33.4950   49.9210 C   0  0  0  0  0  0  0  0  0  0  0  0
   60.0600   33.4160   48.5610 N   0  0  0  0  0  0  0  0  0  0  0  0
   58.7900   32.7730   48.3490 C   0  0  0  0  0  0  0  0  0  0  0  0
   58.1180   32.3670   49.3340 O   0  0  0  0  0  0  0  0  0  0  0  0
   58.2180   32.6290   46.9970 C   0  0  0  0  0  0  0  0  0  0  0  0
   57.1800   33.3590   46.5580 N   0  0  0  0  0  0  0  0  0  0  0  0
   56.9060   32.9820   45.3220 N   0  0  0  0  0  0  0  0  0  0  0  0
   57.7770   31.9970   45.0160 C   0  0  0  0  0  0  0  0  0  0  0  0
   57.7780   31.3300   43.6580 C   0  0  0  0  0  0  0  0  0  0  0  0
   56.6250   30.3290   43.5300 C   0  0  0  0  0  0  0  0  0  0  0  0
   57.7970   32.3290   42.4960 C   0  0  0  0  0  0  0  0  0  0  0  0
   58.6290   31.7560   46.0480 N   0  0  0  0  0  0  0  0  0  0  0  0
   59.5760   30.6490   46.2090 C   0  0  0  0  0  0  0  0  0  0  0  0
   60.8570   33.8830   47.4180 C   0  0  0  0  0  0  0  0  0  0  0  0
   64.0324   34.3559   46.7685 H   0  0  0  0  0  0  0  0  0  0  0  0
   63.4800   32.9855   45.7470 H   0  0  0  0  0  0  0  0  0  0  0  0
   62.5653   34.5314   45.7470 H   0  0  0  0  0  0  0  0  0  0  0  0
   62.2126   32.2272   47.4426 H   0  0  0  0  0  0  0  0  0  0  0  0
   63.7615   34.3430   48.7419 H   0  0  0  0  0  0  0  0  0  0  0  0
   63.2963   32.6648   49.3029 H   0  0  0  0  0  0  0  0  0  0  0  0
   61.8110   35.2798   49.7063 H   0  0  0  0  0  0  0  0  0  0  0  0
   62.4173   34.0901   50.9330 H   0  0  0  0  0  0  0  0  0  0  0  0
   59.9167   34.0433   50.5650 H   0  0  0  0  0  0  0  0  0  0  0  0
   60.7737   32.4699   50.2892 H   0  0  0  0  0  0  0  0  0  0  0  0
   56.6690   34.1060   47.0770 H   0  0  0  0  0  0  0  0  0  0  0  0
   58.7221   30.7699   43.5869 H   0  0  0  0  0  0  0  0  0  0  0  0
   56.2837   30.0327   44.5328 H   0  0  0  0  0  0  0  0  0  0  0  0
   55.7930   30.7961   42.9826 H   0  0  0  0  0  0  0  0  0  0  0  0
   56.9706   29.4396   42.9826 H   0  0  0  0  0  0  0  0  0  0  0  0
   57.8165   33.3542   42.8942 H   0  0  0  0  0  0  0  0  0  0  0  0
   58.6921   32.1578   41.8799 H   0  0  0  0  0  0  0  0  0  0  0  0
   56.8961   32.1920   41.8799 H   0  0  0  0  0  0  0  0  0  0  0  0
   59.7389   30.4586   47.2801 H   0  0  0  0  0  0  0  0  0  0  0  0
   59.1675   29.7449   45.7339 H   0  0  0  0  0  0  0  0  0  0  0  0
   60.5324   30.9126   45.7339 H   0  0  0  0  0  0  0  0  0  0  0  0
   60.8944   34.9824   47.4226 H   0  0  0  0  0  0  0  0  0  0  0  0
   60.3941   33.5341   46.4831 H   0  0  0  0  0  0  0  0  0  0  0  0
  1  2  1  0
  2  3  1  0
  3  4  1  0
  4  5  1  0
  5  6  1  0
  6  7  1  0
  7  8  2  0
  7  9  1  0
  9 10  2  0
 10 11  1  0
 11 12  2  0
 12 13  1  0
 13 14  1  0
 13 15  1  0
 12 16  1  0
 16 17  1  0
  6 18  1  0
 18  2  1  0
 16  9  1  0
  1 19  1  0
  1 20  1  0
  1 21  1  0
  2 22  1  6
  3 23  1  0
  3 24  1  0
  4 25  1  0
  4 26  1  0
  5 27  1  0
  5 28  1  0
 10 29  1  0
 13 30  1  0
 14 31  1  0
 14 32  1  0
 14 33  1  0
 15 34  1  0
 15 35  1  0
 15 36  1  0
 17 37  1  0
 17 38  1  0
 17 39  1  0
 18 40  1  0
 18 41  1  0
M  CHG  1  10   1
M  END
>  <UniqueID>  (3) 
3

>  <SMILES>  (3) 
CC(C)c1n[nH+]c(C(=O)N2CCC[C@H](C)C2)n1C

>  <Energy>  (3) 
77.75639256519365

>  <Genealogy>  (3) 
CC1CCCN(C(=O)c2[nH+]nc(C(C)C)n2C)C1 (protonated)
CC(C)c1n[nH+]c(C(=O)N2CCC[C@H](C)C2)n1C (chirality)
CC(C)c1n[nH+]c(C(=O)N2CCC[C@H](C)C2)n1C (3D coordinates assigned)
CC(C)c1n[nH+]c(C(=O)N2CCC[C@H](C)C2)n1C (nonaromatic ring conformer: 77.75639256519365 kcal/mol)

>  <smiles>  (3) 
CC1CCCN(C(=O)c2nnc(C(C)C)n2C)C1

>  <score_type>  (3) 
oracle

>  <origin>  (3) 
adg

>  <m_score__min__energy>  (3) 
-5.5899999999999999

>  <m_primary>  (3) 
energy

$$$$
3:0
     RDKit          3D

 47 51  0  0  0  0  0  0  0  0999 V2000
   67.9560   33.8510   50.4450 C   0  0  0  0  0  0  0  0  0  0  0  0
   66.8360   32.8670   50.6110 C   0  0  0  0  0  0  0  0  0  0  0  0
   67.0300   31.7000   51.3640 C   0  0  0  0  0  0  0  0  0  0  0  0
   65.9980   30.7680   51.4920 C   0  0  0  0  0  0  0  0  0  0  0  0
   64.7710   30.9860   50.8610 C   0  0  0  0  0  0  0  0  0  0  0  0
   64.5640   32.1410   50.0860 C   0  0  0  0  0  0  0  0  0  0  0  0
   63.2640   32.3700   49.4050 C   0  0  0  0  0  0  0  0  0  0  0  0
   62.3380   33.2910   49.9240 C   0  0  0  0  0  0  0  0  0  0  0  0
   61.1140   33.5070   49.2830 C   0  0  0  0  0  0  0  0  0  0  0  0
   60.7940   32.8100   48.1070 C   0  0  0  0  0  0  0  0  0  0  0  0
   59.4560   33.0280   47.4350 C   0  0  2  0  0  0  0  0  0  0  0  0
   59.0100   31.7520   46.6780 C   0  0  0  0  0  0  0  0  0  0  0  0
   57.7760   32.0220   45.7740 C   0  0  2  0  0  0  0  0  0  0  0  0
   57.4490   30.8010   44.9640 C   0  0  0  0  0  0  0  0  0  0  0  0
   58.3280   29.7940   44.6160 C   0  0  0  0  0  0  0  0  0  0  0  0
   57.5830   28.8840   43.8970 C   0  0  0  0  0  0  0  0  0  0  0  0
   56.2990   29.3880   43.8540 C   0  0  0  0  0  0  0  0  0  0  0  0
   56.2500   30.5300   44.5000 O   0  0  0  0  0  0  0  0  0  0  0  0
   58.0050   33.1720   44.8890 N   0  0  0  0  0  0  0  0  0  0  0  0
   58.8300   34.2350   45.3610 C   0  0  0  0  0  0  0  0  0  0  0  0
   58.9510   35.4510   44.8020 N   0  0  0  0  0  0  0  0  0  0  0  0
   59.7310   36.1040   45.6580 N   0  0  0  0  0  0  0  0  0  0  0  0
   60.0590   35.3410   46.6940 N   0  0  0  0  0  0  0  0  0  0  0  0
   59.5160   34.1530   46.5010 N   0  0  0  0  0  0  0  0  0  0  0  0
   61.7130   31.8780   47.5950 C   0  0  0  0  0  0  0  0  0  0  0  0
   62.9360   31.6630   48.2340 C   0  0  0  0  0  0  0  0  0  0  0  0
   65.6100   33.0760   49.9620 C   0  0  0  0  0  0  0  0  0  0  0  0
   68.3160   34.1673   51.4351 H   0  0  0  0  0  0  0  0  0  0  0  0
   68.7795   33.3789   49.8891 H   0  0  0  0  0  0  0  0  0  0  0  0
   67.5939   34.7284   49.8891 H   0  0  0  0  0  0  0  0  0  0  0  0
   67.9974   31.5183   51.8550 H   0  0  0  0  0  0  0  0  0  0  0  0
   66.1519   29.8589   52.0919 H   0  0  0  0  0  0  0  0  0  0  0  0
   63.9615   30.2494   50.9710 H   0  0  0  0  0  0  0  0  0  0  0  0
   62.5781   33.8468   50.8424 H   0  0  0  0  0  0  0  0  0  0  0  0
   60.3971   34.2279   49.7030 H   0  0  0  0  0  0  0  0  0  0  0  0
   58.7218   33.2572   48.2214 H   0  0  0  0  0  0  0  0  0  0  0  0
   59.8420   31.4010   46.0499 H   0  0  0  0  0  0  0  0  0  0  0  0
   58.7300   30.9920   47.4223 H   0  0  0  0  0  0  0  0  0  0  0  0
   56.9228   32.2600   46.4263 H   0  0  0  0  0  0  0  0  0  0  0  0
   59.3985   29.7313   44.8613 H   0  0  0  0  0  0  0  0  0  0  0  0
   57.9400   27.9454   43.4480 H   0  0  0  0  0  0  0  0  0  0  0  0
   55.4458   28.9060   43.3542 H   0  0  0  0  0  0  0  0  0  0  0  0
   57.4060   33.3220   44.0470 H   0  0  0  0  0  0  0  0  0  0  0  0
   60.0290   37.0970   45.5420 H   0  0  0  0  0  0  0  0  0  0  0  0
   61.4670   31.3134   46.6836 H   0  0  0  0  0  0  0  0  0  0  0  0
   63.6484   30.9351   47.8184 H   0  0  0  0  0  0  0  0  0  0  0  0
   65.4642   33.9787   49.3505 H   0  0  0  0  0  0  0  0  0  0  0  0
  1  2  1  0
  2  3  2  0
  3  4  1  0
  4  5  2  0
  5  6  1  0
  6  7  1  0
  7  8  2  0
  8  9  1  0
  9 10  2  0
 10 11  1  0
 11 12  1  0
 12 13  1  0
 13 14  1  0
 14 15  2  0
 15 16  1  0
 16 17  2  0
 17 18  1  0
 13 19  1  0
 19 20  1  0
 20 21  2  0
 21 22  1  0
 22 23  2  0
 23 24  1  0
 10 25  1  0
 25 26  2  0
  6 27  2  0
 27  2  1  0
 26  7  1  0
 24 11  1  0
 18 14  1  0
 24 20  1  0
  1 28  1  0
  1 29  1  0
  1 30  1  0
  3 31  1  0
  4 32  1  0
  5 33  1  0
  8 34  1  0
  9 35  1  0
 11 36  1  1
 12 37  1  0
 12 38  1  0
 13 39  1  1
 15 40  1  0
 16 41  1  0
 17 42  1  0
 19 43  1  0
 22 44  1  0
 25 45  1  0
 26 46  1  0
 27 47  1  0
M  CHG  1  22   1
M  END
>  <UniqueID>  (4) 
4

>  <SMILES>  (4) 
Cc1cccc(-c2ccc([C@@H]3C[C@H](c4ccco4)Nc4n[nH+]nn43)cc2)c1

>  <Energy>  (4) 
125.0129351062027

>  <Genealogy>  (4) 
Cc1cccc(-c2ccc(C3CC(c4ccco4)Nc4n[nH+]nn43)cc2)c1 (protonated)
Cc1cccc(-c2ccc([C@@H]3C[C@H](c4ccco4)Nc4n[nH+]nn43)cc2)c1 (chirality)
Cc1cccc(-c2ccc([C@@H]3C[C@H](c4ccco4)Nc4n[nH+]nn43)cc2)c1 (3D coordinates assigned)
Cc1cccc(-c2ccc([C@@H]3C[C@H](c4ccco4)Nc4n[nH+]nn43)cc2)c1 (nonaromatic ring conformer: 125.0129351062027 kcal/mol)

>  <smiles>  (4) 
Cc1cccc(-c2ccc(C3CC(c4ccco4)Nc4nnnn43)cc2)c1

>  <score_type>  (4) 
oracle

>  <origin>  (4) 
adg

>  <m_score__min__energy>  (4) 
-7.7699999999999996

>  <m_primary>  (4) 
energy

$$$$
4:0
     RDKit          3D

 42 45  0  0  0  0  0  0  0  0999 V2000
   55.5380   25.5950   46.3190 O   0  0  0  0  0  0  0  0  0  0  0  0
   56.4870   25.5410   45.4890 C   0  0  0  0  0  0  0  0  0  0  0  0
   57.2300   26.7810   45.1820 C   0  0  0  0  0  0  0  0  0  0  0  0
   58.1930   26.9400   44.2030 C   0  0  0  0  0  0  0  0  0  0  0  0
   58.5750   28.2300   44.1590 N   0  0  0  0  0  0  0  0  0  0  0  0
   57.8920   28.8950   45.0800 N   0  0  0  0  0  0  0  0  0  0  0  0
   57.9930   30.3120   45.3530 C   0  0  0  0  0  0  0  0  0  0  0  0
   57.0070   31.1250   44.8700 N   0  0  0  0  0  0  0  0  0  0  0  0
   57.0170   32.4730   45.0220 C   0  0  0  0  0  0  0  0  0  0  0  0
   58.0780   33.0890   45.6750 C   0  0  0  0  0  0  0  0  0  0  0  0
   59.1190   32.3110   46.1810 C   0  0  0  0  0  0  0  0  0  0  0  0
   59.0780   30.9010   46.0700 C   0  0  0  0  0  0  0  0  0  0  0  0
   60.2130   30.0870   46.6750 C   0  0  0  0  0  0  0  0  0  0  0  0
   61.0810   30.8820   47.6630 C   0  0  0  0  0  0  0  0  0  0  0  0
   61.4080   32.2610   47.1010 C   0  0  0  0  0  0  0  0  0  0  0  0
   60.1980   32.9510   46.8020 O   0  0  0  0  0  0  0  0  0  0  0  0
   57.0540   28.0450   45.7110 C   0  0  0  0  0  0  0  0  0  0  0  0
   56.8320   24.2710   44.9030 N   0  0  0  0  0  0  0  0  0  0  0  0
   56.8470   23.0820   45.7660 C   0  0  0  0  0  0  0  0  0  0  0  0
   57.0600   21.8130   44.9420 C   0  0  0  0  0  0  0  0  0  0  0  0
   56.1830   21.8630   43.7680 N   0  0  0  0  0  0  0  0  0  0  0  0
   56.5880   22.9140   42.8160 C   0  0  0  0  0  0  0  0  0  0  0  0
   57.2180   24.1580   43.4880 C   0  0  0  0  0  0  0  0  0  0  0  0
   58.5856   26.1380   43.5606 H   0  0  0  0  0  0  0  0  0  0  0  0
   56.1864   33.0777   44.6289 H   0  0  0  0  0  0  0  0  0  0  0  0
   58.0965   34.1826   45.7919 H   0  0  0  0  0  0  0  0  0  0  0  0
   59.7794   29.2272   47.2067 H   0  0  0  0  0  0  0  0  0  0  0  0
   60.8671   29.7793   45.8459 H   0  0  0  0  0  0  0  0  0  0  0  0
   60.5355   30.9981   48.6111 H   0  0  0  0  0  0  0  0  0  0  0  0
   62.0207   30.3349   47.8291 H   0  0  0  0  0  0  0  0  0  0  0  0
   61.9823   32.8332   47.8445 H   0  0  0  0  0  0  0  0  0  0  0  0
   62.0039   32.1510   46.1829 H   0  0  0  0  0  0  0  0  0  0  0  0
   56.3494   28.3138   46.5118 H   0  0  0  0  0  0  0  0  0  0  0  0
   57.6632   23.1779   46.4971 H   0  0  0  0  0  0  0  0  0  0  0  0
   55.8773   23.0086   46.2802 H   0  0  0  0  0  0  0  0  0  0  0  0
   58.1095   21.7537   44.6179 H   0  0  0  0  0  0  0  0  0  0  0  0
   56.8233   20.9271   45.5496 H   0  0  0  0  0  0  0  0  0  0  0  0
   56.2210   20.9350   43.2800 H   0  0  0  0  0  0  0  0  0  0  0  0
   57.3242   22.4860   42.1197 H   0  0  0  0  0  0  0  0  0  0  0  0
   55.6741   23.2538   42.3068 H   0  0  0  0  0  0  0  0  0  0  0  0
   58.3134   24.0809   43.4231 H   0  0  0  0  0  0  0  0  0  0  0  0
   56.8518   25.0520   42.9621 H   0  0  0  0  0  0  0  0  0  0  0  0
  1  2  2  0
  2  3  1  0
  3  4  1  0
  4  5  2  0
  5  6  1  0
  6  7  1  0
  7  8  2  0
  8  9  1  0
  9 10  2  0
 10 11  1  0
 11 12  2  0
 12 13  1  0
 13 14  1  0
 14 15  1  0
 15 16  1  0
  6 17  1  0
  2 18  1  0
 18 19  1  0
 19 20  1  0
 20 21  1  0
 21 22  1  0
 22 23  1  0
 17  3  2  0
 23 18  1  0
 12  7  1  0
 16 11  1  0
  4 24  1  0
  9 25  1  0
 10 26  1  0
 13 27  1  0
 13 28  1  0
 14 29  1  0
 14 30  1  0
 15 31  1  0
 15 32  1  0
 17 33  1  0
 19 34  1  0
 19 35  1  0
 20 36  1  0
 20 37  1  0
 21 38  1  0
 22 39  1  0
 22 40  1  0
 23 41  1  0
 23 42  1  0
M  END
>  <UniqueID>  (5) 
5

>  <SMILES>  (5) 
O=C(c1cnn(-c2nccc3c2CCCO3)c1)N1CCNCC1

>  <Energy>  (5) 
87.27919746436642

>  <Genealogy>  (5) 
O=C(c1cnn(-c2nccc3c2CCCO3)c1)N1CCNCC1 (3D coordinates assigned)
O=C(c1cnn(-c2nccc3c2CCCO3)c1)N1CCNCC1 (nonaromatic ring conformer: 87.27919746436642 kcal/mol)

>  <smiles>  (5) 
O=C(c1cnn(-c2nccc3c2CCCO3)c1)N1CCNCC1

>  <score_type>  (5) 
oracle

>  <origin>  (5) 
adg

>  <m_score__min__energy>  (5) 
-7.4800000000000004

>  <m_primary>  (5) 
energy

$$$$
5:0
     RDKit          3D

 36 38  0  0  0  0  0  0  0  0999 V2000
   60.8410   30.3980   46.7530 C   0  0  0  0  0  0  0  0  0  0  0  0
   60.9200   31.0780   48.1150 C   0  0  0  0  0  0  0  0  0  0  0  0
   61.8930   32.1720   48.0810 N   0  0  0  0  0  0  0  0  0  0  0  0
   63.0260   32.1940   47.3530 C   0  0  0  0  0  0  0  0  0  0  0  0
   63.6210   33.4280   47.5080 C   0  0  0  0  0  0  0  0  0  0  0  0
   62.8540   34.1760   48.3220 N   0  0  0  0  0  0  0  0  0  0  0  0
   61.8070   33.3950   48.6550 C   0  0  0  0  0  0  0  0  0  0  0  0
   60.6950   33.8470   49.5610 C   0  0  0  0  0  0  0  0  0  0  0  0
   59.6790   34.5840   48.8090 N   0  0  0  0  0  0  0  0  0  0  0  0
   59.3160   34.3110   47.4420 C   0  0  0  0  0  0  0  0  0  0  0  0
   59.6390   35.2470   46.4480 C   0  0  0  0  0  0  0  0  0  0  0  0
   59.3100   35.0080   45.1140 C   0  0  0  0  0  0  0  0  0  0  0  0
   58.6480   33.8320   44.7540 C   0  0  0  0  0  0  0  0  0  0  0  0
   58.3040   32.8860   45.7330 C   0  0  0  0  0  0  0  0  0  0  0  0
   57.6000   31.6410   45.3610 C   0  0  0  0  0  0  0  0  0  0  0  0
   56.4890   31.5910   44.6020 N   0  0  0  0  0  0  0  0  0  0  0  0
   56.1700   30.3100   44.4970 N   0  0  0  0  0  0  0  0  0  0  0  0
   57.0980   29.6250   45.1910 C   0  0  0  0  0  0  0  0  0  0  0  0
   57.9780   30.4390   45.7230 O   0  0  0  0  0  0  0  0  0  0  0  0
   58.6360   33.1330   47.0750 C   0  0  0  0  0  0  0  0  0  0  0  0
   60.7151   29.3140   46.8911 H   0  0  0  0  0  0  0  0  0  0  0  0
   59.9833   30.7983   46.1925 H   0  0  0  0  0  0  0  0  0  0  0  0
   61.7676   30.5910   46.1925 H   0  0  0  0  0  0  0  0  0  0  0  0
   59.9305   31.4804   48.3777 H   0  0  0  0  0  0  0  0  0  0  0  0
   61.2378   30.3396   48.8658 H   0  0  0  0  0  0  0  0  0  0  0  0
   63.4115   31.3671   46.7385 H   0  0  0  0  0  0  0  0  0  0  0  0
   64.5655   33.7478   47.0435 H   0  0  0  0  0  0  0  0  0  0  0  0
   63.0320   35.1620   48.6150 H   0  0  0  0  0  0  0  0  0  0  0  0
   60.2298   32.9664   50.0280 H   0  0  0  0  0  0  0  0  0  0  0  0
   61.1152   34.5114   50.3304 H   0  0  0  0  0  0  0  0  0  0  0  0
   59.2230   35.3940   49.2890 H   0  0  0  0  0  0  0  0  0  0  0  0
   60.1564   36.1778   46.7234 H   0  0  0  0  0  0  0  0  0  0  0  0
   59.5726   35.7476   44.3433 H   0  0  0  0  0  0  0  0  0  0  0  0
   58.3952   33.6462   43.6997 H   0  0  0  0  0  0  0  0  0  0  0  0
   57.1158   28.5303   45.2975 H   0  0  0  0  0  0  0  0  0  0  0  0
   58.3623   32.3992   47.8475 H   0  0  0  0  0  0  0  0  0  0  0  0
  1  2  1  0
  2  3  1  0
  3  4  1  0
  4  5  2  0
  5  6  1  0
  6  7  2  0
  7  8  1  0
  8  9  1  0
  9 10  1  0
 10 11  2  0
 11 12  1  0
 12 13  2  0
 13 14  1  0
 14 15  1  0
 15 16  2  0
 16 17  1  0
 17 18  2  0
 18 19  1  0
 14 20  2  0
  7  3  1  0
 20 10  1  0
 19 15  1  0
  1 21  1  0
  1 22  1  0
  1 23  1  0
  2 24  1  0
  2 25  1  0
  4 26  1  0
  5 27  1  0
  6 28  1  0
  8 29  1  0
  8 30  1  0
  9 31  1  0
 11 32  1  0
 12 33  1  0
 13 34  1  0
 18 35  1  0
 20 36  1  0
M  CHG  1   6   1
M  END
>  <UniqueID>  (6) 
6

>  <SMILES>  (6) 
CCn1cc[nH+]c1CNc1cccc(-c2nnco2)c1

>  <Energy>  (6) 
97.75804213191196

>  <Genealogy>  (6) 
CCn1cc[nH+]c1CNc1cccc(-c2nnco2)c1 (protonated)
CCn1cc[nH+]c1CNc1cccc(-c2nnco2)c1 (3D coordinates assigned)
CCn1cc[nH+]c1CNc1cccc(-c2nnco2)c1 (optimized conformer: 97.75804213191196 kcal/mol)

>  <smiles>  (6) 
CCn1ccnc1CNc1cccc(-c2nnco2)c1

>  <score_type>  (6) 
oracle

>  <origin>  (6) 
adg

>  <m_score__min__energy>  (6) 
-5.6299999999999999

>  <m_primary>  (6) 
energy

$$$$
6:0
     RDKit          3D

 37 39  0  0  0  0  0  0  0  0999 V2000
   59.6900   34.5780   48.3150 C   0  0  0  0  0  0  0  0  0  0  0  0
   59.1740   34.1480   46.9810 C   0  0  0  0  0  0  0  0  0  0  0  0
   59.0470   34.9500   45.9510 O   0  0  0  0  0  0  0  0  0  0  0  0
   58.5300   34.3160   44.9410 N   0  0  0  0  0  0  0  0  0  0  0  0
   58.3130   33.0370   45.3050 C   0  0  0  0  0  0  0  0  0  0  0  0
   57.6560   32.0540   44.4220 C   0  0  0  0  0  0  0  0  0  0  0  0
   57.7460   32.1380   43.0240 C   0  0  0  0  0  0  0  0  0  0  0  0
   57.0800   31.1990   42.2340 C   0  0  0  0  0  0  0  0  0  0  0  0
   56.3200   30.1960   42.8380 C   0  0  0  0  0  0  0  0  0  0  0  0
   56.2300   30.1560   44.2300 C   0  0  0  0  0  0  0  0  0  0  0  0
   56.8880   31.0790   44.9820 N   0  0  0  0  0  0  0  0  0  0  0  0
   58.7290   32.8830   46.6240 C   0  0  0  0  0  0  0  0  0  0  0  0
   58.5440   31.7090   47.5510 C   0  0  0  0  0  0  0  0  0  0  0  0
   59.7720   31.0430   47.7870 O   0  0  0  0  0  0  0  0  0  0  0  0
   60.3460   30.5540   46.5870 C   0  0  0  0  0  0  0  0  0  0  0  0
   59.5490   29.4020   46.0460 C   0  0  0  0  0  0  0  0  0  0  0  0
   59.7160   28.9780   44.7210 C   0  0  0  0  0  0  0  0  0  0  0  0
   58.9240   27.9390   44.2290 C   0  0  0  0  0  0  0  0  0  0  0  0
   57.9760   27.3350   45.0570 C   0  0  0  0  0  0  0  0  0  0  0  0
   57.8370   27.7810   46.3730 C   0  0  0  0  0  0  0  0  0  0  0  0
   58.6170   28.7950   46.8340 N   0  0  0  0  0  0  0  0  0  0  0  0
   59.1051   34.0906   49.1089 H   0  0  0  0  0  0  0  0  0  0  0  0
   60.7475   34.2901   48.4093 H   0  0  0  0  0  0  0  0  0  0  0  0
   59.5975   35.6700   48.4093 H   0  0  0  0  0  0  0  0  0  0  0  0
   58.3180   34.7490   44.0150 H   0  0  0  0  0  0  0  0  0  0  0  0
   58.3370   32.9379   42.5540 H   0  0  0  0  0  0  0  0  0  0  0  0
   57.1541   31.2495   41.1377 H   0  0  0  0  0  0  0  0  0  0  0  0
   55.7986   29.4465   42.2244 H   0  0  0  0  0  0  0  0  0  0  0  0
   55.6265   29.3775   44.7195 H   0  0  0  0  0  0  0  0  0  0  0  0
   58.1411   32.0687   48.5093 H   0  0  0  0  0  0  0  0  0  0  0  0
   57.8484   30.9994   47.0792 H   0  0  0  0  0  0  0  0  0  0  0  0
   60.3646   31.3619   45.8407 H   0  0  0  0  0  0  0  0  0  0  0  0
   61.3677   30.2068   46.8005 H   0  0  0  0  0  0  0  0  0  0  0  0
   60.4644   29.4595   44.0744 H   0  0  0  0  0  0  0  0  0  0  0  0
   59.0467   27.5968   43.1908 H   0  0  0  0  0  0  0  0  0  0  0  0
   57.3459   26.5173   44.6772 H   0  0  0  0  0  0  0  0  0  0  0  0
   57.0961   27.3118   47.0371 H   0  0  0  0  0  0  0  0  0  0  0  0
  1  2  1  0
  2  3  1  0
  3  4  1  0
  4  5  2  0
  5  6  1  0
  6  7  2  0
  7  8  1  0
  8  9  2  0
  9 10  1  0
 10 11  2  0
  5 12  1  0
 12 13  1  0
 13 14  1  0
 14 15  1  0
 15 16  1  0
 16 17  2  0
 17 18  1  0
 18 19  2  0
 19 20  1  0
 20 21  2  0
 12  2  2  0
 21 16  1  0
 11  6  1  0
  1 22  1  0
  1 23  1  0
  1 24  1  0
  4 25  1  0
  7 26  1  0
  8 27  1  0
  9 28  1  0
 10 29  1  0
 13 30  1  0
 13 31  1  0
 15 32  1  0
 15 33  1  0
 17 34  1  0
 18 35  1  0
 19 36  1  0
 20 37  1  0
M  CHG  1   4   1
M  END
>  <UniqueID>  (7) 
7

>  <SMILES>  (7) 
Cc1o[nH+]c(-c2ccccn2)c1COCc1ccccn1

>  <Energy>  (7) 
75.75953114574256

>  <Genealogy>  (7) 
Cc1o[nH+]c(-c2ccccn2)c1COCc1ccccn1 (protonated)
Cc1o[nH+]c(-c2ccccn2)c1COCc1ccccn1 (3D coordinates assigned)
Cc1o[nH+]c(-c2ccccn2)c1COCc1ccccn1 (optimized conformer: 75.75953114574256 kcal/mol)

>  <smiles>  (7) 
Cc1onc(-c2ccccn2)c1COCc1ccccn1

>  <score_type>  (7) 
oracle

>  <origin>  (7) 
adg

>  <m_score__min__energy>  (7) 
-5.71

>  <m_primary>  (7) 
energy

$$$$
7:0
     RDKit          3D

 32 34  0  0  0  0  0  0  0  0999 V2000
   56.6530   23.2390   43.3680 C   0  0  0  0  0  0  0  0  0  0  0  0
   57.4930   23.9890   44.2380 O   0  0  0  0  0  0  0  0  0  0  0  0
   57.4670   25.3860   44.3550 C   0  0  0  0  0  0  0  0  0  0  0  0
   57.8330   26.2390   43.2980 C   0  0  0  0  0  0  0  0  0  0  0  0
   57.7900   27.6280   43.4620 C   0  0  0  0  0  0  0  0  0  0  0  0
   57.3810   28.1920   44.6850 C   0  0  0  0  0  0  0  0  0  0  0  0
   57.3330   29.6220   44.8740 N   0  0  0  0  0  0  0  0  0  0  0  0
   58.2900   30.4270   45.3780 C   0  0  0  0  0  0  0  0  0  0  0  0
   57.7770   31.7100   45.3510 C   0  0  0  0  0  0  0  0  0  0  0  0
   58.4330   32.9640   45.7910 C   0  0  0  0  0  0  0  0  0  0  0  0
   58.8160   33.1500   47.1320 C   0  0  0  0  0  0  0  0  0  0  0  0
   59.4310   34.3420   47.5150 C   0  0  0  0  0  0  0  0  0  0  0  0
   59.6610   35.3400   46.5690 C   0  0  0  0  0  0  0  0  0  0  0  0
   59.2710   35.1290   45.2470 C   0  0  0  0  0  0  0  0  0  0  0  0
   58.6710   33.9610   44.8850 N   0  0  0  0  0  0  0  0  0  0  0  0
   56.5330   31.6500   44.8330 N   0  0  0  0  0  0  0  0  0  0  0  0
   56.2920   30.3770   44.5530 N   0  0  0  0  0  0  0  0  0  0  0  0
   57.0220   27.3320   45.7380 C   0  0  0  0  0  0  0  0  0  0  0  0
   57.0630   25.9450   45.5720 C   0  0  0  0  0  0  0  0  0  0  0  0
   55.9636   22.6235   43.9645 H   0  0  0  0  0  0  0  0  0  0  0  0
   56.0749   23.9269   42.7335 H   0  0  0  0  0  0  0  0  0  0  0  0
   57.2712   22.5869   42.7335 H   0  0  0  0  0  0  0  0  0  0  0  0
   58.1549   25.8116   42.3369 H   0  0  0  0  0  0  0  0  0  0  0  0
   58.0783   28.2847   42.6280 H   0  0  0  0  0  0  0  0  0  0  0  0
   59.2833   30.1226   45.7394 H   0  0  0  0  0  0  0  0  0  0  0  0
   58.6314   32.3596   47.8745 H   0  0  0  0  0  0  0  0  0  0  0  0
   59.7339   34.4943   48.5614 H   0  0  0  0  0  0  0  0  0  0  0  0
   60.1448   36.2834   46.8623 H   0  0  0  0  0  0  0  0  0  0  0  0
   59.4488   35.9097   44.4927 H   0  0  0  0  0  0  0  0  0  0  0  0
   58.3940   33.8410   43.8860 H   0  0  0  0  0  0  0  0  0  0  0  0
   56.7055   27.7555   46.7026 H   0  0  0  0  0  0  0  0  0  0  0  0
   56.7751   25.2873   46.4054 H   0  0  0  0  0  0  0  0  0  0  0  0
  1  2  1  0
  2  3  1  0
  3  4  2  0
  4  5  1  0
  5  6  2  0
  6  7  1  0
  7  8  1  0
  8  9  2  0
  9 10  1  0
 10 11  2  0
 11 12  1  0
 12 13  2  0
 13 14  1  0
 14 15  2  0
  9 16  1  0
 16 17  2  0
  6 18  1  0
 18 19  2  0
 19  3  1  0
 17  7  1  0
 15 10  1  0
  1 20  1  0
  1 21  1  0
  1 22  1  0
  4 23  1  0
  5 24  1  0
  8 25  1  0
 11 26  1  0
 12 27  1  0
 13 28  1  0
 14 29  1  0
 15 30  1  0
 18 31  1  0
 19 32  1  0
M  CHG  1  15   1
M  END
>  <UniqueID>  (8) 
8

>  <SMILES>  (8) 
COc1ccc(-n2cc(-c3cccc[nH+]3)nn2)cc1

>  <Energy>  (8) 
72.61657022123079

>  <Genealogy>  (8) 
COc1ccc(-n2cc(-c3cccc[nH+]3)nn2)cc1 (protonated)
COc1ccc(-n2cc(-c3cccc[nH+]3)nn2)cc1 (3D coordinates assigned)
COc1ccc(-n2cc(-c3cccc[nH+]3)nn2)cc1 (optimized conformer: 72.61657022123079 kcal/mol)

>  <smiles>  (8) 
COc1ccc(-n2cc(-c3ccccn3)nn2)cc1

>  <score_type>  (8) 
oracle

>  <origin>  (8) 
adg

>  <m_score__min__energy>  (8) 
-5.4100000000000001

>  <m_primary>  (8) 
energy

$$$$
8:0
     RDKit          3D

 37 40  0  0  0  0  0  0  0  0999 V2000
   57.2138   25.7881   43.9536 H   0  0  0  0  0  0  0  0  0  0  0  0
   56.8030   24.8210   44.2790 C   0  0  0  0  0  0  0  0  0  0  0  0
   57.0010   23.6850   43.4920 C   0  0  0  0  0  0  0  0  0  0  0  0
   57.5513   23.7649   42.5429 H   0  0  0  0  0  0  0  0  0  0  0  0
   56.5010   22.4430   43.9070 C   0  0  0  0  0  0  0  0  0  0  0  0
   56.6710   21.2330   43.0360 C   0  0  0  0  0  0  0  0  0  0  0  0
   56.7963   20.3412   43.6677 H   0  0  0  0  0  0  0  0  0  0  0  0
   55.7813   21.1104   42.4009 H   0  0  0  0  0  0  0  0  0  0  0  0
   57.5601   21.3604   42.4009 H   0  0  0  0  0  0  0  0  0  0  0  0
   55.7910   22.3530   45.1120 C   0  0  0  0  0  0  0  0  0  0  0  0
   55.3751   21.3845   45.4266 H   0  0  0  0  0  0  0  0  0  0  0  0
   55.6040   23.4850   45.9230 C   0  0  0  0  0  0  0  0  0  0  0  0
   54.8730   23.3350   47.2300 C   0  0  0  0  0  0  0  0  0  0  0  0
   55.5772   23.4795   48.0626 H   0  0  0  0  0  0  0  0  0  0  0  0
   54.0732   24.0877   47.2913 H   0  0  0  0  0  0  0  0  0  0  0  0
   54.4343   22.3281   47.2913 H   0  0  0  0  0  0  0  0  0  0  0  0
   56.0860   24.7400   45.4790 C   0  0  0  0  0  0  0  0  0  0  0  0
   55.8980   25.9370   46.2480 N   0  0  0  0  0  0  0  0  0  0  0  0
   56.5580   27.0410   46.0590 C   0  0  0  0  0  0  0  0  0  0  0  0
   56.0760   28.0330   45.2500 N   0  0  0  0  0  0  0  0  0  0  0  0
   56.7660   29.1950   45.0420 C   0  0  0  0  0  0  0  0  0  0  0  0
   56.2430   30.1930   44.2140 C   0  0  0  0  0  0  0  0  0  0  0  0
   55.2695   30.0476   43.7230 H   0  0  0  0  0  0  0  0  0  0  0  0
   56.9610   31.3780   44.0110 C   0  0  0  0  0  0  0  0  0  0  0  0
   56.5486   32.1633   43.3604 H   0  0  0  0  0  0  0  0  0  0  0  0
   58.2010   31.5680   44.6320 C   0  0  0  0  0  0  0  0  0  0  0  0
   58.7583   32.5017   44.4659 H   0  0  0  0  0  0  0  0  0  0  0  0
   58.7360   30.5770   45.4630 C   0  0  0  0  0  0  0  0  0  0  0  0
   59.7107   30.7296   45.9494 H   0  0  0  0  0  0  0  0  0  0  0  0
   58.0210   29.3870   45.6720 C   0  0  0  0  0  0  0  0  0  0  0  0
   58.4790   28.3800   46.4650 N   0  0  0  0  0  0  0  0  0  0  0  0
   59.5990   28.2250   47.1950 C   0  0  0  0  0  0  0  0  0  0  0  0
   60.4100   28.9637   47.2766 H   0  0  0  0  0  0  0  0  0  0  0  0
   59.5750   27.0260   47.8110 N   0  0  0  0  0  0  0  0  0  0  0  0
   60.3100   26.6380   48.4420 H   0  0  0  0  0  0  0  0  0  0  0  0
   58.4500   26.3980   47.4900 N   0  0  0  0  0  0  0  0  0  0  0  0
   57.7970   27.2420   46.6670 C   0  0  0  0  0  0  0  0  0  0  0  0
  1  2  1  0
  2  3  2  0
  3  4  1  0
  3  5  1  0
  5  6  1  0
  6  7  1  0
  6  8  1  0
  6  9  1  0
  5 10  2  0
 10 11  1  0
 10 12  1  0
 12 13  1  0
 13 14  1  0
 13 15  1  0
 13 16  1  0
 12 17  2  0
 17 18  1  0
 18 19  2  0
 19 20  1  0
 20 21  1  0
 21 22  2  0
 22 23  1  0
 22 24  1  0
 24 25  1  0
 24 26  2  0
 26 27  1  0
 26 28  1  0
 28 29  1  0
 28 30  2  0
 30 31  1  0
 31 32  1  0
 32 33  1  0
 32 34  2  0
 34 35  1  0
 34 36  1  0
 36 37  2  0
 17  2  1  0
 37 19  1  0
 30 21  1  0
 37 31  1  0
M  CHG  2  20  -1  34   1
M  END
>  <UniqueID>  (9) 
9

>  <SMILES>  (9) 
Cc1ccc(/N=c2\[n-]c3ccccc3n3c[nH+]nc23)c(C)c1

>  <Energy>  (9) 
95.021691170966

>  <Genealogy>  (9) 
Cc1ccc(N=c2[n-]c3ccccc3n3c[nH+]nc23)c(C)c1 (protonated)
Cc1ccc(/N=c2\[n-]c3ccccc3n3c[nH+]nc23)c(C)c1 (cis-trans isomerization)
Cc1ccc(/N=c2\[n-]c3ccccc3n3c[nH+]nc23)c(C)c1 (3D coordinates assigned)
Cc1ccc(/N=c2\[n-]c3ccccc3n3c[nH+]nc23)c(C)c1 (optimized conformer: 95.021691170966 kcal/mol)

>  <smiles>  (9) 
Cc1ccc(N=c2[nH]c3ccccc3n3cnnc23)c(C)c1

>  <score_type>  (9) 
oracle

>  <origin>  (9) 
adg

>  <m_score__min__energy>  (9) 
-8.2400000000000002

>  <m_primary>  (9) 
energy

$$$$
9:0
     RDKit          3D

 57 60  0  0  1  0  0  0  0  0999 V2000
   58.5300   27.2340   43.4510 C   0  0  0  0  0  0  0  0  0  0  0  0
   58.3070   27.4710   44.8460 N   0  0  0  0  0  0  0  0  0  0  0  0
   59.7750   27.4450   45.7560 S   0  0  0  0  0  0  0  0  0  0  0  0
   60.1480   26.0560   46.1290 O   0  0  0  0  0  0  0  0  0  0  0  0
   60.8480   27.9670   44.8530 O   0  0  0  0  0  0  0  0  0  0  0  0
   59.6120   28.5140   47.1310 C   0  0  0  0  0  0  0  0  0  0  0  0
   59.9160   28.0780   48.4160 C   0  0  0  0  0  0  0  0  0  0  0  0
   59.7870   28.9300   49.5160 C   0  0  0  0  0  0  0  0  0  0  0  0
   59.3430   30.2240   49.2690 C   0  0  0  0  0  0  0  0  0  0  0  0
   59.0340   30.6870   48.0220 C   0  0  0  0  0  0  0  0  0  0  0  0
   59.1740   29.8170   46.9590 C   0  0  0  0  0  0  0  0  0  0  0  0
   58.8720   30.2180   45.6060 N   0  0  0  0  0  0  0  0  0  0  0  0
   58.6890   31.4770   45.3920 C   0  0  0  0  0  0  0  0  0  0  0  0
   59.5850   32.3890   45.8710 N   0  0  0  0  0  0  0  0  0  0  0  0
   59.4010   33.7030   45.6520 C   0  0  0  0  0  0  0  0  0  0  0  0
   60.2320   34.6070   46.0920 N   0  0  0  0  0  0  0  0  0  0  0  0
   61.3040   34.1270   46.9070 C   0  0  0  0  0  0  0  0  0  0  0  0
   62.5070   33.7980   46.3120 C   0  0  0  0  0  0  0  0  0  0  0  0
   63.5120   33.3390   47.1380 C   0  0  0  0  0  0  0  0  0  0  0  0
   63.3310   33.2120   48.5140 C   0  0  0  0  0  0  0  0  0  0  0  0
   62.1510   33.5350   49.1040 C   0  0  0  0  0  0  0  0  0  0  0  0
   61.1320   33.9990   48.2640 C   0  0  0  0  0  0  0  0  0  0  0  0
   61.6600   33.5130   50.4790 C   0  0  0  0  0  0  0  0  0  0  0  0
   62.6770   33.5310   51.5610 C   0  0  0  0  0  0  0  0  0  0  0  0
   63.9890   33.9450   51.1770 N   0  0  0  0  0  0  0  0  0  0  0  0
   64.7160   34.6910   52.1510 C   0  0  0  0  0  0  0  0  0  0  0  0
   64.6680   32.8320   50.5980 C   0  0  0  0  0  0  0  0  0  0  0  0
   64.5600   32.7070   49.1220 C   0  0  0  0  0  0  0  0  0  0  0  0
   58.3280   34.1290   44.9570 N   0  0  0  0  0  0  0  0  0  0  0  0
   57.4090   33.2750   44.4590 C   0  0  0  0  0  0  0  0  0  0  0  0
   57.5860   31.9220   44.6760 C   0  0  0  0  0  0  0  0  0  0  0  0
   56.4340   30.7440   44.0620 Cl  0  0  0  0  0  0  0  0  0  0  0  0
   59.2792   26.4378   43.3295 H   0  0  0  0  0  0  0  0  0  0  0  0
   57.5869   26.9256   42.9761 H   0  0  0  0  0  0  0  0  0  0  0  0
   58.8951   28.1566   42.9761 H   0  0  0  0  0  0  0  0  0  0  0  0
   57.8740   28.4140   44.9330 H   0  0  0  0  0  0  0  0  0  0  0  0
   60.2637   27.0457   48.5690 H   0  0  0  0  0  0  0  0  0  0  0  0
   60.0267   28.5910   50.5346 H   0  0  0  0  0  0  0  0  0  0  0  0
   59.2350   30.9102   50.1219 H   0  0  0  0  0  0  0  0  0  0  0  0
   58.6851   31.7190   47.8694 H   0  0  0  0  0  0  0  0  0  0  0  0
   60.4060   32.0550   46.4040 H   0  0  0  0  0  0  0  0  0  0  0  0
   62.6568   33.8978   45.2268 H   0  0  0  0  0  0  0  0  0  0  0  0
   64.4827   33.0658   46.6986 H   0  0  0  0  0  0  0  0  0  0  0  0
   60.1614   34.2701   48.7050 H   0  0  0  0  0  0  0  0  0  0  0  0
   61.0159   34.3943   50.6150 H   0  0  0  0  0  0  0  0  0  0  0  0
   61.1504   32.5438   50.5836 H   0  0  0  0  0  0  0  0  0  0  0  0
   62.3231   34.2168   52.3449 H   0  0  0  0  0  0  0  0  0  0  0  0
   62.7790   32.4867   51.8911 H   0  0  0  0  0  0  0  0  0  0  0  0
   64.4086   34.3755   53.1589 H   0  0  0  0  0  0  0  0  0  0  0  0
   65.7933   34.5096   52.0227 H   0  0  0  0  0  0  0  0  0  0  0  0
   64.5069   35.7633   52.0227 H   0  0  0  0  0  0  0  0  0  0  0  0
   65.7347   32.9175   50.8525 H   0  0  0  0  0  0  0  0  0  0  0  0
   64.1806   31.9364   51.0107 H   0  0  0  0  0  0  0  0  0  0  0  0
   65.4031   33.2560   48.6773 H   0  0  0  0  0  0  0  0  0  0  0  0
   64.5622   31.6257   48.9201 H   0  0  0  0  0  0  0  0  0  0  0  0
   58.2060   35.1550   44.8000 H   0  0  0  0  0  0  0  0  0  0  0  0
   56.5411   33.6468   43.8947 H   0  0  0  0  0  0  0  0  0  0  0  0
  1  2  1  0
  2  3  1  0
  3  4  2  0
  3  5  2  0
  3  6  1  0
  6  7  2  0
  7  8  1  0
  8  9  2  0
  9 10  1  0
 10 11  2  0
 11 12  1  0
 12 13  2  0
 13 14  1  0
 14 15  1  0
 15 16  2  0
 16 17  1  0
 17 18  2  0
 18 19  1  0
 19 20  2  0
 20 21  1  0
 21 22  2  0
 21 23  1  0
 23 24  1  0
 24 25  1  0
 25 26  1  0
 25 27  1  0
 27 28  1  0
 15 29  1  0
 29 30  1  0
 30 31  2  0
 31 32  1  0
 11  6  1  0
 31 13  1  0
 22 17  1  0
 28 20  1  0
  1 33  1  0
  1 34  1  0
  1 35  1  0
  2 36  1  0
  7 37  1  0
  8 38  1  0
  9 39  1  0
 10 40  1  0
 14 41  1  0
 18 42  1  0
 19 43  1  0
 22 44  1  0
 23 45  1  0
 23 46  1  0
 24 47  1  0
 24 48  1  0
 26 49  1  0
 26 50  1  0
 26 51  1  0
 27 52  1  0
 27 53  1  0
 28 54  1  0
 28 55  1  0
 29 56  1  0
 30 57  1  0
M  END
>  <smiles>  (10) 
CNS(=O)(=O)c1ccccc1N=c1[nH]c(=Nc2ccc3c(c2)CCN(C)CC3)[nH]cc1Cl

>  <score_type>  (10) 
oracle

>  <origin>  (10) 
adg

>  <m_score__min__energy>  (10) 
-7.7400000000000002

>  <m_primary>  (10) 
energy

$$$$
10:0
     RDKit          3D

 44 47  0  0  0  0  0  0  0  0999 V2000
   58.7480   34.6770   45.6710 C   0  0  0  0  0  0  0  0  0  0  0  0
   59.6690   33.9260   46.4050 C   0  0  0  0  0  0  0  0  0  0  0  0
   59.6410   32.5300   46.3470 C   0  0  0  0  0  0  0  0  0  0  0  0
   58.6880   31.8680   45.5500 C   0  0  0  0  0  0  0  0  0  0  0  0
   58.6560   30.3840   45.4850 C   0  0  0  0  0  0  0  0  0  0  0  0
   57.4440   29.7040   45.2740 C   0  0  0  0  0  0  0  0  0  0  0  0
   57.4150   28.3080   45.2120 C   0  0  0  0  0  0  0  0  0  0  0  0
   58.5970   27.5650   45.3590 C   0  0  0  0  0  0  0  0  0  0  0  0
   58.5710   26.0570   45.2740 C   0  0  0  0  0  0  0  0  0  0  0  0
   57.2930   25.5540   44.7420 N   0  0  0  0  0  0  0  0  0  0  0  0
   56.6330   24.5870   45.6450 C   0  0  1  0  0  0  0  0  0  0  0  0
   55.1880   24.2810   45.1700 C   0  0  0  0  0  0  0  0  0  0  0  0
   55.1530   23.6440   43.7670 C   0  0  0  0  0  0  0  0  0  0  0  0
   56.2010   22.5820   43.6500 C   0  0  0  0  0  0  0  0  0  0  0  0
   56.2640   21.6620   42.6640 N   0  0  0  0  0  0  0  0  0  0  0  0
   57.3980   20.9900   42.9740 C   0  0  0  0  0  0  0  0  0  0  0  0
   57.9920   21.4850   44.0770 N   0  0  0  0  0  0  0  0  0  0  0  0
   57.2470   22.4950   44.4830 N   0  0  0  0  0  0  0  0  0  0  0  0
   57.4430   23.2720   45.7050 C   0  0  0  0  0  0  0  0  0  0  0  0
   59.8070   28.2410   45.5710 C   0  0  0  0  0  0  0  0  0  0  0  0
   59.8380   29.6350   45.6340 C   0  0  0  0  0  0  0  0  0  0  0  0
   57.7650   32.6360   44.8140 C   0  0  0  0  0  0  0  0  0  0  0  0
   57.7970   34.0330   44.8770 C   0  0  0  0  0  0  0  0  0  0  0  0
   58.7719   35.7757   45.7185 H   0  0  0  0  0  0  0  0  0  0  0  0
   60.4179   34.4345   47.0300 H   0  0  0  0  0  0  0  0  0  0  0  0
   60.3686   31.9444   46.9281 H   0  0  0  0  0  0  0  0  0  0  0  0
   56.5111   30.2750   45.1568 H   0  0  0  0  0  0  0  0  0  0  0  0
   56.4598   27.7881   45.0469 H   0  0  0  0  0  0  0  0  0  0  0  0
   59.3855   25.7249   44.6134 H   0  0  0  0  0  0  0  0  0  0  0  0
   58.6947   25.6582   46.2917 H   0  0  0  0  0  0  0  0  0  0  0  0
   56.6660   26.3720   44.5540 H   0  0  0  0  0  0  0  0  0  0  0  0
   56.5883   25.0370   46.6478 H   0  0  0  0  0  0  0  0  0  0  0  0
   54.7207   23.5874   45.8846 H   0  0  0  0  0  0  0  0  0  0  0  0
   54.6428   25.2350   45.1188 H   0  0  0  0  0  0  0  0  0  0  0  0
   54.1627   23.1963   43.5968 H   0  0  0  0  0  0  0  0  0  0  0  0
   55.3495   24.4235   43.0162 H   0  0  0  0  0  0  0  0  0  0  0  0
   57.7879   20.1406   42.3939 H   0  0  0  0  0  0  0  0  0  0  0  0
   58.8620   21.1420   44.5410 H   0  0  0  0  0  0  0  0  0  0  0  0
   57.1077   22.6792   46.5688 H   0  0  0  0  0  0  0  0  0  0  0  0
   58.5110   23.5158   45.8046 H   0  0  0  0  0  0  0  0  0  0  0  0
   60.7388   27.6684   45.6885 H   0  0  0  0  0  0  0  0  0  0  0  0
   60.7942   30.1524   45.8015 H   0  0  0  0  0  0  0  0  0  0  0  0
   57.0143   32.1342   44.1858 H   0  0  0  0  0  0  0  0  0  0  0  0
   57.0716   34.6253   44.3000 H   0  0  0  0  0  0  0  0  0  0  0  0
  1  2  2  0
  2  3  1  0
  3  4  2  0
  4  5  1  0
  5  6  2  0
  6  7  1  0
  7  8  2  0
  8  9  1  0
  9 10  1  0
 10 11  1  0
 11 12  1  0
 12 13  1  0
 13 14  1  0
 14 15  2  0
 15 16  1  0
 16 17  2  0
 17 18  1  0
 18 19  1  0
  8 20  1  0
 20 21  2  0
  4 22  1  0
 22 23  2  0
 23  1  1  0
 21  5  1  0
 19 11  1  0
 18 14  1  0
  1 24  1  0
  2 25  1  0
  3 26  1  0
  6 27  1  0
  7 28  1  0
  9 29  1  0
  9 30  1  0
 10 31  1  0
 11 32  1  1
 12 33  1  0
 12 34  1  0
 13 35  1  0
 13 36  1  0
 16 37  1  0
 17 38  1  0
 19 39  1  0
 19 40  1  0
 20 41  1  0
 21 42  1  0
 22 43  1  0
 23 44  1  0
M  CHG  1  17   1
M  END
>  <UniqueID>  (11) 
10

>  <SMILES>  (11) 
c1ccc(-c2ccc(CN[C@H]3CCc4nc[nH+]n4C3)cc2)cc1

>  <Energy>  (11) 
88.34357567776246

>  <Genealogy>  (11) 
c1ccc(-c2ccc(CNC3CCc4nc[nH+]n4C3)cc2)cc1 (protonated)
c1ccc(-c2ccc(CN[C@H]3CCc4nc[nH+]n4C3)cc2)cc1 (chirality)
c1ccc(-c2ccc(CN[C@H]3CCc4nc[nH+]n4C3)cc2)cc1 (3D coordinates assigned)
c1ccc(-c2ccc(CN[C@H]3CCc4nc[nH+]n4C3)cc2)cc1 (nonaromatic ring conformer: 88.34357567776246 kcal/mol)

>  <smiles>  (11) 
c1ccc(-c2ccc(CNC3CCc4ncnn4C3)cc2)cc1

>  <score_type>  (11) 
oracle

>  <origin>  (11) 
adg

>  <m_score__min__energy>  (11) 
-7.0599999999999996

>  <m_primary>  (11) 
energy

$$$$
11:0
     RDKit          3D

 52 55  0  0  0  0  0  0  0  0999 V2000
   56.2810   29.7110   44.3740 C   0  0  0  0  0  0  0  0  0  0  0  0
   56.9180   30.7790   43.5450 C   0  0  0  0  0  0  0  0  0  0  0  0
   56.7170   30.8940   42.2170 N   0  0  0  0  0  0  0  0  0  0  0  0
   57.3930   31.9530   41.8030 N   0  0  0  0  0  0  0  0  0  0  0  0
   57.3650   32.4460   40.4330 C   0  0  0  0  0  0  0  0  0  0  0  0
   58.0150   32.5440   42.8410 C   0  0  0  0  0  0  0  0  0  0  0  0
   57.7520   31.8050   43.9790 C   0  0  0  0  0  0  0  0  0  0  0  0
   58.2320   32.1010   45.3480 C   0  0  0  0  0  0  0  0  0  0  0  0
   58.0630   33.3750   45.9130 C   0  0  0  0  0  0  0  0  0  0  0  0
   58.5220   33.6450   47.2050 C   0  0  0  0  0  0  0  0  0  0  0  0
   59.1620   32.6460   47.9550 C   0  0  0  0  0  0  0  0  0  0  0  0
   59.6700   32.9200   49.3150 C   0  0  0  0  0  0  0  0  0  0  0  0
   58.8890   33.3840   50.3230 N   0  0  0  0  0  0  0  0  0  0  0  0
   59.7330   33.4570   51.3760 C   0  0  0  0  0  0  0  0  0  0  0  0
   59.3960   33.8680   52.6630 C   0  0  0  0  0  0  0  0  0  0  0  0
   60.4070   33.8500   53.6390 C   0  0  0  0  0  0  0  0  0  0  0  0
   61.7090   33.4250   53.3090 C   0  0  0  0  0  0  0  0  0  0  0  0
   61.9900   33.0200   51.9960 C   0  0  0  0  0  0  0  0  0  0  0  0
   60.9840   33.0590   51.0850 N   0  0  0  0  0  0  0  0  0  0  0  0
   60.9620   32.7200   49.7890 C   0  0  0  0  0  0  0  0  0  0  0  0
   62.0460   32.0800   49.1040 N   0  0  0  0  0  0  0  0  0  0  0  0
   62.9020   32.7400   48.1020 C   0  0  0  0  0  0  0  0  0  0  0  0
   62.1390   33.8290   47.3160 C   0  0  0  0  0  0  0  0  0  0  0  0
   63.4050   31.6750   47.1150 C   0  0  0  0  0  0  0  0  0  0  0  0
   64.1040   33.3800   48.8160 C   0  0  0  0  0  0  0  0  0  0  0  0
   59.2950   31.3610   47.4070 C   0  0  0  0  0  0  0  0  0  0  0  0
   58.8330   31.0920   46.1150 C   0  0  0  0  0  0  0  0  0  0  0  0
   56.4194   29.9430   45.4403 H   0  0  0  0  0  0  0  0  0  0  0  0
   55.2060   29.6620   44.1459 H   0  0  0  0  0  0  0  0  0  0  0  0
   56.7487   28.7419   44.1459 H   0  0  0  0  0  0  0  0  0  0  0  0
   57.3026   33.5442   40.4397 H   0  0  0  0  0  0  0  0  0  0  0  0
   58.2823   32.1340   39.9122 H   0  0  0  0  0  0  0  0  0  0  0  0
   56.4889   32.0322   39.9122 H   0  0  0  0  0  0  0  0  0  0  0  0
   58.6266   33.4570   42.7917 H   0  0  0  0  0  0  0  0  0  0  0  0
   57.5653   34.1670   45.3341 H   0  0  0  0  0  0  0  0  0  0  0  0
   58.3808   34.6467   47.6369 H   0  0  0  0  0  0  0  0  0  0  0  0
   58.3746   34.1952   52.9071 H   0  0  0  0  0  0  0  0  0  0  0  0
   60.1804   34.1697   54.6668 H   0  0  0  0  0  0  0  0  0  0  0  0
   62.4986   33.4109   54.0747 H   0  0  0  0  0  0  0  0  0  0  0  0
   62.9970   32.6803   51.7122 H   0  0  0  0  0  0  0  0  0  0  0  0
   62.2920   31.1110   49.4100 H   0  0  0  0  0  0  0  0  0  0  0  0
   61.6551   34.5197   48.0222 H   0  0  0  0  0  0  0  0  0  0  0  0
   62.8449   34.3868   46.6830 H   0  0  0  0  0  0  0  0  0  0  0  0
   61.3737   33.3560   46.6830 H   0  0  0  0  0  0  0  0  0  0  0  0
   63.8095   30.8186   47.6744 H   0  0  0  0  0  0  0  0  0  0  0  0
   62.5707   31.3385   46.4820 H   0  0  0  0  0  0  0  0  0  0  0  0
   64.1949   32.1056   46.4820 H   0  0  0  0  0  0  0  0  0  0  0  0
   63.9655   33.3063   49.9048 H   0  0  0  0  0  0  0  0  0  0  0  0
   65.0253   32.8530   48.5270 H   0  0  0  0  0  0  0  0  0  0  0  0
   64.1811   34.4386   48.5270 H   0  0  0  0  0  0  0  0  0  0  0  0
   59.7654   30.5608   47.9972 H   0  0  0  0  0  0  0  0  0  0  0  0
   58.9418   30.0805   45.6965 H   0  0  0  0  0  0  0  0  0  0  0  0
  1  2  1  0
  2  3  2  0
  3  4  1  0
  4  5  1  0
  4  6  1  0
  6  7  2  0
  7  8  1  0
  8  9  2  0
  9 10  1  0
 10 11  2  0
 11 12  1  0
 12 13  1  0
 13 14  2  0
 14 15  1  0
 15 16  2  0
 16 17  1  0
 17 18  2  0
 18 19  1  0
 19 20  1  0
 20 21  1  0
 21 22  1  0
 22 23  1  0
 22 24  1  0
 22 25  1  0
 11 26  1  0
 26 27  2  0
  7  2  1  0
 27  8  1  0
 20 12  2  0
 19 14  1  0
  1 28  1  0
  1 29  1  0
  1 30  1  0
  5 31  1  0
  5 32  1  0
  5 33  1  0
  6 34  1  0
  9 35  1  0
 10 36  1  0
 15 37  1  0
 16 38  1  0
 17 39  1  0
 18 40  1  0
 21 41  1  0
 23 42  1  0
 23 43  1  0
 23 44  1  0
 24 45  1  0
 24 46  1  0
 24 47  1  0
 25 48  1  0
 25 49  1  0
 25 50  1  0
 26 51  1  0
 27 52  1  0
M  END
>  <UniqueID>  (12) 
11

>  <SMILES>  (12) 
Cc1nn(C)cc1-c1ccc(-c2nc3ccccn3c2NC(C)(C)C)cc1

>  <Energy>  (12) 
128.57310946205226

>  <Genealogy>  (12) 
Cc1nn(C)cc1-c1ccc(-c2nc3ccccn3c2NC(C)(C)C)cc1 (3D coordinates assigned)
Cc1nn(C)cc1-c1ccc(-c2nc3ccccn3c2NC(C)(C)C)cc1 (optimized conformer: 128.57310946205226 kcal/mol)

>  <smiles>  (12) 
Cc1nn(C)cc1-c1ccc(-c2nc3ccccn3c2NC(C)(C)C)cc1

>  <score_type>  (12) 
oracle

>  <origin>  (12) 
adg

>  <m_score__min__energy>  (12) 
-8.0600000000000005

>  <m_primary>  (12) 
energy

$$$$
12:0
     RDKit          3D

 26 27  0  0  0  0  0  0  0  0999 V2000
   56.4580   30.5640   43.9080 C   0  0  0  0  0  0  0  0  0  0  0  0
   57.5810   30.2230   44.7890 N   0  0  0  0  0  0  0  0  0  0  0  0
   58.5280   31.2780   45.1710 C   0  0  0  0  0  0  0  0  0  0  0  0
   57.7540   28.8660   45.2720 C   0  0  0  0  0  0  0  0  0  0  0  0
   59.0380   28.3610   45.5480 C   0  0  0  0  0  0  0  0  0  0  0  0
   59.2190   27.0560   46.0160 C   0  0  0  0  0  0  0  0  0  0  0  0
   61.0230   26.4870   46.3590 Br  0  0  0  0  0  0  0  0  0  0  0  0
   58.1040   26.2170   46.2200 C   0  0  0  0  0  0  0  0  0  0  0  0
   58.2500   24.8970   46.6900 C   0  0  0  0  0  0  0  0  0  0  0  0
   57.1310   24.0860   46.8830 C   0  0  0  0  0  0  0  0  0  0  0  0
   55.8540   24.5740   46.6130 C   0  0  0  0  0  0  0  0  0  0  0  0
   55.6820   25.8780   46.1470 C   0  0  0  0  0  0  0  0  0  0  0  0
   54.3930   26.3360   45.8870 O   0  0  0  0  0  0  0  0  0  0  0  0
   56.8010   26.7120   45.9460 C   0  0  0  0  0  0  0  0  0  0  0  0
   56.6420   28.0280   45.4770 C   0  0  0  0  0  0  0  0  0  0  0  0
   55.5817   30.8301   44.5173 H   0  0  0  0  0  0  0  0  0  0  0  0
   56.7362   31.4182   43.2732 H   0  0  0  0  0  0  0  0  0  0  0  0
   56.2143   29.6994   43.2732 H   0  0  0  0  0  0  0  0  0  0  0  0
   58.5843   31.3407   46.2678 H   0  0  0  0  0  0  0  0  0  0  0  0
   59.5230   31.0419   44.7657 H   0  0  0  0  0  0  0  0  0  0  0  0
   58.1862   32.2418   44.7657 H   0  0  0  0  0  0  0  0  0  0  0  0
   59.9160   29.0051   45.3926 H   0  0  0  0  0  0  0  0  0  0  0  0
   59.2538   24.5026   46.9065 H   0  0  0  0  0  0  0  0  0  0  0  0
   57.2575   23.0568   47.2500 H   0  0  0  0  0  0  0  0  0  0  0  0
   54.9772   23.9281   46.7680 H   0  0  0  0  0  0  0  0  0  0  0  0
   55.6317   28.4089   45.2668 H   0  0  0  0  0  0  0  0  0  0  0  0
  1  2  1  0
  2  3  1  0
  2  4  1  0
  4  5  2  0
  5  6  1  0
  6  7  1  0
  6  8  2  0
  8  9  1  0
  9 10  2  0
 10 11  1  0
 11 12  2  0
 12 13  1  0
 12 14  1  0
 14 15  2  0
 15  4  1  0
 14  8  1  0
  1 16  1  0
  1 17  1  0
  1 18  1  0
  3 19  1  0
  3 20  1  0
  3 21  1  0
  5 22  1  0
  9 23  1  0
 10 24  1  0
 11 25  1  0
 15 26  1  0
M  CHG  1  13  -1
M  END
>  <UniqueID>  (13) 
12

>  <SMILES>  (13) 
CN(C)c1cc(Br)c2cccc([O-])c2c1

>  <Energy>  (13) 
33.981107650027326

>  <Genealogy>  (13) 
CN(C)c1cc(Br)c2cccc([O-])c2c1 (protonated)
CN(C)c1cc(Br)c2cccc([O-])c2c1 (3D coordinates assigned)
CN(C)c1cc(Br)c2cccc([O-])c2c1 (optimized conformer: 33.981107650027326 kcal/mol)

>  <smiles>  (13) 
CN(C)c1cc(Br)c2cccc(O)c2c1

>  <score_type>  (13) 
oracle

>  <origin>  (13) 
adg

>  <m_score__min__energy>  (13) 
-9.1199999999999992

>  <m_primary>  (13) 
energy

$$$$
13:0
     RDKit          3D

 20 21  0  0  0  0  0  0  0  0999 V2000
   57.0210   27.2050   43.4060 H   0  0  0  0  0  0  0  0  0  0  0  0
   57.7720   27.5290   44.0550 N   0  0  0  0  0  0  0  0  0  0  0  0
   57.8410   28.7630   44.4360 C   0  0  0  0  0  0  0  0  0  0  0  0
   58.0600   29.2590   46.0410 S   0  0  0  0  0  0  0  0  0  0  0  0
   58.0270   30.8850   45.6030 C   0  0  0  0  0  0  0  0  0  0  0  0
   58.1510   32.0030   46.4210 C   0  0  0  0  0  0  0  0  0  0  0  0
   58.2914   31.8943   47.5066 H   0  0  0  0  0  0  0  0  0  0  0  0
   58.0920   33.2840   45.8220 C   0  0  0  0  0  0  0  0  0  0  0  0
   58.2080   34.4650   46.5690 O   0  0  0  0  0  0  0  0  0  0  0  0
   59.4290   34.9500   47.1190 C   0  0  0  0  0  0  0  0  0  0  0  0
   59.3711   34.9270   48.2172 H   0  0  0  0  0  0  0  0  0  0  0  0
   60.2610   34.3141   46.7823 H   0  0  0  0  0  0  0  0  0  0  0  0
   59.5979   35.9835   46.7823 H   0  0  0  0  0  0  0  0  0  0  0  0
   57.9100   33.3910   44.4270 C   0  0  0  0  0  0  0  0  0  0  0  0
   57.8637   34.3865   43.9613 H   0  0  0  0  0  0  0  0  0  0  0  0
   57.7870   32.2450   43.6240 C   0  0  0  0  0  0  0  0  0  0  0  0
   57.6453   32.3349   42.5369 H   0  0  0  0  0  0  0  0  0  0  0  0
   57.8480   30.9900   44.2320 C   0  0  0  0  0  0  0  0  0  0  0  0
   57.7440   29.8050   43.5780 N   0  0  0  0  0  0  0  0  0  0  0  0
   57.6070   29.7090   42.5460 H   0  0  0  0  0  0  0  0  0  0  0  0
  1  2  1  0
  2  3  2  0
  3  4  1  0
  4  5  1  0
  5  6  2  0
  6  7  1  0
  6  8  1  0
  8  9  1  0
  9 10  1  0
 10 11  1  0
 10 12  1  0
 10 13  1  0
  8 14  2  0
 14 15  1  0
 14 16  1  0
 16 17  1  0
 16 18  2  0
 18 19  1  0
 19 20  1  0
 19  3  1  0
 18  5  1  0
M  END
>  <UniqueID>  (14) 
13

>  <SMILES>  (14) 
[H]/N=c1/[nH]c2ccc(OC)cc2s1

>  <Energy>  (14) 
54.3422935204086

>  <Genealogy>  (14) 
[H]/N=c1/[nH]c2ccc(OC)cc2s1 (cis-trans isomerization)
[H]/N=c1/[nH]c2ccc(OC)cc2s1 (3D coordinates assigned)
[H]/N=c1/[nH]c2ccc(OC)cc2s1 (optimized conformer: 54.3422935204086 kcal/mol)

>  <smiles>  (14) 
COc1ccc2[nH]c(=N)sc2c1

>  <score_type>  (14) 
oracle

>  <origin>  (14) 
adg

>  <m_score__min__energy>  (14) 
-4.7199999999999998

>  <m_primary>  (14) 
energy

$$$$
14:0
     RDKit          3D

 45 47  0  0  0  0  0  0  0  0999 V2000
   58.5540   31.8540   49.7570 C   0  0  0  0  0  0  0  0  0  0  0  0
   59.3440   33.1220   49.4290 C   0  0  0  0  0  0  0  0  0  0  0  0
   59.3490   33.4440   47.9190 C   0  0  2  0  0  0  0  0  0  0  0  0
   59.6380   34.9390   47.6860 C   0  0  0  0  0  0  0  0  0  0  0  0
   59.6620   35.3110   46.1890 C   0  0  0  0  0  0  0  0  0  0  0  0
   59.0750   34.2160   45.2870 C   0  0  0  0  0  0  0  0  0  0  0  0
   57.8520   33.6570   45.8880 N   0  0  0  0  0  0  0  0  0  0  0  0
   57.0200   32.8540   44.9650 C   0  0  0  0  0  0  0  0  0  0  0  0
   57.7910   31.8680   44.0450 C   0  0  0  0  0  0  0  0  0  0  0  0
   57.8820   30.4990   44.6100 N   0  0  0  0  0  0  0  0  0  0  0  0
   57.0120   29.5020   44.2110 C   0  0  0  0  0  0  0  0  0  0  0  0
   55.9400   29.7240   42.9760 S   0  0  0  0  0  0  0  0  0  0  0  0
   57.0320   28.2850   44.8230 N   0  0  0  0  0  0  0  0  0  0  0  0
   57.9130   28.0030   45.8160 C   0  0  0  0  0  0  0  0  0  0  0  0
   57.8950   26.7490   46.4490 C   0  0  0  0  0  0  0  0  0  0  0  0
   58.8120   26.4600   47.4620 C   0  0  0  0  0  0  0  0  0  0  0  0
   59.7550   27.4160   47.8470 C   0  0  0  0  0  0  0  0  0  0  0  0
   59.7830   28.6650   47.2220 C   0  0  0  0  0  0  0  0  0  0  0  0
   58.8570   28.9690   46.2050 C   0  0  0  0  0  0  0  0  0  0  0  0
   58.8360   30.2180   45.5650 C   0  0  0  0  0  0  0  0  0  0  0  0
   59.7010   31.0820   45.8770 O   0  0  0  0  0  0  0  0  0  0  0  0
   58.0070   33.0720   47.2440 C   0  0  0  0  0  0  0  0  0  0  0  0
   58.4822   31.7388   50.8486 H   0  0  0  0  0  0  0  0  0  0  0  0
   57.5435   31.9306   49.3291 H   0  0  0  0  0  0  0  0  0  0  0  0
   59.0681   30.9807   49.3291 H   0  0  0  0  0  0  0  0  0  0  0  0
   58.8925   33.9678   49.9682 H   0  0  0  0  0  0  0  0  0  0  0  0
   60.3865   32.9544   49.7375 H   0  0  0  0  0  0  0  0  0  0  0  0
   60.1448   32.8361   47.4638 H   0  0  0  0  0  0  0  0  0  0  0  0
   58.8559   35.5310   48.1839 H   0  0  0  0  0  0  0  0  0  0  0  0
   60.6342   35.1547   48.0995 H   0  0  0  0  0  0  0  0  0  0  0  0
   59.0772   36.2319   46.0476 H   0  0  0  0  0  0  0  0  0  0  0  0
   60.7152   35.4438   45.9008 H   0  0  0  0  0  0  0  0  0  0  0  0
   58.8317   34.6473   44.3047 H   0  0  0  0  0  0  0  0  0  0  0  0
   59.8167   33.4116   45.1733 H   0  0  0  0  0  0  0  0  0  0  0  0
   56.3132   32.2679   45.5708 H   0  0  0  0  0  0  0  0  0  0  0  0
   56.5382   33.5774   44.2908 H   0  0  0  0  0  0  0  0  0  0  0  0
   57.2723   31.8138   43.0765 H   0  0  0  0  0  0  0  0  0  0  0  0
   58.8173   32.2497   43.9402 H   0  0  0  0  0  0  0  0  0  0  0  0
   56.3510   27.5500   44.5210 H   0  0  0  0  0  0  0  0  0  0  0  0
   57.1564   25.9924   46.1459 H   0  0  0  0  0  0  0  0  0  0  0  0
   58.7916   25.4781   47.9574 H   0  0  0  0  0  0  0  0  0  0  0  0
   60.4770   27.1848   48.6440 H   0  0  0  0  0  0  0  0  0  0  0  0
   60.5303   29.4132   47.5249 H   0  0  0  0  0  0  0  0  0  0  0  0
   57.1845   33.4354   47.8776 H   0  0  0  0  0  0  0  0  0  0  0  0
   57.9899   31.9779   47.1318 H   0  0  0  0  0  0  0  0  0  0  0  0
  1  2  1  0
  2  3  1  0
  3  4  1  0
  4  5  1  0
  5  6  1  0
  6  7  1  0
  7  8  1  0
  8  9  1  0
  9 10  1  0
 10 11  1  0
 11 12  2  0
 11 13  1  0
 13 14  1  0
 14 15  2  0
 15 16  1  0
 16 17  2  0
 17 18  1  0
 18 19  2  0
 19 20  1  0
 20 21  2  0
  7 22  1  0
 22  3  1  0
 20 10  1  0
 19 14  1  0
  1 23  1  0
  1 24  1  0
  1 25  1  0
  2 26  1  0
  2 27  1  0
  3 28  1  6
  4 29  1  0
  4 30  1  0
  5 31  1  0
  5 32  1  0
  6 33  1  0
  6 34  1  0
  8 35  1  0
  8 36  1  0
  9 37  1  0
  9 38  1  0
 13 39  1  0
 15 40  1  0
 16 41  1  0
 17 42  1  0
 18 43  1  0
 22 44  1  0
 22 45  1  0
M  END
>  <UniqueID>  (15) 
14

>  <SMILES>  (15) 
CC[C@@H]1CCCN(CCn2c(=S)[nH]c3ccccc3c2=O)C1

>  <Energy>  (15) 
62.41805851892188

>  <Genealogy>  (15) 
CC[C@@H]1CCCN(CCn2c(=S)[nH]c3ccccc3c2=O)C1 (chirality)
CC[C@@H]1CCCN(CCn2c(=S)[nH]c3ccccc3c2=O)C1 (3D coordinates assigned)
CC[C@@H]1CCCN(CCn2c(=S)[nH]c3ccccc3c2=O)C1 (nonaromatic ring conformer: 62.41805851892188 kcal/mol)

>  <smiles>  (15) 
CCC1CCCN(CCn2c(=S)[nH]c3ccccc3c2=O)C1

>  <score_type>  (15) 
oracle

>  <origin>  (15) 
adg

>  <m_score__min__energy>  (15) 
-7.9299999999999997

>  <m_primary>  (15) 
energy

$$$$
15:0
     RDKit          3D

 47 49  0  0  0  0  0  0  0  0999 V2000
   66.7670   34.6910   52.4270 C   0  0  0  0  0  0  0  0  0  0  0  0
   65.7290   33.6690   52.1920 N   0  0  0  0  0  0  0  0  0  0  0  0
   65.2580   33.1500   53.4880 C   0  0  0  0  0  0  0  0  0  0  0  0
   66.2440   32.5640   51.3370 C   0  0  0  0  0  0  0  0  0  0  0  0
   65.7710   32.6590   49.8760 C   0  0  0  0  0  0  0  0  0  0  0  0
   64.7960   33.6910   49.7010 O   0  0  0  0  0  0  0  0  0  0  0  0
   63.6580   33.6480   48.8770 C   0  0  0  0  0  0  0  0  0  0  0  0
   62.4200   33.9250   49.4660 C   0  0  0  0  0  0  0  0  0  0  0  0
   61.2440   33.8930   48.7130 C   0  0  0  0  0  0  0  0  0  0  0  0
   61.2830   33.5900   47.3410 C   0  0  0  0  0  0  0  0  0  0  0  0
   60.0450   33.5360   46.5210 C   0  0  0  0  0  0  0  0  0  0  0  0
   59.2860   34.6860   46.2500 C   0  0  0  0  0  0  0  0  0  0  0  0
   58.1280   34.5790   45.4780 C   0  0  0  0  0  0  0  0  0  0  0  0
   57.7370   33.3400   44.9720 C   0  0  0  0  0  0  0  0  0  0  0  0
   58.5250   32.2060   45.2340 C   0  0  0  0  0  0  0  0  0  0  0  0
   58.1600   30.8610   44.7170 C   0  0  0  0  0  0  0  0  0  0  0  0
   57.0140   30.7090   43.9140 C   0  0  0  0  0  0  0  0  0  0  0  0
   56.6510   29.4500   43.4240 C   0  0  0  0  0  0  0  0  0  0  0  0
   57.4220   28.3280   43.7360 C   0  0  0  0  0  0  0  0  0  0  0  0
   58.5540   28.4630   44.5420 C   0  0  0  0  0  0  0  0  0  0  0  0
   58.9230   29.7190   45.0340 C   0  0  0  0  0  0  0  0  0  0  0  0
   59.6430   32.3420   46.0010 N   0  0  0  0  0  0  0  0  0  0  0  0
   62.5270   33.3070   46.7480 C   0  0  0  0  0  0  0  0  0  0  0  0
   63.7030   33.3410   47.5030 C   0  0  0  0  0  0  0  0  0  0  0  0
   66.9072   34.8291   53.5092 H   0  0  0  0  0  0  0  0  0  0  0  0
   67.7139   34.3629   51.9735 H   0  0  0  0  0  0  0  0  0  0  0  0
   66.4537   35.6429   51.9735 H   0  0  0  0  0  0  0  0  0  0  0  0
   64.9100   34.1330   51.7340 H   0  0  0  0  0  0  0  0  0  0  0  0
   65.7538   33.6964   54.3038 H   0  0  0  0  0  0  0  0  0  0  0  0
   64.1692   33.2867   53.5639 H   0  0  0  0  0  0  0  0  0  0  0  0
   65.4994   32.0795   53.5639 H   0  0  0  0  0  0  0  0  0  0  0  0
   67.3435   32.5939   51.3514 H   0  0  0  0  0  0  0  0  0  0  0  0
   65.8515   31.6220   51.7477 H   0  0  0  0  0  0  0  0  0  0  0  0
   66.6378   32.8751   49.2341 H   0  0  0  0  0  0  0  0  0  0  0  0
   65.3073   31.6996   49.6029 H   0  0  0  0  0  0  0  0  0  0  0  0
   62.3718   34.1714   50.5370 H   0  0  0  0  0  0  0  0  0  0  0  0
   60.2798   34.1066   49.1975 H   0  0  0  0  0  0  0  0  0  0  0  0
   59.6016   35.6637   46.6431 H   0  0  0  0  0  0  0  0  0  0  0  0
   57.5230   35.4735   45.2685 H   0  0  0  0  0  0  0  0  0  0  0  0
   56.8191   33.2507   44.3725 H   0  0  0  0  0  0  0  0  0  0  0  0
   56.3987   31.5875   43.6697 H   0  0  0  0  0  0  0  0  0  0  0  0
   55.7570   29.3435   42.7920 H   0  0  0  0  0  0  0  0  0  0  0  0
   57.1377   27.3391   43.3471 H   0  0  0  0  0  0  0  0  0  0  0  0
   59.1580   27.5780   44.7910 H   0  0  0  0  0  0  0  0  0  0  0  0
   59.8138   29.8163   45.6720 H   0  0  0  0  0  0  0  0  0  0  0  0
   62.5748   33.0561   45.6781 H   0  0  0  0  0  0  0  0  0  0  0  0
   64.6686   33.1269   47.0216 H   0  0  0  0  0  0  0  0  0  0  0  0
  1  2  1  0
  2  3  1  0
  2  4  1  0
  4  5  1  0
  5  6  1  0
  6  7  1  0
  7  8  2  0
  8  9  1  0
  9 10  2  0
 10 11  1  0
 11 12  2  0
 12 13  1  0
 13 14  2  0
 14 15  1  0
 15 16  1  0
 16 17  2  0
 17 18  1  0
 18 19  2  0
 19 20  1  0
 20 21  2  0
 15 22  2  0
 10 23  1  0
 23 24  2  0
 24  7  1  0
 22 11  1  0
 21 16  1  0
  1 25  1  0
  1 26  1  0
  1 27  1  0
  2 28  1  0
  3 29  1  0
  3 30  1  0
  3 31  1  0
  4 32  1  0
  4 33  1  0
  5 34  1  0
  5 35  1  0
  8 36  1  0
  9 37  1  0
 12 38  1  0
 13 39  1  0
 14 40  1  0
 17 41  1  0
 18 42  1  0
 19 43  1  0
 20 44  1  0
 21 45  1  0
 23 46  1  0
 24 47  1  0
M  CHG  1   2   1
M  END
>  <UniqueID>  (16) 
15

>  <SMILES>  (16) 
C[NH+](C)CCOc1ccc(-c2cccc(-c3ccccc3)n2)cc1

>  <Energy>  (16) 
61.63301806823855

>  <Genealogy>  (16) 
C[NH+](C)CCOc1ccc(-c2cccc(-c3ccccc3)n2)cc1 (protonated)
C[NH+](C)CCOc1ccc(-c2cccc(-c3ccccc3)n2)cc1 (3D coordinates assigned)
C[NH+](C)CCOc1ccc(-c2cccc(-c3ccccc3)n2)cc1 (optimized conformer: 61.63301806823855 kcal/mol)

>  <smiles>  (16) 
CN(C)CCOc1ccc(-c2cccc(-c3ccccc3)n2)cc1

>  <score_type>  (16) 
oracle

>  <origin>  (16) 
adg

>  <m_score__min__energy>  (16) 
-6.0700000000000003

>  <m_primary>  (16) 
energy

$$$$
16:0
     RDKit          3D

 31 33  0  0  1  0  0  0  0  0999 V2000
   57.9940   32.2840   42.8930 C   0  0  0  0  0  0  0  0  0  0  0  0
   58.1630   32.8510   44.2590 C   0  0  0  0  0  0  0  0  0  0  0  0
   58.7840   34.0610   44.4910 C   0  0  0  0  0  0  0  0  0  0  0  0
   58.9380   34.5820   45.7660 C   0  0  0  0  0  0  0  0  0  0  0  0
   58.4410   33.8490   46.8480 C   0  0  0  0  0  0  0  0  0  0  0  0
   57.8210   32.6390   46.6100 C   0  0  0  0  0  0  0  0  0  0  0  0
   57.6660   32.1170   45.3410 C   0  0  0  0  0  0  0  0  0  0  0  0
   57.0170   30.8560   45.1080 N   0  0  0  0  0  0  0  0  0  0  0  0
   57.6200   29.7490   45.2940 C   0  0  0  0  0  0  0  0  0  0  0  0
   58.9810   29.7050   45.4450 C   0  0  0  0  0  0  0  0  0  0  0  0
   59.5670   28.4820   45.6430 C   0  0  0  0  0  0  0  0  0  0  0  0
   58.8050   27.3740   45.6840 N   0  0  0  0  0  0  0  0  0  0  0  0
   57.4670   27.4140   45.5350 C   0  0  0  0  0  0  0  0  0  0  0  0
   56.6490   26.2700   45.5730 C   0  0  0  0  0  0  0  0  0  0  0  0
   55.5120   25.8480   45.9920 N   0  0  0  0  0  0  0  0  0  0  0  0
   55.0330   24.6570   45.8520 C   0  0  0  0  0  0  0  0  0  0  0  0
   55.7640   23.7310   45.2100 C   0  0  0  0  0  0  0  0  0  0  0  0
   57.3040   24.6480   44.7520 S   0  0  0  0  0  0  0  0  0  0  0  0
   56.9180   28.6250   45.3430 N   0  0  0  0  0  0  0  0  0  0  0  0
   57.6805   31.2323   42.9687 H   0  0  0  0  0  0  0  0  0  0  0  0
   57.2276   32.8569   42.3504 H   0  0  0  0  0  0  0  0  0  0  0  0
   58.9490   32.3438   42.3504 H   0  0  0  0  0  0  0  0  0  0  0  0
   59.1704   34.6322   43.6340 H   0  0  0  0  0  0  0  0  0  0  0  0
   59.4390   35.5486   45.9229 H   0  0  0  0  0  0  0  0  0  0  0  0
   58.5427   34.2313   47.8744 H   0  0  0  0  0  0  0  0  0  0  0  0
   57.4345   32.0670   47.4664 H   0  0  0  0  0  0  0  0  0  0  0  0
   59.5851   30.6235   45.4084 H   0  0  0  0  0  0  0  0  0  0  0  0
   60.6573   28.4065   45.7680 H   0  0  0  0  0  0  0  0  0  0  0  0
   59.2840   26.4610   45.8350 H   0  0  0  0  0  0  0  0  0  0  0  0
   54.0403   24.4044   46.2529 H   0  0  0  0  0  0  0  0  0  0  0  0
   55.5086   22.6807   45.0058 H   0  0  0  0  0  0  0  0  0  0  0  0
  1  2  1  0
  2  3  2  0
  3  4  1  0
  4  5  2  0
  5  6  1  0
  6  7  2  0
  7  8  1  0
  8  9  2  0
  9 10  1  0
 10 11  2  0
 11 12  1  0
 12 13  1  0
 13 14  1  0
 14 15  2  0
 15 16  1  0
 16 17  2  0
 17 18  1  0
 13 19  2  0
  7  2  1  0
 19  9  1  0
 18 14  1  0
  1 20  1  0
  1 21  1  0
  1 22  1  0
  3 23  1  0
  4 24  1  0
  5 25  1  0
  6 26  1  0
 10 27  1  0
 11 28  1  0
 12 29  1  0
 16 30  1  0
 17 31  1  0
M  END
>  <smiles>  (17) 
Cc1ccccc1N=c1cc[nH]c(-c2nccs2)n1

>  <score_type>  (17) 
oracle

>  <origin>  (17) 
adg

>  <m_score__min__energy>  (17) 
-7.25

>  <m_primary>  (17) 
energy

$$$$
17:0
     RDKit          3D

 41 44  0  0  0  0  0  0  0  0999 V2000
   55.2170   27.1470   46.6720 H   0  0  0  0  0  0  0  0  0  0  0  0
   54.9200   26.3330   46.0930 N   0  0  0  0  0  0  0  0  0  0  0  0
   55.7450   25.4370   45.6530 C   0  0  0  0  0  0  0  0  0  0  0  0
   55.3520   24.2980   45.0650 N   0  0  0  0  0  0  0  0  0  0  0  0
   56.4560   23.6590   44.7970 O   0  0  0  0  0  0  0  0  0  0  0  0
   57.5360   24.2950   45.1640 N   0  0  0  0  0  0  0  0  0  0  0  0
   57.1230   25.4450   45.7260 C   0  0  0  0  0  0  0  0  0  0  0  0
   58.0250   26.5040   46.2330 C   0  0  0  0  0  0  0  0  0  0  0  0
   58.6480   26.4110   47.4380 N   0  0  0  0  0  0  0  0  0  0  0  0
   59.2930   27.5860   47.5460 C   0  0  0  0  0  0  0  0  0  0  0  0
   60.0760   28.0260   48.6110 C   0  0  0  0  0  0  0  0  0  0  0  0
   60.2536   27.3879   49.4892 H   0  0  0  0  0  0  0  0  0  0  0  0
   60.6320   29.3170   48.5230 C   0  0  0  0  0  0  0  0  0  0  0  0
   61.2598   29.6984   49.3418 H   0  0  0  0  0  0  0  0  0  0  0  0
   60.3890   30.1250   47.3910 C   0  0  0  0  0  0  0  0  0  0  0  0
   60.8270   31.1325   47.3347 H   0  0  0  0  0  0  0  0  0  0  0  0
   59.5900   29.6500   46.3340 C   0  0  0  0  0  0  0  0  0  0  0  0
   59.3882   30.2716   45.4492 H   0  0  0  0  0  0  0  0  0  0  0  0
   59.0620   28.3610   46.4480 C   0  0  0  0  0  0  0  0  0  0  0  0
   58.2690   27.6860   45.5960 N   0  0  0  0  0  0  0  0  0  0  0  0
   57.7520   28.1590   44.3060 C   0  0  0  0  0  0  0  0  0  0  0  0
   58.5490   28.7038   43.7787 H   0  0  0  0  0  0  0  0  0  0  0  0
   57.4249   27.2860   43.7222 H   0  0  0  0  0  0  0  0  0  0  0  0
   56.5760   29.0720   44.4910 C   0  0  0  0  0  0  0  0  0  0  0  0
   55.6300   28.7060   45.2370 O   0  0  0  0  0  0  0  0  0  0  0  0
   56.5520   30.3580   43.8560 N   0  0  0  0  0  0  0  0  0  0  0  0
   57.2840   31.5260   44.2540 C   0  0  0  0  0  0  0  0  0  0  0  0
   57.4230   31.7960   45.6200 C   0  0  0  0  0  0  0  0  0  0  0  0
   56.9595   31.1253   46.3585 H   0  0  0  0  0  0  0  0  0  0  0  0
   58.1460   32.9110   46.0540 C   0  0  0  0  0  0  0  0  0  0  0  0
   58.2374   33.1197   47.1301 H   0  0  0  0  0  0  0  0  0  0  0  0
   58.7570   33.7670   45.1200 C   0  0  0  0  0  0  0  0  0  0  0  0
   59.4920   34.8990   45.5030 O   0  0  0  0  0  0  0  0  0  0  0  0
   59.6580   35.3310   46.8500 C   0  0  0  0  0  0  0  0  0  0  0  0
   59.3489   34.5267   47.5338 H   0  0  0  0  0  0  0  0  0  0  0  0
   60.7150   35.5778   47.0283 H   0  0  0  0  0  0  0  0  0  0  0  0
   59.0383   36.2221   47.0283 H   0  0  0  0  0  0  0  0  0  0  0  0
   58.6370   33.4830   43.7550 C   0  0  0  0  0  0  0  0  0  0  0  0
   59.1166   34.1429   43.0171 H   0  0  0  0  0  0  0  0  0  0  0  0
   57.9130   32.3680   43.3200 C   0  0  0  0  0  0  0  0  0  0  0  0
   57.8356   32.1494   42.2447 H   0  0  0  0  0  0  0  0  0  0  0  0
  1  2  1  0
  2  3  2  0
  3  4  1  0
  4  5  1  0
  5  6  1  0
  6  7  2  0
  7  8  1  0
  8  9  2  0
  9 10  1  0
 10 11  2  0
 11 12  1  0
 11 13  1  0
 13 14  1  0
 13 15  2  0
 15 16  1  0
 15 17  1  0
 17 18  1  0
 17 19  2  0
 19 20  1  0
 20 21  1  0
 21 22  1  0
 21 23  1  0
 21 24  1  0
 24 25  2  0
 24 26  1  0
 26 27  1  0
 27 28  2  0
 28 29  1  0
 28 30  1  0
 30 31  1  0
 30 32  2  0
 32 33  1  0
 33 34  1  0
 34 35  1  0
 34 36  1  0
 34 37  1  0
 32 38  1  0
 38 39  1  0
 38 40  2  0
 40 41  1  0
  7  3  1  0
 20  8  1  0
 40 27  1  0
 19 10  1  0
M  CHG  2   4  -1  26  -1
M  END
>  <UniqueID>  (18) 
16

>  <SMILES>  (18) 
[H]/N=c1/[n-]onc1-c1nc2ccccc2n1CC(=O)[N-]c1ccc(OC)cc1

>  <Energy>  (18) 
123.96669468771437

>  <Genealogy>  (18) 
COc1ccc([N-]C(=O)Cn2c(-c3no[n-]c3=N)nc3ccccc32)cc1 (protonated)
[H]/N=c1/[n-]onc1-c1nc2ccccc2n1CC(=O)[N-]c1ccc(OC)cc1 (cis-trans isomerization)
[H]/N=c1/[n-]onc1-c1nc2ccccc2n1CC(=O)[N-]c1ccc(OC)cc1 (3D coordinates assigned)
[H]/N=c1/[n-]onc1-c1nc2ccccc2n1CC(=O)[N-]c1ccc(OC)cc1 (optimized conformer: 123.96669468771437 kcal/mol)

>  <smiles>  (18) 
COc1ccc(NC(=O)Cn2c(-c3no[nH]c3=N)nc3ccccc32)cc1

>  <score_type>  (18) 
oracle

>  <origin>  (18) 
adg

>  <m_score__min__energy>  (18) 
-11.83

>  <m_primary>  (18) 
energy

$$$$
18:0
     RDKit          3D

 55 57  0  0  0  0  0  0  0  0999 V2000
   57.5690   32.3330   41.1250 C   0  0  0  0  0  0  0  0  0  0  0  0
   57.9960   32.3040   42.6020 C   0  0  0  0  0  0  0  0  0  0  0  0
   57.0790   31.5500   43.4930 N   0  0  0  0  0  0  0  0  0  0  0  0
   56.9930   32.0770   44.8730 C   0  0  0  0  0  0  0  0  0  0  0  0
   57.3550   33.5660   44.9390 C   0  0  0  0  0  0  0  0  0  0  0  0
   58.6240   33.7440   45.6400 N   0  0  0  0  0  0  0  0  0  0  0  0
   59.5900   34.8040   45.3760 C   0  0  0  0  0  0  0  0  0  0  0  0
   60.7550   34.5610   46.3680 C   0  0  0  0  0  0  0  0  0  0  0  0
   60.4480   33.3060   47.0530 N   0  0  0  0  0  0  0  0  0  0  0  0
   61.3240   32.6150   47.9640 C   0  0  0  0  0  0  0  0  0  0  0  0
   62.6170   33.1050   48.2040 C   0  0  0  0  0  0  0  0  0  0  0  0
   63.4730   32.4210   49.0750 C   0  0  0  0  0  0  0  0  0  0  0  0
   64.8440   32.9550   49.3660 C   0  0  0  0  0  0  0  0  0  0  0  0
   63.0130   31.2670   49.7190 C   0  0  0  0  0  0  0  0  0  0  0  0
   61.7180   30.8000   49.4640 C   0  0  0  0  0  0  0  0  0  0  0  0
   61.2440   29.5280   50.1020 C   0  0  0  0  0  0  0  0  0  0  0  0
   60.9170   31.4670   48.5830 N   0  0  0  0  0  0  0  0  0  0  0  0
   59.1720   32.8810   46.6140 C   0  0  0  0  0  0  0  0  0  0  0  0
   58.5670   31.8720   47.0680 O   0  0  0  0  0  0  0  0  0  0  0  0
   57.1730   30.0750   43.3620 C   0  0  0  0  0  0  0  0  0  0  0  0
   57.9190   29.4000   44.4890 C   0  0  0  0  0  0  0  0  0  0  0  0
   59.2800   29.6790   44.7070 C   0  0  0  0  0  0  0  0  0  0  0  0
   59.9730   29.0470   45.7440 C   0  0  0  0  0  0  0  0  0  0  0  0
   59.3190   28.1240   46.5630 C   0  0  0  0  0  0  0  0  0  0  0  0
   57.9720   27.8260   46.3420 C   0  0  0  0  0  0  0  0  0  0  0  0
   57.2740   28.4550   45.3070 C   0  0  0  0  0  0  0  0  0  0  0  0
   56.4734   32.4074   41.0615 H   0  0  0  0  0  0  0  0  0  0  0  0
   58.0250   33.2022   40.6285 H   0  0  0  0  0  0  0  0  0  0  0  0
   57.9032   31.4101   40.6285 H   0  0  0  0  0  0  0  0  0  0  0  0
   58.9919   31.8409   42.6627 H   0  0  0  0  0  0  0  0  0  0  0  0
   57.9846   33.3469   42.9516 H   0  0  0  0  0  0  0  0  0  0  0  0
   55.9650   31.9441   45.2412 H   0  0  0  0  0  0  0  0  0  0  0  0
   57.7113   31.5231   45.4953 H   0  0  0  0  0  0  0  0  0  0  0  0
   57.4448   33.9641   43.9175 H   0  0  0  0  0  0  0  0  0  0  0  0
   56.5649   34.1046   45.4828 H   0  0  0  0  0  0  0  0  0  0  0  0
   59.9505   34.7456   44.3384 H   0  0  0  0  0  0  0  0  0  0  0  0
   59.1457   35.8018   45.5059 H   0  0  0  0  0  0  0  0  0  0  0  0
   61.7078   34.4765   45.8248 H   0  0  0  0  0  0  0  0  0  0  0  0
   60.8574   35.3933   47.0799 H   0  0  0  0  0  0  0  0  0  0  0  0
   62.9575   34.0259   47.7080 H   0  0  0  0  0  0  0  0  0  0  0  0
   64.9917   33.0125   50.4545 H   0  0  0  0  0  0  0  0  0  0  0  0
   65.5989   32.2852   48.9285 H   0  0  0  0  0  0  0  0  0  0  0  0
   64.9470   33.9590   48.9285 H   0  0  0  0  0  0  0  0  0  0  0  0
   63.6658   30.7293   50.4223 H   0  0  0  0  0  0  0  0  0  0  0  0
   61.2822   29.6304   51.1966 H   0  0  0  0  0  0  0  0  0  0  0  0
   60.2095   29.3240   49.7887 H   0  0  0  0  0  0  0  0  0  0  0  0
   61.8927   28.6967   49.7887 H   0  0  0  0  0  0  0  0  0  0  0  0
   59.9790   31.0680   48.3600 H   0  0  0  0  0  0  0  0  0  0  0  0
   56.1525   29.6657   43.3298 H   0  0  0  0  0  0  0  0  0  0  0  0
   57.7414   29.8748   42.4418 H   0  0  0  0  0  0  0  0  0  0  0  0
   59.8020   30.3980   44.0585 H   0  0  0  0  0  0  0  0  0  0  0  0
   61.0350   29.2772   45.9150 H   0  0  0  0  0  0  0  0  0  0  0  0
   59.8642   27.6318   47.3818 H   0  0  0  0  0  0  0  0  0  0  0  0
   57.4594   27.0946   46.9841 H   0  0  0  0  0  0  0  0  0  0  0  0
   56.2161   28.2099   45.1316 H   0  0  0  0  0  0  0  0  0  0  0  0
  1  2  1  0
  2  3  1  0
  3  4  1  0
  4  5  1  0
  5  6  1  0
  6  7  1  0
  7  8  1  0
  8  9  1  0
  9 10  1  0
 10 11  2  0
 11 12  1  0
 12 13  1  0
 12 14  2  0
 14 15  1  0
 15 16  1  0
 15 17  2  0
  9 18  1  0
 18 19  2  0
  3 20  1  0
 20 21  1  0
 21 22  2  0
 22 23  1  0
 23 24  2  0
 24 25  1  0
 25 26  2  0
 18  6  1  0
 26 21  1  0
 17 10  1  0
  1 27  1  0
  1 28  1  0
  1 29  1  0
  2 30  1  0
  2 31  1  0
  4 32  1  0
  4 33  1  0
  5 34  1  0
  5 35  1  0
  7 36  1  0
  7 37  1  0
  8 38  1  0
  8 39  1  0
 11 40  1  0
 13 41  1  0
 13 42  1  0
 13 43  1  0
 14 44  1  0
 16 45  1  0
 16 46  1  0
 16 47  1  0
 17 48  1  0
 20 49  1  0
 20 50  1  0
 22 51  1  0
 23 52  1  0
 24 53  1  0
 25 54  1  0
 26 55  1  0
M  CHG  1  17   1
M  END
>  <UniqueID>  (19) 
17

>  <SMILES>  (19) 
CCN(CCN1CCN(c2cc(C)cc(C)[nH+]2)C1=O)Cc1ccccc1

>  <Energy>  (19) 
74.74286785654996

>  <Genealogy>  (19) 
CCN(CCN1CCN(c2cc(C)cc(C)[nH+]2)C1=O)Cc1ccccc1 (protonated)
CCN(CCN1CCN(c2cc(C)cc(C)[nH+]2)C1=O)Cc1ccccc1 (3D coordinates assigned)
CCN(CCN1CCN(c2cc(C)cc(C)[nH+]2)C1=O)Cc1ccccc1 (nonaromatic ring conformer: 74.74286785654996 kcal/mol)

>  <smiles>  (19) 
CCN(CCN1CCN(c2cc(C)cc(C)n2)C1=O)Cc1ccccc1

>  <score_type>  (19) 
oracle

>  <origin>  (19) 
adg

>  <m_score__min__energy>  (19) 
-5.9500000000000002

>  <m_primary>  (19) 
energy

$$$$
19:0
     RDKit          3D

 65 69  0  0  0  0  0  0  0  0999 V2000
   56.6930   30.3580   43.3170 C   0  0  0  0  0  0  0  0  0  0  0  0
   57.4060   31.4910   43.8020 O   0  0  0  0  0  0  0  0  0  0  0  0
   57.9120   31.6180   45.1060 C   0  0  0  0  0  0  0  0  0  0  0  0
   58.1490   30.4940   45.9190 C   0  0  0  0  0  0  0  0  0  0  0  0
   58.6600   30.6500   47.2070 C   0  0  0  0  0  0  0  0  0  0  0  0
   58.9210   31.9210   47.7140 C   0  0  0  0  0  0  0  0  0  0  0  0
   58.6660   33.0670   46.9340 C   0  0  0  0  0  0  0  0  0  0  0  0
   58.1950   32.9030   45.6130 C   0  0  0  0  0  0  0  0  0  0  0  0
   58.0080   34.1420   44.7720 C   0  0  0  0  0  0  0  0  0  0  0  0
   59.2250   35.0730   44.9100 C   0  0  0  0  0  0  0  0  0  0  0  0
   59.7440   35.2370   46.3650 C   0  0  0  0  0  0  0  0  0  0  0  0
   58.8840   34.5010   47.4230 C   0  0  2  0  0  0  0  0  0  0  0  0
   59.5080   34.5560   48.7640 N   0  0  0  0  0  0  0  0  0  0  0  0
   60.9820   34.5740   48.7420 C   0  0  0  0  0  0  0  0  0  0  0  0
   61.5850   33.1960   48.8920 C   0  0  0  0  0  0  0  0  0  0  0  0
   62.4640   32.5420   48.0350 C   0  0  0  0  0  0  0  0  0  0  0  0
   63.1190   33.1010   46.8120 C   0  0  0  0  0  0  0  0  0  0  0  0
   62.6460   31.2810   48.4730 N   0  0  0  0  0  0  0  0  0  0  0  0
   61.9250   31.0990   49.5690 N   0  0  0  0  0  0  0  0  0  0  0  0
   61.7930   29.8400   50.2410 C   0  0  0  0  0  0  0  0  0  0  0  0
   62.5360   29.5710   51.4000 C   0  0  0  0  0  0  0  0  0  0  0  0
   62.4010   28.3420   52.0540 C   0  0  0  0  0  0  0  0  0  0  0  0
   61.5310   27.3720   51.5490 C   0  0  0  0  0  0  0  0  0  0  0  0
   60.8020   27.6260   50.3840 C   0  0  0  0  0  0  0  0  0  0  0  0
   60.9360   28.8540   49.7280 C   0  0  0  0  0  0  0  0  0  0  0  0
   61.2830   32.2510   49.8610 C   0  0  0  0  0  0  0  0  0  0  0  0
   60.2060   32.3580   50.8000 N   0  0  0  0  0  0  0  0  0  0  0  0
   60.2330   33.3440   51.8780 C   0  0  0  0  0  0  0  0  0  0  0  0
   58.8280   33.9290   52.0430 C   0  0  0  0  0  0  0  0  0  0  0  0
   57.8790   32.8940   52.2300 O   0  0  0  0  0  0  0  0  0  0  0  0
   57.7970   32.0900   51.0660 C   0  0  0  0  0  0  0  0  0  0  0  0
   59.1270   31.3730   50.7980 C   0  0  0  0  0  0  0  0  0  0  0  0
   56.3212   29.7672   44.1672 H   0  0  0  0  0  0  0  0  0  0  0  0
   55.8433   30.6941   42.7046 H   0  0  0  0  0  0  0  0  0  0  0  0
   57.3636   29.7374   42.7046 H   0  0  0  0  0  0  0  0  0  0  0  0
   57.9298   29.4863   45.5361 H   0  0  0  0  0  0  0  0  0  0  0  0
   58.8584   29.7633   47.8270 H   0  0  0  0  0  0  0  0  0  0  0  0
   59.3288   32.0310   48.7297 H   0  0  0  0  0  0  0  0  0  0  0  0
   57.8926   33.8503   43.7177 H   0  0  0  0  0  0  0  0  0  0  0  0
   57.1100   34.6753   45.1173 H   0  0  0  0  0  0  0  0  0  0  0  0
   60.0420   34.6648   44.2970 H   0  0  0  0  0  0  0  0  0  0  0  0
   58.8979   36.0696   44.5785 H   0  0  0  0  0  0  0  0  0  0  0  0
   60.7688   34.8403   46.4143 H   0  0  0  0  0  0  0  0  0  0  0  0
   59.6956   36.3098   46.6031 H   0  0  0  0  0  0  0  0  0  0  0  0
   57.9088   34.9974   47.5356 H   0  0  0  0  0  0  0  0  0  0  0  0
   59.2260   35.4510   49.2230 H   0  0  0  0  0  0  0  0  0  0  0  0
   61.3144   35.0011   47.7844 H   0  0  0  0  0  0  0  0  0  0  0  0
   61.3195   35.1789   49.5965 H   0  0  0  0  0  0  0  0  0  0  0  0
   63.9246   33.7885   47.1093 H   0  0  0  0  0  0  0  0  0  0  0  0
   63.5401   32.2796   46.2137 H   0  0  0  0  0  0  0  0  0  0  0  0
   62.3740   33.6460   46.2137 H   0  0  0  0  0  0  0  0  0  0  0  0
   63.2390   30.5490   48.0200 H   0  0  0  0  0  0  0  0  0  0  0  0
   63.2274   30.3294   51.7960 H   0  0  0  0  0  0  0  0  0  0  0  0
   62.9803   28.1388   52.9668 H   0  0  0  0  0  0  0  0  0  0  0  0
   61.4200   26.4087   52.0684 H   0  0  0  0  0  0  0  0  0  0  0  0
   60.1224   26.8597   49.9827 H   0  0  0  0  0  0  0  0  0  0  0  0
   60.3675   29.0477   48.8064 H   0  0  0  0  0  0  0  0  0  0  0  0
   60.5447   32.8595   52.8151 H   0  0  0  0  0  0  0  0  0  0  0  0
   60.9466   34.1452   51.6355 H   0  0  0  0  0  0  0  0  0  0  0  0
   58.8138   34.5957   52.9178 H   0  0  0  0  0  0  0  0  0  0  0  0
   58.5674   34.4910   51.1340 H   0  0  0  0  0  0  0  0  0  0  0  0
   57.0047   31.3392   51.2025 H   0  0  0  0  0  0  0  0  0  0  0  0
   57.5694   32.7387   50.2073 H   0  0  0  0  0  0  0  0  0  0  0  0
   59.3083   30.6255   51.5844 H   0  0  0  0  0  0  0  0  0  0  0  0
   59.0869   30.8670   49.8221 H   0  0  0  0  0  0  0  0  0  0  0  0
  1  2  1  0
  2  3  1  0
  3  4  2  0
  4  5  1  0
  5  6  2  0
  6  7  1  0
  7  8  2  0
  8  9  1  0
  9 10  1  0
 10 11  1  0
 11 12  1  0
 12 13  1  0
 13 14  1  0
 14 15  1  0
 15 16  1  0
 16 17  1  0
 16 18  2  0
 18 19  1  0
 19 20  1  0
 20 21  2  0
 21 22  1  0
 22 23  2  0
 23 24  1  0
 24 25  2  0
 19 26  1  0
 26 27  1  0
 27 28  1  0
 28 29  1  0
 29 30  1  0
 30 31  1  0
 31 32  1  0
  8  3  1  0
 26 15  2  0
 32 27  1  0
 12  7  1  0
 25 20  1  0
  1 33  1  0
  1 34  1  0
  1 35  1  0
  4 36  1  0
  5 37  1  0
  6 38  1  0
  9 39  1  0
  9 40  1  0
 10 41  1  0
 10 42  1  0
 11 43  1  0
 11 44  1  0
 12 45  1  1
 13 46  1  0
 14 47  1  0
 14 48  1  0
 17 49  1  0
 17 50  1  0
 17 51  1  0
 18 52  1  0
 21 53  1  0
 22 54  1  0
 23 55  1  0
 24 56  1  0
 25 57  1  0
 28 58  1  0
 28 59  1  0
 29 60  1  0
 29 61  1  0
 31 62  1  0
 31 63  1  0
 32 64  1  0
 32 65  1  0
M  CHG  1  18   1
M  END
>  <UniqueID>  (20) 
18

>  <SMILES>  (20) 
COc1cccc2c1CCC[C@@H]2NCc1c(C)[nH+]n(-c2ccccc2)c1N1CCOCC1

>  <Energy>  (20) 
121.20314675523186

>  <Genealogy>  (20) 
COc1cccc2c1CCCC2NCc1c(C)[nH+]n(-c2ccccc2)c1N1CCOCC1 (protonated)
COc1cccc2c1CCC[C@@H]2NCc1c(C)[nH+]n(-c2ccccc2)c1N1CCOCC1 (chirality)
COc1cccc2c1CCC[C@@H]2NCc1c(C)[nH+]n(-c2ccccc2)c1N1CCOCC1 (3D coordinates assigned)
COc1cccc2c1CCC[C@@H]2NCc1c(C)[nH+]n(-c2ccccc2)c1N1CCOCC1 (nonaromatic ring conformer: 121.20314675523186 kcal/mol)

>  <smiles>  (20) 
COc1cccc2c1CCCC2NCc1c(C)nn(-c2ccccc2)c1N1CCOCC1

>  <score_type>  (20) 
oracle

>  <origin>  (20) 
adg

>  <m_score__min__energy>  (20) 
-7.96

>  <m_primary>  (20) 
energy

$$$$
20:0
     RDKit          3D

 45 47  0  0  0  0  0  0  0  0999 V2000
   65.2860   32.8950   49.7840 C   0  0  0  0  0  0  0  0  0  0  0  0
   64.3230   32.0490   49.1630 O   0  0  0  0  0  0  0  0  0  0  0  0
   63.2820   32.5030   48.3410 C   0  0  0  0  0  0  0  0  0  0  0  0
   63.5880   33.4130   47.3240 C   0  0  0  0  0  0  0  0  0  0  0  0
   62.5880   33.8930   46.4770 C   0  0  0  0  0  0  0  0  0  0  0  0
   61.2680   33.4680   46.6400 C   0  0  0  0  0  0  0  0  0  0  0  0
   60.9340   32.5580   47.6560 C   0  0  0  0  0  0  0  0  0  0  0  0
   59.5690   32.1200   47.8280 N   0  0  0  0  0  0  0  0  0  0  0  0
   59.1560   31.4490   49.0700 C   0  0  0  0  0  0  0  0  0  0  0  0
   59.2770   29.9190   48.9780 C   0  0  0  0  0  0  0  0  0  0  0  0
   59.7150   29.4510   47.5830 C   0  0  0  0  0  0  0  0  0  0  0  0
   58.7120   29.7610   46.5540 N   0  0  0  0  0  0  0  0  0  0  0  0
   57.9970   28.8840   45.8170 C   0  0  0  0  0  0  0  0  0  0  0  0
   58.1870   27.3970   45.8200 C   0  0  0  0  0  0  0  0  0  0  0  0
   57.1970   26.7750   44.9390 N   0  0  0  0  0  0  0  0  0  0  0  0
   56.1640   25.7200   45.8550 S   0  0  0  0  0  0  0  0  0  0  0  0
   56.0060   24.1360   45.0540 C   0  0  0  0  0  0  0  0  0  0  0  0
   54.8030   26.3420   46.0030 O   0  0  0  0  0  0  0  0  0  0  0  0
   56.7600   25.5160   47.2170 O   0  0  0  0  0  0  0  0  0  0  0  0
   57.1000   29.5100   45.0310 N   0  0  0  0  0  0  0  0  0  0  0  0
   57.2080   30.8070   45.2810 N   0  0  0  0  0  0  0  0  0  0  0  0
   58.1670   30.9510   46.2150 C   0  0  0  0  0  0  0  0  0  0  0  0
   58.5990   32.2880   46.7400 C   0  0  0  0  0  0  0  0  0  0  0  0
   61.9490   32.0760   48.5040 C   0  0  0  0  0  0  0  0  0  0  0  0
   65.1942   32.8144   50.8772 H   0  0  0  0  0  0  0  0  0  0  0  0
   66.2965   32.5872   49.4772 H   0  0  0  0  0  0  0  0  0  0  0  0
   65.1110   33.9368   49.4772 H   0  0  0  0  0  0  0  0  0  0  0  0
   64.6255   33.7532   47.1906 H   0  0  0  0  0  0  0  0  0  0  0  0
   62.8402   34.6075   45.6795 H   0  0  0  0  0  0  0  0  0  0  0  0
   60.4846   33.8485   45.9681 H   0  0  0  0  0  0  0  0  0  0  0  0
   59.7937   31.8049   49.8926 H   0  0  0  0  0  0  0  0  0  0  0  0
   58.0977   31.6917   49.2462 H   0  0  0  0  0  0  0  0  0  0  0  0
   60.0195   29.5781   49.7146 H   0  0  0  0  0  0  0  0  0  0  0  0
   58.2842   29.4906   49.1798 H   0  0  0  0  0  0  0  0  0  0  0  0
   60.6583   29.9524   47.3209 H   0  0  0  0  0  0  0  0  0  0  0  0
   59.8387   28.3585   47.6163 H   0  0  0  0  0  0  0  0  0  0  0  0
   59.1988   27.1562   45.4618 H   0  0  0  0  0  0  0  0  0  0  0  0
   58.0584   27.0138   46.8430 H   0  0  0  0  0  0  0  0  0  0  0  0
   56.5910   27.5310   44.5440 H   0  0  0  0  0  0  0  0  0  0  0  0
   55.9272   23.3462   45.8156 H   0  0  0  0  0  0  0  0  0  0  0  0
   55.1029   24.1312   44.4260 H   0  0  0  0  0  0  0  0  0  0  0  0
   56.8903   23.9529   44.4260 H   0  0  0  0  0  0  0  0  0  0  0  0
   59.0631   32.8644   45.9262 H   0  0  0  0  0  0  0  0  0  0  0  0
   57.7181   32.8219   47.1260 H   0  0  0  0  0  0  0  0  0  0  0  0
   61.6994   31.3599   49.3008 H   0  0  0  0  0  0  0  0  0  0  0  0
  1  2  1  0
  2  3  1  0
  3  4  2  0
  4  5  1  0
  5  6  2  0
  6  7  1  0
  7  8  1  0
  8  9  1  0
  9 10  1  0
 10 11  1  0
 11 12  1  0
 12 13  1  0
 13 14  1  0
 14 15  1  0
 15 16  1  0
 16 17  1  0
 16 18  2  0
 16 19  2  0
 13 20  2  0
 20 21  1  0
 21 22  2  0
 22 23  1  0
  7 24  2  0
 24  3  1  0
 23  8  1  0
 22 12  1  0
  1 25  1  0
  1 26  1  0
  1 27  1  0
  4 28  1  0
  5 29  1  0
  6 30  1  0
  9 31  1  0
  9 32  1  0
 10 33  1  0
 10 34  1  0
 11 35  1  0
 11 36  1  0
 14 37  1  0
 14 38  1  0
 15 39  1  0
 17 40  1  0
 17 41  1  0
 17 42  1  0
 23 43  1  0
 23 44  1  0
 24 45  1  0
M  END
>  <UniqueID>  (21) 
19

>  <SMILES>  (21) 
COc1cccc(N2CCCn3c(CNS(C)(=O)=O)nnc3C2)c1

>  <Energy>  (21) 
76.95900924763652

>  <Genealogy>  (21) 
COc1cccc(N2CCCn3c(CNS(C)(=O)=O)nnc3C2)c1 (3D coordinates assigned)
COc1cccc(N2CCCn3c(CNS(C)(=O)=O)nnc3C2)c1 (nonaromatic ring conformer: 76.95900924763652 kcal/mol)

>  <smiles>  (21) 
COc1cccc(N2CCCn3c(CNS(C)(=O)=O)nnc3C2)c1

>  <score_type>  (21) 
oracle

>  <origin>  (21) 
adg

>  <m_score__min__energy>  (21) 
-6.3499999999999996

>  <m_primary>  (21) 
energy

$$$$
21:0
     RDKit          3D

 52 53  0  0  0  0  0  0  0  0999 V2000
   65.6180   31.4450   50.8640 C   0  0  0  0  0  0  0  0  0  0  0  0
   65.8880   32.7190   50.0640 C   0  0  0  0  0  0  0  0  0  0  0  0
   64.5980   33.4220   49.6270 C   0  0  0  0  0  0  0  0  0  0  0  0
   63.6870   32.5040   48.8670 C   0  0  0  0  0  0  0  0  0  0  0  0
   62.6560   31.8330   49.4220 N   0  0  0  0  0  0  0  0  0  0  0  0
   62.1550   31.1760   48.3510 C   0  0  0  0  0  0  0  0  0  0  0  0
   60.9520   30.2890   48.3840 C   0  0  0  0  0  0  0  0  0  0  0  0
   59.9850   30.6890   47.3350 N   0  0  0  0  0  0  0  0  0  0  0  0
   58.7660   31.3620   47.8550 C   0  0  0  0  0  0  0  0  0  0  0  0
   58.8970   32.8780   48.1740 C   0  0  0  0  0  0  0  0  0  0  0  0
   58.3600   33.8500   47.0940 C   0  0  0  0  0  0  0  0  0  0  0  0
   59.3980   34.5540   46.3050 N   0  0  0  0  0  0  0  0  0  0  0  0
   59.0990   34.5940   44.8640 C   0  0  0  0  0  0  0  0  0  0  0  0
   60.7610   34.0660   46.5590 C   0  0  0  0  0  0  0  0  0  0  0  0
   59.7240   29.6440   46.3230 C   0  0  0  0  0  0  0  0  0  0  0  0
   58.5740   30.0340   45.4330 C   0  0  0  0  0  0  0  0  0  0  0  0
   58.7090   31.1150   44.5450 C   0  0  0  0  0  0  0  0  0  0  0  0
   57.6480   31.4790   43.7100 C   0  0  0  0  0  0  0  0  0  0  0  0
   56.4510   30.7570   43.7450 C   0  0  0  0  0  0  0  0  0  0  0  0
   56.3120   29.6720   44.6150 C   0  0  0  0  0  0  0  0  0  0  0  0
   55.1530   28.9690   44.6410 F   0  0  0  0  0  0  0  0  0  0  0  0
   57.3690   29.3110   45.4590 C   0  0  0  0  0  0  0  0  0  0  0  0
   62.8300   31.4440   47.2570 O   0  0  0  0  0  0  0  0  0  0  0  0
   63.7900   32.2640   47.5480 N   0  0  0  0  0  0  0  0  0  0  0  0
   65.6658   31.6704   51.9396 H   0  0  0  0  0  0  0  0  0  0  0  0
   64.6183   31.0600   50.6141 H   0  0  0  0  0  0  0  0  0  0  0  0
   66.3756   30.6876   50.6141 H   0  0  0  0  0  0  0  0  0  0  0  0
   66.4725   33.4106   50.6886 H   0  0  0  0  0  0  0  0  0  0  0  0
   66.4372   32.4328   49.1549 H   0  0  0  0  0  0  0  0  0  0  0  0
   64.0707   33.7847   50.5217 H   0  0  0  0  0  0  0  0  0  0  0  0
   64.8732   34.2541   48.9623 H   0  0  0  0  0  0  0  0  0  0  0  0
   61.2643   29.2485   48.2111 H   0  0  0  0  0  0  0  0  0  0  0  0
   60.4686   30.3806   49.3678 H   0  0  0  0  0  0  0  0  0  0  0  0
   57.9724   31.2456   47.1022 H   0  0  0  0  0  0  0  0  0  0  0  0
   58.5532   30.8775   48.8193 H   0  0  0  0  0  0  0  0  0  0  0  0
   58.3470   33.0741   49.1062 H   0  0  0  0  0  0  0  0  0  0  0  0
   59.9774   33.0745   48.2377 H   0  0  0  0  0  0  0  0  0  0  0  0
   57.7362   33.2721   46.3963 H   0  0  0  0  0  0  0  0  0  0  0  0
   57.8065   34.6314   47.6354 H   0  0  0  0  0  0  0  0  0  0  0  0
   58.0184   34.7386   44.7176 H   0  0  0  0  0  0  0  0  0  0  0  0
   59.6467   35.4269   44.3989 H   0  0  0  0  0  0  0  0  0  0  0  0
   59.4085   33.6464   44.3989 H   0  0  0  0  0  0  0  0  0  0  0  0
   60.9323   34.0047   47.6438 H   0  0  0  0  0  0  0  0  0  0  0  0
   60.8826   33.0685   46.1116 H   0  0  0  0  0  0  0  0  0  0  0  0
   61.4881   34.7596   46.1116 H   0  0  0  0  0  0  0  0  0  0  0  0
   60.6251   29.5056   45.7074 H   0  0  0  0  0  0  0  0  0  0  0  0
   59.4659   28.7089   46.8416 H   0  0  0  0  0  0  0  0  0  0  0  0
   59.6536   31.6773   44.5067 H   0  0  0  0  0  0  0  0  0  0  0  0
   57.7550   32.3334   43.0255 H   0  0  0  0  0  0  0  0  0  0  0  0
   55.6175   31.0434   43.0868 H   0  0  0  0  0  0  0  0  0  0  0  0
   57.2560   28.4585   46.1449 H   0  0  0  0  0  0  0  0  0  0  0  0
   64.4850   32.6540   46.8730 H   0  0  0  0  0  0  0  0  0  0  0  0
  1  2  1  0
  2  3  1  0
  3  4  1  0
  4  5  1  0
  5  6  2  0
  6  7  1  0
  7  8  1  0
  8  9  1  0
  9 10  1  0
 10 11  1  0
 11 12  1  0
 12 13  1  0
 12 14  1  0
  8 15  1  0
 15 16  1  0
 16 17  2  0
 17 18  1  0
 18 19  2  0
 19 20  1  0
 20 21  1  0
 20 22  2  0
  6 23  1  0
 23 24  1  0
 24  4  2  0
 22 16  1  0
  1 25  1  0
  1 26  1  0
  1 27  1  0
  2 28  1  0
  2 29  1  0
  3 30  1  0
  3 31  1  0
  7 32  1  0
  7 33  1  0
  9 34  1  0
  9 35  1  0
 10 36  1  0
 10 37  1  0
 11 38  1  0
 11 39  1  0
 13 40  1  0
 13 41  1  0
 13 42  1  0
 14 43  1  0
 14 44  1  0
 14 45  1  0
 15 46  1  0
 15 47  1  0
 17 48  1  0
 18 49  1  0
 19 50  1  0
 22 51  1  0
 24 52  1  0
M  CHG  1  24   1
M  END
>  <UniqueID>  (22) 
20

>  <SMILES>  (22) 
CCCc1nc(CN(CCCN(C)C)Cc2cccc(F)c2)o[nH+]1

>  <Energy>  (22) 
89.95211662527949

>  <Genealogy>  (22) 
CCCc1nc(CN(CCCN(C)C)Cc2cccc(F)c2)o[nH+]1 (protonated)
CCCc1nc(CN(CCCN(C)C)Cc2cccc(F)c2)o[nH+]1 (3D coordinates assigned)
CCCc1nc(CN(CCCN(C)C)Cc2cccc(F)c2)o[nH+]1 (optimized conformer: 89.95211662527949 kcal/mol)

>  <smiles>  (22) 
CCCc1noc(CN(CCCN(C)C)Cc2cccc(F)c2)n1

>  <score_type>  (22) 
oracle

>  <origin>  (22) 
adg

>  <m_score__min__energy>  (22) 
-5.8499999999999996

>  <m_primary>  (22) 
energy

$$$$
22:0
     RDKit          3D

 27 29  0  0  0  0  0  0  0  0999 V2000
   60.6117   25.5210   47.0990 H   0  0  0  0  0  0  0  0  0  0  0  0
   60.0450   26.3240   46.6050 C   0  0  0  0  0  0  0  0  0  0  0  0
   60.7050   27.3660   46.0370 N   0  0  0  0  0  0  0  0  0  0  0  0
   60.0470   28.3800   45.4180 C   0  0  0  0  0  0  0  0  0  0  0  0
   60.6136   29.2088   44.9685 H   0  0  0  0  0  0  0  0  0  0  0  0
   58.6470   28.3720   45.3510 C   0  0  0  0  0  0  0  0  0  0  0  0
   57.9530   29.4100   44.7190 C   0  0  0  0  0  0  0  0  0  0  0  0
   58.5013   30.2462   44.2606 H   0  0  0  0  0  0  0  0  0  0  0  0
   56.5610   29.3740   44.6760 C   0  0  0  0  0  0  0  0  0  0  0  0
   56.0059   30.1864   44.1842 H   0  0  0  0  0  0  0  0  0  0  0  0
   55.8880   28.3380   45.2400 N   0  0  0  0  0  0  0  0  0  0  0  0
   56.5210   27.2990   45.8550 C   0  0  0  0  0  0  0  0  0  0  0  0
   55.8350   26.3340   46.4040 N   0  0  0  0  0  0  0  0  0  0  0  0
   55.9190   24.9310   46.1020 C   0  0  0  0  0  0  0  0  0  0  0  0
   55.9810   24.0170   47.1620 C   0  0  0  0  0  0  0  0  0  0  0  0
   55.9389   24.3796   48.1997 H   0  0  0  0  0  0  0  0  0  0  0  0
   56.0960   22.6470   46.9090 C   0  0  0  0  0  0  0  0  0  0  0  0
   56.1259   21.9350   47.7469 H   0  0  0  0  0  0  0  0  0  0  0  0
   56.1730   22.1800   45.5950 C   0  0  0  0  0  0  0  0  0  0  0  0
   56.2870   20.8480   45.3610 F   0  0  0  0  0  0  0  0  0  0  0  0
   56.1450   23.0860   44.5270 C   0  0  0  0  0  0  0  0  0  0  0  0
   56.2720   22.5120   42.8730 Cl  0  0  0  0  0  0  0  0  0  0  0  0
   56.0280   24.4580   44.7790 C   0  0  0  0  0  0  0  0  0  0  0  0
   56.0211   25.1701   43.9406 H   0  0  0  0  0  0  0  0  0  0  0  0
   57.9320   27.2990   45.9330 C   0  0  0  0  0  0  0  0  0  0  0  0
   58.6510   26.2670   46.5650 C   0  0  0  0  0  0  0  0  0  0  0  0
   58.1179   25.4214   47.0242 H   0  0  0  0  0  0  0  0  0  0  0  0
  1  2  1  0
  2  3  2  0
  3  4  1  0
  4  5  1  0
  4  6  2  0
  6  7  1  0
  7  8  1  0
  7  9  2  0
  9 10  1  0
  9 11  1  0
 11 12  1  0
 12 13  2  0
 13 14  1  0
 14 15  2  0
 15 16  1  0
 15 17  1  0
 17 18  1  0
 17 19  2  0
 19 20  1  0
 19 21  1  0
 21 22  1  0
 21 23  2  0
 23 24  1  0
 12 25  1  0
 25 26  2  0
 26 27  1  0
 26  2  1  0
 25  6  1  0
 23 14  1  0
M  CHG  1  11  -1
M  END
>  <UniqueID>  (23) 
21

>  <SMILES>  (23) 
Fc1ccc(/N=c2\[n-]ccc3cnccc23)cc1Cl

>  <Energy>  (23) 
42.803961441618334

>  <Genealogy>  (23) 
Fc1ccc(N=c2[n-]ccc3cnccc23)cc1Cl (protonated)
Fc1ccc(/N=c2\[n-]ccc3cnccc23)cc1Cl (cis-trans isomerization)
Fc1ccc(/N=c2\[n-]ccc3cnccc23)cc1Cl (3D coordinates assigned)
Fc1ccc(/N=c2\[n-]ccc3cnccc23)cc1Cl (optimized conformer: 42.803961441618334 kcal/mol)

>  <smiles>  (23) 
Fc1ccc(N=c2[nH]ccc3cnccc23)cc1Cl

>  <score_type>  (23) 
oracle

>  <origin>  (23) 
adg

>  <m_score__min__energy>  (23) 
-8.3900000000000006

>  <m_primary>  (23) 
energy

$$$$
23:0
     RDKit          3D

 31 33  0  0  0  0  0  0  0  0999 V2000
   60.6340   28.7530   48.7510 C   0  0  0  0  0  0  0  0  0  0  0  0
   59.6220   28.8640   47.6530 C   0  0  0  0  0  0  0  0  0  0  0  0
   58.8580   27.8440   47.0900 C   0  0  0  0  0  0  0  0  0  0  0  0
   58.9140   26.3980   47.4950 C   0  0  0  0  0  0  0  0  0  0  0  0
   58.0460   28.3390   46.1130 N   0  0  0  0  0  0  0  0  0  0  0  0
   57.1010   27.5720   45.2980 C   0  0  0  0  0  0  0  0  0  0  0  0
   58.2940   29.6740   46.0560 C   0  0  0  0  0  0  0  0  0  0  0  0
   57.7280   30.6600   45.2220 C   0  0  0  0  0  0  0  0  0  0  0  0
   56.7220   30.3450   44.2330 C   0  0  0  0  0  0  0  0  0  0  0  0
   55.9130   30.0910   43.4470 N   0  0  0  0  0  0  0  0  0  0  0  0
   58.1910   31.9860   45.3940 C   0  0  0  0  0  0  0  0  0  0  0  0
   57.7260   33.0760   44.6400 C   0  0  0  0  0  0  0  0  0  0  0  0
   58.2340   34.3590   44.8700 C   0  0  0  0  0  0  0  0  0  0  0  0
   59.2110   34.5900   45.8490 C   0  0  0  0  0  0  0  0  0  0  0  0
   59.6470   35.7590   46.0290 O   0  0  0  0  0  0  0  0  0  0  0  0
   59.7090   33.5390   46.6270 C   0  0  0  0  0  0  0  0  0  0  0  0
   59.2350   32.2420   46.4370 C   0  0  0  0  0  0  0  0  0  0  0  0
   59.7040   31.2390   47.1720 O   0  0  0  0  0  0  0  0  0  0  0  0
   59.2510   30.0080   46.9880 C   0  0  0  0  0  0  0  0  0  0  0  0
   60.1259   28.8087   49.7250 H   0  0  0  0  0  0  0  0  0  0  0  0
   61.1619   27.7916   48.6673 H   0  0  0  0  0  0  0  0  0  0  0  0
   61.3577   29.5772   48.6673 H   0  0  0  0  0  0  0  0  0  0  0  0
   58.9168   26.3245   48.5925 H   0  0  0  0  0  0  0  0  0  0  0  0
   58.0356   25.8708   47.0945 H   0  0  0  0  0  0  0  0  0  0  0  0
   59.8305   25.9403   47.0945 H   0  0  0  0  0  0  0  0  0  0  0  0
   56.4164   27.0164   45.9557 H   0  0  0  0  0  0  0  0  0  0  0  0
   56.5225   28.2592   44.6631 H   0  0  0  0  0  0  0  0  0  0  0  0
   57.6545   26.8645   44.6631 H   0  0  0  0  0  0  0  0  0  0  0  0
   56.9599   32.9203   43.8661 H   0  0  0  0  0  0  0  0  0  0  0  0
   57.8599   35.2027   44.2715 H   0  0  0  0  0  0  0  0  0  0  0  0
   60.4762   33.7367   47.3901 H   0  0  0  0  0  0  0  0  0  0  0  0
  1  2  1  0
  2  3  2  0
  3  4  1  0
  3  5  1  0
  5  6  1  0
  5  7  1  0
  7  8  1  0
  8  9  1  0
  9 10  3  0
  8 11  2  0
 11 12  1  0
 12 13  2  0
 13 14  1  0
 14 15  2  0
 14 16  1  0
 16 17  2  0
 17 18  1  0
 18 19  1  0
 19  2  1  0
 19  7  2  0
 17 11  1  0
  1 20  1  0
  1 21  1  0
  1 22  1  0
  4 23  1  0
  4 24  1  0
  4 25  1  0
  6 26  1  0
  6 27  1  0
  6 28  1  0
 12 29  1  0
 13 30  1  0
 16 31  1  0
M  END
>  <UniqueID>  (24) 
22

>  <SMILES>  (24) 
Cc1c(C)n(C)c2c(C#N)c3ccc(=O)cc-3oc12

>  <Energy>  (24) 
71.10339073598334

>  <Genealogy>  (24) 
Cc1c(C)n(C)c2c(C#N)c3ccc(=O)cc-3oc12 (3D coordinates assigned)
Cc1c(C)n(C)c2c(C#N)c3ccc(=O)cc-3oc12 (optimized conformer: 71.10339073598334 kcal/mol)

>  <smiles>  (24) 
Cc1c(C)n(C)c2c(C#N)c3ccc(=O)cc-3oc12

>  <score_type>  (24) 
oracle

>  <origin>  (24) 
adg

>  <m_score__min__energy>  (24) 
-6.2300000000000004

>  <m_primary>  (24) 
energy

$$$$
24:0
     RDKit          3D

 36 37  0  0  0  0  0  0  0  0999 V2000
   57.1300   31.0400   43.6130 C   0  0  0  0  0  0  0  0  0  0  0  0
   57.0580   31.5020   45.0030 N   0  0  0  0  0  0  0  0  0  0  0  0
   57.3820   32.9420   45.1250 C   0  0  2  0  0  0  0  0  0  0  0  0
   58.7790   33.2220   44.5090 C   0  0  0  0  0  0  0  0  0  0  0  0
   59.6390   34.1970   45.3300 C   0  0  0  0  0  0  0  0  0  0  0  0
   60.2530   33.5320   46.5710 C   0  0  0  0  0  0  0  0  0  0  0  0
   59.4550   32.3950   47.0520 N   0  0  0  0  0  0  0  0  0  0  0  0
   60.1130   31.1380   47.2990 C   0  0  0  0  0  0  0  0  0  0  0  0
   60.8790   31.0240   48.2940 O   0  0  0  0  0  0  0  0  0  0  0  0
   59.9090   29.9750   46.4140 C   0  0  0  0  0  0  0  0  0  0  0  0
   60.9210   29.5150   45.5560 C   0  0  0  0  0  0  0  0  0  0  0  0
   60.6830   28.4470   44.7470 N   0  0  0  0  0  0  0  0  0  0  0  0
   59.4770   27.8190   44.7500 C   0  0  0  0  0  0  0  0  0  0  0  0
   58.4650   28.2810   45.5900 C   0  0  0  0  0  0  0  0  0  0  0  0
   58.7010   29.3470   46.3990 N   0  0  0  0  0  0  0  0  0  0  0  0
   58.1100   32.6140   47.6040 C   0  0  0  0  0  0  0  0  0  0  0  0
   57.2460   33.3940   46.6050 C   0  0  0  0  0  0  0  0  0  0  0  0
   57.2994   29.9532   43.5961 H   0  0  0  0  0  0  0  0  0  0  0  0
   56.1849   31.2718   43.1001 H   0  0  0  0  0  0  0  0  0  0  0  0
   57.9598   31.5484   43.1001 H   0  0  0  0  0  0  0  0  0  0  0  0
   57.7760   30.9490   45.5260 H   0  0  0  0  0  0  0  0  0  0  0  0
   56.6642   33.5477   44.5525 H   0  0  0  0  0  0  0  0  0  0  0  0
   59.3194   32.2673   44.4284 H   0  0  0  0  0  0  0  0  0  0  0  0
   58.6072   33.6946   43.5307 H   0  0  0  0  0  0  0  0  0  0  0  0
   60.4521   34.5742   44.6923 H   0  0  0  0  0  0  0  0  0  0  0  0
   58.9862   35.0126   45.6743 H   0  0  0  0  0  0  0  0  0  0  0  0
   61.2612   33.1731   46.3167 H   0  0  0  0  0  0  0  0  0  0  0  0
   60.2823   34.2837   47.3736 H   0  0  0  0  0  0  0  0  0  0  0  0
   61.9006   30.0151   45.5380 H   0  0  0  0  0  0  0  0  0  0  0  0
   61.4380   28.1060   44.1110 H   0  0  0  0  0  0  0  0  0  0  0  0
   59.3013   26.9531   44.0947 H   0  0  0  0  0  0  0  0  0  0  0  0
   57.4826   27.7863   45.5979 H   0  0  0  0  0  0  0  0  0  0  0  0
   57.6390   31.6413   47.8093 H   0  0  0  0  0  0  0  0  0  0  0  0
   58.1948   33.1950   48.5342 H   0  0  0  0  0  0  0  0  0  0  0  0
   56.1931   33.2782   46.9016 H   0  0  0  0  0  0  0  0  0  0  0  0
   57.5986   34.4353   46.6416 H   0  0  0  0  0  0  0  0  0  0  0  0
  1  2  1  0
  2  3  1  0
  3  4  1  0
  4  5  1  0
  5  6  1  0
  6  7  1  0
  7  8  1  0
  8  9  2  0
  8 10  1  0
 10 11  2  0
 11 12  1  0
 12 13  2  0
 13 14  1  0
 14 15  2  0
  7 16  1  0
 16 17  1  0
 17  3  1  0
 15 10  1  0
  1 18  1  0
  1 19  1  0
  1 20  1  0
  2 21  1  0
  3 22  1  6
  4 23  1  0
  4 24  1  0
  5 25  1  0
  5 26  1  0
  6 27  1  0
  6 28  1  0
 11 29  1  0
 12 30  1  0
 13 31  1  0
 14 32  1  0
 16 33  1  0
 16 34  1  0
 17 35  1  0
 17 36  1  0
M  CHG  1  12   1
M  END
>  <UniqueID>  (25) 
23

>  <SMILES>  (25) 
CN[C@@H]1CCCN(C(=O)c2c[nH+]ccn2)CC1

>  <Energy>  (25) 
44.42470697918416

>  <Genealogy>  (25) 
CNC1CCCN(C(=O)c2c[nH+]ccn2)CC1 (protonated)
CN[C@@H]1CCCN(C(=O)c2c[nH+]ccn2)CC1 (chirality)
CN[C@@H]1CCCN(C(=O)c2c[nH+]ccn2)CC1 (3D coordinates assigned)
CN[C@@H]1CCCN(C(=O)c2c[nH+]ccn2)CC1 (nonaromatic ring conformer: 44.42470697918416 kcal/mol)

>  <smiles>  (25) 
CNC1CCCN(C(=O)c2cnccn2)CC1

>  <score_type>  (25) 
oracle

>  <origin>  (25) 
adg

>  <m_score__min__energy>  (25) 
-3.4900000000000002

>  <m_primary>  (25) 
energy

$$$$
25:0
     RDKit          3D

 35 38  0  0  0  0  0  0  0  0999 V2000
   56.9890   24.1860   47.5770 C   0  0  0  0  0  0  0  0  0  0  0  0
   58.1320   24.9030   47.1250 O   0  0  0  0  0  0  0  0  0  0  0  0
   58.0840   26.0040   46.2560 C   0  0  0  0  0  0  0  0  0  0  0  0
   57.8120   25.8710   44.8830 C   0  0  0  0  0  0  0  0  0  0  0  0
   57.7750   26.9990   44.0610 C   0  0  0  0  0  0  0  0  0  0  0  0
   58.0080   28.2730   44.5950 C   0  0  0  0  0  0  0  0  0  0  0  0
   58.2800   28.4180   45.9640 C   0  0  0  0  0  0  0  0  0  0  0  0
   58.3160   27.2790   46.7850 C   0  0  0  0  0  0  0  0  0  0  0  0
   58.5360   29.7710   46.5800 C   0  0  0  0  0  0  0  0  0  0  0  0
   58.4790   30.9500   45.6230 C   0  0  0  0  0  0  0  0  0  0  0  0
   58.2010   30.7420   44.2520 C   0  0  0  0  0  0  0  0  0  0  0  0
   58.1480   31.8280   43.3700 C   0  0  0  0  0  0  0  0  0  0  0  0
   58.3670   33.1240   43.8260 C   0  0  0  0  0  0  0  0  0  0  0  0
   58.6460   33.3610   45.1750 C   0  0  0  0  0  0  0  0  0  0  0  0
   58.8660   34.6740   45.6220 C   0  0  0  0  0  0  0  0  0  0  0  0
   59.1450   34.9230   46.9660 C   0  0  0  0  0  0  0  0  0  0  0  0
   59.2050   33.8670   47.8740 C   0  0  0  0  0  0  0  0  0  0  0  0
   58.9880   32.5550   47.4470 C   0  0  0  0  0  0  0  0  0  0  0  0
   58.7050   32.2760   46.0900 C   0  0  0  0  0  0  0  0  0  0  0  0
   57.9680   29.4220   43.7450 N   0  0  0  0  0  0  0  0  0  0  0  0
   56.9735   24.1763   48.6768 H   0  0  0  0  0  0  0  0  0  0  0  0
   56.0777   24.6746   47.2018 H   0  0  0  0  0  0  0  0  0  0  0  0
   57.0322   23.1529   47.2018 H   0  0  0  0  0  0  0  0  0  0  0  0
   57.6277   24.8746   44.4549 H   0  0  0  0  0  0  0  0  0  0  0  0
   57.5616   26.8867   42.9878 H   0  0  0  0  0  0  0  0  0  0  0  0
   58.5294   27.3904   47.8583 H   0  0  0  0  0  0  0  0  0  0  0  0
   57.7813   29.9343   47.3634 H   0  0  0  0  0  0  0  0  0  0  0  0
   59.5689   29.7393   46.9569 H   0  0  0  0  0  0  0  0  0  0  0  0
   57.9310   31.6548   42.3056 H   0  0  0  0  0  0  0  0  0  0  0  0
   58.3203   33.9670   43.1209 H   0  0  0  0  0  0  0  0  0  0  0  0
   58.8181   35.5102   44.9089 H   0  0  0  0  0  0  0  0  0  0  0  0
   59.3178   35.9536   47.3096 H   0  0  0  0  0  0  0  0  0  0  0  0
   59.4245   34.0682   48.9329 H   0  0  0  0  0  0  0  0  0  0  0  0
   59.0377   31.7306   48.1736 H   0  0  0  0  0  0  0  0  0  0  0  0
   57.7630   29.2940   42.7280 H   0  0  0  0  0  0  0  0  0  0  0  0
  1  2  1  0
  2  3  1  0
  3  4  2  0
  4  5  1  0
  5  6  2  0
  6  7  1  0
  7  8  2  0
  7  9  1  0
  9 10  1  0
 10 11  2  0
 11 12  1  0
 12 13  2  0
 13 14  1  0
 14 15  2  0
 15 16  1  0
 16 17  2  0
 17 18  1  0
 18 19  2  0
 11 20  1  0
  8  3  1  0
 19 10  1  0
 20  6  1  0
 19 14  1  0
  1 21  1  0
  1 22  1  0
  1 23  1  0
  4 24  1  0
  5 25  1  0
  8 26  1  0
  9 27  1  0
  9 28  1  0
 12 29  1  0
 13 30  1  0
 15 31  1  0
 16 32  1  0
 17 33  1  0
 18 34  1  0
 20 35  1  0
M  END
>  <UniqueID>  (26) 
24

>  <SMILES>  (26) 
COc1ccc2c(c1)Cc1c(ccc3ccccc13)N2

>  <Energy>  (26) 
47.25507922266121

>  <Genealogy>  (26) 
COc1ccc2c(c1)Cc1c(ccc3ccccc13)N2 (3D coordinates assigned)
COc1ccc2c(c1)Cc1c(ccc3ccccc13)N2 (nonaromatic ring conformer: 47.25507922266121 kcal/mol)

>  <smiles>  (26) 
COc1ccc2c(c1)Cc1c(ccc3ccccc13)N2

>  <score_type>  (26) 
oracle

>  <origin>  (26) 
adg

>  <m_score__min__energy>  (26) 
-7.2300000000000004

>  <m_primary>  (26) 
energy

$$$$
26:0
     RDKit          3D

 41 42  0  0  1  0  0  0  0  0999 V2000
   62.9960   33.3290   47.2260 C   0  0  0  0  0  0  0  0  0  0  0  0
   61.6990   33.8070   46.6290 C   0  0  0  0  0  0  0  0  0  0  0  0
   60.6310   34.0060   47.5410 N   0  0  0  0  0  0  0  0  0  0  0  0
   60.9670   34.1410   48.8980 C   0  0  0  0  0  0  0  0  0  0  0  0
   59.7410   33.8370   49.7620 C   0  0  0  0  0  0  0  0  0  0  0  0
   59.4480   34.6070   47.0600 C   0  0  0  0  0  0  0  0  0  0  0  0
   59.1110   34.3190   45.6220 C   0  0  0  0  0  0  0  0  0  0  0  0
   58.0810   33.2250   45.5200 C   0  0  0  0  0  0  0  0  0  0  0  0
   57.0500   33.3400   46.2170 O   0  0  0  0  0  0  0  0  0  0  0  0
   58.3390   32.1350   44.6450 N   0  0  0  0  0  0  0  0  0  0  0  0
   57.5990   31.0910   44.7460 C   0  0  0  0  0  0  0  0  0  0  0  0
   57.9810   29.9240   45.3640 C   0  0  0  0  0  0  0  0  0  0  0  0
   57.0820   28.8610   45.4050 C   0  0  0  0  0  0  0  0  0  0  0  0
   57.4010   27.6200   46.0280 N   0  0  0  0  0  0  0  0  0  0  0  0
   58.5710   27.1970   46.5420 C   0  0  0  0  0  0  0  0  0  0  0  0
   58.3880   25.9030   47.0460 C   0  0  0  0  0  0  0  0  0  0  0  0
   57.0820   25.5810   46.8130 C   0  0  0  0  0  0  0  0  0  0  0  0
   56.5290   26.6330   46.2040 N   0  0  0  0  0  0  0  0  0  0  0  0
   55.8510   28.9560   44.8510 N   0  0  0  0  0  0  0  0  0  0  0  0
   55.5120   30.1250   44.2510 C   0  0  0  0  0  0  0  0  0  0  0  0
   56.3710   31.1600   44.2040 N   0  0  0  0  0  0  0  0  0  0  0  0
   62.9260   33.3548   48.3235 H   0  0  0  0  0  0  0  0  0  0  0  0
   63.1942   32.2988   46.8953 H   0  0  0  0  0  0  0  0  0  0  0  0
   63.8153   33.9842   46.8953 H   0  0  0  0  0  0  0  0  0  0  0  0
   61.8936   34.7648   46.1243 H   0  0  0  0  0  0  0  0  0  0  0  0
   61.3681   33.0026   45.9556 H   0  0  0  0  0  0  0  0  0  0  0  0
   61.7745   33.4368   49.1472 H   0  0  0  0  0  0  0  0  0  0  0  0
   61.3042   35.1702   49.0907 H   0  0  0  0  0  0  0  0  0  0  0  0
   60.0156   33.9051   50.8250 H   0  0  0  0  0  0  0  0  0  0  0  0
   58.9469   34.5655   49.5410 H   0  0  0  0  0  0  0  0  0  0  0  0
   59.3793   32.8220   49.5410 H   0  0  0  0  0  0  0  0  0  0  0  0
   58.6119   34.2531   47.6810 H   0  0  0  0  0  0  0  0  0  0  0  0
   59.6167   35.6924   47.1181 H   0  0  0  0  0  0  0  0  0  0  0  0
   58.7136   35.2324   45.1553 H   0  0  0  0  0  0  0  0  0  0  0  0
   60.0251   33.9903   45.1059 H   0  0  0  0  0  0  0  0  0  0  0  0
   58.9787   29.8314   45.8179 H   0  0  0  0  0  0  0  0  0  0  0  0
   59.5100   27.7695   46.5627 H   0  0  0  0  0  0  0  0  0  0  0  0
   59.1460   25.2717   47.5328 H   0  0  0  0  0  0  0  0  0  0  0  0
   56.5818   24.6373   47.0761 H   0  0  0  0  0  0  0  0  0  0  0  0
   55.1530   28.1880   44.8610 H   0  0  0  0  0  0  0  0  0  0  0  0
   54.5166   30.2286   43.7945 H   0  0  0  0  0  0  0  0  0  0  0  0
  1  2  1  0
  2  3  1  0
  3  4  1  0
  4  5  1  0
  3  6  1  0
  6  7  1  0
  7  8  1  0
  8  9  2  0
  8 10  1  0
 10 11  2  0
 11 12  1  0
 12 13  2  0
 13 14  1  0
 14 15  1  0
 15 16  2  0
 16 17  1  0
 17 18  2  0
 13 19  1  0
 19 20  1  0
 20 21  2  0
 21 11  1  0
 18 14  1  0
  1 22  1  0
  1 23  1  0
  1 24  1  0
  2 25  1  0
  2 26  1  0
  4 27  1  0
  4 28  1  0
  5 29  1  0
  5 30  1  0
  5 31  1  0
  6 32  1  0
  6 33  1  0
  7 34  1  0
  7 35  1  0
 12 36  1  0
 15 37  1  0
 16 38  1  0
 17 39  1  0
 19 40  1  0
 20 41  1  0
M  END
>  <smiles>  (27) 
CCN(CC)CCC(=O)N=c1cc(-n2cccn2)[nH]cn1

>  <score_type>  (27) 
oracle

>  <origin>  (27) 
adg

>  <m_score__min__energy>  (27) 
-7.0599999999999996

>  <m_primary>  (27) 
energy

$$$$
27:0
     RDKit          3D

 41 43  0  0  0  0  0  0  0  0999 V2000
   55.5793   24.4160   46.6971 H   0  0  0  0  0  0  0  0  0  0  0  0
   56.2520   25.2450   46.4320 C   0  0  0  0  0  0  0  0  0  0  0  0
   55.7390   26.4250   45.9980 N   0  0  0  0  0  0  0  0  0  0  0  0
   56.5530   27.4650   45.6620 C   0  0  0  0  0  0  0  0  0  0  0  0
   56.0600   28.5900   45.2450 N   0  0  0  0  0  0  0  0  0  0  0  0
   56.9790   29.7870   44.3890 S   0  0  0  0  0  0  0  0  0  0  0  0
   56.0450   30.8200   43.8250 O   0  0  0  0  0  0  0  0  0  0  0  0
   57.7140   29.1330   43.2510 O   0  0  0  0  0  0  0  0  0  0  0  0
   58.1050   30.5740   45.4910 C   0  0  0  0  0  0  0  0  0  0  0  0
   57.7820   31.8230   46.0350 C   0  0  0  0  0  0  0  0  0  0  0  0
   56.8377   32.3142   45.7575 H   0  0  0  0  0  0  0  0  0  0  0  0
   58.6560   32.4480   46.9300 C   0  0  0  0  0  0  0  0  0  0  0  0
   58.3906   33.4252   47.3597 H   0  0  0  0  0  0  0  0  0  0  0  0
   59.8690   31.8380   47.2840 C   0  0  0  0  0  0  0  0  0  0  0  0
   60.7390   32.4890   48.2250 N   0  0  0  0  0  0  0  0  0  0  0  0
   60.3380   32.7670   49.1490 H   0  0  0  0  0  0  0  0  0  0  0  0
   62.0770   32.9140   47.9140 C   0  0  0  0  0  0  0  0  0  0  0  0
   62.4030   33.1200   46.7120 O   0  0  0  0  0  0  0  0  0  0  0  0
   63.0660   33.1650   48.9910 C   0  0  0  0  0  0  0  0  0  0  0  0
   64.3660   32.6300   48.9170 C   0  0  0  0  0  0  0  0  0  0  0  0
   64.6544   32.0117   48.0542 H   0  0  0  0  0  0  0  0  0  0  0  0
   65.2930   32.8800   49.9340 C   0  0  0  0  0  0  0  0  0  0  0  0
   66.3061   32.4564   49.8689 H   0  0  0  0  0  0  0  0  0  0  0  0
   64.9360   33.6660   51.0320 C   0  0  0  0  0  0  0  0  0  0  0  0
   65.8370   33.9060   52.0160 F   0  0  0  0  0  0  0  0  0  0  0  0
   63.6520   34.2090   51.1120 C   0  0  0  0  0  0  0  0  0  0  0  0
   63.3723   34.8316   51.9746 H   0  0  0  0  0  0  0  0  0  0  0  0
   62.7210   33.9630   50.0980 C   0  0  0  0  0  0  0  0  0  0  0  0
   61.7121   34.3961   50.1659 H   0  0  0  0  0  0  0  0  0  0  0  0
   60.1780   30.5730   46.7530 C   0  0  0  0  0  0  0  0  0  0  0  0
   61.1137   30.0721   47.0422 H   0  0  0  0  0  0  0  0  0  0  0  0
   59.3020   29.9480   45.8590 C   0  0  0  0  0  0  0  0  0  0  0  0
   59.5546   28.9612   45.4437 H   0  0  0  0  0  0  0  0  0  0  0  0
   57.9000   27.3240   45.7640 N   0  0  0  0  0  0  0  0  0  0  0  0
   58.4580   26.1590   46.1890 C   0  0  0  0  0  0  0  0  0  0  0  0
   59.9440   26.0400   46.3060 C   0  0  0  0  0  0  0  0  0  0  0  0
   60.2275   26.0173   47.3686 H   0  0  0  0  0  0  0  0  0  0  0  0
   60.2771   25.1123   45.8177 H   0  0  0  0  0  0  0  0  0  0  0  0
   60.4205   26.9029   45.8177 H   0  0  0  0  0  0  0  0  0  0  0  0
   57.6330   25.0860   46.5410 C   0  0  0  0  0  0  0  0  0  0  0  0
   58.0638   24.1381   46.8958 H   0  0  0  0  0  0  0  0  0  0  0  0
  1  2  1  0
  2  3  1  0
  3  4  1  0
  4  5  2  0
  5  6  1  0
  6  7  2  0
  6  8  2  0
  6  9  1  0
  9 10  2  0
 10 11  1  0
 10 12  1  0
 12 13  1  0
 12 14  2  0
 14 15  1  0
 15 16  1  0
 15 17  1  0
 17 18  2  0
 17 19  1  0
 19 20  2  0
 20 21  1  0
 20 22  1  0
 22 23  1  0
 22 24  2  0
 24 25  1  0
 24 26  1  0
 26 27  1  0
 26 28  2  0
 28 29  1  0
 14 30  1  0
 30 31  1  0
 30 32  2  0
 32 33  1  0
  4 34  1  0
 34 35  2  0
 35 36  1  0
 36 37  1  0
 36 38  1  0
 36 39  1  0
 35 40  1  0
 40 41  1  0
 40  2  2  0
 32  9  1  0
 28 19  1  0
M  CHG  1   3  -1
M  END
>  <UniqueID>  (28) 
25

>  <SMILES>  (28) 
Cc1cc[n-]/c(=N\S(=O)(=O)c2ccc(NC(=O)c3ccc(F)cc3)cc2)n1

>  <Energy>  (28) 
51.99892432563405

>  <Genealogy>  (28) 
Cc1cc[n-]c(=NS(=O)(=O)c2ccc(NC(=O)c3ccc(F)cc3)cc2)n1 (protonated)
Cc1cc[n-]/c(=N\S(=O)(=O)c2ccc(NC(=O)c3ccc(F)cc3)cc2)n1 (cis-trans isomerization)
Cc1cc[n-]/c(=N\S(=O)(=O)c2ccc(NC(=O)c3ccc(F)cc3)cc2)n1 (3D coordinates assigned)
Cc1cc[n-]/c(=N\S(=O)(=O)c2ccc(NC(=O)c3ccc(F)cc3)cc2)n1 (optimized conformer: 51.99892432563405 kcal/mol)

>  <smiles>  (28) 
Cc1cc[nH]c(=NS(=O)(=O)c2ccc(NC(=O)c3ccc(F)cc3)cc2)n1

>  <score_type>  (28) 
oracle

>  <origin>  (28) 
adg

>  <m_score__min__energy>  (28) 
-9.5999999999999996

>  <m_primary>  (28) 
energy

$$$$
28:0
     RDKit          3D

 46 49  0  0  0  0  0  0  0  0999 V2000
   55.5130   26.0230   47.3070 H   0  0  0  0  0  0  0  0  0  0  0  0
   55.9300   25.9740   46.3550 N   0  0  0  0  0  0  0  0  0  0  0  0
   57.0390   25.3660   46.0700 C   0  0  0  0  0  0  0  0  0  0  0  0
   57.1350   24.1690   45.4070 C   0  0  0  0  0  0  0  0  0  0  0  0
   56.3300   23.2120   44.7960 C   0  0  0  0  0  0  0  0  0  0  0  0
   54.8440   23.3220   44.6390 C   0  0  0  0  0  0  0  0  0  0  0  0
   54.3720   23.3569   45.6320 H   0  0  0  0  0  0  0  0  0  0  0  0
   54.6008   24.2406   44.0849 H   0  0  0  0  0  0  0  0  0  0  0  0
   54.4682   22.4492   44.0849 H   0  0  0  0  0  0  0  0  0  0  0  0
   57.1340   22.1750   44.2740 C   0  0  0  0  0  0  0  0  0  0  0  0
   56.6320   20.9750   43.5390 C   0  0  0  0  0  0  0  0  0  0  0  0
   56.3119   20.2098   44.2615 H   0  0  0  0  0  0  0  0  0  0  0  0
   55.7787   21.2625   42.9072 H   0  0  0  0  0  0  0  0  0  0  0  0
   57.4358   20.5692   42.9072 H   0  0  0  0  0  0  0  0  0  0  0  0
   58.7920   22.4560   44.6250 S   0  0  0  0  0  0  0  0  0  0  0  0
   58.4420   23.8950   45.4010 C   0  0  0  0  0  0  0  0  0  0  0  0
   59.1790   24.8360   46.0110 N   0  0  0  0  0  0  0  0  0  0  0  0
   58.3040   25.7570   46.4250 N   0  0  0  0  0  0  0  0  0  0  0  0
   58.7270   26.9490   47.1070 C   0  0  0  0  0  0  0  0  0  0  0  0
   58.4320   28.1820   46.6160 N   0  0  0  0  0  0  0  0  0  0  0  0
   58.8510   29.3220   47.2290 C   0  0  0  0  0  0  0  0  0  0  0  0
   58.4910   30.6380   46.6380 C   0  0  0  0  0  0  0  0  0  0  0  0
   57.7960   30.7260   45.4200 C   0  0  0  0  0  0  0  0  0  0  0  0
   57.5059   29.8070   44.8896 H   0  0  0  0  0  0  0  0  0  0  0  0
   57.4710   31.9700   44.8780 C   0  0  0  0  0  0  0  0  0  0  0  0
   56.9226   32.0216   43.9259 H   0  0  0  0  0  0  0  0  0  0  0  0
   57.8360   33.1570   45.5340 C   0  0  0  0  0  0  0  0  0  0  0  0
   57.4750   34.4830   44.9160 C   0  0  0  0  0  0  0  0  0  0  0  0
   57.2754   35.2161   45.7115 H   0  0  0  0  0  0  0  0  0  0  0  0
   58.3096   34.8364   44.2927 H   0  0  0  0  0  0  0  0  0  0  0  0
   56.5764   34.3645   44.2927 H   0  0  0  0  0  0  0  0  0  0  0  0
   58.5590   33.0820   46.7460 C   0  0  0  0  0  0  0  0  0  0  0  0
   58.9780   34.3280   47.4830 C   0  0  0  0  0  0  0  0  0  0  0  0
   58.9183   34.1504   48.5669 H   0  0  0  0  0  0  0  0  0  0  0  0
   60.0121   34.5852   47.2100 H   0  0  0  0  0  0  0  0  0  0  0  0
   58.3095   35.1578   47.2100 H   0  0  0  0  0  0  0  0  0  0  0  0
   58.8740   31.8240   47.2870 C   0  0  0  0  0  0  0  0  0  0  0  0
   59.4298   31.7667   48.2345 H   0  0  0  0  0  0  0  0  0  0  0  0
   59.6320   29.2200   48.3900 C   0  0  0  0  0  0  0  0  0  0  0  0
   59.9997   30.1229   48.8995 H   0  0  0  0  0  0  0  0  0  0  0  0
   59.9340   27.9480   48.8870 C   0  0  0  0  0  0  0  0  0  0  0  0
   60.7890   27.7930   50.1040 C   0  0  0  0  0  0  0  0  0  0  0  0
   60.1682   27.9056   51.0050 H   0  0  0  0  0  0  0  0  0  0  0  0
   61.2537   26.7960   50.1011 H   0  0  0  0  0  0  0  0  0  0  0  0
   61.5741   28.5635   50.1011 H   0  0  0  0  0  0  0  0  0  0  0  0
   59.4860   26.8450   48.2320 N   0  0  0  0  0  0  0  0  0  0  0  0
  1  2  1  0
  2  3  2  0
  3  4  1  0
  4  5  1  0
  5  6  1  0
  6  7  1  0
  6  8  1  0
  6  9  1  0
  5 10  2  0
 10 11  1  0
 11 12  1  0
 11 13  1  0
 11 14  1  0
 10 15  1  0
 15 16  1  0
 16 17  1  0
 17 18  1  0
 18 19  1  0
 19 20  2  0
 20 21  1  0
 21 22  1  0
 22 23  2  0
 23 24  1  0
 23 25  1  0
 25 26  1  0
 25 27  2  0
 27 28  1  0
 28 29  1  0
 28 30  1  0
 28 31  1  0
 27 32  1  0
 32 33  1  0
 33 34  1  0
 33 35  1  0
 33 36  1  0
 32 37  2  0
 37 38  1  0
 21 39  2  0
 39 40  1  0
 39 41  1  0
 41 42  1  0
 42 43  1  0
 42 44  1  0
 42 45  1  0
 41 46  2  0
 18  3  1  0
 46 19  1  0
 16  4  2  0
 37 22  1  0
M  CHG  1  17  -1
M  END
>  <UniqueID>  (29) 
26

>  <SMILES>  (29) 
[H]/N=c1/c2c(C)c(C)sc2[n-]n1-c1nc(C)cc(-c2ccc(C)c(C)c2)n1

>  <Energy>  (29) 
138.06432636480983

>  <Genealogy>  (29) 
Cc1cc(-c2ccc(C)c(C)c2)nc(-n2[n-]c3sc(C)c(C)c3c2=N)n1 (protonated)
[H]/N=c1/c2c(C)c(C)sc2[n-]n1-c1nc(C)cc(-c2ccc(C)c(C)c2)n1 (cis-trans isomerization)
[H]/N=c1/c2c(C)c(C)sc2[n-]n1-c1nc(C)cc(-c2ccc(C)c(C)c2)n1 (3D coordinates assigned)
[H]/N=c1/c2c(C)c(C)sc2[n-]n1-c1nc(C)cc(-c2ccc(C)c(C)c2)n1 (optimized conformer: 138.06432636480983 kcal/mol)

>  <smiles>  (29) 
Cc1cc(-c2ccc(C)c(C)c2)nc(-n2[nH]c3sc(C)c(C)c3c2=N)n1

>  <score_type>  (29) 
oracle

>  <origin>  (29) 
adg

>  <m_score__min__energy>  (29) 
-9.3599999999999994

>  <m_primary>  (29) 
energy

$$$$
29:0
     RDKit          3D

 54 56  0  0  0  0  0  0  0  0999 V2000
   56.7530   28.5560   45.1610 C   0  0  0  0  0  0  0  0  0  0  0  0
   55.5100   29.1600   44.8830 O   0  0  0  0  0  0  0  0  0  0  0  0
   55.7120   30.3360   44.1270 C   0  0  0  0  0  0  0  0  0  0  0  0
   57.0930   30.2950   43.4670 C   0  0  0  0  0  0  0  0  0  0  0  0
   57.9860   31.4840   43.8610 C   0  0  0  0  0  0  0  0  0  0  0  0
   58.4180   31.4020   45.2760 N   0  0  0  0  0  0  0  0  0  0  0  0
   57.8440   32.2170   46.2290 C   0  0  0  0  0  0  0  0  0  0  0  0
   56.6450   33.4970   45.8010 S   0  0  0  0  0  0  0  0  0  0  0  0
   57.8100   34.5900   44.9100 C   0  0  0  0  0  0  0  0  0  0  0  0
   59.2400   34.4120   45.3220 C   0  0  0  0  0  0  0  0  0  0  0  0
   60.0530   33.8770   44.5190 O   0  0  0  0  0  0  0  0  0  0  0  0
   59.6820   34.8190   46.6220 N   0  0  0  0  0  0  0  0  0  0  0  0
   60.8120   34.2080   47.2660 C   0  0  0  0  0  0  0  0  0  0  0  0
   61.9330   33.8420   46.5010 C   0  0  0  0  0  0  0  0  0  0  0  0
   63.0250   33.2090   47.0990 C   0  0  0  0  0  0  0  0  0  0  0  0
   63.0060   32.9140   48.4680 C   0  0  0  0  0  0  0  0  0  0  0  0
   64.1860   32.2490   49.1150 C   0  0  0  0  0  0  0  0  0  0  0  0
   61.9020   33.3010   49.2430 C   0  0  0  0  0  0  0  0  0  0  0  0
   60.8010   33.9450   48.6540 C   0  0  0  0  0  0  0  0  0  0  0  0
   59.6450   34.3870   49.5130 C   0  0  0  0  0  0  0  0  0  0  0  0
   58.1680   32.0730   47.5400 N   0  0  0  0  0  0  0  0  0  0  0  0
   59.0780   31.1630   47.9530 C   0  0  0  0  0  0  0  0  0  0  0  0
   59.3950   31.0540   49.3120 C   0  0  0  0  0  0  0  0  0  0  0  0
   60.3260   30.1050   49.7430 C   0  0  0  0  0  0  0  0  0  0  0  0
   60.9440   29.2620   48.8150 C   0  0  0  0  0  0  0  0  0  0  0  0
   60.6380   29.3690   47.4520 C   0  0  0  0  0  0  0  0  0  0  0  0
   59.7020   30.3230   47.0120 C   0  0  0  0  0  0  0  0  0  0  0  0
   59.3520   30.4690   45.6570 C   0  0  0  0  0  0  0  0  0  0  0  0
   59.9010   29.7270   44.7930 O   0  0  0  0  0  0  0  0  0  0  0  0
   56.8924   28.4883   46.2500 H   0  0  0  0  0  0  0  0  0  0  0  0
   56.7758   27.5464   44.7249 H   0  0  0  0  0  0  0  0  0  0  0  0
   57.5608   29.1620   44.7249 H   0  0  0  0  0  0  0  0  0  0  0  0
   54.9373   30.4083   43.3495 H   0  0  0  0  0  0  0  0  0  0  0  0
   55.6518   31.2107   44.7913 H   0  0  0  0  0  0  0  0  0  0  0  0
   57.5968   29.3643   43.7670 H   0  0  0  0  0  0  0  0  0  0  0  0
   56.9382   30.3475   42.3792 H   0  0  0  0  0  0  0  0  0  0  0  0
   58.8772   31.4891   43.2163 H   0  0  0  0  0  0  0  0  0  0  0  0
   57.4017   32.4074   43.7347 H   0  0  0  0  0  0  0  0  0  0  0  0
   57.7301   34.3784   43.8335 H   0  0  0  0  0  0  0  0  0  0  0  0
   57.5314   35.6251   45.1568 H   0  0  0  0  0  0  0  0  0  0  0  0
   59.1340   35.5370   47.1430 H   0  0  0  0  0  0  0  0  0  0  0  0
   61.9504   34.0559   45.4221 H   0  0  0  0  0  0  0  0  0  0  0  0
   63.9029   32.9413   46.4927 H   0  0  0  0  0  0  0  0  0  0  0  0
   64.0848   32.3060   50.2089 H   0  0  0  0  0  0  0  0  0  0  0  0
   64.2280   31.1944   48.8051 H   0  0  0  0  0  0  0  0  0  0  0  0
   65.1099   32.7593   48.8051 H   0  0  0  0  0  0  0  0  0  0  0  0
   61.8986   33.0978   50.3241 H   0  0  0  0  0  0  0  0  0  0  0  0
   59.9160   34.2834   50.5741 H   0  0  0  0  0  0  0  0  0  0  0  0
   59.4082   35.4391   49.2961 H   0  0  0  0  0  0  0  0  0  0  0  0
   58.7667   33.7613   49.2961 H   0  0  0  0  0  0  0  0  0  0  0  0
   58.9098   31.7174   50.0431 H   0  0  0  0  0  0  0  0  0  0  0  0
   60.5723   30.0215   50.8118 H   0  0  0  0  0  0  0  0  0  0  0  0
   61.6730   28.5121   49.1560 H   0  0  0  0  0  0  0  0  0  0  0  0
   61.1301   28.7063   46.7249 H   0  0  0  0  0  0  0  0  0  0  0  0
  1  2  1  0
  2  3  1  0
  3  4  1  0
  4  5  1  0
  5  6  1  0
  6  7  1  0
  7  8  1  0
  8  9  1  0
  9 10  1  0
 10 11  2  0
 10 12  1  0
 12 13  1  0
 13 14  2  0
 14 15  1  0
 15 16  2  0
 16 17  1  0
 16 18  1  0
 18 19  2  0
 19 20  1  0
  7 21  2  0
 21 22  1  0
 22 23  2  0
 23 24  1  0
 24 25  2  0
 25 26  1  0
 26 27  2  0
 27 28  1  0
 28 29  2  0
 28  6  1  0
 19 13  1  0
 27 22  1  0
  1 30  1  0
  1 31  1  0
  1 32  1  0
  3 33  1  0
  3 34  1  0
  4 35  1  0
  4 36  1  0
  5 37  1  0
  5 38  1  0
  9 39  1  0
  9 40  1  0
 12 41  1  0
 14 42  1  0
 15 43  1  0
 17 44  1  0
 17 45  1  0
 17 46  1  0
 18 47  1  0
 20 48  1  0
 20 49  1  0
 20 50  1  0
 23 51  1  0
 24 52  1  0
 25 53  1  0
 26 54  1  0
M  END
>  <UniqueID>  (30) 
27

>  <SMILES>  (30) 
COCCCn1c(SCC(=O)Nc2ccc(C)cc2C)nc2ccccc2c1=O

>  <Energy>  (30) 
61.81476631819096

>  <Genealogy>  (30) 
COCCCn1c(SCC(=O)Nc2ccc(C)cc2C)nc2ccccc2c1=O (3D coordinates assigned)
COCCCn1c(SCC(=O)Nc2ccc(C)cc2C)nc2ccccc2c1=O (optimized conformer: 61.81476631819096 kcal/mol)

>  <smiles>  (30) 
COCCCn1c(SCC(=O)Nc2ccc(C)cc2C)nc2ccccc2c1=O

>  <score_type>  (30) 
oracle

>  <origin>  (30) 
adg

>  <m_score__min__energy>  (30) 
-8.4000000000000004

>  <m_primary>  (30) 
energy

$$$$
30:0
     RDKit          3D

 40 42  0  0  0  0  0  0  0  0999 V2000
   57.9270   32.3790   41.4850 C   0  0  0  0  0  0  0  0  0  0  0  0
   57.4420   32.6930   42.7870 O   0  0  0  0  0  0  0  0  0  0  0  0
   57.9700   32.1970   43.9910 C   0  0  0  0  0  0  0  0  0  0  0  0
   58.0650   30.8100   44.2130 C   0  0  0  0  0  0  0  0  0  0  0  0
   58.5850   30.3000   45.4090 C   0  0  0  0  0  0  0  0  0  0  0  0
   58.6960   28.8400   45.6520 C   0  0  0  0  0  0  0  0  0  0  0  0
   59.9440   28.1980   45.7510 C   0  0  0  0  0  0  0  0  0  0  0  0
   59.9900   26.8220   45.9790 C   0  0  0  0  0  0  0  0  0  0  0  0
   61.1060   26.2430   46.0680 O   0  0  0  0  0  0  0  0  0  0  0  0
   58.7910   26.1040   46.1040 C   0  0  0  0  0  0  0  0  0  0  0  0
   58.7670   24.7160   46.3350 C   0  0  0  0  0  0  0  0  0  0  0  0
   57.5470   24.0440   46.4460 C   0  0  0  0  0  0  0  0  0  0  0  0
   57.5300   22.7080   46.6690 F   0  0  0  0  0  0  0  0  0  0  0  0
   56.3450   24.7470   46.3250 C   0  0  0  0  0  0  0  0  0  0  0  0
   56.3530   26.1300   46.0940 C   0  0  0  0  0  0  0  0  0  0  0  0
   55.1550   26.8310   45.9730 O   0  0  0  0  0  0  0  0  0  0  0  0
   57.5730   26.8100   45.9830 C   0  0  0  0  0  0  0  0  0  0  0  0
   57.5790   28.1220   45.7660 O   0  0  0  0  0  0  0  0  0  0  0  0
   59.0380   31.1950   46.3830 C   0  0  0  0  0  0  0  0  0  0  0  0
   58.9600   32.5780   46.1990 C   0  0  0  0  0  0  0  0  0  0  0  0
   59.4410   33.3710   47.2580 O   0  0  0  0  0  0  0  0  0  0  0  0
   59.2970   33.1170   48.6510 C   0  0  0  0  0  0  0  0  0  0  0  0
   58.4160   33.0990   44.9950 C   0  0  0  0  0  0  0  0  0  0  0  0
   58.3440   34.4980   44.8450 O   0  0  0  0  0  0  0  0  0  0  0  0
   59.3280   35.4580   45.2100 C   0  0  0  0  0  0  0  0  0  0  0  0
   58.8476   31.7830   41.5705 H   0  0  0  0  0  0  0  0  0  0  0  0
   57.1659   31.8018   40.9395 H   0  0  0  0  0  0  0  0  0  0  0  0
   58.1421   33.3097   40.9395 H   0  0  0  0  0  0  0  0  0  0  0  0
   57.7244   30.1139   43.4324 H   0  0  0  0  0  0  0  0  0  0  0  0
   60.8748   28.7753   45.6496 H   0  0  0  0  0  0  0  0  0  0  0  0
   59.7109   24.1588   46.4284 H   0  0  0  0  0  0  0  0  0  0  0  0
   55.3875   24.2124   46.4115 H   0  0  0  0  0  0  0  0  0  0  0  0
   55.1340   27.8430   45.9420 H   0  0  0  0  0  0  0  0  0  0  0  0
   59.4661   30.8010   47.3165 H   0  0  0  0  0  0  0  0  0  0  0  0
   59.7605   33.9346   49.2226 H   0  0  0  0  0  0  0  0  0  0  0  0
   58.2283   33.0530   48.9035 H   0  0  0  0  0  0  0  0  0  0  0  0
   59.7909   32.1671   48.9035 H   0  0  0  0  0  0  0  0  0  0  0  0
   59.3912   35.5196   46.3065 H   0  0  0  0  0  0  0  0  0  0  0  0
   60.3041   35.1555   44.8029 H   0  0  0  0  0  0  0  0  0  0  0  0
   59.0497   36.4413   44.8029 H   0  0  0  0  0  0  0  0  0  0  0  0
  1  2  1  0
  2  3  1  0
  3  4  2  0
  4  5  1  0
  5  6  1  0
  6  7  2  0
  7  8  1  0
  8  9  2  0
  8 10  1  0
 10 11  2  0
 11 12  1  0
 12 13  1  0
 12 14  2  0
 14 15  1  0
 15 16  1  0
 15 17  2  0
 17 18  1  0
  5 19  2  0
 19 20  1  0
 20 21  1  0
 21 22  1  0
 20 23  2  0
 23 24  1  0
 24 25  1  0
 23  3  1  0
 18  6  1  0
 17 10  1  0
  1 26  1  0
  1 27  1  0
  1 28  1  0
  4 29  1  0
  7 30  1  0
 11 31  1  0
 14 32  1  0
 16 33  1  0
 19 34  1  0
 22 35  1  0
 22 36  1  0
 22 37  1  0
 25 38  1  0
 25 39  1  0
 25 40  1  0
M  END
>  <UniqueID>  (31) 
28

>  <SMILES>  (31) 
COc1cc(-c2cc(=O)c3cc(F)cc(O)c3o2)cc(OC)c1OC

>  <Energy>  (31) 
55.99428761570927

>  <Genealogy>  (31) 
COc1cc(-c2cc(=O)c3cc(F)cc(O)c3o2)cc(OC)c1OC (3D coordinates assigned)
COc1cc(-c2cc(=O)c3cc(F)cc(O)c3o2)cc(OC)c1OC (optimized conformer: 55.99428761570927 kcal/mol)

>  <smiles>  (31) 
COc1cc(-c2cc(=O)c3cc(F)cc(O)c3o2)cc(OC)c1OC

>  <score_type>  (31) 
oracle

>  <origin>  (31) 
adg

>  <m_score__min__energy>  (31) 
-7.3899999999999997

>  <m_primary>  (31) 
energy

$$$$
31:0
     RDKit          3D

 33 35  0  0  0  0  0  0  0  0999 V2000
   59.3870   27.2928   47.3335 H   0  0  0  0  0  0  0  0  0  0  0  0
   58.9290   27.7690   46.4540 C   0  0  0  0  0  0  0  0  0  0  0  0
   58.8200   27.0600   45.2540 C   0  0  0  0  0  0  0  0  0  0  0  0
   59.1801   26.0224   45.1937 H   0  0  0  0  0  0  0  0  0  0  0  0
   58.2530   27.6700   44.1300 C   0  0  0  0  0  0  0  0  0  0  0  0
   58.1320   26.7870   42.6190 Cl  0  0  0  0  0  0  0  0  0  0  0  0
   57.7840   28.9850   44.2100 C   0  0  0  0  0  0  0  0  0  0  0  0
   57.3611   29.4722   43.3190 H   0  0  0  0  0  0  0  0  0  0  0  0
   57.8520   29.6860   45.4280 C   0  0  0  0  0  0  0  0  0  0  0  0
   57.4150   31.0490   45.5210 N   0  0  0  0  0  0  0  0  0  0  0  0
   58.1100   32.1580   45.6160 C   0  0  0  0  0  0  0  0  0  0  0  0
   58.3040   32.8970   44.4310 C   0  0  0  0  0  0  0  0  0  0  0  0
   57.8840   32.3830   43.1460 C   0  0  0  0  0  0  0  0  0  0  0  0
   57.5470   31.9720   42.1180 N   0  0  0  0  0  0  0  0  0  0  0  0
   58.8300   34.1880   44.4920 C   0  0  0  0  0  0  0  0  0  0  0  0
   58.9602   34.7679   43.5664 H   0  0  0  0  0  0  0  0  0  0  0  0
   59.1820   34.7340   45.6820 N   0  0  0  0  0  0  0  0  0  0  0  0
   59.5490   35.7120   45.6840 H   0  0  0  0  0  0  0  0  0  0  0  0
   59.1220   34.0210   46.8410 C   0  0  0  0  0  0  0  0  0  0  0  0
   59.5870   34.5990   48.0320 C   0  0  0  0  0  0  0  0  0  0  0  0
   59.9099   35.6505   48.0384 H   0  0  0  0  0  0  0  0  0  0  0  0
   59.6430   33.8520   49.2060 C   0  0  0  0  0  0  0  0  0  0  0  0
   59.9864   34.3222   50.1393 H   0  0  0  0  0  0  0  0  0  0  0  0
   59.2640   32.5060   49.2020 C   0  0  0  0  0  0  0  0  0  0  0  0
   59.4300   31.6730   50.4390 C   0  0  0  0  0  0  0  0  0  0  0  0
   59.3035   32.3079   51.3283 H   0  0  0  0  0  0  0  0  0  0  0  0
   58.6733   30.8747   50.4477 H   0  0  0  0  0  0  0  0  0  0  0  0
   60.4349   31.2258   50.4477 H   0  0  0  0  0  0  0  0  0  0  0  0
   58.8100   31.9180   48.0130 C   0  0  0  0  0  0  0  0  0  0  0  0
   58.5837   30.8417   47.9943 H   0  0  0  0  0  0  0  0  0  0  0  0
   58.6380   32.6850   46.8370 C   0  0  0  0  0  0  0  0  0  0  0  0
   58.4570   29.0820   46.5380 C   0  0  0  0  0  0  0  0  0  0  0  0
   58.5609   29.6428   47.4786 H   0  0  0  0  0  0  0  0  0  0  0  0
  1  2  1  0
  2  3  2  0
  3  4  1  0
  3  5  1  0
  5  6  1  0
  5  7  2  0
  7  8  1  0
  7  9  1  0
  9 10  1  0
 10 11  2  0
 11 12  1  0
 12 13  1  0
 13 14  3  0
 12 15  2  0
 15 16  1  0
 15 17  1  0
 17 18  1  0
 17 19  1  0
 19 20  2  0
 20 21  1  0
 20 22  1  0
 22 23  1  0
 22 24  2  0
 24 25  1  0
 25 26  1  0
 25 27  1  0
 25 28  1  0
 24 29  1  0
 29 30  1  0
 29 31  2  0
  9 32  2  0
 32 33  1  0
 32  2  1  0
 31 11  1  0
 31 19  1  0
M  END
>  <UniqueID>  (32) 
29

>  <SMILES>  (32) 
Cc1ccc2[nH]cc(C#N)/c(=N/c3cccc(Cl)c3)c2c1

>  <Energy>  (32) 
58.515982550525145

>  <Genealogy>  (32) 
Cc1ccc2[nH]cc(C#N)/c(=N/c3cccc(Cl)c3)c2c1 (cis-trans isomerization)
Cc1ccc2[nH]cc(C#N)/c(=N/c3cccc(Cl)c3)c2c1 (3D coordinates assigned)
Cc1ccc2[nH]cc(C#N)/c(=N/c3cccc(Cl)c3)c2c1 (optimized conformer: 58.515982550525145 kcal/mol)

>  <smiles>  (32) 
Cc1ccc2[nH]cc(C#N)c(=Nc3cccc(Cl)c3)c2c1

>  <score_type>  (32) 
oracle

>  <origin>  (32) 
adg

>  <m_score__min__energy>  (32) 
-7.3899999999999997

>  <m_primary>  (32) 
energy

$$$$
32:0
     RDKit          3D

 44 46  0  0  0  0  0  0  0  0999 V2000
   57.5500   34.5830   44.9060 C   0  0  0  0  0  0  0  0  0  0  0  0
   59.0630   34.6770   45.0950 C   0  0  0  0  0  0  0  0  0  0  0  0
   59.5560   33.6350   46.0300 N   0  0  0  0  0  0  0  0  0  0  0  0
   58.4020   32.8590   46.5520 C   0  0  0  0  0  0  0  0  0  0  0  0
   58.3260   31.4860   45.9500 C   0  0  0  0  0  0  0  0  0  0  0  0
   59.4430   30.6480   45.9220 C   0  0  0  0  0  0  0  0  0  0  0  0
   59.3230   29.3660   45.3930 C   0  0  0  0  0  0  0  0  0  0  0  0
   58.0870   28.9450   44.8800 C   0  0  0  0  0  0  0  0  0  0  0  0
   57.9010   27.6260   44.3340 N   0  0  0  0  0  0  0  0  0  0  0  0
   57.5630   26.4920   44.9760 C   0  0  0  0  0  0  0  0  0  0  0  0
   57.4920   25.4790   44.0470 C   0  0  0  0  0  0  0  0  0  0  0  0
   57.7820   25.9670   42.8250 N   0  0  0  0  0  0  0  0  0  0  0  0
   58.0260   27.2760   43.0360 C   0  0  0  0  0  0  0  0  0  0  0  0
   57.0410   29.8170   44.9050 N   0  0  0  0  0  0  0  0  0  0  0  0
   57.1550   31.0420   45.4200 N   0  0  0  0  0  0  0  0  0  0  0  0
   60.3340   34.2600   47.1320 C   0  0  0  0  0  0  0  0  0  0  0  0
   61.6990   33.6410   47.2690 C   0  0  0  0  0  0  0  0  0  0  0  0
   62.7360   33.9970   46.4810 N   0  0  0  0  0  0  0  0  0  0  0  0
   63.7680   33.2500   46.9210 C   0  0  0  0  0  0  0  0  0  0  0  0
   63.3460   32.4480   47.9560 C   0  0  0  0  0  0  0  0  0  0  0  0
   62.0400   32.6850   48.1660 N   0  0  0  0  0  0  0  0  0  0  0  0
   61.2040   32.0180   49.1650 C   0  0  0  0  0  0  0  0  0  0  0  0
   61.1210   30.5230   48.8860 C   0  0  0  0  0  0  0  0  0  0  0  0
   57.0588   34.5525   45.8898 H   0  0  0  0  0  0  0  0  0  0  0  0
   57.1952   35.4608   44.3461 H   0  0  0  0  0  0  0  0  0  0  0  0
   57.3066   33.6680   44.3461 H   0  0  0  0  0  0  0  0  0  0  0  0
   59.5547   34.5449   44.1199 H   0  0  0  0  0  0  0  0  0  0  0  0
   59.2990   35.6639   45.5197 H   0  0  0  0  0  0  0  0  0  0  0  0
   58.5037   32.7628   47.6430 H   0  0  0  0  0  0  0  0  0  0  0  0
   57.4818   33.3982   46.2829 H   0  0  0  0  0  0  0  0  0  0  0  0
   60.4091   30.9980   46.3145 H   0  0  0  0  0  0  0  0  0  0  0  0
   60.1898   28.6889   45.3774 H   0  0  0  0  0  0  0  0  0  0  0  0
   57.3761   26.3924   46.0554 H   0  0  0  0  0  0  0  0  0  0  0  0
   57.2376   24.4319   44.2681 H   0  0  0  0  0  0  0  0  0  0  0  0
   58.2974   27.9821   42.2374 H   0  0  0  0  0  0  0  0  0  0  0  0
   60.4487   35.3339   46.9232 H   0  0  0  0  0  0  0  0  0  0  0  0
   59.7876   34.0981   48.0728 H   0  0  0  0  0  0  0  0  0  0  0  0
   64.7900   33.2774   46.5151 H   0  0  0  0  0  0  0  0  0  0  0  0
   63.9701   31.7355   48.5153 H   0  0  0  0  0  0  0  0  0  0  0  0
   61.6389   32.1755   50.1630 H   0  0  0  0  0  0  0  0  0  0  0  0
   60.1905   32.4432   49.1189 H   0  0  0  0  0  0  0  0  0  0  0  0
   61.0905   29.9734   49.8384 H   0  0  0  0  0  0  0  0  0  0  0  0
   60.2095   30.3077   48.3091 H   0  0  0  0  0  0  0  0  0  0  0  0
   62.0030   30.2081   48.3091 H   0  0  0  0  0  0  0  0  0  0  0  0
  1  2  1  0
  2  3  1  0
  3  4  1  0
  4  5  1  0
  5  6  2  0
  6  7  1  0
  7  8  2  0
  8  9  1  0
  9 10  1  0
 10 11  2  0
 11 12  1  0
 12 13  2  0
  8 14  1  0
 14 15  2  0
  3 16  1  0
 16 17  1  0
 17 18  2  0
 18 19  1  0
 19 20  2  0
 20 21  1  0
 21 22  1  0
 22 23  1  0
 15  5  1  0
 21 17  1  0
 13  9  1  0
  1 24  1  0
  1 25  1  0
  1 26  1  0
  2 27  1  0
  2 28  1  0
  4 29  1  0
  4 30  1  0
  6 31  1  0
  7 32  1  0
 10 33  1  0
 11 34  1  0
 13 35  1  0
 16 36  1  0
 16 37  1  0
 19 38  1  0
 20 39  1  0
 22 40  1  0
 22 41  1  0
 23 42  1  0
 23 43  1  0
 23 44  1  0
M  END
>  <UniqueID>  (33) 
30

>  <SMILES>  (33) 
CCN(Cc1ccc(-n2ccnc2)nn1)Cc1nccn1CC

>  <Energy>  (33) 
101.06576146817989

>  <Genealogy>  (33) 
CCN(Cc1ccc(-n2ccnc2)nn1)Cc1nccn1CC (3D coordinates assigned)
CCN(Cc1ccc(-n2ccnc2)nn1)Cc1nccn1CC (optimized conformer: 101.06576146817989 kcal/mol)

>  <smiles>  (33) 
CCN(Cc1ccc(-n2ccnc2)nn1)Cc1nccn1CC

>  <score_type>  (33) 
oracle

>  <origin>  (33) 
adg

>  <m_score__min__energy>  (33) 
-6.8099999999999996

>  <m_primary>  (33) 
energy

$$$$
33:0
     RDKit          3D

 42 43  0  0  0  0  0  0  0  0999 V2000
   56.2810   29.4480   42.6200 C   0  0  0  0  0  0  0  0  0  0  0  0
   55.9130   30.4040   43.7490 C   0  0  0  0  0  0  0  0  0  0  0  0
   56.2220   29.8360   45.0100 O   0  0  0  0  0  0  0  0  0  0  0  0
   57.5750   30.0630   45.3810 C   0  0  1  0  0  0  0  0  0  0  0  0
   58.3860   28.7680   45.1950 C   0  0  0  0  0  0  0  0  0  0  0  0
   57.5030   27.6360   44.9170 N   0  0  0  0  0  0  0  0  0  0  0  0
   57.9050   26.2710   45.1250 C   0  0  0  0  0  0  0  0  0  0  0  0
   59.0710   26.0200   45.5400 O   0  0  0  0  0  0  0  0  0  0  0  0
   56.9840   25.1490   44.8310 C   0  0  0  0  0  0  0  0  0  0  0  0
   55.8500   24.9090   45.6290 C   0  0  0  0  0  0  0  0  0  0  0  0
   54.9920   23.8430   45.3380 C   0  0  0  0  0  0  0  0  0  0  0  0
   55.2570   23.0050   44.2530 C   0  0  0  0  0  0  0  0  0  0  0  0
   56.3850   23.2250   43.4600 C   0  0  0  0  0  0  0  0  0  0  0  0
   56.6450   22.4080   42.4090 F   0  0  0  0  0  0  0  0  0  0  0  0
   57.2480   24.2880   43.7480 C   0  0  0  0  0  0  0  0  0  0  0  0
   58.1580   31.1640   44.4760 C   0  0  0  0  0  0  0  0  0  0  0  0
   58.4280   32.4250   45.2530 C   0  0  0  0  0  0  0  0  0  0  0  0
   58.4070   32.4130   46.6590 C   0  0  0  0  0  0  0  0  0  0  0  0
   58.7010   33.5750   47.3770 C   0  0  0  0  0  0  0  0  0  0  0  0
   59.0240   34.7550   46.7010 C   0  0  0  0  0  0  0  0  0  0  0  0
   59.0520   34.7740   45.3030 C   0  0  0  0  0  0  0  0  0  0  0  0
   58.7590   33.6140   44.5810 C   0  0  0  0  0  0  0  0  0  0  0  0
   56.6454   28.5013   43.0453 H   0  0  0  0  0  0  0  0  0  0  0  0
   55.3934   29.2538   42.0000 H   0  0  0  0  0  0  0  0  0  0  0  0
   57.0697   29.8991   42.0000 H   0  0  0  0  0  0  0  0  0  0  0  0
   56.4774   31.3403   43.6271 H   0  0  0  0  0  0  0  0  0  0  0  0
   54.8315   30.6005   43.7062 H   0  0  0  0  0  0  0  0  0  0  0  0
   57.6256   30.3739   46.4349 H   0  0  0  0  0  0  0  0  0  0  0  0
   59.0826   28.8968   44.3535 H   0  0  0  0  0  0  0  0  0  0  0  0
   58.9395   28.5630   46.1232 H   0  0  0  0  0  0  0  0  0  0  0  0
   56.6210   27.8380   44.3960 H   0  0  0  0  0  0  0  0  0  0  0  0
   55.6369   25.5636   46.4869 H   0  0  0  0  0  0  0  0  0  0  0  0
   54.1064   23.6645   45.9655 H   0  0  0  0  0  0  0  0  0  0  0  0
   54.5771   22.1715   44.0230 H   0  0  0  0  0  0  0  0  0  0  0  0
   58.1390   24.4525   43.1242 H   0  0  0  0  0  0  0  0  0  0  0  0
   59.1005   30.8050   44.0368 H   0  0  0  0  0  0  0  0  0  0  0  0
   57.4237   31.3916   43.6892 H   0  0  0  0  0  0  0  0  0  0  0  0
   58.1582   31.4855   47.1955 H   0  0  0  0  0  0  0  0  0  0  0  0
   58.6782   33.5612   48.4767 H   0  0  0  0  0  0  0  0  0  0  0  0
   59.2561   35.6683   47.2684 H   0  0  0  0  0  0  0  0  0  0  0  0
   59.3049   35.7030   44.7711 H   0  0  0  0  0  0  0  0  0  0  0  0
   58.7876   33.6317   43.4815 H   0  0  0  0  0  0  0  0  0  0  0  0
  1  2  1  0
  2  3  1  0
  3  4  1  0
  4  5  1  0
  5  6  1  0
  6  7  1  0
  7  8  2  0
  7  9  1  0
  9 10  2  0
 10 11  1  0
 11 12  2  0
 12 13  1  0
 13 14  1  0
 13 15  2  0
  4 16  1  0
 16 17  1  0
 17 18  2  0
 18 19  1  0
 19 20  2  0
 20 21  1  0
 21 22  2  0
 15  9  1  0
 22 17  1  0
  1 23  1  0
  1 24  1  0
  1 25  1  0
  2 26  1  0
  2 27  1  0
  4 28  1  1
  5 29  1  0
  5 30  1  0
  6 31  1  0
 10 32  1  0
 11 33  1  0
 12 34  1  0
 15 35  1  0
 16 36  1  0
 16 37  1  0
 18 38  1  0
 19 39  1  0
 20 40  1  0
 21 41  1  0
 22 42  1  0
M  END
>  <UniqueID>  (34) 
31

>  <SMILES>  (34) 
CCO[C@@H](CNC(=O)c1cccc(F)c1)Cc1ccccc1

>  <Energy>  (34) 
38.573197514223445

>  <Genealogy>  (34) 
CCO[C@@H](CNC(=O)c1cccc(F)c1)Cc1ccccc1 (chirality)
CCO[C@@H](CNC(=O)c1cccc(F)c1)Cc1ccccc1 (3D coordinates assigned)
CCO[C@@H](CNC(=O)c1cccc(F)c1)Cc1ccccc1 (optimized conformer: 38.573197514223445 kcal/mol)

>  <smiles>  (34) 
CCOC(CNC(=O)c1cccc(F)c1)Cc1ccccc1

>  <score_type>  (34) 
oracle

>  <origin>  (34) 
adg

>  <m_score__min__energy>  (34) 
-7.0499999999999998

>  <m_primary>  (34) 
energy

$$$$
34:0
     RDKit          3D

 28 29  0  0  0  0  0  0  0  0999 V2000
   59.3019   27.2307   44.0178 H   0  0  0  0  0  0  0  0  0  0  0  0
   58.5900   28.0660   44.0920 C   0  0  0  0  0  0  0  0  0  0  0  0
   58.7530   29.2150   44.8430 C   0  0  0  0  0  0  0  0  0  0  0  0
   59.7400   29.6710   45.6970 C   0  0  0  0  0  0  0  0  0  0  0  0
   60.7670   28.9620   45.8850 O   0  0  0  0  0  0  0  0  0  0  0  0
   59.5710   30.8970   46.3250 N   0  0  0  0  0  0  0  0  0  0  0  0
   60.6520   31.3730   47.2090 C   0  0  0  0  0  0  0  0  0  0  0  0
   60.3519   31.2409   48.2590 H   0  0  0  0  0  0  0  0  0  0  0  0
   61.5670   30.7945   47.0136 H   0  0  0  0  0  0  0  0  0  0  0  0
   60.8431   32.4385   47.0136 H   0  0  0  0  0  0  0  0  0  0  0  0
   58.3930   31.6290   46.0920 C   0  0  0  0  0  0  0  0  0  0  0  0
   58.1090   32.7820   46.6440 N   0  0  0  0  0  0  0  0  0  0  0  0
   57.7770   34.1030   46.1150 C   0  0  0  0  0  0  0  0  0  0  0  0
   58.0361   34.8732   46.8564 H   0  0  0  0  0  0  0  0  0  0  0  0
   56.6996   34.1579   45.8999 H   0  0  0  0  0  0  0  0  0  0  0  0
   58.5700   34.3370   44.8370 C   0  0  0  0  0  0  0  0  0  0  0  0
   59.5962   34.6398   45.0925 H   0  0  0  0  0  0  0  0  0  0  0  0
   58.5976   33.4087   44.2475 H   0  0  0  0  0  0  0  0  0  0  0  0
   58.0893   35.1316   44.2475 H   0  0  0  0  0  0  0  0  0  0  0  0
   57.4450   31.1350   45.2390 N   0  0  0  0  0  0  0  0  0  0  0  0
   57.6450   29.9500   44.6300 C   0  0  0  0  0  0  0  0  0  0  0  0
   56.8210   29.3130   43.7830 N   0  0  0  0  0  0  0  0  0  0  0  0
   55.4860   29.7280   43.3720 C   0  0  0  0  0  0  0  0  0  0  0  0
   54.8708   29.9193   44.2636 H   0  0  0  0  0  0  0  0  0  0  0  0
   55.5564   30.6467   42.7711 H   0  0  0  0  0  0  0  0  0  0  0  0
   55.0231   28.9314   42.7711 H   0  0  0  0  0  0  0  0  0  0  0  0
   57.3930   28.1570   43.4640 N   0  0  0  0  0  0  0  0  0  0  0  0
   56.9700   27.4330   42.8400 H   0  0  0  0  0  0  0  0  0  0  0  0
  1  2  1  0
  2  3  1  0
  3  4  1  0
  4  5  2  0
  4  6  1  0
  6  7  1  0
  7  8  1  0
  7  9  1  0
  7 10  1  0
  6 11  1  0
 11 12  2  0
 12 13  1  0
 13 14  1  0
 13 15  1  0
 13 16  1  0
 16 17  1  0
 16 18  1  0
 16 19  1  0
 11 20  1  0
 20 21  1  0
 21 22  1  0
 22 23  1  0
 23 24  1  0
 23 25  1  0
 23 26  1  0
 22 27  1  0
 27 28  1  0
 27  2  2  0
 21  3  2  0
M  CHG  2  20  -1  27   1
M  END
>  <UniqueID>  (35) 
32

>  <SMILES>  (35) 
CC/N=c1/[n-]c2c(c[nH+]n2C)c(=O)n1C

>  <Energy>  (35) 
82.6347724579192

>  <Genealogy>  (35) 
CCN=c1[n-]c2c(c[nH+]n2C)c(=O)n1C (protonated)
CC/N=c1/[n-]c2c(c[nH+]n2C)c(=O)n1C (cis-trans isomerization)
CC/N=c1/[n-]c2c(c[nH+]n2C)c(=O)n1C (3D coordinates assigned)
CC/N=c1/[n-]c2c(c[nH+]n2C)c(=O)n1C (optimized conformer: 82.6347724579192 kcal/mol)

>  <smiles>  (35) 
CCN=c1[nH]c2c(cnn2C)c(=O)n1C

>  <score_type>  (35) 
oracle

>  <origin>  (35) 
adg

>  <m_score__min__energy>  (35) 
-5.2699999999999996

>  <m_primary>  (35) 
energy

$$$$
35:0
     RDKit          3D

 44 46  0  0  0  0  0  0  0  0999 V2000
   59.9130   34.5710   46.4250 C   0  0  0  0  0  0  0  0  0  0  0  0
   58.4920   34.0100   46.3760 C   0  0  0  0  0  0  0  0  0  0  0  0
   57.9940   33.7650   44.9400 C   0  0  0  0  0  0  0  0  0  0  0  0
   57.1220   32.5060   44.7590 C   0  0  0  0  0  0  0  0  0  0  0  0
   57.6410   31.4970   43.7200 C   0  0  0  0  0  0  0  0  0  0  0  0
   56.5820   30.4690   43.3060 C   0  0  0  0  0  0  0  0  0  0  0  0
   56.3250   29.5070   44.4230 C   0  0  0  0  0  0  0  0  0  0  0  0
   55.1520   29.3630   44.8640 O   0  0  0  0  0  0  0  0  0  0  0  0
   57.4170   28.7690   44.9820 N   0  0  0  0  0  0  0  0  0  0  0  0
   58.5220   29.3080   45.7250 C   0  0  0  0  0  0  0  0  0  0  0  0
   58.2540   30.1060   46.8420 C   0  0  0  0  0  0  0  0  0  0  0  0
   59.2990   30.6670   47.5820 C   0  0  0  0  0  0  0  0  0  0  0  0
   60.6340   30.4500   47.2020 C   0  0  0  0  0  0  0  0  0  0  0  0
   61.7350   31.0440   47.9870 C   0  0  0  0  0  0  0  0  0  0  0  0
   62.5760   31.9980   47.4950 N   0  0  0  0  0  0  0  0  0  0  0  0
   63.3800   32.2130   48.5470 C   0  0  0  0  0  0  0  0  0  0  0  0
   64.4190   33.0830   48.6100 N   0  0  0  0  0  0  0  0  0  0  0  0
   65.1340   33.1720   49.7740 C   0  0  0  0  0  0  0  0  0  0  0  0
   64.7950   32.3680   50.8890 C   0  0  0  0  0  0  0  0  0  0  0  0
   63.7120   31.4710   50.8010 C   0  0  0  0  0  0  0  0  0  0  0  0
   63.0270   31.4280   49.5940 C   0  0  0  0  0  0  0  0  0  0  0  0
   62.0020   30.7030   49.2400 O   0  0  0  0  0  0  0  0  0  0  0  0
   60.9030   29.6690   46.0650 C   0  0  0  0  0  0  0  0  0  0  0  0
   59.8560   29.1080   45.3280 C   0  0  0  0  0  0  0  0  0  0  0  0
   60.2229   34.6934   47.4733 H   0  0  0  0  0  0  0  0  0  0  0  0
   60.5991   33.8763   45.9185 H   0  0  0  0  0  0  0  0  0  0  0  0
   59.9395   35.5471   45.9185 H   0  0  0  0  0  0  0  0  0  0  0  0
   58.4725   33.0553   46.9220 H   0  0  0  0  0  0  0  0  0  0  0  0
   57.8263   34.7567   46.8334 H   0  0  0  0  0  0  0  0  0  0  0  0
   57.4010   34.6383   44.6307 H   0  0  0  0  0  0  0  0  0  0  0  0
   58.8926   33.6078   44.3254 H   0  0  0  0  0  0  0  0  0  0  0  0
   57.0583   31.9931   45.7300 H   0  0  0  0  0  0  0  0  0  0  0  0
   56.1493   32.8580   44.3851 H   0  0  0  0  0  0  0  0  0  0  0  0
   57.9629   32.0492   42.8248 H   0  0  0  0  0  0  0  0  0  0  0  0
   58.4732   30.9458   44.1822 H   0  0  0  0  0  0  0  0  0  0  0  0
   55.6473   30.9921   43.0557 H   0  0  0  0  0  0  0  0  0  0  0  0
   56.9484   29.9112   42.4316 H   0  0  0  0  0  0  0  0  0  0  0  0
   57.2121   30.2938   47.1407 H   0  0  0  0  0  0  0  0  0  0  0  0
   59.0748   31.2815   48.4664 H   0  0  0  0  0  0  0  0  0  0  0  0
   65.9784   33.8735   49.8436 H   0  0  0  0  0  0  0  0  0  0  0  0
   65.3750   32.4434   51.8206 H   0  0  0  0  0  0  0  0  0  0  0  0
   63.4224   30.8339   51.6497 H   0  0  0  0  0  0  0  0  0  0  0  0
   61.9439   29.4981   45.7531 H   0  0  0  0  0  0  0  0  0  0  0  0
   60.0767   28.5073   44.4333 H   0  0  0  0  0  0  0  0  0  0  0  0
  1  2  1  0
  2  3  1  0
  3  4  1  0
  4  5  1  0
  5  6  1  0
  6  7  1  0
  7  8  2  0
  7  9  1  0
  9 10  1  0
 10 11  2  0
 11 12  1  0
 12 13  2  0
 13 14  1  0
 14 15  2  0
 15 16  1  0
 16 17  2  0
 17 18  1  0
 18 19  2  0
 19 20  1  0
 20 21  2  0
 21 22  1  0
 13 23  1  0
 23 24  2  0
 24 10  1  0
 22 14  1  0
 21 16  1  0
  1 25  1  0
  1 26  1  0
  1 27  1  0
  2 28  1  0
  2 29  1  0
  3 30  1  0
  3 31  1  0
  4 32  1  0
  4 33  1  0
  5 34  1  0
  5 35  1  0
  6 36  1  0
  6 37  1  0
 11 38  1  0
 12 39  1  0
 18 40  1  0
 19 41  1  0
 20 42  1  0
 23 43  1  0
 24 44  1  0
M  CHG  1   9  -1
M  END
>  <UniqueID>  (36) 
33

>  <SMILES>  (36) 
CCCCCCC(=O)[N-]c1ccc(-c2nc3ncccc3o2)cc1

>  <Energy>  (36) 
80.1565546271712

>  <Genealogy>  (36) 
CCCCCCC(=O)[N-]c1ccc(-c2nc3ncccc3o2)cc1 (protonated)
CCCCCCC(=O)[N-]c1ccc(-c2nc3ncccc3o2)cc1 (3D coordinates assigned)
CCCCCCC(=O)[N-]c1ccc(-c2nc3ncccc3o2)cc1 (optimized conformer: 80.1565546271712 kcal/mol)

>  <smiles>  (36) 
CCCCCCC(=O)Nc1ccc(-c2nc3ncccc3o2)cc1

>  <score_type>  (36) 
oracle

>  <origin>  (36) 
adg

>  <m_score__min__energy>  (36) 
-8.5500000000000007

>  <m_primary>  (36) 
energy

$$$$
36:0
     RDKit          3D

 48 50  0  0  0  0  0  0  0  0999 V2000
   65.8730   32.8860   50.1360 C   0  0  0  0  0  0  0  0  0  0  0  0
   64.9340   32.1520   49.3560 O   0  0  0  0  0  0  0  0  0  0  0  0
   63.6900   32.6480   48.9370 C   0  0  0  0  0  0  0  0  0  0  0  0
   63.5390   33.0080   47.5960 C   0  0  0  0  0  0  0  0  0  0  0  0
   62.3190   33.4940   47.1260 C   0  0  0  0  0  0  0  0  0  0  0  0
   61.2200   33.6280   47.9870 C   0  0  0  0  0  0  0  0  0  0  0  0
   59.9430   34.1060   47.4110 C   0  0  0  0  0  0  0  0  0  0  0  0
   59.2870   34.9730   48.0510 O   0  0  0  0  0  0  0  0  0  0  0  0
   59.4380   33.6040   46.0680 C   0  0  2  0  0  0  0  0  0  0  0  0
   58.4040   34.5850   45.4600 C   0  0  0  0  0  0  0  0  0  0  0  0
   57.4180   33.9000   44.4980 C   0  0  0  0  0  0  0  0  0  0  0  0
   58.0530   32.6740   43.8290 C   0  0  0  0  0  0  0  0  0  0  0  0
   58.4950   31.6460   44.8140 N   0  0  2  0  0  0  0  0  0  0  0  0
   57.5120   30.5880   44.9540 C   0  0  0  0  0  0  0  0  0  0  0  0
   56.2810   30.8550   44.8590 O   0  0  0  0  0  0  0  0  0  0  0  0
   57.9220   29.2070   45.2870 C   0  0  0  0  0  0  0  0  0  0  0  0
   59.2500   28.7790   45.2570 C   0  0  0  0  0  0  0  0  0  0  0  0
   59.2810   27.1560   45.6980 S   0  0  0  0  0  0  0  0  0  0  0  0
   57.6150   27.0620   45.8870 C   0  0  0  0  0  0  0  0  0  0  0  0
   56.8790   25.8570   46.3620 C   0  0  0  0  0  0  0  0  0  0  0  0
   57.0220   28.2500   45.6450 N   0  0  0  0  0  0  0  0  0  0  0  0
   58.8260   32.1890   46.1580 C   0  0  0  0  0  0  0  0  0  0  0  0
   61.3730   33.3080   49.3600 C   0  0  0  0  0  0  0  0  0  0  0  0
   60.2550   33.4860   50.3520 C   0  0  0  0  0  0  0  0  0  0  0  0
   62.6010   32.7980   49.8160 C   0  0  0  0  0  0  0  0  0  0  0  0
   65.6673   32.7252   51.2046 H   0  0  0  0  0  0  0  0  0  0  0  0
   66.8916   32.5422   49.9029 H   0  0  0  0  0  0  0  0  0  0  0  0
   65.7853   33.9574   49.9029 H   0  0  0  0  0  0  0  0  0  0  0  0
   64.3890   32.9075   46.9050 H   0  0  0  0  0  0  0  0  0  0  0  0
   62.2176   33.7755   46.0675 H   0  0  0  0  0  0  0  0  0  0  0  0
   60.3163   33.5475   45.4082 H   0  0  0  0  0  0  0  0  0  0  0  0
   57.8320   35.0438   46.2800 H   0  0  0  0  0  0  0  0  0  0  0  0
   58.9630   35.3338   44.8796 H   0  0  0  0  0  0  0  0  0  0  0  0
   56.5299   33.5803   45.0628 H   0  0  0  0  0  0  0  0  0  0  0  0
   57.1417   34.6197   43.7133 H   0  0  0  0  0  0  0  0  0  0  0  0
   57.3136   32.2192   43.1534 H   0  0  0  0  0  0  0  0  0  0  0  0
   58.9447   33.0172   43.2840 H   0  0  0  0  0  0  0  0  0  0  0  0
   59.3720   31.2300   44.4220 H   0  0  0  0  0  0  0  0  0  0  0  0
   60.1224   29.3943   44.9918 H   0  0  0  0  0  0  0  0  0  0  0  0
   56.8702   25.8426   47.4619 H   0  0  0  0  0  0  0  0  0  0  0  0
   55.8452   25.8875   45.9874 H   0  0  0  0  0  0  0  0  0  0  0  0
   57.3782   24.9512   45.9874 H   0  0  0  0  0  0  0  0  0  0  0  0
   57.9064   32.2360   46.7598 H   0  0  0  0  0  0  0  0  0  0  0  0
   59.5682   31.5236   46.6232 H   0  0  0  0  0  0  0  0  0  0  0  0
   60.6576   33.4219   51.3736 H   0  0  0  0  0  0  0  0  0  0  0  0
   59.7864   34.4701   50.2037 H   0  0  0  0  0  0  0  0  0  0  0  0
   59.5039   32.6961   50.2037 H   0  0  0  0  0  0  0  0  0  0  0  0
   62.7122   32.5127   50.8725 H   0  0  0  0  0  0  0  0  0  0  0  0
  1  2  1  0
  2  3  1  0
  3  4  2  0
  4  5  1  0
  5  6  2  0
  6  7  1  0
  7  8  2  0
  7  9  1  0
  9 10  1  0
 10 11  1  0
 11 12  1  0
 12 13  1  0
 13 14  1  0
 14 15  2  0
 14 16  1  0
 16 17  2  0
 17 18  1  0
 18 19  1  0
 19 20  1  0
 19 21  2  0
 13 22  1  0
  6 23  1  0
 23 24  1  0
 23 25  2  0
 25  3  1  0
 22  9  1  0
 21 16  1  0
  1 26  1  0
  1 27  1  0
  1 28  1  0
  4 29  1  0
  5 30  1  0
  9 31  1  6
 10 32  1  0
 10 33  1  0
 11 34  1  0
 11 35  1  0
 12 36  1  0
 12 37  1  0
 13 38  1  6
 17 39  1  0
 20 40  1  0
 20 41  1  0
 20 42  1  0
 22 43  1  0
 22 44  1  0
 24 45  1  0
 24 46  1  0
 24 47  1  0
 25 48  1  0
M  CHG  1  13   1
M  END
>  <UniqueID>  (37) 
34

>  <SMILES>  (37) 
COc1ccc(C(=O)[C@@H]2CCC[N@H+](C(=O)c3csc(C)n3)C2)c(C)c1

>  <Energy>  (37) 
93.67278567189081

>  <Genealogy>  (37) 
COc1ccc(C(=O)C2CCC[NH+](C(=O)c3csc(C)n3)C2)c(C)c1 (protonated)
COc1ccc(C(=O)[C@@H]2CCC[N@H+](C(=O)c3csc(C)n3)C2)c(C)c1 (chirality)
COc1ccc(C(=O)[C@@H]2CCC[N@H+](C(=O)c3csc(C)n3)C2)c(C)c1 (3D coordinates assigned)
COc1ccc(C(=O)[C@@H]2CCC[N@H+](C(=O)c3csc(C)n3)C2)c(C)c1 (nonaromatic ring conformer: 93.67278567189081 kcal/mol)

>  <smiles>  (37) 
COc1ccc(C(=O)C2CCCN(C(=O)c3csc(C)n3)C2)c(C)c1

>  <score_type>  (37) 
oracle

>  <origin>  (37) 
adg

>  <m_score__min__energy>  (37) 
-6.9400000000000004

>  <m_primary>  (37) 
energy

$$$$
37:0
     RDKit          3D

 46 49  0  0  0  0  0  0  0  0999 V2000
   64.5410   33.0490   49.1640 C   0  0  0  0  0  0  0  0  0  0  0  0
   63.2870   33.3670   48.4600 N   0  0  0  0  0  0  0  0  0  0  0  0
   63.3360   33.5300   47.1030 C   0  0  0  0  0  0  0  0  0  0  0  0
   62.1920   33.8240   46.3710 C   0  0  0  0  0  0  0  0  0  0  0  0
   60.9630   33.9700   47.0170 C   0  0  0  0  0  0  0  0  0  0  0  0
   59.7790   34.2180   46.2380 N   0  0  0  0  0  0  0  0  0  0  0  0
   58.9190   33.1790   45.7350 C   0  0  0  0  0  0  0  0  0  0  0  0
   58.2820   33.2970   44.4870 C   0  0  0  0  0  0  0  0  0  0  0  0
   57.4370   32.2840   44.0260 C   0  0  0  0  0  0  0  0  0  0  0  0
   57.2040   31.1370   44.8070 C   0  0  0  0  0  0  0  0  0  0  0  0
   56.3090   30.0600   44.3180 C   0  0  0  0  0  0  0  0  0  0  0  0
   55.8750   30.0940   43.1350 O   0  0  0  0  0  0  0  0  0  0  0  0
   55.9800   28.9560   45.1740 N   0  0  0  0  0  0  0  0  0  0  0  0
   56.8380   27.8610   45.5250 C   0  0  0  0  0  0  0  0  0  0  0  0
   58.2310   27.9100   45.3270 C   0  0  0  0  0  0  0  0  0  0  0  0
   59.0260   26.8080   45.6600 C   0  0  0  0  0  0  0  0  0  0  0  0
   58.4410   25.6510   46.1790 C   0  0  0  0  0  0  0  0  0  0  0  0
   57.0560   25.5880   46.3550 C   0  0  0  0  0  0  0  0  0  0  0  0
   56.2570   26.6860   46.0220 C   0  0  0  0  0  0  0  0  0  0  0  0
   57.8310   31.0300   46.0610 C   0  0  0  0  0  0  0  0  0  0  0  0
   58.6750   32.0460   46.5210 C   0  0  0  0  0  0  0  0  0  0  0  0
   60.8990   33.8070   48.4150 C   0  0  0  0  0  0  0  0  0  0  0  0
   59.6850   33.9670   49.1150 C   0  0  0  0  0  0  0  0  0  0  0  0
   59.6370   33.8040   50.4980 C   0  0  0  0  0  0  0  0  0  0  0  0
   60.7930   33.4890   51.2060 C   0  0  0  0  0  0  0  0  0  0  0  0
   62.0090   33.3400   50.5390 C   0  0  0  0  0  0  0  0  0  0  0  0
   62.0910   33.4990   49.1350 C   0  0  0  0  0  0  0  0  0  0  0  0
   64.3727   33.0917   50.2502 H   0  0  0  0  0  0  0  0  0  0  0  0
   64.8727   32.0383   48.8838 H   0  0  0  0  0  0  0  0  0  0  0  0
   65.3142   33.7795   48.8838 H   0  0  0  0  0  0  0  0  0  0  0  0
   64.2989   33.4264   46.5813 H   0  0  0  0  0  0  0  0  0  0  0  0
   62.2550   33.9421   45.2792 H   0  0  0  0  0  0  0  0  0  0  0  0
   59.4960   35.2120   46.0830 H   0  0  0  0  0  0  0  0  0  0  0  0
   58.4498   34.1920   43.8699 H   0  0  0  0  0  0  0  0  0  0  0  0
   56.9501   32.3841   43.0447 H   0  0  0  0  0  0  0  0  0  0  0  0
   58.6950   28.8160   44.9099 H   0  0  0  0  0  0  0  0  0  0  0  0
   60.1151   26.8530   45.5126 H   0  0  0  0  0  0  0  0  0  0  0  0
   59.0699   24.7899   46.4491 H   0  0  0  0  0  0  0  0  0  0  0  0
   56.5941   24.6737   46.7559 H   0  0  0  0  0  0  0  0  0  0  0  0
   55.1661   26.6275   46.1507 H   0  0  0  0  0  0  0  0  0  0  0  0
   57.6565   30.1409   46.6847 H   0  0  0  0  0  0  0  0  0  0  0  0
   59.1511   31.9543   47.5084 H   0  0  0  0  0  0  0  0  0  0  0  0
   58.7678   34.2228   48.5642 H   0  0  0  0  0  0  0  0  0  0  0  0
   58.6827   33.9246   51.0317 H   0  0  0  0  0  0  0  0  0  0  0  0
   60.7476   33.3569   52.2971 H   0  0  0  0  0  0  0  0  0  0  0  0
   62.9159   33.0958   51.1116 H   0  0  0  0  0  0  0  0  0  0  0  0
  1  2  1  0
  2  3  2  0
  3  4  1  0
  4  5  2  0
  5  6  1  0
  6  7  1  0
  7  8  2  0
  8  9  1  0
  9 10  2  0
 10 11  1  0
 11 12  2  0
 11 13  1  0
 13 14  1  0
 14 15  2  0
 15 16  1  0
 16 17  2  0
 17 18  1  0
 18 19  2  0
 10 20  1  0
 20 21  2  0
  5 22  1  0
 22 23  2  0
 23 24  1  0
 24 25  2  0
 25 26  1  0
 26 27  2  0
 27  2  1  0
 21  7  1  0
 27 22  1  0
 19 14  1  0
  1 28  1  0
  1 29  1  0
  1 30  1  0
  3 31  1  0
  4 32  1  0
  6 33  1  0
  8 34  1  0
  9 35  1  0
 15 36  1  0
 16 37  1  0
 17 38  1  0
 18 39  1  0
 19 40  1  0
 20 41  1  0
 21 42  1  0
 23 43  1  0
 24 44  1  0
 25 45  1  0
 26 46  1  0
M  CHG  2   2   1  13  -1
M  END
>  <UniqueID>  (38) 
35

>  <SMILES>  (38) 
C[n+]1ccc(Nc2ccc(C(=O)[N-]c3ccccc3)cc2)c2ccccc21

>  <Energy>  (38) 
69.82031477603218

>  <Genealogy>  (38) 
C[n+]1ccc(Nc2ccc(C(=O)[N-]c3ccccc3)cc2)c2ccccc21 (protonated)
C[n+]1ccc(Nc2ccc(C(=O)[N-]c3ccccc3)cc2)c2ccccc21 (3D coordinates assigned)
C[n+]1ccc(Nc2ccc(C(=O)[N-]c3ccccc3)cc2)c2ccccc21 (optimized conformer: 69.82031477603218 kcal/mol)

>  <smiles>  (38) 
C[n+]1ccc(Nc2ccc(C(=O)Nc3ccccc3)cc2)c2ccccc21

>  <score_type>  (38) 
oracle

>  <origin>  (38) 
adg

>  <m_score__min__energy>  (38) 
-9.1799999999999997

>  <m_primary>  (38) 
energy

$$$$
38:0
     RDKit          3D

 41 43  0  0  0  0  0  0  0  0999 V2000
   55.2993   23.7490   44.0054 H   0  0  0  0  0  0  0  0  0  0  0  0
   56.0080   22.9250   44.1750 C   0  0  0  0  0  0  0  0  0  0  0  0
   56.6210   22.2970   43.0900 C   0  0  0  0  0  0  0  0  0  0  0  0
   56.4045   22.6268   42.0632 H   0  0  0  0  0  0  0  0  0  0  0  0
   57.5110   21.2470   43.3190 C   0  0  0  0  0  0  0  0  0  0  0  0
   58.0017   20.7481   42.4703 H   0  0  0  0  0  0  0  0  0  0  0  0
   57.7730   20.8390   44.5910 N   0  0  0  0  0  0  0  0  0  0  0  0
   58.4380   20.0480   44.7460 H   0  0  0  0  0  0  0  0  0  0  0  0
   57.1880   21.4370   45.6650 C   0  0  0  0  0  0  0  0  0  0  0  0
   57.4155   21.0815   46.6808 H   0  0  0  0  0  0  0  0  0  0  0  0
   56.2960   22.5050   45.4820 C   0  0  0  0  0  0  0  0  0  0  0  0
   55.6330   23.1690   46.6600 C   0  0  0  0  0  0  0  0  0  0  0  0
   56.2070   22.9430   47.5707 H   0  0  0  0  0  0  0  0  0  0  0  0
   54.6060   22.7848   46.7474 H   0  0  0  0  0  0  0  0  0  0  0  0
   55.5750   24.6210   46.4780 N   0  0  0  0  0  0  0  0  0  0  0  0
   56.5790   25.4350   46.2990 C   0  0  0  0  0  0  0  0  0  0  0  0
   56.3080   26.7610   45.9410 C   0  0  0  0  0  0  0  0  0  0  0  0
   55.2665   27.0956   45.8251 H   0  0  0  0  0  0  0  0  0  0  0  0
   57.3630   27.6670   45.7290 C   0  0  0  0  0  0  0  0  0  0  0  0
   57.1170   29.0400   45.3550 N   0  0  0  0  0  0  0  0  0  0  0  0
   57.7900   30.1460   46.0500 C   0  0  0  0  0  0  0  0  0  0  0  0
   57.2141   30.4140   46.9481 H   0  0  0  0  0  0  0  0  0  0  0  0
   58.8036   29.8261   46.3334 H   0  0  0  0  0  0  0  0  0  0  0  0
   57.8920   31.3680   45.1320 C   0  0  0  0  0  0  0  0  0  0  0  0
   58.2582   32.2263   45.7144 H   0  0  0  0  0  0  0  0  0  0  0  0
   58.5877   31.1347   44.3125 H   0  0  0  0  0  0  0  0  0  0  0  0
   56.6320   31.6890   44.5770 O   0  0  0  0  0  0  0  0  0  0  0  0
   56.2140   30.6440   43.7200 C   0  0  0  0  0  0  0  0  0  0  0  0
   55.2871   30.9451   43.2099 H   0  0  0  0  0  0  0  0  0  0  0  0
   57.0100   30.4507   42.9859 H   0  0  0  0  0  0  0  0  0  0  0  0
   55.9560   29.3600   44.5130 C   0  0  0  0  0  0  0  0  0  0  0  0
   55.0715   29.4994   45.1519 H   0  0  0  0  0  0  0  0  0  0  0  0
   55.7849   28.5323   43.8090 H   0  0  0  0  0  0  0  0  0  0  0  0
   58.6450   27.2310   45.8710 N   0  0  0  0  0  0  0  0  0  0  0  0
   58.9480   25.9530   46.2210 C   0  0  0  0  0  0  0  0  0  0  0  0
   60.3780   25.5390   46.3630 C   0  0  0  0  0  0  0  0  0  0  0  0
   60.6340   25.4649   47.4302 H   0  0  0  0  0  0  0  0  0  0  0  0
   60.5261   24.5611   45.8816 H   0  0  0  0  0  0  0  0  0  0  0  0
   61.0257   26.2865   45.8816 H   0  0  0  0  0  0  0  0  0  0  0  0
   57.9200   25.0300   46.4470 C   0  0  0  0  0  0  0  0  0  0  0  0
   58.1577   23.9962   46.7380 H   0  0  0  0  0  0  0  0  0  0  0  0
  1  2  1  0
  2  3  2  0
  3  4  1  0
  3  5  1  0
  5  6  1  0
  5  7  2  0
  7  8  1  0
  7  9  1  0
  9 10  1  0
  9 11  2  0
 11 12  1  0
 12 13  1  0
 12 14  1  0
 12 15  1  0
 15 16  2  0
 16 17  1  0
 17 18  1  0
 17 19  2  0
 19 20  1  0
 20 21  1  0
 21 22  1  0
 21 23  1  0
 21 24  1  0
 24 25  1  0
 24 26  1  0
 24 27  1  0
 27 28  1  0
 28 29  1  0
 28 30  1  0
 28 31  1  0
 31 32  1  0
 31 33  1  0
 19 34  1  0
 34 35  1  0
 35 36  1  0
 36 37  1  0
 36 38  1  0
 36 39  1  0
 35 40  2  0
 40 41  1  0
 11  2  1  0
 40 16  1  0
 31 20  1  0
M  CHG  2   7   1  34  -1
M  END
>  <UniqueID>  (39) 
36

>  <SMILES>  (39) 
Cc1c/c(=N\Cc2ccc[nH+]c2)cc(N2CCOCC2)[n-]1

>  <Energy>  (39) 
47.033093793941894

>  <Genealogy>  (39) 
Cc1cc(=NCc2ccc[nH+]c2)cc(N2CCOCC2)[n-]1 (protonated)
Cc1c/c(=N\Cc2ccc[nH+]c2)cc(N2CCOCC2)[n-]1 (cis-trans isomerization)
Cc1c/c(=N\Cc2ccc[nH+]c2)cc(N2CCOCC2)[n-]1 (3D coordinates assigned)
Cc1c/c(=N\Cc2ccc[nH+]c2)cc(N2CCOCC2)[n-]1 (nonaromatic ring conformer: 47.033093793941894 kcal/mol)

>  <smiles>  (39) 
Cc1cc(=NCc2cccnc2)cc(N2CCOCC2)[nH]1

>  <score_type>  (39) 
oracle

>  <origin>  (39) 
adg

>  <m_score__min__energy>  (39) 
-6.96

>  <m_primary>  (39) 
energy

$$$$
39:0
     RDKit          3D

 44 49  0  0  0  0  0  0  0  0999 V2000
   64.6040   33.0960   49.4060 C   0  0  0  0  0  0  0  0  0  0  0  0
   63.7080   32.7100   50.4080 C   0  0  0  0  0  0  0  0  0  0  0  0
   62.3710   32.7030   50.1630 N   0  0  0  0  0  0  0  0  0  0  0  0
   61.8630   33.0660   48.9550 C   0  0  0  0  0  0  0  0  0  0  0  0
   60.4810   33.0510   48.7390 C   0  0  0  0  0  0  0  0  0  0  0  0
   59.9530   33.4260   47.4930 C   0  0  0  0  0  0  0  0  0  0  0  0
   58.4630   33.4540   47.2820 C   0  0  0  0  0  0  0  0  0  0  0  0
   58.1250   33.1600   45.8510 C   0  0  0  0  0  0  0  0  0  0  0  0
   57.9920   34.0990   44.8840 N   0  0  0  0  0  0  0  0  0  0  0  0
   57.6750   33.4690   43.7520 N   0  0  0  0  0  0  0  0  0  0  0  0
   57.6200   32.1580   44.0570 C   0  0  0  0  0  0  0  0  0  0  0  0
   57.3280   31.0970   43.2140 C   0  0  0  0  0  0  0  0  0  0  0  0
   57.3420   29.8100   43.7790 C   0  0  0  0  0  0  0  0  0  0  0  0
   57.6520   29.6380   45.1560 C   0  0  0  0  0  0  0  0  0  0  0  0
   57.6950   28.2970   45.7960 C   0  0  0  0  0  0  0  0  0  0  0  0
   58.8910   27.8580   46.4280 C   0  0  0  0  0  0  0  0  0  0  0  0
   58.9670   26.5860   47.0240 C   0  0  0  0  0  0  0  0  0  0  0  0
   57.8410   25.7750   46.9680 C   0  0  0  0  0  0  0  0  0  0  0  0
   56.6960   26.1760   46.3610 C   0  0  0  0  0  0  0  0  0  0  0  0
   56.5770   27.4260   45.7600 C   0  0  0  0  0  0  0  0  0  0  0  0
   55.7530   25.1710   46.4500 O   0  0  0  0  0  0  0  0  0  0  0  0
   56.3410   24.0710   47.1580 C   0  0  0  0  0  0  0  0  0  0  0  0
   57.6740   24.4980   47.4700 O   0  0  0  0  0  0  0  0  0  0  0  0
   57.9150   30.7450   45.9140 N   0  0  0  0  0  0  0  0  0  0  0  0
   57.8890   31.9450   45.3410 N   0  0  0  0  0  0  0  0  0  0  0  0
   60.8250   33.8220   46.4630 C   0  0  0  0  0  0  0  0  0  0  0  0
   62.2070   33.8410   46.6720 C   0  0  0  0  0  0  0  0  0  0  0  0
   62.7340   33.4640   47.9140 C   0  0  0  0  0  0  0  0  0  0  0  0
   64.1140   33.4740   48.1540 C   0  0  0  0  0  0  0  0  0  0  0  0
   65.6863   33.1018   49.6025 H   0  0  0  0  0  0  0  0  0  0  0  0
   64.0862   32.4113   51.3968 H   0  0  0  0  0  0  0  0  0  0  0  0
   59.8040   32.7437   49.5497 H   0  0  0  0  0  0  0  0  0  0  0  0
   57.9926   32.6972   47.9270 H   0  0  0  0  0  0  0  0  0  0  0  0
   58.0887   34.4569   47.5351 H   0  0  0  0  0  0  0  0  0  0  0  0
   57.0957   31.2552   42.1505 H   0  0  0  0  0  0  0  0  0  0  0  0
   57.1126   28.9340   43.1545 H   0  0  0  0  0  0  0  0  0  0  0  0
   59.7680   28.5216   46.4511 H   0  0  0  0  0  0  0  0  0  0  0  0
   59.8885   26.2448   47.5184 H   0  0  0  0  0  0  0  0  0  0  0  0
   55.6402   27.7299   45.2701 H   0  0  0  0  0  0  0  0  0  0  0  0
   55.7778   23.8590   48.0788 H   0  0  0  0  0  0  0  0  0  0  0  0
   56.3330   23.1460   46.5628 H   0  0  0  0  0  0  0  0  0  0  0  0
   60.4165   34.1189   45.4858 H   0  0  0  0  0  0  0  0  0  0  0  0
   62.8813   34.1522   45.8605 H   0  0  0  0  0  0  0  0  0  0  0  0
   64.8099   33.7788   47.3585 H   0  0  0  0  0  0  0  0  0  0  0  0
  1  2  2  0
  2  3  1  0
  3  4  2  0
  4  5  1  0
  5  6  2  0
  6  7  1  0
  7  8  1  0
  8  9  2  0
  9 10  1  0
 10 11  2  0
 11 12  1  0
 12 13  2  0
 13 14  1  0
 14 15  1  0
 15 16  2  0
 16 17  1  0
 17 18  2  0
 18 19  1  0
 19 20  2  0
 19 21  1  0
 21 22  1  0
 22 23  1  0
 14 24  2  0
 24 25  1  0
  6 26  1  0
 26 27  2  0
 27 28  1  0
 28 29  2  0
 29  1  1  0
 28  4  1  0
 25  8  1  0
 25 11  1  0
 20 15  1  0
 23 18  1  0
  1 30  1  0
  2 31  1  0
  5 32  1  0
  7 33  1  0
  7 34  1  0
 12 35  1  0
 13 36  1  0
 16 37  1  0
 17 38  1  0
 20 39  1  0
 22 40  1  0
 22 41  1  0
 26 42  1  0
 27 43  1  0
 29 44  1  0
M  END
>  <UniqueID>  (40) 
37

>  <SMILES>  (40) 
c1cnc2cc(Cc3nnc4ccc(-c5ccc6c(c5)OCO6)nn34)ccc2c1

>  <Energy>  (40) 
127.95454479920387

>  <Genealogy>  (40) 
c1cnc2cc(Cc3nnc4ccc(-c5ccc6c(c5)OCO6)nn34)ccc2c1 (3D coordinates assigned)
c1cnc2cc(Cc3nnc4ccc(-c5ccc6c(c5)OCO6)nn34)ccc2c1 (nonaromatic ring conformer: 127.95454479920387 kcal/mol)

>  <smiles>  (40) 
c1cnc2cc(Cc3nnc4ccc(-c5ccc6c(c5)OCO6)nn34)ccc2c1

>  <score_type>  (40) 
oracle

>  <origin>  (40) 
adg

>  <m_score__min__energy>  (40) 
-9.6500000000000004

>  <m_primary>  (40) 
energy

$$$$
40:0
     RDKit          3D

 34 36  0  0  0  0  0  0  0  0999 V2000
   65.8390   32.3730   50.1140 C   0  0  0  0  0  0  0  0  0  0  0  0
   64.8380   33.3830   50.1420 O   0  0  0  0  0  0  0  0  0  0  0  0
   63.7650   33.4620   49.2410 C   0  0  0  0  0  0  0  0  0  0  0  0
   62.5410   33.9510   49.7050 C   0  0  0  0  0  0  0  0  0  0  0  0
   61.4410   34.0510   48.8480 C   0  0  0  0  0  0  0  0  0  0  0  0
   61.5500   33.6630   47.4990 C   0  0  0  0  0  0  0  0  0  0  0  0
   60.3920   33.7510   46.5710 C   0  0  0  0  0  0  0  0  0  0  0  0
   59.9910   34.9660   45.9990 C   0  0  0  0  0  0  0  0  0  0  0  0
   58.8940   34.9730   45.1410 C   0  0  0  0  0  0  0  0  0  0  0  0
   58.2370   33.8170   44.8600 N   0  0  0  0  0  0  0  0  0  0  0  0
   58.6450   32.6320   45.4000 C   0  0  0  0  0  0  0  0  0  0  0  0
   57.9450   31.3590   45.0950 C   0  0  0  0  0  0  0  0  0  0  0  0
   58.5790   30.1280   45.3360 C   0  0  0  0  0  0  0  0  0  0  0  0
   57.9240   28.9300   45.0440 C   0  0  0  0  0  0  0  0  0  0  0  0
   56.6400   28.9680   44.5020 C   0  0  0  0  0  0  0  0  0  0  0  0
   56.0400   30.1620   44.2580 N   0  0  0  0  0  0  0  0  0  0  0  0
   56.6530   31.3430   44.5360 C   0  0  0  0  0  0  0  0  0  0  0  0
   59.7090   32.6190   46.2490 N   0  0  0  0  0  0  0  0  0  0  0  0
   62.7790   33.1590   47.0380 C   0  0  0  0  0  0  0  0  0  0  0  0
   63.8780   33.0620   47.8970 C   0  0  0  0  0  0  0  0  0  0  0  0
   66.1114   32.0981   51.1437 H   0  0  0  0  0  0  0  0  0  0  0  0
   65.4520   31.4876   49.5883 H   0  0  0  0  0  0  0  0  0  0  0  0
   66.7278   32.7521   49.5883 H   0  0  0  0  0  0  0  0  0  0  0  0
   62.4419   34.2606   50.7559 H   0  0  0  0  0  0  0  0  0  0  0  0
   60.4839   34.4354   49.2302 H   0  0  0  0  0  0  0  0  0  0  0  0
   60.5326   35.8967   46.2235 H   0  0  0  0  0  0  0  0  0  0  0  0
   58.5580   35.9179   44.6890 H   0  0  0  0  0  0  0  0  0  0  0  0
   57.3990   33.8660   44.2380 H   0  0  0  0  0  0  0  0  0  0  0  0
   59.5953   30.1083   45.7564 H   0  0  0  0  0  0  0  0  0  0  0  0
   58.4161   27.9658   45.2396 H   0  0  0  0  0  0  0  0  0  0  0  0
   56.1125   28.0306   44.2718 H   0  0  0  0  0  0  0  0  0  0  0  0
   56.1370   32.2909   44.3231 H   0  0  0  0  0  0  0  0  0  0  0  0
   62.8769   32.8376   45.9906 H   0  0  0  0  0  0  0  0  0  0  0  0
   64.8348   32.6713   47.5204 H   0  0  0  0  0  0  0  0  0  0  0  0
  1  2  1  0
  2  3  1  0
  3  4  2  0
  4  5  1  0
  5  6  2  0
  6  7  1  0
  7  8  2  0
  8  9  1  0
  9 10  2  0
 10 11  1  0
 11 12  1  0
 12 13  2  0
 13 14  1  0
 14 15  2  0
 15 16  1  0
 16 17  2  0
 11 18  2  0
  6 19  1  0
 19 20  2  0
 20  3  1  0
 18  7  1  0
 17 12  1  0
  1 21  1  0
  1 22  1  0
  1 23  1  0
  4 24  1  0
  5 25  1  0
  8 26  1  0
  9 27  1  0
 10 28  1  0
 13 29  1  0
 14 30  1  0
 15 31  1  0
 17 32  1  0
 19 33  1  0
 20 34  1  0
M  CHG  1  10   1
M  END
>  <UniqueID>  (41) 
38

>  <SMILES>  (41) 
COc1ccc(-c2cc[nH+]c(-c3cccnc3)n2)cc1

>  <Energy>  (41) 
44.651078034336315

>  <Genealogy>  (41) 
COc1ccc(-c2cc[nH+]c(-c3cccnc3)n2)cc1 (protonated)
COc1ccc(-c2cc[nH+]c(-c3cccnc3)n2)cc1 (3D coordinates assigned)
COc1ccc(-c2cc[nH+]c(-c3cccnc3)n2)cc1 (optimized conformer: 44.651078034336315 kcal/mol)

>  <smiles>  (41) 
COc1ccc(-c2ccnc(-c3cccnc3)n2)cc1

>  <score_type>  (41) 
oracle

>  <origin>  (41) 
adg

>  <m_score__min__energy>  (41) 
-5.4500000000000002

>  <m_primary>  (41) 
energy

$$$$
41:0
     RDKit          3D

 30 29  0  0  0  0  0  0  0  0999 V2000
   57.3790   32.6260   40.7310 C   0  0  0  0  0  0  0  0  0  0  0  0
   57.8190   32.2790   42.1500 C   0  0  0  0  0  0  0  0  0  0  0  0
   57.0360   31.0760   42.6950 C   0  0  0  0  0  0  0  0  0  0  0  0
   56.7730   31.2030   44.2100 C   0  0  2  0  0  0  0  0  0  0  0  0
   57.8530   31.9330   44.8860 N   0  0  0  0  0  0  0  0  0  0  0  0
   57.8080   33.3330   45.2060 C   0  0  0  0  0  0  0  0  0  0  0  0
   56.8140   34.0360   44.8780 O   0  0  0  0  0  0  0  0  0  0  0  0
   58.9570   33.9660   45.9300 C   0  0  0  0  0  0  0  0  0  0  0  0
   60.0240   33.0890   46.0110 F   0  0  0  0  0  0  0  0  0  0  0  0
   59.3580   35.1030   45.2540 F   0  0  0  0  0  0  0  0  0  0  0  0
   58.5600   34.3130   47.2090 F   0  0  0  0  0  0  0  0  0  0  0  0
   56.5570   29.8650   44.8640 C   0  0  0  0  0  0  0  0  0  0  0  0
   55.4000   29.3620   44.8690 O   0  0  0  0  0  0  0  0  0  0  0  0
   57.6200   29.2070   45.4960 O   0  0  0  0  0  0  0  0  0  0  0  0
   58.6880   28.5810   44.7890 C   0  0  0  0  0  0  0  0  0  0  0  0
   58.1460   27.6110   43.7450 C   0  0  0  0  0  0  0  0  0  0  0  0
   56.5158   33.3067   40.7709 H   0  0  0  0  0  0  0  0  0  0  0  0
   58.2081   33.1160   40.1995 H   0  0  0  0  0  0  0  0  0  0  0  0
   57.0958   31.7055   40.1995 H   0  0  0  0  0  0  0  0  0  0  0  0
   58.8918   32.0360   42.1438 H   0  0  0  0  0  0  0  0  0  0  0  0
   57.6217   33.1458   42.7979 H   0  0  0  0  0  0  0  0  0  0  0  0
   56.0714   31.0115   42.1702 H   0  0  0  0  0  0  0  0  0  0  0  0
   57.6384   30.1711   42.5270 H   0  0  0  0  0  0  0  0  0  0  0  0
   55.8433   31.7813   44.3161 H   0  0  0  0  0  0  0  0  0  0  0  0
   58.7100   31.3960   45.1450 H   0  0  0  0  0  0  0  0  0  0  0  0
   59.2903   29.3526   44.2871 H   0  0  0  0  0  0  0  0  0  0  0  0
   59.3068   28.0208   45.5055 H   0  0  0  0  0  0  0  0  0  0  0  0
   57.6693   26.7578   44.2497 H   0  0  0  0  0  0  0  0  0  0  0  0
   57.4048   28.1258   43.1160 H   0  0  0  0  0  0  0  0  0  0  0  0
   58.9729   27.2496   43.1160 H   0  0  0  0  0  0  0  0  0  0  0  0
  1  2  1  0
  2  3  1  0
  3  4  1  0
  4  5  1  0
  5  6  1  0
  6  7  2  0
  6  8  1  0
  8  9  1  0
  8 10  1  0
  8 11  1  0
  4 12  1  0
 12 13  2  0
 12 14  1  0
 14 15  1  0
 15 16  1  0
  1 17  1  0
  1 18  1  0
  1 19  1  0
  2 20  1  0
  2 21  1  0
  3 22  1  0
  3 23  1  0
  4 24  1  6
  5 25  1  0
 15 26  1  0
 15 27  1  0
 16 28  1  0
 16 29  1  0
 16 30  1  0
M  END
>  <UniqueID>  (42) 
39

>  <SMILES>  (42) 
CCC[C@H](NC(=O)C(F)(F)F)C(=O)OCC

>  <Energy>  (42) 
12.261616704722227

>  <Genealogy>  (42) 
CCC[C@H](NC(=O)C(F)(F)F)C(=O)OCC (chirality)
CCC[C@H](NC(=O)C(F)(F)F)C(=O)OCC (3D coordinates assigned)
CCC[C@H](NC(=O)C(F)(F)F)C(=O)OCC (optimized conformer: 12.261616704722227 kcal/mol)

>  <smiles>  (42) 
CCCC(NC(=O)C(F)(F)F)C(=O)OCC

>  <score_type>  (42) 
oracle

>  <origin>  (42) 
adg

>  <m_score__min__energy>  (42) 
-4.3600000000000003

>  <m_primary>  (42) 
energy

$$$$
42:0
     RDKit          3D

 36 39  0  0  0  0  0  0  0  0999 V2000
   55.3350   23.6740   46.3780 C   0  0  0  0  0  0  0  0  0  0  0  0
   55.9010   24.8770   46.9810 N   0  0  0  0  0  0  0  0  0  0  0  0
   56.9300   25.6700   46.3600 C   0  0  0  0  0  0  0  0  0  0  0  0
   58.2640   25.2450   46.4400 C   0  0  0  0  0  0  0  0  0  0  0  0
   59.2830   25.9930   45.8460 C   0  0  0  0  0  0  0  0  0  0  0  0
   58.9820   27.1760   45.1680 C   0  0  0  0  0  0  0  0  0  0  0  0
   57.6540   27.6250   45.0780 C   0  0  0  0  0  0  0  0  0  0  0  0
   57.3380   28.8840   44.3630 C   0  0  0  0  0  0  0  0  0  0  0  0
   56.7150   28.9800   43.1550 N   0  0  0  0  0  0  0  0  0  0  0  0
   56.6650   30.2650   42.7870 N   0  0  0  0  0  0  0  0  0  0  0  0
   57.2480   30.9190   43.8070 C   0  0  0  0  0  0  0  0  0  0  0  0
   57.7350   32.5010   44.0480 S   0  0  0  0  0  0  0  0  0  0  0  0
   58.5150   31.9990   45.5100 C   0  0  0  0  0  0  0  0  0  0  0  0
   59.2680   32.8900   46.4220 C   0  0  0  0  0  0  0  0  0  0  0  0
   58.5800   33.7980   47.2490 C   0  0  0  0  0  0  0  0  0  0  0  0
   59.2830   34.6440   48.1110 C   0  0  0  0  0  0  0  0  0  0  0  0
   60.6770   34.5940   48.1600 C   0  0  0  0  0  0  0  0  0  0  0  0
   61.3740   33.6980   47.3460 C   0  0  0  0  0  0  0  0  0  0  0  0
   63.1260   33.6360   47.4090 Cl  0  0  0  0  0  0  0  0  0  0  0  0
   60.6740   32.8480   46.4800 C   0  0  0  0  0  0  0  0  0  0  0  0
   58.3910   30.6560   45.7230 N   0  0  0  0  0  0  0  0  0  0  0  0
   57.6580   30.1210   44.7580 N   0  0  0  0  0  0  0  0  0  0  0  0
   56.6320   26.8620   45.6710 C   0  0  0  0  0  0  0  0  0  0  0  0
   55.0105   22.9842   47.1710 H   0  0  0  0  0  0  0  0  0  0  0  0
   54.4713   23.9480   45.7543 H   0  0  0  0  0  0  0  0  0  0  0  0
   56.0967   23.1833   45.7543 H   0  0  0  0  0  0  0  0  0  0  0  0
   55.5220   25.1770   47.9080 H   0  0  0  0  0  0  0  0  0  0  0  0
   58.5097   24.3156   46.9746 H   0  0  0  0  0  0  0  0  0  0  0  0
   60.3258   25.6492   45.9125 H   0  0  0  0  0  0  0  0  0  0  0  0
   59.7894   27.7597   44.7017 H   0  0  0  0  0  0  0  0  0  0  0  0
   56.3370   28.1970   42.5790 H   0  0  0  0  0  0  0  0  0  0  0  0
   57.4814   33.8419   47.2165 H   0  0  0  0  0  0  0  0  0  0  0  0
   58.7364   35.3510   48.7524 H   0  0  0  0  0  0  0  0  0  0  0  0
   61.2272   35.2608   48.8402 H   0  0  0  0  0  0  0  0  0  0  0  0
   61.2265   32.1432   45.8412 H   0  0  0  0  0  0  0  0  0  0  0  0
   55.5879   27.2000   45.5959 H   0  0  0  0  0  0  0  0  0  0  0  0
  1  2  1  0
  2  3  1  0
  3  4  2  0
  4  5  1  0
  5  6  2  0
  6  7  1  0
  7  8  1  0
  8  9  2  0
  9 10  1  0
 10 11  2  0
 11 12  1  0
 12 13  1  0
 13 14  1  0
 14 15  2  0
 15 16  1  0
 16 17  2  0
 17 18  1  0
 18 19  1  0
 18 20  2  0
 13 21  2  0
 21 22  1  0
  7 23  2  0
 23  3  1  0
 22  8  1  0
 22 11  1  0
 20 14  1  0
  1 24  1  0
  1 25  1  0
  1 26  1  0
  2 27  1  0
  4 28  1  0
  5 29  1  0
  6 30  1  0
  9 31  1  0
 15 32  1  0
 16 33  1  0
 17 34  1  0
 20 35  1  0
 23 36  1  0
M  CHG  1   9   1
M  END
>  <UniqueID>  (43) 
40

>  <SMILES>  (43) 
CNc1cccc(-c2[nH+]nc3sc(-c4cccc(Cl)c4)nn23)c1

>  <Energy>  (43) 
135.71619750231253

>  <Genealogy>  (43) 
CNc1cccc(-c2[nH+]nc3sc(-c4cccc(Cl)c4)nn23)c1 (protonated)
CNc1cccc(-c2[nH+]nc3sc(-c4cccc(Cl)c4)nn23)c1 (3D coordinates assigned)
CNc1cccc(-c2[nH+]nc3sc(-c4cccc(Cl)c4)nn23)c1 (optimized conformer: 135.71619750231253 kcal/mol)

>  <smiles>  (43) 
CNc1cccc(-c2nnc3sc(-c4cccc(Cl)c4)nn23)c1

>  <score_type>  (43) 
oracle

>  <origin>  (43) 
adg

>  <m_score__min__energy>  (43) 
-7.2300000000000004

>  <m_primary>  (43) 
energy

$$$$
43:0
     RDKit          3D

 43 44  0  0  0  0  0  0  0  0999 V2000
   61.8660   30.7900   49.4680 C   0  0  0  0  0  0  0  0  0  0  0  0
   61.6490   30.8790   48.0180 N   0  0  0  0  0  0  0  0  0  0  0  0
   62.6310   31.5980   47.1960 C   0  0  0  0  0  0  0  0  0  0  0  0
   60.4850   30.2630   47.4070 C   0  0  0  0  0  0  0  0  0  0  0  0
   59.4450   29.7350   48.2020 C   0  0  0  0  0  0  0  0  0  0  0  0
   58.3240   29.1450   47.6130 C   0  0  0  0  0  0  0  0  0  0  0  0
   58.2050   29.0790   46.2190 C   0  0  0  0  0  0  0  0  0  0  0  0
   57.0200   28.4470   45.6090 C   0  0  0  0  0  0  0  0  0  0  0  0
   57.0240   27.2020   45.4160 O   0  0  0  0  0  0  0  0  0  0  0  0
   55.8530   29.1960   45.2450 N   0  0  0  0  0  0  0  0  0  0  0  0
   55.5310   29.6880   43.9070 C   0  0  0  0  0  0  0  0  0  0  0  0
   56.4670   30.8290   43.4920 C   0  0  0  0  0  0  0  0  0  0  0  0
   56.9990   31.5250   44.6630 N   0  0  0  0  0  0  0  0  0  0  0  0
   57.9100   32.6320   44.5550 C   0  0  0  0  0  0  0  0  0  0  0  0
   58.2080   33.0840   43.4150 O   0  0  0  0  0  0  0  0  0  0  0  0
   58.4970   33.2640   45.7610 C   0  0  0  0  0  0  0  0  0  0  0  0
   59.3290   34.3950   45.6620 C   0  0  0  0  0  0  0  0  0  0  0  0
   59.8690   34.9800   46.8120 C   0  0  0  0  0  0  0  0  0  0  0  0
   59.5820   34.4480   48.0710 C   0  0  0  0  0  0  0  0  0  0  0  0
   58.7480   33.3340   48.1830 C   0  0  0  0  0  0  0  0  0  0  0  0
   58.2040   32.7460   47.0370 C   0  0  0  0  0  0  0  0  0  0  0  0
   59.2420   29.5780   45.4200 C   0  0  0  0  0  0  0  0  0  0  0  0
   60.3660   30.1690   46.0050 C   0  0  0  0  0  0  0  0  0  0  0  0
   60.9730   31.1563   49.9956 H   0  0  0  0  0  0  0  0  0  0  0  0
   62.0530   29.7426   49.7472 H   0  0  0  0  0  0  0  0  0  0  0  0
   62.7346   31.4045   49.7472 H   0  0  0  0  0  0  0  0  0  0  0  0
   63.3445   32.1204   47.8502 H   0  0  0  0  0  0  0  0  0  0  0  0
   63.1726   30.8814   46.5611 H   0  0  0  0  0  0  0  0  0  0  0  0
   62.1114   32.3307   46.5611 H   0  0  0  0  0  0  0  0  0  0  0  0
   59.5181   29.7887   49.2983 H   0  0  0  0  0  0  0  0  0  0  0  0
   57.5287   28.7291   48.2489 H   0  0  0  0  0  0  0  0  0  0  0  0
   55.6323   28.8620   43.1877 H   0  0  0  0  0  0  0  0  0  0  0  0
   54.5000   30.0714   43.9172 H   0  0  0  0  0  0  0  0  0  0  0  0
   57.3031   30.4142   42.9098 H   0  0  0  0  0  0  0  0  0  0  0  0
   55.8949   31.5484   42.8877 H   0  0  0  0  0  0  0  0  0  0  0  0
   56.6750   31.2030   45.6020 H   0  0  0  0  0  0  0  0  0  0  0  0
   59.5560   34.8216   44.6738 H   0  0  0  0  0  0  0  0  0  0  0  0
   60.5214   35.8613   46.7246 H   0  0  0  0  0  0  0  0  0  0  0  0
   60.0127   34.9063   48.9735 H   0  0  0  0  0  0  0  0  0  0  0  0
   58.5183   32.9179   49.1750 H   0  0  0  0  0  0  0  0  0  0  0  0
   57.5424   31.8725   47.1330 H   0  0  0  0  0  0  0  0  0  0  0  0
   59.1714   29.5043   44.3247 H   0  0  0  0  0  0  0  0  0  0  0  0
   61.1671   30.5654   45.3639 H   0  0  0  0  0  0  0  0  0  0  0  0
  1  2  1  0
  2  3  1  0
  2  4  1  0
  4  5  2  0
  5  6  1  0
  6  7  2  0
  7  8  1  0
  8  9  2  0
  8 10  1  0
 10 11  1  0
 11 12  1  0
 12 13  1  0
 13 14  1  0
 14 15  2  0
 14 16  1  0
 16 17  2  0
 17 18  1  0
 18 19  2  0
 19 20  1  0
 20 21  2  0
  7 22  1  0
 22 23  2  0
 23  4  1  0
 21 16  1  0
  1 24  1  0
  1 25  1  0
  1 26  1  0
  3 27  1  0
  3 28  1  0
  3 29  1  0
  5 30  1  0
  6 31  1  0
 11 32  1  0
 11 33  1  0
 12 34  1  0
 12 35  1  0
 13 36  1  0
 17 37  1  0
 18 38  1  0
 19 39  1  0
 20 40  1  0
 21 41  1  0
 22 42  1  0
 23 43  1  0
M  CHG  1  10  -1
M  END
>  <UniqueID>  (44) 
41

>  <SMILES>  (44) 
CN(C)c1ccc(C(=O)[N-]CCNC(=O)c2ccccc2)cc1

>  <Energy>  (44) 
47.27892015516105

>  <Genealogy>  (44) 
CN(C)c1ccc(C(=O)[N-]CCNC(=O)c2ccccc2)cc1 (protonated)
CN(C)c1ccc(C(=O)[N-]CCNC(=O)c2ccccc2)cc1 (3D coordinates assigned)
CN(C)c1ccc(C(=O)[N-]CCNC(=O)c2ccccc2)cc1 (optimized conformer: 47.27892015516105 kcal/mol)

>  <smiles>  (44) 
CN(C)c1ccc(C(=O)NCCNC(=O)c2ccccc2)cc1

>  <score_type>  (44) 
oracle

>  <origin>  (44) 
adg

>  <m_score__min__energy>  (44) 
-8.3499999999999996

>  <m_primary>  (44) 
energy

$$$$
44:0
     RDKit          3D

 43 45  0  0  0  0  0  0  0  0999 V2000
   58.1290   32.6570   41.4820 C   0  0  0  0  0  0  0  0  0  0  0  0
   58.1030   32.5170   42.9760 C   0  0  0  0  0  0  0  0  0  0  0  0
   58.5650   33.4600   43.6750 O   0  0  0  0  0  0  0  0  0  0  0  0
   57.5530   31.3040   43.6420 C   0  0  0  0  0  0  0  0  0  0  0  0
   56.6590   30.4640   42.9520 C   0  0  0  0  0  0  0  0  0  0  0  0
   56.1160   29.3340   43.5720 C   0  0  0  0  0  0  0  0  0  0  0  0
   56.4700   29.0090   44.8940 C   0  0  0  0  0  0  0  0  0  0  0  0
   55.8930   27.8970   45.5990 N   0  0  0  0  0  0  0  0  0  0  0  0
   56.4230   26.5710   45.7290 C   0  0  0  0  0  0  0  0  0  0  0  0
   55.8140   25.6950   46.4010 O   0  0  0  0  0  0  0  0  0  0  0  0
   57.6520   26.1780   44.9670 C   0  0  0  0  0  0  0  0  0  0  0  0
   59.0460   25.7240   46.0630 S   0  0  0  0  0  0  0  0  0  0  0  0
   59.6830   27.3970   46.2430 C   0  0  0  0  0  0  0  0  0  0  0  0
   60.5310   27.8900   45.3050 N   0  0  0  0  0  0  0  0  0  0  0  0
   61.0160   29.1540   45.3900 C   0  0  0  0  0  0  0  0  0  0  0  0
   60.6310   29.9690   46.4540 C   0  0  0  0  0  0  0  0  0  0  0  0
   59.7700   29.4960   47.4070 N   0  0  0  0  0  0  0  0  0  0  0  0
   59.3790   30.3620   48.4930 C   0  0  0  0  0  0  0  0  0  0  0  0
   58.9440   31.6760   48.2380 C   0  0  0  0  0  0  0  0  0  0  0  0
   58.5710   32.5170   49.2900 C   0  0  0  0  0  0  0  0  0  0  0  0
   58.6280   32.0560   50.6080 C   0  0  0  0  0  0  0  0  0  0  0  0
   58.2770   32.8770   51.6300 F   0  0  0  0  0  0  0  0  0  0  0  0
   59.0500   30.7480   50.8730 C   0  0  0  0  0  0  0  0  0  0  0  0
   59.4190   29.9020   49.8220 C   0  0  0  0  0  0  0  0  0  0  0  0
   59.2830   28.2160   47.3110 C   0  0  0  0  0  0  0  0  0  0  0  0
   58.4500   27.7810   48.1540 O   0  0  0  0  0  0  0  0  0  0  0  0
   57.3560   29.8440   45.5850 C   0  0  0  0  0  0  0  0  0  0  0  0
   57.8960   30.9760   44.9700 C   0  0  0  0  0  0  0  0  0  0  0  0
   58.3239   33.7063   41.2154 H   0  0  0  0  0  0  0  0  0  0  0  0
   58.9241   32.0197   41.0678 H   0  0  0  0  0  0  0  0  0  0  0  0
   57.1581   32.3477   41.0678 H   0  0  0  0  0  0  0  0  0  0  0  0
   56.3842   30.6989   41.9131 H   0  0  0  0  0  0  0  0  0  0  0  0
   55.4081   28.6958   43.0227 H   0  0  0  0  0  0  0  0  0  0  0  0
   57.4100   25.3150   44.3293 H   0  0  0  0  0  0  0  0  0  0  0  0
   57.9666   27.0477   44.3714 H   0  0  0  0  0  0  0  0  0  0  0  0
   61.7086   29.5337   44.6244 H   0  0  0  0  0  0  0  0  0  0  0  0
   61.0205   30.9951   46.5276 H   0  0  0  0  0  0  0  0  0  0  0  0
   58.8972   32.0440   47.2024 H   0  0  0  0  0  0  0  0  0  0  0  0
   58.2324   33.5424   49.0805 H   0  0  0  0  0  0  0  0  0  0  0  0
   59.0916   30.3845   51.9104 H   0  0  0  0  0  0  0  0  0  0  0  0
   59.7419   28.8724   50.0355 H   0  0  0  0  0  0  0  0  0  0  0  0
   57.6299   29.6061   46.6235 H   0  0  0  0  0  0  0  0  0  0  0  0
   58.5951   31.6174   45.5266 H   0  0  0  0  0  0  0  0  0  0  0  0
  1  2  1  0
  2  3  2  0
  2  4  1  0
  4  5  2  0
  5  6  1  0
  6  7  2  0
  7  8  1  0
  8  9  1  0
  9 10  2  0
  9 11  1  0
 11 12  1  0
 12 13  1  0
 13 14  2  0
 14 15  1  0
 15 16  2  0
 16 17  1  0
 17 18  1  0
 18 19  2  0
 19 20  1  0
 20 21  2  0
 21 22  1  0
 21 23  1  0
 23 24  2  0
 17 25  1  0
 25 26  2  0
  7 27  1  0
 27 28  2  0
 28  4  1  0
 25 13  1  0
 24 18  1  0
  1 29  1  0
  1 30  1  0
  1 31  1  0
  5 32  1  0
  6 33  1  0
 11 34  1  0
 11 35  1  0
 15 36  1  0
 16 37  1  0
 19 38  1  0
 20 39  1  0
 23 40  1  0
 24 41  1  0
 27 42  1  0
 28 43  1  0
M  CHG  1   8  -1
M  END
>  <UniqueID>  (45) 
42

>  <SMILES>  (45) 
CC(=O)c1ccc([N-]C(=O)CSc2nccn(-c3ccc(F)cc3)c2=O)cc1

>  <Energy>  (45) 
53.705773880657446

>  <Genealogy>  (45) 
CC(=O)c1ccc([N-]C(=O)CSc2nccn(-c3ccc(F)cc3)c2=O)cc1 (protonated)
CC(=O)c1ccc([N-]C(=O)CSc2nccn(-c3ccc(F)cc3)c2=O)cc1 (3D coordinates assigned)
CC(=O)c1ccc([N-]C(=O)CSc2nccn(-c3ccc(F)cc3)c2=O)cc1 (optimized conformer: 53.705773880657446 kcal/mol)

>  <smiles>  (45) 
CC(=O)c1ccc(NC(=O)CSc2nccn(-c3ccc(F)cc3)c2=O)cc1

>  <score_type>  (45) 
oracle

>  <origin>  (45) 
adg

>  <m_score__min__energy>  (45) 
-10.24

>  <m_primary>  (45) 
energy

$$$$
45:0
     RDKit          3D

 45 47  0  0  0  0  0  0  0  0999 V2000
   56.3020   24.4540   47.7070 C   0  0  0  0  0  0  0  0  0  0  0  0
   55.4930   24.8230   46.6110 O   0  0  0  0  0  0  0  0  0  0  0  0
   54.6850   23.7360   46.2030 C   0  0  0  0  0  0  0  0  0  0  0  0
   54.3160   23.8430   44.7180 C   0  0  0  0  0  0  0  0  0  0  0  0
   55.1410   22.9530   43.9030 N   0  0  0  0  0  0  0  0  0  0  0  0
   56.4990   23.1830   43.5010 C   0  0  0  0  0  0  0  0  0  0  0  0
   56.9440   22.5680   42.4970 O   0  0  0  0  0  0  0  0  0  0  0  0
   57.3890   24.1200   44.2160 C   0  0  0  0  0  0  0  0  0  0  0  0
   58.2020   23.6520   45.2580 C   0  0  0  0  0  0  0  0  0  0  0  0
   59.0620   24.5250   45.9280 C   0  0  0  0  0  0  0  0  0  0  0  0
   59.1150   25.8830   45.5780 C   0  0  0  0  0  0  0  0  0  0  0  0
   60.0940   26.7800   46.2870 C   0  0  0  0  0  0  0  0  0  0  0  0
   58.2400   26.3740   44.5820 C   0  0  0  0  0  0  0  0  0  0  0  0
   58.2180   27.7610   44.2170 N   0  0  0  0  0  0  0  0  0  0  0  0
   57.1750   28.6520   44.6390 C   0  0  0  0  0  0  0  0  0  0  0  0
   56.1750   28.2050   45.2630 O   0  0  0  0  0  0  0  0  0  0  0  0
   57.2550   30.0880   44.3310 C   0  0  0  0  0  0  0  0  0  0  0  0
   57.2390   30.6520   43.0740 C   0  0  0  0  0  0  0  0  0  0  0  0
   57.3220   31.9510   43.2260 O   0  0  0  0  0  0  0  0  0  0  0  0
   57.3920   32.1840   44.5170 C   0  0  0  0  0  0  0  0  0  0  0  0
   57.4780   33.5570   45.1070 C   0  0  0  0  0  0  0  0  0  0  0  0
   58.3970   33.6660   46.3150 C   0  0  0  0  0  0  0  0  0  0  0  0
   58.8390   34.2200   44.9710 C   0  0  0  0  0  0  0  0  0  0  0  0
   57.3490   31.0590   45.2600 N   0  0  0  0  0  0  0  0  0  0  0  0
   57.3970   25.4860   43.9000 C   0  0  0  0  0  0  0  0  0  0  0  0
   55.7794   24.6924   48.6451 H   0  0  0  0  0  0  0  0  0  0  0  0
   56.5058   23.3739   47.6650 H   0  0  0  0  0  0  0  0  0  0  0  0
   57.2513   25.0082   47.6650 H   0  0  0  0  0  0  0  0  0  0  0  0
   55.2355   22.7982   46.3689 H   0  0  0  0  0  0  0  0  0  0  0  0
   53.7571   23.7520   46.7935 H   0  0  0  0  0  0  0  0  0  0  0  0
   53.2584   23.5689   44.5904 H   0  0  0  0  0  0  0  0  0  0  0  0
   54.4907   24.8781   44.3893 H   0  0  0  0  0  0  0  0  0  0  0  0
   58.1623   22.5920   45.5493 H   0  0  0  0  0  0  0  0  0  0  0  0
   59.7032   24.1449   46.7369 H   0  0  0  0  0  0  0  0  0  0  0  0
   59.9723   26.6685   47.3745 H   0  0  0  0  0  0  0  0  0  0  0  0
   61.1193   26.5013   46.0023 H   0  0  0  0  0  0  0  0  0  0  0  0
   59.9058   27.8257   46.0023 H   0  0  0  0  0  0  0  0  0  0  0  0
   58.8810   28.0820   43.4750 H   0  0  0  0  0  0  0  0  0  0  0  0
   57.1694   30.1113   42.1186 H   0  0  0  0  0  0  0  0  0  0  0  0
   56.4418   33.8512   44.8841 H   0  0  0  0  0  0  0  0  0  0  0  0
   58.1458   34.3523   47.1371 H   0  0  0  0  0  0  0  0  0  0  0  0
   58.8181   32.9529   47.0390 H   0  0  0  0  0  0  0  0  0  0  0  0
   58.9082   35.3075   44.8205 H   0  0  0  0  0  0  0  0  0  0  0  0
   59.7132   34.0739   44.3195 H   0  0  0  0  0  0  0  0  0  0  0  0
   56.7343   25.8649   43.1080 H   0  0  0  0  0  0  0  0  0  0  0  0
  1  2  1  0
  2  3  1  0
  3  4  1  0
  4  5  1  0
  5  6  1  0
  6  7  2  0
  6  8  1  0
  8  9  2  0
  9 10  1  0
 10 11  2  0
 11 12  1  0
 11 13  1  0
 13 14  1  0
 14 15  1  0
 15 16  2  0
 15 17  1  0
 17 18  2  0
 18 19  1  0
 19 20  1  0
 20 21  1  0
 21 22  1  0
 22 23  1  0
 20 24  2  0
 13 25  2  0
 25  8  1  0
 24 17  1  0
 23 21  1  0
  1 26  1  0
  1 27  1  0
  1 28  1  0
  3 29  1  0
  3 30  1  0
  4 31  1  0
  4 32  1  0
  9 33  1  0
 10 34  1  0
 12 35  1  0
 12 36  1  0
 12 37  1  0
 14 38  1  0
 18 39  1  0
 21 40  1  0
 22 41  1  0
 22 42  1  0
 23 43  1  0
 23 44  1  0
 25 45  1  0
M  CHG  1   5  -1
M  END
>  <UniqueID>  (46) 
43

>  <SMILES>  (46) 
COCC[N-]C(=O)c1ccc(C)c(NC(=O)c2coc(C3CC3)n2)c1

>  <Energy>  (46) 
346.1164250569228

>  <Genealogy>  (46) 
COCC[N-]C(=O)c1ccc(C)c(NC(=O)c2coc(C3CC3)n2)c1 (protonated)
COCC[N-]C(=O)c1ccc(C)c(NC(=O)c2coc(C3CC3)n2)c1 (3D coordinates assigned)
COCC[N-]C(=O)c1ccc(C)c(NC(=O)c2coc(C3CC3)n2)c1 (nonaromatic ring conformer: 346.1164250569228 kcal/mol)

>  <smiles>  (46) 
COCCNC(=O)c1ccc(C)c(NC(=O)c2coc(C3CC3)n2)c1

>  <score_type>  (46) 
oracle

>  <origin>  (46) 
adg

>  <m_score__min__energy>  (46) 
-9.7799999999999994

>  <m_primary>  (46) 
energy

$$$$
46:0
     RDKit          3D

 35 38  0  0  0  0  0  0  0  0999 V2000
   56.3280   34.9950   44.5290 N   0  0  0  0  0  0  0  0  0  0  0  0
   57.1320   34.4440   45.1520 C   0  0  0  0  0  0  0  0  0  0  0  0
   58.1360   33.7580   45.9290 C   0  0  0  0  0  0  0  0  0  0  0  0
   58.5830   34.3460   47.1200 C   0  0  0  0  0  0  0  0  0  0  0  0
   59.5430   33.7070   47.9080 C   0  0  0  0  0  0  0  0  0  0  0  0
   60.0600   32.4730   47.5140 C   0  0  0  0  0  0  0  0  0  0  0  0
   59.6240   31.8750   46.3280 C   0  0  0  0  0  0  0  0  0  0  0  0
   58.6700   32.5130   45.5160 C   0  0  0  0  0  0  0  0  0  0  0  0
   58.1930   31.8200   44.2620 C   0  0  0  0  0  0  0  0  0  0  0  0
   57.8260   30.4410   44.5650 N   0  0  0  0  0  0  0  0  0  0  0  0
   58.6810   29.3760   44.5440 C   0  0  0  0  0  0  0  0  0  0  0  0
   57.9380   28.2990   44.9450 C   0  0  0  0  0  0  0  0  0  0  0  0
   57.9430   26.9550   45.2110 C   0  0  0  0  0  0  0  0  0  0  0  0
   56.6090   26.7190   45.6170 C   0  0  0  0  0  0  0  0  0  0  0  0
   56.0350   25.4230   46.0280 C   0  0  0  0  0  0  0  0  0  0  0  0
   56.7750   24.4820   46.7660 C   0  0  0  0  0  0  0  0  0  0  0  0
   56.1790   23.2720   47.1270 C   0  0  0  0  0  0  0  0  0  0  0  0
   54.8610   23.0070   46.7560 C   0  0  0  0  0  0  0  0  0  0  0  0
   54.1530   23.9630   46.0250 C   0  0  0  0  0  0  0  0  0  0  0  0
   54.7500   25.1350   45.6810 N   0  0  0  0  0  0  0  0  0  0  0  0
   55.8940   27.8420   45.5890 O   0  0  0  0  0  0  0  0  0  0  0  0
   56.7280   28.7570   45.1820 C   0  0  0  0  0  0  0  0  0  0  0  0
   56.6060   30.0730   44.9680 N   0  0  0  0  0  0  0  0  0  0  0  0
   58.1750   35.3173   47.4364 H   0  0  0  0  0  0  0  0  0  0  0  0
   59.8914   34.1771   48.8395 H   0  0  0  0  0  0  0  0  0  0  0  0
   60.8127   31.9690   48.1380 H   0  0  0  0  0  0  0  0  0  0  0  0
   60.0304   30.8979   46.0278 H   0  0  0  0  0  0  0  0  0  0  0  0
   57.3164   32.3513   43.8628 H   0  0  0  0  0  0  0  0  0  0  0  0
   59.0018   31.8237   43.5165 H   0  0  0  0  0  0  0  0  0  0  0  0
   59.7446   29.3826   44.2634 H   0  0  0  0  0  0  0  0  0  0  0  0
   58.7748   26.2399   45.1294 H   0  0  0  0  0  0  0  0  0  0  0  0
   57.8140   24.6973   47.0562 H   0  0  0  0  0  0  0  0  0  0  0  0
   56.7486   22.5283   47.7036 H   0  0  0  0  0  0  0  0  0  0  0  0
   54.3847   22.0558   47.0360 H   0  0  0  0  0  0  0  0  0  0  0  0
   53.1121   23.7679   45.7274 H   0  0  0  0  0  0  0  0  0  0  0  0
  1  2  3  0
  2  3  1  0
  3  4  2  0
  4  5  1  0
  5  6  2  0
  6  7  1  0
  7  8  2  0
  8  9  1  0
  9 10  1  0
 10 11  1  0
 11 12  2  0
 12 13  1  0
 13 14  2  0
 14 15  1  0
 15 16  2  0
 16 17  1  0
 17 18  2  0
 18 19  1  0
 19 20  2  0
 14 21  1  0
 21 22  1  0
 22 23  2  0
  8  3  1  0
 23 10  1  0
 22 12  1  0
 20 15  1  0
  4 24  1  0
  5 25  1  0
  6 26  1  0
  7 27  1  0
  9 28  1  0
  9 29  1  0
 11 30  1  0
 13 31  1  0
 16 32  1  0
 17 33  1  0
 18 34  1  0
 19 35  1  0
M  END
>  <UniqueID>  (47) 
44

>  <SMILES>  (47) 
N#Cc1ccccc1Cn1cc2cc(-c3ccccn3)oc2n1

>  <Energy>  (47) 
129.4087912922247

>  <Genealogy>  (47) 
N#Cc1ccccc1Cn1cc2cc(-c3ccccn3)oc2n1 (3D coordinates assigned)
N#Cc1ccccc1Cn1cc2cc(-c3ccccn3)oc2n1 (optimized conformer: 129.4087912922247 kcal/mol)

>  <smiles>  (47) 
N#Cc1ccccc1Cn1cc2cc(-c3ccccn3)oc2n1

>  <score_type>  (47) 
oracle

>  <origin>  (47) 
adg

>  <m_score__min__energy>  (47) 
-8.0700000000000003

>  <m_primary>  (47) 
energy

$$$$
47:0
     RDKit          3D

 43 44  0  0  0  0  0  0  0  0999 V2000
   59.2690   33.0870   50.0610 C   0  0  0  0  0  0  0  0  0  0  0  0
   60.0870   34.1880   49.3890 C   0  0  0  0  0  0  0  0  0  0  0  0
   59.6310   34.4660   47.9510 C   0  0  0  0  0  0  0  0  0  0  0  0
   60.2010   33.4960   47.0010 N   0  0  0  0  0  0  0  0  0  0  0  0
   61.4590   33.8400   46.3140 C   0  0  0  0  0  0  0  0  0  0  0  0
   62.6570   33.7850   47.2760 C   0  0  0  0  0  0  0  0  0  0  0  0
   63.3960   32.4500   47.2250 C   0  0  0  0  0  0  0  0  0  0  0  0
   59.7010   32.1450   46.9280 C   0  0  0  0  0  0  0  0  0  0  0  0
   60.5180   31.1850   46.9480 O   0  0  0  0  0  0  0  0  0  0  0  0
   58.2330   31.8430   46.7540 C   0  0  0  0  0  0  0  0  0  0  0  0
   57.9740   31.2560   45.4280 N   0  0  0  0  0  0  0  0  0  0  0  0
   57.7550   32.1310   44.2970 C   0  0  0  0  0  0  0  0  0  0  0  0
   57.7410   33.3820   44.4470 O   0  0  0  0  0  0  0  0  0  0  0  0
   57.5380   31.5640   42.9290 C   0  0  0  0  0  0  0  0  0  0  0  0
   56.2730   30.2720   43.0580 S   0  0  0  0  0  0  0  0  0  0  0  0
   57.3010   29.2510   44.1190 C   0  0  0  0  0  0  0  0  0  0  0  0
   57.4200   27.9220   43.8440 N   0  0  0  0  0  0  0  0  0  0  0  0
   58.1470   27.0910   44.6380 C   0  0  0  0  0  0  0  0  0  0  0  0
   58.7990   27.5920   45.7630 C   0  0  0  0  0  0  0  0  0  0  0  0
   58.7160   28.9530   46.0540 C   0  0  0  0  0  0  0  0  0  0  0  0
   57.9720   29.8160   45.2260 C   0  0  0  0  0  0  0  0  0  0  0  0
   59.3448   33.1890   51.1536 H   0  0  0  0  0  0  0  0  0  0  0  0
   58.2156   33.1752   49.7567 H   0  0  0  0  0  0  0  0  0  0  0  0
   59.6575   32.1039   49.7567 H   0  0  0  0  0  0  0  0  0  0  0  0
   59.9838   35.1123   49.9764 H   0  0  0  0  0  0  0  0  0  0  0  0
   61.1326   33.8488   49.3477 H   0  0  0  0  0  0  0  0  0  0  0  0
   58.5336   34.4051   47.9071 H   0  0  0  0  0  0  0  0  0  0  0  0
   59.9821   35.4694   47.6682 H   0  0  0  0  0  0  0  0  0  0  0  0
   61.6256   33.1262   45.4938 H   0  0  0  0  0  0  0  0  0  0  0  0
   61.3727   34.8661   45.9271 H   0  0  0  0  0  0  0  0  0  0  0  0
   63.3606   34.5867   47.0073 H   0  0  0  0  0  0  0  0  0  0  0  0
   62.2676   33.9092   48.2973 H   0  0  0  0  0  0  0  0  0  0  0  0
   63.5903   32.0991   48.2493 H   0  0  0  0  0  0  0  0  0  0  0  0
   62.7793   31.7096   46.6945 H   0  0  0  0  0  0  0  0  0  0  0  0
   64.3509   32.5795   46.6945 H   0  0  0  0  0  0  0  0  0  0  0  0
   57.9163   31.1321   47.5314 H   0  0  0  0  0  0  0  0  0  0  0  0
   57.6668   32.7821   46.8409 H   0  0  0  0  0  0  0  0  0  0  0  0
   57.1960   32.3555   42.2459 H   0  0  0  0  0  0  0  0  0  0  0  0
   58.4753   31.1455   42.5337 H   0  0  0  0  0  0  0  0  0  0  0  0
   56.9300   27.5210   43.0130 H   0  0  0  0  0  0  0  0  0  0  0  0
   58.2205   26.0214   44.3917 H   0  0  0  0  0  0  0  0  0  0  0  0
   59.3744   26.9193   46.4160 H   0  0  0  0  0  0  0  0  0  0  0  0
   59.2351   29.3556   46.9363 H   0  0  0  0  0  0  0  0  0  0  0  0
  1  2  1  0
  2  3  1  0
  3  4  1  0
  4  5  1  0
  5  6  1  0
  6  7  1  0
  4  8  1  0
  8  9  2  0
  8 10  1  0
 10 11  1  0
 11 12  1  0
 12 13  2  0
 12 14  1  0
 14 15  1  0
 15 16  1  0
 16 17  2  0
 17 18  1  0
 18 19  2  0
 19 20  1  0
 20 21  2  0
 21 11  1  0
 21 16  1  0
  1 22  1  0
  1 23  1  0
  1 24  1  0
  2 25  1  0
  2 26  1  0
  3 27  1  0
  3 28  1  0
  5 29  1  0
  5 30  1  0
  6 31  1  0
  6 32  1  0
  7 33  1  0
  7 34  1  0
  7 35  1  0
 10 36  1  0
 10 37  1  0
 14 38  1  0
 14 39  1  0
 17 40  1  0
 18 41  1  0
 19 42  1  0
 20 43  1  0
M  CHG  1  17   1
M  END
>  <UniqueID>  (48) 
45

>  <SMILES>  (48) 
CCCN(CCC)C(=O)CN1C(=O)CSc2[nH+]cccc21

>  <Energy>  (48) 
40.65389065310036

>  <Genealogy>  (48) 
CCCN(CCC)C(=O)CN1C(=O)CSc2[nH+]cccc21 (protonated)
CCCN(CCC)C(=O)CN1C(=O)CSc2[nH+]cccc21 (3D coordinates assigned)
CCCN(CCC)C(=O)CN1C(=O)CSc2[nH+]cccc21 (nonaromatic ring conformer: 40.65389065310036 kcal/mol)

>  <smiles>  (48) 
CCCN(CCC)C(=O)CN1C(=O)CSc2ncccc21

>  <score_type>  (48) 
oracle

>  <origin>  (48) 
adg

>  <m_score__min__energy>  (48) 
-5.4100000000000001

>  <m_primary>  (48) 
energy

$$$$
48:0
     RDKit          3D

 34 35  0  0  0  0  0  0  0  0999 V2000
   58.9010   33.7880   44.5410 C   0  0  0  0  0  0  0  0  0  0  0  0
   59.0960   33.8170   45.9890 N   0  0  0  0  0  0  0  0  0  0  0  0
   59.1540   34.9340   46.7390 C   0  0  0  0  0  0  0  0  0  0  0  0
   59.3490   34.6040   48.0630 C   0  0  0  0  0  0  0  0  0  0  0  0
   59.4130   33.2270   48.1240 C   0  0  0  0  0  0  0  0  0  0  0  0
   59.2540   32.7640   46.8280 C   0  0  0  0  0  0  0  0  0  0  0  0
   59.2800   31.3370   46.4280 C   0  0  0  0  0  0  0  0  0  0  0  0
   60.3680   30.8020   46.0850 O   0  0  0  0  0  0  0  0  0  0  0  0
   58.0670   30.5660   46.4010 N   0  0  0  0  0  0  0  0  0  0  0  0
   58.0410   29.1290   46.3430 C   0  0  0  0  0  0  0  0  0  0  0  0
   59.0020   28.3680   47.0340 C   0  0  0  0  0  0  0  0  0  0  0  0
   58.9610   26.9730   46.9970 C   0  0  0  0  0  0  0  0  0  0  0  0
   59.8920   26.2490   47.6660 F   0  0  0  0  0  0  0  0  0  0  0  0
   57.9560   26.3230   46.2820 C   0  0  0  0  0  0  0  0  0  0  0  0
   56.9850   27.0640   45.6060 C   0  0  0  0  0  0  0  0  0  0  0  0
   57.0170   28.4740   45.6290 C   0  0  0  0  0  0  0  0  0  0  0  0
   56.0580   29.2600   44.9640 O   0  0  0  0  0  0  0  0  0  0  0  0
   56.1270   29.7110   43.6090 C   0  0  0  0  0  0  0  0  0  0  0  0
   57.0720   30.9050   43.4750 C   0  0  0  0  0  0  0  0  0  0  0  0
   58.3720   30.5020   43.7160 F   0  0  0  0  0  0  0  0  0  0  0  0
   56.7220   31.8740   44.3970 F   0  0  0  0  0  0  0  0  0  0  0  0
   56.9950   31.4490   42.2070 F   0  0  0  0  0  0  0  0  0  0  0  0
   57.8356   33.6295   44.3176 H   0  0  0  0  0  0  0  0  0  0  0  0
   59.2282   34.7447   44.1077 H   0  0  0  0  0  0  0  0  0  0  0  0
   59.4924   32.9679   44.1077 H   0  0  0  0  0  0  0  0  0  0  0  0
   59.0596   35.9593   46.3518 H   0  0  0  0  0  0  0  0  0  0  0  0
   59.4366   35.3032   48.9077 H   0  0  0  0  0  0  0  0  0  0  0  0
   59.5614   32.6157   49.0264 H   0  0  0  0  0  0  0  0  0  0  0  0
   57.1600   31.0780   46.3230 H   0  0  0  0  0  0  0  0  0  0  0  0
   59.7913   28.8760   47.6075 H   0  0  0  0  0  0  0  0  0  0  0  0
   57.9281   25.2238   46.2505 H   0  0  0  0  0  0  0  0  0  0  0  0
   56.1894   26.5447   45.0516 H   0  0  0  0  0  0  0  0  0  0  0  0
   56.4931   28.8899   42.9751 H   0  0  0  0  0  0  0  0  0  0  0  0
   55.1210   30.0239   43.2928 H   0  0  0  0  0  0  0  0  0  0  0  0
  1  2  1  0
  2  3  1  0
  3  4  2  0
  4  5  1  0
  5  6  2  0
  6  7  1  0
  7  8  2  0
  7  9  1  0
  9 10  1  0
 10 11  2  0
 11 12  1  0
 12 13  1  0
 12 14  2  0
 14 15  1  0
 15 16  2  0
 16 17  1  0
 17 18  1  0
 18 19  1  0
 19 20  1  0
 19 21  1  0
 19 22  1  0
  6  2  1  0
 16 10  1  0
  1 23  1  0
  1 24  1  0
  1 25  1  0
  3 26  1  0
  4 27  1  0
  5 28  1  0
  9 29  1  0
 11 30  1  0
 14 31  1  0
 15 32  1  0
 18 33  1  0
 18 34  1  0
M  END
>  <UniqueID>  (49) 
46

>  <SMILES>  (49) 
Cn1cccc1C(=O)Nc1cc(F)ccc1OCC(F)(F)F

>  <Energy>  (49) 
63.796902275341274

>  <Genealogy>  (49) 
Cn1cccc1C(=O)Nc1cc(F)ccc1OCC(F)(F)F (3D coordinates assigned)
Cn1cccc1C(=O)Nc1cc(F)ccc1OCC(F)(F)F (optimized conformer: 63.796902275341274 kcal/mol)

>  <smiles>  (49) 
Cn1cccc1C(=O)Nc1cc(F)ccc1OCC(F)(F)F

>  <score_type>  (49) 
oracle

>  <origin>  (49) 
adg

>  <m_score__min__energy>  (49) 
-5.5499999999999998

>  <m_primary>  (49) 
energy

$$$$
