0:0
     RDKit          3D

 42 44  0  0  0  0  0  0  0  0999 V2000
   60.4390   29.5380   45.6140 C   0  0  0  0  0  0  0  0  0  0  0  0
   59.2450   28.6200   45.6560 C   0  0  0  0  0  0  0  0  0  0  0  0
   59.4590   27.2770   46.0100 C   0  0  0  0  0  0  0  0  0  0  0  0
   58.3920   26.3890   46.1310 C   0  0  0  0  0  0  0  0  0  0  0  0
   57.0790   26.8290   45.9300 C   0  0  0  0  0  0  0  0  0  0  0  0
   55.9370   25.8930   46.0630 C   0  0  0  0  0  0  0  0  0  0  0  0
   54.7610   26.3380   45.9840 O   0  0  0  0  0  0  0  0  0  0  0  0
   56.1260   24.4800   46.2250 N   0  0  0  0  0  0  0  0  0  0  0  0
   56.4190   23.5410   45.1800 C   0  0  0  0  0  0  0  0  0  0  0  0
   57.6400   22.8590   45.1970 C   0  0  0  0  0  0  0  0  0  0  0  0
   57.9510   21.9550   44.1800 C   0  0  0  0  0  0  0  0  0  0  0  0
   57.0390   21.7540   43.1420 C   0  0  0  0  0  0  0  0  0  0  0  0
   55.8670   22.4420   43.1230 N   0  0  0  0  0  0  0  0  0  0  0  0
   55.5400   23.3260   44.1040 C   0  0  0  0  0  0  0  0  0  0  0  0
   56.8550   28.1650   45.5700 C   0  0  0  0  0  0  0  0  0  0  0  0
   57.9180   29.0680   45.4080 C   0  0  0  0  0  0  0  0  0  0  0  0
   57.5060   30.7280   44.9020 S   0  0  0  0  0  0  0  0  0  0  0  0
   56.0600   30.8380   44.5130 O   0  0  0  0  0  0  0  0  0  0  0  0
   58.3190   31.0600   43.6810 O   0  0  0  0  0  0  0  0  0  0  0  0
   57.8340   31.9170   46.1510 N   0  0  0  0  0  0  0  0  0  0  0  0
   59.2310   32.3540   46.1260 C   0  0  0  0  0  0  0  0  0  0  0  0
   59.3050   33.6390   45.3210 C   0  0  0  0  0  0  0  0  0  0  0  0
   57.9060   34.2180   45.3690 C   0  0  0  0  0  0  0  0  0  0  0  0
   57.0260   33.1320   45.9800 C   0  0  0  0  0  0  0  0  0  0  0  0
   60.7525   29.7790   46.6405 H   0  0  0  0  0  0  0  0  0  0  0  0
   61.2655   29.0406   45.0854 H   0  0  0  0  0  0  0  0  0  0  0  0
   60.1707   30.4646   45.0854 H   0  0  0  0  0  0  0  0  0  0  0  0
   60.4836   26.9216   46.1942 H   0  0  0  0  0  0  0  0  0  0  0  0
   58.5830   25.3361   46.3860 H   0  0  0  0  0  0  0  0  0  0  0  0
   58.3562   23.0353   46.0130 H   0  0  0  0  0  0  0  0  0  0  0  0
   58.9045   21.4067   44.1961 H   0  0  0  0  0  0  0  0  0  0  0  0
   57.2692   21.0383   42.3390 H   0  0  0  0  0  0  0  0  0  0  0  0
   54.5869   23.8731   44.0553 H   0  0  0  0  0  0  0  0  0  0  0  0
   55.8239   28.5137   45.4109 H   0  0  0  0  0  0  0  0  0  0  0  0
   59.5841   32.5351   47.1519 H   0  0  0  0  0  0  0  0  0  0  0  0
   59.8659   31.5799   45.6703 H   0  0  0  0  0  0  0  0  0  0  0  0
   60.0267   34.3359   45.7721 H   0  0  0  0  0  0  0  0  0  0  0  0
   59.6407   33.4592   44.2890 H   0  0  0  0  0  0  0  0  0  0  0  0
   57.8874   35.1227   45.9944 H   0  0  0  0  0  0  0  0  0  0  0  0
   57.5539   34.5081   44.3681 H   0  0  0  0  0  0  0  0  0  0  0  0
   56.6485   33.4669   46.9574 H   0  0  0  0  0  0  0  0  0  0  0  0
   56.1705   32.9253   45.3202 H   0  0  0  0  0  0  0  0  0  0  0  0
  1  2  1  0
  2  3  2  0
  3  4  1  0
  4  5  2  0
  5  6  1  0
  6  7  2  0
  6  8  1  0
  8  9  1  0
  9 10  2  0
 10 11  1  0
 11 12  2  0
 12 13  1  0
 13 14  2  0
  5 15  1  0
 15 16  2  0
 16 17  1  0
 17 18  2  0
 17 19  2  0
 17 20  1  0
 20 21  1  0
 21 22  1  0
 22 23  1  0
 23 24  1  0
 16  2  1  0
 24 20  1  0
 14  9  1  0
  1 25  1  0
  1 26  1  0
  1 27  1  0
  3 28  1  0
  4 29  1  0
 10 30  1  0
 11 31  1  0
 12 32  1  0
 14 33  1  0
 15 34  1  0
 21 35  1  0
 21 36  1  0
 22 37  1  0
 22 38  1  0
 23 39  1  0
 23 40  1  0
 24 41  1  0
 24 42  1  0
M  CHG  1   8  -1
M  END
>  <UniqueID>  (1) 
1

>  <SMILES>  (1) 
Cc1ccc(C(=O)[N-]c2cccnc2)cc1S(=O)(=O)N1CCCC1

>  <Energy>  (1) 
55.30210178780033

>  <Genealogy>  (1) 
Cc1ccc(C(=O)[N-]c2cccnc2)cc1S(=O)(=O)N1CCCC1 (protonated)
Cc1ccc(C(=O)[N-]c2cccnc2)cc1S(=O)(=O)N1CCCC1 (3D coordinates assigned)
Cc1ccc(C(=O)[N-]c2cccnc2)cc1S(=O)(=O)N1CCCC1 (nonaromatic ring conformer: 55.30210178780033 kcal/mol)

>  <smiles>  (1) 
Cc1ccc(C(=O)Nc2cccnc2)cc1S(=O)(=O)N1CCCC1

>  <score_type>  (1) 
oracle

>  <origin>  (1) 
adg

>  <m_score__min__energy>  (1) 
-11.18

>  <m_primary>  (1) 
energy

$$$$
1:0
     RDKit          3D

 41 42  0  0  0  0  0  0  0  0999 V2000
   59.5030   34.9650   45.5770 C   0  0  0  0  0  0  0  0  0  0  0  0
   58.7810   33.6840   45.2510 C   0  0  0  0  0  0  0  0  0  0  0  0
   58.4410   33.4050   43.9190 C   0  0  0  0  0  0  0  0  0  0  0  0
   57.7640   32.2240   43.5720 C   0  0  0  0  0  0  0  0  0  0  0  0
   57.4280   31.9760   42.1250 C   0  0  0  0  0  0  0  0  0  0  0  0
   57.4160   31.3020   44.5860 C   0  0  0  0  0  0  0  0  0  0  0  0
   56.5680   29.7890   44.2170 S   0  0  0  0  0  0  0  0  0  0  0  0
   55.1220   30.0770   43.9220 O   0  0  0  0  0  0  0  0  0  0  0  0
   57.1890   29.1610   43.0000 O   0  0  0  0  0  0  0  0  0  0  0  0
   56.6570   28.7390   45.6090 N   0  0  0  0  0  0  0  0  0  0  0  0
   57.8950   27.9470   45.7200 C   0  0  0  0  0  0  0  0  0  0  0  0
   57.9050   27.0700   46.9980 C   0  0  0  0  0  0  0  0  0  0  0  0
   59.3270   26.7790   47.5140 C   0  0  0  0  0  0  0  0  0  0  0  0
   60.3180   26.6020   46.3570 C   0  0  0  0  0  0  0  0  0  0  0  0
   60.4280   27.8700   45.4810 C   0  0  0  0  0  0  0  0  0  0  0  0
   59.1850   28.7790   45.5540 C   0  0  0  0  0  0  0  0  0  0  0  0
   57.7530   31.5840   45.9180 C   0  0  0  0  0  0  0  0  0  0  0  0
   58.4230   32.7670   46.2640 C   0  0  0  0  0  0  0  0  0  0  0  0
   58.7680   33.0260   47.7080 C   0  0  0  0  0  0  0  0  0  0  0  0
   59.5685   35.0813   46.6689 H   0  0  0  0  0  0  0  0  0  0  0  0
   60.5163   34.9336   45.1501 H   0  0  0  0  0  0  0  0  0  0  0  0
   58.9514   35.8156   45.1501 H   0  0  0  0  0  0  0  0  0  0  0  0
   58.7095   34.1244   43.1314 H   0  0  0  0  0  0  0  0  0  0  0  0
   56.5445   31.3239   42.0603 H   0  0  0  0  0  0  0  0  0  0  0  0
   57.2137   32.9341   41.6289 H   0  0  0  0  0  0  0  0  0  0  0  0
   58.2804   31.4889   41.6289 H   0  0  0  0  0  0  0  0  0  0  0  0
   57.8924   27.2622   44.8591 H   0  0  0  0  0  0  0  0  0  0  0  0
   57.3454   27.5934   47.7873 H   0  0  0  0  0  0  0  0  0  0  0  0
   57.4435   26.1054   46.7401 H   0  0  0  0  0  0  0  0  0  0  0  0
   59.6580   27.6184   48.1432 H   0  0  0  0  0  0  0  0  0  0  0  0
   59.3002   25.8437   48.0924 H   0  0  0  0  0  0  0  0  0  0  0  0
   61.3101   26.3720   46.7728 H   0  0  0  0  0  0  0  0  0  0  0  0
   59.9501   25.7838   45.7205 H   0  0  0  0  0  0  0  0  0  0  0  0
   61.3022   28.4485   45.8144 H   0  0  0  0  0  0  0  0  0  0  0  0
   60.5221   27.5346   44.4376 H   0  0  0  0  0  0  0  0  0  0  0  0
   59.2870   29.4584   46.4131 H   0  0  0  0  0  0  0  0  0  0  0  0
   59.1141   29.3488   44.6158 H   0  0  0  0  0  0  0  0  0  0  0  0
   57.4870   30.8641   46.7060 H   0  0  0  0  0  0  0  0  0  0  0  0
   58.0573   32.4924   48.3562 H   0  0  0  0  0  0  0  0  0  0  0  0
   59.7885   32.6690   47.9109 H   0  0  0  0  0  0  0  0  0  0  0  0
   58.7101   34.1056   47.9109 H   0  0  0  0  0  0  0  0  0  0  0  0
  1  2  1  0
  2  3  2  0
  3  4  1  0
  4  5  1  0
  4  6  2  0
  6  7  1  0
  7  8  2  0
  7  9  2  0
  7 10  1  0
 10 11  1  0
 11 12  1  0
 12 13  1  0
 13 14  1  0
 14 15  1  0
 15 16  1  0
  6 17  1  0
 17 18  2  0
 18 19  1  0
 18  2  1  0
 16 11  1  0
  1 20  1  0
  1 21  1  0
  1 22  1  0
  3 23  1  0
  5 24  1  0
  5 25  1  0
  5 26  1  0
 11 27  1  0
 12 28  1  0
 12 29  1  0
 13 30  1  0
 13 31  1  0
 14 32  1  0
 14 33  1  0
 15 34  1  0
 15 35  1  0
 16 36  1  0
 16 37  1  0
 17 38  1  0
 19 39  1  0
 19 40  1  0
 19 41  1  0
M  CHG  1  10  -1
M  END
>  <UniqueID>  (2) 
2

>  <SMILES>  (2) 
Cc1cc(C)c(S(=O)(=O)[N-]C2CCCCC2)cc1C

>  <Energy>  (2) 
47.517208663478684

>  <Genealogy>  (2) 
Cc1cc(C)c(S(=O)(=O)[N-]C2CCCCC2)cc1C (protonated)
Cc1cc(C)c(S(=O)(=O)[N-]C2CCCCC2)cc1C (3D coordinates assigned)
Cc1cc(C)c(S(=O)(=O)[N-]C2CCCCC2)cc1C (nonaromatic ring conformer: 47.517208663478684 kcal/mol)

>  <smiles>  (2) 
Cc1cc(C)c(S(=O)(=O)NC2CCCCC2)cc1C

>  <score_type>  (2) 
oracle

>  <origin>  (2) 
adg

>  <m_score__min__energy>  (2) 
-9.2899999999999991

>  <m_primary>  (2) 
energy

$$$$
2:0
     RDKit          3D

 28 30  0  0  0  0  0  0  0  0999 V2000
   54.7700   26.7130   46.0000 O   0  0  0  0  0  0  0  0  0  0  0  0
   55.1490   25.4270   45.6280 C   0  0  0  0  0  0  0  0  0  0  0  0
   54.1680   24.4430   45.5050 C   0  0  0  0  0  0  0  0  0  0  0  0
   54.5150   23.1400   45.1490 C   0  0  0  0  0  0  0  0  0  0  0  0
   55.8530   22.8080   44.9020 C   0  0  0  0  0  0  0  0  0  0  0  0
   56.1940   21.4960   44.5340 C   0  0  0  0  0  0  0  0  0  0  0  0
   57.5230   21.1630   44.2680 C   0  0  0  0  0  0  0  0  0  0  0  0
   58.5210   22.1320   44.3620 C   0  0  0  0  0  0  0  0  0  0  0  0
   58.1990   23.4420   44.7280 C   0  0  0  0  0  0  0  0  0  0  0  0
   56.8640   23.8000   45.0150 C   0  0  0  0  0  0  0  0  0  0  0  0
   56.5020   25.1210   45.3920 C   0  0  0  0  0  0  0  0  0  0  0  0
   57.5160   26.1880   45.5620 C   0  0  0  0  0  0  0  0  0  0  0  0
   58.1780   26.3450   46.7900 C   0  0  0  0  0  0  0  0  0  0  0  0
   59.1410   27.3470   46.9450 C   0  0  0  0  0  0  0  0  0  0  0  0
   59.4510   28.1920   45.8760 C   0  0  0  0  0  0  0  0  0  0  0  0
   58.8010   28.0360   44.6490 C   0  0  0  0  0  0  0  0  0  0  0  0
   57.8380   27.0360   44.4890 C   0  0  0  0  0  0  0  0  0  0  0  0
   53.1137   24.6964   45.6900 H   0  0  0  0  0  0  0  0  0  0  0  0
   53.7345   22.3698   45.0618 H   0  0  0  0  0  0  0  0  0  0  0  0
   55.4105   20.7280   44.4552 H   0  0  0  0  0  0  0  0  0  0  0  0
   57.7838   20.1330   43.9833 H   0  0  0  0  0  0  0  0  0  0  0  0
   59.5661   21.8645   44.1472 H   0  0  0  0  0  0  0  0  0  0  0  0
   58.9929   24.2007   44.7930 H   0  0  0  0  0  0  0  0  0  0  0  0
   57.9387   25.6786   47.6318 H   0  0  0  0  0  0  0  0  0  0  0  0
   59.6552   27.4702   47.9096 H   0  0  0  0  0  0  0  0  0  0  0  0
   60.2075   28.9808   46.0006 H   0  0  0  0  0  0  0  0  0  0  0  0
   59.0475   28.7010   43.8082 H   0  0  0  0  0  0  0  0  0  0  0  0
   57.3309   26.9125   43.5207 H   0  0  0  0  0  0  0  0  0  0  0  0
  1  2  1  0
  2  3  2  0
  3  4  1  0
  4  5  2  0
  5  6  1  0
  6  7  2  0
  7  8  1  0
  8  9  2  0
  9 10  1  0
 10 11  2  0
 11 12  1  0
 12 13  2  0
 13 14  1  0
 14 15  2  0
 15 16  1  0
 16 17  2  0
 11  2  1  0
 17 12  1  0
 10  5  1  0
  3 18  1  0
  4 19  1  0
  6 20  1  0
  7 21  1  0
  8 22  1  0
  9 23  1  0
 13 24  1  0
 14 25  1  0
 15 26  1  0
 16 27  1  0
 17 28  1  0
M  CHG  1   1  -1
M  END
>  <UniqueID>  (3) 
3

>  <SMILES>  (3) 
[O-]c1ccc2ccccc2c1-c1ccccc1

>  <Energy>  (3) 
43.733699964655926

>  <Genealogy>  (3) 
[O-]c1ccc2ccccc2c1-c1ccccc1 (protonated)
[O-]c1ccc2ccccc2c1-c1ccccc1 (3D coordinates assigned)
[O-]c1ccc2ccccc2c1-c1ccccc1 (optimized conformer: 43.733699964655926 kcal/mol)

>  <smiles>  (3) 
Oc1ccc2ccccc2c1-c1ccccc1

>  <score_type>  (3) 
oracle

>  <origin>  (3) 
adg

>  <m_score__min__energy>  (3) 
-9.8100000000000005

>  <m_primary>  (3) 
energy

$$$$
3:0
     RDKit          3D

 37 39  0  0  0  0  0  0  0  0999 V2000
   57.3950   32.3260   41.5530 C   0  0  0  0  0  0  0  0  0  0  0  0
   57.7460   31.9990   42.9860 C   0  0  0  0  0  0  0  0  0  0  0  0
   58.2580   33.0580   43.7600 C   0  0  0  0  0  0  0  0  0  0  0  0
   58.6710   33.1190   45.1070 C   0  0  0  0  0  0  0  0  0  0  0  0
   59.1730   34.4620   45.6010 C   0  0  0  0  0  0  0  0  0  0  0  0
   60.1840   34.2710   46.7000 C   0  0  0  0  0  0  0  0  0  0  0  0
   61.4990   33.8780   46.3940 C   0  0  0  0  0  0  0  0  0  0  0  0
   62.4270   33.6650   47.4180 C   0  0  0  0  0  0  0  0  0  0  0  0
   62.0500   33.8360   48.7530 C   0  0  0  0  0  0  0  0  0  0  0  0
   60.7420   34.2160   49.0660 C   0  0  0  0  0  0  0  0  0  0  0  0
   59.8100   34.4300   48.0450 C   0  0  0  0  0  0  0  0  0  0  0  0
   58.7150   32.0660   46.0310 C   0  0  0  0  0  0  0  0  0  0  0  0
   58.3630   30.7400   45.8190 C   0  0  0  0  0  0  0  0  0  0  0  0
   58.4460   29.7340   46.7760 C   0  0  0  0  0  0  0  0  0  0  0  0
   58.9190   29.8840   48.1900 C   0  0  0  0  0  0  0  0  0  0  0  0
   58.0270   28.5420   46.2150 C   0  0  0  0  0  0  0  0  0  0  0  0
   57.6720   28.7690   44.9040 C   0  0  0  0  0  0  0  0  0  0  0  0
   57.8610   30.1090   44.6110 C   0  0  0  0  0  0  0  0  0  0  0  0
   57.5910   30.6620   43.3710 C   0  0  0  0  0  0  0  0  0  0  0  0
   56.5903   33.0757   41.5345 H   0  0  0  0  0  0  0  0  0  0  0  0
   58.2818   32.7273   41.0407 H   0  0  0  0  0  0  0  0  0  0  0  0
   57.0574   31.4130   41.0407 H   0  0  0  0  0  0  0  0  0  0  0  0
   58.3529   34.0092   43.2158 H   0  0  0  0  0  0  0  0  0  0  0  0
   59.6425   35.0031   44.7663 H   0  0  0  0  0  0  0  0  0  0  0  0
   58.3228   35.0388   45.9939 H   0  0  0  0  0  0  0  0  0  0  0  0
   61.7988   33.7376   45.3450 H   0  0  0  0  0  0  0  0  0  0  0  0
   63.4556   33.3623   47.1725 H   0  0  0  0  0  0  0  0  0  0  0  0
   62.7825   33.6715   49.5570 H   0  0  0  0  0  0  0  0  0  0  0  0
   60.4449   34.3470   50.1170 H   0  0  0  0  0  0  0  0  0  0  0  0
   58.7802   34.7239   48.2961 H   0  0  0  0  0  0  0  0  0  0  0  0
   59.0694   32.3196   47.0410 H   0  0  0  0  0  0  0  0  0  0  0  0
   58.1019   29.6249   48.8794 H   0  0  0  0  0  0  0  0  0  0  0  0
   59.7726   29.2125   48.3643 H   0  0  0  0  0  0  0  0  0  0  0  0
   59.2296   30.9247   48.3643 H   0  0  0  0  0  0  0  0  0  0  0  0
   57.9842   27.5715   46.7311 H   0  0  0  0  0  0  0  0  0  0  0  0
   57.2985   28.0084   44.2026 H   0  0  0  0  0  0  0  0  0  0  0  0
   57.2120   29.9733   42.6015 H   0  0  0  0  0  0  0  0  0  0  0  0
  1  2  1  0
  2  3  2  0
  3  4  1  0
  4  5  1  0
  5  6  1  0
  6  7  2  0
  7  8  1  0
  8  9  2  0
  9 10  1  0
 10 11  2  0
  4 12  2  0
 12 13  1  0
 13 14  2  0
 14 15  1  0
 14 16  1  0
 16 17  2  0
 17 18  1  0
 18 19  2  0
 19  2  1  0
 11  6  1  0
 18 13  1  0
  1 20  1  0
  1 21  1  0
  1 22  1  0
  3 23  1  0
  5 24  1  0
  5 25  1  0
  7 26  1  0
  8 27  1  0
  9 28  1  0
 10 29  1  0
 11 30  1  0
 12 31  1  0
 15 32  1  0
 15 33  1  0
 15 34  1  0
 16 35  1  0
 17 36  1  0
 19 37  1  0
M  END
>  <UniqueID>  (4) 
4

>  <SMILES>  (4) 
Cc1cc(Cc2ccccc2)cc2c(C)ccc-2c1

>  <Energy>  (4) 
74.10044845411352

>  <Genealogy>  (4) 
Cc1cc(Cc2ccccc2)cc2c(C)ccc-2c1 (3D coordinates assigned)
Cc1cc(Cc2ccccc2)cc2c(C)ccc-2c1 (optimized conformer: 74.10044845411352 kcal/mol)

>  <smiles>  (4) 
Cc1cc(Cc2ccccc2)cc2c(C)ccc-2c1

>  <score_type>  (4) 
oracle

>  <origin>  (4) 
adg

>  <m_score__min__energy>  (4) 
-7.5899999999999999

>  <m_primary>  (4) 
energy

$$$$
4:0
     RDKit          3D

 73 77  0  0  0  0  0  0  0  0999 V2000
   57.4250   20.7420   45.0780 C   0  0  0  0  0  0  0  0  0  0  0  0
   57.3480   21.5410   46.3440 C   0  0  0  0  0  0  0  0  0  0  0  0
   56.9800   20.9540   47.3970 O   0  0  0  0  0  0  0  0  0  0  0  0
   57.6720   22.9490   46.3830 N   0  0  0  0  0  0  0  0  0  0  0  0
   58.4360   23.6050   45.3070 C   0  0  0  0  0  0  0  0  0  0  0  0
   57.8230   24.9660   44.9190 C   0  0  0  0  0  0  0  0  0  0  0  0
   57.0530   25.6510   46.0770 C   0  0  0  0  0  0  0  0  0  0  0  0
   57.0720   27.1590   45.9570 C   0  0  0  0  0  0  0  0  0  0  0  0
   56.1930   27.7320   45.2560 O   0  0  0  0  0  0  0  0  0  0  0  0
   58.1020   27.9490   46.5880 N   0  0  0  0  0  0  0  0  0  0  0  0
   59.4990   27.4850   46.5420 C   0  0  0  0  0  0  0  0  0  0  0  0
   60.4530   28.4700   47.2280 C   0  0  0  0  0  0  0  0  0  0  0  0
   59.8200   28.9730   48.5450 C   0  0  0  0  0  0  0  0  0  0  0  0
   60.8330   29.7010   49.3710 N   0  0  0  0  0  0  0  0  0  0  0  0
   60.1930   30.5460   50.4270 C   0  0  0  0  0  0  0  0  0  0  0  0
   60.5020   32.0560   50.3320 C   0  0  0  0  0  0  0  0  0  0  0  0
   60.4930   32.4870   48.9320 N   0  0  0  0  0  0  0  0  0  0  0  0
   59.9650   33.7800   48.5690 C   0  0  0  0  0  0  0  0  0  0  0  0
   59.8900   34.6970   49.4330 O   0  0  0  0  0  0  0  0  0  0  0  0
   59.5330   34.0600   47.1860 C   0  0  0  0  0  0  0  0  0  0  0  0
   59.8870   35.2730   46.5800 C   0  0  0  0  0  0  0  0  0  0  0  0
   59.5580   35.5140   45.2440 C   0  0  0  0  0  0  0  0  0  0  0  0
   58.8620   34.5540   44.5070 C   0  0  0  0  0  0  0  0  0  0  0  0
   58.4680   33.3450   45.1100 C   0  0  0  0  0  0  0  0  0  0  0  0
   57.7100   32.3390   44.3330 C   0  0  0  0  0  0  0  0  0  0  0  0
   57.8450   32.2460   42.9410 C   0  0  0  0  0  0  0  0  0  0  0  0
   57.1230   31.2620   42.2650 C   0  0  0  0  0  0  0  0  0  0  0  0
   56.3090   30.4230   42.9530 N   0  0  0  0  0  0  0  0  0  0  0  0
   56.1860   30.5240   44.3000 C   0  0  0  0  0  0  0  0  0  0  0  0
   56.8880   31.4690   44.9800 N   0  0  0  0  0  0  0  0  0  0  0  0
   58.7960   33.1080   46.4590 C   0  0  0  0  0  0  0  0  0  0  0  0
   58.4200   31.9460   47.0610 F   0  0  0  0  0  0  0  0  0  0  0  0
   61.2470   31.7050   47.9460 C   0  0  0  0  0  0  0  0  0  0  0  0
   61.8510   30.4570   48.5950 C   0  0  0  0  0  0  0  0  0  0  0  0
   58.5870   29.8420   48.1680 C   0  0  0  0  0  0  0  0  0  0  0  0
   57.8080   29.3510   46.9250 C   0  0  0  0  0  0  0  0  0  0  0  0
   57.6040   25.2090   47.4400 C   0  0  0  0  0  0  0  0  0  0  0  0
   57.3840   23.6990   47.6180 C   0  0  0  0  0  0  0  0  0  0  0  0
   57.5279   19.6747   45.3237 H   0  0  0  0  0  0  0  0  0  0  0  0
   56.5078   20.8963   44.4907 H   0  0  0  0  0  0  0  0  0  0  0  0
   58.2958   21.0686   44.4907 H   0  0  0  0  0  0  0  0  0  0  0  0
   59.4691   23.7642   45.6496 H   0  0  0  0  0  0  0  0  0  0  0  0
   58.4099   22.9527   44.4217 H   0  0  0  0  0  0  0  0  0  0  0  0
   58.6352   25.6346   44.5977 H   0  0  0  0  0  0  0  0  0  0  0  0
   57.0962   24.7758   44.1156 H   0  0  0  0  0  0  0  0  0  0  0  0
   56.0040   25.3284   46.0027 H   0  0  0  0  0  0  0  0  0  0  0  0
   59.5671   26.5119   47.0503 H   0  0  0  0  0  0  0  0  0  0  0  0
   59.7958   27.4033   45.4860 H   0  0  0  0  0  0  0  0  0  0  0  0
   61.4046   27.9643   47.4490 H   0  0  0  0  0  0  0  0  0  0  0  0
   60.6366   29.3252   46.5610 H   0  0  0  0  0  0  0  0  0  0  0  0
   59.4793   28.1377   49.1745 H   0  0  0  0  0  0  0  0  0  0  0  0
   59.1032   30.4156   50.3541 H   0  0  0  0  0  0  0  0  0  0  0  0
   60.6107   30.2069   51.3865 H   0  0  0  0  0  0  0  0  0  0  0  0
   59.7394   32.6188   50.8904 H   0  0  0  0  0  0  0  0  0  0  0  0
   61.4974   32.2463   50.7598 H   0  0  0  0  0  0  0  0  0  0  0  0
   60.4258   36.0380   47.1584 H   0  0  0  0  0  0  0  0  0  0  0  0
   59.8484   36.4636   44.7709 H   0  0  0  0  0  0  0  0  0  0  0  0
   58.6206   34.7434   43.4507 H   0  0  0  0  0  0  0  0  0  0  0  0
   58.5059   32.9340   42.3934 H   0  0  0  0  0  0  0  0  0  0  0  0
   57.2140   31.1665   41.1729 H   0  0  0  0  0  0  0  0  0  0  0  0
   55.5171   29.8401   44.8431 H   0  0  0  0  0  0  0  0  0  0  0  0
   60.5709   31.3989   47.1341 H   0  0  0  0  0  0  0  0  0  0  0  0
   62.0622   32.3275   47.5485 H   0  0  0  0  0  0  0  0  0  0  0  0
   62.2570   29.8052   47.8074 H   0  0  0  0  0  0  0  0  0  0  0  0
   62.6451   30.7766   49.2859 H   0  0  0  0  0  0  0  0  0  0  0  0
   57.8971   29.8483   49.0247 H   0  0  0  0  0  0  0  0  0  0  0  0
   58.9745   30.8407   47.9182 H   0  0  0  0  0  0  0  0  0  0  0  0
   56.7305   29.4465   47.1246 H   0  0  0  0  0  0  0  0  0  0  0  0
   58.1199   29.9705   46.0712 H   0  0  0  0  0  0  0  0  0  0  0  0
   58.6803   25.4308   47.4895 H   0  0  0  0  0  0  0  0  0  0  0  0
   57.0798   25.7520   48.2402 H   0  0  0  0  0  0  0  0  0  0  0  0
   58.0470   23.3354   48.4169 H   0  0  0  0  0  0  0  0  0  0  0  0
   56.3264   23.5380   47.8740 H   0  0  0  0  0  0  0  0  0  0  0  0
  1  2  1  0
  2  3  2  0
  2  4  1  0
  4  5  1  0
  5  6  1  0
  6  7  1  0
  7  8  1  0
  8  9  2  0
  8 10  1  0
 10 11  1  0
 11 12  1  0
 12 13  1  0
 13 14  1  0
 14 15  1  0
 15 16  1  0
 16 17  1  0
 17 18  1  0
 18 19  2  0
 18 20  1  0
 20 21  2  0
 21 22  1  0
 22 23  2  0
 23 24  1  0
 24 25  1  0
 25 26  2  0
 26 27  1  0
 27 28  2  0
 28 29  1  0
 29 30  2  0
 24 31  2  0
 31 32  1  0
 17 33  1  0
 33 34  1  0
 13 35  1  0
 35 36  1  0
  7 37  1  0
 37 38  1  0
 38  4  1  0
 36 10  1  0
 34 14  1  0
 31 20  1  0
 30 25  1  0
  1 39  1  0
  1 40  1  0
  1 41  1  0
  5 42  1  0
  5 43  1  0
  6 44  1  0
  6 45  1  0
  7 46  1  0
 11 47  1  0
 11 48  1  0
 12 49  1  0
 12 50  1  0
 13 51  1  0
 15 52  1  0
 15 53  1  0
 16 54  1  0
 16 55  1  0
 21 56  1  0
 22 57  1  0
 23 58  1  0
 26 59  1  0
 27 60  1  0
 29 61  1  0
 33 62  1  0
 33 63  1  0
 34 64  1  0
 34 65  1  0
 35 66  1  0
 35 67  1  0
 36 68  1  0
 36 69  1  0
 37 70  1  0
 37 71  1  0
 38 72  1  0
 38 73  1  0
M  END
>  <UniqueID>  (5) 
5

>  <SMILES>  (5) 
CC(=O)N1CCC(C(=O)N2CCC(N3CCN(C(=O)c4cccc(-c5ccncn5)c4F)CC3)CC2)CC1

>  <Energy>  (5) 
107.66806868142854

>  <Genealogy>  (5) 
CC(=O)N1CCC(C(=O)N2CCC(N3CCN(C(=O)c4cccc(-c5ccncn5)c4F)CC3)CC2)CC1 (3D coordinates assigned)
CC(=O)N1CCC(C(=O)N2CCC(N3CCN(C(=O)c4cccc(-c5ccncn5)c4F)CC3)CC2)CC1 (nonaromatic ring conformer: 107.66806868142854 kcal/mol)

>  <smiles>  (5) 
CC(=O)N1CCC(C(=O)N2CCC(N3CCN(C(=O)c4cccc(-c5ccncn5)c4F)CC3)CC2)CC1

>  <score_type>  (5) 
oracle

>  <origin>  (5) 
adg

>  <m_score__min__energy>  (5) 
-10.220000000000001

>  <m_primary>  (5) 
energy

$$$$
5:0
     RDKit          3D

 29 31  0  0  0  0  0  0  0  0999 V2000
   56.8660   30.4770   43.8030 C   0  0  0  0  0  0  0  0  0  0  0  0
   56.8920   31.0850   45.0910 O   0  0  0  0  0  0  0  0  0  0  0  0
   57.6000   32.2550   45.4010 C   0  0  0  0  0  0  0  0  0  0  0  0
   57.3990   33.3850   44.5980 C   0  0  0  0  0  0  0  0  0  0  0  0
   58.0720   34.5770   44.8740 C   0  0  0  0  0  0  0  0  0  0  0  0
   58.9610   34.6490   45.9480 C   0  0  0  0  0  0  0  0  0  0  0  0
   59.1940   33.5230   46.7510 C   0  0  0  0  0  0  0  0  0  0  0  0
   60.0990   33.6130   47.8620 N   0  0  0  0  0  0  0  0  0  0  0  0
   59.7160   33.8500   49.1150 N   0  0  0  0  0  0  0  0  0  0  0  0
   60.7710   33.8780   49.9250 N   0  0  0  0  0  0  0  0  0  0  0  0
   61.8540   33.6620   49.1630 C   0  0  0  0  0  0  0  0  0  0  0  0
   63.1980   33.6450   49.5270 C   0  0  0  0  0  0  0  0  0  0  0  0
   64.1420   33.4570   48.5000 C   0  0  0  0  0  0  0  0  0  0  0  0
   63.7230   33.3120   47.1560 C   0  0  0  0  0  0  0  0  0  0  0  0
   62.3530   33.3430   46.8250 C   0  0  0  0  0  0  0  0  0  0  0  0
   61.4440   33.4990   47.8730 C   0  0  0  0  0  0  0  0  0  0  0  0
   58.4960   32.3320   46.4850 C   0  0  0  0  0  0  0  0  0  0  0  0
   56.8193   29.3837   43.9145 H   0  0  0  0  0  0  0  0  0  0  0  0
   55.9820   30.8273   43.2500 H   0  0  0  0  0  0  0  0  0  0  0  0
   57.7767   30.7506   43.2500 H   0  0  0  0  0  0  0  0  0  0  0  0
   56.7067   33.3331   43.7447 H   0  0  0  0  0  0  0  0  0  0  0  0
   57.9012   35.4619   44.2433 H   0  0  0  0  0  0  0  0  0  0  0  0
   59.4813   35.5935   46.1655 H   0  0  0  0  0  0  0  0  0  0  0  0
   60.7370   34.0550   50.9530 H   0  0  0  0  0  0  0  0  0  0  0  0
   63.5092   33.7732   50.5742 H   0  0  0  0  0  0  0  0  0  0  0  0
   65.2140   33.4225   48.7440 H   0  0  0  0  0  0  0  0  0  0  0  0
   64.4727   33.1739   46.3629 H   0  0  0  0  0  0  0  0  0  0  0  0
   62.0139   33.2481   45.7829 H   0  0  0  0  0  0  0  0  0  0  0  0
   58.6508   31.4534   47.1285 H   0  0  0  0  0  0  0  0  0  0  0  0
  1  2  1  0
  2  3  1  0
  3  4  2  0
  4  5  1  0
  5  6  2  0
  6  7  1  0
  7  8  1  0
  8  9  1  0
  9 10  2  0
 10 11  1  0
 11 12  2  0
 12 13  1  0
 13 14  2  0
 14 15  1  0
 15 16  2  0
  7 17  2  0
 17  3  1  0
 16  8  1  0
 16 11  1  0
  1 18  1  0
  1 19  1  0
  1 20  1  0
  4 21  1  0
  5 22  1  0
  6 23  1  0
 10 24  1  0
 12 25  1  0
 13 26  1  0
 14 27  1  0
 15 28  1  0
 17 29  1  0
M  CHG  1  10   1
M  END
>  <UniqueID>  (6) 
6

>  <SMILES>  (6) 
COc1cccc(-n2n[nH+]c3ccccc32)c1

>  <Energy>  (6) 
81.36438121612954

>  <Genealogy>  (6) 
COc1cccc(-n2n[nH+]c3ccccc32)c1 (protonated)
COc1cccc(-n2n[nH+]c3ccccc32)c1 (3D coordinates assigned)
COc1cccc(-n2n[nH+]c3ccccc32)c1 (optimized conformer: 81.36438121612954 kcal/mol)

>  <smiles>  (6) 
COc1cccc(-n2nnc3ccccc32)c1

>  <score_type>  (6) 
oracle

>  <origin>  (6) 
adg

>  <m_score__min__energy>  (6) 
-5.5999999999999996

>  <m_primary>  (6) 
energy

$$$$
6:0
     RDKit          3D

 38 40  0  0  0  0  0  0  0  0999 V2000
   55.6040   30.4700   44.4530 O   0  0  0  0  0  0  0  0  0  0  0  0
   56.7640   30.1330   44.8140 C   0  0  0  0  0  0  0  0  0  0  0  0
   57.4850   29.0540   44.0730 C   0  0  0  0  0  0  0  0  0  0  0  0
   58.0630   28.0600   45.0470 C   0  0  0  0  0  0  0  0  0  0  0  0
   57.2170   27.2010   45.7750 C   0  0  0  0  0  0  0  0  0  0  0  0
   55.8690   27.2740   45.6310 F   0  0  0  0  0  0  0  0  0  0  0  0
   57.7590   26.2560   46.6520 C   0  0  0  0  0  0  0  0  0  0  0  0
   59.1440   26.1520   46.8040 C   0  0  0  0  0  0  0  0  0  0  0  0
   59.9910   26.9890   46.0750 C   0  0  0  0  0  0  0  0  0  0  0  0
   59.4590   27.9370   45.1950 C   0  0  0  0  0  0  0  0  0  0  0  0
   60.3030   28.7290   44.4860 F   0  0  0  0  0  0  0  0  0  0  0  0
   57.3990   30.7660   45.9310 N   0  0  0  0  0  0  0  0  0  0  0  0
   58.1300   32.0010   45.9100 C   0  0  0  0  0  0  0  0  0  0  0  0
   57.6950   33.1110   45.1670 C   0  0  0  0  0  0  0  0  0  0  0  0
   58.4470   34.2860   45.1560 C   0  0  0  0  0  0  0  0  0  0  0  0
   59.6430   34.3640   45.8740 C   0  0  0  0  0  0  0  0  0  0  0  0
   60.1070   33.2560   46.6030 C   0  0  0  0  0  0  0  0  0  0  0  0
   61.3860   33.3300   47.3550 C   0  0  0  0  0  0  0  0  0  0  0  0
   61.4410   33.9150   48.6310 C   0  0  0  0  0  0  0  0  0  0  0  0
   62.6500   33.9760   49.3240 C   0  0  0  0  0  0  0  0  0  0  0  0
   63.8020   33.4520   48.7390 C   0  0  0  0  0  0  0  0  0  0  0  0
   63.7440   32.8880   47.5020 N   0  0  0  0  0  0  0  0  0  0  0  0
   62.5770   32.8160   46.8060 C   0  0  0  0  0  0  0  0  0  0  0  0
   59.3440   32.0740   46.6070 C   0  0  0  0  0  0  0  0  0  0  0  0
   56.7814   28.5399   43.4018 H   0  0  0  0  0  0  0  0  0  0  0  0
   58.3005   29.5012   43.4856 H   0  0  0  0  0  0  0  0  0  0  0  0
   57.0931   25.5928   47.2237 H   0  0  0  0  0  0  0  0  0  0  0  0
   59.5671   25.4108   47.4980 H   0  0  0  0  0  0  0  0  0  0  0  0
   61.0812   26.9025   46.1933 H   0  0  0  0  0  0  0  0  0  0  0  0
   56.7588   33.0536   44.5923 H   0  0  0  0  0  0  0  0  0  0  0  0
   58.0968   35.1549   44.5795 H   0  0  0  0  0  0  0  0  0  0  0  0
   60.2245   35.2977   45.8686 H   0  0  0  0  0  0  0  0  0  0  0  0
   60.5275   34.3264   49.0852 H   0  0  0  0  0  0  0  0  0  0  0  0
   62.6942   34.4335   50.3234 H   0  0  0  0  0  0  0  0  0  0  0  0
   64.7597   33.4946   49.2785 H   0  0  0  0  0  0  0  0  0  0  0  0
   64.6160   32.5040   47.0760 H   0  0  0  0  0  0  0  0  0  0  0  0
   62.5636   32.3534   45.8081 H   0  0  0  0  0  0  0  0  0  0  0  0
   59.7045   31.1965   47.1638 H   0  0  0  0  0  0  0  0  0  0  0  0
  1  2  2  0
  2  3  1  0
  3  4  1  0
  4  5  2  0
  5  6  1  0
  5  7  1  0
  7  8  2  0
  8  9  1  0
  9 10  2  0
 10 11  1  0
  2 12  1  0
 12 13  1  0
 13 14  2  0
 14 15  1  0
 15 16  2  0
 16 17  1  0
 17 18  1  0
 18 19  2  0
 19 20  1  0
 20 21  2  0
 21 22  1  0
 22 23  2  0
 17 24  2  0
 10  4  1  0
 24 13  1  0
 23 18  1  0
  3 25  1  0
  3 26  1  0
  7 27  1  0
  8 28  1  0
  9 29  1  0
 14 30  1  0
 15 31  1  0
 16 32  1  0
 19 33  1  0
 20 34  1  0
 21 35  1  0
 22 36  1  0
 23 37  1  0
 24 38  1  0
M  CHG  2  12  -1  22   1
M  END
>  <UniqueID>  (7) 
7

>  <SMILES>  (7) 
O=C(Cc1c(F)cccc1F)[N-]c1cccc(-c2ccc[nH+]c2)c1

>  <Energy>  (7) 
48.38992675789362

>  <Genealogy>  (7) 
O=C(Cc1c(F)cccc1F)[N-]c1cccc(-c2ccc[nH+]c2)c1 (protonated)
O=C(Cc1c(F)cccc1F)[N-]c1cccc(-c2ccc[nH+]c2)c1 (3D coordinates assigned)
O=C(Cc1c(F)cccc1F)[N-]c1cccc(-c2ccc[nH+]c2)c1 (optimized conformer: 48.38992675789362 kcal/mol)

>  <smiles>  (7) 
O=C(Cc1c(F)cccc1F)Nc1cccc(-c2cccnc2)c1

>  <score_type>  (7) 
oracle

>  <origin>  (7) 
adg

>  <m_score__min__energy>  (7) 
-9.3699999999999992

>  <m_primary>  (7) 
energy

$$$$
7:0
     RDKit          3D

 41 44  0  0  1  0  0  0  0  0999 V2000
   57.1340   27.7830   45.9590 O   0  0  0  0  0  0  0  0  0  0  0  0
   56.9230   28.8710   45.3550 C   0  0  0  0  0  0  0  0  0  0  0  0
   55.7060   29.3700   45.0590 N   0  0  0  0  0  0  0  0  0  0  0  0
   55.9090   30.5350   44.4210 N   0  0  0  0  0  0  0  0  0  0  0  0
   57.2330   30.7470   44.3250 C   0  0  0  0  0  0  0  0  0  0  0  0
   57.8640   31.9420   43.6760 C   0  0  0  0  0  0  0  0  0  0  0  0
   58.2240   32.8740   44.7800 C   0  0  0  0  0  0  0  0  0  0  0  0
   59.1690   33.8700   44.6470 C   0  0  0  0  0  0  0  0  0  0  0  0
   59.4640   34.7140   45.7190 C   0  0  0  0  0  0  0  0  0  0  0  0
   58.7840   34.5250   46.9230 C   0  0  0  0  0  0  0  0  0  0  0  0
   57.8360   33.5380   47.0790 C   0  0  0  0  0  0  0  0  0  0  0  0
   57.5750   32.7280   45.9990 C   0  0  0  0  0  0  0  0  0  0  0  0
   57.8540   29.7270   44.8980 N   0  0  0  0  0  0  0  0  0  0  0  0
   59.2650   29.6060   44.9880 N   0  0  0  0  0  0  0  0  0  0  0  0
   59.8490   29.3940   46.1130 C   0  0  0  0  0  0  0  0  0  0  0  0
   60.2870   30.4550   47.0120 C   0  0  0  0  0  0  0  0  0  0  0  0
   59.5360   30.7860   48.1230 C   0  0  0  0  0  0  0  0  0  0  0  0
   59.8970   31.7800   49.0090 C   0  0  0  0  0  0  0  0  0  0  0  0
   61.0680   32.4560   48.7460 C   0  0  0  0  0  0  0  0  0  0  0  0
   61.4320   33.4500   49.6290 C   0  0  0  0  0  0  0  0  0  0  0  0
   62.5940   34.1750   49.4350 C   0  0  0  0  0  0  0  0  0  0  0  0
   63.3760   33.8780   48.3370 C   0  0  0  0  0  0  0  0  0  0  0  0
   62.9920   32.8830   47.4700 C   0  0  0  0  0  0  0  0  0  0  0  0
   61.8510   32.1470   47.6310 C   0  0  0  0  0  0  0  0  0  0  0  0
   61.4580   31.1410   46.7610 C   0  0  0  0  0  0  0  0  0  0  0  0
   54.7660   28.9620   45.2700 H   0  0  0  0  0  0  0  0  0  0  0  0
   58.7652   31.6427   43.1208 H   0  0  0  0  0  0  0  0  0  0  0  0
   57.1783   32.4168   42.9588 H   0  0  0  0  0  0  0  0  0  0  0  0
   59.6940   34.0001   43.6892 H   0  0  0  0  0  0  0  0  0  0  0  0
   60.2158   35.5105   45.6170 H   0  0  0  0  0  0  0  0  0  0  0  0
   59.0121   35.1844   47.7734 H   0  0  0  0  0  0  0  0  0  0  0  0
   57.3065   33.4026   48.0336 H   0  0  0  0  0  0  0  0  0  0  0  0
   56.8223   31.9329   46.1048 H   0  0  0  0  0  0  0  0  0  0  0  0
   60.0288   28.3517   46.4152 H   0  0  0  0  0  0  0  0  0  0  0  0
   58.6053   30.2303   48.3104 H   0  0  0  0  0  0  0  0  0  0  0  0
   59.2779   32.0217   49.8855 H   0  0  0  0  0  0  0  0  0  0  0  0
   60.7921   33.6688   50.4965 H   0  0  0  0  0  0  0  0  0  0  0  0
   62.8875   34.9684   50.1382 H   0  0  0  0  0  0  0  0  0  0  0  0
   64.3058   34.4372   48.1560 H   0  0  0  0  0  0  0  0  0  0  0  0
   63.6346   32.6681   46.6035 H   0  0  0  0  0  0  0  0  0  0  0  0
   62.0716   30.8931   45.8823 H   0  0  0  0  0  0  0  0  0  0  0  0
  1  2  2  0
  2  3  1  0
  3  4  1  0
  4  5  2  0
  5  6  1  0
  6  7  1  0
  7  8  2  0
  8  9  1  0
  9 10  2  0
 10 11  1  0
 11 12  2  0
  5 13  1  0
 13 14  1  0
 14 15  2  0
 15 16  1  0
 16 17  2  0
 17 18  1  0
 18 19  2  0
 19 20  1  0
 20 21  2  0
 21 22  1  0
 22 23  2  0
 23 24  1  0
 24 25  2  0
 13  2  1  0
 25 16  1  0
 12  7  1  0
 24 19  1  0
  3 26  1  0
  6 27  1  0
  6 28  1  0
  8 29  1  0
  9 30  1  0
 10 31  1  0
 11 32  1  0
 12 33  1  0
 15 34  1  0
 17 35  1  0
 18 36  1  0
 20 37  1  0
 21 38  1  0
 22 39  1  0
 23 40  1  0
 25 41  1  0
M  END
>  <smiles>  (8) 
O=c1[nH]nc(Cc2ccccc2)n1N=Cc1ccc2ccccc2c1

>  <score_type>  (8) 
oracle

>  <origin>  (8) 
adg

>  <m_score__min__energy>  (8) 
-9.2200000000000006

>  <m_primary>  (8) 
energy

$$$$
8:0
     RDKit          3D

 70 72  0  0  0  0  0  0  0  0999 V2000
   59.2560   35.0200   47.2030 C   0  0  0  0  0  0  0  0  0  0  0  0
   58.2200   34.2720   46.3500 C   0  0  0  0  0  0  0  0  0  0  0  0
   58.5940   34.3850   44.8660 C   0  0  0  0  0  0  0  0  0  0  0  0
   58.1050   32.7840   46.7640 C   0  0  0  0  0  0  0  0  0  0  0  0
   59.0650   31.8620   45.9770 C   0  0  1  0  0  0  0  0  0  0  0  0
   60.2810   31.5700   46.7490 N   0  0  0  0  0  0  0  0  0  0  0  0
   61.4160   32.4450   46.7550 C   0  0  0  0  0  0  0  0  0  0  0  0
   61.4240   33.4880   46.0450 O   0  0  0  0  0  0  0  0  0  0  0  0
   62.5810   32.1640   47.6560 C   0  0  0  0  0  0  0  0  0  0  0  0
   62.2420   32.5500   49.0680 C   0  0  0  0  0  0  0  0  0  0  0  0
   63.1650   32.3270   50.1040 C   0  0  0  0  0  0  0  0  0  0  0  0
   62.8690   32.7260   51.4110 C   0  0  0  0  0  0  0  0  0  0  0  0
   63.7640   32.5070   52.4070 F   0  0  0  0  0  0  0  0  0  0  0  0
   61.6550   33.3590   51.6920 C   0  0  0  0  0  0  0  0  0  0  0  0
   60.7330   33.5920   50.6660 C   0  0  0  0  0  0  0  0  0  0  0  0
   59.5640   34.2220   50.9390 F   0  0  0  0  0  0  0  0  0  0  0  0
   61.0250   33.1910   49.3570 C   0  0  0  0  0  0  0  0  0  0  0  0
   58.3750   30.5850   45.5470 C   0  0  0  0  0  0  0  0  0  0  0  0
   57.1390   30.6250   45.3070 O   0  0  0  0  0  0  0  0  0  0  0  0
   59.0600   29.3400   45.3470 N   0  0  0  0  0  0  0  0  0  0  0  0
   59.4810   28.3910   46.3710 C   0  0  0  0  0  0  0  0  0  0  0  0
   58.8850   28.7970   47.7210 C   0  0  0  0  0  0  0  0  0  0  0  0
   59.9540   28.8240   48.8220 C   0  0  0  0  0  0  0  0  0  0  0  0
   59.9900   30.1510   49.4770 N   0  0  0  0  0  0  0  0  0  0  0  0
   58.7480   30.9390   49.2280 C   0  0  0  0  0  0  0  0  0  0  0  0
   58.1710   31.5960   50.4870 C   0  0  0  0  0  0  0  0  0  0  0  0
   58.0430   30.5780   51.5340 N   0  0  0  0  0  0  0  0  0  0  0  0
   56.7870   30.3530   52.2010 C   0  0  0  0  0  0  0  0  0  0  0  0
   56.7360   29.6110   53.3960 C   0  0  0  0  0  0  0  0  0  0  0  0
   55.5140   29.3900   54.0370 C   0  0  0  0  0  0  0  0  0  0  0  0
   54.3330   29.8940   53.4900 C   0  0  0  0  0  0  0  0  0  0  0  0
   54.3680   30.6120   52.2920 C   0  0  0  0  0  0  0  0  0  0  0  0
   52.8810   31.2350   51.6000 Cl  0  0  0  0  0  0  0  0  0  0  0  0
   55.5900   30.8410   51.6490 C   0  0  0  0  0  0  0  0  0  0  0  0
   59.1910   29.7060   51.8140 C   0  0  0  0  0  0  0  0  0  0  0  0
   60.3820   30.0520   50.9040 C   0  0  0  0  0  0  0  0  0  0  0  0
   59.0364   34.8615   48.2691 H   0  0  0  0  0  0  0  0  0  0  0  0
   60.2624   34.6389   46.9753 H   0  0  0  0  0  0  0  0  0  0  0  0
   59.2109   36.0952   46.9753 H   0  0  0  0  0  0  0  0  0  0  0  0
   57.2378   34.7379   46.5182 H   0  0  0  0  0  0  0  0  0  0  0  0
   59.6434   34.7021   44.7755 H   0  0  0  0  0  0  0  0  0  0  0  0
   58.4631   33.4072   44.3794 H   0  0  0  0  0  0  0  0  0  0  0  0
   57.9436   35.1267   44.3794 H   0  0  0  0  0  0  0  0  0  0  0  0
   58.3377   32.6994   47.8358 H   0  0  0  0  0  0  0  0  0  0  0  0
   57.0785   32.4585   46.5397 H   0  0  0  0  0  0  0  0  0  0  0  0
   59.3670   32.4025   45.0678 H   0  0  0  0  0  0  0  0  0  0  0  0
   60.3010   30.7340   47.3750 H   0  0  0  0  0  0  0  0  0  0  0  0
   62.8200   31.0909   47.6189 H   0  0  0  0  0  0  0  0  0  0  0  0
   63.4484   32.7507   47.3191 H   0  0  0  0  0  0  0  0  0  0  0  0
   64.1249   31.8362   49.8856 H   0  0  0  0  0  0  0  0  0  0  0  0
   61.4244   33.6741   52.7204 H   0  0  0  0  0  0  0  0  0  0  0  0
   60.2994   33.3782   48.5517 H   0  0  0  0  0  0  0  0  0  0  0  0
   59.1297   27.3835   46.1035 H   0  0  0  0  0  0  0  0  0  0  0  0
   60.5788   28.3908   46.4407 H   0  0  0  0  0  0  0  0  0  0  0  0
   58.4412   29.7993   47.6290 H   0  0  0  0  0  0  0  0  0  0  0  0
   58.1219   28.0550   47.9987 H   0  0  0  0  0  0  0  0  0  0  0  0
   59.7193   28.0557   49.5734 H   0  0  0  0  0  0  0  0  0  0  0  0
   60.9363   28.6239   48.3692 H   0  0  0  0  0  0  0  0  0  0  0  0
   58.9789   31.7295   48.4987 H   0  0  0  0  0  0  0  0  0  0  0  0
   57.9894   30.2339   48.8575 H   0  0  0  0  0  0  0  0  0  0  0  0
   58.8448   32.3954   50.8289 H   0  0  0  0  0  0  0  0  0  0  0  0
   57.1848   32.0294   50.2642 H   0  0  0  0  0  0  0  0  0  0  0  0
   57.6621   29.2033   53.8273 H   0  0  0  0  0  0  0  0  0  0  0  0
   55.4828   28.8171   54.9755 H   0  0  0  0  0  0  0  0  0  0  0  0
   53.3742   29.7258   54.0023 H   0  0  0  0  0  0  0  0  0  0  0  0
   55.6137   31.4064   50.7057 H   0  0  0  0  0  0  0  0  0  0  0  0
   59.4919   29.8339   52.8643 H   0  0  0  0  0  0  0  0  0  0  0  0
   58.8945   28.6643   51.6217 H   0  0  0  0  0  0  0  0  0  0  0  0
   60.8023   31.0171   51.2231 H   0  0  0  0  0  0  0  0  0  0  0  0
   61.1210   29.2423   50.9945 H   0  0  0  0  0  0  0  0  0  0  0  0
  1  2  1  0
  2  3  1  0
  2  4  1  0
  4  5  1  0
  5  6  1  0
  6  7  1  0
  7  8  2  0
  7  9  1  0
  9 10  1  0
 10 11  2  0
 11 12  1  0
 12 13  1  0
 12 14  2  0
 14 15  1  0
 15 16  1  0
 15 17  2  0
  5 18  1  0
 18 19  2  0
 18 20  1  0
 20 21  1  0
 21 22  1  0
 22 23  1  0
 23 24  1  0
 24 25  1  0
 25 26  1  0
 26 27  1  0
 27 28  1  0
 28 29  2  0
 29 30  1  0
 30 31  2  0
 31 32  1  0
 32 33  1  0
 32 34  2  0
 27 35  1  0
 35 36  1  0
 17 10  1  0
 36 24  1  0
 34 28  1  0
  1 37  1  0
  1 38  1  0
  1 39  1  0
  2 40  1  0
  3 41  1  0
  3 42  1  0
  3 43  1  0
  4 44  1  0
  4 45  1  0
  5 46  1  6
  6 47  1  0
  9 48  1  0
  9 49  1  0
 11 50  1  0
 14 51  1  0
 17 52  1  0
 21 53  1  0
 21 54  1  0
 22 55  1  0
 22 56  1  0
 23 57  1  0
 23 58  1  0
 25 59  1  0
 25 60  1  0
 26 61  1  0
 26 62  1  0
 29 63  1  0
 30 64  1  0
 31 65  1  0
 34 66  1  0
 35 67  1  0
 35 68  1  0
 36 69  1  0
 36 70  1  0
M  CHG  1  20  -1
M  END
>  <UniqueID>  (9) 
8

>  <SMILES>  (9) 
CC(C)C[C@@H](NC(=O)Cc1cc(F)cc(F)c1)C(=O)[N-]CCCN1CCN(c2cccc(Cl)c2)CC1

>  <Energy>  (9) 
71.71674788643713

>  <Genealogy>  (9) 
CC(C)CC(NC(=O)Cc1cc(F)cc(F)c1)C(=O)[N-]CCCN1CCN(c2cccc(Cl)c2)CC1 (protonated)
CC(C)C[C@@H](NC(=O)Cc1cc(F)cc(F)c1)C(=O)[N-]CCCN1CCN(c2cccc(Cl)c2)CC1 (chirality)
CC(C)C[C@@H](NC(=O)Cc1cc(F)cc(F)c1)C(=O)[N-]CCCN1CCN(c2cccc(Cl)c2)CC1 (3D coordinates assigned)
CC(C)C[C@@H](NC(=O)Cc1cc(F)cc(F)c1)C(=O)[N-]CCCN1CCN(c2cccc(Cl)c2)CC1 (nonaromatic ring conformer: 71.71674788643713 kcal/mol)

>  <smiles>  (9) 
CC(C)CC(NC(=O)Cc1cc(F)cc(F)c1)C(=O)NCCCN1CCN(c2cccc(Cl)c2)CC1

>  <score_type>  (9) 
oracle

>  <origin>  (9) 
adg

>  <m_score__min__energy>  (9) 
-11.35

>  <m_primary>  (9) 
energy

$$$$
9:0
     RDKit          3D

 45 46  0  0  0  0  0  0  0  0999 V2000
   59.5350   34.6140   45.6730 C   0  0  0  0  0  0  0  0  0  0  0  0
   58.0630   34.2090   45.6000 C   0  0  0  0  0  0  0  0  0  0  0  0
   57.7640   32.8950   46.3380 C   0  0  0  0  0  0  0  0  0  0  0  0
   58.2540   32.8680   47.7970 C   0  0  0  0  0  0  0  0  0  0  0  0
   59.4970   32.1770   47.9340 O   0  0  0  0  0  0  0  0  0  0  0  0
   60.7300   32.7550   48.2850 C   0  0  0  0  0  0  0  0  0  0  0  0
   60.8110   33.9310   49.0590 C   0  0  0  0  0  0  0  0  0  0  0  0
   62.0520   34.4690   49.4030 C   0  0  0  0  0  0  0  0  0  0  0  0
   63.2260   33.8510   48.9740 C   0  0  0  0  0  0  0  0  0  0  0  0
   63.1630   32.6980   48.1920 C   0  0  0  0  0  0  0  0  0  0  0  0
   61.9210   32.1410   47.8380 C   0  0  0  0  0  0  0  0  0  0  0  0
   61.8830   30.8950   46.9760 C   0  0  0  0  0  0  0  0  0  0  0  0
   60.7360   30.0160   47.2770 N   0  0  0  0  0  0  0  0  0  0  0  0
   60.1840   29.2960   46.1100 C   0  0  0  0  0  0  0  0  0  0  0  0
   58.6890   28.9490   46.2660 C   0  0  1  0  0  0  0  0  0  0  0  0
   58.2060   29.4220   47.4940 O   0  0  0  0  0  0  0  0  0  0  0  0
   57.9060   29.5780   45.1470 C   0  0  0  0  0  0  0  0  0  0  0  0
   58.3880   30.5240   44.2510 C   0  0  0  0  0  0  0  0  0  0  0  0
   57.4090   30.9870   43.3640 C   0  0  0  0  0  0  0  0  0  0  0  0
   57.7600   32.2880   42.0140 Br  0  0  0  0  0  0  0  0  0  0  0  0
   56.1550   30.4240   43.5640 C   0  0  0  0  0  0  0  0  0  0  0  0
   56.2640   29.3480   44.8520 S   0  0  0  0  0  0  0  0  0  0  0  0
   59.8404   34.6980   46.7264 H   0  0  0  0  0  0  0  0  0  0  0  0
   60.1503   33.8518   45.1726 H   0  0  0  0  0  0  0  0  0  0  0  0
   59.6737   35.5837   45.1726 H   0  0  0  0  0  0  0  0  0  0  0  0
   57.4567   35.0092   46.0495 H   0  0  0  0  0  0  0  0  0  0  0  0
   57.8170   34.0536   44.5392 H   0  0  0  0  0  0  0  0  0  0  0  0
   56.6753   32.7379   46.3363 H   0  0  0  0  0  0  0  0  0  0  0  0
   58.3087   32.1013   45.8057 H   0  0  0  0  0  0  0  0  0  0  0  0
   58.3831   33.9028   48.1470 H   0  0  0  0  0  0  0  0  0  0  0  0
   57.5021   32.3345   48.3970 H   0  0  0  0  0  0  0  0  0  0  0  0
   59.8888   34.4282   49.3943 H   0  0  0  0  0  0  0  0  0  0  0  0
   62.1040   35.3824   50.0138 H   0  0  0  0  0  0  0  0  0  0  0  0
   64.2027   34.2733   49.2526 H   0  0  0  0  0  0  0  0  0  0  0  0
   64.0926   32.2201   47.8491 H   0  0  0  0  0  0  0  0  0  0  0  0
   61.8219   31.2010   45.9212 H   0  0  0  0  0  0  0  0  0  0  0  0
   62.7984   30.3227   47.1871 H   0  0  0  0  0  0  0  0  0  0  0  0
   59.9850   30.5900   47.7230 H   0  0  0  0  0  0  0  0  0  0  0  0
   61.0310   29.3130   47.9910 H   0  0  0  0  0  0  0  0  0  0  0  0
   60.3055   29.9288   45.2185 H   0  0  0  0  0  0  0  0  0  0  0  0
   60.7336   28.3475   46.0192 H   0  0  0  0  0  0  0  0  0  0  0  0
   58.5733   27.8556   46.2318 H   0  0  0  0  0  0  0  0  0  0  0  0
   58.3300   30.4070   47.4910 H   0  0  0  0  0  0  0  0  0  0  0  0
   59.4311   30.8731   44.2397 H   0  0  0  0  0  0  0  0  0  0  0  0
   55.2483   30.6437   42.9813 H   0  0  0  0  0  0  0  0  0  0  0  0
  1  2  1  0
  2  3  1  0
  3  4  1  0
  4  5  1  0
  5  6  1  0
  6  7  2  0
  7  8  1  0
  8  9  2  0
  9 10  1  0
 10 11  2  0
 11 12  1  0
 12 13  1  0
 13 14  1  0
 14 15  1  0
 15 16  1  0
 15 17  1  0
 17 18  2  0
 18 19  1  0
 19 20  1  0
 19 21  2  0
 21 22  1  0
 11  6  1  0
 22 17  1  0
  1 23  1  0
  1 24  1  0
  1 25  1  0
  2 26  1  0
  2 27  1  0
  3 28  1  0
  3 29  1  0
  4 30  1  0
  4 31  1  0
  7 32  1  0
  8 33  1  0
  9 34  1  0
 10 35  1  0
 12 36  1  0
 12 37  1  0
 13 38  1  0
 13 39  1  0
 14 40  1  0
 14 41  1  0
 15 42  1  1
 16 43  1  0
 18 44  1  0
 21 45  1  0
M  CHG  1  13   1
M  END
>  <UniqueID>  (10) 
9

>  <SMILES>  (10) 
CCCCOc1ccccc1C[NH2+]C[C@@H](O)c1cc(Br)cs1

>  <Energy>  (10) 
65.11738374291906

>  <Genealogy>  (10) 
CCCCOc1ccccc1C[NH2+]CC(O)c1cc(Br)cs1 (protonated)
CCCCOc1ccccc1C[NH2+]C[C@@H](O)c1cc(Br)cs1 (chirality)
CCCCOc1ccccc1C[NH2+]C[C@@H](O)c1cc(Br)cs1 (3D coordinates assigned)
CCCCOc1ccccc1C[NH2+]C[C@@H](O)c1cc(Br)cs1 (optimized conformer: 65.11738374291906 kcal/mol)

>  <smiles>  (10) 
CCCCOc1ccccc1CNCC(O)c1cc(Br)cs1

>  <score_type>  (10) 
oracle

>  <origin>  (10) 
adg

>  <m_score__min__energy>  (10) 
-6.2300000000000004

>  <m_primary>  (10) 
energy

$$$$
10:0
     RDKit          3D

 30 32  0  0  0  0  0  0  0  0999 V2000
   53.8510   23.4440   45.5050 C   0  0  0  0  0  0  0  0  0  0  0  0
   54.7340   24.6450   45.6240 C   0  0  0  0  0  0  0  0  0  0  0  0
   54.2860   25.8580   45.9940 N   0  0  0  0  0  0  0  0  0  0  0  0
   55.3030   26.7060   45.9770 N   0  0  0  0  0  0  0  0  0  0  0  0
   56.4150   26.0420   45.6010 C   0  0  0  0  0  0  0  0  0  0  0  0
   57.7450   26.6850   45.5120 C   0  0  0  0  0  0  0  0  0  0  0  0
   57.9830   27.7440   44.6180 C   0  0  0  0  0  0  0  0  0  0  0  0
   59.2490   28.3320   44.5410 C   0  0  0  0  0  0  0  0  0  0  0  0
   60.2910   27.8600   45.3440 C   0  0  0  0  0  0  0  0  0  0  0  0
   61.5190   28.4300   45.2650 F   0  0  0  0  0  0  0  0  0  0  0  0
   60.0700   26.7950   46.2200 C   0  0  0  0  0  0  0  0  0  0  0  0
   58.8040   26.2050   46.3000 C   0  0  0  0  0  0  0  0  0  0  0  0
   56.0930   24.7100   45.3680 C   0  0  0  0  0  0  0  0  0  0  0  0
   56.9540   23.6360   44.8290 C   0  0  0  0  0  0  0  0  0  0  0  0
   58.1870   23.3410   45.4290 C   0  0  0  0  0  0  0  0  0  0  0  0
   58.9830   22.3220   44.9010 C   0  0  0  0  0  0  0  0  0  0  0  0
   58.5630   21.6200   43.8150 N   0  0  0  0  0  0  0  0  0  0  0  0
   57.3730   21.8820   43.2150 C   0  0  0  0  0  0  0  0  0  0  0  0
   56.5450   22.8930   43.7110 C   0  0  0  0  0  0  0  0  0  0  0  0
   53.5856   23.0830   46.5096 H   0  0  0  0  0  0  0  0  0  0  0  0
   52.9353   23.7148   44.9589 H   0  0  0  0  0  0  0  0  0  0  0  0
   54.3826   22.6507   44.9589 H   0  0  0  0  0  0  0  0  0  0  0  0
   57.1689   28.1116   43.9760 H   0  0  0  0  0  0  0  0  0  0  0  0
   59.4253   29.1674   43.8474 H   0  0  0  0  0  0  0  0  0  0  0  0
   60.8919   26.4198   46.8475 H   0  0  0  0  0  0  0  0  0  0  0  0
   58.6369   25.3600   46.9842 H   0  0  0  0  0  0  0  0  0  0  0  0
   58.5246   23.9081   46.3090 H   0  0  0  0  0  0  0  0  0  0  0  0
   59.9522   22.0868   45.3650 H   0  0  0  0  0  0  0  0  0  0  0  0
   57.0603   21.2975   42.3372 H   0  0  0  0  0  0  0  0  0  0  0  0
   55.5795   23.1047   43.2283 H   0  0  0  0  0  0  0  0  0  0  0  0
  1  2  1  0
  2  3  1  0
  3  4  1  0
  4  5  2  0
  5  6  1  0
  6  7  2  0
  7  8  1  0
  8  9  2  0
  9 10  1  0
  9 11  1  0
 11 12  2  0
  5 13  1  0
 13 14  1  0
 14 15  2  0
 15 16  1  0
 16 17  2  0
 17 18  1  0
 18 19  2  0
 13  2  2  0
 19 14  1  0
 12  6  1  0
  1 20  1  0
  1 21  1  0
  1 22  1  0
  7 23  1  0
  8 24  1  0
 11 25  1  0
 12 26  1  0
 15 27  1  0
 16 28  1  0
 18 29  1  0
 19 30  1  0
M  CHG  1   3  -1
M  END
>  <UniqueID>  (11) 
10

>  <SMILES>  (11) 
Cc1[n-]nc(-c2ccc(F)cc2)c1-c1ccncc1

>  <Energy>  (11) 
70.92813477271041

>  <Genealogy>  (11) 
Cc1[n-]nc(-c2ccc(F)cc2)c1-c1ccncc1 (protonated)
Cc1[n-]nc(-c2ccc(F)cc2)c1-c1ccncc1 (3D coordinates assigned)
Cc1[n-]nc(-c2ccc(F)cc2)c1-c1ccncc1 (optimized conformer: 70.92813477271041 kcal/mol)

>  <smiles>  (11) 
Cc1[nH]nc(-c2ccc(F)cc2)c1-c1ccncc1

>  <score_type>  (11) 
oracle

>  <origin>  (11) 
adg

>  <m_score__min__energy>  (11) 
-8.6899999999999995

>  <m_primary>  (11) 
energy

$$$$
11:0
     RDKit          3D

 50 53  0  0  0  0  0  0  0  0999 V2000
   56.4930   29.8570   43.1510 C   0  0  0  0  0  0  0  0  0  0  0  0
   56.3060   30.2440   44.5080 O   0  0  0  0  0  0  0  0  0  0  0  0
   57.3930   30.5800   45.3150 C   0  0  0  0  0  0  0  0  0  0  0  0
   57.9370   31.8720   45.2340 C   0  0  0  0  0  0  0  0  0  0  0  0
   58.9860   32.2280   46.0730 C   0  0  0  0  0  0  0  0  0  0  0  0
   59.2770   31.4510   47.1990 C   0  0  0  0  0  0  0  0  0  0  0  0
   58.9010   30.0870   47.1850 C   0  0  0  0  0  0  0  0  0  0  0  0
   59.5420   29.2270   48.0980 O   0  0  0  0  0  0  0  0  0  0  0  0
   60.1550   27.9750   47.8080 C   0  0  0  0  0  0  0  0  0  0  0  0
   57.9510   29.6400   46.2210 C   0  0  0  0  0  0  0  0  0  0  0  0
   57.5820   28.2850   46.1980 O   0  0  0  0  0  0  0  0  0  0  0  0
   57.8380   27.3730   45.1340 C   0  0  0  0  0  0  0  0  0  0  0  0
   59.9360   32.1260   48.3620 C   0  0  0  0  0  0  0  0  0  0  0  0
   60.6790   33.3080   48.1220 C   0  0  0  0  0  0  0  0  0  0  0  0
   61.3310   33.9560   49.1800 C   0  0  0  0  0  0  0  0  0  0  0  0
   61.1740   33.5040   50.4870 C   0  0  0  0  0  0  0  0  0  0  0  0
   60.3390   32.4240   50.7540 C   0  0  0  0  0  0  0  0  0  0  0  0
   59.6880   31.7430   49.7080 C   0  0  0  0  0  0  0  0  0  0  0  0
   58.7160   30.7690   49.9920 O   0  0  0  0  0  0  0  0  0  0  0  0
   57.8450   30.7860   51.0880 C   0  0  0  0  0  0  0  0  0  0  0  0
   57.3670   32.0930   51.6210 C   0  0  0  0  0  0  0  0  0  0  0  0
   57.3830   29.7160   51.5680 O   0  0  0  0  0  0  0  0  0  0  0  0
   60.8380   33.8520   46.7260 C   0  0  0  0  0  0  0  0  0  0  0  0
   59.6350   33.5560   45.8060 C   0  0  2  0  0  0  0  0  0  0  0  0
   58.6070   34.6070   45.8490 N   0  0  0  0  0  0  0  0  0  0  0  0
   57.4710   34.3450   44.9200 C   0  0  0  0  0  0  0  0  0  0  0  0
   57.4380   32.9260   44.2740 C   0  0  0  0  0  0  0  0  0  0  0  0
   56.9713   28.8671   43.1146 H   0  0  0  0  0  0  0  0  0  0  0  0
   55.5174   29.8117   42.6449 H   0  0  0  0  0  0  0  0  0  0  0  0
   57.1348   30.5932   42.6449 H   0  0  0  0  0  0  0  0  0  0  0  0
   60.4057   27.4629   48.7487 H   0  0  0  0  0  0  0  0  0  0  0  0
   59.4598   27.3525   47.2256 H   0  0  0  0  0  0  0  0  0  0  0  0
   61.0731   28.1424   47.2256 H   0  0  0  0  0  0  0  0  0  0  0  0
   58.1132   26.3925   45.5497 H   0  0  0  0  0  0  0  0  0  0  0  0
   56.9345   27.2684   44.5153 H   0  0  0  0  0  0  0  0  0  0  0  0
   58.6639   27.7539   44.5153 H   0  0  0  0  0  0  0  0  0  0  0  0
   61.9708   34.8273   48.9761 H   0  0  0  0  0  0  0  0  0  0  0  0
   61.7103   34.0009   51.3089 H   0  0  0  0  0  0  0  0  0  0  0  0
   60.1858   32.0986   51.7935 H   0  0  0  0  0  0  0  0  0  0  0  0
   57.3768   32.0662   52.7206 H   0  0  0  0  0  0  0  0  0  0  0  0
   58.0292   32.8972   51.2679 H   0  0  0  0  0  0  0  0  0  0  0  0
   56.3422   32.2803   51.2679 H   0  0  0  0  0  0  0  0  0  0  0  0
   60.9662   34.9426   46.7904 H   0  0  0  0  0  0  0  0  0  0  0  0
   61.7126   33.3529   46.2834 H   0  0  0  0  0  0  0  0  0  0  0  0
   60.0758   33.5281   44.7986 H   0  0  0  0  0  0  0  0  0  0  0  0
   58.2350   34.6630   46.8270 H   0  0  0  0  0  0  0  0  0  0  0  0
   56.5359   34.4817   45.4829 H   0  0  0  0  0  0  0  0  0  0  0  0
   57.5974   35.0509   44.0859 H   0  0  0  0  0  0  0  0  0  0  0  0
   56.4033   32.6875   43.9867 H   0  0  0  0  0  0  0  0  0  0  0  0
   58.0963   32.9313   43.3927 H   0  0  0  0  0  0  0  0  0  0  0  0
  1  2  1  0
  2  3  1  0
  3  4  2  0
  4  5  1  0
  5  6  2  0
  6  7  1  0
  7  8  1  0
  8  9  1  0
  7 10  2  0
 10 11  1  0
 11 12  1  0
  6 13  1  0
 13 14  2  0
 14 15  1  0
 15 16  2  0
 16 17  1  0
 17 18  2  0
 18 19  1  0
 19 20  1  0
 20 21  1  0
 20 22  2  0
 14 23  1  0
 23 24  1  0
 24 25  1  0
 25 26  1  0
 26 27  1  0
 10  3  1  0
 18 13  1  0
 27  4  1  0
 24  5  1  0
  1 28  1  0
  1 29  1  0
  1 30  1  0
  9 31  1  0
  9 32  1  0
  9 33  1  0
 12 34  1  0
 12 35  1  0
 12 36  1  0
 15 37  1  0
 16 38  1  0
 17 39  1  0
 21 40  1  0
 21 41  1  0
 21 42  1  0
 23 43  1  0
 23 44  1  0
 24 45  1  6
 25 46  1  0
 26 47  1  0
 26 48  1  0
 27 49  1  0
 27 50  1  0
M  END
>  <UniqueID>  (12) 
11

>  <SMILES>  (12) 
COc1c2c3c(c(OC)c1OC)-c1c(cccc1OC(C)=O)C[C@@H]3NCC2

>  <Energy>  (12) 
97.91761874487207

>  <Genealogy>  (12) 
COc1c2c3c(c(OC)c1OC)-c1c(cccc1OC(C)=O)C[C@@H]3NCC2 (chirality)
COc1c2c3c(c(OC)c1OC)-c1c(cccc1OC(C)=O)C[C@@H]3NCC2 (3D coordinates assigned)
COc1c2c3c(c(OC)c1OC)-c1c(cccc1OC(C)=O)C[C@@H]3NCC2 (nonaromatic ring conformer: 97.91761874487207 kcal/mol)

>  <smiles>  (12) 
COc1c2c3c(c(OC)c1OC)-c1c(cccc1OC(C)=O)CC3NCC2

>  <score_type>  (12) 
oracle

>  <origin>  (12) 
adg

>  <m_score__min__energy>  (12) 
-7.5599999999999996

>  <m_primary>  (12) 
energy

$$$$
12:0
     RDKit          3D

 58 62  0  0  0  0  0  0  0  0999 V2000
   57.3970   32.5740   45.7410 C   0  0  0  0  0  0  0  0  0  0  0  0
   58.8800   32.5730   45.6470 N   0  0  0  0  0  0  0  0  0  0  0  0
   59.4850   33.7340   46.3780 C   0  0  0  0  0  0  0  0  0  0  0  0
   58.9450   33.8560   47.8300 C   0  0  0  0  0  0  0  0  0  0  0  0
   59.9530   34.5730   48.7410 C   0  0  0  0  0  0  0  0  0  0  0  0
   61.1890   33.8820   48.8860 O   0  0  0  0  0  0  0  0  0  0  0  0
   61.5460   33.0940   47.7570 C   0  0  0  0  0  0  0  0  0  0  0  0
   61.0430   33.6610   46.4200 C   0  0  0  0  0  0  0  0  0  0  0  0
   59.4550   31.2430   46.0270 C   0  0  1  0  0  0  0  0  0  0  0  0
   59.1350   30.8310   47.4830 C   0  0  0  0  0  0  0  0  0  0  0  0
   59.6370   29.4420   47.7740 C   0  0  0  0  0  0  0  0  0  0  0  0
   60.1170   29.1280   49.0560 C   0  0  0  0  0  0  0  0  0  0  0  0
   60.5410   27.8250   49.3650 C   0  0  0  0  0  0  0  0  0  0  0  0
   61.0600   27.5010   50.7180 C   0  0  0  0  0  0  0  0  0  0  0  0
   61.4730   28.5260   51.5910 C   0  0  0  0  0  0  0  0  0  0  0  0
   61.9620   28.2180   52.8650 C   0  0  0  0  0  0  0  0  0  0  0  0
   62.0420   26.8880   53.2810 C   0  0  0  0  0  0  0  0  0  0  0  0
   62.5150   26.5920   54.5170 F   0  0  0  0  0  0  0  0  0  0  0  0
   61.6350   25.8620   52.4250 C   0  0  0  0  0  0  0  0  0  0  0  0
   61.1470   26.1640   51.1510 C   0  0  0  0  0  0  0  0  0  0  0  0
   60.4660   26.8350   48.3740 C   0  0  0  0  0  0  0  0  0  0  0  0
   59.9730   27.1360   47.1030 C   0  0  0  0  0  0  0  0  0  0  0  0
   59.5400   28.4390   46.7880 C   0  0  0  0  0  0  0  0  0  0  0  0
   59.0330   28.7780   45.4710 N   0  0  0  0  0  0  0  0  0  0  0  0
   58.5310   27.7550   44.5390 C   0  0  0  0  0  0  0  0  0  0  0  0
   57.4640   26.9290   45.1930 C   0  0  0  0  0  0  0  0  0  0  0  0
   56.2470   27.3860   45.6390 C   0  0  0  0  0  0  0  0  0  0  0  0
   55.5440   26.3470   46.1220 N   0  0  0  0  0  0  0  0  0  0  0  0
   56.3600   25.2870   45.9470 C   0  0  0  0  0  0  0  0  0  0  0  0
   57.5410   25.6010   45.3770 N   0  0  0  0  0  0  0  0  0  0  0  0
   59.0270   30.1630   45.0620 C   0  0  0  0  0  0  0  0  0  0  0  0
   58.7380   30.4730   43.8730 O   0  0  0  0  0  0  0  0  0  0  0  0
   57.0967   32.5742   46.7992 H   0  0  0  0  0  0  0  0  0  0  0  0
   56.9989   33.4724   45.2467 H   0  0  0  0  0  0  0  0  0  0  0  0
   56.9977   31.6761   45.2467 H   0  0  0  0  0  0  0  0  0  0  0  0
   59.1874   34.6267   45.8084 H   0  0  0  0  0  0  0  0  0  0  0  0
   58.0050   34.4271   47.8161 H   0  0  0  0  0  0  0  0  0  0  0  0
   58.7786   32.8430   48.2252 H   0  0  0  0  0  0  0  0  0  0  0  0
   60.1589   35.5665   48.3161 H   0  0  0  0  0  0  0  0  0  0  0  0
   59.4979   34.6288   49.7409 H   0  0  0  0  0  0  0  0  0  0  0  0
   62.6431   33.0266   47.7142 H   0  0  0  0  0  0  0  0  0  0  0  0
   61.0683   32.1119   47.8882 H   0  0  0  0  0  0  0  0  0  0  0  0
   61.4517   34.6733   46.2850 H   0  0  0  0  0  0  0  0  0  0  0  0
   61.3783   32.9917   45.6140 H   0  0  0  0  0  0  0  0  0  0  0  0
   60.5471   31.3600   45.9661 H   0  0  0  0  0  0  0  0  0  0  0  0
   59.6182   31.5396   48.1717 H   0  0  0  0  0  0  0  0  0  0  0  0
   58.0435   30.8445   47.6189 H   0  0  0  0  0  0  0  0  0  0  0  0
   60.1614   29.9114   49.8269 H   0  0  0  0  0  0  0  0  0  0  0  0
   61.4107   29.5759   51.2689 H   0  0  0  0  0  0  0  0  0  0  0  0
   62.2839   29.0249   53.5397 H   0  0  0  0  0  0  0  0  0  0  0  0
   61.6988   24.8144   52.7544 H   0  0  0  0  0  0  0  0  0  0  0  0
   60.8285   25.3514   50.4815 H   0  0  0  0  0  0  0  0  0  0  0  0
   60.7989   25.8114   48.6006 H   0  0  0  0  0  0  0  0  0  0  0  0
   59.9221   26.3466   46.3387 H   0  0  0  0  0  0  0  0  0  0  0  0
   58.1125   28.2492   43.6498 H   0  0  0  0  0  0  0  0  0  0  0  0
   59.3638   27.0971   44.2497 H   0  0  0  0  0  0  0  0  0  0  0  0
   55.9044   28.4308   45.6061 H   0  0  0  0  0  0  0  0  0  0  0  0
   56.0875   24.2628   46.2416 H   0  0  0  0  0  0  0  0  0  0  0  0
  1  2  1  0
  2  3  1  0
  3  4  1  0
  4  5  1  0
  5  6  1  0
  6  7  1  0
  7  8  1  0
  2  9  1  0
  9 10  1  0
 10 11  1  0
 11 12  2  0
 12 13  1  0
 13 14  1  0
 14 15  2  0
 15 16  1  0
 16 17  2  0
 17 18  1  0
 17 19  1  0
 19 20  2  0
 13 21  2  0
 21 22  1  0
 22 23  2  0
 23 24  1  0
 24 25  1  0
 25 26  1  0
 26 27  2  0
 27 28  1  0
 28 29  1  0
 29 30  2  0
 24 31  1  0
 31 32  2  0
  8  3  1  0
 31  9  1  0
 23 11  1  0
 30 26  1  0
 20 14  1  0
  1 33  1  0
  1 34  1  0
  1 35  1  0
  3 36  1  0
  4 37  1  0
  4 38  1  0
  5 39  1  0
  5 40  1  0
  7 41  1  0
  7 42  1  0
  8 43  1  0
  8 44  1  0
  9 45  1  1
 10 46  1  0
 10 47  1  0
 12 48  1  0
 15 49  1  0
 16 50  1  0
 19 51  1  0
 20 52  1  0
 21 53  1  0
 22 54  1  0
 25 55  1  0
 25 56  1  0
 27 57  1  0
 29 58  1  0
M  CHG  1  28  -1
M  END
>  <UniqueID>  (13) 
12

>  <SMILES>  (13) 
CN(C1CCOCC1)[C@H]1Cc2cc(-c3ccc(F)cc3)ccc2N(Cc2c[n-]cn2)C1=O

>  <Energy>  (13) 
122.41987253940054

>  <Genealogy>  (13) 
CN(C1CCOCC1)C1Cc2cc(-c3ccc(F)cc3)ccc2N(Cc2c[n-]cn2)C1=O (protonated)
CN(C1CCOCC1)[C@H]1Cc2cc(-c3ccc(F)cc3)ccc2N(Cc2c[n-]cn2)C1=O (chirality)
CN(C1CCOCC1)[C@H]1Cc2cc(-c3ccc(F)cc3)ccc2N(Cc2c[n-]cn2)C1=O (3D coordinates assigned)
CN(C1CCOCC1)[C@H]1Cc2cc(-c3ccc(F)cc3)ccc2N(Cc2c[n-]cn2)C1=O (nonaromatic ring conformer: 122.41987253940054 kcal/mol)

>  <smiles>  (13) 
CN(C1CCOCC1)C1Cc2cc(-c3ccc(F)cc3)ccc2N(Cc2c[nH]cn2)C1=O

>  <score_type>  (13) 
oracle

>  <origin>  (13) 
adg

>  <m_score__min__energy>  (13) 
-9.6600000000000001

>  <m_primary>  (13) 
energy

$$$$
13:0
     RDKit          3D

 32 33  0  0  0  0  0  0  0  0999 V2000
   58.9920   22.8710   45.2290 C   0  0  0  0  0  0  0  0  0  0  0  0
   59.4070   23.9970   45.9960 O   0  0  0  0  0  0  0  0  0  0  0  0
   58.8020   25.2610   45.9390 C   0  0  0  0  0  0  0  0  0  0  0  0
   57.4160   25.4260   45.7800 C   0  0  0  0  0  0  0  0  0  0  0  0
   56.8600   26.7060   45.7410 C   0  0  0  0  0  0  0  0  0  0  0  0
   57.6690   27.8400   45.8690 C   0  0  0  0  0  0  0  0  0  0  0  0
   57.0330   29.1240   45.9020 N   0  0  0  0  0  0  0  0  0  0  0  0
   56.3310   29.7070   44.7990 C   0  0  0  0  0  0  0  0  0  0  0  0
   55.1350   29.3880   44.5600 O   0  0  0  0  0  0  0  0  0  0  0  0
   57.0510   30.6340   43.8750 C   0  0  0  0  0  0  0  0  0  0  0  0
   57.7500   31.6560   44.6470 N   0  0  0  0  0  0  0  0  0  0  0  0
   57.7620   32.9780   44.3900 C   0  0  0  0  0  0  0  0  0  0  0  0
   58.6000   33.5920   45.3010 C   0  0  0  0  0  0  0  0  0  0  0  0
   59.0840   32.5660   46.0900 C   0  0  0  0  0  0  0  0  0  0  0  0
   58.5560   31.4040   45.6650 N   0  0  0  0  0  0  0  0  0  0  0  0
   59.0740   27.6890   45.9780 C   0  0  0  0  0  0  0  0  0  0  0  0
   59.9530   28.8260   45.9640 N   0  0  0  0  0  0  0  0  0  0  0  0
   60.2620   29.3690   44.8820 O   0  0  0  0  0  0  0  0  0  0  0  0
   60.3140   29.4400   47.1410 O   0  0  0  0  0  0  0  0  0  0  0  0
   59.6190   26.3940   46.0350 C   0  0  0  0  0  0  0  0  0  0  0  0
   58.6920   22.0571   45.9054 H   0  0  0  0  0  0  0  0  0  0  0  0
   58.1390   23.1537   44.5946 H   0  0  0  0  0  0  0  0  0  0  0  0
   59.8245   22.5325   44.5946 H   0  0  0  0  0  0  0  0  0  0  0  0
   56.7664   24.5433   45.6859 H   0  0  0  0  0  0  0  0  0  0  0  0
   55.7744   26.8240   45.6082 H   0  0  0  0  0  0  0  0  0  0  0  0
   57.7795   30.0637   43.2799 H   0  0  0  0  0  0  0  0  0  0  0  0
   56.3240   31.1176   43.2060 H   0  0  0  0  0  0  0  0  0  0  0  0
   57.2001   33.4832   43.5906 H   0  0  0  0  0  0  0  0  0  0  0  0
   58.8315   34.6644   45.3808 H   0  0  0  0  0  0  0  0  0  0  0  0
   59.7864   32.6807   46.9287 H   0  0  0  0  0  0  0  0  0  0  0  0
   58.7520   30.4550   46.0570 H   0  0  0  0  0  0  0  0  0  0  0  0
   60.7050   26.2690   46.1570 H   0  0  0  0  0  0  0  0  0  0  0  0
  1  2  1  0
  2  3  1  0
  3  4  2  0
  4  5  1  0
  5  6  2  0
  6  7  1  0
  7  8  1  0
  8  9  2  0
  8 10  1  0
 10 11  1  0
 11 12  1  0
 12 13  2  0
 13 14  1  0
 14 15  2  0
  6 16  1  0
 16 17  1  0
 17 18  2  0
 17 19  1  0
 16 20  2  0
 20  3  1  0
 15 11  1  0
  1 21  1  0
  1 22  1  0
  1 23  1  0
  4 24  1  0
  5 25  1  0
 10 26  1  0
 10 27  1  0
 12 28  1  0
 13 29  1  0
 14 30  1  0
 15 31  1  0
 20 32  1  0
M  CHG  4   7  -1  15   1  17   1  19  -1
M  END
>  <UniqueID>  (14) 
13

>  <SMILES>  (14) 
COc1ccc([N-]C(=O)Cn2ccc[nH+]2)c([N+](=O)[O-])c1

>  <Energy>  (14) 
69.13619846248125

>  <Genealogy>  (14) 
COc1ccc([N-]C(=O)Cn2ccc[nH+]2)c([N+](=O)[O-])c1 (protonated)
COc1ccc([N-]C(=O)Cn2ccc[nH+]2)c([N+](=O)[O-])c1 (3D coordinates assigned)
COc1ccc([N-]C(=O)Cn2ccc[nH+]2)c([N+](=O)[O-])c1 (optimized conformer: 69.13619846248125 kcal/mol)

>  <smiles>  (14) 
COc1ccc(NC(=O)Cn2cccn2)c([N+](=O)[O-])c1

>  <score_type>  (14) 
oracle

>  <origin>  (14) 
adg

>  <m_score__min__energy>  (14) 
-5.4699999999999998

>  <m_primary>  (14) 
energy

$$$$
14:0
     RDKit          3D

 41 43  0  0  0  0  0  0  0  0999 V2000
   60.8260   34.1430   48.9730 C   0  0  0  0  0  0  0  0  0  0  0  0
   61.8930   33.1140   48.6130 C   0  0  0  0  0  0  0  0  0  0  0  0
   62.1250   32.9940   47.1020 C   0  0  0  0  0  0  0  0  0  0  0  0
   61.0550   32.2910   46.4670 O   0  0  0  0  0  0  0  0  0  0  0  0
   59.8110   32.8230   46.0800 C   0  0  0  0  0  0  0  0  0  0  0  0
   59.6430   34.1660   45.6840 C   0  0  0  0  0  0  0  0  0  0  0  0
   58.3830   34.6400   45.3080 C   0  0  0  0  0  0  0  0  0  0  0  0
   57.2790   33.7870   45.3230 C   0  0  0  0  0  0  0  0  0  0  0  0
   57.4290   32.4570   45.7180 C   0  0  0  0  0  0  0  0  0  0  0  0
   58.6870   31.9750   46.1060 C   0  0  0  0  0  0  0  0  0  0  0  0
   58.8310   30.5630   46.5060 C   0  0  0  0  0  0  0  0  0  0  0  0
   59.4810   30.3050   47.6710 N   0  0  0  0  0  0  0  0  0  0  0  0
   59.6380   29.0460   48.1420 C   0  0  0  0  0  0  0  0  0  0  0  0
   60.2540   28.8650   49.2270 O   0  0  0  0  0  0  0  0  0  0  0  0
   59.1110   27.9710   47.4220 C   0  0  0  0  0  0  0  0  0  0  0  0
   59.2270   26.6420   47.8640 C   0  0  0  0  0  0  0  0  0  0  0  0
   58.6700   25.6080   47.1120 C   0  0  0  0  0  0  0  0  0  0  0  0
   58.0000   25.9090   45.9270 C   0  0  0  0  0  0  0  0  0  0  0  0
   57.8980   27.1980   45.5100 N   0  0  0  0  0  0  0  0  0  0  0  0
   58.4330   28.2390   46.2120 C   0  0  0  0  0  0  0  0  0  0  0  0
   58.3100   29.5310   45.7560 N   0  0  0  0  0  0  0  0  0  0  0  0
   57.5760   29.8070   44.5030 C   0  0  0  0  0  0  0  0  0  0  0  0
   56.0980   29.7420   44.7340 C   0  0  0  0  0  0  0  0  0  0  0  0
   55.3730   30.7410   44.4840 O   0  0  0  0  0  0  0  0  0  0  0  0
   55.5220   28.5830   45.2400 O   0  0  0  0  0  0  0  0  0  0  0  0
   60.7457   34.2204   50.0673 H   0  0  0  0  0  0  0  0  0  0  0  0
   61.1049   35.1218   48.5556 H   0  0  0  0  0  0  0  0  0  0  0  0
   59.8580   33.8288   48.5556 H   0  0  0  0  0  0  0  0  0  0  0  0
   62.8392   33.4086   49.0905 H   0  0  0  0  0  0  0  0  0  0  0  0
   61.5397   32.1354   48.9701 H   0  0  0  0  0  0  0  0  0  0  0  0
   62.1977   34.0027   46.6693 H   0  0  0  0  0  0  0  0  0  0  0  0
   63.0561   32.4320   46.9371 H   0  0  0  0  0  0  0  0  0  0  0  0
   60.5087   34.8446   45.6709 H   0  0  0  0  0  0  0  0  0  0  0  0
   58.2614   35.6888   44.9993 H   0  0  0  0  0  0  0  0  0  0  0  0
   56.2897   34.1631   45.0233 H   0  0  0  0  0  0  0  0  0  0  0  0
   56.5580   31.7852   45.7249 H   0  0  0  0  0  0  0  0  0  0  0  0
   59.7564   26.4177   48.8018 H   0  0  0  0  0  0  0  0  0  0  0  0
   58.7584   24.5651   47.4505 H   0  0  0  0  0  0  0  0  0  0  0  0
   57.5532   25.1014   45.3286 H   0  0  0  0  0  0  0  0  0  0  0  0
   57.8418   30.8114   44.1418 H   0  0  0  0  0  0  0  0  0  0  0  0
   57.8522   29.0489   43.7553 H   0  0  0  0  0  0  0  0  0  0  0  0
  1  2  1  0
  2  3  1  0
  3  4  1  0
  4  5  1  0
  5  6  2  0
  6  7  1  0
  7  8  2  0
  8  9  1  0
  9 10  2  0
 10 11  1  0
 11 12  2  0
 12 13  1  0
 13 14  2  0
 13 15  1  0
 15 16  2  0
 16 17  1  0
 17 18  2  0
 18 19  1  0
 19 20  2  0
 20 21  1  0
 21 22  1  0
 22 23  1  0
 23 24  2  0
 23 25  1  0
 10  5  1  0
 21 11  1  0
 20 15  1  0
  1 26  1  0
  1 27  1  0
  1 28  1  0
  2 29  1  0
  2 30  1  0
  3 31  1  0
  3 32  1  0
  6 33  1  0
  7 34  1  0
  8 35  1  0
  9 36  1  0
 16 37  1  0
 17 38  1  0
 18 39  1  0
 22 40  1  0
 22 41  1  0
M  CHG  1  25  -1
M  END
>  <UniqueID>  (15) 
14

>  <SMILES>  (15) 
CCCOc1ccccc1-c1nc(=O)c2cccnc2n1CC(=O)[O-]

>  <Energy>  (15) 
56.33011565490026

>  <Genealogy>  (15) 
CCCOc1ccccc1-c1nc(=O)c2cccnc2n1CC(=O)[O-] (protonated)
CCCOc1ccccc1-c1nc(=O)c2cccnc2n1CC(=O)[O-] (3D coordinates assigned)
CCCOc1ccccc1-c1nc(=O)c2cccnc2n1CC(=O)[O-] (optimized conformer: 56.33011565490026 kcal/mol)

>  <smiles>  (15) 
CCCOc1ccccc1-c1nc(=O)c2cccnc2n1CC(=O)O

>  <score_type>  (15) 
oracle

>  <origin>  (15) 
adg

>  <m_score__min__energy>  (15) 
-9.7699999999999996

>  <m_primary>  (15) 
energy

$$$$
15:0
     RDKit          3D

 39 41  0  0  0  0  0  0  0  0999 V2000
   58.1360   27.0170   42.6400 C   0  0  0  0  0  0  0  0  0  0  0  0
   58.3130   27.8400   43.8760 C   0  0  0  0  0  0  0  0  0  0  0  0
   57.7390   29.1130   43.9640 C   0  0  0  0  0  0  0  0  0  0  0  0
   57.9110   29.8820   45.1300 C   0  0  0  0  0  0  0  0  0  0  0  0
   57.3520   31.1640   45.2610 O   0  0  0  0  0  0  0  0  0  0  0  0
   57.3960   32.1760   44.2580 C   0  0  0  0  0  0  0  0  0  0  0  0
   57.5030   33.4540   44.8740 O   0  0  0  0  0  0  0  0  0  0  0  0
   58.6450   33.8670   45.5690 C   0  0  0  0  0  0  0  0  0  0  0  0
   59.0030   35.0770   45.5440 O   0  0  0  0  0  0  0  0  0  0  0  0
   59.4230   32.8910   46.2740 N   0  0  0  0  0  0  0  0  0  0  0  0
   60.4900   33.2130   47.1820 C   0  0  0  0  0  0  0  0  0  0  0  0
   61.8270   33.2730   46.7450 C   0  0  0  0  0  0  0  0  0  0  0  0
   62.8470   33.6120   47.6390 C   0  0  0  0  0  0  0  0  0  0  0  0
   62.5450   33.9060   48.9700 C   0  0  0  0  0  0  0  0  0  0  0  0
   63.5370   34.2350   49.8340 F   0  0  0  0  0  0  0  0  0  0  0  0
   61.2190   33.8690   49.4090 C   0  0  0  0  0  0  0  0  0  0  0  0
   60.1940   33.5310   48.5190 C   0  0  0  0  0  0  0  0  0  0  0  0
   58.9120   33.4990   48.9640 F   0  0  0  0  0  0  0  0  0  0  0  0
   58.6640   29.3490   46.1940 C   0  0  0  0  0  0  0  0  0  0  0  0
   58.8690   30.0670   47.3860 C   0  0  0  0  0  0  0  0  0  0  0  0
   59.6220   29.5070   48.4230 C   0  0  0  0  0  0  0  0  0  0  0  0
   60.1760   28.2310   48.2820 C   0  0  0  0  0  0  0  0  0  0  0  0
   59.9780   27.5070   47.1030 C   0  0  0  0  0  0  0  0  0  0  0  0
   59.2260   28.0570   46.0590 C   0  0  0  0  0  0  0  0  0  0  0  0
   59.0360   27.3480   44.9160 N   0  0  0  0  0  0  0  0  0  0  0  0
   57.9124   25.9772   42.9208 H   0  0  0  0  0  0  0  0  0  0  0  0
   57.3046   27.4231   42.0450 H   0  0  0  0  0  0  0  0  0  0  0  0
   59.0608   27.0454   42.0450 H   0  0  0  0  0  0  0  0  0  0  0  0
   57.1538   29.5124   43.1225 H   0  0  0  0  0  0  0  0  0  0  0  0
   58.2672   32.0091   43.6075 H   0  0  0  0  0  0  0  0  0  0  0  0
   56.4751   32.1357   43.6577 H   0  0  0  0  0  0  0  0  0  0  0  0
   59.2400   31.8850   46.0540 H   0  0  0  0  0  0  0  0  0  0  0  0
   62.0702   33.0521   45.6952 H   0  0  0  0  0  0  0  0  0  0  0  0
   63.8905   33.6472   47.2927 H   0  0  0  0  0  0  0  0  0  0  0  0
   60.9806   34.1061   50.4564 H   0  0  0  0  0  0  0  0  0  0  0  0
   58.4360   31.0714   47.5029 H   0  0  0  0  0  0  0  0  0  0  0  0
   59.7790   30.0727   49.3533 H   0  0  0  0  0  0  0  0  0  0  0  0
   60.7687   27.7962   49.1004 H   0  0  0  0  0  0  0  0  0  0  0  0
   60.4142   26.5029   46.9956 H   0  0  0  0  0  0  0  0  0  0  0  0
  1  2  1  0
  2  3  2  0
  3  4  1  0
  4  5  1  0
  5  6  1  0
  6  7  1  0
  7  8  1  0
  8  9  2  0
  8 10  1  0
 10 11  1  0
 11 12  2  0
 12 13  1  0
 13 14  2  0
 14 15  1  0
 14 16  1  0
 16 17  2  0
 17 18  1  0
  4 19  2  0
 19 20  1  0
 20 21  2  0
 21 22  1  0
 22 23  2  0
 23 24  1  0
 24 25  2  0
 25  2  1  0
 17 11  1  0
 24 19  1  0
  1 26  1  0
  1 27  1  0
  1 28  1  0
  3 29  1  0
  6 30  1  0
  6 31  1  0
 10 32  1  0
 12 33  1  0
 13 34  1  0
 16 35  1  0
 20 36  1  0
 21 37  1  0
 22 38  1  0
 23 39  1  0
M  END
>  <UniqueID>  (16) 
15

>  <SMILES>  (16) 
Cc1cc(OCOC(=O)Nc2ccc(F)cc2F)c2ccccc2n1

>  <Energy>  (16) 
45.742249073520945

>  <Genealogy>  (16) 
Cc1cc(OCOC(=O)Nc2ccc(F)cc2F)c2ccccc2n1 (3D coordinates assigned)
Cc1cc(OCOC(=O)Nc2ccc(F)cc2F)c2ccccc2n1 (optimized conformer: 45.742249073520945 kcal/mol)

>  <smiles>  (16) 
Cc1cc(OCOC(=O)Nc2ccc(F)cc2F)c2ccccc2n1

>  <score_type>  (16) 
oracle

>  <origin>  (16) 
adg

>  <m_score__min__energy>  (16) 
-8.1899999999999995

>  <m_primary>  (16) 
energy

$$$$
16:0
     RDKit          3D

 45 47  0  0  0  0  0  0  0  0999 V2000
   56.4410   30.2650   43.5320 C   0  0  0  0  0  0  0  0  0  0  0  0
   56.2490   31.0870   44.6790 O   0  0  0  0  0  0  0  0  0  0  0  0
   57.1790   32.0280   45.1430 C   0  0  0  0  0  0  0  0  0  0  0  0
   56.8020   33.3110   45.5820 C   0  0  0  0  0  0  0  0  0  0  0  0
   57.7680   34.2140   46.0310 C   0  0  0  0  0  0  0  0  0  0  0  0
   59.1290   33.8580   46.0420 C   0  0  0  0  0  0  0  0  0  0  0  0
   60.1680   34.8520   46.5110 C   0  0  0  0  0  0  0  0  0  0  0  0
   60.7060   34.5660   47.8620 N   0  0  0  0  0  0  0  0  0  0  0  0
   59.6930   34.2970   48.9110 C   0  0  0  0  0  0  0  0  0  0  0  0
   59.8640   32.9320   49.5920 C   0  0  0  0  0  0  0  0  0  0  0  0
   60.3550   31.9470   48.6240 N   0  0  0  0  0  0  0  0  0  0  0  0
   59.6530   30.7110   48.3810 C   0  0  0  0  0  0  0  0  0  0  0  0
   58.5330   30.5040   48.9210 O   0  0  0  0  0  0  0  0  0  0  0  0
   60.1990   29.7520   47.4640 N   0  0  0  0  0  0  0  0  0  0  0  0
   59.4820   28.9600   46.5040 C   0  0  0  0  0  0  0  0  0  0  0  0
   59.9880   28.6770   45.2250 C   0  0  0  0  0  0  0  0  0  0  0  0
   59.2360   27.9110   44.3320 C   0  0  0  0  0  0  0  0  0  0  0  0
   57.9790   27.4470   44.7200 C   0  0  0  0  0  0  0  0  0  0  0  0
   57.4910   27.7510   45.9510 N   0  0  0  0  0  0  0  0  0  0  0  0
   58.2040   28.4960   46.8380 C   0  0  0  0  0  0  0  0  0  0  0  0
   61.6180   32.2270   47.9320 C   0  0  0  0  0  0  0  0  0  0  0  0
   61.9280   33.7350   47.9110 C   0  0  0  0  0  0  0  0  0  0  0  0
   59.4970   32.5680   45.6280 C   0  0  0  0  0  0  0  0  0  0  0  0
   58.5300   31.6670   45.1740 C   0  0  0  0  0  0  0  0  0  0  0  0
   56.6804   29.2400   43.8514 H   0  0  0  0  0  0  0  0  0  0  0  0
   55.5208   30.2558   42.9293 H   0  0  0  0  0  0  0  0  0  0  0  0
   57.2700   30.6643   42.9293 H   0  0  0  0  0  0  0  0  0  0  0  0
   55.7417   33.6037   45.5714 H   0  0  0  0  0  0  0  0  0  0  0  0
   57.4623   35.2117   46.3789 H   0  0  0  0  0  0  0  0  0  0  0  0
   61.0040   34.8424   45.7961 H   0  0  0  0  0  0  0  0  0  0  0  0
   59.6707   35.8316   46.5662 H   0  0  0  0  0  0  0  0  0  0  0  0
   59.7701   35.0811   49.6786 H   0  0  0  0  0  0  0  0  0  0  0  0
   58.7100   34.2913   48.4175 H   0  0  0  0  0  0  0  0  0  0  0  0
   60.5865   33.0241   50.4163 H   0  0  0  0  0  0  0  0  0  0  0  0
   58.8914   32.5995   49.9838 H   0  0  0  0  0  0  0  0  0  0  0  0
   60.9758   29.0584   44.9269 H   0  0  0  0  0  0  0  0  0  0  0  0
   59.6308   27.6758   43.3326 H   0  0  0  0  0  0  0  0  0  0  0  0
   57.3821   26.8342   44.0284 H   0  0  0  0  0  0  0  0  0  0  0  0
   57.7746   28.7350   47.8221 H   0  0  0  0  0  0  0  0  0  0  0  0
   62.4336   31.7017   48.4504 H   0  0  0  0  0  0  0  0  0  0  0  0
   61.5263   31.8791   46.8925 H   0  0  0  0  0  0  0  0  0  0  0  0
   62.4922   33.9914   48.8198 H   0  0  0  0  0  0  0  0  0  0  0  0
   62.5091   33.9430   47.0005 H   0  0  0  0  0  0  0  0  0  0  0  0
   60.5537   32.2644   45.6612 H   0  0  0  0  0  0  0  0  0  0  0  0
   58.8341   30.6647   44.8379 H   0  0  0  0  0  0  0  0  0  0  0  0
  1  2  1  0
  2  3  1  0
  3  4  2  0
  4  5  1  0
  5  6  2  0
  6  7  1  0
  7  8  1  0
  8  9  1  0
  9 10  1  0
 10 11  1  0
 11 12  1  0
 12 13  2  0
 12 14  1  0
 14 15  1  0
 15 16  2  0
 16 17  1  0
 17 18  2  0
 18 19  1  0
 19 20  2  0
 11 21  1  0
 21 22  1  0
  6 23  1  0
 23 24  2  0
 24  3  1  0
 22  8  1  0
 20 15  1  0
  1 25  1  0
  1 26  1  0
  1 27  1  0
  4 28  1  0
  5 29  1  0
  7 30  1  0
  7 31  1  0
  9 32  1  0
  9 33  1  0
 10 34  1  0
 10 35  1  0
 16 36  1  0
 17 37  1  0
 18 38  1  0
 20 39  1  0
 21 40  1  0
 21 41  1  0
 22 42  1  0
 22 43  1  0
 23 44  1  0
 24 45  1  0
M  CHG  1  14  -1
M  END
>  <UniqueID>  (17) 
16

>  <SMILES>  (17) 
COc1ccc(CN2CCN(C(=O)[N-]c3cccnc3)CC2)cc1

>  <Energy>  (17) 
59.44966415027232

>  <Genealogy>  (17) 
COc1ccc(CN2CCN(C(=O)[N-]c3cccnc3)CC2)cc1 (protonated)
COc1ccc(CN2CCN(C(=O)[N-]c3cccnc3)CC2)cc1 (3D coordinates assigned)
COc1ccc(CN2CCN(C(=O)[N-]c3cccnc3)CC2)cc1 (nonaromatic ring conformer: 59.44966415027232 kcal/mol)

>  <smiles>  (17) 
COc1ccc(CN2CCN(C(=O)Nc3cccnc3)CC2)cc1

>  <score_type>  (17) 
oracle

>  <origin>  (17) 
adg

>  <m_score__min__energy>  (17) 
-8.8300000000000001

>  <m_primary>  (17) 
energy

$$$$
17:0
     RDKit          3D

 59 61  0  0  1  0  0  0  0  0999 V2000
   64.7180   32.8510   49.5970 C   0  0  0  0  0  0  0  0  0  0  0  0
   63.3650   33.4620   49.3200 C   0  0  0  0  0  0  0  0  0  0  0  0
   62.4510   32.5410   48.6520 N   0  0  0  0  0  0  0  0  0  0  0  0
   62.7840   32.4150   47.2450 C   0  0  0  0  0  0  0  0  0  0  0  0
   63.0680   33.7700   46.6240 C   0  0  0  0  0  0  0  0  0  0  0  0
   62.7370   31.2420   49.2790 C   0  0  0  0  0  0  0  0  0  0  0  0
   61.7270   30.8140   50.2770 C   0  0  0  0  0  0  0  0  0  0  0  0
   60.4560   30.3510   49.6240 C   0  0  0  0  0  0  0  0  0  0  0  0
   59.2840   30.6060   50.5200 C   0  0  0  0  0  0  0  0  0  0  0  0
   58.5440   31.6930   50.1120 O   0  0  0  0  0  0  0  0  0  0  0  0
   58.7400   32.5120   49.0630 C   0  0  0  0  0  0  0  0  0  0  0  0
   58.1630   32.4630   47.8210 C   0  0  0  0  0  0  0  0  0  0  0  0
   58.4740   33.3860   46.8290 C   0  0  0  0  0  0  0  0  0  0  0  0
   57.8790   33.3030   45.5920 C   0  0  0  0  0  0  0  0  0  0  0  0
   57.0160   32.3830   45.2860 N   0  0  0  0  0  0  0  0  0  0  0  0
   57.4630   31.0700   44.8850 C   0  0  0  0  0  0  0  0  0  0  0  0
   56.6370   30.3090   44.0880 C   0  0  0  0  0  0  0  0  0  0  0  0
   57.0420   29.0470   43.6900 C   0  0  0  0  0  0  0  0  0  0  0  0
   58.2760   28.5290   44.0840 C   0  0  0  0  0  0  0  0  0  0  0  0
   58.6920   27.2960   43.7040 F   0  0  0  0  0  0  0  0  0  0  0  0
   59.1070   29.3060   44.8910 C   0  0  0  0  0  0  0  0  0  0  0  0
   60.6480   28.6560   45.3800 Cl  0  0  0  0  0  0  0  0  0  0  0  0
   58.6840   30.5760   45.2850 C   0  0  0  0  0  0  0  0  0  0  0  0
   58.1630   34.1880   44.5950 N   0  0  0  0  0  0  0  0  0  0  0  0
   59.0550   35.1600   44.8590 C   0  0  0  0  0  0  0  0  0  0  0  0
   59.6490   35.2650   46.0520 N   0  0  0  0  0  0  0  0  0  0  0  0
   59.3780   34.4030   47.0350 C   0  0  0  0  0  0  0  0  0  0  0  0
   59.9670   34.4670   48.2790 C   0  0  0  0  0  0  0  0  0  0  0  0
   59.6630   33.5600   49.2550 C   0  0  0  0  0  0  0  0  0  0  0  0
   60.2990   33.6920   50.4820 O   0  0  0  0  0  0  0  0  0  0  0  0
   59.6330   33.8470   51.6950 C   0  0  0  0  0  0  0  0  0  0  0  0
   64.8731   32.7809   50.6838 H   0  0  0  0  0  0  0  0  0  0  0  0
   64.7635   31.8450   49.1545 H   0  0  0  0  0  0  0  0  0  0  0  0
   65.5028   33.4821   49.1545 H   0  0  0  0  0  0  0  0  0  0  0  0
   62.9165   33.7695   50.2762 H   0  0  0  0  0  0  0  0  0  0  0  0
   63.5213   34.3177   48.6467 H   0  0  0  0  0  0  0  0  0  0  0  0
   63.6762   31.7797   47.1431 H   0  0  0  0  0  0  0  0  0  0  0  0
   61.9260   31.9661   46.7232 H   0  0  0  0  0  0  0  0  0  0  0  0
   63.2237   34.5129   47.4202 H   0  0  0  0  0  0  0  0  0  0  0  0
   63.9721   33.7055   46.0008 H   0  0  0  0  0  0  0  0  0  0  0  0
   62.2141   34.0740   46.0008 H   0  0  0  0  0  0  0  0  0  0  0  0
   62.7845   30.4797   48.4874 H   0  0  0  0  0  0  0  0  0  0  0  0
   63.6883   31.3543   49.8197 H   0  0  0  0  0  0  0  0  0  0  0  0
   62.1428   29.9874   50.8719 H   0  0  0  0  0  0  0  0  0  0  0  0
   61.4881   31.6791   50.9130 H   0  0  0  0  0  0  0  0  0  0  0  0
   60.3149   30.8962   48.6791 H   0  0  0  0  0  0  0  0  0  0  0  0
   60.5281   29.2705   49.4308 H   0  0  0  0  0  0  0  0  0  0  0  0
   58.6370   29.7164   50.5187 H   0  0  0  0  0  0  0  0  0  0  0  0
   59.6697   30.8192   51.5279 H   0  0  0  0  0  0  0  0  0  0  0  0
   57.4324   31.6702   47.6026 H   0  0  0  0  0  0  0  0  0  0  0  0
   55.6604   30.7023   43.7694 H   0  0  0  0  0  0  0  0  0  0  0  0
   56.3801   28.4424   43.0525 H   0  0  0  0  0  0  0  0  0  0  0  0
   59.3351   31.1907   45.9239 H   0  0  0  0  0  0  0  0  0  0  0  0
   59.3021   35.8878   44.0721 H   0  0  0  0  0  0  0  0  0  0  0  0
   60.3390   36.0350   46.2230 H   0  0  0  0  0  0  0  0  0  0  0  0
   60.6958   35.2633   48.4906 H   0  0  0  0  0  0  0  0  0  0  0  0
   60.3375   33.6830   52.5237 H   0  0  0  0  0  0  0  0  0  0  0  0
   59.2213   34.8650   51.7598 H   0  0  0  0  0  0  0  0  0  0  0  0
   58.8141   33.1154   51.7598 H   0  0  0  0  0  0  0  0  0  0  0  0
  1  2  1  0
  2  3  1  0
  3  4  1  0
  4  5  1  0
  3  6  1  0
  6  7  1  0
  7  8  1  0
  8  9  1  0
  9 10  1  0
 10 11  1  0
 11 12  2  0
 12 13  1  0
 13 14  1  0
 14 15  2  0
 15 16  1  0
 16 17  2  0
 17 18  1  0
 18 19  2  0
 19 20  1  0
 19 21  1  0
 21 22  1  0
 21 23  2  0
 14 24  1  0
 24 25  2  0
 25 26  1  0
 26 27  1  0
 27 28  1  0
 28 29  2  0
 29 30  1  0
 30 31  1  0
 29 11  1  0
 27 13  2  0
 23 16  1  0
  1 32  1  0
  1 33  1  0
  1 34  1  0
  2 35  1  0
  2 36  1  0
  4 37  1  0
  4 38  1  0
  5 39  1  0
  5 40  1  0
  5 41  1  0
  6 42  1  0
  6 43  1  0
  7 44  1  0
  7 45  1  0
  8 46  1  0
  8 47  1  0
  9 48  1  0
  9 49  1  0
 12 50  1  0
 17 51  1  0
 18 52  1  0
 23 53  1  0
 25 54  1  0
 26 55  1  0
 28 56  1  0
 31 57  1  0
 31 58  1  0
 31 59  1  0
M  END
>  <smiles>  (18) 
CCN(CC)CCCCOc1cc2c(=Nc3ccc(F)c(Cl)c3)nc[nH]c2cc1OC

>  <score_type>  (18) 
oracle

>  <origin>  (18) 
adg

>  <m_score__min__energy>  (18) 
-8.3100000000000005

>  <m_primary>  (18) 
energy

$$$$
18:0
     RDKit          3D

 31 33  0  0  0  0  0  0  0  0999 V2000
   58.0726   31.2781   47.4902 H   0  0  0  0  0  0  0  0  0  0  0  0
   58.1510   31.4400   46.4050 C   0  0  0  0  0  0  0  0  0  0  0  0
   58.1960   30.3660   45.6040 C   0  0  0  0  0  0  0  0  0  0  0  0
   59.6810   29.3920   45.2790 S   0  0  0  0  0  0  0  0  0  0  0  0
   58.7050   28.4120   44.1340 C   0  0  0  0  0  0  0  0  0  0  0  0
   59.1910   27.4410   43.4980 O   0  0  0  0  0  0  0  0  0  0  0  0
   57.3450   28.7950   43.9890 N   0  0  0  0  0  0  0  0  0  0  0  0
   56.6560   28.3240   43.3600 H   0  0  0  0  0  0  0  0  0  0  0  0
   57.0540   29.9030   44.8160 C   0  0  0  0  0  0  0  0  0  0  0  0
   55.9090   30.4280   44.8590 O   0  0  0  0  0  0  0  0  0  0  0  0
   58.2010   32.8250   45.9080 C   0  0  0  0  0  0  0  0  0  0  0  0
   57.2570   33.3360   45.0960 N   0  0  0  0  0  0  0  0  0  0  0  0
   57.6950   34.5880   44.8460 C   0  0  0  0  0  0  0  0  0  0  0  0
   57.1661   35.3024   44.1980 H   0  0  0  0  0  0  0  0  0  0  0  0
   58.8240   34.8590   45.4630 O   0  0  0  0  0  0  0  0  0  0  0  0
   59.1630   33.7960   46.1480 C   0  0  0  0  0  0  0  0  0  0  0  0
   60.3570   33.7340   47.0180 C   0  0  0  0  0  0  0  0  0  0  0  0
   60.2080   33.8800   48.4060 C   0  0  0  0  0  0  0  0  0  0  0  0
   59.2068   34.0366   48.8338 H   0  0  0  0  0  0  0  0  0  0  0  0
   61.3220   33.8280   49.2490 C   0  0  0  0  0  0  0  0  0  0  0  0
   61.1937   33.9549   50.3341 H   0  0  0  0  0  0  0  0  0  0  0  0
   62.6070   33.6140   48.7160 C   0  0  0  0  0  0  0  0  0  0  0  0
   63.7560   33.5580   49.5180 O   0  0  0  0  0  0  0  0  0  0  0  0
   64.6520   32.4520   49.5620 C   0  0  0  0  0  0  0  0  0  0  0  0
   64.8625   32.1921   50.6099 H   0  0  0  0  0  0  0  0  0  0  0  0
   64.1949   31.5894   49.0550 H   0  0  0  0  0  0  0  0  0  0  0  0
   65.5907   32.7201   49.0550 H   0  0  0  0  0  0  0  0  0  0  0  0
   62.7510   33.4460   47.3340 C   0  0  0  0  0  0  0  0  0  0  0  0
   63.7501   33.2720   46.9080 H   0  0  0  0  0  0  0  0  0  0  0  0
   61.6390   33.4970   46.4900 C   0  0  0  0  0  0  0  0  0  0  0  0
   61.7666   33.3511   45.4072 H   0  0  0  0  0  0  0  0  0  0  0  0
  1  2  1  0
  2  3  2  0
  3  4  1  0
  4  5  1  0
  5  6  2  0
  5  7  1  0
  7  8  1  0
  7  9  1  0
  9 10  2  0
  2 11  1  0
 11 12  1  0
 12 13  2  0
 13 14  1  0
 13 15  1  0
 15 16  1  0
 16 17  1  0
 17 18  2  0
 18 19  1  0
 18 20  1  0
 20 21  1  0
 20 22  2  0
 22 23  1  0
 23 24  1  0
 24 25  1  0
 24 26  1  0
 24 27  1  0
 22 28  1  0
 28 29  1  0
 28 30  2  0
 30 31  1  0
  9  3  1  0
 16 11  2  0
 30 17  1  0
M  END
>  <UniqueID>  (19) 
17

>  <SMILES>  (19) 
COc1ccc(-c2ocnc2/C=C2\SC(=O)NC2=O)cc1

>  <Energy>  (19) 
89.75493432165602

>  <Genealogy>  (19) 
COc1ccc(-c2ocnc2/C=C2\SC(=O)NC2=O)cc1 (cis-trans isomerization)
COc1ccc(-c2ocnc2/C=C2\SC(=O)NC2=O)cc1 (3D coordinates assigned)
COc1ccc(-c2ocnc2/C=C2\SC(=O)NC2=O)cc1 (nonaromatic ring conformer: 89.75493432165602 kcal/mol)

>  <smiles>  (19) 
COc1ccc(-c2ocnc2C=C2SC(=O)NC2=O)cc1

>  <score_type>  (19) 
oracle

>  <origin>  (19) 
adg

>  <m_score__min__energy>  (19) 
-7.4199999999999999

>  <m_primary>  (19) 
energy

$$$$
19:0
     RDKit          3D

 25 26  0  0  0  0  0  0  0  0999 V2000
   54.8890   22.9730   44.3190 O   0  0  0  0  0  0  0  0  0  0  0  0
   54.1670   23.0250   45.3500 C   0  0  0  0  0  0  0  0  0  0  0  0
   52.8350   22.6390   45.2780 O   0  0  0  0  0  0  0  0  0  0  0  0
   54.7540   23.4460   46.6580 C   0  0  0  0  0  0  0  0  0  0  0  0
   55.8100   24.4320   46.4370 N   0  0  0  0  0  0  0  0  0  0  0  0
   57.1380   24.2460   46.5960 C   0  0  0  0  0  0  0  0  0  0  0  0
   57.7200   23.0380   46.9660 O   0  0  0  0  0  0  0  0  0  0  0  0
   57.8210   25.4200   46.3530 C   0  0  0  0  0  0  0  0  0  0  0  0
   56.8690   26.3780   46.0830 C   0  0  0  0  0  0  0  0  0  0  0  0
   55.6460   25.7370   46.1270 C   0  0  0  0  0  0  0  0  0  0  0  0
   54.4140   26.3380   45.8960 O   0  0  0  0  0  0  0  0  0  0  0  0
   57.1850   27.7960   45.7210 C   0  0  0  0  0  0  0  0  0  0  0  0
   58.6150   28.1570   46.1700 C   0  0  0  0  0  0  0  0  0  0  0  0
   59.6290   27.0500   45.8030 C   0  0  0  0  0  0  0  0  0  0  0  0
   59.2850   25.7100   46.4870 C   0  0  0  0  0  0  0  0  0  0  0  0
   53.9665   23.8897   47.2849 H   0  0  0  0  0  0  0  0  0  0  0  0
   55.1806   22.5665   47.1625 H   0  0  0  0  0  0  0  0  0  0  0  0
   57.1052   27.9186   44.6308 H   0  0  0  0  0  0  0  0  0  0  0  0
   56.4718   28.4622   46.2284 H   0  0  0  0  0  0  0  0  0  0  0  0
   58.9168   29.0935   45.6781 H   0  0  0  0  0  0  0  0  0  0  0  0
   58.6117   28.2682   47.2644 H   0  0  0  0  0  0  0  0  0  0  0  0
   59.6202   26.9060   44.7125 H   0  0  0  0  0  0  0  0  0  0  0  0
   60.6231   27.3670   46.1512 H   0  0  0  0  0  0  0  0  0  0  0  0
   59.8603   24.9016   46.0120 H   0  0  0  0  0  0  0  0  0  0  0  0
   59.5409   25.7766   47.5547 H   0  0  0  0  0  0  0  0  0  0  0  0
  1  2  2  0
  2  3  1  0
  2  4  1  0
  4  5  1  0
  5  6  1  0
  6  7  1  0
  6  8  2  0
  8  9  1  0
  9 10  2  0
 10 11  1  0
  9 12  1  0
 12 13  1  0
 13 14  1  0
 14 15  1  0
 10  5  1  0
 15  8  1  0
  4 16  1  0
  4 17  1  0
 12 18  1  0
 12 19  1  0
 13 20  1  0
 13 21  1  0
 14 22  1  0
 14 23  1  0
 15 24  1  0
 15 25  1  0
M  CHG  3   3  -1   7  -1  11  -1
M  END
>  <UniqueID>  (20) 
18

>  <SMILES>  (20) 
O=C([O-])Cn1c([O-])c2c(c1[O-])CCCC2

>  <Energy>  (20) 
51.360379457326964

>  <Genealogy>  (20) 
O=C([O-])Cn1c([O-])c2c(c1[O-])CCCC2 (protonated)
O=C([O-])Cn1c([O-])c2c(c1[O-])CCCC2 (3D coordinates assigned)
O=C([O-])Cn1c([O-])c2c(c1[O-])CCCC2 (nonaromatic ring conformer: 51.360379457326964 kcal/mol)

>  <smiles>  (20) 
O=C(O)Cn1c(O)c2c(c1O)CCCC2

>  <score_type>  (20) 
oracle

>  <origin>  (20) 
adg

>  <m_score__min__energy>  (20) 
-12.550000000000001

>  <m_primary>  (20) 
energy

$$$$
20:0
     RDKit          3D

 66 69  0  0  0  0  0  0  0  0999 V2000
   57.2990   31.6010   52.4820 C   0  0  0  0  0  0  0  0  0  0  0  0
   57.9190   32.6160   51.5250 C   0  0  0  0  0  0  0  0  0  0  0  0
   59.2790   33.1410   52.0070 C   0  0  0  0  0  0  0  0  0  0  0  0
   60.3740   32.8320   51.0590 N   0  0  0  0  0  0  0  0  0  0  0  0
   61.2780   31.8280   51.3270 C   0  0  0  0  0  0  0  0  0  0  0  0
   61.1660   30.7960   52.8010 S   0  0  0  0  0  0  0  0  0  0  0  0
   61.0440   29.2190   51.8880 C   0  0  0  0  0  0  0  0  0  0  0  0
   60.0660   29.3830   50.7700 C   0  0  0  0  0  0  0  0  0  0  0  0
   58.8280   29.3420   51.0130 O   0  0  0  0  0  0  0  0  0  0  0  0
   60.5300   29.5460   49.4220 N   0  0  0  0  0  0  0  0  0  0  0  0
   59.7820   29.0880   48.2860 C   0  0  0  0  0  0  0  0  0  0  0  0
   59.5890   27.7170   48.0850 C   0  0  0  0  0  0  0  0  0  0  0  0
   58.8540   27.2620   46.9870 C   0  0  0  0  0  0  0  0  0  0  0  0
   58.2640   28.1770   46.0900 C   0  0  0  0  0  0  0  0  0  0  0  0
   57.5540   27.7400   44.9590 O   0  0  0  0  0  0  0  0  0  0  0  0
   58.1370   27.4900   43.6840 C   0  0  0  0  0  0  0  0  0  0  0  0
   58.3920   29.5600   46.3330 C   0  0  0  0  0  0  0  0  0  0  0  0
   57.6080   30.7740   45.2980 S   0  0  0  0  0  0  0  0  0  0  0  0
   58.4660   30.9720   44.0790 O   0  0  0  0  0  0  0  0  0  0  0  0
   56.2800   30.2530   44.8260 O   0  0  0  0  0  0  0  0  0  0  0  0
   57.4060   32.3390   46.0710 N   0  0  0  0  0  0  0  0  0  0  0  0
   58.6200   32.8490   46.7390 C   0  0  0  0  0  0  0  0  0  0  0  0
   59.6210   33.4980   45.7640 C   0  0  0  0  0  0  0  0  0  0  0  0
   58.9480   34.1980   44.5720 C   0  0  0  0  0  0  0  0  0  0  0  0
   57.5030   34.5800   44.8860 C   0  0  0  0  0  0  0  0  0  0  0  0
   56.6710   33.3370   45.2550 C   0  0  0  0  0  0  0  0  0  0  0  0
   59.1760   30.0010   47.4100 C   0  0  0  0  0  0  0  0  0  0  0  0
   62.3060   31.5850   50.4750 N   0  0  0  0  0  0  0  0  0  0  0  0
   62.4730   32.2980   49.3370 C   0  0  0  0  0  0  0  0  0  0  0  0
   63.5450   32.0150   48.4820 C   0  0  0  0  0  0  0  0  0  0  0  0
   63.7350   32.7730   47.3210 C   0  0  0  0  0  0  0  0  0  0  0  0
   62.8490   33.8080   47.0070 C   0  0  0  0  0  0  0  0  0  0  0  0
   61.7640   34.0830   47.8470 C   0  0  0  0  0  0  0  0  0  0  0  0
   61.5720   33.3290   49.0220 C   0  0  0  0  0  0  0  0  0  0  0  0
   60.5090   33.5770   49.9090 C   0  0  0  0  0  0  0  0  0  0  0  0
   59.6830   34.4950   49.6430 O   0  0  0  0  0  0  0  0  0  0  0  0
   57.4890   31.9120   53.5199 H   0  0  0  0  0  0  0  0  0  0  0  0
   56.2142   31.5480   52.3079 H   0  0  0  0  0  0  0  0  0  0  0  0
   57.7471   30.6116   52.3079 H   0  0  0  0  0  0  0  0  0  0  0  0
   58.0559   32.1357   50.5449 H   0  0  0  0  0  0  0  0  0  0  0  0
   57.2352   33.4758   51.4686 H   0  0  0  0  0  0  0  0  0  0  0  0
   59.2135   34.2325   52.1268 H   0  0  0  0  0  0  0  0  0  0  0  0
   59.5111   32.6429   52.9599 H   0  0  0  0  0  0  0  0  0  0  0  0
   62.0298   28.9509   51.4802 H   0  0  0  0  0  0  0  0  0  0  0  0
   60.7063   28.4207   52.5653 H   0  0  0  0  0  0  0  0  0  0  0  0
   61.4650   29.9860   49.2640 H   0  0  0  0  0  0  0  0  0  0  0  0
   60.0177   26.9939   48.7945 H   0  0  0  0  0  0  0  0  0  0  0  0
   58.7345   26.1812   46.8208 H   0  0  0  0  0  0  0  0  0  0  0  0
   59.1405   27.0597   43.8177 H   0  0  0  0  0  0  0  0  0  0  0  0
   57.5065   26.7831   43.1247 H   0  0  0  0  0  0  0  0  0  0  0  0
   58.2144   28.4341   43.1247 H   0  0  0  0  0  0  0  0  0  0  0  0
   58.3198   33.6007   47.4838 H   0  0  0  0  0  0  0  0  0  0  0  0
   59.1250   31.9883   47.2017 H   0  0  0  0  0  0  0  0  0  0  0  0
   60.2127   34.2426   46.3166 H   0  0  0  0  0  0  0  0  0  0  0  0
   60.2454   32.6900   45.3550 H   0  0  0  0  0  0  0  0  0  0  0  0
   59.5131   35.1097   44.3280 H   0  0  0  0  0  0  0  0  0  0  0  0
   58.9420   33.4998   43.7220 H   0  0  0  0  0  0  0  0  0  0  0  0
   57.4926   35.2838   45.7313 H   0  0  0  0  0  0  0  0  0  0  0  0
   57.0612   35.0447   43.9922 H   0  0  0  0  0  0  0  0  0  0  0  0
   55.7895   33.6673   45.8240 H   0  0  0  0  0  0  0  0  0  0  0  0
   56.4039   32.8409   44.3102 H   0  0  0  0  0  0  0  0  0  0  0  0
   59.3177   31.0800   47.5700 H   0  0  0  0  0  0  0  0  0  0  0  0
   64.2386   31.1960   48.7231 H   0  0  0  0  0  0  0  0  0  0  0  0
   64.5824   32.5542   46.6547 H   0  0  0  0  0  0  0  0  0  0  0  0
   63.0051   34.4073   46.0979 H   0  0  0  0  0  0  0  0  0  0  0  0
   61.0604   34.8885   47.5899 H   0  0  0  0  0  0  0  0  0  0  0  0
  1  2  1  0
  2  3  1  0
  3  4  1  0
  4  5  1  0
  5  6  1  0
  6  7  1  0
  7  8  1  0
  8  9  2  0
  8 10  1  0
 10 11  1  0
 11 12  2  0
 12 13  1  0
 13 14  2  0
 14 15  1  0
 15 16  1  0
 14 17  1  0
 17 18  1  0
 18 19  2  0
 18 20  2  0
 18 21  1  0
 21 22  1  0
 22 23  1  0
 23 24  1  0
 24 25  1  0
 25 26  1  0
 17 27  2  0
  5 28  2  0
 28 29  1  0
 29 30  2  0
 30 31  1  0
 31 32  2  0
 32 33  1  0
 33 34  2  0
 34 35  1  0
 35 36  2  0
 35  4  1  0
 27 11  1  0
 34 29  1  0
 26 21  1  0
  1 37  1  0
  1 38  1  0
  1 39  1  0
  2 40  1  0
  2 41  1  0
  3 42  1  0
  3 43  1  0
  7 44  1  0
  7 45  1  0
 10 46  1  0
 12 47  1  0
 13 48  1  0
 16 49  1  0
 16 50  1  0
 16 51  1  0
 22 52  1  0
 22 53  1  0
 23 54  1  0
 23 55  1  0
 24 56  1  0
 24 57  1  0
 25 58  1  0
 25 59  1  0
 26 60  1  0
 26 61  1  0
 27 62  1  0
 30 63  1  0
 31 64  1  0
 32 65  1  0
 33 66  1  0
M  END
>  <UniqueID>  (21) 
19

>  <SMILES>  (21) 
CCCn1c(SCC(=O)Nc2ccc(OC)c(S(=O)(=O)N3CCCCC3)c2)nc2ccccc2c1=O

>  <Energy>  (21) 
81.89757829875427

>  <Genealogy>  (21) 
CCCn1c(SCC(=O)Nc2ccc(OC)c(S(=O)(=O)N3CCCCC3)c2)nc2ccccc2c1=O (3D coordinates assigned)
CCCn1c(SCC(=O)Nc2ccc(OC)c(S(=O)(=O)N3CCCCC3)c2)nc2ccccc2c1=O (nonaromatic ring conformer: 81.89757829875427 kcal/mol)

>  <smiles>  (21) 
CCCn1c(SCC(=O)Nc2ccc(OC)c(S(=O)(=O)N3CCCCC3)c2)nc2ccccc2c1=O

>  <score_type>  (21) 
oracle

>  <origin>  (21) 
adg

>  <m_score__min__energy>  (21) 
-9.3000000000000007

>  <m_primary>  (21) 
energy

$$$$
21:0
     RDKit          3D

 53 55  0  0  0  0  0  0  0  0999 V2000
   62.9200   33.0640   48.3950 C   0  0  0  0  0  0  0  0  0  0  0  0
   62.9650   31.5680   48.6900 C   0  0  0  0  0  0  0  0  0  0  0  0
   62.1360   31.2240   49.9350 C   0  0  0  0  0  0  0  0  0  0  0  0
   61.5510   29.8070   49.8600 C   0  0  0  0  0  0  0  0  0  0  0  0
   60.1600   29.8270   49.3990 N   0  0  0  0  0  0  0  0  0  0  0  0
   59.6480   30.7290   48.6050 C   0  0  0  0  0  0  0  0  0  0  0  0
   58.4900   31.9540   49.2670 S   0  0  0  0  0  0  0  0  0  0  0  0
   58.4630   32.6560   47.5970 C   0  0  1  0  0  0  0  0  0  0  0  0
   58.1740   34.1390   47.4300 C   0  0  0  0  0  0  0  0  0  0  0  0
   58.8930   34.4810   45.8320 S   0  0  0  0  0  0  0  0  0  0  0  0
   59.7810   35.6930   45.8750 O   0  0  0  0  0  0  0  0  0  0  0  0
   57.8410   34.6270   44.7690 O   0  0  0  0  0  0  0  0  0  0  0  0
   59.8380   32.9820   45.6160 C   0  0  0  0  0  0  0  0  0  0  0  0
   59.8490   32.4200   47.0350 C   0  0  2  0  0  0  0  0  0  0  0  0
   60.1360   31.0100   47.2730 N   0  0  0  0  0  0  0  0  0  0  0  0
   60.2480   30.0110   46.1930 C   0  0  0  0  0  0  0  0  0  0  0  0
   59.0440   29.0970   46.1510 C   0  0  0  0  0  0  0  0  0  0  0  0
   59.0800   27.8410   46.7720 C   0  0  0  0  0  0  0  0  0  0  0  0
   57.9720   26.9940   46.7210 C   0  0  0  0  0  0  0  0  0  0  0  0
   56.7980   27.3950   46.0590 C   0  0  0  0  0  0  0  0  0  0  0  0
   55.6660   26.5670   45.9790 O   0  0  0  0  0  0  0  0  0  0  0  0
   55.7010   25.1870   45.6280 C   0  0  0  0  0  0  0  0  0  0  0  0
   56.7400   28.6610   45.4600 C   0  0  0  0  0  0  0  0  0  0  0  0
   55.5530   29.0420   44.8130 O   0  0  0  0  0  0  0  0  0  0  0  0
   55.4950   29.8430   43.6380 C   0  0  0  0  0  0  0  0  0  0  0  0
   57.8600   29.5130   45.5200 C   0  0  0  0  0  0  0  0  0  0  0  0
   62.9032   33.6240   49.3416 H   0  0  0  0  0  0  0  0  0  0  0  0
   63.8099   33.3504   47.8153 H   0  0  0  0  0  0  0  0  0  0  0  0
   62.0145   33.2963   47.8153 H   0  0  0  0  0  0  0  0  0  0  0  0
   62.5606   31.0194   47.8265 H   0  0  0  0  0  0  0  0  0  0  0  0
   64.0103   31.2804   48.8764 H   0  0  0  0  0  0  0  0  0  0  0  0
   62.7814   31.2957   50.8229 H   0  0  0  0  0  0  0  0  0  0  0  0
   61.2991   31.9354   49.9944 H   0  0  0  0  0  0  0  0  0  0  0  0
   62.1517   29.2083   49.1595 H   0  0  0  0  0  0  0  0  0  0  0  0
   61.5754   29.3683   50.8684 H   0  0  0  0  0  0  0  0  0  0  0  0
   59.5090   29.1030   49.7770 H   0  0  0  0  0  0  0  0  0  0  0  0
   57.6182   32.1627   47.0940 H   0  0  0  0  0  0  0  0  0  0  0  0
   57.0921   34.3379   47.4321 H   0  0  0  0  0  0  0  0  0  0  0  0
   58.5783   34.7632   48.2405 H   0  0  0  0  0  0  0  0  0  0  0  0
   59.3437   32.2932   44.9151 H   0  0  0  0  0  0  0  0  0  0  0  0
   60.8394   33.1414   45.1897 H   0  0  0  0  0  0  0  0  0  0  0  0
   60.7005   32.9394   47.4988 H   0  0  0  0  0  0  0  0  0  0  0  0
   60.3317   30.5352   45.2295 H   0  0  0  0  0  0  0  0  0  0  0  0
   61.1395   29.3959   46.3853 H   0  0  0  0  0  0  0  0  0  0  0  0
   59.9882   27.5205   47.3035 H   0  0  0  0  0  0  0  0  0  0  0  0
   58.0174   26.0058   47.2020 H   0  0  0  0  0  0  0  0  0  0  0  0
   55.7165   24.5763   46.5428 H   0  0  0  0  0  0  0  0  0  0  0  0
   54.8089   24.9367   45.0351 H   0  0  0  0  0  0  0  0  0  0  0  0
   56.6046   24.9823   45.0351 H   0  0  0  0  0  0  0  0  0  0  0  0
   55.4182   30.9033   43.9205 H   0  0  0  0  0  0  0  0  0  0  0  0
   56.4068   29.6872   43.0427 H   0  0  0  0  0  0  0  0  0  0  0  0
   54.6152   29.5575   43.0427 H   0  0  0  0  0  0  0  0  0  0  0  0
   57.8069   30.5145   45.0681 H   0  0  0  0  0  0  0  0  0  0  0  0
  1  2  1  0
  2  3  1  0
  3  4  1  0
  4  5  1  0
  5  6  2  3
  6  7  1  0
  7  8  1  0
  8  9  1  0
  9 10  1  0
 10 11  2  0
 10 12  2  0
 10 13  1  0
 13 14  1  0
 14 15  1  0
 15 16  1  0
 16 17  1  0
 17 18  2  0
 18 19  1  0
 19 20  2  0
 20 21  1  0
 21 22  1  0
 20 23  1  0
 23 24  1  0
 24 25  1  0
 23 26  2  0
 15  6  1  0
 26 17  1  0
 14  8  1  0
  1 27  1  0
  1 28  1  0
  1 29  1  0
  2 30  1  0
  2 31  1  0
  3 32  1  0
  3 33  1  0
  4 34  1  0
  4 35  1  0
  5 36  1  0
  8 37  1  6
  9 38  1  0
  9 39  1  0
 13 40  1  0
 13 41  1  0
 14 42  1  1
 16 43  1  0
 16 44  1  0
 18 45  1  0
 19 46  1  0
 22 47  1  0
 22 48  1  0
 22 49  1  0
 25 50  1  0
 25 51  1  0
 25 52  1  0
 26 53  1  0
M  CHG  1   5   1
M  END
>  <UniqueID>  (22) 
20

>  <SMILES>  (22) 
CCCC[NH+]=C1S[C@H]2CS(=O)(=O)C[C@@H]2N1Cc1ccc(OC)c(OC)c1

>  <Energy>  (22) 
70.7903286850733

>  <Genealogy>  (22) 
CCCC[NH+]=C1SC2CS(=O)(=O)CC2N1Cc1ccc(OC)c(OC)c1 (protonated)
CCCC[NH+]=C1S[C@H]2CS(=O)(=O)C[C@@H]2N1Cc1ccc(OC)c(OC)c1 (chirality)
CCCC[NH+]=C1S[C@H]2CS(=O)(=O)C[C@@H]2N1Cc1ccc(OC)c(OC)c1 (3D coordinates assigned)
CCCC[NH+]=C1S[C@H]2CS(=O)(=O)C[C@@H]2N1Cc1ccc(OC)c(OC)c1 (nonaromatic ring conformer: 70.7903286850733 kcal/mol)

>  <smiles>  (22) 
CCCCN=C1SC2CS(=O)(=O)CC2N1Cc1ccc(OC)c(OC)c1

>  <score_type>  (22) 
oracle

>  <origin>  (22) 
adg

>  <m_score__min__energy>  (22) 
-6.79

>  <m_primary>  (22) 
energy

$$$$
22:0
     RDKit          3D

 43 45  0  0  0  0  0  0  0  0999 V2000
   56.7280   31.3980   52.6080 C   0  0  0  0  0  0  0  0  0  0  0  0
   57.9880   32.0500   52.4890 O   0  0  0  0  0  0  0  0  0  0  0  0
   58.5950   32.3780   51.2670 C   0  0  0  0  0  0  0  0  0  0  0  0
   58.5020   31.4630   50.2120 C   0  0  0  0  0  0  0  0  0  0  0  0
   59.0910   31.7440   48.9750 C   0  0  0  0  0  0  0  0  0  0  0  0
   59.7840   32.9440   48.7810 C   0  0  0  0  0  0  0  0  0  0  0  0
   60.5040   33.2900   47.2100 S   0  0  0  0  0  0  0  0  0  0  0  0
   61.8530   33.9270   47.3980 O   0  0  0  0  0  0  0  0  0  0  0  0
   60.6800   31.9940   46.4680 O   0  0  0  0  0  0  0  0  0  0  0  0
   59.4420   34.3620   46.3230 N   0  0  0  0  0  0  0  0  0  0  0  0
   59.6340   34.2320   44.8560 C   0  0  0  0  0  0  0  0  0  0  0  0
   58.4710   33.5320   44.1340 C   0  0  0  0  0  0  0  0  0  0  0  0
   57.8940   32.4970   44.9940 N   0  0  0  0  0  0  0  0  0  0  0  0
   57.8210   31.1240   44.5630 C   0  0  0  0  0  0  0  0  0  0  0  0
   56.7390   30.6840   43.7820 C   0  0  0  0  0  0  0  0  0  0  0  0
   56.6790   29.3490   43.3790 C   0  0  0  0  0  0  0  0  0  0  0  0
   57.6870   28.4640   43.7600 C   0  0  0  0  0  0  0  0  0  0  0  0
   58.7430   28.9280   44.5450 C   0  0  0  0  0  0  0  0  0  0  0  0
   58.7900   30.2340   44.9290 N   0  0  0  0  0  0  0  0  0  0  0  0
   57.4270   32.8800   46.3310 C   0  0  0  0  0  0  0  0  0  0  0  0
   58.0370   34.2260   46.7580 C   0  0  0  0  0  0  0  0  0  0  0  0
   59.8780   33.8670   49.8310 C   0  0  0  0  0  0  0  0  0  0  0  0
   59.2900   33.5870   51.0680 C   0  0  0  0  0  0  0  0  0  0  0  0
   56.4805   31.2699   53.6721 H   0  0  0  0  0  0  0  0  0  0  0  0
   55.9522   32.0078   52.1219 H   0  0  0  0  0  0  0  0  0  0  0  0
   56.7778   30.4125   52.1219 H   0  0  0  0  0  0  0  0  0  0  0  0
   57.9617   30.5159   50.3568 H   0  0  0  0  0  0  0  0  0  0  0  0
   59.0092   31.0191   48.1517 H   0  0  0  0  0  0  0  0  0  0  0  0
   59.7485   35.2402   44.4312 H   0  0  0  0  0  0  0  0  0  0  0  0
   60.5258   33.6059   44.7054 H   0  0  0  0  0  0  0  0  0  0  0  0
   57.6967   34.2735   43.8878 H   0  0  0  0  0  0  0  0  0  0  0  0
   58.8487   33.0647   43.2126 H   0  0  0  0  0  0  0  0  0  0  0  0
   55.9447   31.3868   43.4902 H   0  0  0  0  0  0  0  0  0  0  0  0
   55.8390   28.9961   42.7627 H   0  0  0  0  0  0  0  0  0  0  0  0
   57.6500   27.4108   43.4449 H   0  0  0  0  0  0  0  0  0  0  0  0
   59.5405   28.2366   44.8549 H   0  0  0  0  0  0  0  0  0  0  0  0
   59.5790   30.5400   45.5420 H   0  0  0  0  0  0  0  0  0  0  0  0
   56.3307   32.9688   46.3183 H   0  0  0  0  0  0  0  0  0  0  0  0
   57.7404   32.1074   47.0486 H   0  0  0  0  0  0  0  0  0  0  0  0
   57.4471   35.0403   46.3119 H   0  0  0  0  0  0  0  0  0  0  0  0
   58.0163   34.2740   47.8568 H   0  0  0  0  0  0  0  0  0  0  0  0
   60.4160   34.8147   49.6815 H   0  0  0  0  0  0  0  0  0  0  0  0
   59.3704   34.3140   51.8896 H   0  0  0  0  0  0  0  0  0  0  0  0
  1  2  1  0
  2  3  1  0
  3  4  2  0
  4  5  1  0
  5  6  2  0
  6  7  1  0
  7  8  2  0
  7  9  2  0
  7 10  1  0
 10 11  1  0
 11 12  1  0
 12 13  1  0
 13 14  1  0
 14 15  2  0
 15 16  1  0
 16 17  2  0
 17 18  1  0
 18 19  2  0
 13 20  1  0
 20 21  1  0
  6 22  1  0
 22 23  2  0
 23  3  1  0
 21 10  1  0
 19 14  1  0
  1 24  1  0
  1 25  1  0
  1 26  1  0
  4 27  1  0
  5 28  1  0
 11 29  1  0
 11 30  1  0
 12 31  1  0
 12 32  1  0
 15 33  1  0
 16 34  1  0
 17 35  1  0
 18 36  1  0
 19 37  1  0
 20 38  1  0
 20 39  1  0
 21 40  1  0
 21 41  1  0
 22 42  1  0
 23 43  1  0
M  CHG  1  19   1
M  END
>  <UniqueID>  (23) 
21

>  <SMILES>  (23) 
COc1ccc(S(=O)(=O)N2CCN(c3cccc[nH+]3)CC2)cc1

>  <Energy>  (23) 
54.00248753217715

>  <Genealogy>  (23) 
COc1ccc(S(=O)(=O)N2CCN(c3cccc[nH+]3)CC2)cc1 (protonated)
COc1ccc(S(=O)(=O)N2CCN(c3cccc[nH+]3)CC2)cc1 (3D coordinates assigned)
COc1ccc(S(=O)(=O)N2CCN(c3cccc[nH+]3)CC2)cc1 (nonaromatic ring conformer: 54.00248753217715 kcal/mol)

>  <smiles>  (23) 
COc1ccc(S(=O)(=O)N2CCN(c3ccccn3)CC2)cc1

>  <score_type>  (23) 
oracle

>  <origin>  (23) 
adg

>  <m_score__min__energy>  (23) 
-5.5800000000000001

>  <m_primary>  (23) 
energy

$$$$
23:0
     RDKit          3D

 37 38  0  0  0  0  0  0  0  0999 V2000
   57.5810   31.9370   44.0380 C   0  0  0  0  0  0  0  0  0  0  0  0
   56.6480   31.1540   44.7720 O   0  0  0  0  0  0  0  0  0  0  0  0
   56.1940   29.9100   44.3260 C   0  0  0  0  0  0  0  0  0  0  0  0
   55.2030   29.3530   44.8720 O   0  0  0  0  0  0  0  0  0  0  0  0
   56.9190   29.2150   43.2140 C   0  0  0  0  0  0  0  0  0  0  0  0
   57.7680   28.0500   43.7360 C   0  0  0  0  0  0  0  0  0  0  0  0
   58.4180   28.3800   45.0570 C   0  0  0  0  0  0  0  0  0  0  0  0
   57.9080   27.8450   46.2500 C   0  0  0  0  0  0  0  0  0  0  0  0
   58.4950   28.1720   47.4750 C   0  0  0  0  0  0  0  0  0  0  0  0
   59.5870   29.0430   47.5180 C   0  0  0  0  0  0  0  0  0  0  0  0
   60.1000   29.6000   46.3410 C   0  0  0  0  0  0  0  0  0  0  0  0
   61.1880   30.4820   46.4430 O   0  0  0  0  0  0  0  0  0  0  0  0
   61.2240   31.6610   47.2490 C   0  0  0  0  0  0  0  0  0  0  0  0
   60.0760   32.5710   46.9220 C   0  0  0  0  0  0  0  0  0  0  0  0
   60.2710   33.7140   46.1330 C   0  0  0  0  0  0  0  0  0  0  0  0
   59.1830   34.5430   45.8490 C   0  0  0  0  0  0  0  0  0  0  0  0
   57.9210   34.2320   46.3580 C   0  0  0  0  0  0  0  0  0  0  0  0
   57.7660   33.0910   47.1490 C   0  0  0  0  0  0  0  0  0  0  0  0
   58.8360   32.2950   47.4140 N   0  0  0  0  0  0  0  0  0  0  0  0
   59.5080   29.2640   45.1080 C   0  0  0  0  0  0  0  0  0  0  0  0
   58.2316   32.4830   44.7370 H   0  0  0  0  0  0  0  0  0  0  0  0
   58.1939   31.2789   43.4046 H   0  0  0  0  0  0  0  0  0  0  0  0
   57.0392   32.6548   43.4046 H   0  0  0  0  0  0  0  0  0  0  0  0
   56.1823   28.8262   42.4956 H   0  0  0  0  0  0  0  0  0  0  0  0
   57.5902   29.9419   42.7333 H   0  0  0  0  0  0  0  0  0  0  0  0
   57.1223   27.1691   43.8668 H   0  0  0  0  0  0  0  0  0  0  0  0
   58.5637   27.8507   43.0031 H   0  0  0  0  0  0  0  0  0  0  0  0
   57.0432   27.1659   46.2205 H   0  0  0  0  0  0  0  0  0  0  0  0
   58.0971   27.7434   48.4067 H   0  0  0  0  0  0  0  0  0  0  0  0
   60.0473   29.2930   48.4853 H   0  0  0  0  0  0  0  0  0  0  0  0
   61.1649   31.3739   48.3092 H   0  0  0  0  0  0  0  0  0  0  0  0
   62.1638   32.1956   47.0465 H   0  0  0  0  0  0  0  0  0  0  0  0
   61.2704   33.9553   45.7418 H   0  0  0  0  0  0  0  0  0  0  0  0
   59.3205   35.4388   45.2256 H   0  0  0  0  0  0  0  0  0  0  0  0
   57.0582   34.8781   46.1387 H   0  0  0  0  0  0  0  0  0  0  0  0
   56.7771   32.8362   47.5579 H   0  0  0  0  0  0  0  0  0  0  0  0
   59.9027   29.6976   44.1773 H   0  0  0  0  0  0  0  0  0  0  0  0
  1  2  1  0
  2  3  1  0
  3  4  2  0
  3  5  1  0
  5  6  1  0
  6  7  1  0
  7  8  2  0
  8  9  1  0
  9 10  2  0
 10 11  1  0
 11 12  1  0
 12 13  1  0
 13 14  1  0
 14 15  2  0
 15 16  1  0
 16 17  2  0
 17 18  1  0
 18 19  2  0
 11 20  2  0
 20  7  1  0
 19 14  1  0
  1 21  1  0
  1 22  1  0
  1 23  1  0
  5 24  1  0
  5 25  1  0
  6 26  1  0
  6 27  1  0
  8 28  1  0
  9 29  1  0
 10 30  1  0
 13 31  1  0
 13 32  1  0
 15 33  1  0
 16 34  1  0
 17 35  1  0
 18 36  1  0
 20 37  1  0
M  END
>  <UniqueID>  (24) 
22

>  <SMILES>  (24) 
COC(=O)CCc1cccc(OCc2ccccn2)c1

>  <Energy>  (24) 
30.383471157780946

>  <Genealogy>  (24) 
COC(=O)CCc1cccc(OCc2ccccn2)c1 (3D coordinates assigned)
COC(=O)CCc1cccc(OCc2ccccn2)c1 (optimized conformer: 30.383471157780946 kcal/mol)

>  <smiles>  (24) 
COC(=O)CCc1cccc(OCc2ccccn2)c1

>  <score_type>  (24) 
oracle

>  <origin>  (24) 
adg

>  <m_score__min__energy>  (24) 
-7.0499999999999998

>  <m_primary>  (24) 
energy

$$$$
24:0
     RDKit          3D

 39 41  0  0  0  0  0  0  0  0999 V2000
   62.1190   31.3180   47.5310 C   0  0  0  0  0  0  0  0  0  0  0  0
   61.1590   30.3080   47.8230 O   0  0  0  0  0  0  0  0  0  0  0  0
   60.0580   29.9800   47.0140 C   0  0  0  0  0  0  0  0  0  0  0  0
   59.7870   28.6390   46.6740 C   0  0  0  0  0  0  0  0  0  0  0  0
   58.6900   28.3020   45.8690 C   0  0  0  0  0  0  0  0  0  0  0  0
   58.4010   26.8910   45.5090 C   0  0  0  0  0  0  0  0  0  0  0  0
   59.1090   25.8440   46.0160 N   0  0  0  0  0  0  0  0  0  0  0  0
   58.5350   24.7760   45.4340 C   0  0  0  0  0  0  0  0  0  0  0  0
   58.8700   23.4370   45.5950 C   0  0  0  0  0  0  0  0  0  0  0  0
   58.1290   22.4840   44.8720 C   0  0  0  0  0  0  0  0  0  0  0  0
   57.0740   22.8840   44.0060 C   0  0  0  0  0  0  0  0  0  0  0  0
   56.3250   21.9010   43.2710 N   0  0  0  0  0  0  0  0  0  0  0  0
   55.7250   22.2100   42.2210 O   0  0  0  0  0  0  0  0  0  0  0  0
   56.2580   20.5990   43.7140 O   0  0  0  0  0  0  0  0  0  0  0  0
   56.7710   24.2630   43.8750 C   0  0  0  0  0  0  0  0  0  0  0  0
   57.5280   25.1710   44.6110 C   0  0  0  0  0  0  0  0  0  0  0  0
   57.4260   26.5050   44.6420 N   0  0  0  0  0  0  0  0  0  0  0  0
   57.8600   29.3260   45.3900 C   0  0  0  0  0  0  0  0  0  0  0  0
   58.1120   30.6700   45.7160 C   0  0  0  0  0  0  0  0  0  0  0  0
   57.2910   31.7100   45.2510 O   0  0  0  0  0  0  0  0  0  0  0  0
   57.7140   32.7450   44.3680 C   0  0  0  0  0  0  0  0  0  0  0  0
   59.2070   31.0030   46.5280 C   0  0  0  0  0  0  0  0  0  0  0  0
   59.3880   32.3720   46.8110 O   0  0  0  0  0  0  0  0  0  0  0  0
   58.6620   33.1460   47.7600 C   0  0  0  0  0  0  0  0  0  0  0  0
   62.5128   31.7323   48.4708 H   0  0  0  0  0  0  0  0  0  0  0  0
   62.9440   30.8823   46.9483 H   0  0  0  0  0  0  0  0  0  0  0  0
   61.6420   32.1198   46.9483 H   0  0  0  0  0  0  0  0  0  0  0  0
   60.4481   27.8429   47.0470 H   0  0  0  0  0  0  0  0  0  0  0  0
   59.6872   23.1322   46.2653 H   0  0  0  0  0  0  0  0  0  0  0  0
   58.3688   21.4157   44.9779 H   0  0  0  0  0  0  0  0  0  0  0  0
   55.9626   24.6051   43.2122 H   0  0  0  0  0  0  0  0  0  0  0  0
   56.7580   27.0930   44.0960 H   0  0  0  0  0  0  0  0  0  0  0  0
   57.0008   29.0742   44.7510 H   0  0  0  0  0  0  0  0  0  0  0  0
   58.0660   33.6063   44.9546 H   0  0  0  0  0  0  0  0  0  0  0  0
   58.5327   32.3741   43.7338 H   0  0  0  0  0  0  0  0  0  0  0  0
   56.8699   33.0537   43.7338 H   0  0  0  0  0  0  0  0  0  0  0  0
   58.9480   32.8411   48.7775 H   0  0  0  0  0  0  0  0  0  0  0  0
   58.8936   34.2119   47.6179 H   0  0  0  0  0  0  0  0  0  0  0  0
   57.5835   32.9830   47.6179 H   0  0  0  0  0  0  0  0  0  0  0  0
  1  2  1  0
  2  3  1  0
  3  4  2  0
  4  5  1  0
  5  6  1  0
  6  7  2  0
  7  8  1  0
  8  9  2  0
  9 10  1  0
 10 11  2  0
 11 12  1  0
 12 13  2  0
 12 14  1  0
 11 15  1  0
 15 16  2  0
 16 17  1  0
  5 18  2  0
 18 19  1  0
 19 20  1  0
 20 21  1  0
 19 22  2  0
 22 23  1  0
 23 24  1  0
 22  3  1  0
 17  6  1  0
 16  8  1  0
  1 25  1  0
  1 26  1  0
  1 27  1  0
  4 28  1  0
  9 29  1  0
 10 30  1  0
 15 31  1  0
 17 32  1  0
 18 33  1  0
 21 34  1  0
 21 35  1  0
 21 36  1  0
 24 37  1  0
 24 38  1  0
 24 39  1  0
M  CHG  2  12   1  14  -1
M  END
>  <UniqueID>  (25) 
23

>  <SMILES>  (25) 
COc1cc(-c2nc3ccc([N+](=O)[O-])cc3[nH]2)cc(OC)c1OC

>  <Energy>  (25) 
82.18523021758537

>  <Genealogy>  (25) 
COc1cc(-c2nc3ccc([N+](=O)[O-])cc3[nH]2)cc(OC)c1OC (3D coordinates assigned)
COc1cc(-c2nc3ccc([N+](=O)[O-])cc3[nH]2)cc(OC)c1OC (optimized conformer: 82.18523021758537 kcal/mol)

>  <smiles>  (25) 
COc1cc(-c2nc3ccc([N+](=O)[O-])cc3[nH]2)cc(OC)c1OC

>  <score_type>  (25) 
oracle

>  <origin>  (25) 
adg

>  <m_score__min__energy>  (25) 
-6.2800000000000002

>  <m_primary>  (25) 
energy

$$$$
25:0
     RDKit          3D

 16 15  0  0  0  0  0  0  0  0999 V2000
   58.1460   26.7150   42.3350 C   0  0  0  0  0  0  0  0  0  0  0  0
   57.7140   27.8580   43.1450 N   0  0  0  0  0  0  0  0  0  0  0  0
   58.5850   28.0200   44.3210 C   0  0  0  0  0  0  0  0  0  0  0  0
   58.1710   29.2310   45.1760 C   0  0  0  0  0  0  0  0  0  0  0  0
   56.6750   29.7280   44.8290 S   0  0  0  0  0  4  0  0  0  0  0  0
   56.4410   31.0230   44.5490 O   0  0  0  0  0  0  0  0  0  0  0  0
   55.5260   28.7540   44.8910 O   0  0  0  0  0  0  0  0  0  0  0  0
   58.4566   25.8931   42.9968 H   0  0  0  0  0  0  0  0  0  0  0  0
   57.3126   26.3796   41.7002 H   0  0  0  0  0  0  0  0  0  0  0  0
   58.9929   27.0147   41.7002 H   0  0  0  0  0  0  0  0  0  0  0  0
   57.7530   28.7160   42.5480 H   0  0  0  0  0  0  0  0  0  0  0  0
   56.7280   27.6950   43.4530 H   0  0  0  0  0  0  0  0  0  0  0  0
   58.5236   27.1111   44.9375 H   0  0  0  0  0  0  0  0  0  0  0  0
   59.6123   28.1876   43.9653 H   0  0  0  0  0  0  0  0  0  0  0  0
   58.2146   28.9483   46.2381 H   0  0  0  0  0  0  0  0  0  0  0  0
   58.8644   30.0565   44.9572 H   0  0  0  0  0  0  0  0  0  0  0  0
  1  2  1  0
  2  3  1  0
  3  4  1  0
  4  5  1  0
  5  6  2  0
  5  7  1  0
  1  8  1  0
  1  9  1  0
  1 10  1  0
  2 11  1  0
  2 12  1  0
  3 13  1  0
  3 14  1  0
  4 15  1  0
  4 16  1  0
M  CHG  3   2   1   5   1   7  -1
M  RAD  1   5   2
M  END
>  <UniqueID>  (26) 
24

>  <SMILES>  (26) 
C[NH2+]CC[S+](=O)[O-]

>  <Energy>  (26) 
6.401571252952084

>  <Genealogy>  (26) 
C[NH2+]CC[S+](=O)[O-] (protonated)
C[NH2+]CC[S+](=O)[O-] (chirality)
C[NH2+]CC[S+](=O)[O-] (3D coordinates assigned)
C[NH2+]CC[S+](=O)[O-] (optimized conformer: 6.401571252952084 kcal/mol)

>  <smiles>  (26) 
CNCC[S+](=O)[O-]

>  <score_type>  (26) 
oracle

>  <origin>  (26) 
adg

>  <m_score__min__energy>  (26) 
-3.5600000000000001

>  <m_primary>  (26) 
energy

$$$$
26:0
     RDKit          3D

 36 36  0  0  0  0  0  0  0  0999 V2000
   59.4050   27.0330   45.7390 C   0  0  0  0  0  0  0  0  0  0  0  0
   58.4240   26.2930   44.8290 C   0  0  0  0  0  0  0  0  0  0  0  0
   57.7790   27.2100   43.7680 C   0  0  2  0  0  0  0  0  0  0  0  0
   58.1880   26.8040   42.3450 C   0  0  0  0  0  0  0  0  0  0  0  0
   58.1710   28.6020   44.0190 N   0  0  0  0  0  0  0  0  0  0  0  0
   57.3480   29.5030   44.7810 C   0  0  0  0  0  0  0  0  0  0  0  0
   56.1720   29.1650   45.0860 O   0  0  0  0  0  0  0  0  0  0  0  0
   57.8530   30.8330   45.2010 C   0  0  0  0  0  0  0  0  0  0  0  0
   58.7390   30.9380   46.2850 C   0  0  0  0  0  0  0  0  0  0  0  0
   59.2270   32.1840   46.6870 C   0  0  0  0  0  0  0  0  0  0  0  0
   58.8480   33.3630   46.0120 C   0  0  0  0  0  0  0  0  0  0  0  0
   59.3540   34.6580   46.4300 N   0  0  0  0  0  0  0  0  0  0  0  0
   59.6500   35.7000   45.4390 C   0  0  0  0  0  0  0  0  0  0  0  0
   59.5800   34.9460   47.8520 C   0  0  0  0  0  0  0  0  0  0  0  0
   57.9690   33.2470   44.9160 C   0  0  0  0  0  0  0  0  0  0  0  0
   57.4810   32.0000   44.5160 C   0  0  0  0  0  0  0  0  0  0  0  0
   59.1475   26.8388   46.7906 H   0  0  0  0  0  0  0  0  0  0  0  0
   60.4275   26.6793   45.5405 H   0  0  0  0  0  0  0  0  0  0  0  0
   59.3457   28.1133   45.5405 H   0  0  0  0  0  0  0  0  0  0  0  0
   58.9646   25.4858   44.3131 H   0  0  0  0  0  0  0  0  0  0  0  0
   57.6147   25.9035   45.4641 H   0  0  0  0  0  0  0  0  0  0  0  0
   56.6867   27.1068   43.8467 H   0  0  0  0  0  0  0  0  0  0  0  0
   58.9679   26.0298   42.3944 H   0  0  0  0  0  0  0  0  0  0  0  0
   57.3118   26.4082   41.8105 H   0  0  0  0  0  0  0  0  0  0  0  0
   58.5773   27.6831   41.8105 H   0  0  0  0  0  0  0  0  0  0  0  0
   59.0410   28.9710   43.5740 H   0  0  0  0  0  0  0  0  0  0  0  0
   59.0519   30.0309   46.8228 H   0  0  0  0  0  0  0  0  0  0  0  0
   59.9164   32.2463   47.5419 H   0  0  0  0  0  0  0  0  0  0  0  0
   59.9152   36.6336   45.9567 H   0  0  0  0  0  0  0  0  0  0  0  0
   60.4922   35.3781   44.8089 H   0  0  0  0  0  0  0  0  0  0  0  0
   58.7643   35.8690   44.8089 H   0  0  0  0  0  0  0  0  0  0  0  0
   59.0164   34.2278   48.4656 H   0  0  0  0  0  0  0  0  0  0  0  0
   60.6530   34.8585   48.0778 H   0  0  0  0  0  0  0  0  0  0  0  0
   59.2399   35.9674   48.0778 H   0  0  0  0  0  0  0  0  0  0  0  0
   57.6630   34.1504   44.3681 H   0  0  0  0  0  0  0  0  0  0  0  0
   56.7987   31.9326   43.6558 H   0  0  0  0  0  0  0  0  0  0  0  0
  1  2  1  0
  2  3  1  0
  3  4  1  0
  3  5  1  0
  5  6  1  0
  6  7  2  0
  6  8  1  0
  8  9  2  0
  9 10  1  0
 10 11  2  0
 11 12  1  0
 12 13  1  0
 12 14  1  0
 11 15  1  0
 15 16  2  0
 16  8  1  0
  1 17  1  0
  1 18  1  0
  1 19  1  0
  2 20  1  0
  2 21  1  0
  3 22  1  6
  4 23  1  0
  4 24  1  0
  4 25  1  0
  5 26  1  0
  9 27  1  0
 10 28  1  0
 13 29  1  0
 13 30  1  0
 13 31  1  0
 14 32  1  0
 14 33  1  0
 14 34  1  0
 15 35  1  0
 16 36  1  0
M  END
>  <UniqueID>  (27) 
25

>  <SMILES>  (27) 
CC[C@H](C)NC(=O)c1ccc(N(C)C)cc1

>  <Energy>  (27) 
30.65483890334083

>  <Genealogy>  (27) 
CC[C@H](C)NC(=O)c1ccc(N(C)C)cc1 (chirality)
CC[C@H](C)NC(=O)c1ccc(N(C)C)cc1 (3D coordinates assigned)
CC[C@H](C)NC(=O)c1ccc(N(C)C)cc1 (optimized conformer: 30.65483890334083 kcal/mol)

>  <smiles>  (27) 
CCC(C)NC(=O)c1ccc(N(C)C)cc1

>  <score_type>  (27) 
oracle

>  <origin>  (27) 
adg

>  <m_score__min__energy>  (27) 
-5.7199999999999998

>  <m_primary>  (27) 
energy

$$$$
27:0
     RDKit          3D

 39 40  0  0  0  0  0  0  0  0999 V2000
   57.0250   27.3640   45.6790 C   0  0  0  0  0  0  0  0  0  0  0  0
   55.9190   28.2130   45.2640 N   0  0  0  0  0  0  0  0  0  0  0  0
   56.1130   29.5380   44.7650 C   0  0  0  0  0  0  0  0  0  0  0  0
   55.1190   30.2610   44.4800 O   0  0  0  0  0  0  0  0  0  0  0  0
   57.5080   30.0750   44.5880 C   0  0  0  0  0  0  0  0  0  0  0  0
   58.0610   30.5790   45.9410 C   0  0  0  0  0  0  0  0  0  0  0  0
   59.1480   31.6410   45.7540 C   0  0  0  0  0  0  0  0  0  0  0  0
   58.6290   32.7800   44.9790 N   0  0  0  0  0  0  0  0  0  0  0  0
   59.1870   34.0920   45.1670 C   0  0  0  0  0  0  0  0  0  0  0  0
   58.6110   35.0970   44.6680 O   0  0  0  0  0  0  0  0  0  0  0  0
   60.4210   34.2520   45.8790 N   0  0  0  0  0  0  0  0  0  0  0  0
   60.6200   34.0480   47.2860 C   0  0  0  0  0  0  0  0  0  0  0  0
   59.5530   34.0880   48.2010 C   0  0  0  0  0  0  0  0  0  0  0  0
   59.7830   33.8650   49.5620 C   0  0  0  0  0  0  0  0  0  0  0  0
   61.0800   33.6040   50.0300 C   0  0  0  0  0  0  0  0  0  0  0  0
   61.3150   33.3340   51.4880 C   0  0  0  0  0  0  0  0  0  0  0  0
   62.1390   33.5260   49.1090 C   0  0  0  0  0  0  0  0  0  0  0  0
   63.3980   33.2430   49.5290 F   0  0  0  0  0  0  0  0  0  0  0  0
   61.9040   33.7440   47.7480 C   0  0  0  0  0  0  0  0  0  0  0  0
   57.5270   32.5750   44.0250 C   0  0  0  0  0  0  0  0  0  0  0  0
   57.5530   31.1470   43.4700 C   0  0  0  0  0  0  0  0  0  0  0  0
   57.0691   27.3302   46.7776 H   0  0  0  0  0  0  0  0  0  0  0  0
   56.8742   26.3475   45.2866 H   0  0  0  0  0  0  0  0  0  0  0  0
   57.9680   27.7724   45.2866 H   0  0  0  0  0  0  0  0  0  0  0  0
   58.1713   29.2631   44.2549 H   0  0  0  0  0  0  0  0  0  0  0  0
   57.2351   31.0142   46.5228 H   0  0  0  0  0  0  0  0  0  0  0  0
   58.5083   29.7225   46.4666 H   0  0  0  0  0  0  0  0  0  0  0  0
   59.4805   31.9961   46.7406 H   0  0  0  0  0  0  0  0  0  0  0  0
   59.9915   31.1940   45.2074 H   0  0  0  0  0  0  0  0  0  0  0  0
   58.5333   34.2956   47.8446 H   0  0  0  0  0  0  0  0  0  0  0  0
   58.9420   33.8943   50.2704 H   0  0  0  0  0  0  0  0  0  0  0  0
   60.7112   34.0278   52.0914 H   0  0  0  0  0  0  0  0  0  0  0  0
   61.0255   32.2985   51.7205 H   0  0  0  0  0  0  0  0  0  0  0  0
   62.3805   33.4778   51.7205 H   0  0  0  0  0  0  0  0  0  0  0  0
   62.7377   33.6756   47.0337 H   0  0  0  0  0  0  0  0  0  0  0  0
   56.5688   32.7464   44.5372 H   0  0  0  0  0  0  0  0  0  0  0  0
   57.6441   33.2821   43.1905 H   0  0  0  0  0  0  0  0  0  0  0  0
   56.6820   31.0080   42.8128 H   0  0  0  0  0  0  0  0  0  0  0  0
   58.4979   31.0186   42.9217 H   0  0  0  0  0  0  0  0  0  0  0  0
  1  2  1  0
  2  3  1  0
  3  4  2  0
  3  5  1  0
  5  6  1  0
  6  7  1  0
  7  8  1  0
  8  9  1  0
  9 10  2  0
  9 11  1  0
 11 12  1  0
 12 13  2  0
 13 14  1  0
 14 15  2  0
 15 16  1  0
 15 17  1  0
 17 18  1  0
 17 19  2  0
  8 20  1  0
 20 21  1  0
 21  5  1  0
 19 12  1  0
  1 22  1  0
  1 23  1  0
  1 24  1  0
  5 25  1  0
  6 26  1  0
  6 27  1  0
  7 28  1  0
  7 29  1  0
 13 30  1  0
 14 31  1  0
 16 32  1  0
 16 33  1  0
 16 34  1  0
 19 35  1  0
 20 36  1  0
 20 37  1  0
 21 38  1  0
 21 39  1  0
M  CHG  2   2  -1  11  -1
M  END
>  <UniqueID>  (28) 
26

>  <SMILES>  (28) 
C[N-]C(=O)C1CCN(C(=O)[N-]c2ccc(C)c(F)c2)CC1

>  <Energy>  (28) 
40.18532504483073

>  <Genealogy>  (28) 
C[N-]C(=O)C1CCN(C(=O)[N-]c2ccc(C)c(F)c2)CC1 (protonated)
C[N-]C(=O)C1CCN(C(=O)[N-]c2ccc(C)c(F)c2)CC1 (3D coordinates assigned)
C[N-]C(=O)C1CCN(C(=O)[N-]c2ccc(C)c(F)c2)CC1 (nonaromatic ring conformer: 40.18532504483073 kcal/mol)

>  <smiles>  (28) 
CNC(=O)C1CCN(C(=O)Nc2ccc(C)c(F)c2)CC1

>  <score_type>  (28) 
oracle

>  <origin>  (28) 
adg

>  <m_score__min__energy>  (28) 
-10.130000000000001

>  <m_primary>  (28) 
energy

$$$$
28:0
     RDKit          3D

 30 31  0  0  0  0  0  0  0  0999 V2000
   56.1330   29.7210   43.9060 C   0  0  0  0  0  0  0  0  0  0  0  0
   56.1290   29.1550   45.2130 O   0  0  0  0  0  0  0  0  0  0  0  0
   57.0330   28.1790   45.6660 C   0  0  0  0  0  0  0  0  0  0  0  0
   56.6210   26.8520   45.9040 C   0  0  0  0  0  0  0  0  0  0  0  0
   57.5240   25.9080   46.3980 C   0  0  0  0  0  0  0  0  0  0  0  0
   58.8420   26.2730   46.6630 C   0  0  0  0  0  0  0  0  0  0  0  0
   59.2680   27.5800   46.4260 C   0  0  0  0  0  0  0  0  0  0  0  0
   58.3770   28.5410   45.9120 C   0  0  0  0  0  0  0  0  0  0  0  0
   58.8680   29.9170   45.6590 C   0  0  0  0  0  0  0  0  0  0  0  0
   59.9840   30.0820   45.0960 O   0  0  0  0  0  0  0  0  0  0  0  0
   58.0540   31.0560   45.9810 N   0  0  0  0  0  0  0  0  0  0  0  0
   58.5690   32.3880   46.1500 C   0  0  0  0  0  0  0  0  0  0  0  0
   58.5250   33.2870   45.0710 C   0  0  0  0  0  0  0  0  0  0  0  0
   58.9990   34.5930   45.2180 C   0  0  0  0  0  0  0  0  0  0  0  0
   59.5100   35.0190   46.4460 C   0  0  0  0  0  0  0  0  0  0  0  0
   59.5400   34.1400   47.5320 C   0  0  0  0  0  0  0  0  0  0  0  0
   60.0190   34.5600   48.7290 F   0  0  0  0  0  0  0  0  0  0  0  0
   59.0670   32.8320   47.3890 C   0  0  0  0  0  0  0  0  0  0  0  0
   56.1408   30.8184   43.9817 H   0  0  0  0  0  0  0  0  0  0  0  0
   57.0288   29.3845   43.3635 H   0  0  0  0  0  0  0  0  0  0  0  0
   55.2325   29.3972   43.3635 H   0  0  0  0  0  0  0  0  0  0  0  0
   55.5810   26.5580   45.6992 H   0  0  0  0  0  0  0  0  0  0  0  0
   57.1938   24.8743   46.5782 H   0  0  0  0  0  0  0  0  0  0  0  0
   59.5483   25.5290   47.0600 H   0  0  0  0  0  0  0  0  0  0  0  0
   60.3089   27.8621   46.6426 H   0  0  0  0  0  0  0  0  0  0  0  0
   57.0160   30.9240   45.9970 H   0  0  0  0  0  0  0  0  0  0  0  0
   58.1146   32.9603   44.1041 H   0  0  0  0  0  0  0  0  0  0  0  0
   58.9697   35.2870   44.3650 H   0  0  0  0  0  0  0  0  0  0  0  0
   59.8886   36.0457   46.5583 H   0  0  0  0  0  0  0  0  0  0  0  0
   59.0843   32.1467   48.2492 H   0  0  0  0  0  0  0  0  0  0  0  0
  1  2  1  0
  2  3  1  0
  3  4  2  0
  4  5  1  0
  5  6  2  0
  6  7  1  0
  7  8  2  0
  8  9  1  0
  9 10  2  0
  9 11  1  0
 11 12  1  0
 12 13  2  0
 13 14  1  0
 14 15  2  0
 15 16  1  0
 16 17  1  0
 16 18  2  0
  8  3  1  0
 18 12  1  0
  1 19  1  0
  1 20  1  0
  1 21  1  0
  4 22  1  0
  5 23  1  0
  6 24  1  0
  7 25  1  0
 11 26  1  0
 13 27  1  0
 14 28  1  0
 15 29  1  0
 18 30  1  0
M  END
>  <UniqueID>  (29) 
27

>  <SMILES>  (29) 
COc1ccccc1C(=O)Nc1cccc(F)c1

>  <Energy>  (29) 
37.4113811718713

>  <Genealogy>  (29) 
COc1ccccc1C(=O)Nc1cccc(F)c1 (3D coordinates assigned)
COc1ccccc1C(=O)Nc1cccc(F)c1 (optimized conformer: 37.4113811718713 kcal/mol)

>  <smiles>  (29) 
COc1ccccc1C(=O)Nc1cccc(F)c1

>  <score_type>  (29) 
oracle

>  <origin>  (29) 
adg

>  <m_score__min__energy>  (29) 
-6.21

>  <m_primary>  (29) 
energy

$$$$
29:0
     RDKit          3D

 44 48  0  0  0  0  0  0  0  0999 V2000
   59.6060   33.5000   50.7970 C   0  0  0  0  0  0  0  0  0  0  0  0
   60.0250   32.8300   49.6130 O   0  0  0  0  0  0  0  0  0  0  0  0
   61.2750   33.0080   48.9970 C   0  0  0  0  0  0  0  0  0  0  0  0
   62.1610   34.0330   49.3880 C   0  0  0  0  0  0  0  0  0  0  0  0
   63.3970   34.1780   48.7550 C   0  0  0  0  0  0  0  0  0  0  0  0
   63.7700   33.3030   47.7330 C   0  0  0  0  0  0  0  0  0  0  0  0
   62.9030   32.2820   47.3370 C   0  0  0  0  0  0  0  0  0  0  0  0
   61.6480   32.1410   47.9520 C   0  0  0  0  0  0  0  0  0  0  0  0
   60.7630   31.0360   47.5490 C   0  0  0  0  0  0  0  0  0  0  0  0
   61.1180   29.7430   47.7240 N   0  0  0  0  0  0  0  0  0  0  0  0
   60.2210   29.0090   47.0830 N   0  0  0  0  0  0  0  0  0  0  0  0
   59.3370   29.8510   46.5220 C   0  0  0  0  0  0  0  0  0  0  0  0
   58.2650   29.5260   45.6780 C   0  0  0  0  0  0  0  0  0  0  0  0
   57.8950   28.1350   45.3420 C   0  0  0  0  0  0  0  0  0  0  0  0
   57.3740   27.2910   46.3370 C   0  0  0  0  0  0  0  0  0  0  0  0
   57.0460   25.9650   46.0360 C   0  0  0  0  0  0  0  0  0  0  0  0
   57.2480   25.4680   44.7470 C   0  0  0  0  0  0  0  0  0  0  0  0
   56.9310   24.1810   44.4580 F   0  0  0  0  0  0  0  0  0  0  0  0
   57.7870   26.2940   43.7560 C   0  0  0  0  0  0  0  0  0  0  0  0
   58.1160   27.6200   44.0520 C   0  0  0  0  0  0  0  0  0  0  0  0
   57.5480   30.5560   45.1440 N   0  0  0  0  0  0  0  0  0  0  0  0
   57.8170   31.8600   45.4420 C   0  0  0  0  0  0  0  0  0  0  0  0
   57.0250   32.8780   44.8990 C   0  0  0  0  0  0  0  0  0  0  0  0
   57.2590   34.2080   45.2540 C   0  0  0  0  0  0  0  0  0  0  0  0
   58.2690   34.5250   46.1650 C   0  0  0  0  0  0  0  0  0  0  0  0
   59.0720   33.5180   46.7110 C   0  0  0  0  0  0  0  0  0  0  0  0
   58.8800   32.1770   46.3260 C   0  0  0  0  0  0  0  0  0  0  0  0
   59.6360   31.1340   46.7960 N   0  0  0  0  0  0  0  0  0  0  0  0
   59.9555   32.9412   51.6777 H   0  0  0  0  0  0  0  0  0  0  0  0
   60.0309   34.5145   50.8141 H   0  0  0  0  0  0  0  0  0  0  0  0
   58.5079   33.5620   50.8141 H   0  0  0  0  0  0  0  0  0  0  0  0
   61.8766   34.7225   50.1966 H   0  0  0  0  0  0  0  0  0  0  0  0
   64.0791   34.9843   49.0625 H   0  0  0  0  0  0  0  0  0  0  0  0
   64.7465   33.4177   47.2397 H   0  0  0  0  0  0  0  0  0  0  0  0
   63.2041   31.5857   46.5405 H   0  0  0  0  0  0  0  0  0  0  0  0
   60.2620   27.9690   47.0060 H   0  0  0  0  0  0  0  0  0  0  0  0
   57.2234   27.6745   47.3569 H   0  0  0  0  0  0  0  0  0  0  0  0
   56.6280   25.3123   46.8166 H   0  0  0  0  0  0  0  0  0  0  0  0
   57.9523   25.9000   42.7424 H   0  0  0  0  0  0  0  0  0  0  0  0
   58.5497   28.2636   43.2724 H   0  0  0  0  0  0  0  0  0  0  0  0
   56.2186   32.6306   44.1929 H   0  0  0  0  0  0  0  0  0  0  0  0
   56.6459   35.0087   44.8147 H   0  0  0  0  0  0  0  0  0  0  0  0
   58.4341   35.5731   46.4550 H   0  0  0  0  0  0  0  0  0  0  0  0
   59.8538   33.7737   47.4414 H   0  0  0  0  0  0  0  0  0  0  0  0
  1  2  1  0
  2  3  1  0
  3  4  2  0
  4  5  1  0
  5  6  2  0
  6  7  1  0
  7  8  2  0
  8  9  1  0
  9 10  2  0
 10 11  1  0
 11 12  2  0
 12 13  1  0
 13 14  1  0
 14 15  2  0
 15 16  1  0
 16 17  2  0
 17 18  1  0
 17 19  1  0
 19 20  2  0
 13 21  2  0
 21 22  1  0
 22 23  2  0
 23 24  1  0
 24 25  2  0
 25 26  1  0
 26 27  2  0
 27 28  1  0
  8  3  1  0
 28  9  1  0
 28 12  1  0
 20 14  1  0
 27 22  1  0
  1 29  1  0
  1 30  1  0
  1 31  1  0
  4 32  1  0
  5 33  1  0
  6 34  1  0
  7 35  1  0
 11 36  1  0
 15 37  1  0
 16 38  1  0
 19 39  1  0
 20 40  1  0
 23 41  1  0
 24 42  1  0
 25 43  1  0
 26 44  1  0
M  CHG  1  11   1
M  END
>  <UniqueID>  (30) 
28

>  <SMILES>  (30) 
COc1ccccc1-c1n[nH+]c2c(-c3ccc(F)cc3)nc3ccccc3n12

>  <Energy>  (30) 
112.88499322488124

>  <Genealogy>  (30) 
COc1ccccc1-c1n[nH+]c2c(-c3ccc(F)cc3)nc3ccccc3n12 (protonated)
COc1ccccc1-c1n[nH+]c2c(-c3ccc(F)cc3)nc3ccccc3n12 (3D coordinates assigned)
COc1ccccc1-c1n[nH+]c2c(-c3ccc(F)cc3)nc3ccccc3n12 (optimized conformer: 112.88499322488124 kcal/mol)

>  <smiles>  (30) 
COc1ccccc1-c1nnc2c(-c3ccc(F)cc3)nc3ccccc3n12

>  <score_type>  (30) 
oracle

>  <origin>  (30) 
adg

>  <m_score__min__energy>  (30) 
-6.8099999999999996

>  <m_primary>  (30) 
energy

$$$$
30:0
     RDKit          3D

 55 58  0  0  0  0  0  0  0  0999 V2000
   55.9100   22.5990   48.1930 C   0  0  0  0  0  0  0  0  0  0  0  0
   57.0850   22.8890   47.4430 O   0  0  0  0  0  0  0  0  0  0  0  0
   57.3400   24.1180   46.8170 C   0  0  0  0  0  0  0  0  0  0  0  0
   56.3620   25.1260   46.7060 C   0  0  0  0  0  0  0  0  0  0  0  0
   56.6640   26.3350   46.0730 C   0  0  0  0  0  0  0  0  0  0  0  0
   57.9440   26.5570   45.5380 C   0  0  0  0  0  0  0  0  0  0  0  0
   58.2780   27.8640   44.8530 C   0  0  0  0  0  0  0  0  0  0  0  0
   59.1050   28.7510   45.7080 N   0  0  0  0  0  0  0  0  0  0  0  0
   59.2980   30.0970   45.0870 C   0  0  0  0  0  0  0  0  0  0  0  0
   58.4250   31.1920   45.7150 C   0  0  0  0  0  0  0  0  0  0  0  0
   58.6580   31.2520   47.1620 N   0  0  0  0  0  0  0  0  0  0  0  0
   58.3960   32.4750   47.8810 C   0  0  0  0  0  0  0  0  0  0  0  0
   57.6930   33.3740   47.3430 O   0  0  0  0  0  0  0  0  0  0  0  0
   58.9680   32.7190   49.2230 C   0  0  0  0  0  0  0  0  0  0  0  0
   58.1790   32.6890   50.3320 N   0  0  0  0  0  0  0  0  0  0  0  0
   58.8880   32.8310   51.4720 C   0  0  0  0  0  0  0  0  0  0  0  0
   58.2660   32.8980   52.8240 C   0  0  0  0  0  0  0  0  0  0  0  0
   60.5260   33.0220   51.1590 S   0  0  0  0  0  0  0  0  0  0  0  0
   60.3350   32.9020   49.4880 C   0  0  0  0  0  0  0  0  0  0  0  0
   61.4390   33.0520   48.5160 C   0  0  0  0  0  0  0  0  0  0  0  0
   61.2330   33.7040   47.2880 C   0  0  0  0  0  0  0  0  0  0  0  0
   62.2870   33.8500   46.3800 C   0  0  0  0  0  0  0  0  0  0  0  0
   63.5540   33.3560   46.6960 C   0  0  0  0  0  0  0  0  0  0  0  0
   63.7750   32.7310   47.9260 C   0  0  0  0  0  0  0  0  0  0  0  0
   62.7230   32.5810   48.8350 C   0  0  0  0  0  0  0  0  0  0  0  0
   59.0110   30.0170   47.8720 C   0  0  0  0  0  0  0  0  0  0  0  0
   58.5280   28.8000   47.0770 C   0  0  0  0  0  0  0  0  0  0  0  0
   58.9170   25.5520   45.6530 C   0  0  0  0  0  0  0  0  0  0  0  0
   58.6150   24.3430   46.2870 C   0  0  0  0  0  0  0  0  0  0  0  0
   56.1378   22.6552   49.2677 H   0  0  0  0  0  0  0  0  0  0  0  0
   55.1270   23.3308   47.9454 H   0  0  0  0  0  0  0  0  0  0  0  0
   55.5574   21.5869   47.9454 H   0  0  0  0  0  0  0  0  0  0  0  0
   55.3561   24.9608   47.1194 H   0  0  0  0  0  0  0  0  0  0  0  0
   55.8949   27.1174   45.9932 H   0  0  0  0  0  0  0  0  0  0  0  0
   58.8319   27.6473   43.9277 H   0  0  0  0  0  0  0  0  0  0  0  0
   57.3326   28.3851   44.6417 H   0  0  0  0  0  0  0  0  0  0  0  0
   60.0540   28.3130   45.8050 H   0  0  0  0  0  0  0  0  0  0  0  0
   60.3535   30.3850   45.2012 H   0  0  0  0  0  0  0  0  0  0  0  0
   59.0006   30.0119   44.0314 H   0  0  0  0  0  0  0  0  0  0  0  0
   58.6788   32.1630   45.2647 H   0  0  0  0  0  0  0  0  0  0  0  0
   57.3659   30.9598   45.5294 H   0  0  0  0  0  0  0  0  0  0  0  0
   59.0487   32.8137   53.5923 H   0  0  0  0  0  0  0  0  0  0  0  0
   57.7412   33.8579   52.9390 H   0  0  0  0  0  0  0  0  0  0  0  0
   57.5488   32.0719   52.9390 H   0  0  0  0  0  0  0  0  0  0  0  0
   60.2378   34.1015   47.0397 H   0  0  0  0  0  0  0  0  0  0  0  0
   62.1176   34.3540   45.4170 H   0  0  0  0  0  0  0  0  0  0  0  0
   64.3791   33.4589   45.9759 H   0  0  0  0  0  0  0  0  0  0  0  0
   64.7777   32.3565   48.1796 H   0  0  0  0  0  0  0  0  0  0  0  0
   62.9019   32.0920   49.8040 H   0  0  0  0  0  0  0  0  0  0  0  0
   60.1033   29.9645   47.9908 H   0  0  0  0  0  0  0  0  0  0  0  0
   58.5281   30.0178   48.8603 H   0  0  0  0  0  0  0  0  0  0  0  0
   58.8206   27.8871   47.6164 H   0  0  0  0  0  0  0  0  0  0  0  0
   57.4352   28.8771   46.9774 H   0  0  0  0  0  0  0  0  0  0  0  0
   59.9238   25.7166   45.2416 H   0  0  0  0  0  0  0  0  0  0  0  0
   59.3859   23.5627   46.3697 H   0  0  0  0  0  0  0  0  0  0  0  0
  1  2  1  0
  2  3  1  0
  3  4  2  0
  4  5  1  0
  5  6  2  0
  6  7  1  0
  7  8  1  0
  8  9  1  0
  9 10  1  0
 10 11  1  0
 11 12  1  0
 12 13  2  0
 12 14  1  0
 14 15  1  0
 15 16  2  0
 16 17  1  0
 16 18  1  0
 18 19  1  0
 19 20  1  0
 20 21  2  0
 21 22  1  0
 22 23  2  0
 23 24  1  0
 24 25  2  0
 11 26  1  0
 26 27  1  0
  6 28  1  0
 28 29  2  0
 29  3  1  0
 27  8  1  0
 19 14  2  0
 25 20  1  0
  1 30  1  0
  1 31  1  0
  1 32  1  0
  4 33  1  0
  5 34  1  0
  7 35  1  0
  7 36  1  0
  8 37  1  0
  9 38  1  0
  9 39  1  0
 10 40  1  0
 10 41  1  0
 17 42  1  0
 17 43  1  0
 17 44  1  0
 21 45  1  0
 22 46  1  0
 23 47  1  0
 24 48  1  0
 25 49  1  0
 26 50  1  0
 26 51  1  0
 27 52  1  0
 27 53  1  0
 28 54  1  0
 29 55  1  0
M  CHG  1   8   1
M  END
>  <UniqueID>  (31) 
29

>  <SMILES>  (31) 
COc1ccc(C[NH+]2CCN(C(=O)c3nc(C)sc3-c3ccccc3)CC2)cc1

>  <Energy>  (31) 
102.148228758398

>  <Genealogy>  (31) 
COc1ccc(C[NH+]2CCN(C(=O)c3nc(C)sc3-c3ccccc3)CC2)cc1 (protonated)
COc1ccc(C[NH+]2CCN(C(=O)c3nc(C)sc3-c3ccccc3)CC2)cc1 (3D coordinates assigned)
COc1ccc(C[NH+]2CCN(C(=O)c3nc(C)sc3-c3ccccc3)CC2)cc1 (nonaromatic ring conformer: 102.148228758398 kcal/mol)

>  <smiles>  (31) 
COc1ccc(CN2CCN(C(=O)c3nc(C)sc3-c3ccccc3)CC2)cc1

>  <score_type>  (31) 
oracle

>  <origin>  (31) 
adg

>  <m_score__min__energy>  (31) 
-6.9699999999999998

>  <m_primary>  (31) 
energy

$$$$
31:0
     RDKit          3D

 94 95  0  0  0  0  0  0  0  0999 V2000
   64.3240   31.4370   51.2390 C   0  0  0  0  0  0  0  0  0  0  0  0
   65.3250   31.8320   50.1560 C   0  0  0  0  0  0  0  0  0  0  0  0
   64.8490   33.0540   49.3580 C   0  0  0  0  0  0  0  0  0  0  0  0
   63.4230   32.9620   49.0500 N   0  0  0  0  0  0  0  0  0  0  0  0
   62.9240   32.9710   47.7050 C   0  0  0  0  0  0  0  0  0  0  0  0
   63.7260   32.9810   46.7300 O   0  0  0  0  0  0  0  0  0  0  0  0
   61.4370   32.9260   47.4540 C   0  0  2  0  0  0  0  0  0  0  0  0
   61.0150   33.9630   46.3960 C   0  0  0  0  0  0  0  0  0  0  0  0
   59.6400   33.6940   45.8300 C   0  0  0  0  0  0  0  0  0  0  0  0
   59.1410   32.3820   45.7660 C   0  0  0  0  0  0  0  0  0  0  0  0
   57.8530   32.1430   45.2750 C   0  0  0  0  0  0  0  0  0  0  0  0
   57.0560   33.2060   44.8440 C   0  0  0  0  0  0  0  0  0  0  0  0
   57.5450   34.5130   44.9020 C   0  0  0  0  0  0  0  0  0  0  0  0
   58.8300   34.7590   45.3950 C   0  0  0  0  0  0  0  0  0  0  0  0
   60.6850   33.1390   48.6900 N   0  0  0  0  0  0  0  0  0  0  0  0
   59.3920   32.5800   48.9460 C   0  0  0  0  0  0  0  0  0  0  0  0
   58.3640   33.0800   48.4090 O   0  0  0  0  0  0  0  0  0  0  0  0
   59.2820   31.3290   49.7670 C   0  0  0  0  0  0  0  0  0  0  0  0
   60.5570   30.5190   49.7530 C   0  0  0  0  0  0  0  0  0  0  0  0
   61.6370   31.0920   49.7930 O   0  0  0  0  0  0  0  0  0  0  0  0
   60.5050   29.0170   49.6060 C   0  0  1  0  0  0  0  0  0  0  0  0
   60.4940   28.2750   50.9710 C   0  0  0  0  0  0  0  0  0  0  0  0
   61.5600   27.1750   51.2410 C   0  0  0  0  0  0  0  0  0  0  0  0
   60.9650   25.8180   51.6240 C   0  0  0  0  0  0  0  0  0  0  0  0
   62.6490   27.6040   52.2350 C   0  0  0  0  0  0  0  0  0  0  0  0
   59.3860   28.6290   48.7430 N   0  0  0  0  0  0  0  0  0  0  0  0
   59.4460   27.5560   47.7920 C   0  0  0  0  0  0  0  0  0  0  0  0
   60.1250   26.5230   48.0440 O   0  0  0  0  0  0  0  0  0  0  0  0
   58.7140   27.6730   46.4770 C   0  0  1  0  0  0  0  0  0  0  0  0
   57.2780   27.4960   46.7050 N   0  0  0  0  0  0  0  0  0  0  0  0
   56.4430   26.6410   45.9220 C   0  0  0  0  0  0  0  0  0  0  0  0
   55.1890   26.6890   46.0450 O   0  0  0  0  0  0  0  0  0  0  0  0
   57.0690   25.6620   44.9720 C   0  0  0  0  0  0  0  0  0  0  0  0
   57.6010   24.3750   45.6740 C   0  0  0  0  0  0  0  0  0  0  0  0
   59.1360   24.4930   45.8060 C   0  0  0  0  0  0  0  0  0  0  0  0
   57.0370   24.3060   47.1180 C   0  0  0  0  0  0  0  0  0  0  0  0
   57.2660   23.1250   44.8330 C   0  0  0  0  0  0  0  0  0  0  0  0
   56.8690   23.2770   43.4830 C   0  0  0  0  0  0  0  0  0  0  0  0
   56.5490   22.1690   42.6960 C   0  0  0  0  0  0  0  0  0  0  0  0
   56.6000   20.8850   43.2380 C   0  0  0  0  0  0  0  0  0  0  0  0
   56.9790   20.7080   44.5680 C   0  0  0  0  0  0  0  0  0  0  0  0
   57.3100   21.8130   45.3610 C   0  0  0  0  0  0  0  0  0  0  0  0
   58.9730   29.0200   45.7470 C   0  0  0  0  0  0  0  0  0  0  0  0
   60.4680   29.3500   45.6230 C   0  0  0  0  0  0  0  0  0  0  0  0
   58.2870   29.0670   44.3740 C   0  0  0  0  0  0  0  0  0  0  0  0
   64.7679   31.6122   52.2301 H   0  0  0  0  0  0  0  0  0  0  0  0
   63.4118   32.0426   51.1336 H   0  0  0  0  0  0  0  0  0  0  0  0
   64.0711   30.3717   51.1336 H   0  0  0  0  0  0  0  0  0  0  0  0
   66.2881   32.0701   50.6311 H   0  0  0  0  0  0  0  0  0  0  0  0
   65.4261   30.9869   49.4592 H   0  0  0  0  0  0  0  0  0  0  0  0
   65.0300   33.9625   49.9512 H   0  0  0  0  0  0  0  0  0  0  0  0
   65.4080   33.0909   48.4113 H   0  0  0  0  0  0  0  0  0  0  0  0
   62.7420   32.9580   49.8420 H   0  0  0  0  0  0  0  0  0  0  0  0
   61.2035   31.9221   47.0699 H   0  0  0  0  0  0  0  0  0  0  0  0
   61.0150   34.9599   46.8610 H   0  0  0  0  0  0  0  0  0  0  0  0
   61.7336   33.9008   45.5655 H   0  0  0  0  0  0  0  0  0  0  0  0
   59.7646   31.5408   46.1028 H   0  0  0  0  0  0  0  0  0  0  0  0
   57.4665   31.1142   45.2282 H   0  0  0  0  0  0  0  0  0  0  0  0
   56.0436   33.0139   44.4591 H   0  0  0  0  0  0  0  0  0  0  0  0
   56.9185   35.3497   44.5594 H   0  0  0  0  0  0  0  0  0  0  0  0
   59.2096   35.7903   45.4430 H   0  0  0  0  0  0  0  0  0  0  0  0
   59.0512   31.6071   50.8059 H   0  0  0  0  0  0  0  0  0  0  0  0
   58.4852   30.7092   49.3300 H   0  0  0  0  0  0  0  0  0  0  0  0
   61.4368   28.6977   49.1162 H   0  0  0  0  0  0  0  0  0  0  0  0
   60.6136   29.0386   51.7537 H   0  0  0  0  0  0  0  0  0  0  0  0
   59.5424   27.7233   50.9632 H   0  0  0  0  0  0  0  0  0  0  0  0
   62.0514   27.0405   50.2661 H   0  0  0  0  0  0  0  0  0  0  0  0
   60.9267   25.7306   52.7199 H   0  0  0  0  0  0  0  0  0  0  0  0
   59.9478   25.7347   51.2137 H   0  0  0  0  0  0  0  0  0  0  0  0
   61.5929   25.0134   51.2137 H   0  0  0  0  0  0  0  0  0  0  0  0
   62.2844   27.4604   53.2628 H   0  0  0  0  0  0  0  0  0  0  0  0
   63.5505   26.9938   52.0771 H   0  0  0  0  0  0  0  0  0  0  0  0
   62.8921   28.6651   52.0771 H   0  0  0  0  0  0  0  0  0  0  0  0
   59.1028   26.8824   45.8184 H   0  0  0  0  0  0  0  0  0  0  0  0
   56.3149   25.3672   44.2274 H   0  0  0  0  0  0  0  0  0  0  0  0
   57.9333   26.1625   44.5110 H   0  0  0  0  0  0  0  0  0  0  0  0
   59.4119   24.5142   46.8706 H   0  0  0  0  0  0  0  0  0  0  0  0
   59.6133   23.6289   45.3207 H   0  0  0  0  0  0  0  0  0  0  0  0
   59.4756   25.4199   45.3207 H   0  0  0  0  0  0  0  0  0  0  0  0
   57.8617   24.4069   47.8389 H   0  0  0  0  0  0  0  0  0  0  0  0
   56.3157   25.1226   47.2693 H   0  0  0  0  0  0  0  0  0  0  0  0
   56.5338   23.3396   47.2693 H   0  0  0  0  0  0  0  0  0  0  0  0
   56.8116   24.2850   43.0465 H   0  0  0  0  0  0  0  0  0  0  0  0
   56.2557   22.3093   41.6451 H   0  0  0  0  0  0  0  0  0  0  0  0
   56.3418   20.0140   42.6177 H   0  0  0  0  0  0  0  0  0  0  0  0
   57.0181   19.6955   44.9961 H   0  0  0  0  0  0  0  0  0  0  0  0
   57.6083   21.6593   46.4086 H   0  0  0  0  0  0  0  0  0  0  0  0
   58.5221   29.7986   46.3798 H   0  0  0  0  0  0  0  0  0  0  0  0
   60.9066   29.4468   46.6271 H   0  0  0  0  0  0  0  0  0  0  0  0
   60.9776   28.5427   45.0765 H   0  0  0  0  0  0  0  0  0  0  0  0
   60.5904   30.2968   45.0765 H   0  0  0  0  0  0  0  0  0  0  0  0
   57.1981   29.1416   44.5106 H   0  0  0  0  0  0  0  0  0  0  0  0
   58.6471   29.9426   43.8139 H   0  0  0  0  0  0  0  0  0  0  0  0
   58.5244   28.1505   43.8139 H   0  0  0  0  0  0  0  0  0  0  0  0
  1  2  1  0
  2  3  1  0
  3  4  1  0
  4  5  1  0
  5  6  2  0
  5  7  1  0
  7  8  1  0
  8  9  1  0
  9 10  2  0
 10 11  1  0
 11 12  2  0
 12 13  1  0
 13 14  2  0
  7 15  1  0
 15 16  1  0
 16 17  2  0
 16 18  1  0
 18 19  1  0
 19 20  2  0
 19 21  1  0
 21 22  1  0
 22 23  1  0
 23 24  1  0
 23 25  1  0
 21 26  1  0
 26 27  1  0
 27 28  2  0
 27 29  1  0
 29 30  1  0
 30 31  1  0
 31 32  2  0
 31 33  1  0
 33 34  1  0
 34 35  1  0
 34 36  1  0
 34 37  1  0
 37 38  2  0
 38 39  1  0
 39 40  2  0
 40 41  1  0
 41 42  2  0
 29 43  1  0
 43 44  1  0
 43 45  1  0
 14  9  1  0
 42 37  1  0
  1 46  1  0
  1 47  1  0
  1 48  1  0
  2 49  1  0
  2 50  1  0
  3 51  1  0
  3 52  1  0
  4 53  1  0
  7 54  1  6
  8 55  1  0
  8 56  1  0
 10 57  1  0
 11 58  1  0
 12 59  1  0
 13 60  1  0
 14 61  1  0
 18 62  1  0
 18 63  1  0
 21 64  1  6
 22 65  1  0
 22 66  1  0
 23 67  1  0
 24 68  1  0
 24 69  1  0
 24 70  1  0
 25 71  1  0
 25 72  1  0
 25 73  1  0
 29 74  1  6
 33 75  1  0
 33 76  1  0
 35 77  1  0
 35 78  1  0
 35 79  1  0
 36 80  1  0
 36 81  1  0
 36 82  1  0
 38 83  1  0
 39 84  1  0
 40 85  1  0
 41 86  1  0
 42 87  1  0
 43 88  1  0
 44 89  1  0
 44 90  1  0
 44 91  1  0
 45 92  1  0
 45 93  1  0
 45 94  1  0
M  CHG  3  15  -1  26  -1  30  -1
M  END
>  <UniqueID>  (32) 
30

>  <SMILES>  (32) 
CCCNC(=O)[C@H](Cc1ccccc1)[N-]C(=O)CC(=O)[C@@H](CC(C)C)[N-]C(=O)C([N-]C(=O)CC(C)(C)c1ccccc1)C(C)C

>  <Energy>  (32) 
72.66358832269842

>  <Genealogy>  (32) 
CCCNC(=O)C(Cc1ccccc1)[N-]C(=O)CC(=O)C(CC(C)C)[N-]C(=O)C([N-]C(=O)CC(C)(C)c1ccccc1)C(C)C (protonated)
CCCNC(=O)[C@H](Cc1ccccc1)[N-]C(=O)CC(=O)[C@@H](CC(C)C)[N-]C(=O)C([N-]C(=O)CC(C)(C)c1ccccc1)C(C)C (chirality)
CCCNC(=O)[C@H](Cc1ccccc1)[N-]C(=O)CC(=O)[C@@H](CC(C)C)[N-]C(=O)C([N-]C(=O)CC(C)(C)c1ccccc1)C(C)C (3D coordinates assigned)
CCCNC(=O)[C@H](Cc1ccccc1)[N-]C(=O)CC(=O)[C@@H](CC(C)C)[N-]C(=O)C([N-]C(=O)CC(C)(C)c1ccccc1)C(C)C (optimized conformer: 72.66358832269842 kcal/mol)

>  <smiles>  (32) 
CCCNC(=O)C(Cc1ccccc1)NC(=O)CC(=O)C(CC(C)C)NC(=O)C(NC(=O)CC(C)(C)c1ccccc1)C(C)C

>  <score_type>  (32) 
oracle

>  <origin>  (32) 
adg

>  <m_score__min__energy>  (32) 
-14.9

>  <m_primary>  (32) 
energy

$$$$
32:0
     RDKit          3D

 36 37  0  0  0  0  0  0  0  0999 V2000
   57.5084   29.5674   42.6829 H   0  0  0  0  0  0  0  0  0  0  0  0
   57.0690   30.1500   43.5060 C   0  0  0  0  0  0  0  0  0  0  0  0
   56.5260   29.3970   44.6630 C   0  0  0  0  0  0  0  0  0  0  0  0
   55.2800   29.3520   44.8580 O   0  0  0  0  0  0  0  0  0  0  0  0
   57.4220   28.6630   45.5860 C   0  0  0  0  0  0  0  0  0  0  0  0
   58.6910   29.1780   45.9030 C   0  0  0  0  0  0  0  0  0  0  0  0
   59.0134   30.1362   45.4696 H   0  0  0  0  0  0  0  0  0  0  0  0
   59.5460   28.4860   46.7620 C   0  0  0  0  0  0  0  0  0  0  0  0
   60.5347   28.9035   47.0031 H   0  0  0  0  0  0  0  0  0  0  0  0
   59.1510   27.2600   47.3200 C   0  0  0  0  0  0  0  0  0  0  0  0
   59.9750   26.5280   48.1870 O   0  0  0  0  0  0  0  0  0  0  0  0
   60.7060   27.0930   49.2710 C   0  0  0  0  0  0  0  0  0  0  0  0
   60.2697   26.7558   50.2228 H   0  0  0  0  0  0  0  0  0  0  0  0
   61.7557   26.7692   49.2137 H   0  0  0  0  0  0  0  0  0  0  0  0
   60.6572   28.1904   49.2137 H   0  0  0  0  0  0  0  0  0  0  0  0
   57.8920   26.7390   47.0050 C   0  0  0  0  0  0  0  0  0  0  0  0
   57.5797   25.7768   47.4371 H   0  0  0  0  0  0  0  0  0  0  0  0
   57.0170   27.4300   46.1410 C   0  0  0  0  0  0  0  0  0  0  0  0
   55.7420   26.9290   45.8300 O   0  0  0  0  0  0  0  0  0  0  0  0
   55.4370   25.5530   45.6330 C   0  0  0  0  0  0  0  0  0  0  0  0
   55.3273   25.0583   46.6093 H   0  0  0  0  0  0  0  0  0  0  0  0
   54.4971   25.4629   45.0687 H   0  0  0  0  0  0  0  0  0  0  0  0
   56.2508   25.0742   45.0687 H   0  0  0  0  0  0  0  0  0  0  0  0
   57.0660   31.4870   43.3850 C   0  0  0  0  0  0  0  0  0  0  0  0
   56.6008   31.9116   42.4832 H   0  0  0  0  0  0  0  0  0  0  0  0
   57.6370   32.4350   44.3650 C   0  0  0  0  0  0  0  0  0  0  0  0
   57.3970   32.2950   45.7440 C   0  0  0  0  0  0  0  0  0  0  0  0
   56.7432   31.4880   46.1065 H   0  0  0  0  0  0  0  0  0  0  0  0
   57.9850   33.1760   46.6560 C   0  0  0  0  0  0  0  0  0  0  0  0
   57.7802   33.0712   47.7317 H   0  0  0  0  0  0  0  0  0  0  0  0
   58.8330   34.1900   46.2020 C   0  0  0  0  0  0  0  0  0  0  0  0
   59.2888   34.8882   46.9195 H   0  0  0  0  0  0  0  0  0  0  0  0
   59.1020   34.3170   44.8360 C   0  0  0  0  0  0  0  0  0  0  0  0
   59.7766   35.1096   44.4800 H   0  0  0  0  0  0  0  0  0  0  0  0
   58.5140   33.4370   43.9220 C   0  0  0  0  0  0  0  0  0  0  0  0
   58.7402   33.5307   42.8496 H   0  0  0  0  0  0  0  0  0  0  0  0
  1  2  1  0
  2  3  1  0
  3  4  2  0
  3  5  1  0
  5  6  2  0
  6  7  1  0
  6  8  1  0
  8  9  1  0
  8 10  2  0
 10 11  1  0
 11 12  1  0
 12 13  1  0
 12 14  1  0
 12 15  1  0
 10 16  1  0
 16 17  1  0
 16 18  2  0
 18 19  1  0
 19 20  1  0
 20 21  1  0
 20 22  1  0
 20 23  1  0
  2 24  2  0
 24 25  1  0
 24 26  1  0
 26 27  2  0
 27 28  1  0
 27 29  1  0
 29 30  1  0
 29 31  2  0
 31 32  1  0
 31 33  1  0
 33 34  1  0
 33 35  2  0
 35 36  1  0
 18  5  1  0
 35 26  1  0
M  END
>  <UniqueID>  (33) 
31

>  <SMILES>  (33) 
COc1ccc(C(=O)/C=C\c2ccccc2)c(OC)c1

>  <Energy>  (33) 
47.973061476720666

>  <Genealogy>  (33) 
COc1ccc(C(=O)/C=C\c2ccccc2)c(OC)c1 (cis-trans isomerization)
COc1ccc(C(=O)/C=C\c2ccccc2)c(OC)c1 (3D coordinates assigned)
COc1ccc(C(=O)/C=C\c2ccccc2)c(OC)c1 (optimized conformer: 47.973061476720666 kcal/mol)

>  <smiles>  (33) 
COc1ccc(C(=O)C=Cc2ccccc2)c(OC)c1

>  <score_type>  (33) 
oracle

>  <origin>  (33) 
adg

>  <m_score__min__energy>  (33) 
-7.2199999999999998

>  <m_primary>  (33) 
energy

$$$$
33:0
     RDKit          3D

 41 43  0  0  0  0  0  0  0  0999 V2000
   59.3900   35.5780   49.4330 H   0  0  0  0  0  0  0  0  0  0  0  0
   59.6240   34.7020   48.9130 N   0  0  0  0  0  0  0  0  0  0  0  0
   59.5310   34.6490   47.6250 C   0  0  0  0  0  0  0  0  0  0  0  0
   59.8010   35.7150   46.8000 O   0  0  0  0  0  0  0  0  0  0  0  0
   59.6210   35.3240   45.4430 C   0  0  0  0  0  0  0  0  0  0  0  0
   60.5664   35.4136   44.8879 H   0  0  0  0  0  0  0  0  0  0  0  0
   58.8867   35.9606   44.9276 H   0  0  0  0  0  0  0  0  0  0  0  0
   59.1610   33.8380   45.4990 C   0  0  2  0  0  0  0  0  0  0  0  0
   59.8575   33.2058   44.9287 H   0  0  0  0  0  0  0  0  0  0  0  0
   57.8000   33.5730   44.8180 C   0  0  0  0  0  0  0  0  0  0  0  0
   57.0667   33.3484   45.6065 H   0  0  0  0  0  0  0  0  0  0  0  0
   57.5741   34.4817   44.2407 H   0  0  0  0  0  0  0  0  0  0  0  0
   57.7700   32.4120   43.7990 C   0  0  0  0  0  0  0  0  0  0  0  0
   56.9683   32.6062   43.0712 H   0  0  0  0  0  0  0  0  0  0  0  0
   58.7601   32.3703   43.3216 H   0  0  0  0  0  0  0  0  0  0  0  0
   57.5230   31.0680   44.4370 C   0  0  0  0  0  0  0  0  0  0  0  0
   56.4700   30.2530   43.9930 C   0  0  0  0  0  0  0  0  0  0  0  0
   55.8133   30.6022   43.1825 H   0  0  0  0  0  0  0  0  0  0  0  0
   56.2500   29.0000   44.5740 C   0  0  0  0  0  0  0  0  0  0  0  0
   55.4173   28.3723   44.2239 H   0  0  0  0  0  0  0  0  0  0  0  0
   57.0900   28.5390   45.6050 C   0  0  0  0  0  0  0  0  0  0  0  0
   56.8810   27.2720   46.2480 N   0  0  0  0  0  0  0  0  0  0  0  0
   56.6080   26.1380   45.6680 C   0  0  0  0  0  0  0  0  0  0  0  0
   55.4870   25.4340   45.9830 N   0  0  0  0  0  0  0  0  0  0  0  0
   55.1930   24.2640   45.3590 C   0  0  0  0  0  0  0  0  0  0  0  0
   54.2852   23.7080   45.6362 H   0  0  0  0  0  0  0  0  0  0  0  0
   56.0380   23.7650   44.3680 C   0  0  0  0  0  0  0  0  0  0  0  0
   55.7140   22.5550   43.7380 O   0  0  0  0  0  0  0  0  0  0  0  0
   56.6560   21.7170   43.0800 C   0  0  0  0  0  0  0  0  0  0  0  0
   57.2574   21.1820   43.8298 H   0  0  0  0  0  0  0  0  0  0  0  0
   56.1227   20.9894   42.4506 H   0  0  0  0  0  0  0  0  0  0  0  0
   57.3166   22.3315   42.4506 H   0  0  0  0  0  0  0  0  0  0  0  0
   57.1850   24.5100   44.0480 C   0  0  0  0  0  0  0  0  0  0  0  0
   57.8760   24.1506   43.2712 H   0  0  0  0  0  0  0  0  0  0  0  0
   57.4400   25.6750   44.6990 N   0  0  0  0  0  0  0  0  0  0  0  0
   58.1060   29.3760   46.0820 C   0  0  0  0  0  0  0  0  0  0  0  0
   58.7364   29.0451   46.9205 H   0  0  0  0  0  0  0  0  0  0  0  0
   58.3260   30.6280   45.5020 C   0  0  0  0  0  0  0  0  0  0  0  0
   59.1325   31.2726   45.8816 H   0  0  0  0  0  0  0  0  0  0  0  0
   59.1330   33.4970   46.9140 N   0  0  0  0  0  0  0  0  0  0  0  0
   58.9190   32.5600   47.3230 H   0  0  0  0  0  0  0  0  0  0  0  0
  1  2  1  0
  2  3  2  0
  3  4  1  0
  4  5  1  0
  5  6  1  0
  5  7  1  0
  5  8  1  0
  8  9  1  6
  8 10  1  0
 10 11  1  0
 10 12  1  0
 10 13  1  0
 13 14  1  0
 13 15  1  0
 13 16  1  0
 16 17  2  0
 17 18  1  0
 17 19  1  0
 19 20  1  0
 19 21  2  0
 21 22  1  0
 22 23  2  3
 23 24  1  0
 24 25  2  0
 25 26  1  0
 25 27  1  0
 27 28  1  0
 28 29  1  0
 29 30  1  0
 29 31  1  0
 29 32  1  0
 27 33  2  0
 33 34  1  0
 33 35  1  0
 21 36  1  0
 36 37  1  0
 36 38  2  0
 38 39  1  0
  8 40  1  0
 40 41  1  0
 40  3  1  0
 38 16  1  0
 35 23  1  0
M  CHG  1  35  -1
M  END
>  <UniqueID>  (34) 
32

>  <SMILES>  (34) 
[H]/N=C1\N[C@@H](CCc2ccc(N=c3ncc(OC)c[n-]3)cc2)CO1

>  <Energy>  (34) 
60.72820027436377

>  <Genealogy>  (34) 
COc1cnc(=Nc2ccc(CCC3COC(=N)N3)cc2)[n-]c1 (protonated)
COc1cnc(=Nc2ccc(CC[C@H]3COC(=N)N3)cc2)[n-]c1 (chirality)
[H]/N=C1\N[C@@H](CCc2ccc(N=c3ncc(OC)c[n-]3)cc2)CO1 (cis-trans isomerization)
[H]/N=C1\N[C@@H](CCc2ccc(N=c3ncc(OC)c[n-]3)cc2)CO1 (3D coordinates assigned)
[H]/N=C1\N[C@@H](CCc2ccc(N=c3ncc(OC)c[n-]3)cc2)CO1 (nonaromatic ring conformer: 60.72820027436377 kcal/mol)

>  <smiles>  (34) 
COc1cnc(=Nc2ccc(CCC3COC(=N)N3)cc2)[nH]c1

>  <score_type>  (34) 
oracle

>  <origin>  (34) 
adg

>  <m_score__min__energy>  (34) 
-8.5500000000000007

>  <m_primary>  (34) 
energy

$$$$
34:0
     RDKit          3D

 65 64  0  0  0  0  0  0  0  0999 V2000
   58.1270   32.1670   47.4110 N   0  0  0  0  0  0  0  0  0  0  0  0
   57.5510   33.4830   47.1550 C   0  0  0  0  0  0  0  0  0  0  0  0
   58.6410   34.4890   46.7690 C   0  0  0  0  0  0  0  0  0  0  0  0
   59.3560   34.0990   45.4660 C   0  0  0  0  0  0  0  0  0  0  0  0
   58.3900   33.5020   44.4320 C   0  0  0  0  0  0  0  0  0  0  0  0
   58.3890   32.0310   44.4770 N   0  0  0  0  0  0  0  0  0  0  0  0
   57.0490   31.4760   44.2400 C   0  0  0  0  0  0  0  0  0  0  0  0
   57.1490   30.1010   43.5620 C   0  0  0  0  0  0  0  0  0  0  0  0
   57.7840   29.0100   44.4490 C   0  0  0  0  0  0  0  0  0  0  0  0
   57.6640   29.2520   45.9710 C   0  0  0  0  0  0  0  0  0  0  0  0
   58.8700   29.8400   46.5770 N   0  0  0  0  0  0  0  0  0  0  0  0
   60.0240   28.9270   46.5650 C   0  0  0  0  0  0  0  0  0  0  0  0
   60.4220   28.5590   47.9990 C   0  0  0  0  0  0  0  0  0  0  0  0
   59.3650   28.9910   49.0330 C   0  0  0  0  0  0  0  0  0  0  0  0
   59.4460   30.4320   49.3260 N   0  0  0  0  0  0  0  0  0  0  0  0
   58.4840   30.8640   50.3510 C   0  0  0  0  0  0  0  0  0  0  0  0
   58.4790   32.3920   50.4340 C   0  0  0  0  0  0  0  0  0  0  0  0
   59.9000   32.9780   50.4710 C   0  0  0  0  0  0  0  0  0  0  0  0
   60.6480   32.6730   49.2410 N   0  0  0  0  0  0  0  0  0  0  0  0
   61.4010   33.8300   48.7260 C   0  0  0  0  0  0  0  0  0  0  0  0
   62.3670   33.3600   47.6340 C   0  0  0  0  0  0  0  0  0  0  0  0
   62.0330   31.9520   47.1310 C   0  0  0  0  0  0  0  0  0  0  0  0
   60.6010   31.8150   46.8800 N   0  0  0  0  0  0  0  0  0  0  0  0
   58.7700   31.9350   46.6190 H   0  0  0  0  0  0  0  0  0  0  0  0
   58.7310   32.2340   48.2620 H   0  0  0  0  0  0  0  0  0  0  0  0
   56.8248   33.4049   46.3325 H   0  0  0  0  0  0  0  0  0  0  0  0
   57.0552   33.8350   48.0717 H   0  0  0  0  0  0  0  0  0  0  0  0
   58.1790   35.4785   46.6370 H   0  0  0  0  0  0  0  0  0  0  0  0
   59.3900   34.5009   47.5745 H   0  0  0  0  0  0  0  0  0  0  0  0
   59.8246   34.9967   45.0364 H   0  0  0  0  0  0  0  0  0  0  0  0
   60.1074   33.3331   45.7086 H   0  0  0  0  0  0  0  0  0  0  0  0
   57.3734   33.8662   44.6414 H   0  0  0  0  0  0  0  0  0  0  0  0
   58.7213   33.8152   43.4309 H   0  0  0  0  0  0  0  0  0  0  0  0
   58.6850   31.7440   45.4400 H   0  0  0  0  0  0  0  0  0  0  0  0
   56.5264   31.3683   45.2019 H   0  0  0  0  0  0  0  0  0  0  0  0
   56.4925   32.1584   43.5807 H   0  0  0  0  0  0  0  0  0  0  0  0
   56.1347   29.7763   43.2867 H   0  0  0  0  0  0  0  0  0  0  0  0
   57.8057   30.2235   42.6881 H   0  0  0  0  0  0  0  0  0  0  0  0
   57.2938   28.0532   44.2162 H   0  0  0  0  0  0  0  0  0  0  0  0
   58.8601   29.0171   44.2211 H   0  0  0  0  0  0  0  0  0  0  0  0
   56.8194   29.9341   46.1480 H   0  0  0  0  0  0  0  0  0  0  0  0
   57.5170   28.2683   46.4408 H   0  0  0  0  0  0  0  0  0  0  0  0
   59.1180   30.7290   46.0860 H   0  0  0  0  0  0  0  0  0  0  0  0
   59.7579   28.0120   46.0155 H   0  0  0  0  0  0  0  0  0  0  0  0
   60.8721   29.4264   46.0738 H   0  0  0  0  0  0  0  0  0  0  0  0
   60.5509   27.4683   48.0606 H   0  0  0  0  0  0  0  0  0  0  0  0
   61.3563   29.0901   48.2337 H   0  0  0  0  0  0  0  0  0  0  0  0
   58.3646   28.7637   48.6362 H   0  0  0  0  0  0  0  0  0  0  0  0
   59.5536   28.4404   49.9664 H   0  0  0  0  0  0  0  0  0  0  0  0
   59.2960   30.9840   48.4480 H   0  0  0  0  0  0  0  0  0  0  0  0
   57.4782   30.5080   50.0832 H   0  0  0  0  0  0  0  0  0  0  0  0
   58.7738   30.4447   51.3258 H   0  0  0  0  0  0  0  0  0  0  0  0
   57.9538   32.7925   49.5544 H   0  0  0  0  0  0  0  0  0  0  0  0
   57.9725   32.6771   51.3679 H   0  0  0  0  0  0  0  0  0  0  0  0
   59.8322   34.0700   50.5852 H   0  0  0  0  0  0  0  0  0  0  0  0
   60.4352   32.5249   51.3185 H   0  0  0  0  0  0  0  0  0  0  0  0
   59.9540   32.3810   48.5140 H   0  0  0  0  0  0  0  0  0  0  0  0
   60.7006   34.5663   48.3050 H   0  0  0  0  0  0  0  0  0  0  0  0
   61.9691   34.2943   49.5456 H   0  0  0  0  0  0  0  0  0  0  0  0
   62.3124   34.0605   46.7876 H   0  0  0  0  0  0  0  0  0  0  0  0
   63.3778   33.3323   48.0671 H   0  0  0  0  0  0  0  0  0  0  0  0
   62.5822   31.7635   46.1967 H   0  0  0  0  0  0  0  0  0  0  0  0
   62.3261   31.2243   47.9021 H   0  0  0  0  0  0  0  0  0  0  0  0
   60.1450   32.7340   47.0870 H   0  0  0  0  0  0  0  0  0  0  0  0
   60.2240   31.1370   47.5810 H   0  0  0  0  0  0  0  0  0  0  0  0
  1  2  1  0
  2  3  1  0
  3  4  1  0
  4  5  1  0
  5  6  1  0
  6  7  1  0
  7  8  1  0
  8  9  1  0
  9 10  1  0
 10 11  1  0
 11 12  1  0
 12 13  1  0
 13 14  1  0
 14 15  1  0
 15 16  1  0
 16 17  1  0
 17 18  1  0
 18 19  1  0
 19 20  1  0
 20 21  1  0
 21 22  1  0
 22 23  1  0
  1 24  1  0
  1 25  1  0
  2 26  1  0
  2 27  1  0
  3 28  1  0
  3 29  1  0
  4 30  1  0
  4 31  1  0
  5 32  1  0
  5 33  1  0
  6 34  1  0
  7 35  1  0
  7 36  1  0
  8 37  1  0
  8 38  1  0
  9 39  1  0
  9 40  1  0
 10 41  1  0
 10 42  1  0
 11 43  1  0
 12 44  1  0
 12 45  1  0
 13 46  1  0
 13 47  1  0
 14 48  1  0
 14 49  1  0
 15 50  1  0
 16 51  1  0
 16 52  1  0
 17 53  1  0
 17 54  1  0
 18 55  1  0
 18 56  1  0
 19 57  1  0
 20 58  1  0
 20 59  1  0
 21 60  1  0
 21 61  1  0
 22 62  1  0
 22 63  1  0
 23 64  1  0
 23 65  1  0
M  END
>  <UniqueID>  (35) 
33

>  <SMILES>  (35) 
NCCCCNCCCCNCCCNCCCNCCCN

>  <Energy>  (35) 
39.212903403625354

>  <Genealogy>  (35) 
NCCCCNCCCCNCCCNCCCNCCCN (3D coordinates assigned)
NCCCCNCCCCNCCCNCCCNCCCN (optimized conformer: 39.212903403625354 kcal/mol)

>  <smiles>  (35) 
NCCCCNCCCCNCCCNCCCNCCCN

>  <score_type>  (35) 
oracle

>  <origin>  (35) 
adg

>  <m_score__min__energy>  (35) 
-1.0700000000000001

>  <m_primary>  (35) 
energy

$$$$
35:0
     RDKit          3D

 34 35  0  0  0  0  0  0  0  0999 V2000
   59.6370   35.3510   49.1800 H   0  0  0  0  0  0  0  0  0  0  0  0
   60.1440   34.5570   48.7330 N   0  0  0  0  0  0  0  0  0  0  0  0
   59.6190   33.8050   47.8140 C   0  0  0  0  0  0  0  0  0  0  0  0
   58.7100   34.3780   46.9280 O   0  0  0  0  0  0  0  0  0  0  0  0
   58.0360   33.6490   45.9420 C   0  0  0  0  0  0  0  0  0  0  0  0
   56.9290   34.3640   45.2170 C   0  0  0  0  0  0  0  0  0  0  0  0
   56.2392   34.8095   45.9489 H   0  0  0  0  0  0  0  0  0  0  0  0
   57.3564   35.1571   44.5859 H   0  0  0  0  0  0  0  0  0  0  0  0
   56.3818   33.6482   44.5859 H   0  0  0  0  0  0  0  0  0  0  0  0
   58.3890   32.3710   45.6600 C   0  0  0  0  0  0  0  0  0  0  0  0
   57.7280   31.6260   44.5560 C   0  0  0  0  0  0  0  0  0  0  0  0
   58.1730   31.7260   43.3800 O   0  0  0  0  0  0  0  0  0  0  0  0
   56.6360   30.7950   44.8260 O   0  0  0  0  0  0  0  0  0  0  0  0
   56.2350   29.7440   43.9530 C   0  0  0  0  0  0  0  0  0  0  0  0
   55.3814   29.2074   44.3928 H   0  0  0  0  0  0  0  0  0  0  0  0
   55.9406   30.1665   42.9810 H   0  0  0  0  0  0  0  0  0  0  0  0
   57.3930   28.7800   43.7570 C   0  0  0  0  0  0  0  0  0  0  0  0
   57.7753   28.4618   44.7381 H   0  0  0  0  0  0  0  0  0  0  0  0
   57.0464   27.8999   43.1955 H   0  0  0  0  0  0  0  0  0  0  0  0
   58.1957   29.2804   43.1955 H   0  0  0  0  0  0  0  0  0  0  0  0
   59.6330   31.7780   46.3190 C   0  0  2  0  0  0  0  0  0  0  0  0
   60.4761   32.0956   45.6878 H   0  0  0  0  0  0  0  0  0  0  0  0
   59.5750   30.2660   46.3610 C   0  0  0  0  0  0  0  0  0  0  0  0
   58.5810   29.3410   47.3600 S   0  0  0  0  0  0  0  0  0  0  0  0
   59.1350   27.8430   46.8350 C   0  0  0  0  0  0  0  0  0  0  0  0
   58.7828   26.8644   47.1933 H   0  0  0  0  0  0  0  0  0  0  0  0
   60.1130   28.0520   45.8720 C   0  0  0  0  0  0  0  0  0  0  0  0
   60.6421   27.2319   45.3645 H   0  0  0  0  0  0  0  0  0  0  0  0
   60.3630   29.4040   45.6070 C   0  0  0  0  0  0  0  0  0  0  0  0
   61.1083   29.7494   44.8754 H   0  0  0  0  0  0  0  0  0  0  0  0
   59.8780   32.3190   47.7510 C   0  0  1  0  0  0  0  0  0  0  0  0
   59.1746   31.8376   48.4463 H   0  0  0  0  0  0  0  0  0  0  0  0
   61.2540   31.9890   48.1750 C   0  0  0  0  0  0  0  0  0  0  0  0
   62.3330   31.7320   48.5080 N   0  0  0  0  0  0  0  0  0  0  0  0
  1  2  1  0
  2  3  2  0
  3  4  1  0
  4  5  1  0
  5  6  1  0
  6  7  1  0
  6  8  1  0
  6  9  1  0
  5 10  2  0
 10 11  1  0
 11 12  2  0
 11 13  1  0
 13 14  1  0
 14 15  1  0
 14 16  1  0
 14 17  1  0
 17 18  1  0
 17 19  1  0
 17 20  1  0
 10 21  1  0
 21 22  1  6
 21 23  1  0
 23 24  1  0
 24 25  1  0
 25 26  1  0
 25 27  2  0
 27 28  1  0
 27 29  1  0
 29 30  1  0
 21 31  1  0
 31 32  1  1
 31 33  1  0
 33 34  3  0
 31  3  1  0
 29 23  2  0
M  END
>  <UniqueID>  (36) 
34

>  <SMILES>  (36) 
[H]/N=C1/OC(C)=C(C(=O)OCC)[C@H](c2cccs2)[C@H]1C#N

>  <Energy>  (36) 
61.16953973351352

>  <Genealogy>  (36) 
CCOC(=O)C1=C(C)OC(=N)[C@H](C#N)[C@H]1c1cccs1 (chirality)
[H]/N=C1/OC(C)=C(C(=O)OCC)[C@H](c2cccs2)[C@H]1C#N (cis-trans isomerization)
[H]/N=C1/OC(C)=C(C(=O)OCC)[C@H](c2cccs2)[C@H]1C#N (3D coordinates assigned)
[H]/N=C1/OC(C)=C(C(=O)OCC)[C@H](c2cccs2)[C@H]1C#N (nonaromatic ring conformer: 61.16953973351352 kcal/mol)

>  <smiles>  (36) 
CCOC(=O)C1=C(C)OC(=N)C(C#N)C1c1cccs1

>  <score_type>  (36) 
oracle

>  <origin>  (36) 
adg

>  <m_score__min__energy>  (36) 
-6.04

>  <m_primary>  (36) 
energy

$$$$
36:0
     RDKit          3D

 35 36  0  0  0  0  0  0  0  0999 V2000
   57.5510   33.2120   46.7280 C   0  0  0  0  0  0  0  0  0  0  0  0
   57.9360   33.7990   45.3770 C   0  0  0  0  0  0  0  0  0  0  0  0
   59.7190   34.2110   45.3450 S   0  0  0  0  0  0  0  0  0  0  0  0
   60.0350   34.0240   47.1370 C   0  0  0  0  0  0  0  0  0  0  0  0
   61.3300   33.2960   47.3820 C   0  0  0  0  0  0  0  0  0  0  0  0
   62.5480   33.9870   47.5110 C   0  0  0  0  0  0  0  0  0  0  0  0
   63.6590   33.1600   47.5950 C   0  0  0  0  0  0  0  0  0  0  0  0
   63.1370   31.5680   47.5050 S   0  0  0  0  0  0  0  0  0  0  0  0
   61.4950   31.9050   47.3800 C   0  0  0  0  0  0  0  0  0  0  0  0
   60.4590   30.8680   47.2640 C   0  0  0  0  0  0  0  0  0  0  0  0
   59.6490   30.7040   48.2160 O   0  0  0  0  0  0  0  0  0  0  0  0
   60.3280   30.0930   46.0640 N   0  0  0  0  0  0  0  0  0  0  0  0
   59.3910   28.9790   45.9500 C   0  0  0  0  0  0  0  0  0  0  0  0
   58.1540   29.4100   45.2120 C   0  0  0  0  0  0  0  0  0  0  0  0
   58.2340   30.3790   44.2010 C   0  0  0  0  0  0  0  0  0  0  0  0
   57.0790   30.7870   43.5320 C   0  0  0  0  0  0  0  0  0  0  0  0
   55.8510   30.2250   43.8830 C   0  0  0  0  0  0  0  0  0  0  0  0
   55.7860   29.2910   44.8690 N   0  0  0  0  0  0  0  0  0  0  0  0
   56.8970   28.8760   45.5350 C   0  0  0  0  0  0  0  0  0  0  0  0
   57.9630   33.8402   47.5315 H   0  0  0  0  0  0  0  0  0  0  0  0
   56.4549   33.1785   46.8143 H   0  0  0  0  0  0  0  0  0  0  0  0
   57.9569   32.1933   46.8143 H   0  0  0  0  0  0  0  0  0  0  0  0
   57.7196   33.0641   44.5876 H   0  0  0  0  0  0  0  0  0  0  0  0
   57.3545   34.7174   45.2082 H   0  0  0  0  0  0  0  0  0  0  0  0
   60.0895   35.0208   47.5989 H   0  0  0  0  0  0  0  0  0  0  0  0
   59.2146   33.4395   47.5790 H   0  0  0  0  0  0  0  0  0  0  0  0
   62.6140   35.0846   47.5425 H   0  0  0  0  0  0  0  0  0  0  0  0
   64.7025   33.4912   47.7022 H   0  0  0  0  0  0  0  0  0  0  0  0
   60.8860   30.3590   45.2220 H   0  0  0  0  0  0  0  0  0  0  0  0
   59.8718   28.1553   45.4020 H   0  0  0  0  0  0  0  0  0  0  0  0
   59.1073   28.6458   46.9592 H   0  0  0  0  0  0  0  0  0  0  0  0
   59.2072   30.8175   43.9353 H   0  0  0  0  0  0  0  0  0  0  0  0
   57.1362   31.5440   42.7360 H   0  0  0  0  0  0  0  0  0  0  0  0
   54.9345   30.5379   43.3614 H   0  0  0  0  0  0  0  0  0  0  0  0
   56.8100   28.1197   46.3290 H   0  0  0  0  0  0  0  0  0  0  0  0
  1  2  1  0
  2  3  1  0
  3  4  1  0
  4  5  1  0
  5  6  1  0
  6  7  2  0
  7  8  1  0
  8  9  1  0
  9 10  1  0
 10 11  2  0
 10 12  1  0
 12 13  1  0
 13 14  1  0
 14 15  2  0
 15 16  1  0
 16 17  2  0
 17 18  1  0
 18 19  2  0
  9  5  2  0
 19 14  1  0
  1 20  1  0
  1 21  1  0
  1 22  1  0
  2 23  1  0
  2 24  1  0
  4 25  1  0
  4 26  1  0
  6 27  1  0
  7 28  1  0
 12 29  1  0
 13 30  1  0
 13 31  1  0
 15 32  1  0
 16 33  1  0
 17 34  1  0
 19 35  1  0
M  END
>  <UniqueID>  (37) 
35

>  <SMILES>  (37) 
CCSCc1ccsc1C(=O)NCc1cccnc1

>  <Energy>  (37) 
57.00951541576376

>  <Genealogy>  (37) 
CCSCc1ccsc1C(=O)NCc1cccnc1 (3D coordinates assigned)
CCSCc1ccsc1C(=O)NCc1cccnc1 (optimized conformer: 57.00951541576376 kcal/mol)

>  <smiles>  (37) 
CCSCc1ccsc1C(=O)NCc1cccnc1

>  <score_type>  (37) 
oracle

>  <origin>  (37) 
adg

>  <m_score__min__energy>  (37) 
-6.8099999999999996

>  <m_primary>  (37) 
energy

$$$$
37:0
     RDKit          3D

 44 45  0  0  0  0  0  0  0  0999 V2000
   56.6060   29.8140   42.5970 C   0  0  0  0  0  0  0  0  0  0  0  0
   57.2770   30.9000   43.3960 C   0  0  0  0  0  0  0  0  0  0  0  0
   57.7190   32.0580   42.7360 C   0  0  0  0  0  0  0  0  0  0  0  0
   58.3430   33.0870   43.4430 C   0  0  0  0  0  0  0  0  0  0  0  0
   58.5320   32.9860   44.8280 C   0  0  0  0  0  0  0  0  0  0  0  0
   59.1940   34.0880   45.5670 C   0  0  0  0  0  0  0  0  0  0  0  0
   58.9030   35.2800   45.2730 O   0  0  0  0  0  0  0  0  0  0  0  0
   60.1880   33.8390   46.6400 C   0  0  0  0  0  0  0  0  0  0  0  0
   59.7850   33.6620   47.9720 C   0  0  0  0  0  0  0  0  0  0  0  0
   60.7300   33.4400   48.9760 C   0  0  0  0  0  0  0  0  0  0  0  0
   62.1120   33.3990   48.6850 C   0  0  0  0  0  0  0  0  0  0  0  0
   63.1220   33.1490   49.8240 C   0  0  0  0  0  0  0  0  0  0  0  0
   62.7760   31.8260   50.5390 C   0  0  0  0  0  0  0  0  0  0  0  0
   64.5480   33.0580   49.2370 C   0  0  0  0  0  0  0  0  0  0  0  0
   63.1250   34.2720   50.8900 C   0  0  0  0  0  0  0  0  0  0  0  0
   62.5050   33.5980   47.3410 C   0  0  0  0  0  0  0  0  0  0  0  0
   61.5570   33.8190   46.3390 C   0  0  0  0  0  0  0  0  0  0  0  0
   58.1210   31.8170   45.4890 C   0  0  0  0  0  0  0  0  0  0  0  0
   57.5050   30.7660   44.7880 C   0  0  0  0  0  0  0  0  0  0  0  0
   57.0530   29.5480   45.5570 C   0  0  0  0  0  0  0  0  0  0  0  0
   55.6710   29.2260   45.2140 N   0  0  0  0  0  0  0  0  0  0  0  0
   56.1534   29.0815   43.2816 H   0  0  0  0  0  0  0  0  0  0  0  0
   55.8232   30.2557   41.9629 H   0  0  0  0  0  0  0  0  0  0  0  0
   57.3513   29.3115   41.9629 H   0  0  0  0  0  0  0  0  0  0  0  0
   57.5719   32.1552   41.6502 H   0  0  0  0  0  0  0  0  0  0  0  0
   58.6891   33.9842   42.9090 H   0  0  0  0  0  0  0  0  0  0  0  0
   58.7158   33.6984   48.2278 H   0  0  0  0  0  0  0  0  0  0  0  0
   60.3921   33.2944   50.0126 H   0  0  0  0  0  0  0  0  0  0  0  0
   62.8154   31.9765   51.6279 H   0  0  0  0  0  0  0  0  0  0  0  0
   61.7641   31.5064   50.2494 H   0  0  0  0  0  0  0  0  0  0  0  0
   63.5019   31.0519   50.2494 H   0  0  0  0  0  0  0  0  0  0  0  0
   65.2798   33.0113   50.0570 H   0  0  0  0  0  0  0  0  0  0  0  0
   64.6326   32.1526   48.6180 H   0  0  0  0  0  0  0  0  0  0  0  0
   64.7470   33.9453   48.6180 H   0  0  0  0  0  0  0  0  0  0  0  0
   63.1238   33.8239   51.8946 H   0  0  0  0  0  0  0  0  0  0  0  0
   64.0248   34.8925   50.7663 H   0  0  0  0  0  0  0  0  0  0  0  0
   62.2285   34.8973   50.7663 H   0  0  0  0  0  0  0  0  0  0  0  0
   63.5736   33.5785   47.0807 H   0  0  0  0  0  0  0  0  0  0  0  0
   61.8884   33.9791   45.3024 H   0  0  0  0  0  0  0  0  0  0  0  0
   58.2838   31.7224   46.5728 H   0  0  0  0  0  0  0  0  0  0  0  0
   57.6998   28.6955   45.3022 H   0  0  0  0  0  0  0  0  0  0  0  0
   57.1185   29.7565   46.6351 H   0  0  0  0  0  0  0  0  0  0  0  0
   55.2090   30.1080   44.8940 H   0  0  0  0  0  0  0  0  0  0  0  0
   55.6820   28.5800   44.3920 H   0  0  0  0  0  0  0  0  0  0  0  0
  1  2  1  0
  2  3  2  0
  3  4  1  0
  4  5  2  0
  5  6  1  0
  6  7  2  0
  6  8  1  0
  8  9  2  0
  9 10  1  0
 10 11  2  0
 11 12  1  0
 12 13  1  0
 12 14  1  0
 12 15  1  0
 11 16  1  0
 16 17  2  0
  5 18  1  0
 18 19  2  0
 19 20  1  0
 20 21  1  0
 19  2  1  0
 17  8  1  0
  1 22  1  0
  1 23  1  0
  1 24  1  0
  3 25  1  0
  4 26  1  0
  9 27  1  0
 10 28  1  0
 13 29  1  0
 13 30  1  0
 13 31  1  0
 14 32  1  0
 14 33  1  0
 14 34  1  0
 15 35  1  0
 15 36  1  0
 15 37  1  0
 16 38  1  0
 17 39  1  0
 18 40  1  0
 20 41  1  0
 20 42  1  0
 21 43  1  0
 21 44  1  0
M  END
>  <UniqueID>  (38) 
36

>  <SMILES>  (38) 
Cc1ccc(C(=O)c2ccc(C(C)(C)C)cc2)cc1CN

>  <Energy>  (38) 
50.20716842886344

>  <Genealogy>  (38) 
Cc1ccc(C(=O)c2ccc(C(C)(C)C)cc2)cc1CN (3D coordinates assigned)
Cc1ccc(C(=O)c2ccc(C(C)(C)C)cc2)cc1CN (optimized conformer: 50.20716842886344 kcal/mol)

>  <smiles>  (38) 
Cc1ccc(C(=O)c2ccc(C(C)(C)C)cc2)cc1CN

>  <score_type>  (38) 
oracle

>  <origin>  (38) 
adg

>  <m_score__min__energy>  (38) 
-8.5600000000000005

>  <m_primary>  (38) 
energy

$$$$
38:0
     RDKit          3D

 45 47  0  0  0  0  0  0  0  0999 V2000
   57.2270   34.2420   45.1710 C   0  0  0  0  0  0  0  0  0  0  0  0
   58.5310   33.4840   44.9430 C   0  0  0  0  0  0  0  0  0  0  0  0
   58.5600   32.2510   45.7420 N   0  0  0  0  0  0  0  0  0  0  0  0
   59.3050   32.2400   47.0100 C   0  0  0  0  0  0  0  0  0  0  0  0
   59.8470   33.6290   47.3330 C   0  0  0  0  0  0  0  0  0  0  0  0
   57.7580   31.1210   45.3320 C   0  0  0  0  0  0  0  0  0  0  0  0
   56.6510   31.3120   44.5480 N   0  0  0  0  0  0  0  0  0  0  0  0
   55.8810   30.2650   44.1140 C   0  0  0  0  0  0  0  0  0  0  0  0
   56.2070   28.9810   44.4470 N   0  0  0  0  0  0  0  0  0  0  0  0
   57.2980   28.7850   45.2240 C   0  0  0  0  0  0  0  0  0  0  0  0
   58.0780   29.8020   45.6650 C   0  0  0  0  0  0  0  0  0  0  0  0
   59.1400   29.3150   46.3350 N   0  0  0  0  0  0  0  0  0  0  0  0
   58.9470   27.9700   46.2830 C   0  0  0  0  0  0  0  0  0  0  0  0
   57.8200   27.6160   45.6150 N   0  0  0  0  0  0  0  0  0  0  0  0
   57.3790   26.2690   45.2650 C   0  0  0  0  0  0  0  0  0  0  0  0
   56.1350   25.9300   46.0210 C   0  0  0  0  0  0  0  0  0  0  0  0
   55.1420   26.7060   45.9820 O   0  0  0  0  0  0  0  0  0  0  0  0
   56.0710   24.7060   46.7560 N   0  0  0  0  0  0  0  0  0  0  0  0
   57.1240   23.7010   46.7100 C   0  0  0  0  0  0  0  0  0  0  0  0
   57.0760   22.9930   45.3880 C   0  0  0  0  0  0  0  0  0  0  0  0
   58.1680   22.2300   44.9500 C   0  0  0  0  0  0  0  0  0  0  0  0
   58.0970   21.5450   43.7350 C   0  0  0  0  0  0  0  0  0  0  0  0
   56.9290   21.6190   42.9750 C   0  0  0  0  0  0  0  0  0  0  0  0
   55.8720   22.3490   43.4200 N   0  0  0  0  0  0  0  0  0  0  0  0
   55.9160   23.0270   44.5990 C   0  0  0  0  0  0  0  0  0  0  0  0
   57.0476   34.3463   46.2512 H   0  0  0  0  0  0  0  0  0  0  0  0
   57.2979   35.2396   44.7131 H   0  0  0  0  0  0  0  0  0  0  0  0
   56.3952   33.6867   44.7131 H   0  0  0  0  0  0  0  0  0  0  0  0
   58.6174   33.2260   43.8772 H   0  0  0  0  0  0  0  0  0  0  0  0
   59.3713   34.1244   45.2493 H   0  0  0  0  0  0  0  0  0  0  0  0
   58.6338   31.9177   47.8197 H   0  0  0  0  0  0  0  0  0  0  0  0
   60.1521   31.5448   46.9148 H   0  0  0  0  0  0  0  0  0  0  0  0
   59.8974   33.7583   48.4242 H   0  0  0  0  0  0  0  0  0  0  0  0
   60.8539   33.7386   46.9038 H   0  0  0  0  0  0  0  0  0  0  0  0
   59.1805   34.3916   46.9038 H   0  0  0  0  0  0  0  0  0  0  0  0
   54.9941   30.4598   43.4931 H   0  0  0  0  0  0  0  0  0  0  0  0
   59.6354   27.2419   46.7369 H   0  0  0  0  0  0  0  0  0  0  0  0
   57.1745   26.2209   44.1853 H   0  0  0  0  0  0  0  0  0  0  0  0
   58.1692   25.5495   45.5254 H   0  0  0  0  0  0  0  0  0  0  0  0
   58.1027   24.1884   46.8305 H   0  0  0  0  0  0  0  0  0  0  0  0
   56.9760   22.9746   47.5227 H   0  0  0  0  0  0  0  0  0  0  0  0
   59.0796   22.1711   45.5628 H   0  0  0  0  0  0  0  0  0  0  0  0
   58.9536   20.9528   43.3805 H   0  0  0  0  0  0  0  0  0  0  0  0
   56.8635   21.0861   42.0149 H   0  0  0  0  0  0  0  0  0  0  0  0
   55.0407   23.6028   44.9342 H   0  0  0  0  0  0  0  0  0  0  0  0
  1  2  1  0
  2  3  1  0
  3  4  1  0
  4  5  1  0
  3  6  1  0
  6  7  2  0
  7  8  1  0
  8  9  2  0
  9 10  1  0
 10 11  2  0
 11 12  1  0
 12 13  2  0
 13 14  1  0
 14 15  1  0
 15 16  1  0
 16 17  2  0
 16 18  1  0
 18 19  1  0
 19 20  1  0
 20 21  2  0
 21 22  1  0
 22 23  2  0
 23 24  1  0
 24 25  2  0
 11  6  1  0
 25 20  1  0
 14 10  1  0
  1 26  1  0
  1 27  1  0
  1 28  1  0
  2 29  1  0
  2 30  1  0
  4 31  1  0
  4 32  1  0
  5 33  1  0
  5 34  1  0
  5 35  1  0
  8 36  1  0
 13 37  1  0
 15 38  1  0
 15 39  1  0
 19 40  1  0
 19 41  1  0
 21 42  1  0
 22 43  1  0
 23 44  1  0
 25 45  1  0
M  CHG  1  18  -1
M  END
>  <UniqueID>  (39) 
37

>  <SMILES>  (39) 
CCN(CC)c1ncnc2c1ncn2CC(=O)[N-]Cc1cccnc1

>  <Energy>  (39) 
79.73588394757684

>  <Genealogy>  (39) 
CCN(CC)c1ncnc2c1ncn2CC(=O)[N-]Cc1cccnc1 (protonated)
CCN(CC)c1ncnc2c1ncn2CC(=O)[N-]Cc1cccnc1 (3D coordinates assigned)
CCN(CC)c1ncnc2c1ncn2CC(=O)[N-]Cc1cccnc1 (optimized conformer: 79.73588394757684 kcal/mol)

>  <smiles>  (39) 
CCN(CC)c1ncnc2c1ncn2CC(=O)NCc1cccnc1

>  <score_type>  (39) 
oracle

>  <origin>  (39) 
adg

>  <m_score__min__energy>  (39) 
-9.5800000000000001

>  <m_primary>  (39) 
energy

$$$$
39:0
     RDKit          3D

 34 36  0  0  0  0  0  0  0  0999 V2000
   58.9240   29.4300   47.6160 C   0  0  0  0  0  0  0  0  0  0  0  0
   58.3560   29.3590   46.4020 C   0  0  0  0  0  0  0  0  0  0  0  0
   57.8750   28.2060   45.7750 C   0  0  0  0  0  0  0  0  0  0  0  0
   57.8270   26.9600   46.2850 C   0  0  0  0  0  0  0  0  0  0  0  0
   57.0270   25.8670   45.7050 C   0  0  0  0  0  0  0  0  0  0  0  0
   57.6740   24.5860   44.8190 S   0  0  0  0  0  0  0  0  0  0  0  0
   56.1620   23.9430   44.4670 C   0  0  0  0  0  0  0  0  0  0  0  0
   55.9710   22.8990   43.7920 O   0  0  0  0  0  0  0  0  0  0  0  0
   55.1620   24.6860   44.9850 N   0  0  0  0  0  0  0  0  0  0  0  0
   55.6340   25.7670   45.6570 C   0  0  0  0  0  0  0  0  0  0  0  0
   54.7780   26.7140   46.2100 O   0  0  0  0  0  0  0  0  0  0  0  0
   57.4020   28.6060   44.5320 C   0  0  0  0  0  0  0  0  0  0  0  0
   57.6090   29.9690   44.4500 C   0  0  0  0  0  0  0  0  0  0  0  0
   57.2400   30.8180   43.2710 C   0  0  0  0  0  0  0  0  0  0  0  0
   58.1980   30.4240   45.5770 N   0  0  0  0  0  0  0  0  0  0  0  0
   58.5490   31.7930   45.8470 C   0  0  0  0  0  0  0  0  0  0  0  0
   59.8390   32.1100   46.2990 C   0  0  0  0  0  0  0  0  0  0  0  0
   60.1820   33.4380   46.5720 C   0  0  0  0  0  0  0  0  0  0  0  0
   59.2380   34.4540   46.3950 C   0  0  0  0  0  0  0  0  0  0  0  0
   57.9530   34.1450   45.9420 C   0  0  0  0  0  0  0  0  0  0  0  0
   57.6050   32.8170   45.6680 C   0  0  0  0  0  0  0  0  0  0  0  0
   56.3600   32.5310   45.2120 F   0  0  0  0  0  0  0  0  0  0  0  0
   59.2662   30.3994   48.0073 H   0  0  0  0  0  0  0  0  0  0  0  0
   59.0473   28.5187   48.2197 H   0  0  0  0  0  0  0  0  0  0  0  0
   58.4195   26.7462   47.1868 H   0  0  0  0  0  0  0  0  0  0  0  0
   54.1470   24.4700   44.8620 H   0  0  0  0  0  0  0  0  0  0  0  0
   56.9504   27.9625   43.7626 H   0  0  0  0  0  0  0  0  0  0  0  0
   56.8246   31.7738   43.6231 H   0  0  0  0  0  0  0  0  0  0  0  0
   58.1360   31.0096   42.6624 H   0  0  0  0  0  0  0  0  0  0  0  0
   56.4886   30.2936   42.6624 H   0  0  0  0  0  0  0  0  0  0  0  0
   60.5826   31.3116   46.4390 H   0  0  0  0  0  0  0  0  0  0  0  0
   61.1943   33.6831   46.9259 H   0  0  0  0  0  0  0  0  0  0  0  0
   59.5074   35.4980   46.6127 H   0  0  0  0  0  0  0  0  0  0  0  0
   57.2133   34.9467   45.8004 H   0  0  0  0  0  0  0  0  0  0  0  0
  1  2  2  0
  2  3  1  0
  3  4  2  3
  4  5  1  0
  5  6  1  0
  6  7  1  0
  7  8  2  0
  7  9  1  0
  9 10  1  0
 10 11  1  0
  3 12  1  0
 12 13  2  0
 13 14  1  0
 13 15  1  0
 15 16  1  0
 16 17  2  0
 17 18  1  0
 18 19  2  0
 19 20  1  0
 20 21  2  0
 21 22  1  0
 15  2  1  0
 21 16  1  0
 10  5  2  0
  1 23  1  0
  1 24  1  0
  4 25  1  0
  9 26  1  0
 12 27  1  0
 14 28  1  0
 14 29  1  0
 14 30  1  0
 17 31  1  0
 18 32  1  0
 19 33  1  0
 20 34  1  0
M  CHG  1  11  -1
M  END
>  <UniqueID>  (40) 
38

>  <SMILES>  (40) 
C=c1c(=Cc2sc(=O)[nH]c2[O-])cc(C)n1-c1ccccc1F

>  <Energy>  (40) 
109.3215000603187

>  <Genealogy>  (40) 
C=c1c(=Cc2sc(=O)[nH]c2[O-])cc(C)n1-c1ccccc1F (protonated)
C=c1c(=Cc2sc(=O)[nH]c2[O-])cc(C)n1-c1ccccc1F (3D coordinates assigned)
C=c1c(=Cc2sc(=O)[nH]c2[O-])cc(C)n1-c1ccccc1F (optimized conformer: 109.3215000603187 kcal/mol)

>  <smiles>  (40) 
C=c1c(=Cc2sc(=O)[nH]c2O)cc(C)n1-c1ccccc1F

>  <score_type>  (40) 
oracle

>  <origin>  (40) 
adg

>  <m_score__min__energy>  (40) 
-11.630000000000001

>  <m_primary>  (40) 
energy

$$$$
40:0
     RDKit          3D

 44 47  0  0  0  0  0  0  0  0999 V2000
   56.2700   20.2480   43.8900 C   0  0  0  0  0  0  0  0  0  0  0  0
   55.9490   21.5880   43.5300 O   0  0  0  0  0  0  0  0  0  0  0  0
   56.6510   22.7170   43.9770 C   0  0  0  0  0  0  0  0  0  0  0  0
   57.3560   22.6290   45.1810 C   0  0  0  0  0  0  0  0  0  0  0  0
   58.0700   23.7260   45.6710 C   0  0  0  0  0  0  0  0  0  0  0  0
   58.0830   24.9410   44.9630 C   0  0  0  0  0  0  0  0  0  0  0  0
   58.8190   26.0800   45.4470 N   0  0  0  0  0  0  0  0  0  0  0  0
   60.0340   26.0010   45.9850 N   0  0  0  0  0  0  0  0  0  0  0  0
   60.4450   27.2530   46.3100 C   0  0  0  0  0  0  0  0  0  0  0  0
   59.4510   28.1360   45.9490 C   0  0  0  0  0  0  0  0  0  0  0  0
   59.3300   29.5160   45.9920 C   0  0  0  0  0  0  0  0  0  0  0  0
   60.2530   30.2240   46.4800 O   0  0  0  0  0  0  0  0  0  0  0  0
   58.1840   30.0830   45.4830 N   0  0  0  0  0  0  0  0  0  0  0  0
   58.0310   31.5150   45.5210 C   0  0  0  0  0  0  0  0  0  0  0  0
   57.8970   32.1600   46.7600 C   0  0  0  0  0  0  0  0  0  0  0  0
   57.7390   33.5460   46.8190 C   0  0  0  0  0  0  0  0  0  0  0  0
   57.7080   34.2970   45.6430 C   0  0  0  0  0  0  0  0  0  0  0  0
   57.8370   33.6660   44.4030 C   0  0  0  0  0  0  0  0  0  0  0  0
   58.0080   32.2730   44.3300 C   0  0  0  0  0  0  0  0  0  0  0  0
   58.1280   31.6020   42.9890 C   0  0  0  0  0  0  0  0  0  0  0  0
   57.1950   29.2850   44.9290 C   0  0  0  0  0  0  0  0  0  0  0  0
   55.9410   29.8760   44.3480 C   0  0  0  0  0  0  0  0  0  0  0  0
   57.3460   27.9240   44.8920 N   0  0  0  0  0  0  0  0  0  0  0  0
   58.4650   27.3790   45.4210 C   0  0  0  0  0  0  0  0  0  0  0  0
   57.3870   25.0240   43.7460 C   0  0  0  0  0  0  0  0  0  0  0  0
   56.6730   23.9270   43.2570 C   0  0  0  0  0  0  0  0  0  0  0  0
   56.2916   20.1579   44.9861 H   0  0  0  0  0  0  0  0  0  0  0  0
   55.5097   19.5663   43.4810 H   0  0  0  0  0  0  0  0  0  0  0  0
   57.2566   19.9848   43.4810 H   0  0  0  0  0  0  0  0  0  0  0  0
   57.3487   21.6867   45.7485 H   0  0  0  0  0  0  0  0  0  0  0  0
   58.6253   23.6385   46.6165 H   0  0  0  0  0  0  0  0  0  0  0  0
   61.4042   27.5166   46.7796 H   0  0  0  0  0  0  0  0  0  0  0  0
   57.9165   31.5711   47.6889 H   0  0  0  0  0  0  0  0  0  0  0  0
   57.6388   34.0466   47.7934 H   0  0  0  0  0  0  0  0  0  0  0  0
   57.5817   35.3886   45.6925 H   0  0  0  0  0  0  0  0  0  0  0  0
   57.8046   34.2625   43.4794 H   0  0  0  0  0  0  0  0  0  0  0  0
   58.3200   30.5284   43.1321 H   0  0  0  0  0  0  0  0  0  0  0  0
   57.1918   31.7354   42.4272 H   0  0  0  0  0  0  0  0  0  0  0  0
   58.9600   32.0516   42.4272 H   0  0  0  0  0  0  0  0  0  0  0  0
   55.2725   30.1911   45.1628 H   0  0  0  0  0  0  0  0  0  0  0  0
   56.1993   30.7472   43.7280 H   0  0  0  0  0  0  0  0  0  0  0  0
   55.4335   29.1223   43.7280 H   0  0  0  0  0  0  0  0  0  0  0  0
   57.4041   25.9622   43.1719 H   0  0  0  0  0  0  0  0  0  0  0  0
   56.1261   24.0089   42.3061 H   0  0  0  0  0  0  0  0  0  0  0  0
  1  2  1  0
  2  3  1  0
  3  4  2  0
  4  5  1  0
  5  6  2  0
  6  7  1  0
  7  8  1  0
  8  9  2  0
  9 10  1  0
 10 11  1  0
 11 12  2  0
 11 13  1  0
 13 14  1  0
 14 15  2  0
 15 16  1  0
 16 17  2  0
 17 18  1  0
 18 19  2  0
 19 20  1  0
 13 21  1  0
 21 22  1  0
 21 23  2  0
 23 24  1  0
  6 25  1  0
 25 26  2  0
 26  3  1  0
 24  7  1  0
 24 10  2  0
 19 14  1  0
  1 27  1  0
  1 28  1  0
  1 29  1  0
  4 30  1  0
  5 31  1  0
  9 32  1  0
 15 33  1  0
 16 34  1  0
 17 35  1  0
 18 36  1  0
 20 37  1  0
 20 38  1  0
 20 39  1  0
 22 40  1  0
 22 41  1  0
 22 42  1  0
 25 43  1  0
 26 44  1  0
M  END
>  <UniqueID>  (41) 
39

>  <SMILES>  (41) 
COc1ccc(-n2ncc3c(=O)n(-c4ccccc4C)c(C)nc32)cc1

>  <Energy>  (41) 
102.31097351189548

>  <Genealogy>  (41) 
COc1ccc(-n2ncc3c(=O)n(-c4ccccc4C)c(C)nc32)cc1 (3D coordinates assigned)
COc1ccc(-n2ncc3c(=O)n(-c4ccccc4C)c(C)nc32)cc1 (optimized conformer: 102.31097351189548 kcal/mol)

>  <smiles>  (41) 
COc1ccc(-n2ncc3c(=O)n(-c4ccccc4C)c(C)nc32)cc1

>  <score_type>  (41) 
oracle

>  <origin>  (41) 
adg

>  <m_score__min__energy>  (41) 
-8.0700000000000003

>  <m_primary>  (41) 
energy

$$$$
41:0
     RDKit          3D

 33 34  0  0  0  0  0  0  0  0999 V2000
   57.6520   33.8950   45.3010 C   0  0  0  0  0  0  0  0  0  0  0  0
   57.9180   32.9550   44.2640 O   0  0  0  0  0  0  0  0  0  0  0  0
   57.7080   31.5730   44.3750 C   0  0  0  0  0  0  0  0  0  0  0  0
   57.0170   30.8340   43.3970 C   0  0  0  0  0  0  0  0  0  0  0  0
   56.8320   29.4560   43.5530 C   0  0  0  0  0  0  0  0  0  0  0  0
   57.3220   28.7980   44.6950 C   0  0  0  0  0  0  0  0  0  0  0  0
   57.1670   27.3790   44.8680 N   0  0  0  0  0  0  0  0  0  0  0  0
   58.1860   26.5160   45.3900 C   0  0  0  0  0  0  0  0  0  0  0  0
   59.3810   26.9110   45.4720 O   0  0  0  0  0  0  0  0  0  0  0  0
   57.8510   25.2040   45.7420 O   0  0  0  0  0  0  0  0  0  0  0  0
   56.6740   24.5700   45.3220 C   0  0  0  0  0  0  0  0  0  0  0  0
   56.6960   23.3650   44.5820 C   0  0  0  0  0  0  0  0  0  0  0  0
   57.9790   22.6750   44.2280 C   0  0  0  0  0  0  0  0  0  0  0  0
   55.5210   22.8040   44.1800 N   0  0  0  0  0  0  0  0  0  0  0  0
   54.3160   23.3500   44.4890 C   0  0  0  0  0  0  0  0  0  0  0  0
   54.2520   24.5170   45.2500 C   0  0  0  0  0  0  0  0  0  0  0  0
   55.4360   25.1270   45.6700 C   0  0  0  0  0  0  0  0  0  0  0  0
   55.3870   26.1840   46.3550 O   0  0  0  0  0  0  0  0  0  0  0  0
   58.0310   29.5340   45.6550 C   0  0  0  0  0  0  0  0  0  0  0  0
   58.2140   30.9110   45.4990 C   0  0  0  0  0  0  0  0  0  0  0  0
   57.7891   33.4106   46.2790 H   0  0  0  0  0  0  0  0  0  0  0  0
   58.3450   34.7447   45.2123 H   0  0  0  0  0  0  0  0  0  0  0  0
   56.6166   34.2556   45.2123 H   0  0  0  0  0  0  0  0  0  0  0  0
   56.6204   31.3421   42.5056 H   0  0  0  0  0  0  0  0  0  0  0  0
   56.3004   28.8842   42.7781 H   0  0  0  0  0  0  0  0  0  0  0  0
   56.2820   26.9320   44.5380 H   0  0  0  0  0  0  0  0  0  0  0  0
   58.5085   22.3902   45.1492 H   0  0  0  0  0  0  0  0  0  0  0  0
   57.7596   21.7732   43.6375 H   0  0  0  0  0  0  0  0  0  0  0  0
   58.6104   23.3552   43.6375 H   0  0  0  0  0  0  0  0  0  0  0  0
   53.3898   22.8711   44.1386 H   0  0  0  0  0  0  0  0  0  0  0  0
   53.2780   24.9529   45.5169 H   0  0  0  0  0  0  0  0  0  0  0  0
   58.4461   29.0243   46.5370 H   0  0  0  0  0  0  0  0  0  0  0  0
   58.7604   31.4789   46.2664 H   0  0  0  0  0  0  0  0  0  0  0  0
  1  2  1  0
  2  3  1  0
  3  4  2  0
  4  5  1  0
  5  6  2  0
  6  7  1  0
  7  8  1  0
  8  9  2  0
  8 10  1  0
 10 11  1  0
 11 12  2  0
 12 13  1  0
 12 14  1  0
 14 15  1  0
 15 16  2  0
 16 17  1  0
 17 18  2  0
  6 19  1  0
 19 20  2  0
 20  3  1  0
 17 11  1  0
  1 21  1  0
  1 22  1  0
  1 23  1  0
  4 24  1  0
  5 25  1  0
  7 26  1  0
 13 27  1  0
 13 28  1  0
 13 29  1  0
 15 30  1  0
 16 31  1  0
 19 32  1  0
 20 33  1  0
M  CHG  1  14  -1
M  END
>  <UniqueID>  (42) 
40

>  <SMILES>  (42) 
COc1ccc(NC(=O)Oc2c(C)[n-]ccc2=O)cc1

>  <Energy>  (42) 
43.580257660776255

>  <Genealogy>  (42) 
COc1ccc(NC(=O)Oc2c(C)[n-]ccc2=O)cc1 (protonated)
COc1ccc(NC(=O)Oc2c(C)[n-]ccc2=O)cc1 (3D coordinates assigned)
COc1ccc(NC(=O)Oc2c(C)[n-]ccc2=O)cc1 (optimized conformer: 43.580257660776255 kcal/mol)

>  <smiles>  (42) 
COc1ccc(NC(=O)Oc2c(C)[nH]ccc2=O)cc1

>  <score_type>  (42) 
oracle

>  <origin>  (42) 
adg

>  <m_score__min__energy>  (42) 
-7.6699999999999999

>  <m_primary>  (42) 
energy

$$$$
42:0
     RDKit          3D

 41 43  0  0  0  0  0  0  0  0999 V2000
   57.9560   32.3110   41.9100 C   0  0  0  0  0  0  0  0  0  0  0  0
   57.0130   31.2670   42.4940 C   0  0  0  0  0  0  0  0  0  0  0  0
   57.3450   31.0080   43.8980 N   0  0  0  0  0  0  0  0  0  0  0  0
   57.4070   31.8910   44.9360 C   0  0  0  0  0  0  0  0  0  0  0  0
   57.0150   33.3410   44.8540 C   0  0  0  0  0  0  0  0  0  0  0  0
   58.1070   34.2460   45.4350 C   0  0  0  0  0  0  0  0  0  0  0  0
   59.2250   33.4490   45.9410 N   0  0  0  0  0  0  0  0  0  0  0  0
   60.1280   33.9400   46.9460 C   0  0  0  0  0  0  0  0  0  0  0  0
   59.8000   34.9260   47.6580 O   0  0  0  0  0  0  0  0  0  0  0  0
   61.4450   33.3120   47.1470 C   0  0  0  0  0  0  0  0  0  0  0  0
   62.6670   33.8430   46.7480 C   0  0  0  0  0  0  0  0  0  0  0  0
   63.7520   33.0020   47.0180 C   0  0  0  0  0  0  0  0  0  0  0  0
   63.3940   31.8060   47.6270 C   0  0  0  0  0  0  0  0  0  0  0  0
   61.7260   31.7990   47.8270 S   0  0  0  0  0  0  0  0  0  0  0  0
   57.8020   31.3190   46.1040 N   0  0  0  0  0  0  0  0  0  0  0  0
   58.0100   30.0360   45.7620 C   0  0  0  0  0  0  0  0  0  0  0  0
   58.4510   29.0020   46.5830 C   0  0  0  0  0  0  0  0  0  0  0  0
   58.6190   27.7230   46.0070 C   0  0  0  0  0  0  0  0  0  0  0  0
   59.1340   26.5910   46.8450 C   0  0  0  0  0  0  0  0  0  0  0  0
   58.3640   27.5320   44.6250 C   0  0  0  0  0  0  0  0  0  0  0  0
   57.9160   28.6010   43.8250 C   0  0  0  0  0  0  0  0  0  0  0  0
   57.7450   29.8430   44.4380 C   0  0  0  0  0  0  0  0  0  0  0  0
   58.4495   32.8574   42.7273 H   0  0  0  0  0  0  0  0  0  0  0  0
   58.7162   31.8128   41.2905 H   0  0  0  0  0  0  0  0  0  0  0  0
   57.3832   33.0168   41.2905 H   0  0  0  0  0  0  0  0  0  0  0  0
   55.9786   31.6354   42.4280 H   0  0  0  0  0  0  0  0  0  0  0  0
   57.1180   30.3322   41.9239 H   0  0  0  0  0  0  0  0  0  0  0  0
   56.8508   33.6089   43.7998 H   0  0  0  0  0  0  0  0  0  0  0  0
   56.0953   33.4860   45.4398 H   0  0  0  0  0  0  0  0  0  0  0  0
   58.4725   34.9217   44.6477 H   0  0  0  0  0  0  0  0  0  0  0  0
   57.6804   34.8249   46.2674 H   0  0  0  0  0  0  0  0  0  0  0  0
   59.4530   32.5650   45.4350 H   0  0  0  0  0  0  0  0  0  0  0  0
   62.7702   34.8271   46.2675 H   0  0  0  0  0  0  0  0  0  0  0  0
   64.7915   33.2635   46.7711 H   0  0  0  0  0  0  0  0  0  0  0  0
   64.0832   31.0027   47.9264 H   0  0  0  0  0  0  0  0  0  0  0  0
   58.6624   29.1756   47.6485 H   0  0  0  0  0  0  0  0  0  0  0  0
   59.0199   26.8417   47.9100 H   0  0  0  0  0  0  0  0  0  0  0  0
   58.5624   25.6785   46.6199 H   0  0  0  0  0  0  0  0  0  0  0  0
   60.1974   26.4224   46.6199 H   0  0  0  0  0  0  0  0  0  0  0  0
   58.5174   26.5405   44.1741 H   0  0  0  0  0  0  0  0  0  0  0  0
   57.7080   28.4618   42.7538 H   0  0  0  0  0  0  0  0  0  0  0  0
  1  2  1  0
  2  3  1  0
  3  4  1  0
  4  5  1  0
  5  6  1  0
  6  7  1  0
  7  8  1  0
  8  9  2  0
  8 10  1  0
 10 11  2  0
 11 12  1  0
 12 13  2  0
 13 14  1  0
  4 15  2  0
 15 16  1  0
 16 17  2  0
 17 18  1  0
 18 19  1  0
 18 20  2  0
 20 21  1  0
 21 22  2  0
 22  3  1  0
 14 10  1  0
 22 16  1  0
  1 23  1  0
  1 24  1  0
  1 25  1  0
  2 26  1  0
  2 27  1  0
  5 28  1  0
  5 29  1  0
  6 30  1  0
  6 31  1  0
  7 32  1  0
 11 33  1  0
 12 34  1  0
 13 35  1  0
 17 36  1  0
 19 37  1  0
 19 38  1  0
 19 39  1  0
 20 40  1  0
 21 41  1  0
M  END
>  <UniqueID>  (43) 
41

>  <SMILES>  (43) 
CCn1c(CCNC(=O)c2cccs2)nc2cc(C)ccc21

>  <Energy>  (43) 
94.91716804321082

>  <Genealogy>  (43) 
CCn1c(CCNC(=O)c2cccs2)nc2cc(C)ccc21 (3D coordinates assigned)
CCn1c(CCNC(=O)c2cccs2)nc2cc(C)ccc21 (optimized conformer: 94.91716804321082 kcal/mol)

>  <smiles>  (43) 
CCn1c(CCNC(=O)c2cccs2)nc2cc(C)ccc21

>  <score_type>  (43) 
oracle

>  <origin>  (43) 
adg

>  <m_score__min__energy>  (43) 
-7.4900000000000002

>  <m_primary>  (43) 
energy

$$$$
43:0
     RDKit          3D

 46 49  0  0  0  0  0  0  0  0999 V2000
   62.5210   30.8480   46.7870 O   0  0  0  0  0  0  0  0  0  0  0  0
   61.2710   30.9300   46.9290 C   0  0  0  0  0  0  0  0  0  0  0  0
   60.4170   29.7970   46.5240 C   0  0  0  0  0  0  0  0  0  0  0  0
   60.0560   29.5380   45.2420 N   0  0  0  0  0  0  0  0  0  0  0  0
   59.3280   28.4360   45.2450 N   0  0  0  0  0  0  0  0  0  0  0  0
   58.7630   27.8120   44.1830 C   0  0  0  0  0  0  0  0  0  0  0  0
   58.0300   26.6420   44.4280 C   0  0  0  0  0  0  0  0  0  0  0  0
   57.9190   26.1740   45.7540 C   0  0  0  0  0  0  0  0  0  0  0  0
   58.5160   26.8490   46.7790 N   0  0  0  0  0  0  0  0  0  0  0  0
   59.2140   27.9770   46.4960 C   0  0  0  0  0  0  0  0  0  0  0  0
   59.8960   28.8040   47.3610 C   0  0  0  0  0  0  0  0  0  0  0  0
   60.0490   28.6150   49.2570 Br  0  0  0  0  0  0  0  0  0  0  0  0
   60.6970   32.1440   47.4410 N   0  0  0  0  0  0  0  0  0  0  0  0
   59.7180   32.1090   48.5330 C   0  0  0  0  0  0  0  0  0  0  0  0
   58.5860   33.1380   48.3060 C   0  0  0  0  0  0  0  0  0  0  0  0
   58.9420   34.2310   47.3650 N   0  0  0  0  0  0  0  0  0  0  0  0
   58.5020   33.9310   45.9800 C   0  0  0  0  0  0  0  0  0  0  0  0
   57.1640   33.1780   45.9520 C   0  0  0  0  0  0  0  0  0  0  0  0
   57.1050   32.2530   44.7710 C   0  0  0  0  0  0  0  0  0  0  0  0
   57.8200   32.5430   43.5980 C   0  0  0  0  0  0  0  0  0  0  0  0
   57.7730   31.6460   42.5300 C   0  0  0  0  0  0  0  0  0  0  0  0
   57.0260   30.4720   42.6390 C   0  0  0  0  0  0  0  0  0  0  0  0
   56.3340   30.2110   43.8250 C   0  0  0  0  0  0  0  0  0  0  0  0
   56.3910   31.0960   44.8550 N   0  0  0  0  0  0  0  0  0  0  0  0
   60.3730   34.5920   47.4760 C   0  0  0  0  0  0  0  0  0  0  0  0
   61.2900   33.4300   47.0650 C   0  0  0  0  0  0  0  0  0  0  0  0
   60.3150   30.0800   44.3880 H   0  0  0  0  0  0  0  0  0  0  0  0
   58.8756   28.2097   43.1636 H   0  0  0  0  0  0  0  0  0  0  0  0
   57.5500   26.0987   43.6007 H   0  0  0  0  0  0  0  0  0  0  0  0
   57.3470   25.2581   45.9635 H   0  0  0  0  0  0  0  0  0  0  0  0
   59.2803   31.1014   48.5897 H   0  0  0  0  0  0  0  0  0  0  0  0
   60.2345   32.3622   49.4706 H   0  0  0  0  0  0  0  0  0  0  0  0
   57.7111   32.6064   47.9035 H   0  0  0  0  0  0  0  0  0  0  0  0
   58.3848   33.6093   49.2793 H   0  0  0  0  0  0  0  0  0  0  0  0
   58.3886   34.8772   45.4306 H   0  0  0  0  0  0  0  0  0  0  0  0
   59.2633   33.2887   45.5132 H   0  0  0  0  0  0  0  0  0  0  0  0
   57.0595   32.5914   46.8767 H   0  0  0  0  0  0  0  0  0  0  0  0
   56.3462   33.9093   45.8719 H   0  0  0  0  0  0  0  0  0  0  0  0
   58.4110   33.4676   43.5216 H   0  0  0  0  0  0  0  0  0  0  0  0
   58.3241   31.8639   41.6033 H   0  0  0  0  0  0  0  0  0  0  0  0
   56.9824   29.7605   41.8013 H   0  0  0  0  0  0  0  0  0  0  0  0
   55.7429   29.2887   43.9249 H   0  0  0  0  0  0  0  0  0  0  0  0
   60.5745   35.4528   46.8215 H   0  0  0  0  0  0  0  0  0  0  0  0
   60.5826   34.8363   48.5279 H   0  0  0  0  0  0  0  0  0  0  0  0
   61.4376   33.4546   45.9752 H   0  0  0  0  0  0  0  0  0  0  0  0
   62.2539   33.5399   47.5834 H   0  0  0  0  0  0  0  0  0  0  0  0
  1  2  2  0
  2  3  1  0
  3  4  2  0
  4  5  1  0
  5  6  1  0
  6  7  2  0
  7  8  1  0
  8  9  2  0
  9 10  1  0
 10 11  2  0
 11 12  1  0
  2 13  1  0
 13 14  1  0
 14 15  1  0
 15 16  1  0
 16 17  1  0
 17 18  1  0
 18 19  1  0
 19 20  2  0
 20 21  1  0
 21 22  2  0
 22 23  1  0
 23 24  2  0
 16 25  1  0
 25 26  1  0
 11  3  1  0
 26 13  1  0
 10  5  1  0
 24 19  1  0
  4 27  1  0
  6 28  1  0
  7 29  1  0
  8 30  1  0
 14 31  1  0
 14 32  1  0
 15 33  1  0
 15 34  1  0
 17 35  1  0
 17 36  1  0
 18 37  1  0
 18 38  1  0
 20 39  1  0
 21 40  1  0
 22 41  1  0
 23 42  1  0
 25 43  1  0
 25 44  1  0
 26 45  1  0
 26 46  1  0
M  CHG  1   4   1
M  END
>  <UniqueID>  (44) 
42

>  <SMILES>  (44) 
O=C(c1[nH+]n2cccnc2c1Br)N1CCN(CCc2ccccn2)CC1

>  <Energy>  (44) 
98.81069061282028

>  <Genealogy>  (44) 
O=C(c1[nH+]n2cccnc2c1Br)N1CCN(CCc2ccccn2)CC1 (protonated)
O=C(c1[nH+]n2cccnc2c1Br)N1CCN(CCc2ccccn2)CC1 (3D coordinates assigned)
O=C(c1[nH+]n2cccnc2c1Br)N1CCN(CCc2ccccn2)CC1 (nonaromatic ring conformer: 98.81069061282028 kcal/mol)

>  <smiles>  (44) 
O=C(c1nn2cccnc2c1Br)N1CCN(CCc2ccccn2)CC1

>  <score_type>  (44) 
oracle

>  <origin>  (44) 
adg

>  <m_score__min__energy>  (44) 
-6.8799999999999999

>  <m_primary>  (44) 
energy

$$$$
44:0
     RDKit          3D

 39 41  0  0  1  0  0  0  0  0999 V2000
   57.7520   31.9980   43.2100 C   0  0  0  0  0  0  0  0  0  0  0  0
   56.9730   30.9120   42.5200 C   0  0  0  0  0  0  0  0  0  0  0  0
   56.1320   30.1080   43.4870 C   0  0  0  0  0  0  0  0  0  0  0  0
   56.9390   29.5200   44.5720 C   0  0  0  0  0  0  0  0  0  0  0  0
   57.4030   30.2970   45.5690 N   0  0  0  0  0  0  0  0  0  0  0  0
   58.1390   29.7530   46.5540 C   0  0  0  0  0  0  0  0  0  0  0  0
   58.5520   30.5470   47.4770 N   0  0  0  0  0  0  0  0  0  0  0  0
   58.8900   31.8790   47.1110 C   0  0  0  0  0  0  0  0  0  0  0  0
   57.8800   32.8460   47.0210 C   0  0  0  0  0  0  0  0  0  0  0  0
   58.2300   34.1450   46.6590 C   0  0  0  0  0  0  0  0  0  0  0  0
   59.5270   34.5010   46.3900 C   0  0  0  0  0  0  0  0  0  0  0  0
   59.8570   35.8940   46.0080 C   0  0  0  0  0  0  0  0  0  0  0  0
   60.5300   33.5340   46.4830 C   0  0  0  0  0  0  0  0  0  0  0  0
   60.2130   32.2440   46.8390 C   0  0  0  0  0  0  0  0  0  0  0  0
   58.3990   28.4040   46.5150 C   0  0  0  0  0  0  0  0  0  0  0  0
   59.1330   27.8420   47.4910 N   0  0  0  0  0  0  0  0  0  0  0  0
   59.3730   26.5200   47.4290 C   0  0  0  0  0  0  0  0  0  0  0  0
   58.9040   25.7150   46.4160 C   0  0  0  0  0  0  0  0  0  0  0  0
   58.1510   26.2780   45.4070 C   0  0  0  0  0  0  0  0  0  0  0  0
   57.9150   27.6320   45.4860 C   0  0  0  0  0  0  0  0  0  0  0  0
   57.1810   28.1890   44.5080 N   0  0  0  0  0  0  0  0  0  0  0  0
   57.6646   31.8762   44.2997 H   0  0  0  0  0  0  0  0  0  0  0  0
   58.8104   31.9325   42.9174 H   0  0  0  0  0  0  0  0  0  0  0  0
   57.3507   32.9795   42.9174 H   0  0  0  0  0  0  0  0  0  0  0  0
   56.3103   31.3721   41.7723 H   0  0  0  0  0  0  0  0  0  0  0  0
   57.6936   30.2269   42.0495 H   0  0  0  0  0  0  0  0  0  0  0  0
   55.3717   30.7687   43.9292 H   0  0  0  0  0  0  0  0  0  0  0  0
   55.6685   29.2831   42.9260 H   0  0  0  0  0  0  0  0  0  0  0  0
   56.8324   32.5849   47.2318 H   0  0  0  0  0  0  0  0  0  0  0  0
   57.4417   34.9088   46.5867 H   0  0  0  0  0  0  0  0  0  0  0  0
   60.0003   36.4989   46.9155 H   0  0  0  0  0  0  0  0  0  0  0  0
   60.7818   35.9016   45.4124 H   0  0  0  0  0  0  0  0  0  0  0  0
   59.0339   36.3157   45.4124 H   0  0  0  0  0  0  0  0  0  0  0  0
   61.5750   33.8044   46.2713 H   0  0  0  0  0  0  0  0  0  0  0  0
   61.0100   31.4893   46.9108 H   0  0  0  0  0  0  0  0  0  0  0  0
   59.9737   26.0596   48.2272 H   0  0  0  0  0  0  0  0  0  0  0  0
   59.1266   24.6378   46.4112 H   0  0  0  0  0  0  0  0  0  0  0  0
   57.7570   25.6729   44.5771 H   0  0  0  0  0  0  0  0  0  0  0  0
   56.8170   27.5910   43.7300 H   0  0  0  0  0  0  0  0  0  0  0  0
  1  2  1  0
  2  3  1  0
  3  4  1  0
  4  5  2  0
  5  6  1  0
  6  7  2  0
  7  8  1  0
  8  9  2  0
  9 10  1  0
 10 11  2  0
 11 12  1  0
 11 13  1  0
 13 14  2  0
  6 15  1  0
 15 16  2  0
 16 17  1  0
 17 18  2  0
 18 19  1  0
 19 20  2  0
 20 21  1  0
 21  4  1  0
 14  8  1  0
 20 15  1  0
  1 22  1  0
  1 23  1  0
  1 24  1  0
  2 25  1  0
  2 26  1  0
  3 27  1  0
  3 28  1  0
  9 29  1  0
 10 30  1  0
 12 31  1  0
 12 32  1  0
 12 33  1  0
 13 34  1  0
 14 35  1  0
 17 36  1  0
 18 37  1  0
 19 38  1  0
 21 39  1  0
M  END
>  <smiles>  (45) 
CCCc1nc(=Nc2ccc(C)cc2)c2ncccc2[nH]1

>  <score_type>  (45) 
oracle

>  <origin>  (45) 
adg

>  <m_score__min__energy>  (45) 
-7.1799999999999997

>  <m_primary>  (45) 
energy

$$$$
45:0
     RDKit          3D

 19 20  0  0  0  0  0  0  0  0999 V2000
   56.5079   23.6103   46.3087 H   0  0  0  0  0  0  0  0  0  0  0  0
   56.4230   24.6970   46.1610 C   0  0  0  0  0  0  0  0  0  0  0  0
   55.2600   25.3870   46.2000 N   0  0  0  0  0  0  0  0  0  0  0  0
   55.4100   26.6950   45.9930 N   0  0  0  0  0  0  0  0  0  0  0  0
   56.6980   27.0510   45.7990 C   0  0  0  0  0  0  0  0  0  0  0  0
   57.0950   28.2630   45.5420 N   0  0  0  0  0  0  0  0  0  0  0  0
   56.3380   29.2580   44.8390 C   0  0  0  0  0  0  0  0  0  0  0  0
   55.1470   28.9960   44.5220 O   0  0  0  0  0  0  0  0  0  0  0  0
   56.9390   30.5420   44.4110 C   0  0  0  0  0  0  0  0  0  0  0  0
   57.2980   31.4680   45.3450 N   0  0  0  0  0  0  0  0  0  0  0  0
   57.8710   32.6520   45.0050 C   0  0  0  0  0  0  0  0  0  0  0  0
   58.1422   33.3759   45.7876 H   0  0  0  0  0  0  0  0  0  0  0  0
   58.1160   32.9510   43.6630 C   0  0  0  0  0  0  0  0  0  0  0  0
   58.5762   33.9096   43.3815 H   0  0  0  0  0  0  0  0  0  0  0  0
   57.7700   32.0190   42.6830 C   0  0  0  0  0  0  0  0  0  0  0  0
   57.9599   32.2384   41.6220 H   0  0  0  0  0  0  0  0  0  0  0  0
   57.1820   30.8070   43.0530 C   0  0  0  0  0  0  0  0  0  0  0  0
   56.9113   30.0657   42.2867 H   0  0  0  0  0  0  0  0  0  0  0  0
   57.7250   25.7240   45.8560 S   0  0  0  0  0  0  0  0  0  0  0  0
  1  2  1  0
  2  3  2  0
  3  4  1  0
  4  5  1  0
  5  6  2  0
  6  7  1  0
  7  8  2  0
  7  9  1  0
  9 10  2  0
 10 11  1  0
 11 12  1  0
 11 13  2  0
 13 14  1  0
 13 15  1  0
 15 16  1  0
 15 17  2  0
 17 18  1  0
  5 19  1  0
 19  2  1  0
 17  9  1  0
M  CHG  1   4  -1
M  END
>  <UniqueID>  (46) 
43

>  <SMILES>  (46) 
O=C(/N=c1\[n-]ncs1)c1ccccn1

>  <Energy>  (46) 
61.01302226675189

>  <Genealogy>  (46) 
O=C(N=c1[n-]ncs1)c1ccccn1 (protonated)
O=C(/N=c1\[n-]ncs1)c1ccccn1 (cis-trans isomerization)
O=C(/N=c1\[n-]ncs1)c1ccccn1 (3D coordinates assigned)
O=C(/N=c1\[n-]ncs1)c1ccccn1 (optimized conformer: 61.01302226675189 kcal/mol)

>  <smiles>  (46) 
O=C(N=c1[nH]ncs1)c1ccccn1

>  <score_type>  (46) 
oracle

>  <origin>  (46) 
adg

>  <m_score__min__energy>  (46) 
-8.5700000000000003

>  <m_primary>  (46) 
energy

$$$$
46:0
     RDKit          3D

 45 47  0  0  0  0  0  0  0  0999 V2000
   57.1930   29.5290   44.3790 C   0  0  0  0  0  0  0  0  0  0  0  0
   58.1470   30.6790   44.0730 C   0  0  0  0  0  0  0  0  0  0  0  0
   57.5080   31.7780   43.2170 C   0  0  0  0  0  0  0  0  0  0  0  0
   57.9940   33.0710   43.5830 O   0  0  0  0  0  0  0  0  0  0  0  0
   58.4350   33.4710   44.8560 C   0  0  0  0  0  0  0  0  0  0  0  0
   57.6640   33.0950   45.9630 C   0  0  0  0  0  0  0  0  0  0  0  0
   58.0450   33.4600   47.2570 C   0  0  0  0  0  0  0  0  0  0  0  0
   59.2130   34.2080   47.4660 C   0  0  0  0  0  0  0  0  0  0  0  0
   59.6400   34.5910   48.8650 C   0  0  0  0  0  0  0  0  0  0  0  0
   60.1310   33.4260   49.6500 N   0  0  2  0  0  0  0  0  0  0  0  0
   61.1760   33.8080   50.6420 C   0  0  0  0  0  0  0  0  0  0  0  0
   62.4900   34.2850   49.9870 C   0  0  0  0  0  0  0  0  0  0  0  0
   62.8170   33.4480   48.8410 N   0  0  0  0  0  0  0  0  0  0  0  0
   63.9490   33.4320   48.1220 C   0  0  0  0  0  0  0  0  0  0  0  0
   63.7650   32.5520   47.0760 C   0  0  0  0  0  0  0  0  0  0  0  0
   62.5200   32.0270   47.1300 N   0  0  0  0  0  0  0  0  0  0  0  0
   61.9740   32.6150   48.2150 C   0  0  0  0  0  0  0  0  0  0  0  0
   60.5910   32.3340   48.7360 C   0  0  1  0  0  0  0  0  0  0  0  0
   60.5720   30.9600   49.4270 C   0  0  0  0  0  0  0  0  0  0  0  0
   59.9920   34.5850   46.3620 C   0  0  0  0  0  0  0  0  0  0  0  0
   59.6100   34.2190   45.0670 C   0  0  0  0  0  0  0  0  0  0  0  0
   57.0965   29.4127   45.4686 H   0  0  0  0  0  0  0  0  0  0  0  0
   56.2060   29.7459   43.9446 H   0  0  0  0  0  0  0  0  0  0  0  0
   57.5885   28.5990   43.9446 H   0  0  0  0  0  0  0  0  0  0  0  0
   58.4767   31.1230   45.0239 H   0  0  0  0  0  0  0  0  0  0  0  0
   58.9885   30.2636   43.4991 H   0  0  0  0  0  0  0  0  0  0  0  0
   57.7461   31.5921   42.1593 H   0  0  0  0  0  0  0  0  0  0  0  0
   56.4205   31.7571   43.3811 H   0  0  0  0  0  0  0  0  0  0  0  0
   56.7477   32.5054   45.8121 H   0  0  0  0  0  0  0  0  0  0  0  0
   57.4263   33.1594   48.1154 H   0  0  0  0  0  0  0  0  0  0  0  0
   60.4470   35.3353   48.7962 H   0  0  0  0  0  0  0  0  0  0  0  0
   58.7590   34.9964   49.3841 H   0  0  0  0  0  0  0  0  0  0  0  0
   59.3120   33.0610   50.1920 H   0  0  0  0  0  0  0  0  0  0  0  0
   60.7823   34.6216   51.2689 H   0  0  0  0  0  0  0  0  0  0  0  0
   61.4116   32.9096   51.2314 H   0  0  0  0  0  0  0  0  0  0  0  0
   62.3719   35.3266   49.6536 H   0  0  0  0  0  0  0  0  0  0  0  0
   63.3031   34.2150   50.7245 H   0  0  0  0  0  0  0  0  0  0  0  0
   64.8588   34.0147   48.3289 H   0  0  0  0  0  0  0  0  0  0  0  0
   64.5189   32.3128   46.3115 H   0  0  0  0  0  0  0  0  0  0  0  0
   59.8836   32.3066   47.8940 H   0  0  0  0  0  0  0  0  0  0  0  0
   60.5739   31.0983   50.5183 H   0  0  0  0  0  0  0  0  0  0  0  0
   59.6662   30.4119   49.1285 H   0  0  0  0  0  0  0  0  0  0  0  0
   61.4623   30.3871   49.1285 H   0  0  0  0  0  0  0  0  0  0  0  0
   60.9093   35.1723   46.5156 H   0  0  0  0  0  0  0  0  0  0  0  0
   60.2304   34.5168   44.2089 H   0  0  0  0  0  0  0  0  0  0  0  0
  1  2  1  0
  2  3  1  0
  3  4  1  0
  4  5  1  0
  5  6  2  0
  6  7  1  0
  7  8  2  0
  8  9  1  0
  9 10  1  0
 10 11  1  0
 11 12  1  0
 12 13  1  0
 13 14  1  0
 14 15  2  0
 15 16  1  0
 16 17  2  0
 17 18  1  0
 18 19  1  0
  8 20  1  0
 20 21  2  0
 21  5  1  0
 18 10  1  0
 17 13  1  0
  1 22  1  0
  1 23  1  0
  1 24  1  0
  2 25  1  0
  2 26  1  0
  3 27  1  0
  3 28  1  0
  6 29  1  0
  7 30  1  0
  9 31  1  0
  9 32  1  0
 10 33  1  1
 11 34  1  0
 11 35  1  0
 12 36  1  0
 12 37  1  0
 14 38  1  0
 15 39  1  0
 18 40  1  6
 19 41  1  0
 19 42  1  0
 19 43  1  0
 20 44  1  0
 21 45  1  0
M  CHG  1  10   1
M  END
>  <UniqueID>  (47) 
44

>  <SMILES>  (47) 
CCCOc1ccc(C[N@@H+]2CCn3ccnc3[C@H]2C)cc1

>  <Energy>  (47) 
78.87735002976655

>  <Genealogy>  (47) 
CCCOc1ccc(C[NH+]2CCn3ccnc3C2C)cc1 (protonated)
CCCOc1ccc(C[N@@H+]2CCn3ccnc3[C@H]2C)cc1 (chirality)
CCCOc1ccc(C[N@@H+]2CCn3ccnc3[C@H]2C)cc1 (3D coordinates assigned)
CCCOc1ccc(C[N@@H+]2CCn3ccnc3[C@H]2C)cc1 (nonaromatic ring conformer: 78.87735002976655 kcal/mol)

>  <smiles>  (47) 
CCCOc1ccc(CN2CCn3ccnc3C2C)cc1

>  <score_type>  (47) 
oracle

>  <origin>  (47) 
adg

>  <m_score__min__energy>  (47) 
-5.0199999999999996

>  <m_primary>  (47) 
energy

$$$$
47:0
     RDKit          3D

 40 42  0  0  0  0  0  0  0  0999 V2000
   60.5530   34.2600   48.0890 C   0  0  0  0  0  0  0  0  0  0  0  0
   59.5650   33.5620   47.2010 C   0  0  0  0  0  0  0  0  0  0  0  0
   58.3470   34.1800   46.8800 C   0  0  0  0  0  0  0  0  0  0  0  0
   57.4080   33.5180   46.0850 C   0  0  0  0  0  0  0  0  0  0  0  0
   57.6720   32.2280   45.6120 C   0  0  0  0  0  0  0  0  0  0  0  0
   56.7510   31.5900   44.8490 N   0  0  0  0  0  0  0  0  0  0  0  0
   56.9440   30.3370   44.3560 C   0  0  0  0  0  0  0  0  0  0  0  0
   55.8270   29.7200   43.5620 C   0  0  0  0  0  0  0  0  0  0  0  0
   58.1530   29.6500   44.6380 C   0  0  0  0  0  0  0  0  0  0  0  0
   58.4330   28.2530   44.0920 C   0  0  0  0  0  0  0  0  0  0  0  0
   57.5030   27.2280   44.6410 N   0  0  0  0  0  0  0  0  0  0  0  0
   57.0140   27.5420   46.0080 C   0  0  0  0  0  0  0  0  0  0  0  0
   57.9380   26.9950   47.1150 C   0  0  0  0  0  0  0  0  0  0  0  0
   59.2430   26.7740   46.6260 O   0  0  0  0  0  0  0  0  0  0  0  0
   59.2320   25.7260   45.6740 C   0  0  0  0  0  0  0  0  0  0  0  0
   58.1170   25.8820   44.6130 C   0  0  0  0  0  0  0  0  0  0  0  0
   59.1140   30.2850   45.4560 C   0  0  0  0  0  0  0  0  0  0  0  0
   60.1810   29.6820   45.7600 O   0  0  0  0  0  0  0  0  0  0  0  0
   58.8830   31.5870   45.9400 C   0  0  0  0  0  0  0  0  0  0  0  0
   59.8230   32.2600   46.7440 C   0  0  0  0  0  0  0  0  0  0  0  0
   60.2932   34.0764   49.1420 H   0  0  0  0  0  0  0  0  0  0  0  0
   61.5633   33.8741   47.8880 H   0  0  0  0  0  0  0  0  0  0  0  0
   60.5268   35.3412   47.8880 H   0  0  0  0  0  0  0  0  0  0  0  0
   58.1303   35.1907   47.2561 H   0  0  0  0  0  0  0  0  0  0  0  0
   56.4588   34.0122   45.8303 H   0  0  0  0  0  0  0  0  0  0  0  0
   55.0749   29.3046   44.2488 H   0  0  0  0  0  0  0  0  0  0  0  0
   55.3600   30.4881   42.9280 H   0  0  0  0  0  0  0  0  0  0  0  0
   56.2285   28.9157   42.9280 H   0  0  0  0  0  0  0  0  0  0  0  0
   58.3273   28.2746   42.9973 H   0  0  0  0  0  0  0  0  0  0  0  0
   59.4531   27.9745   44.3951 H   0  0  0  0  0  0  0  0  0  0  0  0
   56.6660   27.1830   44.0120 H   0  0  0  0  0  0  0  0  0  0  0  0
   56.9470   28.6348   46.1146 H   0  0  0  0  0  0  0  0  0  0  0  0
   56.0331   27.0587   46.1274 H   0  0  0  0  0  0  0  0  0  0  0  0
   57.9817   27.7230   47.9384 H   0  0  0  0  0  0  0  0  0  0  0  0
   57.5304   26.0359   47.4672 H   0  0  0  0  0  0  0  0  0  0  0  0
   60.2045   25.7095   45.1601 H   0  0  0  0  0  0  0  0  0  0  0  0
   59.0382   24.7901   46.2185 H   0  0  0  0  0  0  0  0  0  0  0  0
   58.5499   25.7108   43.6164 H   0  0  0  0  0  0  0  0  0  0  0  0
   57.3303   25.1473   44.8394 H   0  0  0  0  0  0  0  0  0  0  0  0
   60.7656   31.7623   47.0157 H   0  0  0  0  0  0  0  0  0  0  0  0
  1  2  1  0
  2  3  2  0
  3  4  1  0
  4  5  2  0
  5  6  1  0
  6  7  1  0
  7  8  1  0
  7  9  2  0
  9 10  1  0
 10 11  1  0
 11 12  1  0
 12 13  1  0
 13 14  1  0
 14 15  1  0
 15 16  1  0
  9 17  1  0
 17 18  2  0
 17 19  1  0
 19 20  2  0
 20  2  1  0
 19  5  1  0
 16 11  1  0
  1 21  1  0
  1 22  1  0
  1 23  1  0
  3 24  1  0
  4 25  1  0
  8 26  1  0
  8 27  1  0
  8 28  1  0
 10 29  1  0
 10 30  1  0
 11 31  1  0
 12 32  1  0
 12 33  1  0
 13 34  1  0
 13 35  1  0
 15 36  1  0
 15 37  1  0
 16 38  1  0
 16 39  1  0
 20 40  1  0
M  CHG  2   6  -1  11   1
M  END
>  <UniqueID>  (48) 
45

>  <SMILES>  (48) 
Cc1ccc2[n-]c(C)c(C[NH+]3CCOCC3)c(=O)c2c1

>  <Energy>  (48) 
60.094707090891326

>  <Genealogy>  (48) 
Cc1ccc2[n-]c(C)c(C[NH+]3CCOCC3)c(=O)c2c1 (protonated)
Cc1ccc2[n-]c(C)c(C[NH+]3CCOCC3)c(=O)c2c1 (3D coordinates assigned)
Cc1ccc2[n-]c(C)c(C[NH+]3CCOCC3)c(=O)c2c1 (nonaromatic ring conformer: 60.094707090891326 kcal/mol)

>  <smiles>  (48) 
Cc1ccc2[nH]c(C)c(CN3CCOCC3)c(=O)c2c1

>  <score_type>  (48) 
oracle

>  <origin>  (48) 
adg

>  <m_score__min__energy>  (48) 
-6.4100000000000001

>  <m_primary>  (48) 
energy

$$$$
48:0
     RDKit          3D

 35 36  0  0  0  0  0  0  0  0999 V2000
   59.3810   27.8280   47.5170 C   0  0  0  0  0  0  0  0  0  0  0  0
   57.9450   27.5640   47.0730 C   0  0  0  0  0  0  0  0  0  0  0  0
   57.9020   27.0660   45.6490 C   0  0  0  0  0  0  0  0  0  0  0  0
   57.5340   25.7290   45.4100 C   0  0  0  0  0  0  0  0  0  0  0  0
   57.4760   25.2300   44.1080 C   0  0  0  0  0  0  0  0  0  0  0  0
   57.7710   26.0610   43.0270 C   0  0  0  0  0  0  0  0  0  0  0  0
   58.1270   27.3920   43.2440 C   0  0  0  0  0  0  0  0  0  0  0  0
   58.2040   27.9090   44.5510 C   0  0  0  0  0  0  0  0  0  0  0  0
   58.5290   29.2950   44.7570 N   0  0  0  0  0  0  0  0  0  0  0  0
   57.5390   30.3250   44.9170 C   0  0  0  0  0  0  0  0  0  0  0  0
   56.3110   30.0490   44.8380 O   0  0  0  0  0  0  0  0  0  0  0  0
   57.9440   31.7190   45.1970 C   0  0  0  0  0  0  0  0  0  0  0  0
   58.1510   32.0930   46.5350 C   0  0  0  0  0  0  0  0  0  0  0  0
   58.5680   33.3870   46.8540 C   0  0  0  0  0  0  0  0  0  0  0  0
   58.7780   34.3230   45.8410 C   0  0  0  0  0  0  0  0  0  0  0  0
   58.5560   33.9740   44.5080 C   0  0  0  0  0  0  0  0  0  0  0  0
   58.1160   32.6830   44.1710 C   0  0  0  0  0  0  0  0  0  0  0  0
   57.8450   32.3720   42.7210 C   0  0  0  0  0  0  0  0  0  0  0  0
   59.4293   27.8369   48.6159 H   0  0  0  0  0  0  0  0  0  0  0  0
   60.0368   27.0354   47.1276 H   0  0  0  0  0  0  0  0  0  0  0  0
   59.7120   28.8020   47.1276 H   0  0  0  0  0  0  0  0  0  0  0  0
   57.4981   26.8058   47.7329 H   0  0  0  0  0  0  0  0  0  0  0  0
   57.3811   28.5067   47.1317 H   0  0  0  0  0  0  0  0  0  0  0  0
   57.2898   25.0712   46.2571 H   0  0  0  0  0  0  0  0  0  0  0  0
   57.1974   24.1802   43.9339 H   0  0  0  0  0  0  0  0  0  0  0  0
   57.7228   25.6658   42.0016 H   0  0  0  0  0  0  0  0  0  0  0  0
   58.3496   28.0435   42.3861 H   0  0  0  0  0  0  0  0  0  0  0  0
   59.5360   29.5640   44.7950 H   0  0  0  0  0  0  0  0  0  0  0  0
   57.9832   31.3605   47.3383 H   0  0  0  0  0  0  0  0  0  0  0  0
   58.7310   33.6685   47.9048 H   0  0  0  0  0  0  0  0  0  0  0  0
   59.1191   35.3379   46.0933 H   0  0  0  0  0  0  0  0  0  0  0  0
   58.7270   34.7162   43.7143 H   0  0  0  0  0  0  0  0  0  0  0  0
   57.1238   31.5443   42.6521 H   0  0  0  0  0  0  0  0  0  0  0  0
   57.4296   33.2624   42.2264 H   0  0  0  0  0  0  0  0  0  0  0  0
   58.7839   32.0823   42.2264 H   0  0  0  0  0  0  0  0  0  0  0  0
  1  2  1  0
  2  3  1  0
  3  4  2  0
  4  5  1  0
  5  6  2  0
  6  7  1  0
  7  8  2  0
  8  9  1  0
  9 10  1  0
 10 11  2  0
 10 12  1  0
 12 13  2  0
 13 14  1  0
 14 15  2  0
 15 16  1  0
 16 17  2  0
 17 18  1  0
  8  3  1  0
 17 12  1  0
  1 19  1  0
  1 20  1  0
  1 21  1  0
  2 22  1  0
  2 23  1  0
  4 24  1  0
  5 25  1  0
  6 26  1  0
  7 27  1  0
  9 28  1  0
 13 29  1  0
 14 30  1  0
 15 31  1  0
 16 32  1  0
 18 33  1  0
 18 34  1  0
 18 35  1  0
M  END
>  <UniqueID>  (49) 
46

>  <SMILES>  (49) 
CCc1ccccc1NC(=O)c1ccccc1C

>  <Energy>  (49) 
42.77152189846815

>  <Genealogy>  (49) 
CCc1ccccc1NC(=O)c1ccccc1C (3D coordinates assigned)
CCc1ccccc1NC(=O)c1ccccc1C (optimized conformer: 42.77152189846815 kcal/mol)

>  <smiles>  (49) 
CCc1ccccc1NC(=O)c1ccccc1C

>  <score_type>  (49) 
oracle

>  <origin>  (49) 
adg

>  <m_score__min__energy>  (49) 
-6.8799999999999999

>  <m_primary>  (49) 
energy

$$$$
