0:0
     RDKit          3D

 56 58  0  0  0  0  0  0  0  0999 V2000
   63.4570   33.1200   46.7610 C   0  0  0  0  0  0  0  0  0  0  0  0
   62.7800   32.2230   47.8000 C   0  0  0  0  0  0  0  0  0  0  0  0
   62.2730   32.9500   48.9840 N   0  0  0  0  0  0  0  0  0  0  0  0
   62.6220   34.3800   49.0080 C   0  0  0  0  0  0  0  0  0  0  0  0
   62.3980   32.2350   50.2760 C   0  0  0  0  0  0  0  0  0  0  0  0
   61.4940   32.7790   51.4040 C   0  0  0  0  0  0  0  0  0  0  0  0
   60.4670   33.5980   50.8770 O   0  0  0  0  0  0  0  0  0  0  0  0
   59.2390   33.4130   51.5620 C   0  0  0  0  0  0  0  0  0  0  0  0
   58.8080   31.9470   51.4630 C   0  0  0  0  0  0  0  0  0  0  0  0
   58.3440   31.5490   50.0500 C   0  0  0  0  0  0  0  0  0  0  0  0
   59.3790   31.8060   49.0460 N   0  0  0  0  0  0  0  0  0  0  0  0
   59.1160   31.7750   47.6320 C   0  0  0  0  0  0  0  0  0  0  0  0
   59.1670   32.9610   46.8810 C   0  0  0  0  0  0  0  0  0  0  0  0
   59.5600   34.1780   47.4790 C   0  0  0  0  0  0  0  0  0  0  0  0
   59.6420   35.3450   46.7250 C   0  0  0  0  0  0  0  0  0  0  0  0
   59.3500   35.3190   45.3670 C   0  0  0  0  0  0  0  0  0  0  0  0
   58.9450   34.1330   44.7590 C   0  0  0  0  0  0  0  0  0  0  0  0
   58.8120   32.9350   45.5060 C   0  0  0  0  0  0  0  0  0  0  0  0
   58.3600   31.7630   44.9290 N   0  0  0  0  0  0  0  0  0  0  0  0
   57.7170   31.7960   43.5960 C   0  0  0  0  0  0  0  0  0  0  0  0
   58.5010   30.5640   45.6020 C   0  0  0  0  0  0  0  0  0  0  0  0
   58.3120   29.3170   44.9530 C   0  0  0  0  0  0  0  0  0  0  0  0
   58.4250   28.1140   45.6530 C   0  0  0  0  0  0  0  0  0  0  0  0
   58.1680   26.5890   44.8260 Cl  0  0  0  0  0  0  0  0  0  0  0  0
   58.7610   28.1210   47.0030 C   0  0  0  0  0  0  0  0  0  0  0  0
   58.9950   29.3270   47.6570 C   0  0  0  0  0  0  0  0  0  0  0  0
   58.8630   30.5560   46.9760 C   0  0  0  0  0  0  0  0  0  0  0  0
   64.0433   33.8968   47.2736 H   0  0  0  0  0  0  0  0  0  0  0  0
   64.1240   32.5129   46.1313 H   0  0  0  0  0  0  0  0  0  0  0  0
   62.6902   33.5950   46.1313 H   0  0  0  0  0  0  0  0  0  0  0  0
   61.9325   31.7139   47.3177 H   0  0  0  0  0  0  0  0  0  0  0  0
   63.5459   31.5211   48.1616 H   0  0  0  0  0  0  0  0  0  0  0  0
   62.7049   34.7197   50.0509 H   0  0  0  0  0  0  0  0  0  0  0  0
   63.5835   34.5314   48.4955 H   0  0  0  0  0  0  0  0  0  0  0  0
   61.8384   34.9573   48.4955 H   0  0  0  0  0  0  0  0  0  0  0  0
   62.1402   31.1787   50.1095 H   0  0  0  0  0  0  0  0  0  0  0  0
   63.4354   32.3791   50.6121 H   0  0  0  0  0  0  0  0  0  0  0  0
   61.0402   31.9333   51.9414 H   0  0  0  0  0  0  0  0  0  0  0  0
   62.1093   33.3826   52.0874 H   0  0  0  0  0  0  0  0  0  0  0  0
   59.3658   33.6861   52.6200 H   0  0  0  0  0  0  0  0  0  0  0  0
   58.4678   34.0508   51.1055 H   0  0  0  0  0  0  0  0  0  0  0  0
   59.6609   31.3115   51.7436 H   0  0  0  0  0  0  0  0  0  0  0  0
   57.9523   31.8098   52.1405 H   0  0  0  0  0  0  0  0  0  0  0  0
   58.1004   30.4763   50.0440 H   0  0  0  0  0  0  0  0  0  0  0  0
   57.4623   32.1556   49.7957 H   0  0  0  0  0  0  0  0  0  0  0  0
   60.3360   32.0740   49.3680 H   0  0  0  0  0  0  0  0  0  0  0  0
   59.8038   34.2042   48.5513 H   0  0  0  0  0  0  0  0  0  0  0  0
   59.9384   36.2893   47.2050 H   0  0  0  0  0  0  0  0  0  0  0  0
   59.4390   36.2384   44.7697 H   0  0  0  0  0  0  0  0  0  0  0  0
   58.7246   34.1256   43.6813 H   0  0  0  0  0  0  0  0  0  0  0  0
   56.6251   31.8520   43.7169 H   0  0  0  0  0  0  0  0  0  0  0  0
   58.0701   32.6772   43.0403 H   0  0  0  0  0  0  0  0  0  0  0  0
   57.9780   30.8833   43.0403 H   0  0  0  0  0  0  0  0  0  0  0  0
   58.0723   29.2972   43.8796 H   0  0  0  0  0  0  0  0  0  0  0  0
   58.8418   27.1724   47.5540 H   0  0  0  0  0  0  0  0  0  0  0  0
   59.2864   29.3222   48.7177 H   0  0  0  0  0  0  0  0  0  0  0  0
  1  2  1  0
  2  3  1  0
  3  4  1  0
  3  5  1  0
  5  6  1  0
  6  7  1  0
  7  8  1  0
  8  9  1  0
  9 10  1  0
 10 11  1  0
 11 12  1  0
 12 13  2  0
 13 14  1  0
 14 15  2  0
 15 16  1  0
 16 17  2  0
 17 18  1  0
 18 19  2  0
 19 20  1  0
 19 21  1  0
 21 22  2  0
 22 23  1  0
 23 24  1  0
 23 25  2  0
 25 26  1  0
 26 27  2  0
 27 12  1  0
 18 13  1  0
 27 21  1  0
  1 28  1  0
  1 29  1  0
  1 30  1  0
  2 31  1  0
  2 32  1  0
  4 33  1  0
  4 34  1  0
  4 35  1  0
  5 36  1  0
  5 37  1  0
  6 38  1  0
  6 39  1  0
  8 40  1  0
  8 41  1  0
  9 42  1  0
  9 43  1  0
 10 44  1  0
 10 45  1  0
 11 46  1  0
 14 47  1  0
 15 48  1  0
 16 49  1  0
 17 50  1  0
 20 51  1  0
 20 52  1  0
 20 53  1  0
 22 54  1  0
 25 55  1  0
 26 56  1  0
M  CHG  1  19   1
M  END
>  <UniqueID>  (1) 
1

>  <SMILES>  (1) 
CCN(C)CCOCCCNc1c2ccccc2[n+](C)c2cc(Cl)ccc12

>  <Energy>  (1) 
85.22138014417104

>  <Genealogy>  (1) 
CCN(C)CCOCCCNc1c2ccccc2[n+](C)c2cc(Cl)ccc12 (3D coordinates assigned)
CCN(C)CCOCCCNc1c2ccccc2[n+](C)c2cc(Cl)ccc12 (optimized conformer: 85.22138014417104 kcal/mol)

>  <smiles>  (1) 
CCN(C)CCOCCCNc1c2ccccc2[n+](C)c2cc(Cl)ccc12

>  <score_type>  (1) 
oracle

>  <origin>  (1) 
adg

>  <m_score__min__energy>  (1) 
-6.0300000000000002

>  <m_primary>  (1) 
energy

$$$$
1:0
     RDKit          3D

 56 59  0  0  0  0  0  0  0  0999 V2000
   59.2880   26.7990   47.2420 C   0  0  0  0  0  0  0  0  0  0  0  0
   58.6270   27.8690   46.4160 C   0  0  0  0  0  0  0  0  0  0  0  0
   57.3890   27.7210   45.7840 C   0  0  0  0  0  0  0  0  0  0  0  0
   56.5030   26.5430   45.8430 C   0  0  0  0  0  0  0  0  0  0  0  0
   55.2630   26.7130   45.9970 O   0  0  0  0  0  0  0  0  0  0  0  0
   57.0650   25.1400   45.7690 C   0  0  0  0  0  0  0  0  0  0  0  0
   55.9570   24.0950   45.8560 C   0  0  0  0  0  0  0  0  0  0  0  0
   55.5550   23.7820   44.4210 C   0  0  0  0  0  0  0  0  0  0  0  0
   56.7160   24.2130   43.5300 C   0  0  0  0  0  0  0  0  0  0  0  0
   57.7520   24.8800   44.4310 C   0  0  0  0  0  0  0  0  0  0  0  0
   57.2150   28.8690   45.0320 C   0  0  0  0  0  0  0  0  0  0  0  0
   56.1590   29.2780   44.2140 C   0  0  0  0  0  0  0  0  0  0  0  0
   56.2770   30.5080   43.5480 C   0  0  0  0  0  0  0  0  0  0  0  0
   57.4290   31.3010   43.7120 C   0  0  0  0  0  0  0  0  0  0  0  0
   58.4730   30.8770   44.5520 C   0  0  0  0  0  0  0  0  0  0  0  0
   58.3330   29.6490   45.2140 C   0  0  0  0  0  0  0  0  0  0  0  0
   59.2070   29.0470   46.0550 N   0  0  0  0  0  0  0  0  0  0  0  0
   60.5550   29.5160   46.4070 C   0  0  0  0  0  0  0  0  0  0  0  0
   60.5090   30.5310   47.5580 C   0  0  0  0  0  0  0  0  0  0  0  0
   60.5960   31.9800   47.0600 C   0  0  0  0  0  0  0  0  0  0  0  0
   59.8800   32.8830   47.9920 N   0  0  0  0  0  0  0  0  0  0  0  0
   58.4160   32.7290   47.8930 C   0  0  0  0  0  0  0  0  0  0  0  0
   57.8690   33.2890   46.5580 C   0  0  0  0  0  0  0  0  0  0  0  0
   58.7810   34.1510   45.8990 O   0  0  0  0  0  0  0  0  0  0  0  0
   59.3550   35.0510   46.8230 C   0  0  0  0  0  0  0  0  0  0  0  0
   60.2710   34.3030   47.8150 C   0  0  0  0  0  0  0  0  0  0  0  0
   59.1499   27.0226   48.3101 H   0  0  0  0  0  0  0  0  0  0  0  0
   58.8346   25.8241   47.0099 H   0  0  0  0  0  0  0  0  0  0  0  0
   60.3628   26.7681   47.0099 H   0  0  0  0  0  0  0  0  0  0  0  0
   57.7709   25.0617   46.6090 H   0  0  0  0  0  0  0  0  0  0  0  0
   56.3272   23.1873   46.3550 H   0  0  0  0  0  0  0  0  0  0  0  0
   55.1017   24.4652   46.4403 H   0  0  0  0  0  0  0  0  0  0  0  0
   55.3709   22.7036   44.3067 H   0  0  0  0  0  0  0  0  0  0  0  0
   54.6311   24.3124   44.1469 H   0  0  0  0  0  0  0  0  0  0  0  0
   57.1567   23.3355   43.0342 H   0  0  0  0  0  0  0  0  0  0  0  0
   56.3724   24.9073   42.7490 H   0  0  0  0  0  0  0  0  0  0  0  0
   58.6169   24.2150   44.5715 H   0  0  0  0  0  0  0  0  0  0  0  0
   58.1201   25.8162   43.9860 H   0  0  0  0  0  0  0  0  0  0  0  0
   55.2609   28.6541   44.0952 H   0  0  0  0  0  0  0  0  0  0  0  0
   55.4639   30.8548   42.8934 H   0  0  0  0  0  0  0  0  0  0  0  0
   57.5124   32.2595   43.1787 H   0  0  0  0  0  0  0  0  0  0  0  0
   59.3752   31.4917   44.6864 H   0  0  0  0  0  0  0  0  0  0  0  0
   61.1658   28.6540   46.7135 H   0  0  0  0  0  0  0  0  0  0  0  0
   60.9923   30.0090   45.5263 H   0  0  0  0  0  0  0  0  0  0  0  0
   59.5643   30.4015   48.1064 H   0  0  0  0  0  0  0  0  0  0  0  0
   61.3782   30.3449   48.2060 H   0  0  0  0  0  0  0  0  0  0  0  0
   61.6522   32.2815   47.0008 H   0  0  0  0  0  0  0  0  0  0  0  0
   60.1311   32.0473   46.0653 H   0  0  0  0  0  0  0  0  0  0  0  0
   58.1649   31.6602   47.9605 H   0  0  0  0  0  0  0  0  0  0  0  0
   57.9558   33.2955   48.7160 H   0  0  0  0  0  0  0  0  0  0  0  0
   57.6423   32.4441   45.8911 H   0  0  0  0  0  0  0  0  0  0  0  0
   56.9723   33.8807   46.7945 H   0  0  0  0  0  0  0  0  0  0  0  0
   59.9484   35.7994   46.2773 H   0  0  0  0  0  0  0  0  0  0  0  0
   58.5482   35.5416   47.3872 H   0  0  0  0  0  0  0  0  0  0  0  0
   61.3036   34.3398   47.4376 H   0  0  0  0  0  0  0  0  0  0  0  0
   60.1788   34.7986   48.7927 H   0  0  0  0  0  0  0  0  0  0  0  0
  1  2  1  0
  2  3  2  0
  3  4  1  0
  4  5  2  0
  4  6  1  0
  6  7  1  0
  7  8  1  0
  8  9  1  0
  9 10  1  0
  3 11  1  0
 11 12  2  0
 12 13  1  0
 13 14  2  0
 14 15  1  0
 15 16  2  0
 16 17  1  0
 17 18  1  0
 18 19  1  0
 19 20  1  0
 20 21  1  0
 21 22  1  0
 22 23  1  0
 23 24  1  0
 24 25  1  0
 25 26  1  0
 17  2  1  0
 26 21  1  0
 10  6  1  0
 16 11  1  0
  1 27  1  0
  1 28  1  0
  1 29  1  0
  6 30  1  0
  7 31  1  0
  7 32  1  0
  8 33  1  0
  8 34  1  0
  9 35  1  0
  9 36  1  0
 10 37  1  0
 10 38  1  0
 12 39  1  0
 13 40  1  0
 14 41  1  0
 15 42  1  0
 18 43  1  0
 18 44  1  0
 19 45  1  0
 19 46  1  0
 20 47  1  0
 20 48  1  0
 22 49  1  0
 22 50  1  0
 23 51  1  0
 23 52  1  0
 25 53  1  0
 25 54  1  0
 26 55  1  0
 26 56  1  0
M  END
>  <UniqueID>  (2) 
2

>  <SMILES>  (2) 
Cc1c(C(=O)C2CCCC2)c2ccccc2n1CCCN1CCOCC1

>  <Energy>  (2) 
103.41015713111884

>  <Genealogy>  (2) 
Cc1c(C(=O)C2CCCC2)c2ccccc2n1CCCN1CCOCC1 (3D coordinates assigned)
Cc1c(C(=O)C2CCCC2)c2ccccc2n1CCCN1CCOCC1 (nonaromatic ring conformer: 103.41015713111884 kcal/mol)

>  <smiles>  (2) 
Cc1c(C(=O)C2CCCC2)c2ccccc2n1CCCN1CCOCC1

>  <score_type>  (2) 
oracle

>  <origin>  (2) 
adg

>  <m_score__min__energy>  (2) 
-8.5099999999999998

>  <m_primary>  (2) 
energy

$$$$
2:0
     RDKit          3D

 83 86  0  0  0  0  0  0  0  0999 V2000
   63.3760   33.8710   46.3660 C   0  0  0  0  0  0  0  0  0  0  0  0
   63.5080   32.6050   47.2290 C   0  0  0  0  0  0  0  0  0  0  0  0
   63.4720   32.7740   48.7270 N   0  0  0  0  0  0  0  0  0  0  0  0
   62.6570   34.0060   49.0350 C   0  0  0  0  0  0  0  0  0  0  0  0
   61.6900   33.9030   50.2380 C   0  0  0  0  0  0  0  0  0  0  0  0
   64.8480   32.8200   49.3370 C   0  0  0  0  0  0  0  0  0  0  0  0
   65.1560   31.8450   50.4990 C   0  0  0  0  0  0  0  0  0  0  0  0
   62.6990   31.5880   49.2770 C   0  0  0  0  0  0  0  0  0  0  0  0
   61.6370   30.8860   48.3720 C   0  0  0  0  0  0  0  0  0  0  0  0
   60.2450   31.2760   48.6580 N   0  0  0  0  0  0  0  0  0  0  0  0
   59.4650   31.3270   47.4290 C   0  0  0  0  0  0  0  0  0  0  0  0
   59.3140   32.5500   46.7230 C   0  0  0  0  0  0  0  0  0  0  0  0
   59.7860   33.7770   47.2540 C   0  0  0  0  0  0  0  0  0  0  0  0
   59.7300   34.9510   46.5080 C   0  0  0  0  0  0  0  0  0  0  0  0
   59.2110   34.9340   45.2220 C   0  0  0  0  0  0  0  0  0  0  0  0
   58.6900   33.7560   44.6970 C   0  0  0  0  0  0  0  0  0  0  0  0
   58.6730   32.5560   45.4540 C   0  0  0  0  0  0  0  0  0  0  0  0
   58.0580   31.4150   44.9780 N   0  0  0  0  0  0  0  0  0  0  0  0
   57.1310   31.5060   43.8250 C   0  0  0  0  0  0  0  0  0  0  0  0
   58.2500   30.2030   45.6110 C   0  0  0  0  0  0  0  0  0  0  0  0
   57.8290   28.9860   45.0130 C   0  0  0  0  0  0  0  0  0  0  0  0
   57.9190   27.7650   45.6970 C   0  0  0  0  0  0  0  0  0  0  0  0
   57.4870   26.5510   45.1430 O   0  0  0  0  0  0  0  0  0  0  0  0
   57.8620   26.0650   43.8560 C   0  0  0  0  0  0  0  0  0  0  0  0
   57.0220   24.8330   43.4460 C   0  0  0  0  0  0  0  0  0  0  0  0
   56.6170   23.8940   44.5530 N   0  0  0  0  0  0  0  0  0  0  0  0
   55.5510   24.5090   45.3890 C   0  0  0  0  0  0  0  0  0  0  0  0
   56.0160   22.6670   43.9390 C   0  0  0  0  0  0  0  0  0  0  0  0
   57.0250   21.8450   43.1090 C   0  0  0  0  0  0  0  0  0  0  0  0
   58.3930   21.7150   43.7950 C   0  0  0  0  0  0  0  0  0  0  0  0
   58.3240   22.1030   45.2680 C   0  0  0  0  0  0  0  0  0  0  0  0
   57.7980   23.5440   45.4290 C   0  0  0  0  0  0  0  0  0  0  0  0
   58.4480   27.7450   46.9800 C   0  0  0  0  0  0  0  0  0  0  0  0
   58.9300   28.9110   47.5660 C   0  0  0  0  0  0  0  0  0  0  0  0
   58.8900   30.1480   46.8800 C   0  0  0  0  0  0  0  0  0  0  0  0
   63.2842   34.7517   47.0186 H   0  0  0  0  0  0  0  0  0  0  0  0
   64.2680   33.9766   45.7310 H   0  0  0  0  0  0  0  0  0  0  0  0
   62.4814   33.7903   45.7310 H   0  0  0  0  0  0  0  0  0  0  0  0
   62.6827   31.9317   46.9539 H   0  0  0  0  0  0  0  0  0  0  0  0
   64.5180   32.2253   47.0151 H   0  0  0  0  0  0  0  0  0  0  0  0
   63.3575   34.8297   49.2372 H   0  0  0  0  0  0  0  0  0  0  0  0
   62.0158   34.1620   48.1549 H   0  0  0  0  0  0  0  0  0  0  0  0
   62.2628   33.9640   51.1751 H   0  0  0  0  0  0  0  0  0  0  0  0
   60.9647   34.7290   50.1972 H   0  0  0  0  0  0  0  0  0  0  0  0
   61.1549   32.9428   50.1972 H   0  0  0  0  0  0  0  0  0  0  0  0
   65.5700   32.6114   48.5337 H   0  0  0  0  0  0  0  0  0  0  0  0
   64.9168   33.8203   49.7895 H   0  0  0  0  0  0  0  0  0  0  0  0
   64.9944   32.3564   51.4594 H   0  0  0  0  0  0  0  0  0  0  0  0
   64.4898   30.9723   50.4317 H   0  0  0  0  0  0  0  0  0  0  0  0
   66.2027   31.5134   50.4317 H   0  0  0  0  0  0  0  0  0  0  0  0
   63.4389   30.8236   49.5567 H   0  0  0  0  0  0  0  0  0  0  0  0
   62.1026   32.0200   50.0941 H   0  0  0  0  0  0  0  0  0  0  0  0
   61.8570   31.1374   47.3240 H   0  0  0  0  0  0  0  0  0  0  0  0
   61.7110   29.8078   48.5771 H   0  0  0  0  0  0  0  0  0  0  0  0
   59.8060   30.6220   49.3420 H   0  0  0  0  0  0  0  0  0  0  0  0
   60.2150   32.1970   49.1420 H   0  0  0  0  0  0  0  0  0  0  0  0
   60.2031   33.8017   48.2716 H   0  0  0  0  0  0  0  0  0  0  0  0
   60.0980   35.8937   46.9392 H   0  0  0  0  0  0  0  0  0  0  0  0
   59.2114   35.8526   44.6169 H   0  0  0  0  0  0  0  0  0  0  0  0
   58.2832   33.7547   43.6750 H   0  0  0  0  0  0  0  0  0  0  0  0
   56.0988   31.6073   44.1915 H   0  0  0  0  0  0  0  0  0  0  0  0
   57.3909   32.3830   43.2139 H   0  0  0  0  0  0  0  0  0  0  0  0
   57.2154   30.5953   43.2139 H   0  0  0  0  0  0  0  0  0  0  0  0
   57.4233   29.0012   43.9907 H   0  0  0  0  0  0  0  0  0  0  0  0
   57.7101   26.8634   43.1147 H   0  0  0  0  0  0  0  0  0  0  0  0
   58.9189   25.7628   43.8968 H   0  0  0  0  0  0  0  0  0  0  0  0
   56.1025   25.2004   42.9669 H   0  0  0  0  0  0  0  0  0  0  0  0
   57.6762   24.2415   42.7887 H   0  0  0  0  0  0  0  0  0  0  0  0
   55.7931   24.3694   46.4529 H   0  0  0  0  0  0  0  0  0  0  0  0
   55.4847   25.5841   45.1661 H   0  0  0  0  0  0  0  0  0  0  0  0
   54.5871   24.0282   45.1661 H   0  0  0  0  0  0  0  0  0  0  0  0
   55.6244   22.0289   44.7449 H   0  0  0  0  0  0  0  0  0  0  0  0
   55.2232   22.9999   43.2529 H   0  0  0  0  0  0  0  0  0  0  0  0
   56.6130   20.8371   42.9525 H   0  0  0  0  0  0  0  0  0  0  0  0
   57.1804   22.3743   42.1573 H   0  0  0  0  0  0  0  0  0  0  0  0
   58.7335   20.6720   43.7166 H   0  0  0  0  0  0  0  0  0  0  0  0
   59.0947   22.3973   43.2930 H   0  0  0  0  0  0  0  0  0  0  0  0
   57.6481   21.4114   45.7922 H   0  0  0  0  0  0  0  0  0  0  0  0
   59.3357   22.0463   45.6961 H   0  0  0  0  0  0  0  0  0  0  0  0
   57.4977   23.6825   46.4781 H   0  0  0  0  0  0  0  0  0  0  0  0
   58.6186   24.2075   45.1186 H   0  0  0  0  0  0  0  0  0  0  0  0
   58.4865   26.7983   47.5387 H   0  0  0  0  0  0  0  0  0  0  0  0
   59.3501   28.8706   48.5818 H   0  0  0  0  0  0  0  0  0  0  0  0
  1  2  1  0
  2  3  1  0
  3  4  1  0
  4  5  1  0
  3  6  1  0
  6  7  1  0
  3  8  1  0
  8  9  1  0
  9 10  1  0
 10 11  1  0
 11 12  2  0
 12 13  1  0
 13 14  2  0
 14 15  1  0
 15 16  2  0
 16 17  1  0
 17 18  2  0
 18 19  1  0
 18 20  1  0
 20 21  2  0
 21 22  1  0
 22 23  1  0
 23 24  1  0
 24 25  1  0
 25 26  1  0
 26 27  1  0
 26 28  1  0
 28 29  1  0
 29 30  1  0
 30 31  1  0
 31 32  1  0
 22 33  2  0
 33 34  1  0
 34 35  2  0
 35 11  1  0
 17 12  1  0
 35 20  1  0
 32 26  1  0
  1 36  1  0
  1 37  1  0
  1 38  1  0
  2 39  1  0
  2 40  1  0
  4 41  1  0
  4 42  1  0
  5 43  1  0
  5 44  1  0
  5 45  1  0
  6 46  1  0
  6 47  1  0
  7 48  1  0
  7 49  1  0
  7 50  1  0
  8 51  1  0
  8 52  1  0
  9 53  1  0
  9 54  1  0
 10 55  1  0
 10 56  1  0
 13 57  1  0
 14 58  1  0
 15 59  1  0
 16 60  1  0
 19 61  1  0
 19 62  1  0
 19 63  1  0
 21 64  1  0
 24 65  1  0
 24 66  1  0
 25 67  1  0
 25 68  1  0
 27 69  1  0
 27 70  1  0
 27 71  1  0
 28 72  1  0
 28 73  1  0
 29 74  1  0
 29 75  1  0
 30 76  1  0
 30 77  1  0
 31 78  1  0
 31 79  1  0
 32 80  1  0
 32 81  1  0
 33 82  1  0
 34 83  1  0
M  CHG  4   3   1  10   1  18   1  26   1
M  END
>  <UniqueID>  (3) 
3

>  <SMILES>  (3) 
CC[N+](CC)(CC)CC[NH2+]c1c2ccccc2[n+](C)c2cc(OCC[N+]3(C)CCCCC3)ccc12

>  <Energy>  (3) 
162.3024902035782

>  <Genealogy>  (3) 
CC[N+](CC)(CC)CC[NH2+]c1c2ccccc2[n+](C)c2cc(OCC[N+]3(C)CCCCC3)ccc12 (protonated)
CC[N+](CC)(CC)CC[NH2+]c1c2ccccc2[n+](C)c2cc(OCC[N+]3(C)CCCCC3)ccc12 (3D coordinates assigned)
CC[N+](CC)(CC)CC[NH2+]c1c2ccccc2[n+](C)c2cc(OCC[N+]3(C)CCCCC3)ccc12 (nonaromatic ring conformer: 162.3024902035782 kcal/mol)

>  <smiles>  (3) 
CC[N+](CC)(CC)CCNc1c2ccccc2[n+](C)c2cc(OCC[N+]3(C)CCCCC3)ccc12

>  <score_type>  (3) 
oracle

>  <origin>  (3) 
adg

>  <m_score__min__energy>  (3) 
-2.75

>  <m_primary>  (3) 
energy

$$$$
3:0
     RDKit          3D

 61 63  0  0  0  0  0  0  0  0999 V2000
   56.2460   29.8410   43.5930 C   0  0  0  0  0  0  0  0  0  0  0  0
   57.3710   29.7190   44.6140 C   0  0  0  0  0  0  0  0  0  0  0  0
   57.5670   31.0060   45.3010 N   0  0  0  0  0  0  0  0  0  0  0  0
   56.6420   32.0580   44.8390 C   0  0  0  0  0  0  0  0  0  0  0  0
   57.0160   33.4510   45.3770 C   0  0  0  0  0  0  0  0  0  0  0  0
   58.3690   33.4310   45.7960 O   0  0  0  0  0  0  0  0  0  0  0  0
   59.0620   34.5710   45.3090 C   0  0  0  0  0  0  0  0  0  0  0  0
   59.6410   35.3850   46.4710 C   0  0  0  0  0  0  0  0  0  0  0  0
   60.4560   34.5700   47.2840 O   0  0  0  0  0  0  0  0  0  0  0  0
   61.3970   33.8510   46.5170 C   0  0  0  0  0  0  0  0  0  0  0  0
   61.2660   32.3460   46.8110 C   0  0  0  0  0  0  0  0  0  0  0  0
   59.8870   31.9270   47.1300 N   0  0  0  0  0  0  0  0  0  0  0  0
   59.8510   30.7600   48.0090 C   0  0  0  0  0  0  0  0  0  0  0  0
   60.0760   29.4420   47.5040 C   0  0  0  0  0  0  0  0  0  0  0  0
   60.2320   29.1700   46.1150 C   0  0  0  0  0  0  0  0  0  0  0  0
   60.4030   27.8690   45.6460 C   0  0  0  0  0  0  0  0  0  0  0  0
   60.4220   26.8020   46.5320 C   0  0  0  0  0  0  0  0  0  0  0  0
   60.3150   27.0330   47.8990 C   0  0  0  0  0  0  0  0  0  0  0  0
   60.1900   28.3500   48.4180 C   0  0  0  0  0  0  0  0  0  0  0  0
   60.1940   28.5800   49.7760 N   0  0  0  0  0  0  0  0  0  0  0  0
   60.6870   27.5310   50.7020 C   0  0  0  0  0  0  0  0  0  0  0  0
   59.7920   29.8010   50.2750 C   0  0  0  0  0  0  0  0  0  0  0  0
   59.5130   29.9690   51.6550 C   0  0  0  0  0  0  0  0  0  0  0  0
   59.1970   31.2170   52.1840 C   0  0  0  0  0  0  0  0  0  0  0  0
   59.1170   32.3320   51.3540 C   0  0  0  0  0  0  0  0  0  0  0  0
   58.7790   33.6710   51.9460 C   0  0  0  0  0  0  0  0  0  0  0  0
   59.3390   32.1860   49.9800 C   0  0  0  0  0  0  0  0  0  0  0  0
   59.6540   30.9230   49.4100 C   0  0  0  0  0  0  0  0  0  0  0  0
   55.2847   29.9453   44.1174 H   0  0  0  0  0  0  0  0  0  0  0  0
   56.4175   30.7258   42.9624 H   0  0  0  0  0  0  0  0  0  0  0  0
   56.2239   28.9400   42.9624 H   0  0  0  0  0  0  0  0  0  0  0  0
   57.1104   28.9472   45.3532 H   0  0  0  0  0  0  0  0  0  0  0  0
   58.3006   29.4400   44.0964 H   0  0  0  0  0  0  0  0  0  0  0  0
   58.5570   31.3210   45.1970 H   0  0  0  0  0  0  0  0  0  0  0  0
   56.6624   32.0875   43.7396 H   0  0  0  0  0  0  0  0  0  0  0  0
   55.6396   31.8115   45.2189 H   0  0  0  0  0  0  0  0  0  0  0  0
   56.8861   34.2010   44.5829 H   0  0  0  0  0  0  0  0  0  0  0  0
   56.3660   33.7105   46.2256 H   0  0  0  0  0  0  0  0  0  0  0  0
   59.8818   34.2432   44.6530 H   0  0  0  0  0  0  0  0  0  0  0  0
   58.3571   35.2030   44.7488 H   0  0  0  0  0  0  0  0  0  0  0  0
   60.2430   36.2132   46.0689 H   0  0  0  0  0  0  0  0  0  0  0  0
   58.8128   35.7797   47.0778 H   0  0  0  0  0  0  0  0  0  0  0  0
   61.2119   34.0320   45.4479 H   0  0  0  0  0  0  0  0  0  0  0  0
   62.4116   34.1859   46.7786 H   0  0  0  0  0  0  0  0  0  0  0  0
   61.6038   31.7874   45.9256 H   0  0  0  0  0  0  0  0  0  0  0  0
   61.8821   32.1343   47.6974 H   0  0  0  0  0  0  0  0  0  0  0  0
   59.3560   31.8070   46.2470 H   0  0  0  0  0  0  0  0  0  0  0  0
   59.3780   32.7230   47.5700 H   0  0  0  0  0  0  0  0  0  0  0  0
   60.2172   30.0038   45.3977 H   0  0  0  0  0  0  0  0  0  0  0  0
   60.5235   27.6873   44.5678 H   0  0  0  0  0  0  0  0  0  0  0  0
   60.5216   25.7740   46.1536 H   0  0  0  0  0  0  0  0  0  0  0  0
   60.3274   26.1793   48.5925 H   0  0  0  0  0  0  0  0  0  0  0  0
   60.5335   27.8576   51.7411 H   0  0  0  0  0  0  0  0  0  0  0  0
   60.1337   26.5968   50.5257 H   0  0  0  0  0  0  0  0  0  0  0  0
   61.7594   27.3608   50.5257 H   0  0  0  0  0  0  0  0  0  0  0  0
   59.5470   29.0946   52.3215 H   0  0  0  0  0  0  0  0  0  0  0  0
   59.0096   31.3229   53.2627 H   0  0  0  0  0  0  0  0  0  0  0  0
   58.7965   33.6016   53.0437 H   0  0  0  0  0  0  0  0  0  0  0  0
   59.5173   34.4157   51.6139 H   0  0  0  0  0  0  0  0  0  0  0  0
   57.7757   33.9760   51.6139 H   0  0  0  0  0  0  0  0  0  0  0  0
   59.2681   33.0683   49.3269 H   0  0  0  0  0  0  0  0  0  0  0  0
  1  2  1  0
  2  3  1  0
  3  4  1  0
  4  5  1  0
  5  6  1  0
  6  7  1  0
  7  8  1  0
  8  9  1  0
  9 10  1  0
 10 11  1  0
 11 12  1  0
 12 13  1  0
 13 14  2  0
 14 15  1  0
 15 16  2  0
 16 17  1  0
 17 18  2  0
 18 19  1  0
 19 20  2  0
 20 21  1  0
 20 22  1  0
 22 23  2  0
 23 24  1  0
 24 25  2  0
 25 26  1  0
 25 27  1  0
 27 28  2  0
 28 13  1  0
 19 14  1  0
 28 22  1  0
  1 29  1  0
  1 30  1  0
  1 31  1  0
  2 32  1  0
  2 33  1  0
  3 34  1  0
  4 35  1  0
  4 36  1  0
  5 37  1  0
  5 38  1  0
  7 39  1  0
  7 40  1  0
  8 41  1  0
  8 42  1  0
 10 43  1  0
 10 44  1  0
 11 45  1  0
 11 46  1  0
 12 47  1  0
 12 48  1  0
 15 49  1  0
 16 50  1  0
 17 51  1  0
 18 52  1  0
 21 53  1  0
 21 54  1  0
 21 55  1  0
 23 56  1  0
 24 57  1  0
 26 58  1  0
 26 59  1  0
 26 60  1  0
 27 61  1  0
M  CHG  2  12   1  20   1
M  END
>  <UniqueID>  (4) 
4

>  <SMILES>  (4) 
CCNCCOCCOCC[NH2+]c1c2ccccc2[n+](C)c2ccc(C)cc12

>  <Energy>  (4) 
87.36089522898189

>  <Genealogy>  (4) 
CCNCCOCCOCC[NH2+]c1c2ccccc2[n+](C)c2ccc(C)cc12 (protonated)
CCNCCOCCOCC[NH2+]c1c2ccccc2[n+](C)c2ccc(C)cc12 (3D coordinates assigned)
CCNCCOCCOCC[NH2+]c1c2ccccc2[n+](C)c2ccc(C)cc12 (optimized conformer: 87.36089522898189 kcal/mol)

>  <smiles>  (4) 
CCNCCOCCOCCNc1c2ccccc2[n+](C)c2ccc(C)cc12

>  <score_type>  (4) 
oracle

>  <origin>  (4) 
adg

>  <m_score__min__energy>  (4) 
-3.8300000000000001

>  <m_primary>  (4) 
energy

$$$$
4:0
     RDKit          3D

 59 60  0  0  0  0  0  0  0  0999 V2000
   61.8756   33.1801   50.8008 H   0  0  0  0  0  0  0  0  0  0  0  0
   61.5580   32.4160   50.0760 C   0  0  0  0  0  0  0  0  0  0  0  0
   62.1290   31.2110   50.1080 C   0  0  0  0  0  0  0  0  0  0  0  0
   63.1451   31.0786   49.7080 H   0  0  0  0  0  0  0  0  0  0  0  0
   61.4000   30.0380   50.6830 C   0  0  0  0  0  0  0  0  0  0  0  0
   61.0214   30.2919   51.6841 H   0  0  0  0  0  0  0  0  0  0  0  0
   62.0804   29.1776   50.7659 H   0  0  0  0  0  0  0  0  0  0  0  0
   60.3170   29.7160   49.8320 O   0  0  0  0  0  0  0  0  0  0  0  0
   60.7620   29.0150   48.6850 C   0  0  0  0  0  0  0  0  0  0  0  0
   61.1429   28.0280   48.9862 H   0  0  0  0  0  0  0  0  0  0  0  0
   61.5626   29.5909   48.1977 H   0  0  0  0  0  0  0  0  0  0  0  0
   59.6060   28.8330   47.7030 C   0  0  0  0  0  0  0  0  0  0  0  0
   58.8349   29.5933   47.8964 H   0  0  0  0  0  0  0  0  0  0  0  0
   59.1666   27.8324   47.8283 H   0  0  0  0  0  0  0  0  0  0  0  0
   60.0940   28.9780   46.3840 O   0  0  0  0  0  0  0  0  0  0  0  0
   59.5180   30.1060   45.7540 C   0  0  0  0  0  0  0  0  0  0  0  0
   59.5009   29.9446   44.6660 H   0  0  0  0  0  0  0  0  0  0  0  0
   60.1192   30.9954   45.9940 H   0  0  0  0  0  0  0  0  0  0  0  0
   58.0840   30.3230   46.2560 C   0  0  0  0  0  0  0  0  0  0  0  0
   57.9622   31.3754   46.5521 H   0  0  0  0  0  0  0  0  0  0  0  0
   57.9095   29.6576   47.1144 H   0  0  0  0  0  0  0  0  0  0  0  0
   57.0970   30.0000   45.2020 N   0  0  0  0  0  0  0  0  0  0  0  0
   57.3570   28.6610   44.6230 C   0  0  0  0  0  0  0  0  0  0  0  0
   58.4146   28.5913   44.3288 H   0  0  0  0  0  0  0  0  0  0  0  0
   56.7127   28.5188   43.7428 H   0  0  0  0  0  0  0  0  0  0  0  0
   57.0460   27.5740   45.6500 C   0  0  0  0  0  0  0  0  0  0  0  0
   57.1632   27.9835   46.6642 H   0  0  0  0  0  0  0  0  0  0  0  0
   56.0119   27.2249   45.5127 H   0  0  0  0  0  0  0  0  0  0  0  0
   57.7389   26.7308   45.5127 H   0  0  0  0  0  0  0  0  0  0  0  0
   57.0980   31.0440   44.1480 C   0  0  0  0  0  0  0  0  0  0  0  0
   56.4152   31.8552   44.4409 H   0  0  0  0  0  0  0  0  0  0  0  0
   58.1204   31.4331   44.0326 H   0  0  0  0  0  0  0  0  0  0  0  0
   56.6390   30.4570   42.8160 C   0  0  0  0  0  0  0  0  0  0  0  0
   55.9712   29.6030   43.0023 H   0  0  0  0  0  0  0  0  0  0  0  0
   56.1000   31.2257   42.2428 H   0  0  0  0  0  0  0  0  0  0  0  0
   57.5150   30.1192   42.2428 H   0  0  0  0  0  0  0  0  0  0  0  0
   60.5120   32.7480   49.0930 C   0  0  0  0  0  0  0  0  0  0  0  0
   59.2020   32.3890   49.4180 C   0  0  0  0  0  0  0  0  0  0  0  0
   58.9953   31.8668   50.3639 H   0  0  0  0  0  0  0  0  0  0  0  0
   58.1630   32.6880   48.5540 C   0  0  0  0  0  0  0  0  0  0  0  0
   57.1309   32.4144   48.8183 H   0  0  0  0  0  0  0  0  0  0  0  0
   58.4260   33.3360   47.3490 C   0  0  0  0  0  0  0  0  0  0  0  0
   57.3730   33.6170   46.4670 C   0  0  0  0  0  0  0  0  0  0  0  0
   56.3428   33.3435   46.7390 H   0  0  0  0  0  0  0  0  0  0  0  0
   57.6260   34.2410   45.2480 C   0  0  0  0  0  0  0  0  0  0  0  0
   56.7963   34.4592   44.5595 H   0  0  0  0  0  0  0  0  0  0  0  0
   58.9290   34.5890   44.9000 C   0  0  0  0  0  0  0  0  0  0  0  0
   59.1254   35.0755   43.9332 H   0  0  0  0  0  0  0  0  0  0  0  0
   59.9870   34.3240   45.7710 C   0  0  0  0  0  0  0  0  0  0  0  0
   61.0102   34.6056   45.4816 H   0  0  0  0  0  0  0  0  0  0  0  0
   59.7630   33.6970   47.0240 C   0  0  0  0  0  0  0  0  0  0  0  0
   60.7890   33.4260   47.9180 N   0  0  0  0  0  0  0  0  0  0  0  0
   62.1870   33.8320   47.6270 C   0  0  0  0  0  0  0  0  0  0  0  0
   62.1808   34.6184   46.8579 H   0  0  0  0  0  0  0  0  0  0  0  0
   62.6445   34.2052   48.5551 H   0  0  0  0  0  0  0  0  0  0  0  0
   63.0070   32.6450   47.1220 C   0  0  0  0  0  0  0  0  0  0  0  0
   63.3984   32.0784   47.9797 H   0  0  0  0  0  0  0  0  0  0  0  0
   62.3674   31.9907   46.5114 H   0  0  0  0  0  0  0  0  0  0  0  0
   63.8453   33.0117   46.5114 H   0  0  0  0  0  0  0  0  0  0  0  0
  1  2  1  0
  2  3  2  0
  3  4  1  0
  3  5  1  0
  5  6  1  0
  5  7  1  0
  5  8  1  0
  8  9  1  0
  9 10  1  0
  9 11  1  0
  9 12  1  0
 12 13  1  0
 12 14  1  0
 12 15  1  0
 15 16  1  0
 16 17  1  0
 16 18  1  0
 16 19  1  0
 19 20  1  0
 19 21  1  0
 19 22  1  0
 22 23  1  0
 23 24  1  0
 23 25  1  0
 23 26  1  0
 26 27  1  0
 26 28  1  0
 26 29  1  0
 22 30  1  0
 30 31  1  0
 30 32  1  0
 30 33  1  0
 33 34  1  0
 33 35  1  0
 33 36  1  0
  2 37  1  0
 37 38  2  0
 38 39  1  0
 38 40  1  0
 40 41  1  0
 40 42  2  0
 42 43  1  0
 43 44  1  0
 43 45  2  0
 45 46  1  0
 45 47  1  0
 47 48  1  0
 47 49  2  0
 49 50  1  0
 49 51  1  0
 51 52  2  0
 52 53  1  0
 53 54  1  0
 53 55  1  0
 53 56  1  0
 56 57  1  0
 56 58  1  0
 56 59  1  0
 52 37  1  0
 51 42  1  0
M  CHG  1  52   1
M  END
>  <UniqueID>  (5) 
5

>  <SMILES>  (5) 
CCN(CC)CCOCCOC/C=C/c1ccc2ccccc2[n+]1CC

>  <Energy>  (5) 
68.34460756629807

>  <Genealogy>  (5) 
CCN(CC)CCOCCOC/C=C/c1ccc2ccccc2[n+]1CC (cis-trans isomerization)
CCN(CC)CCOCCOC/C=C/c1ccc2ccccc2[n+]1CC (3D coordinates assigned)
CCN(CC)CCOCCOC/C=C/c1ccc2ccccc2[n+]1CC (optimized conformer: 68.34460756629807 kcal/mol)

>  <smiles>  (5) 
CCN(CC)CCOCCOCC=Cc1ccc2ccccc2[n+]1CC

>  <score_type>  (5) 
oracle

>  <origin>  (5) 
adg

>  <m_score__min__energy>  (5) 
-6.04

>  <m_primary>  (5) 
energy

$$$$
5:0
     RDKit          3D

 43 45  0  0  0  0  0  0  0  0999 V2000
   60.2330   28.5500   44.5720 C   0  0  0  0  0  0  0  0  0  0  0  0
   60.7550   28.5820   45.9480 N   0  0  0  0  0  0  0  0  0  0  0  0
   60.9440   29.9830   46.3650 C   0  0  0  0  0  0  0  0  0  0  0  0
   59.8300   27.8740   46.8600 C   0  0  0  0  0  0  0  0  0  0  0  0
   59.0960   26.7510   46.1240 C   0  0  0  0  0  0  0  0  0  0  0  0
   57.6750   26.7970   46.4550 N   0  0  0  0  0  0  0  0  0  0  0  0
   56.6930   27.5500   45.7330 C   0  0  0  0  0  0  0  0  0  0  0  0
   55.5270   27.0850   45.6340 O   0  0  0  0  0  0  0  0  0  0  0  0
   56.9920   28.8670   45.1400 C   0  0  0  0  0  0  0  0  0  0  0  0
   56.6380   29.1520   43.7950 C   0  0  0  0  0  0  0  0  0  0  0  0
   56.9080   30.4120   43.2310 C   0  0  0  0  0  0  0  0  0  0  0  0
   57.5190   31.3700   44.0360 C   0  0  0  0  0  0  0  0  0  0  0  0
   57.8430   32.6330   43.6980 N   0  0  0  0  0  0  0  0  0  0  0  0
   58.3770   33.1750   44.8160 C   0  0  0  0  0  0  0  0  0  0  0  0
   58.4230   32.2510   45.8460 C   0  0  0  0  0  0  0  0  0  0  0  0
   57.8490   31.1040   45.3430 C   0  0  0  0  0  0  0  0  0  0  0  0
   57.5910   29.8690   45.9340 C   0  0  0  0  0  0  0  0  0  0  0  0
   58.8850   32.5590   47.2380 C   0  0  0  0  0  0  0  0  0  0  0  0
   59.7400   33.8410   47.2440 C   0  0  0  0  0  0  0  0  0  0  0  0
   59.0940   34.9650   46.4070 C   0  0  0  0  0  0  0  0  0  0  0  0
   58.9420   34.5590   44.9270 C   0  0  0  0  0  0  0  0  0  0  0  0
   59.1354   28.4827   44.5977 H   0  0  0  0  0  0  0  0  0  0  0  0
   60.5318   29.4682   44.0450 H   0  0  0  0  0  0  0  0  0  0  0  0
   60.6417   27.6752   44.0450 H   0  0  0  0  0  0  0  0  0  0  0  0
   60.9518   30.0407   47.4635 H   0  0  0  0  0  0  0  0  0  0  0  0
   61.9007   30.3568   45.9714 H   0  0  0  0  0  0  0  0  0  0  0  0
   60.1205   30.5970   45.9714 H   0  0  0  0  0  0  0  0  0  0  0  0
   60.4043   27.4438   47.6937 H   0  0  0  0  0  0  0  0  0  0  0  0
   59.0877   28.5927   47.2375 H   0  0  0  0  0  0  0  0  0  0  0  0
   59.2237   26.8795   45.0390 H   0  0  0  0  0  0  0  0  0  0  0  0
   59.5117   25.7799   46.4307 H   0  0  0  0  0  0  0  0  0  0  0  0
   56.1467   28.3783   43.1867 H   0  0  0  0  0  0  0  0  0  0  0  0
   56.6446   30.6337   42.1863 H   0  0  0  0  0  0  0  0  0  0  0  0
   57.7070   33.0970   42.7720 H   0  0  0  0  0  0  0  0  0  0  0  0
   57.8462   29.6804   46.9872 H   0  0  0  0  0  0  0  0  0  0  0  0
   58.0093   32.7034   47.8878 H   0  0  0  0  0  0  0  0  0  0  0  0
   59.4932   31.7204   47.6079 H   0  0  0  0  0  0  0  0  0  0  0  0
   59.8522   34.1892   48.2814 H   0  0  0  0  0  0  0  0  0  0  0  0
   60.7172   33.6021   46.7991 H   0  0  0  0  0  0  0  0  0  0  0  0
   58.0991   35.1894   46.8190 H   0  0  0  0  0  0  0  0  0  0  0  0
   59.7488   35.8476   46.4548 H   0  0  0  0  0  0  0  0  0  0  0  0
   58.2659   35.2670   44.4253 H   0  0  0  0  0  0  0  0  0  0  0  0
   59.9331   34.5772   44.4502 H   0  0  0  0  0  0  0  0  0  0  0  0
  1  2  1  0
  2  3  1  0
  2  4  1  0
  4  5  1  0
  5  6  1  0
  6  7  1  0
  7  8  2  0
  7  9  1  0
  9 10  2  0
 10 11  1  0
 11 12  2  0
 12 13  1  0
 13 14  1  0
 14 15  2  0
 15 16  1  0
 16 17  2  0
 15 18  1  0
 18 19  1  0
 19 20  1  0
 20 21  1  0
 17  9  1  0
 16 12  1  0
 21 14  1  0
  1 22  1  0
  1 23  1  0
  1 24  1  0
  3 25  1  0
  3 26  1  0
  3 27  1  0
  4 28  1  0
  4 29  1  0
  5 30  1  0
  5 31  1  0
 10 32  1  0
 11 33  1  0
 13 34  1  0
 17 35  1  0
 18 36  1  0
 18 37  1  0
 19 38  1  0
 19 39  1  0
 20 40  1  0
 20 41  1  0
 21 42  1  0
 21 43  1  0
M  CHG  1   6  -1
M  END
>  <UniqueID>  (6) 
6

>  <SMILES>  (6) 
CN(C)CC[N-]C(=O)c1ccc2[nH]c3c(c2c1)CCCC3

>  <Energy>  (6) 
78.42449797632248

>  <Genealogy>  (6) 
CN(C)CC[N-]C(=O)c1ccc2[nH]c3c(c2c1)CCCC3 (protonated)
CN(C)CC[N-]C(=O)c1ccc2[nH]c3c(c2c1)CCCC3 (3D coordinates assigned)
CN(C)CC[N-]C(=O)c1ccc2[nH]c3c(c2c1)CCCC3 (nonaromatic ring conformer: 78.42449797632248 kcal/mol)

>  <smiles>  (6) 
CN(C)CCNC(=O)c1ccc2[nH]c3c(c2c1)CCCC3

>  <score_type>  (6) 
oracle

>  <origin>  (6) 
adg

>  <m_score__min__energy>  (6) 
-9.1500000000000004

>  <m_primary>  (6) 
energy

$$$$
6:0
     RDKit          3D

 38 39  0  0  0  0  0  0  0  0999 V2000
   51.3901   33.0844   53.2495 H   0  0  0  0  0  0  0  0  0  0  0  0
   51.4960   32.2920   52.4940 C   0  0  0  0  0  0  0  0  0  0  0  0
   51.0320   32.4890   51.2410 N   0  0  0  0  0  0  0  0  0  0  0  0
   51.1480   31.5450   50.2730 C   0  0  0  0  0  0  0  0  0  0  0  0
   50.6480   31.8400   49.0000 C   0  0  0  0  0  0  0  0  0  0  0  0
   50.1632   32.8098   48.8145 H   0  0  0  0  0  0  0  0  0  0  0  0
   50.7600   30.9150   47.9680 C   0  0  0  0  0  0  0  0  0  0  0  0
   50.3611   31.1509   46.9704 H   0  0  0  0  0  0  0  0  0  0  0  0
   51.3770   29.6920   48.2000 C   0  0  0  0  0  0  0  0  0  0  0  0
   51.4690   28.9633   47.3812 H   0  0  0  0  0  0  0  0  0  0  0  0
   51.8820   29.3800   49.4660 C   0  0  0  0  0  0  0  0  0  0  0  0
   52.3753   28.4098   49.6255 H   0  0  0  0  0  0  0  0  0  0  0  0
   51.7710   30.2890   50.5480 C   0  0  0  0  0  0  0  0  0  0  0  0
   52.2490   30.0610   51.8890 C   0  0  0  0  0  0  0  0  0  0  0  0
   52.8100   28.9720   52.3560 N   0  0  0  0  0  0  0  0  0  0  0  0
   53.8530   28.6840   53.3360 C   0  0  0  0  0  0  0  0  0  0  0  0
   54.3635   27.7518   53.0526 H   0  0  0  0  0  0  0  0  0  0  0  0
   53.3822   28.5845   54.3252 H   0  0  0  0  0  0  0  0  0  0  0  0
   54.8820   29.8160   53.4020 C   0  0  0  0  0  0  0  0  0  0  0  0
   55.5866   29.6255   54.2249 H   0  0  0  0  0  0  0  0  0  0  0  0
   54.3688   30.7729   53.5781 H   0  0  0  0  0  0  0  0  0  0  0  0
   55.5880   29.8730   52.1780 O   0  0  0  0  0  0  0  0  0  0  0  0
   56.1900   31.1440   52.0090 C   0  0  0  0  0  0  0  0  0  0  0  0
   56.0703   31.7284   52.9332 H   0  0  0  0  0  0  0  0  0  0  0  0
   55.7028   31.6630   51.1704 H   0  0  0  0  0  0  0  0  0  0  0  0
   57.6760   30.9870   51.7010 C   0  0  0  0  0  0  0  0  0  0  0  0
   58.2541   31.0497   52.6347 H   0  0  0  0  0  0  0  0  0  0  0  0
   57.9994   31.7878   51.0197 H   0  0  0  0  0  0  0  0  0  0  0  0
   57.8930   29.7300   51.0940 O   0  0  0  0  0  0  0  0  0  0  0  0
   59.1170   29.7260   50.3830 C   0  0  0  0  0  0  0  0  0  0  0  0
   59.4502   28.6875   50.2396 H   0  0  0  0  0  0  0  0  0  0  0  0
   59.8681   30.2859   50.9594 H   0  0  0  0  0  0  0  0  0  0  0  0
   58.9390   30.3900   49.0220 C   0  0  0  0  0  0  0  0  0  0  0  0
   58.6565   31.4438   49.1623 H   0  0  0  0  0  0  0  0  0  0  0  0
   59.8836   30.3352   48.4609 H   0  0  0  0  0  0  0  0  0  0  0  0
   58.1485   29.8700   48.4609 H   0  0  0  0  0  0  0  0  0  0  0  0
   52.1060   31.0920   52.8300 C   0  0  0  0  0  0  0  0  0  0  0  0
   52.4844   30.9462   53.8525 H   0  0  0  0  0  0  0  0  0  0  0  0
  1  2  1  0
  2  3  1  0
  3  4  1  0
  4  5  2  0
  5  6  1  0
  5  7  1  0
  7  8  1  0
  7  9  2  0
  9 10  1  0
  9 11  1  0
 11 12  1  0
 11 13  2  0
 13 14  1  0
 14 15  2  0
 15 16  1  0
 16 17  1  0
 16 18  1  0
 16 19  1  0
 19 20  1  0
 19 21  1  0
 19 22  1  0
 22 23  1  0
 23 24  1  0
 23 25  1  0
 23 26  1  0
 26 27  1  0
 26 28  1  0
 26 29  1  0
 29 30  1  0
 30 31  1  0
 30 32  1  0
 30 33  1  0
 33 34  1  0
 33 35  1  0
 33 36  1  0
 14 37  1  0
 37 38  1  0
 37  2  2  0
 13  4  1  0
M  CHG  1   3  -1
M  END
>  <UniqueID>  (7) 
7

>  <SMILES>  (7) 
CCOCCOCC/N=c1/cc[n-]c2ccccc12

>  <Energy>  (7) 
56.77663068938663

>  <Genealogy>  (7) 
CCOCCOCCN=c1cc[n-]c2ccccc12 (protonated)
CCOCCOCC/N=c1/cc[n-]c2ccccc12 (cis-trans isomerization)
CCOCCOCC/N=c1/cc[n-]c2ccccc12 (3D coordinates assigned)
CCOCCOCC/N=c1/cc[n-]c2ccccc12 (optimized conformer: 56.77663068938663 kcal/mol)

>  <smiles>  (7) 
CCOCCOCCN=c1cc[nH]c2ccccc12

>  <score_type>  (7) 
oracle

>  <origin>  (7) 
adg

>  <m_score__min__energy>  (7) 
-7.6399999999999997

>  <m_primary>  (7) 
energy

$$$$
7:0
     RDKit          3D

 82 85  0  0  0  0  0  0  0  0999 V2000
   57.8090   32.3360   43.6490 C   0  0  0  0  0  0  0  0  0  0  0  0
   57.7890   33.3510   44.7900 C   0  0  0  0  0  0  0  0  0  0  0  0
   58.9140   33.1430   45.7310 N   0  0  0  0  0  0  0  0  0  0  0  0
   59.6620   34.3740   46.0870 C   0  0  0  0  0  0  0  0  0  0  0  0
   59.3350   34.9270   47.4820 C   0  0  0  0  0  0  0  0  0  0  0  0
   58.5160   32.3520   46.9200 C   0  0  0  0  0  0  0  0  0  0  0  0
   58.8760   30.8810   46.7130 C   0  0  0  0  0  0  0  0  0  0  0  0
   59.9030   30.4530   47.6610 N   0  0  0  0  0  0  0  0  0  0  0  0
   60.3970   31.3660   48.6540 C   0  0  0  0  0  0  0  0  0  0  0  0
   61.5170   32.1710   48.3760 C   0  0  0  0  0  0  0  0  0  0  0  0
   62.1730   32.0940   47.1280 C   0  0  0  0  0  0  0  0  0  0  0  0
   63.2480   32.9300   46.8360 C   0  0  0  0  0  0  0  0  0  0  0  0
   63.6820   33.8570   47.7760 C   0  0  0  0  0  0  0  0  0  0  0  0
   63.0660   33.9330   49.0240 C   0  0  0  0  0  0  0  0  0  0  0  0
   61.9960   33.0680   49.3670 C   0  0  0  0  0  0  0  0  0  0  0  0
   61.4110   33.0940   50.6180 N   0  0  0  0  0  0  0  0  0  0  0  0
   62.0880   33.7940   51.7350 C   0  0  0  0  0  0  0  0  0  0  0  0
   60.2160   32.4350   50.8390 C   0  0  0  0  0  0  0  0  0  0  0  0
   59.4490   32.6620   52.0080 C   0  0  0  0  0  0  0  0  0  0  0  0
   58.2790   31.9280   52.2720 C   0  0  0  0  0  0  0  0  0  0  0  0
   57.5310   32.0980   53.4510 O   0  0  0  0  0  0  0  0  0  0  0  0
   57.8040   31.4910   54.7140 C   0  0  0  0  0  0  0  0  0  0  0  0
   57.7930   29.9490   54.5880 C   0  0  0  0  0  0  0  0  0  0  0  0
   59.1050   29.2870   54.8800 N   0  0  2  0  0  0  0  0  0  0  0  0
   59.9080   30.1040   55.8260 C   0  0  0  0  0  0  0  0  0  0  0  0
   59.8560   29.1250   53.6100 C   0  0  0  0  0  0  0  0  0  0  0  0
   59.6480   27.6940   53.1760 C   0  0  0  0  0  0  0  0  0  0  0  0
   59.4870   26.9250   54.4210 N   0  0  0  0  0  0  0  0  0  0  0  0
   60.8040   26.4310   54.8960 C   0  0  0  0  0  0  0  0  0  0  0  0
   58.5850   25.7690   54.2050 C   0  0  0  0  0  0  0  0  0  0  0  0
   58.9120   27.8940   55.3930 C   0  0  0  0  0  0  0  0  0  0  0  0
   57.8260   30.9930   51.3410 C   0  0  0  0  0  0  0  0  0  0  0  0
   56.6670   30.2610   51.6500 O   0  0  0  0  0  0  0  0  0  0  0  0
   55.3990   30.8370   51.9420 C   0  0  0  0  0  0  0  0  0  0  0  0
   58.5280   30.8110   50.1380 C   0  0  0  0  0  0  0  0  0  0  0  0
   59.7150   31.5250   49.8750 C   0  0  0  0  0  0  0  0  0  0  0  0
   57.8291   31.3177   44.0644 H   0  0  0  0  0  0  0  0  0  0  0  0
   56.9082   32.4619   43.0304 H   0  0  0  0  0  0  0  0  0  0  0  0
   58.7041   32.4973   43.0304 H   0  0  0  0  0  0  0  0  0  0  0  0
   57.8613   34.3638   44.3669 H   0  0  0  0  0  0  0  0  0  0  0  0
   56.8492   33.2213   45.3466 H   0  0  0  0  0  0  0  0  0  0  0  0
   60.7377   34.1473   46.0490 H   0  0  0  0  0  0  0  0  0  0  0  0
   59.3638   35.1462   45.3626 H   0  0  0  0  0  0  0  0  0  0  0  0
   59.7364   34.2482   48.2489 H   0  0  0  0  0  0  0  0  0  0  0  0
   59.7903   35.9216   47.5981 H   0  0  0  0  0  0  0  0  0  0  0  0
   58.2441   35.0073   47.5981 H   0  0  0  0  0  0  0  0  0  0  0  0
   59.0437   32.7351   47.8058 H   0  0  0  0  0  0  0  0  0  0  0  0
   57.4294   32.4410   47.0660 H   0  0  0  0  0  0  0  0  0  0  0  0
   57.9750   30.2667   46.8575 H   0  0  0  0  0  0  0  0  0  0  0  0
   59.2683   30.7571   45.6928 H   0  0  0  0  0  0  0  0  0  0  0  0
   60.0210   29.4310   47.8410 H   0  0  0  0  0  0  0  0  0  0  0  0
   61.8312   31.3656   46.3780 H   0  0  0  0  0  0  0  0  0  0  0  0
   63.7533   32.8565   45.8617 H   0  0  0  0  0  0  0  0  0  0  0  0
   64.5150   34.5335   47.5342 H   0  0  0  0  0  0  0  0  0  0  0  0
   63.4158   34.6766   49.7552 H   0  0  0  0  0  0  0  0  0  0  0  0
   61.7121   33.4053   52.6929 H   0  0  0  0  0  0  0  0  0  0  0  0
   63.1728   33.6238   51.6706 H   0  0  0  0  0  0  0  0  0  0  0  0
   61.8816   34.8725   51.6706 H   0  0  0  0  0  0  0  0  0  0  0  0
   59.7758   33.4294   52.7251 H   0  0  0  0  0  0  0  0  0  0  0  0
   58.7932   31.8183   55.0666 H   0  0  0  0  0  0  0  0  0  0  0  0
   57.0264   31.7949   55.4302 H   0  0  0  0  0  0  0  0  0  0  0  0
   57.0456   29.5532   55.2914 H   0  0  0  0  0  0  0  0  0  0  0  0
   57.5596   29.7251   53.5366 H   0  0  0  0  0  0  0  0  0  0  0  0
   59.6433   29.8347   56.8591 H   0  0  0  0  0  0  0  0  0  0  0  0
   60.9782   29.9115   55.6596 H   0  0  0  0  0  0  0  0  0  0  0  0
   59.6971   31.1707   55.6596 H   0  0  0  0  0  0  0  0  0  0  0  0
   59.4673   29.8151   52.8467 H   0  0  0  0  0  0  0  0  0  0  0  0
   60.9240   29.3513   53.7447 H   0  0  0  0  0  0  0  0  0  0  0  0
   58.7461   27.6087   52.5521 H   0  0  0  0  0  0  0  0  0  0  0  0
   60.4905   27.3236   52.5736 H   0  0  0  0  0  0  0  0  0  0  0  0
   60.8186   26.4255   55.9959 H   0  0  0  0  0  0  0  0  0  0  0  0
   60.9692   25.4098   54.5220 H   0  0  0  0  0  0  0  0  0  0  0  0
   61.6000   27.0917   54.5220 H   0  0  0  0  0  0  0  0  0  0  0  0
   58.2689   25.3638   55.1776 H   0  0  0  0  0  0  0  0  0  0  0  0
   57.7002   26.0951   53.6386 H   0  0  0  0  0  0  0  0  0  0  0  0
   59.1164   24.9901   53.6386 H   0  0  0  0  0  0  0  0  0  0  0  0
   57.8375   27.6946   55.5180 H   0  0  0  0  0  0  0  0  0  0  0  0
   59.4194   27.7862   56.3630 H   0  0  0  0  0  0  0  0  0  0  0  0
   55.2660   30.8974   53.0323 H   0  0  0  0  0  0  0  0  0  0  0  0
   55.3468   31.8472   51.5097 H   0  0  0  0  0  0  0  0  0  0  0  0
   54.6039   30.2117   51.5097 H   0  0  0  0  0  0  0  0  0  0  0  0
   58.1459   30.1008   49.3899 H   0  0  0  0  0  0  0  0  0  0  0  0
  1  2  1  0
  2  3  1  0
  3  4  1  0
  4  5  1  0
  3  6  1  0
  6  7  1  0
  7  8  1  0
  8  9  1  0
  9 10  2  0
 10 11  1  0
 11 12  2  0
 12 13  1  0
 13 14  2  0
 14 15  1  0
 15 16  2  0
 16 17  1  0
 16 18  1  0
 18 19  2  0
 19 20  1  0
 20 21  1  0
 21 22  1  0
 22 23  1  0
 24 23  1  6
 24 25  1  0
 24 26  1  0
 26 27  1  0
 27 28  1  0
 28 29  1  0
 28 30  1  0
 28 31  1  0
 20 32  2  0
 32 33  1  0
 33 34  1  0
 32 35  1  0
 35 36  2  0
 36  9  1  0
 15 10  1  0
 36 18  1  0
 31 24  1  0
  1 37  1  0
  1 38  1  0
  1 39  1  0
  2 40  1  0
  2 41  1  0
  4 42  1  0
  4 43  1  0
  5 44  1  0
  5 45  1  0
  5 46  1  0
  6 47  1  0
  6 48  1  0
  7 49  1  0
  7 50  1  0
  8 51  1  0
 11 52  1  0
 12 53  1  0
 13 54  1  0
 14 55  1  0
 17 56  1  0
 17 57  1  0
 17 58  1  0
 19 59  1  0
 22 60  1  0
 22 61  1  0
 23 62  1  0
 23 63  1  0
 25 64  1  0
 25 65  1  0
 25 66  1  0
 26 67  1  0
 26 68  1  0
 27 69  1  0
 27 70  1  0
 29 71  1  0
 29 72  1  0
 29 73  1  0
 30 74  1  0
 30 75  1  0
 30 76  1  0
 31 77  1  0
 31 78  1  0
 34 79  1  0
 34 80  1  0
 34 81  1  0
 35 82  1  0
M  CHG  3  16   1  24   1  28   1
M  END
>  <UniqueID>  (8) 
8

>  <SMILES>  (8) 
CCN(CC)CCNc1c2ccccc2[n+](C)c2cc(OCC[N@+]3(C)CC[N+](C)(C)C3)c(OC)cc12

>  <Energy>  (8) 
126.58247378242143

>  <Genealogy>  (8) 
CCN(CC)CCNc1c2ccccc2[n+](C)c2cc(OCC[N@+]3(C)CC[N+](C)(C)C3)c(OC)cc12 (chirality)
CCN(CC)CCNc1c2ccccc2[n+](C)c2cc(OCC[N@+]3(C)CC[N+](C)(C)C3)c(OC)cc12 (3D coordinates assigned)
CCN(CC)CCNc1c2ccccc2[n+](C)c2cc(OCC[N@+]3(C)CC[N+](C)(C)C3)c(OC)cc12 (nonaromatic ring conformer: 126.58247378242143 kcal/mol)

>  <smiles>  (8) 
CCN(CC)CCNc1c2ccccc2[n+](C)c2cc(OCC[N+]3(C)CC[N+](C)(C)C3)c(OC)cc12

>  <score_type>  (8) 
oracle

>  <origin>  (8) 
adg

>  <m_score__min__energy>  (8) 
-3.5600000000000001

>  <m_primary>  (8) 
energy

$$$$
8:0
     RDKit          3D

 85 87  0  0  0  0  0  0  0  0999 V2000
   58.1410   26.6730   42.8790 C   0  0  0  0  0  0  0  0  0  0  0  0
   57.7520   25.8390   44.0950 C   0  0  0  0  0  0  0  0  0  0  0  0
   58.6260   26.1340   45.3230 C   0  0  0  0  0  0  0  0  0  0  0  0
   57.8290   26.5740   46.5020 N   0  0  0  0  0  0  0  0  0  0  0  0
   58.5060   27.6620   47.2590 C   0  0  0  0  0  0  0  0  0  0  0  0
   60.0260   27.7080   47.0020 C   0  0  0  0  0  0  0  0  0  0  0  0
   60.3720   28.7120   45.9910 N   0  0  0  0  0  0  0  0  0  0  0  0
   59.7850   30.0240   46.0050 C   0  0  0  0  0  0  0  0  0  0  0  0
   58.6530   30.2970   45.2190 C   0  0  0  0  0  0  0  0  0  0  0  0
   57.9660   29.2590   44.5600 C   0  0  0  0  0  0  0  0  0  0  0  0
   56.8480   29.5290   43.7760 C   0  0  0  0  0  0  0  0  0  0  0  0
   56.3820   30.8330   43.6560 C   0  0  0  0  0  0  0  0  0  0  0  0
   57.0350   31.8770   44.3150 C   0  0  0  0  0  0  0  0  0  0  0  0
   58.1940   31.6350   45.0980 C   0  0  0  0  0  0  0  0  0  0  0  0
   58.8590   32.6580   45.7520 N   0  0  0  0  0  0  0  0  0  0  0  0
   58.5620   34.0700   45.4260 C   0  0  0  0  0  0  0  0  0  0  0  0
   59.7960   32.3550   46.7230 C   0  0  0  0  0  0  0  0  0  0  0  0
   60.2530   33.3320   47.6440 C   0  0  0  0  0  0  0  0  0  0  0  0
   61.2010   33.0190   48.6300 C   0  0  0  0  0  0  0  0  0  0  0  0
   61.6480   33.9560   49.5730 O   0  0  0  0  0  0  0  0  0  0  0  0
   62.2250   33.6260   50.8320 C   0  0  0  0  0  0  0  0  0  0  0  0
   63.7250   33.9850   50.8710 C   0  0  0  0  0  0  0  0  0  0  0  0
   64.6550   33.0340   50.1790 N   0  0  0  0  0  0  0  0  0  0  0  0
   64.4140   31.6310   50.6030 C   0  0  0  0  0  0  0  0  0  0  0  0
   64.5400   33.1330   48.7020 C   0  0  0  0  0  0  0  0  0  0  0  0
   66.0410   33.4030   50.5620 C   0  0  0  0  0  0  0  0  0  0  0  0
   61.7090   31.7240   48.6970 C   0  0  0  0  0  0  0  0  0  0  0  0
   61.2670   30.7390   47.8170 C   0  0  0  0  0  0  0  0  0  0  0  0
   60.3000   31.0340   46.8370 C   0  0  0  0  0  0  0  0  0  0  0  0
   57.5360   25.4190   47.3950 C   0  0  0  0  0  0  0  0  0  0  0  0
   56.4650   24.5120   46.7780 C   0  0  0  0  0  0  0  0  0  0  0  0
   55.3980   25.2620   46.2350 O   0  0  0  0  0  0  0  0  0  0  0  0
   54.6970   24.5360   45.2440 C   0  0  0  0  0  0  0  0  0  0  0  0
   55.3540   23.1660   45.0190 C   0  0  0  0  0  0  0  0  0  0  0  0
   55.2870   22.7650   43.6640 O   0  0  0  0  0  0  0  0  0  0  0  0
   56.5530   22.8630   43.0420 C   0  0  0  0  0  0  0  0  0  0  0  0
   57.2070   21.4890   43.0280 C   0  0  0  0  0  0  0  0  0  0  0  0
   58.5841   27.6230   43.2125 H   0  0  0  0  0  0  0  0  0  0  0  0
   58.8737   26.1192   42.2737 H   0  0  0  0  0  0  0  0  0  0  0  0
   57.2458   26.8785   42.2737 H   0  0  0  0  0  0  0  0  0  0  0  0
   56.7040   26.0558   44.3492 H   0  0  0  0  0  0  0  0  0  0  0  0
   57.8974   24.7810   43.8313 H   0  0  0  0  0  0  0  0  0  0  0  0
   59.1764   25.2202   45.5912 H   0  0  0  0  0  0  0  0  0  0  0  0
   59.3076   26.9553   45.0568 H   0  0  0  0  0  0  0  0  0  0  0  0
   58.0687   28.6253   46.9578 H   0  0  0  0  0  0  0  0  0  0  0  0
   58.3557   27.4649   48.3307 H   0  0  0  0  0  0  0  0  0  0  0  0
   60.5397   27.9565   47.9424 H   0  0  0  0  0  0  0  0  0  0  0  0
   60.3422   26.7222   46.6304 H   0  0  0  0  0  0  0  0  0  0  0  0
   61.0190   28.4640   45.2120 H   0  0  0  0  0  0  0  0  0  0  0  0
   58.3173   28.2220   44.6662 H   0  0  0  0  0  0  0  0  0  0  0  0
   56.3333   28.7105   43.2515 H   0  0  0  0  0  0  0  0  0  0  0  0
   55.4955   31.0435   43.0397 H   0  0  0  0  0  0  0  0  0  0  0  0
   56.6454   32.9018   44.2259 H   0  0  0  0  0  0  0  0  0  0  0  0
   58.4413   34.6436   46.3568 H   0  0  0  0  0  0  0  0  0  0  0  0
   59.3908   34.4930   44.8394 H   0  0  0  0  0  0  0  0  0  0  0  0
   57.6330   34.1233   44.8394 H   0  0  0  0  0  0  0  0  0  0  0  0
   59.8561   34.3561   47.5841 H   0  0  0  0  0  0  0  0  0  0  0  0
   61.7022   34.1834   51.6232 H   0  0  0  0  0  0  0  0  0  0  0  0
   62.1227   32.5419   50.9880 H   0  0  0  0  0  0  0  0  0  0  0  0
   63.8454   34.9724   50.4014 H   0  0  0  0  0  0  0  0  0  0  0  0
   64.0071   33.9493   51.9336 H   0  0  0  0  0  0  0  0  0  0  0  0
   64.4046   31.5764   51.7016 H   0  0  0  0  0  0  0  0  0  0  0  0
   63.4443   31.2908   50.2107 H   0  0  0  0  0  0  0  0  0  0  0  0
   65.2146   30.9867   50.2107 H   0  0  0  0  0  0  0  0  0  0  0  0
   63.7298   33.8305   48.4432 H   0  0  0  0  0  0  0  0  0  0  0  0
   65.4885   33.5016   48.2843 H   0  0  0  0  0  0  0  0  0  0  0  0
   64.3166   32.1402   48.2843 H   0  0  0  0  0  0  0  0  0  0  0  0
   66.1248   33.4253   51.6586 H   0  0  0  0  0  0  0  0  0  0  0  0
   66.7437   32.6606   50.1556 H   0  0  0  0  0  0  0  0  0  0  0  0
   66.2815   34.3965   50.1556 H   0  0  0  0  0  0  0  0  0  0  0  0
   62.4680   31.4762   49.4536 H   0  0  0  0  0  0  0  0  0  0  0  0
   61.6773   29.7209   47.8883 H   0  0  0  0  0  0  0  0  0  0  0  0
   58.4574   24.8375   47.5466 H   0  0  0  0  0  0  0  0  0  0  0  0
   57.1626   25.8022   48.3561 H   0  0  0  0  0  0  0  0  0  0  0  0
   56.9231   23.9121   45.9779 H   0  0  0  0  0  0  0  0  0  0  0  0
   56.0623   23.8660   47.5720 H   0  0  0  0  0  0  0  0  0  0  0  0
   53.6565   24.3899   45.5697 H   0  0  0  0  0  0  0  0  0  0  0  0
   54.7220   25.1029   44.3016 H   0  0  0  0  0  0  0  0  0  0  0  0
   56.4102   23.2242   45.3208 H   0  0  0  0  0  0  0  0  0  0  0  0
   54.8097   22.4238   45.6215 H   0  0  0  0  0  0  0  0  0  0  0  0
   56.4297   23.2231   42.0099 H   0  0  0  0  0  0  0  0  0  0  0  0
   57.1862   23.5698   43.5983 H   0  0  0  0  0  0  0  0  0  0  0  0
   57.3687   21.1493   44.0617 H   0  0  0  0  0  0  0  0  0  0  0  0
   56.5516   20.7762   42.5061 H   0  0  0  0  0  0  0  0  0  0  0  0
   58.1735   21.5482   42.5061 H   0  0  0  0  0  0  0  0  0  0  0  0
  1  2  1  0
  2  3  1  0
  3  4  1  0
  4  5  1  0
  5  6  1  0
  6  7  1  0
  7  8  1  0
  8  9  2  0
  9 10  1  0
 10 11  2  0
 11 12  1  0
 12 13  2  0
 13 14  1  0
 14 15  2  0
 15 16  1  0
 15 17  1  0
 17 18  2  0
 18 19  1  0
 19 20  1  0
 20 21  1  0
 21 22  1  0
 22 23  1  0
 23 24  1  0
 23 25  1  0
 23 26  1  0
 19 27  2  0
 27 28  1  0
 28 29  2  0
  4 30  1  0
 30 31  1  0
 31 32  1  0
 32 33  1  0
 33 34  1  0
 34 35  1  0
 35 36  1  0
 36 37  1  0
 29  8  1  0
 14  9  1  0
 29 17  1  0
  1 38  1  0
  1 39  1  0
  1 40  1  0
  2 41  1  0
  2 42  1  0
  3 43  1  0
  3 44  1  0
  5 45  1  0
  5 46  1  0
  6 47  1  0
  6 48  1  0
  7 49  1  0
 10 50  1  0
 11 51  1  0
 12 52  1  0
 13 53  1  0
 16 54  1  0
 16 55  1  0
 16 56  1  0
 18 57  1  0
 21 58  1  0
 21 59  1  0
 22 60  1  0
 22 61  1  0
 24 62  1  0
 24 63  1  0
 24 64  1  0
 25 65  1  0
 25 66  1  0
 25 67  1  0
 26 68  1  0
 26 69  1  0
 26 70  1  0
 27 71  1  0
 28 72  1  0
 30 73  1  0
 30 74  1  0
 31 75  1  0
 31 76  1  0
 33 77  1  0
 33 78  1  0
 34 79  1  0
 34 80  1  0
 36 81  1  0
 36 82  1  0
 37 83  1  0
 37 84  1  0
 37 85  1  0
M  CHG  2  15   1  23   1
M  END
>  <UniqueID>  (9) 
9

>  <SMILES>  (9) 
CCCN(CCNc1c2ccccc2[n+](C)c2cc(OCC[N+](C)(C)C)ccc12)CCOCCOCC

>  <Energy>  (9) 
121.74116603273266

>  <Genealogy>  (9) 
CCCN(CCNc1c2ccccc2[n+](C)c2cc(OCC[N+](C)(C)C)ccc12)CCOCCOCC (3D coordinates assigned)
CCCN(CCNc1c2ccccc2[n+](C)c2cc(OCC[N+](C)(C)C)ccc12)CCOCCOCC (optimized conformer: 121.74116603273266 kcal/mol)

>  <smiles>  (9) 
CCCN(CCNc1c2ccccc2[n+](C)c2cc(OCC[N+](C)(C)C)ccc12)CCOCCOCC

>  <score_type>  (9) 
oracle

>  <origin>  (9) 
adg

>  <m_score__min__energy>  (9) 
-5.3200000000000003

>  <m_primary>  (9) 
energy

$$$$
9:0
     RDKit          3D

 59 63  0  0  0  0  0  0  0  0999 V2000
   50.6550   24.7380   43.2770 C   0  0  0  0  0  0  0  0  0  0  0  0
   51.4820   24.0510   44.3580 C   0  0  0  0  0  0  0  0  0  0  0  0
   52.7290   23.5960   43.8310 O   0  0  0  0  0  0  0  0  0  0  0  0
   53.9780   23.7120   44.4660 C   0  0  0  0  0  0  0  0  0  0  0  0
   54.0480   24.4590   45.6430 C   0  0  0  0  0  0  0  0  0  0  0  0
   55.2590   24.6140   46.3190 C   0  0  0  0  0  0  0  0  0  0  0  0
   56.4450   24.0470   45.8130 C   0  0  0  0  0  0  0  0  0  0  0  0
   56.3700   23.2530   44.6440 C   0  0  0  0  0  0  0  0  0  0  0  0
   55.1440   23.0990   43.9740 C   0  0  0  0  0  0  0  0  0  0  0  0
   57.5870   22.5730   44.1510 C   0  0  0  0  0  0  0  0  0  0  0  0
   57.5150   21.7270   43.2170 O   0  0  0  0  0  0  0  0  0  0  0  0
   58.8530   22.8680   44.7620 N   0  0  0  0  0  0  0  0  0  0  0  0
   60.0150   22.0150   44.5040 C   0  0  0  0  0  0  0  0  0  0  0  0
   58.9600   24.0580   45.6100 C   0  0  0  0  0  0  0  0  0  0  0  0
   57.7700   24.1440   46.5760 C   0  0  1  0  0  0  0  0  0  0  0  0
   57.9140   25.3960   47.3490 N   0  0  0  0  0  0  0  0  0  0  0  0
   59.2690   25.9630   47.2800 C   0  0  0  0  0  0  0  0  0  0  0  0
   59.1980   27.4180   46.9000 C   0  0  0  0  0  0  0  0  0  0  0  0
   59.3690   27.8180   45.5650 C   0  0  0  0  0  0  0  0  0  0  0  0
   59.2660   29.1670   45.2140 C   0  0  0  0  0  0  0  0  0  0  0  0
   58.9980   30.1350   46.1950 C   0  0  0  0  0  0  0  0  0  0  0  0
   58.8660   31.5610   45.8190 C   0  0  0  0  0  0  0  0  0  0  0  0
   59.7070   32.4920   46.4530 C   0  0  0  0  0  0  0  0  0  0  0  0
   59.6920   33.8360   46.0770 C   0  0  0  0  0  0  0  0  0  0  0  0
   58.8400   34.2670   45.0620 C   0  0  0  0  0  0  0  0  0  0  0  0
   57.9880   33.3600   44.4300 C   0  0  0  0  0  0  0  0  0  0  0  0
   57.9730   32.0040   44.8050 C   0  0  0  0  0  0  0  0  0  0  0  0
   56.9880   31.1040   44.1560 C   0  0  0  0  0  0  0  0  0  0  0  0
   55.9820   30.4750   44.7920 N   0  0  0  0  0  0  0  0  0  0  0  0
   55.3330   29.8230   43.8420 N   0  0  0  0  0  0  0  0  0  0  0  0
   55.9100   30.0490   42.6730 N   0  0  0  0  0  0  0  0  0  0  0  0
   56.9470   30.8530   42.8350 N   0  0  0  0  0  0  0  0  0  0  0  0
   58.8110   29.7340   47.5260 C   0  0  0  0  0  0  0  0  0  0  0  0
   58.9140   28.3840   47.8780 C   0  0  0  0  0  0  0  0  0  0  0  0
   49.8905   25.3731   43.7484 H   0  0  0  0  0  0  0  0  0  0  0  0
   51.3128   25.3592   42.6514 H   0  0  0  0  0  0  0  0  0  0  0  0
   50.1650   23.9774   42.6514 H   0  0  0  0  0  0  0  0  0  0  0  0
   51.6738   24.7644   45.1731 H   0  0  0  0  0  0  0  0  0  0  0  0
   50.9202   23.1828   44.7329 H   0  0  0  0  0  0  0  0  0  0  0  0
   53.1382   24.9309   46.0423 H   0  0  0  0  0  0  0  0  0  0  0  0
   55.2877   25.1858   47.2583 H   0  0  0  0  0  0  0  0  0  0  0  0
   55.0962   22.4937   43.0568 H   0  0  0  0  0  0  0  0  0  0  0  0
   60.4532   21.6933   45.4603 H   0  0  0  0  0  0  0  0  0  0  0  0
   59.7008   21.1315   43.9290 H   0  0  0  0  0  0  0  0  0  0  0  0
   60.7638   22.5795   43.9290 H   0  0  0  0  0  0  0  0  0  0  0  0
   59.8931   24.0054   46.1901 H   0  0  0  0  0  0  0  0  0  0  0  0
   58.9599   24.9512   44.9680 H   0  0  0  0  0  0  0  0  0  0  0  0
   57.7610   23.2979   47.2789 H   0  0  0  0  0  0  0  0  0  0  0  0
   57.6180   25.2770   48.3450 H   0  0  0  0  0  0  0  0  0  0  0  0
   59.7552   25.8660   48.2619 H   0  0  0  0  0  0  0  0  0  0  0  0
   59.8505   25.4189   46.5212 H   0  0  0  0  0  0  0  0  0  0  0  0
   59.5851   27.0661   44.7917 H   0  0  0  0  0  0  0  0  0  0  0  0
   59.3954   29.4715   44.1649 H   0  0  0  0  0  0  0  0  0  0  0  0
   60.3836   32.1580   47.2534 H   0  0  0  0  0  0  0  0  0  0  0  0
   60.3531   34.5555   46.5822 H   0  0  0  0  0  0  0  0  0  0  0  0
   58.8389   35.3242   44.7583 H   0  0  0  0  0  0  0  0  0  0  0  0
   57.3201   33.7096   43.6289 H   0  0  0  0  0  0  0  0  0  0  0  0
   58.5822   30.4847   48.2968 H   0  0  0  0  0  0  0  0  0  0  0  0
   58.7719   28.0784   48.9251 H   0  0  0  0  0  0  0  0  0  0  0  0
  1  2  1  0
  2  3  1  0
  3  4  1  0
  4  5  2  0
  5  6  1  0
  6  7  2  0
  7  8  1  0
  8  9  2  0
  8 10  1  0
 10 11  2  0
 10 12  1  0
 12 13  1  0
 12 14  1  0
 14 15  1  0
 15 16  1  0
 16 17  1  0
 17 18  1  0
 18 19  2  0
 19 20  1  0
 20 21  2  0
 21 22  1  0
 22 23  2  0
 23 24  1  0
 24 25  2  0
 25 26  1  0
 26 27  2  0
 27 28  1  0
 28 29  1  0
 29 30  2  0
 30 31  1  0
 31 32  1  0
 21 33  1  0
 33 34  2  0
  9  4  1  0
 34 18  1  0
 15  7  1  0
 27 22  1  0
 32 28  2  0
  1 35  1  0
  1 36  1  0
  1 37  1  0
  2 38  1  0
  2 39  1  0
  5 40  1  0
  6 41  1  0
  9 42  1  0
 13 43  1  0
 13 44  1  0
 13 45  1  0
 14 46  1  0
 14 47  1  0
 15 48  1  1
 16 49  1  0
 17 50  1  0
 17 51  1  0
 19 52  1  0
 20 53  1  0
 23 54  1  0
 24 55  1  0
 25 56  1  0
 26 57  1  0
 33 58  1  0
 34 59  1  0
M  CHG  1  31  -1
M  END
>  <UniqueID>  (10) 
10

>  <SMILES>  (10) 
CCOc1ccc2c(c1)C(=O)N(C)C[C@H]2NCc1ccc(-c2ccccc2-c2nn[n-]n2)cc1

>  <Energy>  (10) 
115.28449186450786

>  <Genealogy>  (10) 
CCOc1ccc2c(c1)C(=O)N(C)CC2NCc1ccc(-c2ccccc2-c2nn[n-]n2)cc1 (protonated)
CCOc1ccc2c(c1)C(=O)N(C)C[C@H]2NCc1ccc(-c2ccccc2-c2nn[n-]n2)cc1 (chirality)
CCOc1ccc2c(c1)C(=O)N(C)C[C@H]2NCc1ccc(-c2ccccc2-c2nn[n-]n2)cc1 (3D coordinates assigned)
CCOc1ccc2c(c1)C(=O)N(C)C[C@H]2NCc1ccc(-c2ccccc2-c2nn[n-]n2)cc1 (nonaromatic ring conformer: 115.28449186450786 kcal/mol)

>  <smiles>  (10) 
CCOc1ccc2c(c1)C(=O)N(C)CC2NCc1ccc(-c2ccccc2-c2nn[nH]n2)cc1

>  <score_type>  (10) 
oracle

>  <origin>  (10) 
adg

>  <m_score__min__energy>  (10) 
-11.01

>  <m_primary>  (10) 
energy

$$$$
10:0
     RDKit          3D

 55 57  0  0  0  0  0  0  0  0999 V2000
   57.4960   26.2740   45.0820 C   0  0  0  0  0  0  0  0  0  0  0  0
   57.1030   27.3030   45.9850 O   0  0  0  0  0  0  0  0  0  0  0  0
   57.6120   28.6120   45.9760 C   0  0  0  0  0  0  0  0  0  0  0  0
   58.8100   28.9520   46.6180 C   0  0  0  0  0  0  0  0  0  0  0  0
   59.3010   30.2750   46.5940 C   0  0  0  0  0  0  0  0  0  0  0  0
   60.5170   30.5870   47.2270 C   0  0  0  0  0  0  0  0  0  0  0  0
   61.1440   29.6740   47.8370 O   0  0  0  0  0  0  0  0  0  0  0  0
   61.0300   31.8600   47.1900 N   0  0  0  0  0  0  0  0  0  0  0  0
   62.3550   32.0950   47.8170 C   0  0  0  0  0  0  0  0  0  0  0  0
   62.2980   31.8080   49.3230 C   0  0  0  0  0  0  0  0  0  0  0  0
   61.6260   32.9570   50.0810 C   0  0  0  0  0  0  0  0  0  0  0  0
   60.5930   32.4350   50.9870 N   0  0  0  0  0  0  0  0  0  0  0  0
   59.2410   32.7640   50.5080 C   0  0  0  0  0  0  0  0  0  0  0  0
   58.2340   31.6930   50.9460 C   0  0  0  0  0  0  0  0  0  0  0  0
   58.5260   30.3190   50.3240 C   0  0  0  0  0  0  0  0  0  0  0  0
   59.9620   30.1370   50.1150 N   0  0  0  0  0  0  0  0  0  0  0  0
   60.3100   32.8900   46.6110 C   0  0  0  0  0  0  0  0  0  0  0  0
   60.7650   34.2340   46.6650 C   0  0  0  0  0  0  0  0  0  0  0  0
   60.0510   35.2670   46.0670 C   0  0  0  0  0  0  0  0  0  0  0  0
   58.8630   35.0000   45.4090 C   0  0  0  0  0  0  0  0  0  0  0  0
   58.3700   33.7010   45.3510 C   0  0  0  0  0  0  0  0  0  0  0  0
   59.0700   32.6190   45.9500 C   0  0  0  0  0  0  0  0  0  0  0  0
   58.5730   31.2840   45.9270 C   0  0  0  0  0  0  0  0  0  0  0  0
   57.3680   30.9190   45.2730 C   0  0  0  0  0  0  0  0  0  0  0  0
   56.8910   29.5960   45.2980 C   0  0  0  0  0  0  0  0  0  0  0  0
   55.6990   29.2180   44.6580 O   0  0  0  0  0  0  0  0  0  0  0  0
   55.2550   29.7160   43.4000 C   0  0  0  0  0  0  0  0  0  0  0  0
   57.8318   25.3949   45.6516 H   0  0  0  0  0  0  0  0  0  0  0  0
   56.6408   25.9958   44.4485 H   0  0  0  0  0  0  0  0  0  0  0  0
   58.3189   26.6367   44.4485 H   0  0  0  0  0  0  0  0  0  0  0  0
   59.3777   28.1744   47.1500 H   0  0  0  0  0  0  0  0  0  0  0  0
   63.0985   31.4320   47.3505 H   0  0  0  0  0  0  0  0  0  0  0  0
   62.6368   33.1477   47.6669 H   0  0  0  0  0  0  0  0  0  0  0  0
   61.7252   30.8840   49.4907 H   0  0  0  0  0  0  0  0  0  0  0  0
   63.3271   31.6995   49.6960 H   0  0  0  0  0  0  0  0  0  0  0  0
   62.3838   33.4971   50.6675 H   0  0  0  0  0  0  0  0  0  0  0  0
   61.1555   33.6373   49.3559 H   0  0  0  0  0  0  0  0  0  0  0  0
   60.7230   32.9070   51.9130 H   0  0  0  0  0  0  0  0  0  0  0  0
   58.9375   33.7362   50.9236 H   0  0  0  0  0  0  0  0  0  0  0  0
   59.2562   32.8062   49.4089 H   0  0  0  0  0  0  0  0  0  0  0  0
   58.2730   31.5995   52.0413 H   0  0  0  0  0  0  0  0  0  0  0  0
   57.2387   32.0103   50.6015 H   0  0  0  0  0  0  0  0  0  0  0  0
   58.1574   29.5323   50.9987 H   0  0  0  0  0  0  0  0  0  0  0  0
   58.0179   30.2581   49.3503 H   0  0  0  0  0  0  0  0  0  0  0  0
   60.3260   30.8690   49.4620 H   0  0  0  0  0  0  0  0  0  0  0  0
   60.1510   29.1860   49.7220 H   0  0  0  0  0  0  0  0  0  0  0  0
   60.4560   30.2260   51.0320 H   0  0  0  0  0  0  0  0  0  0  0  0
   61.7032   34.4633   47.1916 H   0  0  0  0  0  0  0  0  0  0  0  0
   60.4312   36.2980   46.1171 H   0  0  0  0  0  0  0  0  0  0  0  0
   58.3064   35.8189   44.9298 H   0  0  0  0  0  0  0  0  0  0  0  0
   57.4200   33.5073   44.8315 H   0  0  0  0  0  0  0  0  0  0  0  0
   56.7941   31.6876   44.7345 H   0  0  0  0  0  0  0  0  0  0  0  0
   54.5310   30.5281   43.5620 H   0  0  0  0  0  0  0  0  0  0  0  0
   56.1159   30.1000   42.8331 H   0  0  0  0  0  0  0  0  0  0  0  0
   54.7751   28.9046   42.8331 H   0  0  0  0  0  0  0  0  0  0  0  0
  1  2  1  0
  2  3  1  0
  3  4  2  0
  4  5  1  0
  5  6  1  0
  6  7  2  0
  6  8  1  0
  8  9  1  0
  9 10  1  0
 10 11  1  0
 11 12  1  0
 12 13  1  0
 13 14  1  0
 14 15  1  0
 15 16  1  0
  8 17  1  0
 17 18  2  0
 18 19  1  0
 19 20  2  0
 20 21  1  0
 21 22  2  0
 22 23  1  0
 23 24  1  0
 24 25  2  0
 25 26  1  0
 26 27  1  0
 25  3  1  0
 23  5  2  0
 22 17  1  0
  1 28  1  0
  1 29  1  0
  1 30  1  0
  4 31  1  0
  9 32  1  0
  9 33  1  0
 10 34  1  0
 10 35  1  0
 11 36  1  0
 11 37  1  0
 12 38  1  0
 13 39  1  0
 13 40  1  0
 14 41  1  0
 14 42  1  0
 15 43  1  0
 15 44  1  0
 16 45  1  0
 16 46  1  0
 16 47  1  0
 18 48  1  0
 19 49  1  0
 20 50  1  0
 21 51  1  0
 24 52  1  0
 27 53  1  0
 27 54  1  0
 27 55  1  0
M  CHG  1  16   1
M  END
>  <UniqueID>  (11) 
11

>  <SMILES>  (11) 
COc1cc2c(=O)n(CCCNCCC[NH3+])c3ccccc3c2cc1OC

>  <Energy>  (11) 
68.42810078932688

>  <Genealogy>  (11) 
COc1cc2c(=O)n(CCCNCCC[NH3+])c3ccccc3c2cc1OC (protonated)
COc1cc2c(=O)n(CCCNCCC[NH3+])c3ccccc3c2cc1OC (3D coordinates assigned)
COc1cc2c(=O)n(CCCNCCC[NH3+])c3ccccc3c2cc1OC (optimized conformer: 68.42810078932688 kcal/mol)

>  <smiles>  (11) 
COc1cc2c(=O)n(CCCNCCCN)c3ccccc3c2cc1OC

>  <score_type>  (11) 
oracle

>  <origin>  (11) 
adg

>  <m_score__min__energy>  (11) 
-5.6200000000000001

>  <m_primary>  (11) 
energy

$$$$
11:0
     RDKit          3D

 58 60  0  0  0  0  0  0  0  0999 V2000
   58.1930   31.8860   50.4800 C   0  0  0  0  0  0  0  0  0  0  0  0
   58.9900   33.1800   50.5800 C   0  0  0  0  0  0  0  0  0  0  0  0
   59.9670   33.2500   49.4850 N   0  0  0  0  0  0  0  0  0  0  0  0
   59.9960   34.5850   48.8700 C   0  0  0  0  0  0  0  0  0  0  0  0
   60.3820   34.4920   47.3820 C   0  0  0  0  0  0  0  0  0  0  0  0
   59.3440   33.8200   46.4910 C   0  0  0  0  0  0  0  0  0  0  0  0
   58.3520   34.5880   45.8690 C   0  0  0  0  0  0  0  0  0  0  0  0
   57.4060   33.6120   44.9030 S   0  0  0  0  0  0  0  0  0  0  0  0
   58.1910   32.1730   45.2770 C   0  0  0  0  0  0  0  0  0  0  0  0
   59.2190   32.4160   46.1960 C   0  0  0  0  0  0  0  0  0  0  0  0
   59.9470   31.2990   46.7020 C   0  0  0  0  0  0  0  0  0  0  0  0
   60.8860   31.4270   47.8040 N   0  0  0  0  0  0  0  0  0  0  0  0
   62.2250   31.9740   47.4490 C   0  0  0  0  0  0  0  0  0  0  0  0
   63.1790   32.2340   48.6410 C   0  0  0  0  0  0  0  0  0  0  0  0
   63.0450   31.1600   49.7310 C   0  0  0  0  0  0  0  0  0  0  0  0
   61.6650   31.0850   50.2620 N   0  0  0  0  0  0  0  0  0  0  0  0
   61.6110   31.6790   51.6080 C   0  0  0  0  0  0  0  0  0  0  0  0
   61.1910   29.6920   50.3230 C   0  0  0  0  0  0  0  0  0  0  0  0
   59.6940   30.0150   46.1260 C   0  0  0  0  0  0  0  0  0  0  0  0
   60.4570   28.8770   46.4930 C   0  0  0  0  0  0  0  0  0  0  0  0
   60.2220   27.6340   45.9160 C   0  0  0  0  0  0  0  0  0  0  0  0
   59.2270   27.4830   44.9610 C   0  0  0  0  0  0  0  0  0  0  0  0
   58.4570   28.5760   44.5770 C   0  0  0  0  0  0  0  0  0  0  0  0
   58.6630   29.8590   45.1490 C   0  0  0  0  0  0  0  0  0  0  0  0
   57.8870   30.9360   44.7780 N   0  0  0  0  0  0  0  0  0  0  0  0
   56.7660   30.7690   43.8300 C   0  0  0  0  0  0  0  0  0  0  0  0
   57.9654   31.5165   51.4908 H   0  0  0  0  0  0  0  0  0  0  0  0
   57.2543   32.0745   49.9385 H   0  0  0  0  0  0  0  0  0  0  0  0
   58.7837   31.1324   49.9385 H   0  0  0  0  0  0  0  0  0  0  0  0
   58.3041   34.0373   50.5124 H   0  0  0  0  0  0  0  0  0  0  0  0
   59.5217   33.2050   51.5426 H   0  0  0  0  0  0  0  0  0  0  0  0
   60.9130   33.0590   49.8920 H   0  0  0  0  0  0  0  0  0  0  0  0
   59.0000   35.0438   48.9564 H   0  0  0  0  0  0  0  0  0  0  0  0
   60.7458   35.1979   49.3917 H   0  0  0  0  0  0  0  0  0  0  0  0
   60.5449   35.5131   47.0067 H   0  0  0  0  0  0  0  0  0  0  0  0
   61.2828   33.8624   47.3355 H   0  0  0  0  0  0  0  0  0  0  0  0
   58.2171   35.6720   45.9982 H   0  0  0  0  0  0  0  0  0  0  0  0
   61.0150   30.4890   48.2470 H   0  0  0  0  0  0  0  0  0  0  0  0
   60.4620   31.9530   48.5940 H   0  0  0  0  0  0  0  0  0  0  0  0
   62.7150   31.2575   46.7734 H   0  0  0  0  0  0  0  0  0  0  0  0
   62.0372   32.9576   46.9937 H   0  0  0  0  0  0  0  0  0  0  0  0
   64.2153   32.2380   48.2720 H   0  0  0  0  0  0  0  0  0  0  0  0
   62.9107   33.2039   49.0852 H   0  0  0  0  0  0  0  0  0  0  0  0
   63.3157   30.1832   49.3037 H   0  0  0  0  0  0  0  0  0  0  0  0
   63.7163   31.4285   50.5600 H   0  0  0  0  0  0  0  0  0  0  0  0
   61.6834   30.8827   52.3634 H   0  0  0  0  0  0  0  0  0  0  0  0
   62.4491   32.3804   51.7332 H   0  0  0  0  0  0  0  0  0  0  0  0
   60.6602   32.2178   51.7332 H   0  0  0  0  0  0  0  0  0  0  0  0
   61.0868   29.3858   51.3744 H   0  0  0  0  0  0  0  0  0  0  0  0
   60.2158   29.6142   49.8201 H   0  0  0  0  0  0  0  0  0  0  0  0
   61.9163   29.0355   49.8201 H   0  0  0  0  0  0  0  0  0  0  0  0
   61.2498   28.9798   47.2486 H   0  0  0  0  0  0  0  0  0  0  0  0
   60.8275   26.7667   46.2180 H   0  0  0  0  0  0  0  0  0  0  0  0
   59.0467   26.4975   44.5068 H   0  0  0  0  0  0  0  0  0  0  0  0
   57.6739   28.4438   43.8159 H   0  0  0  0  0  0  0  0  0  0  0  0
   55.8297   30.6295   44.3903 H   0  0  0  0  0  0  0  0  0  0  0  0
   56.6845   31.6649   43.1970 H   0  0  0  0  0  0  0  0  0  0  0  0
   56.9492   29.8882   43.1970 H   0  0  0  0  0  0  0  0  0  0  0  0
  1  2  1  0
  2  3  1  0
  3  4  1  0
  4  5  1  0
  5  6  1  0
  6  7  2  0
  7  8  1  0
  8  9  1  0
  9 10  2  0
 10 11  1  0
 11 12  1  0
 12 13  1  0
 13 14  1  0
 14 15  1  0
 15 16  1  0
 16 17  1  0
 16 18  1  0
 11 19  2  0
 19 20  1  0
 20 21  2  0
 21 22  1  0
 22 23  2  0
 23 24  1  0
 24 25  2  0
 25 26  1  0
 10  6  1  0
 24 19  1  0
 25  9  1  0
  1 27  1  0
  1 28  1  0
  1 29  1  0
  2 30  1  0
  2 31  1  0
  3 32  1  0
  4 33  1  0
  4 34  1  0
  5 35  1  0
  5 36  1  0
  7 37  1  0
 12 38  1  0
 12 39  1  0
 13 40  1  0
 13 41  1  0
 14 42  1  0
 14 43  1  0
 15 44  1  0
 15 45  1  0
 17 46  1  0
 17 47  1  0
 17 48  1  0
 18 49  1  0
 18 50  1  0
 18 51  1  0
 20 52  1  0
 21 53  1  0
 22 54  1  0
 23 55  1  0
 26 56  1  0
 26 57  1  0
 26 58  1  0
M  CHG  2  12   1  25   1
M  END
>  <UniqueID>  (12) 
12

>  <SMILES>  (12) 
CCNCCc1csc2c1c([NH2+]CCCN(C)C)c1ccccc1[n+]2C

>  <Energy>  (12) 
111.53845242286852

>  <Genealogy>  (12) 
CCNCCc1csc2c1c([NH2+]CCCN(C)C)c1ccccc1[n+]2C (protonated)
CCNCCc1csc2c1c([NH2+]CCCN(C)C)c1ccccc1[n+]2C (3D coordinates assigned)
CCNCCc1csc2c1c([NH2+]CCCN(C)C)c1ccccc1[n+]2C (optimized conformer: 111.53845242286852 kcal/mol)

>  <smiles>  (12) 
CCNCCc1csc2c1c(NCCCN(C)C)c1ccccc1[n+]2C

>  <score_type>  (12) 
oracle

>  <origin>  (12) 
adg

>  <m_score__min__energy>  (12) 
-3.73

>  <m_primary>  (12) 
energy

$$$$
12:0
     RDKit          3D

 63 65  0  0  0  0  0  0  0  0999 V2000
   60.1080   33.4100   52.1290 C   0  0  0  0  0  0  0  0  0  0  0  0
   59.3090   33.7030   50.8650 C   0  0  0  0  0  0  0  0  0  0  0  0
   59.6070   32.7030   49.8320 N   0  0  0  0  0  0  0  0  0  0  0  0
   58.8510   31.4610   50.0530 C   0  0  0  0  0  0  0  0  0  0  0  0
   59.2870   30.3550   49.0720 C   0  0  0  0  0  0  0  0  0  0  0  0
   60.2340   30.8420   48.0460 N   0  0  0  0  0  0  0  0  0  0  0  0
   59.6530   30.8890   46.7060 C   0  0  0  0  0  0  0  0  0  0  0  0
   59.3830   29.6850   45.9990 C   0  0  0  0  0  0  0  0  0  0  0  0
   60.0550   28.4710   46.2910 C   0  0  0  0  0  0  0  0  0  0  0  0
   59.7500   27.2960   45.6080 C   0  0  0  0  0  0  0  0  0  0  0  0
   58.8050   27.3060   44.5930 C   0  0  0  0  0  0  0  0  0  0  0  0
   58.1630   28.4930   44.2500 C   0  0  0  0  0  0  0  0  0  0  0  0
   58.4260   29.6990   44.9490 C   0  0  0  0  0  0  0  0  0  0  0  0
   57.7810   30.8700   44.6210 N   0  0  0  0  0  0  0  0  0  0  0  0
   56.5610   30.8280   43.7800 C   0  0  0  0  0  0  0  0  0  0  0  0
   58.2960   32.0780   45.0450 C   0  0  0  0  0  0  0  0  0  0  0  0
   57.8860   33.2900   44.4420 C   0  0  0  0  0  0  0  0  0  0  0  0
   58.3720   34.5120   44.8780 C   0  0  0  0  0  0  0  0  0  0  0  0
   59.3130   34.5660   45.8910 C   0  0  0  0  0  0  0  0  0  0  0  0
   59.7960   33.3920   46.4890 C   0  0  0  0  0  0  0  0  0  0  0  0
   60.8260   33.4720   47.4400 O   0  0  0  0  0  0  0  0  0  0  0  0
   62.1800   33.8300   47.1650 C   0  0  0  0  0  0  0  0  0  0  0  0
   63.1340   32.7460   47.7120 C   0  0  0  0  0  0  0  0  0  0  0  0
   63.4560   32.8450   49.1700 N   0  0  0  0  0  0  0  0  0  0  0  0
   64.9090   33.0600   49.3820 C   0  0  0  0  0  0  0  0  0  0  0  0
   63.0190   31.6390   49.9150 C   0  0  0  0  0  0  0  0  0  0  0  0
   62.7310   34.0170   49.7200 C   0  0  0  0  0  0  0  0  0  0  0  0
   59.2630   32.1220   46.0970 C   0  0  0  0  0  0  0  0  0  0  0  0
   59.4926   33.6357   53.0124 H   0  0  0  0  0  0  0  0  0  0  0  0
   60.3949   32.3482   52.1436 H   0  0  0  0  0  0  0  0  0  0  0  0
   61.0133   34.0346   52.1436 H   0  0  0  0  0  0  0  0  0  0  0  0
   58.2347   33.6737   51.0996 H   0  0  0  0  0  0  0  0  0  0  0  0
   59.5850   34.6994   50.4895 H   0  0  0  0  0  0  0  0  0  0  0  0
   59.3020   33.0990   48.9110 H   0  0  0  0  0  0  0  0  0  0  0  0
   59.0245   31.1149   51.0826 H   0  0  0  0  0  0  0  0  0  0  0  0
   57.7842   31.6708   49.8862 H   0  0  0  0  0  0  0  0  0  0  0  0
   59.7710   29.5490   49.6431 H   0  0  0  0  0  0  0  0  0  0  0  0
   58.3860   30.0001   48.5503 H   0  0  0  0  0  0  0  0  0  0  0  0
   61.0550   30.2100   48.1110 H   0  0  0  0  0  0  0  0  0  0  0  0
   60.6200   31.7730   48.3050 H   0  0  0  0  0  0  0  0  0  0  0  0
   60.8309   28.4569   47.0706 H   0  0  0  0  0  0  0  0  0  0  0  0
   60.2597   26.3583   45.8742 H   0  0  0  0  0  0  0  0  0  0  0  0
   58.5625   26.3756   44.0586 H   0  0  0  0  0  0  0  0  0  0  0  0
   57.4388   28.4956   43.4220 H   0  0  0  0  0  0  0  0  0  0  0  0
   55.6712   30.7974   44.4260 H   0  0  0  0  0  0  0  0  0  0  0  0
   56.5223   31.7253   43.1450 H   0  0  0  0  0  0  0  0  0  0  0  0
   56.5841   29.9301   43.1450 H   0  0  0  0  0  0  0  0  0  0  0  0
   57.1668   33.2618   43.6102 H   0  0  0  0  0  0  0  0  0  0  0  0
   58.0086   35.4424   44.4173 H   0  0  0  0  0  0  0  0  0  0  0  0
   59.6875   35.5424   46.2322 H   0  0  0  0  0  0  0  0  0  0  0  0
   62.3188   33.9225   46.0777 H   0  0  0  0  0  0  0  0  0  0  0  0
   62.4061   34.7897   47.6527 H   0  0  0  0  0  0  0  0  0  0  0  0
   62.6695   31.7650   47.5337 H   0  0  0  0  0  0  0  0  0  0  0  0
   64.0875   32.8890   47.1826 H   0  0  0  0  0  0  0  0  0  0  0  0
   65.1214   33.0914   50.4608 H   0  0  0  0  0  0  0  0  0  0  0  0
   65.4727   32.2355   48.9212 H   0  0  0  0  0  0  0  0  0  0  0  0
   65.2098   34.0124   48.9212 H   0  0  0  0  0  0  0  0  0  0  0  0
   63.0884   31.8306   50.9960 H   0  0  0  0  0  0  0  0  0  0  0  0
   61.9778   31.4020   49.6507 H   0  0  0  0  0  0  0  0  0  0  0  0
   63.6667   30.7901   49.6507 H   0  0  0  0  0  0  0  0  0  0  0  0
   62.7541   33.9797   50.8191 H   0  0  0  0  0  0  0  0  0  0  0  0
   63.2145   34.9426   49.3743 H   0  0  0  0  0  0  0  0  0  0  0  0
   61.6869   33.9976   49.3743 H   0  0  0  0  0  0  0  0  0  0  0  0
  1  2  1  0
  2  3  1  0
  3  4  1  0
  4  5  1  0
  5  6  1  0
  6  7  1  0
  7  8  2  0
  8  9  1  0
  9 10  2  0
 10 11  1  0
 11 12  2  0
 12 13  1  0
 13 14  2  0
 14 15  1  0
 14 16  1  0
 16 17  2  0
 17 18  1  0
 18 19  2  0
 19 20  1  0
 20 21  1  0
 21 22  1  0
 22 23  1  0
 23 24  1  0
 24 25  1  0
 24 26  1  0
 24 27  1  0
 20 28  2  0
 28  7  1  0
 13  8  1  0
 28 16  1  0
  1 29  1  0
  1 30  1  0
  1 31  1  0
  2 32  1  0
  2 33  1  0
  3 34  1  0
  4 35  1  0
  4 36  1  0
  5 37  1  0
  5 38  1  0
  6 39  1  0
  6 40  1  0
  9 41  1  0
 10 42  1  0
 11 43  1  0
 12 44  1  0
 15 45  1  0
 15 46  1  0
 15 47  1  0
 17 48  1  0
 18 49  1  0
 19 50  1  0
 22 51  1  0
 22 52  1  0
 23 53  1  0
 23 54  1  0
 25 55  1  0
 25 56  1  0
 25 57  1  0
 26 58  1  0
 26 59  1  0
 26 60  1  0
 27 61  1  0
 27 62  1  0
 27 63  1  0
M  CHG  3   6   1  14   1  24   1
M  END
>  <UniqueID>  (13) 
13

>  <SMILES>  (13) 
CCNCC[NH2+]c1c2ccccc2[n+](C)c2cccc(OCC[N+](C)(C)C)c12

>  <Energy>  (13) 
100.58885579689142

>  <Genealogy>  (13) 
CCNCC[NH2+]c1c2ccccc2[n+](C)c2cccc(OCC[N+](C)(C)C)c12 (protonated)
CCNCC[NH2+]c1c2ccccc2[n+](C)c2cccc(OCC[N+](C)(C)C)c12 (3D coordinates assigned)
CCNCC[NH2+]c1c2ccccc2[n+](C)c2cccc(OCC[N+](C)(C)C)c12 (optimized conformer: 100.58885579689142 kcal/mol)

>  <smiles>  (13) 
CCNCCNc1c2ccccc2[n+](C)c2cccc(OCC[N+](C)(C)C)c12

>  <score_type>  (13) 
oracle

>  <origin>  (13) 
adg

>  <m_score__min__energy>  (13) 
-2.1299999999999999

>  <m_primary>  (13) 
energy

$$$$
13:0
     RDKit          3D

 84 83  0  0  0  0  0  0  0  0999 V2000
   59.2720   35.3450   44.8690 C   0  0  0  0  0  0  0  0  0  0  0  0
   59.9440   35.2630   46.2530 C   0  0  0  0  0  0  0  0  0  0  0  0
   59.7370   33.9800   47.0080 N   0  0  1  0  0  0  0  0  0  0  0  0
   58.6080   33.2620   46.3430 C   0  0  0  0  0  0  0  0  0  0  0  0
   60.9680   33.1230   47.0150 C   0  0  0  0  0  0  0  0  0  0  0  0
   62.2600   33.7790   46.4480 C   0  0  0  0  0  0  0  0  0  0  0  0
   63.4460   33.7270   47.4350 C   0  0  0  0  0  0  0  0  0  0  0  0
   63.7370   32.3590   47.8950 N   0  0  0  0  0  0  0  0  0  0  0  0
   64.3530   32.3370   49.2290 C   0  0  0  0  0  0  0  0  0  0  0  0
   63.4560   31.5840   50.2200 C   0  0  0  0  0  0  0  0  0  0  0  0
   62.1280   31.1460   49.5720 C   0  0  0  0  0  0  0  0  0  0  0  0
   61.1060   30.8070   50.5760 N   0  0  0  0  0  0  0  0  0  0  0  0
   61.6720   30.2000   51.7910 C   0  0  0  0  0  0  0  0  0  0  0  0
   60.7860   29.0530   52.3040 C   0  0  0  0  0  0  0  0  0  0  0  0
   60.9870   27.7200   51.5570 C   0  0  0  0  0  0  0  0  0  0  0  0
   61.0640   27.8300   50.0170 C   0  0  0  0  0  0  0  0  0  0  0  0
   59.8390   28.3410   49.3690 N   0  0  0  0  0  0  0  0  0  0  0  0
   59.7000   27.9870   47.9480 C   0  0  0  0  0  0  0  0  0  0  0  0
   60.1730   29.1270   47.0330 C   0  0  0  0  0  0  0  0  0  0  0  0
   59.2460   30.3410   47.1430 C   0  0  0  0  0  0  0  0  0  0  0  0
   59.0370   30.6860   48.5460 N   0  0  0  0  0  0  0  0  0  0  0  0
   59.3520   34.3100   48.4240 C   0  0  0  0  0  0  0  0  0  0  0  0
   60.1890   33.6180   49.5420 C   0  0  0  0  0  0  0  0  0  0  0  0
   59.4830   33.5480   50.9180 C   0  0  0  0  0  0  0  0  0  0  0  0
   58.7050   32.3130   51.1640 N   0  0  0  0  0  0  0  0  0  0  0  0
   57.5970   32.4390   52.1280 C   0  0  0  0  0  0  0  0  0  0  0  0
   56.7970   31.1320   52.2930 C   0  0  0  0  0  0  0  0  0  0  0  0
   57.6660   29.8960   52.0350 C   0  0  0  0  0  0  0  0  0  0  0  0
   58.1450   29.8730   50.6550 N   0  0  0  0  0  0  0  0  0  0  0  0
   58.1873   35.4774   44.9953 H   0  0  0  0  0  0  0  0  0  0  0  0
   59.6832   36.1996   44.3118 H   0  0  0  0  0  0  0  0  0  0  0  0
   59.4657   34.4166   44.3118 H   0  0  0  0  0  0  0  0  0  0  0  0
   61.0262   35.3996   46.1109 H   0  0  0  0  0  0  0  0  0  0  0  0
   59.4690   36.0466   46.8616 H   0  0  0  0  0  0  0  0  0  0  0  0
   57.9414   32.8381   47.1085 H   0  0  0  0  0  0  0  0  0  0  0  0
   58.0437   33.9675   45.7154 H   0  0  0  0  0  0  0  0  0  0  0  0
   59.0077   32.4518   45.7154 H   0  0  0  0  0  0  0  0  0  0  0  0
   61.1684   32.8305   48.0563 H   0  0  0  0  0  0  0  0  0  0  0  0
   60.7455   32.2795   46.3449 H   0  0  0  0  0  0  0  0  0  0  0  0
   62.5468   33.2498   45.5273 H   0  0  0  0  0  0  0  0  0  0  0  0
   62.0352   34.8391   46.2593 H   0  0  0  0  0  0  0  0  0  0  0  0
   64.3394   34.1284   46.9344 H   0  0  0  0  0  0  0  0  0  0  0  0
   63.1735   34.3253   48.3169 H   0  0  0  0  0  0  0  0  0  0  0  0
   64.3770   31.8910   47.2120 H   0  0  0  0  0  0  0  0  0  0  0  0
   65.3293   31.8337   49.1691 H   0  0  0  0  0  0  0  0  0  0  0  0
   64.4820   33.3716   49.5795 H   0  0  0  0  0  0  0  0  0  0  0  0
   63.9902   30.6906   50.5758 H   0  0  0  0  0  0  0  0  0  0  0  0
   63.2221   32.2630   51.0532 H   0  0  0  0  0  0  0  0  0  0  0  0
   61.7509   31.9681   48.9459 H   0  0  0  0  0  0  0  0  0  0  0  0
   62.3251   30.2451   48.9724 H   0  0  0  0  0  0  0  0  0  0  0  0
   60.4030   30.1520   50.1600 H   0  0  0  0  0  0  0  0  0  0  0  0
   62.6729   29.8054   51.5621 H   0  0  0  0  0  0  0  0  0  0  0  0
   61.7289   30.9723   52.5722 H   0  0  0  0  0  0  0  0  0  0  0  0
   61.0131   28.8904   53.3679 H   0  0  0  0  0  0  0  0  0  0  0  0
   59.7428   29.3577   52.1339 H   0  0  0  0  0  0  0  0  0  0  0  0
   61.9253   27.2694   51.9127 H   0  0  0  0  0  0  0  0  0  0  0  0
   60.0959   27.1127   51.7741 H   0  0  0  0  0  0  0  0  0  0  0  0
   61.8928   28.5074   49.7636 H   0  0  0  0  0  0  0  0  0  0  0  0
   61.2085   26.8064   49.6410 H   0  0  0  0  0  0  0  0  0  0  0  0
   59.7950   29.3820   49.4670 H   0  0  0  0  0  0  0  0  0  0  0  0
   60.3034   27.0905   47.7426 H   0  0  0  0  0  0  0  0  0  0  0  0
   58.6358   27.7994   47.7424 H   0  0  0  0  0  0  0  0  0  0  0  0
   61.1908   29.4242   47.3257 H   0  0  0  0  0  0  0  0  0  0  0  0
   60.1595   28.7694   45.9928 H   0  0  0  0  0  0  0  0  0  0  0  0
   59.7022   31.1957   46.6221 H   0  0  0  0  0  0  0  0  0  0  0  0
   58.2767   30.0972   46.6836 H   0  0  0  0  0  0  0  0  0  0  0  0
   58.3990   29.9680   48.9570 H   0  0  0  0  0  0  0  0  0  0  0  0
   59.9520   30.5900   49.0450 H   0  0  0  0  0  0  0  0  0  0  0  0
   59.4515   35.3977   48.5544 H   0  0  0  0  0  0  0  0  0  0  0  0
   58.3262   33.9322   48.5466 H   0  0  0  0  0  0  0  0  0  0  0  0
   60.4138   32.5911   49.2179 H   0  0  0  0  0  0  0  0  0  0  0  0
   61.0920   34.2302   49.6829 H   0  0  0  0  0  0  0  0  0  0  0  0
   60.2526   33.6270   51.7000 H   0  0  0  0  0  0  0  0  0  0  0  0
   58.7571   34.3744   50.9315 H   0  0  0  0  0  0  0  0  0  0  0  0
   58.3100   31.9980   50.2460 H   0  0  0  0  0  0  0  0  0  0  0  0
   59.3400   31.5490   51.4870 H   0  0  0  0  0  0  0  0  0  0  0  0
   58.0128   32.7224   53.1062 H   0  0  0  0  0  0  0  0  0  0  0  0
   56.9067   33.2031   51.7410 H   0  0  0  0  0  0  0  0  0  0  0  0
   56.4034   31.0826   53.3190 H   0  0  0  0  0  0  0  0  0  0  0  0
   55.9805   31.1357   51.5559 H   0  0  0  0  0  0  0  0  0  0  0  0
   58.5299   29.9150   52.7156 H   0  0  0  0  0  0  0  0  0  0  0  0
   57.0577   28.9965   52.2104 H   0  0  0  0  0  0  0  0  0  0  0  0
   59.1720   30.0670   50.6600 H   0  0  0  0  0  0  0  0  0  0  0  0
   58.0310   28.8970   50.2970 H   0  0  0  0  0  0  0  0  0  0  0  0
  1  2  1  0
  3  2  1  6
  3  4  1  0
  3  5  1  0
  5  6  1  0
  6  7  1  0
  7  8  1  0
  8  9  1  0
  9 10  1  0
 10 11  1  0
 11 12  1  0
 12 13  1  0
 13 14  1  0
 14 15  1  0
 15 16  1  0
 16 17  1  0
 17 18  1  0
 18 19  1  0
 19 20  1  0
 20 21  1  0
  3 22  1  0
 22 23  1  0
 23 24  1  0
 24 25  1  0
 25 26  1  0
 26 27  1  0
 27 28  1  0
 28 29  1  0
  1 30  1  0
  1 31  1  0
  1 32  1  0
  2 33  1  0
  2 34  1  0
  4 35  1  0
  4 36  1  0
  4 37  1  0
  5 38  1  0
  5 39  1  0
  6 40  1  0
  6 41  1  0
  7 42  1  0
  7 43  1  0
  8 44  1  0
  9 45  1  0
  9 46  1  0
 10 47  1  0
 10 48  1  0
 11 49  1  0
 11 50  1  0
 12 51  1  0
 13 52  1  0
 13 53  1  0
 14 54  1  0
 14 55  1  0
 15 56  1  0
 15 57  1  0
 16 58  1  0
 16 59  1  0
 17 60  1  0
 18 61  1  0
 18 62  1  0
 19 63  1  0
 19 64  1  0
 20 65  1  0
 20 66  1  0
 21 67  1  0
 21 68  1  0
 22 69  1  0
 22 70  1  0
 23 71  1  0
 23 72  1  0
 24 73  1  0
 24 74  1  0
 25 75  1  0
 25 76  1  0
 26 77  1  0
 26 78  1  0
 27 79  1  0
 27 80  1  0
 28 81  1  0
 28 82  1  0
 29 83  1  0
 29 84  1  0
M  CHG  2   3   1  25   1
M  END
>  <UniqueID>  (14) 
14

>  <SMILES>  (14) 
CC[N@@+](C)(CCCNCCCNCCCCNCCCN)CCC[NH2+]CCCN

>  <Energy>  (14) 
84.69221561888277

>  <Genealogy>  (14) 
CC[N+](C)(CCCNCCCNCCCCNCCCN)CCC[NH2+]CCCN (protonated)
CC[N@@+](C)(CCCNCCCNCCCCNCCCN)CCC[NH2+]CCCN (chirality)
CC[N@@+](C)(CCCNCCCNCCCCNCCCN)CCC[NH2+]CCCN (3D coordinates assigned)
CC[N@@+](C)(CCCNCCCNCCCCNCCCN)CCC[NH2+]CCCN (optimized conformer: 84.69221561888277 kcal/mol)

>  <smiles>  (14) 
CC[N+](C)(CCCNCCCN)CCCNCCCNCCCCNCCCN

>  <score_type>  (14) 
oracle

>  <origin>  (14) 
adg

>  <m_score__min__energy>  (14) 
1.6499999999999999

>  <m_primary>  (14) 
energy

$$$$
14:0
     RDKit          3D

 41 44  0  0  0  0  0  0  0  0999 V2000
   59.2450   33.2410   49.2340 H   0  0  0  0  0  0  0  0  0  0  0  0
   58.9210   32.3770   48.7460 N   0  0  0  0  0  0  0  0  0  0  0  0
   59.0560   32.2340   47.4680 C   0  0  0  0  0  0  0  0  0  0  0  0
   60.1810   33.2920   46.5630 S   0  0  0  0  0  0  0  0  0  0  0  0
   58.9300   34.4020   45.7930 C   0  0  2  0  0  0  0  0  0  0  0  0
   59.5777   35.2790   45.9391 H   0  0  0  0  0  0  0  0  0  0  0  0
   57.4180   34.2120   45.9690 C   0  0  0  0  0  0  0  0  0  0  0  0
   56.7487   35.0849   45.9554 H   0  0  0  0  0  0  0  0  0  0  0  0
   56.7770   33.7322   46.7232 H   0  0  0  0  0  0  0  0  0  0  0  0
   58.0990   33.7540   44.6850 C   0  0  2  0  0  0  0  0  0  0  0  0
   58.0052   33.9547   43.6075 H   0  0  0  0  0  0  0  0  0  0  0  0
   58.1400   32.2500   44.4600 C   0  0  0  0  0  0  0  0  0  0  0  0
   58.2270   31.1680   45.3490 C   0  0  0  0  0  0  0  0  0  0  0  0
   58.0900   30.0150   44.6580 N   0  0  0  0  0  0  0  0  0  0  0  0
   58.1290   28.6730   45.1750 C   0  0  0  0  0  0  0  0  0  0  0  0
   59.3450   27.9740   45.2670 C   0  0  0  0  0  0  0  0  0  0  0  0
   60.2807   28.4598   44.9530 H   0  0  0  0  0  0  0  0  0  0  0  0
   59.3710   26.6660   45.7550 C   0  0  0  0  0  0  0  0  0  0  0  0
   60.3300   26.1326   45.8311 H   0  0  0  0  0  0  0  0  0  0  0  0
   58.1910   26.0270   46.1480 C   0  0  0  0  0  0  0  0  0  0  0  0
   58.2800   24.7110   46.6340 O   0  0  0  0  0  0  0  0  0  0  0  0
   58.1560   23.5250   45.8510 C   0  0  0  0  0  0  0  0  0  0  0  0
   59.1313   23.0181   45.8072 H   0  0  0  0  0  0  0  0  0  0  0  0
   57.4052   22.8708   46.3183 H   0  0  0  0  0  0  0  0  0  0  0  0
   57.7010   23.8570   44.4340 C   0  0  0  0  0  0  0  0  0  0  0  0
   56.8131   24.5049   44.4763 H   0  0  0  0  0  0  0  0  0  0  0  0
   58.5103   24.3783   43.9017 H   0  0  0  0  0  0  0  0  0  0  0  0
   57.4515   22.9273   43.9017 H   0  0  0  0  0  0  0  0  0  0  0  0
   56.9700   26.7220   46.0480 C   0  0  0  0  0  0  0  0  0  0  0  0
   56.0341   26.2323   46.3550 H   0  0  0  0  0  0  0  0  0  0  0  0
   56.9430   28.0320   45.5600 C   0  0  0  0  0  0  0  0  0  0  0  0
   55.9837   28.5639   45.4775 H   0  0  0  0  0  0  0  0  0  0  0  0
   57.9270   30.3030   43.3760 N   0  0  0  0  0  0  0  0  0  0  0  0
   57.8030   29.5990   42.6150 H   0  0  0  0  0  0  0  0  0  0  0  0
   57.9610   31.6400   43.2230 C   0  0  0  0  0  0  0  0  0  0  0  0
   57.7600   32.3330   41.9130 C   0  0  0  0  0  0  0  0  0  0  0  0
   57.4577   33.3753   42.0922 H   0  0  0  0  0  0  0  0  0  0  0  0
   58.6998   32.3169   41.3416 H   0  0  0  0  0  0  0  0  0  0  0  0
   56.9746   31.8165   41.3416 H   0  0  0  0  0  0  0  0  0  0  0  0
   58.3130   31.2270   46.7810 N   0  0  0  0  0  0  0  0  0  0  0  0
   57.8390   30.4860   47.3440 H   0  0  0  0  0  0  0  0  0  0  0  0
  1  2  1  0
  2  3  2  0
  3  4  1  0
  4  5  1  0
  5  6  1  6
  5  7  1  0
  7  8  1  0
  7  9  1  0
  7 10  1  0
 10 11  1  6
 10 12  1  0
 12 13  2  0
 13 14  1  0
 14 15  1  0
 15 16  2  0
 16 17  1  0
 16 18  1  0
 18 19  1  0
 18 20  2  0
 20 21  1  0
 21 22  1  0
 22 23  1  0
 22 24  1  0
 22 25  1  0
 25 26  1  0
 25 27  1  0
 25 28  1  0
 20 29  1  0
 29 30  1  0
 29 31  2  0
 31 32  1  0
 14 33  1  0
 33 34  1  0
 33 35  2  0
 35 36  1  0
 36 37  1  0
 36 38  1  0
 36 39  1  0
 13 40  1  0
 40 41  1  0
 40  3  1  0
 10  5  1  0
 35 12  1  0
 31 15  1  0
M  CHG  1  33   1
M  END
>  <UniqueID>  (15) 
15

>  <SMILES>  (15) 
[H]/N=C1/Nc2c(c(C)[nH+]n2-c2ccc(OCC)cc2)[C@H]2C[C@H]2S1

>  <Energy>  (15) 
356.8755608155103

>  <Genealogy>  (15) 
CCOc1ccc(-n2[nH+]c(C)c3c2NC(=N)SC2CC32)cc1 (protonated)
CCOc1ccc(-n2[nH+]c(C)c3c2NC(=N)S[C@@H]2C[C@H]32)cc1 (chirality)
[H]/N=C1/Nc2c(c(C)[nH+]n2-c2ccc(OCC)cc2)[C@H]2C[C@H]2S1 (cis-trans isomerization)
[H]/N=C1/Nc2c(c(C)[nH+]n2-c2ccc(OCC)cc2)[C@H]2C[C@H]2S1 (3D coordinates assigned)
[H]/N=C1/Nc2c(c(C)[nH+]n2-c2ccc(OCC)cc2)[C@H]2C[C@H]2S1 (nonaromatic ring conformer: 356.8755608155103 kcal/mol)

>  <smiles>  (15) 
CCOc1ccc(-n2nc(C)c3c2NC(=N)SC2CC32)cc1

>  <score_type>  (15) 
oracle

>  <origin>  (15) 
adg

>  <m_score__min__energy>  (15) 
-5.6100000000000003

>  <m_primary>  (15) 
energy

$$$$
15:0
     RDKit          3D

 51 54  0  0  0  0  0  0  0  0999 V2000
   59.9770   28.7050   46.3380 C   0  0  0  0  0  0  0  0  0  0  0  0
   59.5640   27.9390   47.5990 C   0  0  0  0  0  0  0  0  0  0  0  0
   59.8120   28.7150   48.8310 N   0  0  0  0  0  0  0  0  0  0  0  0
   60.7290   28.0380   49.7690 C   0  0  0  0  0  0  0  0  0  0  0  0
   61.5090   29.0380   50.6390 C   0  0  0  0  0  0  0  0  0  0  0  0
   60.9400   30.3790   50.5200 N   0  0  0  0  0  0  0  0  0  0  0  0
   61.5320   31.3390   49.6370 C   0  0  0  0  0  0  0  0  0  0  0  0
   60.7620   31.9500   48.6570 C   0  0  0  0  0  0  0  0  0  0  0  0
   61.3110   32.8610   47.7720 C   0  0  0  0  0  0  0  0  0  0  0  0
   62.6580   33.1250   47.7570 N   0  0  0  0  0  0  0  0  0  0  0  0
   63.2550   33.8390   46.6160 C   0  0  0  0  0  0  0  0  0  0  0  0
   63.4360   32.6500   48.8030 C   0  0  0  0  0  0  0  0  0  0  0  0
   64.7740   33.0730   48.9850 C   0  0  0  0  0  0  0  0  0  0  0  0
   65.5500   32.5730   50.0300 C   0  0  0  0  0  0  0  0  0  0  0  0
   65.0200   31.6430   50.9290 C   0  0  0  0  0  0  0  0  0  0  0  0
   65.8500   31.1490   52.0780 C   0  0  0  0  0  0  0  0  0  0  0  0
   63.6850   31.2460   50.8050 C   0  0  0  0  0  0  0  0  0  0  0  0
   62.8840   31.7290   49.7530 C   0  0  0  0  0  0  0  0  0  0  0  0
   60.2210   33.3540   46.8930 C   0  0  0  0  0  0  0  0  0  0  0  0
   60.1710   34.4120   45.9740 C   0  0  0  0  0  0  0  0  0  0  0  0
   58.9500   34.6970   45.3390 C   0  0  0  0  0  0  0  0  0  0  0  0
   57.7900   33.9630   45.6550 C   0  0  0  0  0  0  0  0  0  0  0  0
   57.8360   32.9510   46.6250 C   0  0  0  0  0  0  0  0  0  0  0  0
   59.0600   32.6730   47.2320 C   0  0  0  0  0  0  0  0  0  0  0  0
   59.3500   31.7750   48.3370 C   0  0  0  0  0  0  0  0  0  0  0  0
   58.5330   31.0090   48.9130 O   0  0  0  0  0  0  0  0  0  0  0  0
   60.4809   29.6396   46.6253 H   0  0  0  0  0  0  0  0  0  0  0  0
   60.6639   28.0864   45.7417 H   0  0  0  0  0  0  0  0  0  0  0  0
   59.0827   28.9389   45.7417 H   0  0  0  0  0  0  0  0  0  0  0  0
   58.4905   27.7072   47.5367 H   0  0  0  0  0  0  0  0  0  0  0  0
   60.1699   27.0223   47.6502 H   0  0  0  0  0  0  0  0  0  0  0  0
   60.2040   29.6500   48.5690 H   0  0  0  0  0  0  0  0  0  0  0  0
   58.9040   28.8990   49.3190 H   0  0  0  0  0  0  0  0  0  0  0  0
   60.1418   27.3792   50.4257 H   0  0  0  0  0  0  0  0  0  0  0  0
   61.4572   27.4648   49.1764 H   0  0  0  0  0  0  0  0  0  0  0  0
   61.4605   28.7170   51.6900 H   0  0  0  0  0  0  0  0  0  0  0  0
   62.5539   29.0653   50.2964 H   0  0  0  0  0  0  0  0  0  0  0  0
   59.9940   30.5880   50.9140 H   0  0  0  0  0  0  0  0  0  0  0  0
   63.9192   34.6333   46.9874 H   0  0  0  0  0  0  0  0  0  0  0  0
   63.8349   33.1324   46.0041 H   0  0  0  0  0  0  0  0  0  0  0  0
   62.4569   34.2847   46.0041 H   0  0  0  0  0  0  0  0  0  0  0  0
   65.2087   33.8077   48.2913 H   0  0  0  0  0  0  0  0  0  0  0  0
   66.5892   32.9137   50.1481 H   0  0  0  0  0  0  0  0  0  0  0  0
   65.3706   31.4343   53.0260 H   0  0  0  0  0  0  0  0  0  0  0  0
   65.9345   30.0535   52.0250 H   0  0  0  0  0  0  0  0  0  0  0  0
   66.8532   31.5971   52.0250 H   0  0  0  0  0  0  0  0  0  0  0  0
   63.2555   30.5477   51.5385 H   0  0  0  0  0  0  0  0  0  0  0  0
   61.0697   35.0071   45.7544 H   0  0  0  0  0  0  0  0  0  0  0  0
   58.8998   35.5000   44.5889 H   0  0  0  0  0  0  0  0  0  0  0  0
   56.8442   34.1844   45.1389 H   0  0  0  0  0  0  0  0  0  0  0  0
   56.9299   32.3911   46.8997 H   0  0  0  0  0  0  0  0  0  0  0  0
  1  2  1  0
  2  3  1  0
  3  4  1  0
  4  5  1  0
  5  6  1  0
  6  7  1  0
  7  8  2  0
  8  9  1  0
  9 10  2  0
 10 11  1  0
 10 12  1  0
 12 13  2  0
 13 14  1  0
 14 15  2  0
 15 16  1  0
 15 17  1  0
 17 18  2  0
  9 19  1  0
 19 20  2  0
 20 21  1  0
 21 22  2  0
 22 23  1  0
 23 24  2  0
 24 25  1  0
 25 26  2  0
 18  7  1  0
 24 19  1  0
 25  8  1  0
 18 12  1  0
  1 27  1  0
  1 28  1  0
  1 29  1  0
  2 30  1  0
  2 31  1  0
  3 32  1  0
  3 33  1  0
  4 34  1  0
  4 35  1  0
  5 36  1  0
  5 37  1  0
  6 38  1  0
 11 39  1  0
 11 40  1  0
 11 41  1  0
 13 42  1  0
 14 43  1  0
 16 44  1  0
 16 45  1  0
 16 46  1  0
 17 47  1  0
 20 48  1  0
 21 49  1  0
 22 50  1  0
 23 51  1  0
M  CHG  2   3   1  10   1
M  END
>  <UniqueID>  (16) 
16

>  <SMILES>  (16) 
CC[NH2+]CCNc1c2c([n+](C)c3ccc(C)cc13)-c1ccccc1C2=O

>  <Energy>  (16) 
105.86452817278953

>  <Genealogy>  (16) 
CC[NH2+]CCNc1c2c([n+](C)c3ccc(C)cc13)-c1ccccc1C2=O (protonated)
CC[NH2+]CCNc1c2c([n+](C)c3ccc(C)cc13)-c1ccccc1C2=O (3D coordinates assigned)
CC[NH2+]CCNc1c2c([n+](C)c3ccc(C)cc13)-c1ccccc1C2=O (nonaromatic ring conformer: 105.86452817278953 kcal/mol)

>  <smiles>  (16) 
CCNCCNc1c2c([n+](C)c3ccc(C)cc13)-c1ccccc1C2=O

>  <score_type>  (16) 
oracle

>  <origin>  (16) 
adg

>  <m_score__min__energy>  (16) 
-5.21

>  <m_primary>  (16) 
energy

$$$$
16:0
     RDKit          3D

 57 59  0  0  0  0  0  0  0  0999 V2000
   64.6770   32.2660   50.1480 C   0  0  0  0  0  0  0  0  0  0  0  0
   63.1840   32.1790   50.4420 C   0  0  0  0  0  0  0  0  0  0  0  0
   62.5930   31.0460   49.7190 N   0  0  0  0  0  0  0  0  0  0  0  0
   61.2740   30.7220   50.2710 C   0  0  0  0  0  0  0  0  0  0  0  0
   60.2470   30.5940   49.1370 C   0  0  0  0  0  0  0  0  0  0  0  0
   60.7550   31.1030   47.8570 N   0  0  0  0  0  0  0  0  0  0  0  0
   59.9740   31.0720   46.6500 C   0  0  0  0  0  0  0  0  0  0  0  0
   59.6380   29.8350   46.0760 C   0  0  0  0  0  0  0  0  0  0  0  0
   60.3250   28.6590   46.4410 C   0  0  0  0  0  0  0  0  0  0  0  0
   60.0090   27.4380   45.8490 C   0  0  0  0  0  0  0  0  0  0  0  0
   59.0180   27.3730   44.8770 C   0  0  0  0  0  0  0  0  0  0  0  0
   58.3240   28.5230   44.5040 C   0  0  0  0  0  0  0  0  0  0  0  0
   58.5990   29.7740   45.1150 C   0  0  0  0  0  0  0  0  0  0  0  0
   57.8860   30.9110   44.8010 N   0  0  0  0  0  0  0  0  0  0  0  0
   56.5980   30.7980   44.0800 C   0  0  0  0  0  0  0  0  0  0  0  0
   58.3740   32.1540   45.1650 C   0  0  0  0  0  0  0  0  0  0  0  0
   57.8360   33.3410   44.6100 C   0  0  0  0  0  0  0  0  0  0  0  0
   58.3200   34.5900   44.9760 C   0  0  0  0  0  0  0  0  0  0  0  0
   59.3760   34.6960   45.8670 C   0  0  0  0  0  0  0  0  0  0  0  0
   59.9650   33.5540   46.4220 C   0  0  0  0  0  0  0  0  0  0  0  0
   61.1870   33.7300   47.1640 N   0  0  0  0  0  0  0  0  0  0  0  0
   61.1220   34.2300   48.5450 C   0  0  0  0  0  0  0  0  0  0  0  0
   59.7280   34.0450   49.1410 C   0  0  0  0  0  0  0  0  0  0  0  0
   62.4570   33.8280   46.4260 C   0  0  0  0  0  0  0  0  0  0  0  0
   63.5800   33.0640   47.1240 C   0  0  0  0  0  0  0  0  0  0  0  0
   59.4480   32.2620   46.0980 C   0  0  0  0  0  0  0  0  0  0  0  0
   65.2359   32.2986   51.0949 H   0  0  0  0  0  0  0  0  0  0  0  0
   64.9886   31.3845   49.5685 H   0  0  0  0  0  0  0  0  0  0  0  0
   64.8841   33.1777   49.5685 H   0  0  0  0  0  0  0  0  0  0  0  0
   63.0334   32.0395   51.5227 H   0  0  0  0  0  0  0  0  0  0  0  0
   62.6974   33.1092   50.1135 H   0  0  0  0  0  0  0  0  0  0  0  0
   63.2140   30.2150   49.8650 H   0  0  0  0  0  0  0  0  0  0  0  0
   61.3323   29.7699   50.8188 H   0  0  0  0  0  0  0  0  0  0  0  0
   60.9605   31.5263   50.9528 H   0  0  0  0  0  0  0  0  0  0  0  0
   59.9862   29.5323   49.0157 H   0  0  0  0  0  0  0  0  0  0  0  0
   59.3695   31.1977   49.4117 H   0  0  0  0  0  0  0  0  0  0  0  0
   61.7900   31.1720   47.7600 H   0  0  0  0  0  0  0  0  0  0  0  0
   61.1187   28.7061   47.2011 H   0  0  0  0  0  0  0  0  0  0  0  0
   60.5439   26.5255   46.1510 H   0  0  0  0  0  0  0  0  0  0  0  0
   58.7803   26.4106   44.4002 H   0  0  0  0  0  0  0  0  0  0  0  0
   57.5511   28.4598   43.7239 H   0  0  0  0  0  0  0  0  0  0  0  0
   55.7758   30.7259   44.8072 H   0  0  0  0  0  0  0  0  0  0  0  0
   56.4521   31.6868   43.4485 H   0  0  0  0  0  0  0  0  0  0  0  0
   56.6091   29.8974   43.4485 H   0  0  0  0  0  0  0  0  0  0  0  0
   57.0199   33.2721   43.8757 H   0  0  0  0  0  0  0  0  0  0  0  0
   57.8634   35.4988   44.5570 H   0  0  0  0  0  0  0  0  0  0  0  0
   59.7564   35.6909   46.1418 H   0  0  0  0  0  0  0  0  0  0  0  0
   61.8496   33.6794   49.1593 H   0  0  0  0  0  0  0  0  0  0  0  0
   61.3535   35.3053   48.5345 H   0  0  0  0  0  0  0  0  0  0  0  0
   59.7945   34.0538   50.2389 H   0  0  0  0  0  0  0  0  0  0  0  0
   59.0746   34.8643   48.8066 H   0  0  0  0  0  0  0  0  0  0  0  0
   59.3109   33.0836   48.8066 H   0  0  0  0  0  0  0  0  0  0  0  0
   62.3159   33.4110   45.4179 H   0  0  0  0  0  0  0  0  0  0  0  0
   62.7436   34.8890   46.3789 H   0  0  0  0  0  0  0  0  0  0  0  0
   63.4577   33.1472   48.2140 H   0  0  0  0  0  0  0  0  0  0  0  0
   63.5404   32.0046   46.8304 H   0  0  0  0  0  0  0  0  0  0  0  0
   64.5508   33.4898   46.8304 H   0  0  0  0  0  0  0  0  0  0  0  0
  1  2  1  0
  2  3  1  0
  3  4  1  0
  4  5  1  0
  5  6  1  0
  6  7  1  0
  7  8  2  0
  8  9  1  0
  9 10  2  0
 10 11  1  0
 11 12  2  0
 12 13  1  0
 13 14  2  0
 14 15  1  0
 14 16  1  0
 16 17  2  0
 17 18  1  0
 18 19  2  0
 19 20  1  0
 20 21  1  0
 21 22  1  0
 22 23  1  0
 21 24  1  0
 24 25  1  0
 20 26  2  0
 26  7  1  0
 13  8  1  0
 26 16  1  0
  1 27  1  0
  1 28  1  0
  1 29  1  0
  2 30  1  0
  2 31  1  0
  3 32  1  0
  4 33  1  0
  4 34  1  0
  5 35  1  0
  5 36  1  0
  6 37  1  0
  9 38  1  0
 10 39  1  0
 11 40  1  0
 12 41  1  0
 15 42  1  0
 15 43  1  0
 15 44  1  0
 17 45  1  0
 18 46  1  0
 19 47  1  0
 22 48  1  0
 22 49  1  0
 23 50  1  0
 23 51  1  0
 23 52  1  0
 24 53  1  0
 24 54  1  0
 25 55  1  0
 25 56  1  0
 25 57  1  0
M  CHG  1  14   1
M  END
>  <UniqueID>  (17) 
17

>  <SMILES>  (17) 
CCNCCNc1c2ccccc2[n+](C)c2cccc(N(CC)CC)c12

>  <Energy>  (17) 
84.26286151960798

>  <Genealogy>  (17) 
CCNCCNc1c2ccccc2[n+](C)c2cccc(N(CC)CC)c12 (3D coordinates assigned)
CCNCCNc1c2ccccc2[n+](C)c2cccc(N(CC)CC)c12 (optimized conformer: 84.26286151960798 kcal/mol)

>  <smiles>  (17) 
CCNCCNc1c2ccccc2[n+](C)c2cccc(N(CC)CC)c12

>  <score_type>  (17) 
oracle

>  <origin>  (17) 
adg

>  <m_score__min__energy>  (17) 
-5.5499999999999998

>  <m_primary>  (17) 
energy

$$$$
17:0
     RDKit          3D

 46 46  0  0  0  0  0  0  0  0999 V2000
   58.9260   31.2380   48.9500 C   0  0  0  0  0  0  0  0  0  0  0  0
   58.8940   30.2810   47.7520 C   0  0  0  0  0  0  0  0  0  0  0  0
   59.6210   30.8300   46.5690 N   0  0  0  0  0  0  0  0  0  0  0  0
   60.1360   29.7650   45.6680 C   0  0  0  0  0  0  0  0  0  0  0  0
   60.2370   28.4030   46.3610 C   0  0  0  0  0  0  0  0  0  0  0  0
   60.6980   31.7760   46.9730 C   0  0  0  0  0  0  0  0  0  0  0  0
   60.3910   33.2710   46.7360 C   0  0  0  0  0  0  0  0  0  0  0  0
   59.0020   33.4920   46.6020 O   0  0  0  0  0  0  0  0  0  0  0  0
   58.7450   34.2960   45.4680 C   0  0  0  0  0  0  0  0  0  0  0  0
   58.0970   33.4470   44.3820 C   0  0  0  0  0  0  0  0  0  0  0  0
   58.2850   32.0800   44.6590 O   0  0  0  0  0  0  0  0  0  0  0  0
   57.0600   31.5940   44.9920 N   0  0  0  0  0  0  0  0  0  0  0  0
   56.6710   30.2680   44.6320 C   0  0  0  0  0  0  0  0  0  0  0  0
   55.4930   29.8850   44.8590 O   0  0  0  0  0  0  0  0  0  0  0  0
   57.6080   29.3930   43.9920 N   0  0  0  0  0  0  0  0  0  0  0  0
   57.5840   27.9630   44.1300 C   0  0  0  0  0  0  0  0  0  0  0  0
   57.8510   27.1190   43.0370 C   0  0  0  0  0  0  0  0  0  0  0  0
   57.7500   25.7320   43.1760 C   0  0  0  0  0  0  0  0  0  0  0  0
   57.3770   25.1750   44.4030 C   0  0  0  0  0  0  0  0  0  0  0  0
   57.2220   23.2810   44.5860 Br  0  0  0  0  0  0  0  0  0  0  0  0
   57.1050   26.0080   45.4930 C   0  0  0  0  0  0  0  0  0  0  0  0
   57.2040   27.3950   45.3560 C   0  0  0  0  0  0  0  0  0  0  0  0
   58.9066   30.6571   49.8839 H   0  0  0  0  0  0  0  0  0  0  0  0
   59.8448   31.8416   48.9127 H   0  0  0  0  0  0  0  0  0  0  0  0
   58.0495   31.9016   48.9127 H   0  0  0  0  0  0  0  0  0  0  0  0
   59.3633   29.3305   48.0458 H   0  0  0  0  0  0  0  0  0  0  0  0
   57.8422   30.1374   47.4639 H   0  0  0  0  0  0  0  0  0  0  0  0
   58.9590   31.4110   46.0000 H   0  0  0  0  0  0  0  0  0  0  0  0
   59.4566   29.6727   44.8078 H   0  0  0  0  0  0  0  0  0  0  0  0
   61.1501   30.0552   45.3559 H   0  0  0  0  0  0  0  0  0  0  0  0
   60.2265   28.5449   47.4518 H   0  0  0  0  0  0  0  0  0  0  0  0
   59.3828   27.7765   46.0645 H   0  0  0  0  0  0  0  0  0  0  0  0
   61.1742   27.9093   46.0645 H   0  0  0  0  0  0  0  0  0  0  0  0
   60.8880   31.6349   48.0472 H   0  0  0  0  0  0  0  0  0  0  0  0
   61.5630   31.5399   46.3358 H   0  0  0  0  0  0  0  0  0  0  0  0
   60.7665   33.8542   47.5898 H   0  0  0  0  0  0  0  0  0  0  0  0
   60.8852   33.5849   45.8048 H   0  0  0  0  0  0  0  0  0  0  0  0
   58.0670   35.1164   45.7459 H   0  0  0  0  0  0  0  0  0  0  0  0
   59.6905   34.7141   45.0922 H   0  0  0  0  0  0  0  0  0  0  0  0
   57.0196   33.6655   44.3440 H   0  0  0  0  0  0  0  0  0  0  0  0
   58.5620   33.6851   43.4140 H   0  0  0  0  0  0  0  0  0  0  0  0
   58.3340   29.8240   43.3770 H   0  0  0  0  0  0  0  0  0  0  0  0
   58.1406   27.5525   42.0684 H   0  0  0  0  0  0  0  0  0  0  0  0
   57.9644   25.0773   42.3184 H   0  0  0  0  0  0  0  0  0  0  0  0
   56.8128   25.5708   46.4592 H   0  0  0  0  0  0  0  0  0  0  0  0
   56.9827   28.0460   46.2146 H   0  0  0  0  0  0  0  0  0  0  0  0
  1  2  1  0
  2  3  1  0
  3  4  1  0
  4  5  1  0
  3  6  1  0
  6  7  1  0
  7  8  1  0
  8  9  1  0
  9 10  1  0
 10 11  1  0
 11 12  1  0
 12 13  1  0
 13 14  2  0
 13 15  1  0
 15 16  1  0
 16 17  2  0
 17 18  1  0
 18 19  2  0
 19 20  1  0
 19 21  1  0
 21 22  2  0
 22 16  1  0
  1 23  1  0
  1 24  1  0
  1 25  1  0
  2 26  1  0
  2 27  1  0
  3 28  1  0
  4 29  1  0
  4 30  1  0
  5 31  1  0
  5 32  1  0
  5 33  1  0
  6 34  1  0
  6 35  1  0
  7 36  1  0
  7 37  1  0
  9 38  1  0
  9 39  1  0
 10 40  1  0
 10 41  1  0
 15 42  1  0
 17 43  1  0
 18 44  1  0
 21 45  1  0
 22 46  1  0
M  CHG  2   3   1  12  -1
M  END
>  <UniqueID>  (18) 
18

>  <SMILES>  (18) 
CC[NH+](CC)CCOCCO[N-]C(=O)Nc1ccc(Br)cc1

>  <Energy>  (18) 
44.342352197048555

>  <Genealogy>  (18) 
CC[NH+](CC)CCOCCO[N-]C(=O)Nc1ccc(Br)cc1 (protonated)
CC[NH+](CC)CCOCCO[N-]C(=O)Nc1ccc(Br)cc1 (3D coordinates assigned)
CC[NH+](CC)CCOCCO[N-]C(=O)Nc1ccc(Br)cc1 (optimized conformer: 44.342352197048555 kcal/mol)

>  <smiles>  (18) 
CCN(CC)CCOCCONC(=O)Nc1ccc(Br)cc1

>  <score_type>  (18) 
oracle

>  <origin>  (18) 
adg

>  <m_score__min__energy>  (18) 
-5.8499999999999996

>  <m_primary>  (18) 
energy

$$$$
18:0
     RDKit          3D

 69 71  0  0  0  0  0  0  0  0999 V2000
   62.1980   29.8100   50.7610 C   0  0  0  0  0  0  0  0  0  0  0  0
   61.1970   29.8480   49.5990 C   0  0  0  0  0  0  0  0  0  0  0  0
   60.2350   28.7200   49.5950 N   0  0  0  0  0  0  0  0  0  0  0  0
   60.7690   27.5350   50.2930 C   0  0  0  0  0  0  0  0  0  0  0  0
   59.7320   28.3910   48.2430 C   0  0  0  0  0  0  0  0  0  0  0  0
   58.9890   29.5890   47.6420 C   0  0  0  0  0  0  0  0  0  0  0  0
   59.7890   30.2180   46.6560 O   0  0  0  0  0  0  0  0  0  0  0  0
   59.6590   29.5790   45.3980 C   0  0  0  0  0  0  0  0  0  0  0  0
   58.2750   28.9310   45.2650 C   0  0  0  0  0  0  0  0  0  0  0  0
   57.5270   29.4430   44.0210 C   0  0  0  0  0  0  0  0  0  0  0  0
   56.7710   30.7610   44.3000 C   0  0  0  0  0  0  0  0  0  0  0  0
   57.3870   31.5900   45.2720 O   0  0  0  0  0  0  0  0  0  0  0  0
   57.0130   32.9580   45.1730 C   0  0  0  0  0  0  0  0  0  0  0  0
   58.1890   33.9510   45.2180 C   0  0  0  0  0  0  0  0  0  0  0  0
   58.6890   34.2220   46.6430 C   0  0  0  0  0  0  0  0  0  0  0  0
   59.0610   32.9700   47.3050 N   0  0  0  0  0  0  0  0  0  0  0  0
   59.9810   32.9410   48.4090 C   0  0  0  0  0  0  0  0  0  0  0  0
   59.5200   32.6860   49.7120 C   0  0  0  0  0  0  0  0  0  0  0  0
   58.1750   32.3290   49.9440 C   0  0  0  0  0  0  0  0  0  0  0  0
   57.7300   32.0340   51.2310 C   0  0  0  0  0  0  0  0  0  0  0  0
   58.6190   32.0650   52.3000 C   0  0  0  0  0  0  0  0  0  0  0  0
   59.9540   32.4100   52.0920 C   0  0  0  0  0  0  0  0  0  0  0  0
   60.4300   32.7580   50.8020 C   0  0  0  0  0  0  0  0  0  0  0  0
   61.7400   33.1420   50.5870 N   0  0  0  0  0  0  0  0  0  0  0  0
   62.6060   33.4980   51.7340 C   0  0  0  0  0  0  0  0  0  0  0  0
   62.2390   33.2060   49.2990 C   0  0  0  0  0  0  0  0  0  0  0  0
   63.6290   33.3390   49.0400 C   0  0  0  0  0  0  0  0  0  0  0  0
   64.1110   33.4590   47.7350 C   0  0  0  0  0  0  0  0  0  0  0  0
   63.2330   33.4220   46.6580 C   0  0  0  0  0  0  0  0  0  0  0  0
   61.8700   33.2430   46.8770 C   0  0  0  0  0  0  0  0  0  0  0  0
   61.3570   33.1280   48.1880 C   0  0  0  0  0  0  0  0  0  0  0  0
   61.6523   29.8307   51.7159 H   0  0  0  0  0  0  0  0  0  0  0  0
   62.7956   28.8885   50.7001 H   0  0  0  0  0  0  0  0  0  0  0  0
   62.8638   30.6835   50.7001 H   0  0  0  0  0  0  0  0  0  0  0  0
   60.6283   30.7874   49.6629 H   0  0  0  0  0  0  0  0  0  0  0  0
   61.7830   29.7700   48.6713 H   0  0  0  0  0  0  0  0  0  0  0  0
   60.7001   27.6878   51.3802 H   0  0  0  0  0  0  0  0  0  0  0  0
   60.1837   26.6478   50.0096 H   0  0  0  0  0  0  0  0  0  0  0  0
   61.8214   27.3858   50.0096 H   0  0  0  0  0  0  0  0  0  0  0  0
   60.5810   28.1288   47.5945 H   0  0  0  0  0  0  0  0  0  0  0  0
   59.0368   27.5418   48.3183 H   0  0  0  0  0  0  0  0  0  0  0  0
   58.0521   29.2417   47.1821 H   0  0  0  0  0  0  0  0  0  0  0  0
   58.7702   30.3126   48.4411 H   0  0  0  0  0  0  0  0  0  0  0  0
   59.7884   30.3236   44.5987 H   0  0  0  0  0  0  0  0  0  0  0  0
   60.4276   28.7964   45.3154 H   0  0  0  0  0  0  0  0  0  0  0  0
   58.3975   27.8408   45.1844 H   0  0  0  0  0  0  0  0  0  0  0  0
   57.6844   29.1952   46.1546 H   0  0  0  0  0  0  0  0  0  0  0  0
   58.2554   29.6155   43.2150 H   0  0  0  0  0  0  0  0  0  0  0  0
   56.7868   28.6819   43.7333 H   0  0  0  0  0  0  0  0  0  0  0  0
   56.7028   31.3255   43.3584 H   0  0  0  0  0  0  0  0  0  0  0  0
   55.7858   30.4814   44.7016 H   0  0  0  0  0  0  0  0  0  0  0  0
   56.4810   33.0998   44.2207 H   0  0  0  0  0  0  0  0  0  0  0  0
   56.3896   33.1743   46.0531 H   0  0  0  0  0  0  0  0  0  0  0  0
   59.0199   33.5377   44.6274 H   0  0  0  0  0  0  0  0  0  0  0  0
   57.8297   34.9062   44.8076 H   0  0  0  0  0  0  0  0  0  0  0  0
   59.5676   34.8824   46.5985 H   0  0  0  0  0  0  0  0  0  0  0  0
   57.8821   34.7008   47.2171 H   0  0  0  0  0  0  0  0  0  0  0  0
   58.7360   32.0640   46.9000 H   0  0  0  0  0  0  0  0  0  0  0  0
   57.4706   32.2831   49.1004 H   0  0  0  0  0  0  0  0  0  0  0  0
   56.6743   31.7763   51.4017 H   0  0  0  0  0  0  0  0  0  0  0  0
   58.2681   31.8167   53.3125 H   0  0  0  0  0  0  0  0  0  0  0  0
   60.6503   32.4123   52.9435 H   0  0  0  0  0  0  0  0  0  0  0  0
   62.0774   33.2807   52.6739 H   0  0  0  0  0  0  0  0  0  0  0  0
   63.5335   32.9082   51.6901 H   0  0  0  0  0  0  0  0  0  0  0  0
   62.8505   34.5696   51.6901 H   0  0  0  0  0  0  0  0  0  0  0  0
   64.3376   33.3476   49.8813 H   0  0  0  0  0  0  0  0  0  0  0  0
   65.1896   33.5833   47.5586 H   0  0  0  0  0  0  0  0  0  0  0  0
   63.6152   33.5342   45.6327 H   0  0  0  0  0  0  0  0  0  0  0  0
   61.1841   33.1905   46.0186 H   0  0  0  0  0  0  0  0  0  0  0  0
  1  2  1  0
  2  3  1  0
  3  4  1  0
  3  5  1  0
  5  6  1  0
  6  7  1  0
  7  8  1  0
  8  9  1  0
  9 10  1  0
 10 11  1  0
 11 12  1  0
 12 13  1  0
 13 14  1  0
 14 15  1  0
 15 16  1  0
 16 17  1  0
 17 18  2  0
 18 19  1  0
 19 20  2  0
 20 21  1  0
 21 22  2  0
 22 23  1  0
 23 24  2  0
 24 25  1  0
 24 26  1  0
 26 27  2  0
 27 28  1  0
 28 29  2  0
 29 30  1  0
 30 31  2  0
 31 17  1  0
 23 18  1  0
 31 26  1  0
  1 32  1  0
  1 33  1  0
  1 34  1  0
  2 35  1  0
  2 36  1  0
  4 37  1  0
  4 38  1  0
  4 39  1  0
  5 40  1  0
  5 41  1  0
  6 42  1  0
  6 43  1  0
  8 44  1  0
  8 45  1  0
  9 46  1  0
  9 47  1  0
 10 48  1  0
 10 49  1  0
 11 50  1  0
 11 51  1  0
 13 52  1  0
 13 53  1  0
 14 54  1  0
 14 55  1  0
 15 56  1  0
 15 57  1  0
 16 58  1  0
 19 59  1  0
 20 60  1  0
 21 61  1  0
 22 62  1  0
 25 63  1  0
 25 64  1  0
 25 65  1  0
 27 66  1  0
 28 67  1  0
 29 68  1  0
 30 69  1  0
M  CHG  1  24   1
M  END
>  <UniqueID>  (19) 
19

>  <SMILES>  (19) 
CCN(C)CCOCCCCOCCCNc1c2ccccc2[n+](C)c2ccccc12

>  <Energy>  (19) 
99.16809007351712

>  <Genealogy>  (19) 
CCN(C)CCOCCCCOCCCNc1c2ccccc2[n+](C)c2ccccc12 (3D coordinates assigned)
CCN(C)CCOCCCCOCCCNc1c2ccccc2[n+](C)c2ccccc12 (optimized conformer: 99.16809007351712 kcal/mol)

>  <smiles>  (19) 
CCN(C)CCOCCCCOCCCNc1c2ccccc2[n+](C)c2ccccc12

>  <score_type>  (19) 
oracle

>  <origin>  (19) 
adg

>  <m_score__min__energy>  (19) 
-5.9000000000000004

>  <m_primary>  (19) 
energy

$$$$
19:0
     RDKit          3D

 51 54  0  0  0  0  0  0  0  0999 V2000
   56.2920   29.4780   42.6540 C   0  0  0  0  0  0  0  0  0  0  0  0
   56.6660   30.8590   43.1750 C   0  0  0  0  0  0  0  0  0  0  0  0
   56.5770   30.9020   44.5980 O   0  0  0  0  0  0  0  0  0  0  0  0
   57.5480   30.3690   45.4530 C   0  0  0  0  0  0  0  0  0  0  0  0
   57.6770   29.0210   45.6010 N   0  0  0  0  0  0  0  0  0  0  0  0
   58.6020   28.4840   46.4350 C   0  0  0  0  0  0  0  0  0  0  0  0
   58.7180   27.0960   46.5670 C   0  0  0  0  0  0  0  0  0  0  0  0
   59.6780   26.5560   47.4280 C   0  0  0  0  0  0  0  0  0  0  0  0
   60.5240   27.3990   48.1570 C   0  0  0  0  0  0  0  0  0  0  0  0
   60.4130   28.7880   48.0290 C   0  0  0  0  0  0  0  0  0  0  0  0
   59.4500   29.3380   47.1690 C   0  0  0  0  0  0  0  0  0  0  0  0
   59.3240   30.6870   47.0240 N   0  0  0  0  0  0  0  0  0  0  0  0
   58.3960   31.2260   46.1800 C   0  0  0  0  0  0  0  0  0  0  0  0
   58.3090   32.6550   46.0240 N   0  0  0  0  0  0  0  0  0  0  0  0
   57.7980   33.4940   47.1140 C   0  0  0  0  0  0  0  0  0  0  0  0
   58.8920   34.4490   47.6400 C   0  0  0  0  0  0  0  0  0  0  0  0
   60.1050   34.5980   46.6760 C   0  0  0  0  0  0  0  0  0  0  0  0
   61.0870   33.4910   46.8600 N   0  0  0  0  0  0  0  0  0  0  0  0
   62.4300   33.8400   46.3770 C   0  0  0  0  0  0  0  0  0  0  0  0
   63.4040   32.9540   47.1230 C   0  0  0  0  0  0  0  0  0  0  0  0
   62.7260   32.6670   48.4450 C   0  0  0  0  0  0  0  0  0  0  0  0
   61.2820   33.1240   48.2730 C   0  0  0  0  0  0  0  0  0  0  0  0
   59.5620   34.6400   45.2250 C   0  0  0  0  0  0  0  0  0  0  0  0
   58.8900   33.3090   44.8430 C   0  0  0  0  0  0  0  0  0  0  0  0
   56.1092   28.8029   43.5030 H   0  0  0  0  0  0  0  0  0  0  0  0
   55.3814   29.5515   42.0413 H   0  0  0  0  0  0  0  0  0  0  0  0
   57.1152   29.0819   42.0413 H   0  0  0  0  0  0  0  0  0  0  0  0
   57.6968   31.0929   42.8704 H   0  0  0  0  0  0  0  0  0  0  0  0
   55.9671   31.5970   42.7544 H   0  0  0  0  0  0  0  0  0  0  0  0
   58.0550   26.4308   45.9943 H   0  0  0  0  0  0  0  0  0  0  0  0
   59.7686   25.4647   47.5327 H   0  0  0  0  0  0  0  0  0  0  0  0
   61.2782   26.9688   48.8324 H   0  0  0  0  0  0  0  0  0  0  0  0
   61.0802   29.4485   48.6022 H   0  0  0  0  0  0  0  0  0  0  0  0
   59.9640   31.3220   47.5530 H   0  0  0  0  0  0  0  0  0  0  0  0
   56.9503   34.0885   46.7426 H   0  0  0  0  0  0  0  0  0  0  0  0
   57.4793   32.8396   47.9387 H   0  0  0  0  0  0  0  0  0  0  0  0
   58.4436   35.4421   47.7908 H   0  0  0  0  0  0  0  0  0  0  0  0
   59.2750   34.0165   48.5761 H   0  0  0  0  0  0  0  0  0  0  0  0
   60.6461   35.5295   46.8983 H   0  0  0  0  0  0  0  0  0  0  0  0
   62.5032   33.6569   45.2948 H   0  0  0  0  0  0  0  0  0  0  0  0
   62.6492   34.9038   46.5513 H   0  0  0  0  0  0  0  0  0  0  0  0
   63.5833   32.0212   46.5683 H   0  0  0  0  0  0  0  0  0  0  0  0
   64.3860   33.4322   47.2537 H   0  0  0  0  0  0  0  0  0  0  0  0
   62.7639   31.5910   48.6703 H   0  0  0  0  0  0  0  0  0  0  0  0
   63.2212   33.1877   49.2778 H   0  0  0  0  0  0  0  0  0  0  0  0
   60.5969   32.3074   48.5447 H   0  0  0  0  0  0  0  0  0  0  0  0
   61.0733   33.9855   48.9243 H   0  0  0  0  0  0  0  0  0  0  0  0
   58.8240   35.4514   45.1415 H   0  0  0  0  0  0  0  0  0  0  0  0
   60.4069   34.8121   44.5419 H   0  0  0  0  0  0  0  0  0  0  0  0
   58.0922   33.5056   44.1116 H   0  0  0  0  0  0  0  0  0  0  0  0
   59.6517   32.6425   44.4122 H   0  0  0  0  0  0  0  0  0  0  0  0
  1  2  1  0
  2  3  1  0
  3  4  1  0
  4  5  2  0
  5  6  1  0
  6  7  2  0
  7  8  1  0
  8  9  2  0
  9 10  1  0
 10 11  2  0
 11 12  1  0
 12 13  2  0
 13 14  1  0
 14 15  1  0
 15 16  1  0
 16 17  1  0
 17 18  1  0
 18 19  1  0
 19 20  1  0
 20 21  1  0
 21 22  1  0
 17 23  1  0
 23 24  1  0
 13  4  1  0
 24 14  1  0
 11  6  1  0
 22 18  1  0
  1 25  1  0
  1 26  1  0
  1 27  1  0
  2 28  1  0
  2 29  1  0
  7 30  1  0
  8 31  1  0
  9 32  1  0
 10 33  1  0
 12 34  1  0
 15 35  1  0
 15 36  1  0
 16 37  1  0
 16 38  1  0
 17 39  1  0
 19 40  1  0
 19 41  1  0
 20 42  1  0
 20 43  1  0
 21 44  1  0
 21 45  1  0
 22 46  1  0
 22 47  1  0
 23 48  1  0
 23 49  1  0
 24 50  1  0
 24 51  1  0
M  CHG  1  12   1
M  END
>  <UniqueID>  (20) 
20

>  <SMILES>  (20) 
CCOc1nc2ccccc2[nH+]c1N1CCC(N2CCCC2)CC1

>  <Energy>  (20) 
64.4213790606389

>  <Genealogy>  (20) 
CCOc1nc2ccccc2[nH+]c1N1CCC(N2CCCC2)CC1 (protonated)
CCOc1nc2ccccc2[nH+]c1N1CCC(N2CCCC2)CC1 (3D coordinates assigned)
CCOc1nc2ccccc2[nH+]c1N1CCC(N2CCCC2)CC1 (nonaromatic ring conformer: 64.4213790606389 kcal/mol)

>  <smiles>  (20) 
CCOc1nc2ccccc2nc1N1CCC(N2CCCC2)CC1

>  <score_type>  (20) 
oracle

>  <origin>  (20) 
adg

>  <m_score__min__energy>  (20) 
-6.5899999999999999

>  <m_primary>  (20) 
energy

$$$$
20:0
     RDKit          3D

 46 47  0  0  0  0  0  0  0  0999 V2000
   65.9600   32.4020   50.1080 C   0  0  0  0  0  0  0  0  0  0  0  0
   64.5650   32.9950   49.9460 C   0  0  0  0  0  0  0  0  0  0  0  0
   64.0060   32.6490   48.6200 N   0  0  0  0  0  0  0  0  0  0  0  0
   63.5790   33.8460   47.8560 C   0  0  0  0  0  0  0  0  0  0  0  0
   63.4120   33.4960   46.3800 C   0  0  0  0  0  0  0  0  0  0  0  0
   62.9380   31.6270   48.7110 C   0  0  0  0  0  0  0  0  0  0  0  0
   61.5860   32.2020   48.5810 C   0  0  0  0  0  0  0  0  0  0  0  0
   60.4820   32.6740   48.4770 C   0  0  0  0  0  0  0  0  0  0  0  0
   59.1310   33.2460   48.3470 C   0  0  0  0  0  0  0  0  0  0  0  0
   58.8050   33.5730   46.9380 N   0  0  0  0  0  0  0  0  0  0  0  0
   57.3390   33.4620   46.6870 C   0  0  0  0  0  0  0  0  0  0  0  0
   57.0240   33.2210   45.2050 C   0  0  0  0  0  0  0  0  0  0  0  0
   57.6150   31.8740   44.7190 C   0  0  0  0  0  0  0  0  0  0  0  0
   58.8890   31.4990   45.5140 C   0  0  0  0  0  0  0  0  0  0  0  0
   59.6300   32.7500   46.0060 C   0  0  0  0  0  0  0  0  0  0  0  0
   57.9520   32.0010   43.3520 O   0  0  0  0  0  0  0  0  0  0  0  0
   57.0740   31.1710   42.6620 C   0  0  0  0  0  0  0  0  0  0  0  0
   56.5020   30.2330   43.6770 C   0  0  0  0  0  0  0  0  0  0  0  0
   56.6510   30.8590   44.9110 O   0  0  0  0  0  0  0  0  0  0  0  0
   66.1941   32.3025   51.1782 H   0  0  0  0  0  0  0  0  0  0  0  0
   65.9949   31.4112   49.6314 H   0  0  0  0  0  0  0  0  0  0  0  0
   66.6976   33.0644   49.6314 H   0  0  0  0  0  0  0  0  0  0  0  0
   63.9077   32.5943   50.7318 H   0  0  0  0  0  0  0  0  0  0  0  0
   64.6317   34.0898   50.0295 H   0  0  0  0  0  0  0  0  0  0  0  0
   62.6199   34.2085   48.2544 H   0  0  0  0  0  0  0  0  0  0  0  0
   64.3461   34.6282   47.9553 H   0  0  0  0  0  0  0  0  0  0  0  0
   62.9399   32.5066   46.2889 H   0  0  0  0  0  0  0  0  0  0  0  0
   62.7772   34.2513   45.8936 H   0  0  0  0  0  0  0  0  0  0  0  0
   64.3984   33.4778   45.8936 H   0  0  0  0  0  0  0  0  0  0  0  0
   63.0860   30.8911   47.9070 H   0  0  0  0  0  0  0  0  0  0  0  0
   63.0069   31.1628   49.7059 H   0  0  0  0  0  0  0  0  0  0  0  0
   58.3979   32.5167   48.7221 H   0  0  0  0  0  0  0  0  0  0  0  0
   59.0963   34.1774   48.9311 H   0  0  0  0  0  0  0  0  0  0  0  0
   59.0800   34.5740   46.7790 H   0  0  0  0  0  0  0  0  0  0  0  0
   56.9410   32.6221   47.2754 H   0  0  0  0  0  0  0  0  0  0  0  0
   56.8717   34.4130   46.9824 H   0  0  0  0  0  0  0  0  0  0  0  0
   55.9327   33.2043   45.0682 H   0  0  0  0  0  0  0  0  0  0  0  0
   57.4761   34.0327   44.6161 H   0  0  0  0  0  0  0  0  0  0  0  0
   58.6021   30.8881   46.3826 H   0  0  0  0  0  0  0  0  0  0  0  0
   59.5607   30.9382   44.8475 H   0  0  0  0  0  0  0  0  0  0  0  0
   60.5450   32.4352   46.5291 H   0  0  0  0  0  0  0  0  0  0  0  0
   59.8598   33.3699   45.1268 H   0  0  0  0  0  0  0  0  0  0  0  0
   56.2731   31.7650   42.1976 H   0  0  0  0  0  0  0  0  0  0  0  0
   57.5874   30.6255   41.8565 H   0  0  0  0  0  0  0  0  0  0  0  0
   55.4377   30.0486   43.4689 H   0  0  0  0  0  0  0  0  0  0  0  0
   57.0138   29.2595   43.6568 H   0  0  0  0  0  0  0  0  0  0  0  0
  1  2  1  0
  2  3  1  0
  3  4  1  0
  4  5  1  0
  3  6  1  0
  6  7  1  0
  7  8  3  0
  8  9  1  0
  9 10  1  0
 10 11  1  0
 11 12  1  0
 12 13  1  0
 13 14  1  0
 14 15  1  0
 13 16  1  0
 16 17  1  0
 17 18  1  0
 18 19  1  0
 15 10  1  0
 19 13  1  0
  1 20  1  0
  1 21  1  0
  1 22  1  0
  2 23  1  0
  2 24  1  0
  4 25  1  0
  4 26  1  0
  5 27  1  0
  5 28  1  0
  5 29  1  0
  6 30  1  0
  6 31  1  0
  9 32  1  0
  9 33  1  0
 10 34  1  0
 11 35  1  0
 11 36  1  0
 12 37  1  0
 12 38  1  0
 14 39  1  0
 14 40  1  0
 15 41  1  0
 15 42  1  0
 17 43  1  0
 17 44  1  0
 18 45  1  0
 18 46  1  0
M  CHG  1  10   1
M  END
>  <UniqueID>  (21) 
21

>  <SMILES>  (21) 
CCN(CC)CC#CC[NH+]1CCC2(CC1)OCCO2

>  <Energy>  (21) 
45.416741326905196

>  <Genealogy>  (21) 
CCN(CC)CC#CC[NH+]1CCC2(CC1)OCCO2 (protonated)
CCN(CC)CC#CC[NH+]1CCC2(CC1)OCCO2 (3D coordinates assigned)
CCN(CC)CC#CC[NH+]1CCC2(CC1)OCCO2 (nonaromatic ring conformer: 45.416741326905196 kcal/mol)

>  <smiles>  (21) 
CCN(CC)CC#CCN1CCC2(CC1)OCCO2

>  <score_type>  (21) 
oracle

>  <origin>  (21) 
adg

>  <m_score__min__energy>  (21) 
-4.7300000000000004

>  <m_primary>  (21) 
energy

$$$$
21:0
     RDKit          3D

 45 48  0  0  0  0  0  0  0  0999 V2000
   68.3240   33.4930   50.5020 C   0  0  0  0  0  0  0  0  0  0  0  0
   66.8310   33.5370   50.8270 C   0  0  0  0  0  0  0  0  0  0  0  0
   66.0760   32.6390   49.9410 N   0  0  0  0  0  0  0  0  0  0  0  0
   64.7590   32.3320   50.5210 C   0  0  0  0  0  0  0  0  0  0  0  0
   63.6380   32.9910   49.7080 C   0  0  0  0  0  0  0  0  0  0  0  0
   63.9370   32.8910   48.2680 N   0  0  0  0  0  0  0  0  0  0  0  0
   63.1320   31.8640   47.5910 C   0  0  0  0  0  0  0  0  0  0  0  0
   61.8090   32.4290   47.1190 C   0  0  0  0  0  0  0  0  0  0  0  0
   61.6210   33.8210   47.1730 C   0  0  0  0  0  0  0  0  0  0  0  0
   60.4420   34.4080   46.7130 C   0  0  0  0  0  0  0  0  0  0  0  0
   59.4200   33.6160   46.1820 C   0  0  0  0  0  0  0  0  0  0  0  0
   58.2320   34.2020   45.7110 C   0  0  0  0  0  0  0  0  0  0  0  0
   57.2130   33.4060   45.1750 C   0  0  0  0  0  0  0  0  0  0  0  0
   57.3690   32.0190   45.1010 C   0  0  0  0  0  0  0  0  0  0  0  0
   56.3810   31.2440   44.5780 N   0  0  0  0  0  0  0  0  0  0  0  0
   56.5030   29.8910   44.4910 C   0  0  0  0  0  0  0  0  0  0  0  0
   57.6640   29.2570   44.9420 C   0  0  0  0  0  0  0  0  0  0  0  0
   58.7020   30.0230   45.4860 C   0  0  0  0  0  0  0  0  0  0  0  0
   59.8800   29.4240   45.9480 C   0  0  0  0  0  0  0  0  0  0  0  0
   60.9080   30.2050   46.4890 C   0  0  0  0  0  0  0  0  0  0  0  0
   60.7810   31.6080   46.5830 C   0  0  0  0  0  0  0  0  0  0  0  0
   59.5870   32.2150   46.1150 C   0  0  0  0  0  0  0  0  0  0  0  0
   58.5560   31.4200   45.5700 C   0  0  0  0  0  0  0  0  0  0  0  0
   68.9025   33.4760   51.4374 H   0  0  0  0  0  0  0  0  0  0  0  0
   68.5455   32.5879   49.9174 H   0  0  0  0  0  0  0  0  0  0  0  0
   68.5984   34.3834   49.9174 H   0  0  0  0  0  0  0  0  0  0  0  0
   66.6800   33.2242   51.8707 H   0  0  0  0  0  0  0  0  0  0  0  0
   66.4685   34.5649   50.6784 H   0  0  0  0  0  0  0  0  0  0  0  0
   65.9440   33.1020   49.0110 H   0  0  0  0  0  0  0  0  0  0  0  0
   66.6130   31.7480   49.8150 H   0  0  0  0  0  0  0  0  0  0  0  0
   64.6107   31.2420   50.5219 H   0  0  0  0  0  0  0  0  0  0  0  0
   64.7264   32.7241   51.5482 H   0  0  0  0  0  0  0  0  0  0  0  0
   62.6863   32.4813   49.9191 H   0  0  0  0  0  0  0  0  0  0  0  0
   63.5622   34.0517   49.9893 H   0  0  0  0  0  0  0  0  0  0  0  0
   64.9420   32.6140   48.1630 H   0  0  0  0  0  0  0  0  0  0  0  0
   63.6906   31.4849   46.7225 H   0  0  0  0  0  0  0  0  0  0  0  0
   62.9294   31.0528   48.3058 H   0  0  0  0  0  0  0  0  0  0  0  0
   62.4172   34.4584   47.5850 H   0  0  0  0  0  0  0  0  0  0  0  0
   60.3161   35.4994   46.7684 H   0  0  0  0  0  0  0  0  0  0  0  0
   58.1024   35.2931   45.7640 H   0  0  0  0  0  0  0  0  0  0  0  0
   56.2863   33.8736   44.8108 H   0  0  0  0  0  0  0  0  0  0  0  0
   55.6839   29.2939   44.0637 H   0  0  0  0  0  0  0  0  0  0  0  0
   57.7616   28.1637   44.8700 H   0  0  0  0  0  0  0  0  0  0  0  0
   59.9986   28.3322   45.8855 H   0  0  0  0  0  0  0  0  0  0  0  0
   61.8279   29.7187   46.8460 H   0  0  0  0  0  0  0  0  0  0  0  0
  1  2  1  0
  2  3  1  0
  3  4  1  0
  4  5  1  0
  5  6  1  0
  6  7  1  0
  7  8  1  0
  8  9  2  0
  9 10  1  0
 10 11  2  0
 11 12  1  0
 12 13  2  0
 13 14  1  0
 14 15  2  0
 15 16  1  0
 16 17  2  0
 17 18  1  0
 18 19  2  0
 19 20  1  0
 20 21  2  0
 21 22  1  0
 22 23  2  0
 21  8  1  0
 22 11  1  0
 23 14  1  0
 23 18  1  0
  1 24  1  0
  1 25  1  0
  1 26  1  0
  2 27  1  0
  2 28  1  0
  3 29  1  0
  3 30  1  0
  4 31  1  0
  4 32  1  0
  5 33  1  0
  5 34  1  0
  6 35  1  0
  7 36  1  0
  7 37  1  0
  9 38  1  0
 10 39  1  0
 12 40  1  0
 13 41  1  0
 16 42  1  0
 17 43  1  0
 19 44  1  0
 20 45  1  0
M  CHG  1   3   1
M  END
>  <UniqueID>  (22) 
22

>  <SMILES>  (22) 
CC[NH2+]CCNCc1ccc2ccc3nccc4ccc1c2c43

>  <Energy>  (22) 
55.98060811973508

>  <Genealogy>  (22) 
CC[NH2+]CCNCc1ccc2ccc3nccc4ccc1c2c43 (protonated)
CC[NH2+]CCNCc1ccc2ccc3nccc4ccc1c2c43 (3D coordinates assigned)
CC[NH2+]CCNCc1ccc2ccc3nccc4ccc1c2c43 (optimized conformer: 55.98060811973508 kcal/mol)

>  <smiles>  (22) 
CCNCCNCc1ccc2ccc3nccc4ccc1c2c43

>  <score_type>  (22) 
oracle

>  <origin>  (22) 
adg

>  <m_score__min__energy>  (22) 
-6.8200000000000003

>  <m_primary>  (22) 
energy

$$$$
22:0
     RDKit          3D

 35 37  0  0  0  0  0  0  0  0999 V2000
   55.8260   24.2420   45.6710 C   0  0  0  0  0  0  0  0  0  0  0  0
   56.0790   25.7130   45.6310 C   0  0  0  0  0  0  0  0  0  0  0  0
   55.1710   26.5070   45.9980 O   0  0  0  0  0  0  0  0  0  0  0  0
   57.3120   26.2120   45.0890 N   0  0  0  0  0  0  0  0  0  0  0  0
   57.7340   27.5840   45.1710 C   0  0  0  0  0  0  0  0  0  0  0  0
   59.0850   27.9280   45.4550 C   0  0  0  0  0  0  0  0  0  0  0  0
   59.4870   29.2760   45.5090 C   0  0  0  0  0  0  0  0  0  0  0  0
   58.5220   30.2450   45.2640 C   0  0  0  0  0  0  0  0  0  0  0  0
   58.6480   31.5440   45.2550 O   0  0  0  0  0  0  0  0  0  0  0  0
   57.4460   32.0160   44.9670 C   0  0  0  0  0  0  0  0  0  0  0  0
   57.1440   33.4750   44.8490 C   0  0  0  0  0  0  0  0  0  0  0  0
   57.6120   34.1770   46.0010 O   0  0  0  0  0  0  0  0  0  0  0  0
   58.8690   34.0010   46.6020 C   0  0  0  0  0  0  0  0  0  0  0  0
   59.0210   33.5970   47.9430 C   0  0  0  0  0  0  0  0  0  0  0  0
   60.2980   33.4320   48.4900 C   0  0  0  0  0  0  0  0  0  0  0  0
   61.4320   33.6700   47.7070 C   0  0  0  0  0  0  0  0  0  0  0  0
   63.0330   33.4620   48.3930 Cl  0  0  0  0  0  0  0  0  0  0  0  0
   61.2880   34.0740   46.3760 C   0  0  0  0  0  0  0  0  0  0  0  0
   60.0130   34.2390   45.8290 C   0  0  0  0  0  0  0  0  0  0  0  0
   56.5130   31.0450   44.7740 N   0  0  0  0  0  0  0  0  0  0  0  0
   57.2320   29.9280   44.9740 C   0  0  0  0  0  0  0  0  0  0  0  0
   56.7950   28.6080   44.9090 C   0  0  0  0  0  0  0  0  0  0  0  0
   55.7686   23.9082   46.7175 H   0  0  0  0  0  0  0  0  0  0  0  0
   54.8764   24.0193   45.1625 H   0  0  0  0  0  0  0  0  0  0  0  0
   56.6467   23.7148   45.1625 H   0  0  0  0  0  0  0  0  0  0  0  0
   57.8980   25.5500   44.5310 H   0  0  0  0  0  0  0  0  0  0  0  0
   59.8231   27.1323   45.6343 H   0  0  0  0  0  0  0  0  0  0  0  0
   60.5271   29.5520   45.7368 H   0  0  0  0  0  0  0  0  0  0  0  0
   57.6412   33.8764   43.9536 H   0  0  0  0  0  0  0  0  0  0  0  0
   56.0549   33.6077   44.7694 H   0  0  0  0  0  0  0  0  0  0  0  0
   58.1316   33.4104   48.5628 H   0  0  0  0  0  0  0  0  0  0  0  0
   60.4102   33.1147   49.5372 H   0  0  0  0  0  0  0  0  0  0  0  0
   62.1792   34.2620   45.7592 H   0  0  0  0  0  0  0  0  0  0  0  0
   59.9064   34.5587   44.7819 H   0  0  0  0  0  0  0  0  0  0  0  0
   55.7503   28.3687   44.6612 H   0  0  0  0  0  0  0  0  0  0  0  0
  1  2  1  0
  2  3  2  0
  2  4  1  0
  4  5  1  0
  5  6  2  0
  6  7  1  0
  7  8  2  0
  8  9  1  0
  9 10  1  0
 10 11  1  0
 11 12  1  0
 12 13  1  0
 13 14  2  0
 14 15  1  0
 15 16  2  0
 16 17  1  0
 16 18  1  0
 18 19  2  0
 10 20  2  0
 20 21  1  0
 21 22  2  0
 22  5  1  0
 21  8  1  0
 19 13  1  0
  1 23  1  0
  1 24  1  0
  1 25  1  0
  4 26  1  0
  6 27  1  0
  7 28  1  0
 11 29  1  0
 11 30  1  0
 14 31  1  0
 15 32  1  0
 18 33  1  0
 19 34  1  0
 22 35  1  0
M  END
>  <UniqueID>  (23) 
23

>  <SMILES>  (23) 
CC(=O)Nc1ccc2oc(COc3ccc(Cl)cc3)nc2c1

>  <Energy>  (23) 
75.11508370118449

>  <Genealogy>  (23) 
CC(=O)Nc1ccc2oc(COc3ccc(Cl)cc3)nc2c1 (3D coordinates assigned)
CC(=O)Nc1ccc2oc(COc3ccc(Cl)cc3)nc2c1 (optimized conformer: 75.11508370118449 kcal/mol)

>  <smiles>  (23) 
CC(=O)Nc1ccc2oc(COc3ccc(Cl)cc3)nc2c1

>  <score_type>  (23) 
oracle

>  <origin>  (23) 
adg

>  <m_score__min__energy>  (23) 
-7.6799999999999997

>  <m_primary>  (23) 
energy

$$$$
23:0
     RDKit          3D

 76 78  0  0  0  0  0  0  0  0999 V2000
   59.3030   22.3450   44.8780 C   0  0  0  0  0  0  0  0  0  0  0  0
   57.7690   22.2650   44.9360 C   0  0  0  0  0  0  0  0  0  0  0  0
   57.1050   23.5860   44.8410 N   0  0  0  0  0  0  0  0  0  0  0  0
   56.5880   23.8560   43.4810 C   0  0  0  0  0  0  0  0  0  0  0  0
   56.2900   22.5570   42.7420 C   0  0  0  0  0  0  0  0  0  0  0  0
   56.1000   23.8000   45.9110 C   0  0  0  0  0  0  0  0  0  0  0  0
   55.0880   24.8710   45.4780 C   0  0  0  0  0  0  0  0  0  0  0  0
   55.4420   26.1350   46.0050 O   0  0  0  0  0  0  0  0  0  0  0  0
   56.6620   26.0820   46.7250 C   0  0  0  0  0  0  0  0  0  0  0  0
   57.5490   27.2650   46.3370 C   0  0  0  0  0  0  0  0  0  0  0  0
   57.1290   27.8050   45.0360 N   0  0  0  0  0  0  0  0  0  0  0  0
   56.7970   29.2300   45.1580 C   0  0  0  0  0  0  0  0  0  0  0  0
   57.8510   30.1320   44.4920 C   0  0  0  0  0  0  0  0  0  0  0  0
   59.1440   30.3020   45.3270 C   0  0  0  0  0  0  0  0  0  0  0  0
   59.0630   31.0800   46.6440 C   0  0  0  0  0  0  0  0  0  0  0  0
   58.9110   30.4270   47.8830 C   0  0  0  0  0  0  0  0  0  0  0  0
   58.8830   31.1350   49.0770 C   0  0  0  0  0  0  0  0  0  0  0  0
   59.0060   32.5300   49.0960 C   0  0  0  0  0  0  0  0  0  0  0  0
   58.9720   33.2580   50.3030 O   0  0  0  0  0  0  0  0  0  0  0  0
   59.7290   32.9460   51.4750 C   0  0  0  0  0  0  0  0  0  0  0  0
   61.1720   33.4590   51.3340 C   0  0  0  0  0  0  0  0  0  0  0  0
   62.1480   32.3740   50.8550 C   0  0  0  0  0  0  0  0  0  0  0  0
   62.5890   32.6220   49.4320 C   0  0  0  0  0  0  0  0  0  0  0  0
   63.0430   33.8910   49.0360 C   0  0  0  0  0  0  0  0  0  0  0  0
   63.3890   34.1290   47.7010 C   0  0  0  0  0  0  0  0  0  0  0  0
   63.2860   33.1050   46.7560 C   0  0  0  0  0  0  0  0  0  0  0  0
   62.8400   31.8390   47.1440 C   0  0  0  0  0  0  0  0  0  0  0  0
   62.4940   31.5950   48.4760 C   0  0  0  0  0  0  0  0  0  0  0  0
   59.1600   33.2180   47.8780 C   0  0  0  0  0  0  0  0  0  0  0  0
   59.2770   34.6220   47.8690 C   0  0  0  0  0  0  0  0  0  0  0  0
   59.3870   35.3190   46.6680 C   0  0  0  0  0  0  0  0  0  0  0  0
   59.3850   34.6300   45.4590 C   0  0  0  0  0  0  0  0  0  0  0  0
   59.2770   33.2390   45.4400 C   0  0  0  0  0  0  0  0  0  0  0  0
   59.1670   32.5020   46.6430 C   0  0  0  0  0  0  0  0  0  0  0  0
   59.7080   22.3661   45.9005 H   0  0  0  0  0  0  0  0  0  0  0  0
   59.6961   21.4661   44.3460 H   0  0  0  0  0  0  0  0  0  0  0  0
   59.6026   23.2600   44.3460 H   0  0  0  0  0  0  0  0  0  0  0  0
   57.4210   21.6394   44.1008 H   0  0  0  0  0  0  0  0  0  0  0  0
   57.5037   21.8388   45.9148 H   0  0  0  0  0  0  0  0  0  0  0  0
   55.6629   24.4461   43.5584 H   0  0  0  0  0  0  0  0  0  0  0  0
   57.3535   24.4112   42.9190 H   0  0  0  0  0  0  0  0  0  0  0  0
   56.1058   21.7543   43.4712 H   0  0  0  0  0  0  0  0  0  0  0  0
   55.3991   22.6904   42.1107 H   0  0  0  0  0  0  0  0  0  0  0  0
   57.1499   22.2887   42.1107 H   0  0  0  0  0  0  0  0  0  0  0  0
   55.5698   22.8562   46.1062 H   0  0  0  0  0  0  0  0  0  0  0  0
   56.6125   24.1371   46.8241 H   0  0  0  0  0  0  0  0  0  0  0  0
   55.0716   24.9294   44.3797 H   0  0  0  0  0  0  0  0  0  0  0  0
   54.0944   24.5940   45.8602 H   0  0  0  0  0  0  0  0  0  0  0  0
   56.4506   26.1234   47.8037 H   0  0  0  0  0  0  0  0  0  0  0  0
   57.1839   25.1444   46.4832 H   0  0  0  0  0  0  0  0  0  0  0  0
   57.4630   28.0507   47.1021 H   0  0  0  0  0  0  0  0  0  0  0  0
   58.5927   26.9248   46.2660 H   0  0  0  0  0  0  0  0  0  0  0  0
   56.2600   27.2920   44.7650 H   0  0  0  0  0  0  0  0  0  0  0  0
   55.8235   29.4092   44.6783 H   0  0  0  0  0  0  0  0  0  0  0  0
   56.7677   29.4792   46.2290 H   0  0  0  0  0  0  0  0  0  0  0  0
   58.1206   29.6918   43.5206 H   0  0  0  0  0  0  0  0  0  0  0  0
   57.4009   31.1306   44.3907 H   0  0  0  0  0  0  0  0  0  0  0  0
   59.5112   29.2933   45.5671 H   0  0  0  0  0  0  0  0  0  0  0  0
   59.7987   30.9152   44.6903 H   0  0  0  0  0  0  0  0  0  0  0  0
   58.8123   29.3317   47.9050 H   0  0  0  0  0  0  0  0  0  0  0  0
   58.7620   30.5905   50.0251 H   0  0  0  0  0  0  0  0  0  0  0  0
   59.2586   33.4226   52.3477 H   0  0  0  0  0  0  0  0  0  0  0  0
   59.7499   31.8540   51.6059 H   0  0  0  0  0  0  0  0  0  0  0  0
   61.1814   34.2850   50.6076 H   0  0  0  0  0  0  0  0  0  0  0  0
   61.5049   33.7860   52.3301 H   0  0  0  0  0  0  0  0  0  0  0  0
   63.0323   32.3734   51.5092 H   0  0  0  0  0  0  0  0  0  0  0  0
   61.6338   31.4024   50.8948 H   0  0  0  0  0  0  0  0  0  0  0  0
   63.1268   34.6996   49.7770 H   0  0  0  0  0  0  0  0  0  0  0  0
   63.7429   35.1246   47.3950 H   0  0  0  0  0  0  0  0  0  0  0  0
   63.5560   33.2955   45.7068 H   0  0  0  0  0  0  0  0  0  0  0  0
   62.7610   31.0328   46.3998 H   0  0  0  0  0  0  0  0  0  0  0  0
   62.1461   30.5960   48.7776 H   0  0  0  0  0  0  0  0  0  0  0  0
   59.2815   35.1737   48.8206 H   0  0  0  0  0  0  0  0  0  0  0  0
   59.4756   36.4154   46.6753 H   0  0  0  0  0  0  0  0  0  0  0  0
   59.4690   35.1850   44.5130 H   0  0  0  0  0  0  0  0  0  0  0  0
   59.2774   32.7080   44.4766 H   0  0  0  0  0  0  0  0  0  0  0  0
  1  2  1  0
  2  3  1  0
  3  4  1  0
  4  5  1  0
  3  6  1  0
  6  7  1  0
  7  8  1  0
  8  9  1  0
  9 10  1  0
 10 11  1  0
 11 12  1  0
 12 13  1  0
 13 14  1  0
 14 15  1  0
 15 16  2  0
 16 17  1  0
 17 18  2  0
 18 19  1  0
 19 20  1  0
 20 21  1  0
 21 22  1  0
 22 23  1  0
 23 24  2  0
 24 25  1  0
 25 26  2  0
 26 27  1  0
 27 28  2  0
 18 29  1  0
 29 30  2  0
 30 31  1  0
 31 32  2  0
 32 33  1  0
 33 34  2  0
 34 15  1  0
 28 23  1  0
 34 29  1  0
  1 35  1  0
  1 36  1  0
  1 37  1  0
  2 38  1  0
  2 39  1  0
  4 40  1  0
  4 41  1  0
  5 42  1  0
  5 43  1  0
  5 44  1  0
  6 45  1  0
  6 46  1  0
  7 47  1  0
  7 48  1  0
  9 49  1  0
  9 50  1  0
 10 51  1  0
 10 52  1  0
 11 53  1  0
 12 54  1  0
 12 55  1  0
 13 56  1  0
 13 57  1  0
 14 58  1  0
 14 59  1  0
 16 60  1  0
 17 61  1  0
 20 62  1  0
 20 63  1  0
 21 64  1  0
 21 65  1  0
 22 66  1  0
 22 67  1  0
 24 68  1  0
 25 69  1  0
 26 70  1  0
 27 71  1  0
 28 72  1  0
 30 73  1  0
 31 74  1  0
 32 75  1  0
 33 76  1  0
M  END
>  <UniqueID>  (24) 
24

>  <SMILES>  (24) 
CCN(CC)CCOCCNCCCc1ccc(OCCCc2ccccc2)c2ccccc12

>  <Energy>  (24) 
79.30287088139859

>  <Genealogy>  (24) 
CCN(CC)CCOCCNCCCc1ccc(OCCCc2ccccc2)c2ccccc12 (3D coordinates assigned)
CCN(CC)CCOCCNCCCc1ccc(OCCCc2ccccc2)c2ccccc12 (optimized conformer: 79.30287088139859 kcal/mol)

>  <smiles>  (24) 
CCN(CC)CCOCCNCCCc1ccc(OCCCc2ccccc2)c2ccccc12

>  <score_type>  (24) 
oracle

>  <origin>  (24) 
adg

>  <m_score__min__energy>  (24) 
-8.0099999999999998

>  <m_primary>  (24) 
energy

$$$$
