0:0
     RDKit          3D

 37 39  0  0  0  0  0  0  0  0999 V2000
   57.7820   25.5900   47.0940 C   0  0  0  0  0  0  0  0  0  0  0  0
   56.3930   25.4880   46.4710 C   0  0  0  0  0  0  0  0  0  0  0  0
   55.9690   26.7190   45.8480 N   0  0  0  0  0  0  0  0  0  0  0  0
   57.0360   27.6940   45.7950 C   0  0  0  0  0  0  0  0  0  0  0  0
   56.6410   28.8060   44.8830 C   0  0  0  0  0  0  0  0  0  0  0  0
   57.3900   30.0250   45.2280 N   0  0  0  0  0  0  0  0  0  0  0  0
   58.6040   29.9700   45.8350 C   0  0  0  0  0  0  0  0  0  0  0  0
   59.0610   31.2630   46.0210 C   0  0  0  0  0  0  0  0  0  0  0  0
   58.0610   32.0880   45.4950 C   0  0  0  0  0  0  0  0  0  0  0  0
   57.0650   31.2860   45.0260 N   0  0  0  0  0  0  0  0  0  0  0  0
   58.2740   33.4460   45.5530 C   0  0  0  0  0  0  0  0  0  0  0  0
   57.0250   34.4960   44.8930 Cl  0  0  0  0  0  0  0  0  0  0  0  0
   59.4290   33.9570   46.1100 C   0  0  0  0  0  0  0  0  0  0  0  0
   60.4150   33.1310   46.6300 C   0  0  0  0  0  0  0  0  0  0  0  0
   61.5480   33.6190   47.1840 N   0  0  0  0  0  0  0  0  0  0  0  0
   62.5000   32.7960   47.6910 C   0  0  0  0  0  0  0  0  0  0  0  0
   63.7490   33.2830   48.3060 C   0  0  0  0  0  0  0  0  0  0  0  0
   62.3280   31.4480   47.6530 N   0  0  0  0  0  0  0  0  0  0  0  0
   61.1910   30.9650   47.0970 C   0  0  0  0  0  0  0  0  0  0  0  0
   61.0660   29.7240   47.0790 O   0  0  0  0  0  0  0  0  0  0  0  0
   60.2120   31.7760   46.5780 C   0  0  0  0  0  0  0  0  0  0  0  0
   57.6935   25.5835   48.1904 H   0  0  0  0  0  0  0  0  0  0  0  0
   58.3928   24.7343   46.7704 H   0  0  0  0  0  0  0  0  0  0  0  0
   58.2612   26.5258   46.7704 H   0  0  0  0  0  0  0  0  0  0  0  0
   56.4067   24.6947   45.7091 H   0  0  0  0  0  0  0  0  0  0  0  0
   55.6822   25.2636   47.2800 H   0  0  0  0  0  0  0  0  0  0  0  0
   55.5010   26.5910   44.9500 H   0  0  0  0  0  0  0  0  0  0  0  0
   57.2197   28.0932   46.8034 H   0  0  0  0  0  0  0  0  0  0  0  0
   57.9534   27.2171   45.4196 H   0  0  0  0  0  0  0  0  0  0  0  0
   56.8640   28.5224   43.8438 H   0  0  0  0  0  0  0  0  0  0  0  0
   55.5636   28.9992   44.9920 H   0  0  0  0  0  0  0  0  0  0  0  0
   59.1345   29.0523   46.1291 H   0  0  0  0  0  0  0  0  0  0  0  0
   59.5713   35.0473   46.1424 H   0  0  0  0  0  0  0  0  0  0  0  0
   61.7090   34.6550   47.2270 H   0  0  0  0  0  0  0  0  0  0  0  0
   63.6566   33.2470   49.4015 H   0  0  0  0  0  0  0  0  0  0  0  0
   64.5872   32.6458   47.9876 H   0  0  0  0  0  0  0  0  0  0  0  0
   63.9347   34.3194   47.9876 H   0  0  0  0  0  0  0  0  0  0  0  0
  1  2  1  0
  2  3  1  0
  3  4  1  0
  4  5  1  0
  5  6  1  0
  6  7  1  0
  7  8  2  0
  8  9  1  0
  9 10  2  0
  9 11  1  0
 11 12  1  0
 11 13  2  0
 13 14  1  0
 14 15  1  0
 15 16  1  0
 16 17  1  0
 16 18  2  0
 18 19  1  0
 19 20  2  0
 19 21  1  0
 10  6  1  0
 21 14  2  0
 21  8  1  0
  1 22  1  0
  1 23  1  0
  1 24  1  0
  2 25  1  0
  2 26  1  0
  3 27  1  0
  4 28  1  0
  4 29  1  0
  5 30  1  0
  5 31  1  0
  7 32  1  0
 13 33  1  0
 15 34  1  0
 17 35  1  0
 17 36  1  0
 17 37  1  0
M  END
>  <smiles>  (1) 
CCNCCn1cc2c(n1)c(Cl)cc1[nH]c(C)nc(=O)c12

>  <score_type>  (1) 
oracle

>  <origin>  (1) 
adg

>  <m_score__min__energy>  (1) 
-6.9699999999999998

>  <m_primary>  (1) 
energy

$$$$
1:0
     RDKit          3D

 61 63  0  0  0  0  0  0  0  0999 V2000
   63.1460   33.8050   46.4660 C   0  0  0  0  0  0  0  0  0  0  0  0
   63.4830   32.4970   47.1940 C   0  0  0  0  0  0  0  0  0  0  0  0
   62.3770   31.9670   48.0210 N   0  0  0  0  0  0  0  0  0  0  0  0
   62.8130   31.6350   49.3880 C   0  0  0  0  0  0  0  0  0  0  0  0
   61.6660   30.8460   47.3670 C   0  0  0  0  0  0  0  0  0  0  0  0
   60.5910   30.2430   48.2830 C   0  0  0  0  0  0  0  0  0  0  0  0
   59.3030   30.9120   48.1060 N   0  0  0  0  0  0  0  0  0  0  0  0
   58.8780   31.4290   46.8310 C   0  0  0  0  0  0  0  0  0  0  0  0
   59.1530   32.7610   46.4750 C   0  0  0  0  0  0  0  0  0  0  0  0
   59.7080   33.6610   47.4080 C   0  0  0  0  0  0  0  0  0  0  0  0
   59.9490   34.9880   47.0610 C   0  0  0  0  0  0  0  0  0  0  0  0
   59.6170   35.4460   45.7920 C   0  0  0  0  0  0  0  0  0  0  0  0
   59.0530   34.5790   44.8570 C   0  0  0  0  0  0  0  0  0  0  0  0
   58.8300   33.2130   45.1670 C   0  0  0  0  0  0  0  0  0  0  0  0
   58.2910   32.3360   44.2440 N   0  0  0  0  0  0  0  0  0  0  0  0
   58.2170   32.7170   42.8150 C   0  0  0  0  0  0  0  0  0  0  0  0
   57.8310   31.0980   44.6540 C   0  0  0  0  0  0  0  0  0  0  0  0
   57.0310   30.2860   43.8160 C   0  0  0  0  0  0  0  0  0  0  0  0
   56.6260   29.0140   44.2160 C   0  0  0  0  0  0  0  0  0  0  0  0
   57.0040   28.5080   45.4660 C   0  0  0  0  0  0  0  0  0  0  0  0
   56.6560   27.2210   45.9090 O   0  0  0  0  0  0  0  0  0  0  0  0
   57.5380   26.1040   46.0460 C   0  0  0  0  0  0  0  0  0  0  0  0
   58.8530   26.3470   45.2970 C   0  0  0  0  0  0  0  0  0  0  0  0
   59.7810   27.1860   46.0860 N   0  0  0  0  0  0  0  0  0  0  0  0
   60.7580   26.3450   46.7970 C   0  0  0  0  0  0  0  0  0  0  0  0
   60.5010   28.1350   45.2160 C   0  0  0  0  0  0  0  0  0  0  0  0
   57.7430   29.3180   46.3280 C   0  0  0  0  0  0  0  0  0  0  0  0
   58.1470   30.6150   45.9480 C   0  0  0  0  0  0  0  0  0  0  0  0
   62.9427   34.5940   47.2050 H   0  0  0  0  0  0  0  0  0  0  0  0
   63.9966   34.1034   45.8356 H   0  0  0  0  0  0  0  0  0  0  0  0
   62.2571   33.6552   45.8356 H   0  0  0  0  0  0  0  0  0  0  0  0
   63.7455   31.7395   46.4408 H   0  0  0  0  0  0  0  0  0  0  0  0
   64.3147   32.7189   47.8789 H   0  0  0  0  0  0  0  0  0  0  0  0
   62.1557   32.1355   50.1142 H   0  0  0  0  0  0  0  0  0  0  0  0
   62.7604   30.5462   49.5354 H   0  0  0  0  0  0  0  0  0  0  0  0
   63.8486   31.9753   49.5354 H   0  0  0  0  0  0  0  0  0  0  0  0
   61.1856   31.2157   46.4491 H   0  0  0  0  0  0  0  0  0  0  0  0
   62.4014   30.0605   47.1384 H   0  0  0  0  0  0  0  0  0  0  0  0
   60.4755   29.1754   48.0447 H   0  0  0  0  0  0  0  0  0  0  0  0
   60.9105   30.3775   49.3270 H   0  0  0  0  0  0  0  0  0  0  0  0
   58.6330   30.9340   48.9060 H   0  0  0  0  0  0  0  0  0  0  0  0
   59.9534   33.3109   48.4215 H   0  0  0  0  0  0  0  0  0  0  0  0
   60.4024   35.6738   47.7919 H   0  0  0  0  0  0  0  0  0  0  0  0
   59.7999   36.4970   45.5238 H   0  0  0  0  0  0  0  0  0  0  0  0
   58.7766   34.9605   43.8630 H   0  0  0  0  0  0  0  0  0  0  0  0
   58.0079   33.7938   42.7330 H   0  0  0  0  0  0  0  0  0  0  0  0
   59.1758   32.4914   42.3252 H   0  0  0  0  0  0  0  0  0  0  0  0
   57.4124   32.1489   42.3252 H   0  0  0  0  0  0  0  0  0  0  0  0
   56.7230   30.6657   42.8306 H   0  0  0  0  0  0  0  0  0  0  0  0
   56.0047   28.4028   43.5449 H   0  0  0  0  0  0  0  0  0  0  0  0
   57.7555   25.9462   47.1127 H   0  0  0  0  0  0  0  0  0  0  0  0
   57.0492   25.2169   45.6169 H   0  0  0  0  0  0  0  0  0  0  0  0
   59.3325   25.3781   45.0938 H   0  0  0  0  0  0  0  0  0  0  0  0
   58.6231   26.8753   44.3600 H   0  0  0  0  0  0  0  0  0  0  0  0
   60.6217   26.4623   47.8822 H   0  0  0  0  0  0  0  0  0  0  0  0
   60.6052   25.2915   46.5200 H   0  0  0  0  0  0  0  0  0  0  0  0
   61.7771   26.6528   46.5200 H   0  0  0  0  0  0  0  0  0  0  0  0
   61.0497   28.8582   45.8373 H   0  0  0  0  0  0  0  0  0  0  0  0
   61.2106   27.5844   44.5810 H   0  0  0  0  0  0  0  0  0  0  0  0
   59.7796   28.6701   44.5810 H   0  0  0  0  0  0  0  0  0  0  0  0
   58.0161   28.9380   47.3235 H   0  0  0  0  0  0  0  0  0  0  0  0
  1  2  1  0
  2  3  1  0
  3  4  1  0
  3  5  1  0
  5  6  1  0
  6  7  1  0
  7  8  1  0
  8  9  2  0
  9 10  1  0
 10 11  2  0
 11 12  1  0
 12 13  2  0
 13 14  1  0
 14 15  2  0
 15 16  1  0
 15 17  1  0
 17 18  2  0
 18 19  1  0
 19 20  2  0
 20 21  1  0
 21 22  1  0
 22 23  1  0
 23 24  1  0
 24 25  1  0
 24 26  1  0
 20 27  1  0
 27 28  2  0
 28  8  1  0
 14  9  1  0
 28 17  1  0
  1 29  1  0
  1 30  1  0
  1 31  1  0
  2 32  1  0
  2 33  1  0
  4 34  1  0
  4 35  1  0
  4 36  1  0
  5 37  1  0
  5 38  1  0
  6 39  1  0
  6 40  1  0
  7 41  1  0
 10 42  1  0
 11 43  1  0
 12 44  1  0
 13 45  1  0
 16 46  1  0
 16 47  1  0
 16 48  1  0
 18 49  1  0
 19 50  1  0
 22 51  1  0
 22 52  1  0
 23 53  1  0
 23 54  1  0
 25 55  1  0
 25 56  1  0
 25 57  1  0
 26 58  1  0
 26 59  1  0
 26 60  1  0
 27 61  1  0
M  CHG  1  15   1
M  END
>  <UniqueID>  (2) 
1

>  <SMILES>  (2) 
CCN(C)CCNc1c2ccccc2[n+](C)c2ccc(OCCN(C)C)cc12

>  <Energy>  (2) 
84.35293453965357

>  <Genealogy>  (2) 
CCN(C)CCNc1c2ccccc2[n+](C)c2ccc(OCCN(C)C)cc12 (3D coordinates assigned)
CCN(C)CCNc1c2ccccc2[n+](C)c2ccc(OCCN(C)C)cc12 (optimized conformer: 84.35293453965357 kcal/mol)

>  <smiles>  (2) 
CCN(C)CCNc1c2ccccc2[n+](C)c2ccc(OCCN(C)C)cc12

>  <score_type>  (2) 
oracle

>  <origin>  (2) 
adg

>  <m_score__min__energy>  (2) 
-5.8799999999999999

>  <m_primary>  (2) 
energy

$$$$
2:0
     RDKit          3D

 56 59  0  0  0  0  0  0  0  0999 V2000
   60.7980   30.2360   51.7570 C   0  0  0  0  0  0  0  0  0  0  0  0
   61.7760   29.4610   50.8760 C   0  0  0  0  0  0  0  0  0  0  0  0
   61.1910   29.1730   49.5460 N   0  0  0  0  0  0  0  0  0  0  0  0
   60.4560   27.8860   49.5320 C   0  0  0  0  0  0  0  0  0  0  0  0
   60.4640   27.2320   48.1400 C   0  0  0  0  0  0  0  0  0  0  0  0
   59.1770   27.4850   47.4070 C   0  0  0  0  0  0  0  0  0  0  0  0
   58.8620   28.6340   46.6890 C   0  0  0  0  0  0  0  0  0  0  0  0
   57.7310   28.4400   45.9750 N   0  0  0  0  0  0  0  0  0  0  0  0
   57.0910   29.5410   44.8000 S   0  0  0  0  0  0  0  0  0  0  0  0
   55.5930   29.5990   44.9170 O   0  0  0  0  0  0  0  0  0  0  0  0
   57.4430   29.0650   43.4190 O   0  0  0  0  0  0  0  0  0  0  0  0
   57.7590   31.1380   45.1090 C   0  0  0  0  0  0  0  0  0  0  0  0
   57.9510   32.0540   44.0650 C   0  0  0  0  0  0  0  0  0  0  0  0
   58.5080   33.3090   44.3270 C   0  0  0  0  0  0  0  0  0  0  0  0
   58.8780   33.6550   45.6320 C   0  0  0  0  0  0  0  0  0  0  0  0
   59.6480   35.3650   45.9870 Br  0  0  0  0  0  0  0  0  0  0  0  0
   58.6870   32.7430   46.6760 C   0  0  0  0  0  0  0  0  0  0  0  0
   58.1310   31.4880   46.4140 C   0  0  0  0  0  0  0  0  0  0  0  0
   57.3350   27.1740   46.2120 C   0  0  0  0  0  0  0  0  0  0  0  0
   56.2710   26.4780   45.6330 C   0  0  0  0  0  0  0  0  0  0  0  0
   56.0850   25.1330   45.9970 C   0  0  0  0  0  0  0  0  0  0  0  0
   56.9650   24.5100   46.9090 C   0  0  0  0  0  0  0  0  0  0  0  0
   56.7770   23.2110   47.2460 F   0  0  0  0  0  0  0  0  0  0  0  0
   58.0420   25.2260   47.4610 C   0  0  0  0  0  0  0  0  0  0  0  0
   58.1950   26.5640   47.0920 C   0  0  0  0  0  0  0  0  0  0  0  0
   60.4220   30.3050   48.9640 C   0  0  0  0  0  0  0  0  0  0  0  0
   61.2700   31.4790   48.5180 C   0  0  0  0  0  0  0  0  0  0  0  0
   62.2710   31.3040   47.5460 C   0  0  0  0  0  0  0  0  0  0  0  0
   63.0640   32.3860   47.1460 C   0  0  0  0  0  0  0  0  0  0  0  0
   62.8740   33.6440   47.7230 C   0  0  0  0  0  0  0  0  0  0  0  0
   61.8980   33.8220   48.7060 C   0  0  0  0  0  0  0  0  0  0  0  0
   61.1040   32.7440   49.1090 C   0  0  0  0  0  0  0  0  0  0  0  0
   61.0320   30.0505   52.8157 H   0  0  0  0  0  0  0  0  0  0  0  0
   60.8866   31.3117   51.5449 H   0  0  0  0  0  0  0  0  0  0  0  0
   59.7710   29.9039   51.5449 H   0  0  0  0  0  0  0  0  0  0  0  0
   62.6899   30.0587   50.7436 H   0  0  0  0  0  0  0  0  0  0  0  0
   62.0043   28.5046   51.3691 H   0  0  0  0  0  0  0  0  0  0  0  0
   60.9289   27.1993   50.2495 H   0  0  0  0  0  0  0  0  0  0  0  0
   59.4101   28.0895   49.8054 H   0  0  0  0  0  0  0  0  0  0  0  0
   61.2970   27.6478   47.5542 H   0  0  0  0  0  0  0  0  0  0  0  0
   60.5808   26.1458   48.2689 H   0  0  0  0  0  0  0  0  0  0  0  0
   59.4480   29.5648   46.7006 H   0  0  0  0  0  0  0  0  0  0  0  0
   57.6629   31.7846   43.0382 H   0  0  0  0  0  0  0  0  0  0  0  0
   58.6559   34.0261   43.5061 H   0  0  0  0  0  0  0  0  0  0  0  0
   58.9744   33.0139   47.7026 H   0  0  0  0  0  0  0  0  0  0  0  0
   57.9847   30.7716   47.2358 H   0  0  0  0  0  0  0  0  0  0  0  0
   55.5986   26.9680   44.9135 H   0  0  0  0  0  0  0  0  0  0  0  0
   55.2482   24.5619   45.5685 H   0  0  0  0  0  0  0  0  0  0  0  0
   58.7420   24.7471   48.1615 H   0  0  0  0  0  0  0  0  0  0  0  0
   59.8677   29.9305   48.0908 H   0  0  0  0  0  0  0  0  0  0  0  0
   59.7653   30.6798   49.7629 H   0  0  0  0  0  0  0  0  0  0  0  0
   62.4316   30.3123   47.0979 H   0  0  0  0  0  0  0  0  0  0  0  0
   63.8375   32.2455   46.3766 H   0  0  0  0  0  0  0  0  0  0  0  0
   63.4934   34.4948   47.4029 H   0  0  0  0  0  0  0  0  0  0  0  0
   61.7537   34.8117   49.1638 H   0  0  0  0  0  0  0  0  0  0  0  0
   60.3453   32.8863   49.8927 H   0  0  0  0  0  0  0  0  0  0  0  0
  1  2  1  0
  2  3  1  0
  3  4  1  0
  4  5  1  0
  5  6  1  0
  6  7  2  0
  7  8  1  0
  8  9  1  0
  9 10  2  0
  9 11  2  0
  9 12  1  0
 12 13  2  0
 13 14  1  0
 14 15  2  0
 15 16  1  0
 15 17  1  0
 17 18  2  0
  8 19  1  0
 19 20  2  0
 20 21  1  0
 21 22  2  0
 22 23  1  0
 22 24  1  0
 24 25  2  0
  3 26  1  0
 26 27  1  0
 27 28  2  0
 28 29  1  0
 29 30  2  0
 30 31  1  0
 31 32  2  0
 25  6  1  0
 32 27  1  0
 18 12  1  0
 25 19  1  0
  1 33  1  0
  1 34  1  0
  1 35  1  0
  2 36  1  0
  2 37  1  0
  4 38  1  0
  4 39  1  0
  5 40  1  0
  5 41  1  0
  7 42  1  0
 13 43  1  0
 14 44  1  0
 17 45  1  0
 18 46  1  0
 20 47  1  0
 21 48  1  0
 24 49  1  0
 26 50  1  0
 26 51  1  0
 28 52  1  0
 29 53  1  0
 30 54  1  0
 31 55  1  0
 32 56  1  0
M  END
>  <UniqueID>  (3) 
2

>  <SMILES>  (3) 
CCN(CCc1cn(S(=O)(=O)c2ccc(Br)cc2)c2ccc(F)cc12)Cc1ccccc1

>  <Energy>  (3) 
94.70341933048822

>  <Genealogy>  (3) 
CCN(CCc1cn(S(=O)(=O)c2ccc(Br)cc2)c2ccc(F)cc12)Cc1ccccc1 (3D coordinates assigned)
CCN(CCc1cn(S(=O)(=O)c2ccc(Br)cc2)c2ccc(F)cc12)Cc1ccccc1 (optimized conformer: 94.70341933048822 kcal/mol)

>  <smiles>  (3) 
CCN(CCc1cn(S(=O)(=O)c2ccc(Br)cc2)c2ccc(F)cc12)Cc1ccccc1

>  <score_type>  (3) 
oracle

>  <origin>  (3) 
adg

>  <m_score__min__energy>  (3) 
-9.7300000000000004

>  <m_primary>  (3) 
energy

$$$$
3:0
     RDKit          3D

 36 37  0  0  0  0  0  0  0  0999 V2000
   57.7281   31.9273   42.9504 H   0  0  0  0  0  0  0  0  0  0  0  0
   57.3430   32.0030   43.9780 C   0  0  0  0  0  0  0  0  0  0  0  0
   56.7200   30.7950   44.5540 C   0  0  0  0  0  0  0  0  0  0  0  0
   55.5370   30.5120   44.2260 O   0  0  0  0  0  0  0  0  0  0  0  0
   57.4030   30.0020   45.4850 O   0  0  0  0  0  0  0  0  0  0  0  0
   58.5440   29.2060   45.1690 C   0  0  0  0  0  0  0  0  0  0  0  0
   58.5906   29.0592   44.0798 H   0  0  0  0  0  0  0  0  0  0  0  0
   58.4511   28.2378   45.6827 H   0  0  0  0  0  0  0  0  0  0  0  0
   59.8320   29.8890   45.6390 C   0  0  0  0  0  0  0  0  0  0  0  0
   59.8542   30.9165   45.2469 H   0  0  0  0  0  0  0  0  0  0  0  0
   60.6860   29.3056   45.2643 H   0  0  0  0  0  0  0  0  0  0  0  0
   59.9200   29.9380   47.1430 C   0  0  0  0  0  0  0  0  0  0  0  0
   58.9100   29.3830   47.8670 N   0  0  0  0  0  0  0  0  0  0  0  0
   58.8980   29.4190   49.2230 C   0  0  0  0  0  0  0  0  0  0  0  0
   58.0697   28.9599   49.7825 H   0  0  0  0  0  0  0  0  0  0  0  0
   59.9430   30.0420   49.9010 C   0  0  0  0  0  0  0  0  0  0  0  0
   59.9479   30.0785   51.0004 H   0  0  0  0  0  0  0  0  0  0  0  0
   60.9560   30.6040   49.1920 N   0  0  0  0  0  0  0  0  0  0  0  0
   60.9780   30.5790   47.8310 C   0  0  0  0  0  0  0  0  0  0  0  0
   62.1380   31.2120   47.1210 C   0  0  0  0  0  0  0  0  0  0  0  0
   62.8524   31.6018   47.8610 H   0  0  0  0  0  0  0  0  0  0  0  0
   62.6363   30.4608   46.4907 H   0  0  0  0  0  0  0  0  0  0  0  0
   61.7759   32.0376   46.4907 H   0  0  0  0  0  0  0  0  0  0  0  0
   57.4810   33.1860   44.5980 C   0  0  0  0  0  0  0  0  0  0  0  0
   56.8774   34.0267   44.2254 H   0  0  0  0  0  0  0  0  0  0  0  0
   58.3780   33.4470   45.7390 C   0  0  0  0  0  0  0  0  0  0  0  0
   59.6420   34.0080   45.5100 C   0  0  0  0  0  0  0  0  0  0  0  0
   59.9496   34.2673   44.4862 H   0  0  0  0  0  0  0  0  0  0  0  0
   60.5130   34.2390   46.5790 C   0  0  0  0  0  0  0  0  0  0  0  0
   61.4972   34.6951   46.3965 H   0  0  0  0  0  0  0  0  0  0  0  0
   60.1350   33.8910   47.8810 C   0  0  0  0  0  0  0  0  0  0  0  0
   61.3260   34.2090   49.3390 Br  0  0  0  0  0  0  0  0  0  0  0  0
   58.8870   33.3030   48.1110 C   0  0  0  0  0  0  0  0  0  0  0  0
   58.5918   33.0234   49.1331 H   0  0  0  0  0  0  0  0  0  0  0  0
   58.0140   33.0700   47.0440 C   0  0  0  0  0  0  0  0  0  0  0  0
   57.0406   32.5909   47.2257 H   0  0  0  0  0  0  0  0  0  0  0  0
  1  2  1  0
  2  3  1  0
  3  4  2  0
  3  5  1  0
  5  6  1  0
  6  7  1  0
  6  8  1  0
  6  9  1  0
  9 10  1  0
  9 11  1  0
  9 12  1  0
 12 13  2  0
 13 14  1  0
 14 15  1  0
 14 16  2  0
 16 17  1  0
 16 18  1  0
 18 19  2  0
 19 20  1  0
 20 21  1  0
 20 22  1  0
 20 23  1  0
  2 24  2  0
 24 25  1  0
 24 26  1  0
 26 27  2  0
 27 28  1  0
 27 29  1  0
 29 30  1  0
 29 31  2  0
 31 32  1  0
 31 33  1  0
 33 34  1  0
 33 35  2  0
 35 36  1  0
 19 12  1  0
 35 26  1  0
M  END
>  <UniqueID>  (4) 
3

>  <SMILES>  (4) 
Cc1nccnc1CCOC(=O)/C=C\c1ccc(Br)cc1

>  <Energy>  (4) 
40.21489077181805

>  <Genealogy>  (4) 
Cc1nccnc1CCOC(=O)/C=C\c1ccc(Br)cc1 (cis-trans isomerization)
Cc1nccnc1CCOC(=O)/C=C\c1ccc(Br)cc1 (3D coordinates assigned)
Cc1nccnc1CCOC(=O)/C=C\c1ccc(Br)cc1 (optimized conformer: 40.21489077181805 kcal/mol)

>  <smiles>  (4) 
Cc1nccnc1CCOC(=O)C=Cc1ccc(Br)cc1

>  <score_type>  (4) 
oracle

>  <origin>  (4) 
adg

>  <m_score__min__energy>  (4) 
-7.4400000000000004

>  <m_primary>  (4) 
energy

$$$$
4:0
     RDKit          3D

 52 51  0  0  0  0  0  0  0  0999 V2000
   63.4350   32.9480   47.2200 C   0  0  0  0  0  0  0  0  0  0  0  0
   62.3010   31.9580   47.4600 C   0  0  0  0  0  0  0  0  0  0  0  0
   60.9980   32.6080   47.2590 N   0  0  0  0  0  0  0  0  0  0  0  0
   61.1180   33.7880   46.3900 C   0  0  0  0  0  0  0  0  0  0  0  0
   59.9580   34.7660   46.6350 C   0  0  0  0  0  0  0  0  0  0  0  0
   58.5760   34.1550   46.3510 C   0  0  0  0  0  0  0  0  0  0  0  0
   58.6880   32.8110   45.7640 N   0  0  0  0  0  0  0  0  0  0  0  0
   57.4060   32.3070   45.2440 C   0  0  0  0  0  0  0  0  0  0  0  0
   57.6400   31.2760   44.1350 C   0  0  0  0  0  0  0  0  0  0  0  0
   58.0470   29.8820   44.6590 C   0  0  0  0  0  0  0  0  0  0  0  0
   59.5560   29.7270   44.9220 C   0  0  0  0  0  0  0  0  0  0  0  0
   59.9070   30.0800   46.3050 N   0  0  0  0  0  0  0  0  0  0  0  0
   59.2650   29.1350   47.2330 C   0  0  0  0  0  0  0  0  0  0  0  0
   59.8670   29.2140   48.6470 C   0  0  0  0  0  0  0  0  0  0  0  0
   59.7280   30.6000   49.2910 C   0  0  0  0  0  0  0  0  0  0  0  0
   58.8650   31.4780   48.4910 N   0  0  0  0  0  0  0  0  0  0  0  0
   58.5260   32.7090   49.2190 C   0  0  0  0  0  0  0  0  0  0  0  0
   59.7310   33.1900   50.0170 C   0  0  0  0  0  0  0  0  0  0  0  0
   63.8308   33.2935   48.1864 H   0  0  0  0  0  0  0  0  0  0  0  0
   64.2369   32.4559   46.6502 H   0  0  0  0  0  0  0  0  0  0  0  0
   63.0556   33.8090   46.6502 H   0  0  0  0  0  0  0  0  0  0  0  0
   62.3988   31.1182   46.7563 H   0  0  0  0  0  0  0  0  0  0  0  0
   62.3605   31.5938   48.4963 H   0  0  0  0  0  0  0  0  0  0  0  0
   60.3800   31.9180   46.7740 H   0  0  0  0  0  0  0  0  0  0  0  0
   62.0698   34.2969   46.6022 H   0  0  0  0  0  0  0  0  0  0  0  0
   61.0859   33.4583   45.3411 H   0  0  0  0  0  0  0  0  0  0  0  0
   59.9883   35.0868   47.6867 H   0  0  0  0  0  0  0  0  0  0  0  0
   60.0904   35.6085   45.9402 H   0  0  0  0  0  0  0  0  0  0  0  0
   58.0152   34.0866   47.2949 H   0  0  0  0  0  0  0  0  0  0  0  0
   58.0552   34.8027   45.6304 H   0  0  0  0  0  0  0  0  0  0  0  0
   58.9940   32.1650   46.5270 H   0  0  0  0  0  0  0  0  0  0  0  0
   56.8443   31.8348   46.0635 H   0  0  0  0  0  0  0  0  0  0  0  0
   56.8363   33.1511   44.8281 H   0  0  0  0  0  0  0  0  0  0  0  0
   56.7104   31.1716   43.5562 H   0  0  0  0  0  0  0  0  0  0  0  0
   58.4761   31.6461   43.5234 H   0  0  0  0  0  0  0  0  0  0  0  0
   57.5110   29.6969   45.6016 H   0  0  0  0  0  0  0  0  0  0  0  0
   57.7853   29.1581   43.8732 H   0  0  0  0  0  0  0  0  0  0  0  0
   59.8444   28.6817   44.7370 H   0  0  0  0  0  0  0  0  0  0  0  0
   60.0931   30.4100   44.2474 H   0  0  0  0  0  0  0  0  0  0  0  0
   59.5160   31.0340   46.4920 H   0  0  0  0  0  0  0  0  0  0  0  0
   58.1916   29.3684   47.2908 H   0  0  0  0  0  0  0  0  0  0  0  0
   59.4318   28.1174   46.8499 H   0  0  0  0  0  0  0  0  0  0  0  0
   59.3547   28.4795   49.2858 H   0  0  0  0  0  0  0  0  0  0  0  0
   60.9430   29.0049   48.5544 H   0  0  0  0  0  0  0  0  0  0  0  0
   59.2914   30.4864   50.2942 H   0  0  0  0  0  0  0  0  0  0  0  0
   60.7271   31.0564   49.3497 H   0  0  0  0  0  0  0  0  0  0  0  0
   59.4050   31.7580   47.6400 H   0  0  0  0  0  0  0  0  0  0  0  0
   58.2304   33.4876   48.5004 H   0  0  0  0  0  0  0  0  0  0  0  0
   57.6943   32.5034   49.9089 H   0  0  0  0  0  0  0  0  0  0  0  0
   59.5165   33.1044   51.0925 H   0  0  0  0  0  0  0  0  0  0  0  0
   60.6063   32.5724   49.7674 H   0  0  0  0  0  0  0  0  0  0  0  0
   59.9404   34.2406   49.7674 H   0  0  0  0  0  0  0  0  0  0  0  0
  1  2  1  0
  2  3  1  0
  3  4  1  0
  4  5  1  0
  5  6  1  0
  6  7  1  0
  7  8  1  0
  8  9  1  0
  9 10  1  0
 10 11  1  0
 11 12  1  0
 12 13  1  0
 13 14  1  0
 14 15  1  0
 15 16  1  0
 16 17  1  0
 17 18  1  0
  1 19  1  0
  1 20  1  0
  1 21  1  0
  2 22  1  0
  2 23  1  0
  3 24  1  0
  4 25  1  0
  4 26  1  0
  5 27  1  0
  5 28  1  0
  6 29  1  0
  6 30  1  0
  7 31  1  0
  8 32  1  0
  8 33  1  0
  9 34  1  0
  9 35  1  0
 10 36  1  0
 10 37  1  0
 11 38  1  0
 11 39  1  0
 12 40  1  0
 13 41  1  0
 13 42  1  0
 14 43  1  0
 14 44  1  0
 15 45  1  0
 15 46  1  0
 16 47  1  0
 17 48  1  0
 17 49  1  0
 18 50  1  0
 18 51  1  0
 18 52  1  0
M  END
>  <UniqueID>  (5) 
4

>  <SMILES>  (5) 
CCNCCCNCCCCNCCCNCC

>  <Energy>  (5) 
27.66745520845255

>  <Genealogy>  (5) 
CCNCCCNCCCCNCCCNCC (3D coordinates assigned)
CCNCCCNCCCCNCCCNCC (optimized conformer: 27.66745520845255 kcal/mol)

>  <smiles>  (5) 
CCNCCCNCCCCNCCCNCC

>  <score_type>  (5) 
oracle

>  <origin>  (5) 
adg

>  <m_score__min__energy>  (5) 
-2.1299999999999999

>  <m_primary>  (5) 
energy

$$$$
5:0
     RDKit          3D

 41 42  0  0  0  0  0  0  0  0999 V2000
   56.5390   22.6290   41.7980 H   0  0  0  0  0  0  0  0  0  0  0  0
   56.2530   21.9000   42.4910 N   0  0  0  0  0  0  0  0  0  0  0  0
   56.5920   21.9870   43.7380 C   0  0  0  0  0  0  0  0  0  0  0  0
   55.5820   22.2520   44.6850 O   0  0  0  0  0  0  0  0  0  0  0  0
   55.1880   23.5180   45.2330 C   0  0  2  0  0  0  0  0  0  0  0  0
   55.2037   23.4313   46.3295 H   0  0  0  0  0  0  0  0  0  0  0  0
   53.7440   23.8590   44.8290 C   0  0  0  0  0  0  0  0  0  0  0  0
   53.1345   24.0029   45.7333 H   0  0  0  0  0  0  0  0  0  0  0  0
   53.7387   24.7831   44.2323 H   0  0  0  0  0  0  0  0  0  0  0  0
   53.3259   23.0349   44.2323 H   0  0  0  0  0  0  0  0  0  0  0  0
   56.1990   24.6470   44.9070 C   0  0  0  0  0  0  0  0  0  0  0  0
   57.2169   24.2627   45.0690 H   0  0  0  0  0  0  0  0  0  0  0  0
   56.0320   24.9443   43.8612 H   0  0  0  0  0  0  0  0  0  0  0  0
   56.0100   25.8720   45.7560 C   0  0  0  0  0  0  0  0  0  0  0  0
   54.8470   26.3070   45.9980 O   0  0  0  0  0  0  0  0  0  0  0  0
   57.1700   26.5490   46.2650 N   0  0  0  0  0  0  0  0  0  0  0  0
   57.4930   27.9420   46.1200 C   0  0  0  0  0  0  0  0  0  0  0  0
   57.0480   28.7070   45.0220 C   0  0  0  0  0  0  0  0  0  0  0  0
   56.4223   28.2405   44.2468 H   0  0  0  0  0  0  0  0  0  0  0  0
   57.3990   30.0560   44.9150 C   0  0  0  0  0  0  0  0  0  0  0  0
   57.0317   30.6495   44.0648 H   0  0  0  0  0  0  0  0  0  0  0  0
   58.2200   30.6620   45.8880 C   0  0  0  0  0  0  0  0  0  0  0  0
   58.5910   32.0990   45.7790 C   0  0  0  0  0  0  0  0  0  0  0  0
   57.7890   32.9910   45.0460 C   0  0  0  0  0  0  0  0  0  0  0  0
   56.8832   32.6235   44.5416 H   0  0  0  0  0  0  0  0  0  0  0  0
   58.1360   34.3440   44.9540 C   0  0  0  0  0  0  0  0  0  0  0  0
   57.5024   35.0341   44.3775 H   0  0  0  0  0  0  0  0  0  0  0  0
   59.2830   34.8210   45.5910 C   0  0  0  0  0  0  0  0  0  0  0  0
   59.5511   35.8853   45.5175 H   0  0  0  0  0  0  0  0  0  0  0  0
   60.0880   33.9480   46.3200 C   0  0  0  0  0  0  0  0  0  0  0  0
   60.9930   34.3230   46.8203 H   0  0  0  0  0  0  0  0  0  0  0  0
   59.7460   32.5950   46.4160 C   0  0  0  0  0  0  0  0  0  0  0  0
   60.3849   31.9115   46.9944 H   0  0  0  0  0  0  0  0  0  0  0  0
   58.6870   29.8830   46.9670 C   0  0  0  0  0  0  0  0  0  0  0  0
   59.3375   30.3385   47.7282 H   0  0  0  0  0  0  0  0  0  0  0  0
   58.3290   28.5360   47.0760 C   0  0  0  0  0  0  0  0  0  0  0  0
   58.7062   27.9375   47.9184 H   0  0  0  0  0  0  0  0  0  0  0  0
   58.0290   21.7390   44.1040 C   0  0  0  0  0  0  0  0  0  0  0  0
   58.1307   21.7215   45.1992 H   0  0  0  0  0  0  0  0  0  0  0  0
   58.3511   20.7720   43.6903 H   0  0  0  0  0  0  0  0  0  0  0  0
   58.6566   22.5421   43.6903 H   0  0  0  0  0  0  0  0  0  0  0  0
  1  2  1  0
  2  3  2  0
  3  4  1  0
  4  5  1  0
  5  6  1  1
  5  7  1  0
  7  8  1  0
  7  9  1  0
  7 10  1  0
  5 11  1  0
 11 12  1  0
 11 13  1  0
 11 14  1  0
 14 15  2  0
 14 16  1  0
 16 17  1  0
 17 18  2  0
 18 19  1  0
 18 20  1  0
 20 21  1  0
 20 22  2  0
 22 23  1  0
 23 24  2  0
 24 25  1  0
 24 26  1  0
 26 27  1  0
 26 28  2  0
 28 29  1  0
 28 30  1  0
 30 31  1  0
 30 32  2  0
 32 33  1  0
 22 34  1  0
 34 35  1  0
 34 36  2  0
 36 37  1  0
  3 38  1  0
 38 39  1  0
 38 40  1  0
 38 41  1  0
 36 17  1  0
 32 23  1  0
M  CHG  1  16  -1
M  END
>  <UniqueID>  (6) 
5

>  <SMILES>  (6) 
[H]/N=C(/C)O[C@H](C)CC(=O)[N-]c1ccc(-c2ccccc2)cc1

>  <Energy>  (6) 
49.77513686897457

>  <Genealogy>  (6) 
CC(=N)OC(C)CC(=O)[N-]c1ccc(-c2ccccc2)cc1 (protonated)
CC(=N)O[C@H](C)CC(=O)[N-]c1ccc(-c2ccccc2)cc1 (chirality)
[H]/N=C(/C)O[C@H](C)CC(=O)[N-]c1ccc(-c2ccccc2)cc1 (cis-trans isomerization)
[H]/N=C(/C)O[C@H](C)CC(=O)[N-]c1ccc(-c2ccccc2)cc1 (3D coordinates assigned)
[H]/N=C(/C)O[C@H](C)CC(=O)[N-]c1ccc(-c2ccccc2)cc1 (optimized conformer: 49.77513686897457 kcal/mol)

>  <smiles>  (6) 
CC(=N)OC(C)CC(=O)Nc1ccc(-c2ccccc2)cc1

>  <score_type>  (6) 
oracle

>  <origin>  (6) 
adg

>  <m_score__min__energy>  (6) 
-10

>  <m_primary>  (6) 
energy

$$$$
6:0
     RDKit          3D

 68 71  0  0  0  0  0  0  0  0999 V2000
   58.0140   30.8630   50.8990 C   0  0  0  0  0  0  0  0  0  0  0  0
   59.4910   31.1910   51.1150 C   0  0  0  0  0  0  0  0  0  0  0  0
   59.6730   32.6350   51.4290 N   0  0  0  0  0  0  0  0  0  0  0  0
   58.5330   33.1790   52.2100 C   0  0  0  0  0  0  0  0  0  0  0  0
   58.8480   34.5410   52.8270 C   0  0  0  0  0  0  0  0  0  0  0  0
   60.9460   32.8770   52.1570 C   0  0  0  0  0  0  0  0  0  0  0  0
   61.9930   33.5030   51.2350 C   0  0  0  0  0  0  0  0  0  0  0  0
   62.2550   32.6470   50.1380 O   0  0  0  0  0  0  0  0  0  0  0  0
   63.0080   33.3100   49.1350 C   0  0  0  0  0  0  0  0  0  0  0  0
   62.4830   33.0680   47.7020 C   0  0  0  0  0  0  0  0  0  0  0  0
   62.7810   31.6570   47.1530 C   0  0  0  0  0  0  0  0  0  0  0  0
   61.5870   30.8090   47.0260 N   0  0  0  0  0  0  0  0  0  0  0  0
   61.1140   30.2930   48.3170 C   0  0  0  0  0  0  0  0  0  0  0  0
   59.7090   29.7020   48.1670 C   0  0  0  0  0  0  0  0  0  0  0  0
   59.4230   29.2730   46.7940 N   0  0  0  0  0  0  0  0  0  0  0  0
   58.1630   28.7000   46.4240 C   0  0  0  0  0  0  0  0  0  0  0  0
   57.2490   29.2130   45.5020 C   0  0  0  0  0  0  0  0  0  0  0  0
   57.3580   30.4890   44.7630 C   0  0  0  0  0  0  0  0  0  0  0  0
   57.8220   31.6530   45.2150 C   0  0  0  0  0  0  0  0  0  0  0  0
   58.2580   31.9970   46.5010 C   0  0  0  0  0  0  0  0  0  0  0  0
   58.6890   33.3150   46.7310 C   0  0  0  0  0  0  0  0  0  0  0  0
   59.2890   33.8280   48.4710 Br  0  0  0  0  0  0  0  0  0  0  0  0
   58.6750   34.2620   45.6860 C   0  0  0  0  0  0  0  0  0  0  0  0
   58.2250   33.9040   44.4040 C   0  0  0  0  0  0  0  0  0  0  0  0
   57.7980   32.5930   44.1930 C   0  0  0  0  0  0  0  0  0  0  0  0
   57.3490   32.1340   43.0670 N   0  0  0  0  0  0  0  0  0  0  0  0
   57.0480   30.7760   43.3680 C   0  0  0  0  0  0  0  0  0  0  0  0
   56.6390   29.9520   42.5110 O   0  0  0  0  0  0  0  0  0  0  0  0
   56.2620   28.3160   45.2530 N   0  0  0  0  0  0  0  0  0  0  0  0
   56.5810   27.2330   45.9830 C   0  0  0  0  0  0  0  0  0  0  0  0
   55.8980   26.0170   45.9980 C   0  0  0  0  0  0  0  0  0  0  0  0
   56.4570   24.9550   46.7330 C   0  0  0  0  0  0  0  0  0  0  0  0
   57.6890   25.1200   47.4010 C   0  0  0  0  0  0  0  0  0  0  0  0
   58.3610   26.3530   47.3580 C   0  0  0  0  0  0  0  0  0  0  0  0
   57.7530   27.4080   46.6730 C   0  0  0  0  0  0  0  0  0  0  0  0
   57.5166   30.7525   51.8739 H   0  0  0  0  0  0  0  0  0  0  0  0
   57.5365   31.6770   50.3338 H   0  0  0  0  0  0  0  0  0  0  0  0
   57.9259   29.9234   50.3338 H   0  0  0  0  0  0  0  0  0  0  0  0
   59.8752   30.5891   51.9517 H   0  0  0  0  0  0  0  0  0  0  0  0
   60.0417   30.9596   50.1913 H   0  0  0  0  0  0  0  0  0  0  0  0
   57.6658   33.2858   51.5418 H   0  0  0  0  0  0  0  0  0  0  0  0
   58.3242   32.4783   53.0318 H   0  0  0  0  0  0  0  0  0  0  0  0
   58.8292   34.4598   53.9238 H   0  0  0  0  0  0  0  0  0  0  0  0
   59.8458   34.8694   52.5007 H   0  0  0  0  0  0  0  0  0  0  0  0
   58.0957   35.2742   52.5007 H   0  0  0  0  0  0  0  0  0  0  0  0
   60.7550   33.5581   52.9994 H   0  0  0  0  0  0  0  0  0  0  0  0
   61.3307   31.9129   52.5211 H   0  0  0  0  0  0  0  0  0  0  0  0
   61.6179   34.4673   50.8616 H   0  0  0  0  0  0  0  0  0  0  0  0
   62.9238   33.6550   51.8011 H   0  0  0  0  0  0  0  0  0  0  0  0
   62.9798   34.3909   49.3372 H   0  0  0  0  0  0  0  0  0  0  0  0
   64.0285   32.9016   49.1766 H   0  0  0  0  0  0  0  0  0  0  0  0
   61.3929   33.2151   47.7038 H   0  0  0  0  0  0  0  0  0  0  0  0
   63.0062   33.7806   47.0474 H   0  0  0  0  0  0  0  0  0  0  0  0
   63.2407   31.7608   46.1591 H   0  0  0  0  0  0  0  0  0  0  0  0
   63.4497   31.1653   47.8749 H   0  0  0  0  0  0  0  0  0  0  0  0
   61.7750   30.0130   46.3850 H   0  0  0  0  0  0  0  0  0  0  0  0
   61.8018   29.5103   48.6696 H   0  0  0  0  0  0  0  0  0  0  0  0
   61.0808   31.1184   49.0433 H   0  0  0  0  0  0  0  0  0  0  0  0
   59.6193   28.8320   48.8342 H   0  0  0  0  0  0  0  0  0  0  0  0
   58.9861   30.4888   48.4284 H   0  0  0  0  0  0  0  0  0  0  0  0
   60.0160   29.6670   46.0310 H   0  0  0  0  0  0  0  0  0  0  0  0
   58.2630   31.2534   47.3116 H   0  0  0  0  0  0  0  0  0  0  0  0
   59.0192   35.2893   45.8762 H   0  0  0  0  0  0  0  0  0  0  0  0
   58.2098   34.6398   43.5865 H   0  0  0  0  0  0  0  0  0  0  0  0
   54.9513   25.8919   45.4520 H   0  0  0  0  0  0  0  0  0  0  0  0
   55.9305   23.9907   46.7871 H   0  0  0  0  0  0  0  0  0  0  0  0
   58.1257   24.2784   47.9586 H   0  0  0  0  0  0  0  0  0  0  0  0
   59.3366   26.4838   47.8489 H   0  0  0  0  0  0  0  0  0  0  0  0
  1  2  1  0
  2  3  1  0
  3  4  1  0
  4  5  1  0
  3  6  1  0
  6  7  1  0
  7  8  1  0
  8  9  1  0
  9 10  1  0
 10 11  1  0
 11 12  1  0
 12 13  1  0
 13 14  1  0
 14 15  1  0
 15 16  1  0
 16 17  2  0
 17 18  1  0
 18 19  2  0
 19 20  1  0
 20 21  2  0
 21 22  1  0
 21 23  1  0
 23 24  2  0
 24 25  1  0
 25 26  2  0
 26 27  1  0
 27 28  2  0
 17 29  1  0
 29 30  1  0
 30 31  2  0
 31 32  1  0
 32 33  2  0
 33 34  1  0
 34 35  2  0
 35 16  1  0
 27 18  1  0
 35 30  1  0
 25 19  1  0
  1 36  1  0
  1 37  1  0
  1 38  1  0
  2 39  1  0
  2 40  1  0
  4 41  1  0
  4 42  1  0
  5 43  1  0
  5 44  1  0
  5 45  1  0
  6 46  1  0
  6 47  1  0
  7 48  1  0
  7 49  1  0
  9 50  1  0
  9 51  1  0
 10 52  1  0
 10 53  1  0
 11 54  1  0
 11 55  1  0
 12 56  1  0
 13 57  1  0
 13 58  1  0
 14 59  1  0
 14 60  1  0
 15 61  1  0
 20 62  1  0
 23 63  1  0
 24 64  1  0
 31 65  1  0
 32 66  1  0
 33 67  1  0
 34 68  1  0
M  CHG  1  29  -1
M  END
>  <UniqueID>  (7) 
6

>  <SMILES>  (7) 
CCN(CC)CCOCCCNCCNc1c(C2=c3cc(Br)ccc3=NC2=O)[n-]c2ccccc12

>  <Energy>  (7) 
144.76743225572002

>  <Genealogy>  (7) 
CCN(CC)CCOCCCNCCNc1c(C2=c3cc(Br)ccc3=NC2=O)[n-]c2ccccc12 (protonated)
CCN(CC)CCOCCCNCCNc1c(C2=c3cc(Br)ccc3=NC2=O)[n-]c2ccccc12 (3D coordinates assigned)
CCN(CC)CCOCCCNCCNc1c(C2=c3cc(Br)ccc3=NC2=O)[n-]c2ccccc12 (nonaromatic ring conformer: 144.76743225572002 kcal/mol)

>  <smiles>  (7) 
CCN(CC)CCOCCCNCCNc1c(C2=c3cc(Br)ccc3=NC2=O)[nH]c2ccccc12

>  <score_type>  (7) 
oracle

>  <origin>  (7) 
adg

>  <m_score__min__energy>  (7) 
-10.32

>  <m_primary>  (7) 
energy

$$$$
7:0
     RDKit          3D

 31 33  0  0  0  0  0  0  0  0999 V2000
   63.3210   33.0540   49.5490 C   0  0  0  0  0  0  0  0  0  0  0  0
   62.9480   33.3480   48.1700 N   0  0  0  0  0  0  0  0  0  0  0  0
   63.7680   33.4680   47.1080 C   0  0  0  0  0  0  0  0  0  0  0  0
   63.0880   33.8480   46.0060 N   0  0  0  0  0  0  0  0  0  0  0  0
   61.8240   33.9830   46.3760 N   0  0  0  0  0  0  0  0  0  0  0  0
   61.7420   33.6940   47.6850 C   0  0  0  0  0  0  0  0  0  0  0  0
   60.2260   33.7870   48.6430 S   0  0  0  0  0  0  0  0  0  0  0  0
   59.2450   34.5620   47.3090 C   0  0  0  0  0  0  0  0  0  0  0  0
   58.6410   33.5180   46.4040 C   0  0  0  0  0  0  0  0  0  0  0  0
   57.9730   32.4120   46.9500 C   0  0  0  0  0  0  0  0  0  0  0  0
   57.4120   31.5000   46.1660 O   0  0  0  0  0  0  0  0  0  0  0  0
   57.4460   31.5750   44.8390 C   0  0  0  0  0  0  0  0  0  0  0  0
   56.8330   30.5770   44.0730 C   0  0  0  0  0  0  0  0  0  0  0  0
   56.8600   30.6480   42.6780 C   0  0  0  0  0  0  0  0  0  0  0  0
   57.5010   31.7140   42.0420 C   0  0  0  0  0  0  0  0  0  0  0  0
   58.1170   32.7170   42.7960 C   0  0  0  0  0  0  0  0  0  0  0  0
   58.0950   32.6560   44.2020 C   0  0  0  0  0  0  0  0  0  0  0  0
   58.6990   33.6400   45.0040 C   0  0  0  0  0  0  0  0  0  0  0  0
   59.2870   34.6240   44.4770 O   0  0  0  0  0  0  0  0  0  0  0  0
   62.6447   33.5871   50.2334 H   0  0  0  0  0  0  0  0  0  0  0  0
   63.2438   31.9712   49.7268 H   0  0  0  0  0  0  0  0  0  0  0  0
   64.3558   33.3820   49.7268 H   0  0  0  0  0  0  0  0  0  0  0  0
   64.8516   33.2805   47.1355 H   0  0  0  0  0  0  0  0  0  0  0  0
   61.0460   34.2830   45.7470 H   0  0  0  0  0  0  0  0  0  0  0  0
   58.4376   35.1596   47.7573 H   0  0  0  0  0  0  0  0  0  0  0  0
   59.9114   35.2005   46.7105 H   0  0  0  0  0  0  0  0  0  0  0  0
   57.9134   32.2991   48.0426 H   0  0  0  0  0  0  0  0  0  0  0  0
   56.3290   29.7351   44.5702 H   0  0  0  0  0  0  0  0  0  0  0  0
   56.3755   29.8628   42.0791 H   0  0  0  0  0  0  0  0  0  0  0  0
   57.5210   31.7643   40.9433 H   0  0  0  0  0  0  0  0  0  0  0  0
   58.6194   33.5547   42.2901 H   0  0  0  0  0  0  0  0  0  0  0  0
  1  2  1  0
  2  3  1  0
  3  4  2  0
  4  5  1  0
  5  6  2  0
  6  7  1  0
  7  8  1  0
  8  9  1  0
  9 10  2  0
 10 11  1  0
 11 12  1  0
 12 13  2  0
 13 14  1  0
 14 15  2  0
 15 16  1  0
 16 17  2  0
 17 18  1  0
 18 19  2  0
  6  2  1  0
 18  9  1  0
 17 12  1  0
  1 20  1  0
  1 21  1  0
  1 22  1  0
  3 23  1  0
  5 24  1  0
  8 25  1  0
  8 26  1  0
 10 27  1  0
 13 28  1  0
 14 29  1  0
 15 30  1  0
 16 31  1  0
M  CHG  1   5   1
M  END
>  <UniqueID>  (8) 
7

>  <SMILES>  (8) 
Cn1cn[nH+]c1SCc1coc2ccccc2c1=O

>  <Energy>  (8) 
68.88098936800664

>  <Genealogy>  (8) 
Cn1cn[nH+]c1SCc1coc2ccccc2c1=O (protonated)
Cn1cn[nH+]c1SCc1coc2ccccc2c1=O (3D coordinates assigned)
Cn1cn[nH+]c1SCc1coc2ccccc2c1=O (optimized conformer: 68.88098936800664 kcal/mol)

>  <smiles>  (8) 
Cn1cnnc1SCc1coc2ccccc2c1=O

>  <score_type>  (8) 
oracle

>  <origin>  (8) 
adg

>  <m_score__min__energy>  (8) 
-5.5899999999999999

>  <m_primary>  (8) 
energy

$$$$
8:0
     RDKit          3D

 49 49  0  0  0  0  0  0  0  0999 V2000
   59.9960   35.3030   46.0530 C   0  0  0  0  0  0  0  0  0  0  0  0
   59.6000   34.5380   47.3210 C   0  0  0  0  0  0  0  0  0  0  0  0
   58.6610   33.4120   47.0660 N   0  0  0  0  0  0  0  0  0  0  0  0
   58.4920   32.6230   48.3130 C   0  0  0  0  0  0  0  0  0  0  0  0
   59.3110   33.1660   49.4910 C   0  0  0  0  0  0  0  0  0  0  0  0
   57.3710   33.8300   46.4410 C   0  0  0  0  0  0  0  0  0  0  0  0
   57.3670   33.9060   44.9000 C   0  0  0  0  0  0  0  0  0  0  0  0
   58.4680   33.1940   44.3740 O   0  0  0  0  0  0  0  0  0  0  0  0
   58.0350   32.2020   43.4630 C   0  0  0  0  0  0  0  0  0  0  0  0
   57.5410   30.9720   44.2250 C   0  0  0  0  0  0  0  0  0  0  0  0
   58.1100   30.9530   45.5800 N   0  0  0  0  0  0  0  0  0  0  0  0
   58.7920   29.6860   45.9020 C   0  0  0  0  0  0  0  0  0  0  0  0
   60.2760   29.8670   46.2630 C   0  0  0  0  0  0  0  0  0  0  0  0
   60.5850   31.2320   46.5540 O   0  0  0  0  0  0  0  0  0  0  0  0
   61.6490   31.7020   47.3420 C   0  0  0  0  0  0  0  0  0  0  0  0
   62.4850   32.7720   46.9580 C   0  0  0  0  0  0  0  0  0  0  0  0
   63.5380   33.1740   47.7850 C   0  0  0  0  0  0  0  0  0  0  0  0
   63.7650   32.5240   49.0010 C   0  0  0  0  0  0  0  0  0  0  0  0
   65.2080   33.0750   50.1250 Br  0  0  0  0  0  0  0  0  0  0  0  0
   62.9330   31.4730   49.3950 C   0  0  0  0  0  0  0  0  0  0  0  0
   61.8790   31.0680   48.5700 C   0  0  0  0  0  0  0  0  0  0  0  0
   60.4851   36.2478   46.3325 H   0  0  0  0  0  0  0  0  0  0  0  0
   60.6912   34.6922   45.4583 H   0  0  0  0  0  0  0  0  0  0  0  0
   59.0959   35.5180   45.4583 H   0  0  0  0  0  0  0  0  0  0  0  0
   60.5126   34.1326   47.7824 H   0  0  0  0  0  0  0  0  0  0  0  0
   59.0805   35.2498   47.9794 H   0  0  0  0  0  0  0  0  0  0  0  0
   59.1360   32.7840   46.3740 H   0  0  0  0  0  0  0  0  0  0  0  0
   57.4281   32.6354   48.5924 H   0  0  0  0  0  0  0  0  0  0  0  0
   58.8547   31.6053   48.1060 H   0  0  0  0  0  0  0  0  0  0  0  0
   58.8430   32.8557   50.4369 H   0  0  0  0  0  0  0  0  0  0  0  0
   60.3349   32.7673   49.4404 H   0  0  0  0  0  0  0  0  0  0  0  0
   59.3423   34.2644   49.4404 H   0  0  0  0  0  0  0  0  0  0  0  0
   56.5986   33.1085   46.7457 H   0  0  0  0  0  0  0  0  0  0  0  0
   57.1868   34.8561   46.7920 H   0  0  0  0  0  0  0  0  0  0  0  0
   56.4339   33.4672   44.5169 H   0  0  0  0  0  0  0  0  0  0  0  0
   57.4404   34.9595   44.5922 H   0  0  0  0  0  0  0  0  0  0  0  0
   57.2153   32.6039   42.8494 H   0  0  0  0  0  0  0  0  0  0  0  0
   58.8772   31.9125   42.8173 H   0  0  0  0  0  0  0  0  0  0  0  0
   56.4435   31.0025   44.2920 H   0  0  0  0  0  0  0  0  0  0  0  0
   57.8591   30.0656   43.6890 H   0  0  0  0  0  0  0  0  0  0  0  0
   58.7590   31.7630   45.7060 H   0  0  0  0  0  0  0  0  0  0  0  0
   58.2791   29.2212   46.7570 H   0  0  0  0  0  0  0  0  0  0  0  0
   58.7510   29.0564   45.0009 H   0  0  0  0  0  0  0  0  0  0  0  0
   60.5058   29.2530   47.1463 H   0  0  0  0  0  0  0  0  0  0  0  0
   60.8805   29.5545   45.3987 H   0  0  0  0  0  0  0  0  0  0  0  0
   62.3075   33.2915   46.0048 H   0  0  0  0  0  0  0  0  0  0  0  0
   64.1901   34.0048   47.4775 H   0  0  0  0  0  0  0  0  0  0  0  0
   63.1071   30.9639   50.3545 H   0  0  0  0  0  0  0  0  0  0  0  0
   61.2241   30.2435   48.8883 H   0  0  0  0  0  0  0  0  0  0  0  0
  1  2  1  0
  2  3  1  0
  3  4  1  0
  4  5  1  0
  3  6  1  0
  6  7  1  0
  7  8  1  0
  8  9  1  0
  9 10  1  0
 10 11  1  0
 11 12  1  0
 12 13  1  0
 13 14  1  0
 14 15  1  0
 15 16  2  0
 16 17  1  0
 17 18  2  0
 18 19  1  0
 18 20  1  0
 20 21  2  0
 21 15  1  0
  1 22  1  0
  1 23  1  0
  1 24  1  0
  2 25  1  0
  2 26  1  0
  3 27  1  0
  4 28  1  0
  4 29  1  0
  5 30  1  0
  5 31  1  0
  5 32  1  0
  6 33  1  0
  6 34  1  0
  7 35  1  0
  7 36  1  0
  9 37  1  0
  9 38  1  0
 10 39  1  0
 10 40  1  0
 11 41  1  0
 12 42  1  0
 12 43  1  0
 13 44  1  0
 13 45  1  0
 16 46  1  0
 17 47  1  0
 20 48  1  0
 21 49  1  0
M  CHG  1   3   1
M  END
>  <UniqueID>  (9) 
8

>  <SMILES>  (9) 
CC[NH+](CC)CCOCCNCCOc1ccc(Br)cc1

>  <Energy>  (9) 
52.44696564462499

>  <Genealogy>  (9) 
CC[NH+](CC)CCOCCNCCOc1ccc(Br)cc1 (protonated)
CC[NH+](CC)CCOCCNCCOc1ccc(Br)cc1 (3D coordinates assigned)
CC[NH+](CC)CCOCCNCCOc1ccc(Br)cc1 (optimized conformer: 52.44696564462499 kcal/mol)

>  <smiles>  (9) 
CCN(CC)CCOCCNCCOc1ccc(Br)cc1

>  <score_type>  (9) 
oracle

>  <origin>  (9) 
adg

>  <m_score__min__energy>  (9) 
-3.2400000000000002

>  <m_primary>  (9) 
energy

$$$$
9:0
     RDKit          3D

 38 39  0  0  0  0  0  0  0  0999 V2000
   56.0680   28.0010   44.5400 H   0  0  0  0  0  0  0  0  0  0  0  0
   55.7790   28.9610   44.8320 N   0  0  0  0  0  0  0  0  0  0  0  0
   56.6500   29.8890   45.0640 C   0  0  0  0  0  0  0  0  0  0  0  0
   56.3230   31.1990   44.8670 N   0  0  0  0  0  0  0  0  0  0  0  0
   57.2390   32.1650   45.1170 C   0  0  0  0  0  0  0  0  0  0  0  0
   57.0210   33.8180   44.9600 S   0  0  0  0  0  0  0  0  0  0  0  0
   58.5790   34.2150   45.4880 C   0  0  0  0  0  0  0  0  0  0  0  0
   58.9772   35.2365   45.5769 H   0  0  0  0  0  0  0  0  0  0  0  0
   59.2830   33.0460   45.7940 C   0  0  0  0  0  0  0  0  0  0  0  0
   60.6690   33.0830   46.3810 C   0  0  0  0  0  0  0  0  0  0  0  0
   61.2780   32.2935   45.9165 H   0  0  0  0  0  0  0  0  0  0  0  0
   61.1075   34.0725   46.1844 H   0  0  0  0  0  0  0  0  0  0  0  0
   60.6290   32.8660   47.8450 N   0  0  0  0  0  0  0  0  0  0  0  0
   60.4140   34.1510   48.5320 C   0  0  0  0  0  0  0  0  0  0  0  0
   60.4403   33.9938   49.6204 H   0  0  0  0  0  0  0  0  0  0  0  0
   61.2064   34.8577   48.2443 H   0  0  0  0  0  0  0  0  0  0  0  0
   59.4347   34.5612   48.2443 H   0  0  0  0  0  0  0  0  0  0  0  0
   61.8560   32.1990   48.3510 C   0  0  0  0  0  0  0  0  0  0  0  0
   62.5674   32.0653   47.5228 H   0  0  0  0  0  0  0  0  0  0  0  0
   62.3129   32.8224   49.1337 H   0  0  0  0  0  0  0  0  0  0  0  0
   61.4940   30.8250   48.9410 C   0  0  0  0  0  0  0  0  0  0  0  0
   61.9813   30.0430   48.3402 H   0  0  0  0  0  0  0  0  0  0  0  0
   61.8409   30.8061   49.9847 H   0  0  0  0  0  0  0  0  0  0  0  0
   60.0390   30.5810   48.9460 N   0  0  0  0  0  0  0  0  0  0  0  0
   59.5880   31.1090   49.7300 H   0  0  0  0  0  0  0  0  0  0  0  0
   59.6500   30.9440   48.0430 H   0  0  0  0  0  0  0  0  0  0  0  0
   59.7180   29.1470   49.0550 C   0  0  0  0  0  0  0  0  0  0  0  0
   60.1125   28.7610   50.0065 H   0  0  0  0  0  0  0  0  0  0  0  0
   58.6252   29.0277   49.0152 H   0  0  0  0  0  0  0  0  0  0  0  0
   60.3370   28.3600   47.9010 C   0  0  0  0  0  0  0  0  0  0  0  0
   60.9698   27.5554   48.3037 H   0  0  0  0  0  0  0  0  0  0  0  0
   59.5375   27.9237   47.2842 H   0  0  0  0  0  0  0  0  0  0  0  0
   60.9494   29.0342   47.2842 H   0  0  0  0  0  0  0  0  0  0  0  0
   58.5140   31.8840   45.5770 C   0  0  0  0  0  0  0  0  0  0  0  0
   58.8810   30.5480   45.7810 C   0  0  0  0  0  0  0  0  0  0  0  0
   59.8901   30.2918   46.1359 H   0  0  0  0  0  0  0  0  0  0  0  0
   57.9370   29.5430   45.5240 C   0  0  0  0  0  0  0  0  0  0  0  0
   58.2004   28.4866   45.6811 H   0  0  0  0  0  0  0  0  0  0  0  0
  1  2  1  0
  2  3  2  0
  3  4  1  0
  4  5  1  0
  5  6  1  0
  6  7  1  0
  7  8  1  0
  7  9  2  0
  9 10  1  0
 10 11  1  0
 10 12  1  0
 10 13  1  0
 13 14  1  0
 14 15  1  0
 14 16  1  0
 14 17  1  0
 13 18  1  0
 18 19  1  0
 18 20  1  0
 18 21  1  0
 21 22  1  0
 21 23  1  0
 21 24  1  0
 24 25  1  0
 24 26  1  0
 24 27  1  0
 27 28  1  0
 27 29  1  0
 27 30  1  0
 30 31  1  0
 30 32  1  0
 30 33  1  0
  9 34  1  0
 34 35  1  0
 35 36  1  0
 35 37  2  0
 37 38  1  0
 37  3  1  0
 34  5  2  0
M  CHG  2   4  -1  24   1
M  END
>  <UniqueID>  (10) 
9

>  <SMILES>  (10) 
[H]/N=c1/ccc2c(CN(C)CC[NH2+]CC)csc2[n-]1

>  <Energy>  (10) 
66.48267309090305

>  <Genealogy>  (10) 
CC[NH2+]CCN(C)Cc1csc2[n-]c(=N)ccc12 (protonated)
[H]/N=c1/ccc2c(CN(C)CC[NH2+]CC)csc2[n-]1 (cis-trans isomerization)
[H]/N=c1/ccc2c(CN(C)CC[NH2+]CC)csc2[n-]1 (3D coordinates assigned)
[H]/N=c1/ccc2c(CN(C)CC[NH2+]CC)csc2[n-]1 (optimized conformer: 66.48267309090305 kcal/mol)

>  <smiles>  (10) 
CCNCCN(C)Cc1csc2[nH]c(=N)ccc12

>  <score_type>  (10) 
oracle

>  <origin>  (10) 
adg

>  <m_score__min__energy>  (10) 
-7.0599999999999996

>  <m_primary>  (10) 
energy

$$$$
10:0
     RDKit          3D

 50 52  0  0  0  0  0  0  0  0999 V2000
   63.1170   33.7500   50.1760 C   0  0  0  0  0  0  0  0  0  0  0  0
   63.6960   32.4510   49.5950 C   0  0  0  0  0  0  0  0  0  0  0  0
   63.7520   32.4120   48.1080 N   0  0  0  0  0  0  0  0  0  0  0  0
   63.7490   33.7880   47.5430 C   0  0  0  0  0  0  0  0  0  0  0  0
   63.1830   33.8450   46.1180 C   0  0  0  0  0  0  0  0  0  0  0  0
   62.6800   31.5840   47.4930 C   0  0  0  0  0  0  0  0  0  0  0  0
   61.8200   30.8370   48.5290 C   0  0  0  0  0  0  0  0  0  0  0  0
   60.4310   31.3030   48.4940 N   0  0  0  0  0  0  0  0  0  0  0  0
   59.6760   31.3480   47.2710 C   0  0  0  0  0  0  0  0  0  0  0  0
   59.4760   32.5770   46.6160 C   0  0  0  0  0  0  0  0  0  0  0  0
   59.8550   33.7930   47.2260 C   0  0  0  0  0  0  0  0  0  0  0  0
   59.7380   35.0000   46.5440 C   0  0  0  0  0  0  0  0  0  0  0  0
   59.2420   35.0200   45.2460 C   0  0  0  0  0  0  0  0  0  0  0  0
   58.8160   33.8390   44.6410 C   0  0  0  0  0  0  0  0  0  0  0  0
   58.8750   32.5980   45.3290 C   0  0  0  0  0  0  0  0  0  0  0  0
   58.3810   31.4340   44.7740 N   0  0  0  0  0  0  0  0  0  0  0  0
   57.5140   31.4980   43.5740 C   0  0  0  0  0  0  0  0  0  0  0  0
   58.6520   30.2130   45.3630 C   0  0  0  0  0  0  0  0  0  0  0  0
   58.3750   28.9930   44.6960 C   0  0  0  0  0  0  0  0  0  0  0  0
   58.5810   27.7650   45.3220 C   0  0  0  0  0  0  0  0  0  0  0  0
   59.0660   27.7170   46.6210 C   0  0  0  0  0  0  0  0  0  0  0  0
   59.3980   28.8920   47.2910 C   0  0  0  0  0  0  0  0  0  0  0  0
   59.8430   28.7760   48.5670 F   0  0  0  0  0  0  0  0  0  0  0  0
   59.2410   30.1530   46.6580 C   0  0  0  0  0  0  0  0  0  0  0  0
   63.1385   33.7018   51.2747 H   0  0  0  0  0  0  0  0  0  0  0  0
   63.7193   34.6048   49.8346 H   0  0  0  0  0  0  0  0  0  0  0  0
   62.0786   33.8735   49.8346 H   0  0  0  0  0  0  0  0  0  0  0  0
   64.7187   32.3277   49.9808 H   0  0  0  0  0  0  0  0  0  0  0  0
   63.0195   31.6407   49.9043 H   0  0  0  0  0  0  0  0  0  0  0  0
   64.6720   31.9690   47.8660 H   0  0  0  0  0  0  0  0  0  0  0  0
   63.1362   34.4323   48.1905 H   0  0  0  0  0  0  0  0  0  0  0  0
   64.7937   34.1296   47.4981 H   0  0  0  0  0  0  0  0  0  0  0  0
   62.0894   33.9551   46.1620 H   0  0  0  0  0  0  0  0  0  0  0  0
   63.6169   34.7040   45.5852 H   0  0  0  0  0  0  0  0  0  0  0  0
   63.4369   32.9167   45.5852 H   0  0  0  0  0  0  0  0  0  0  0  0
   62.0244   32.2423   46.9040 H   0  0  0  0  0  0  0  0  0  0  0  0
   63.1721   30.8241   46.8682 H   0  0  0  0  0  0  0  0  0  0  0  0
   61.8436   29.7600   48.3064 H   0  0  0  0  0  0  0  0  0  0  0  0
   62.2298   31.0331   49.5308 H   0  0  0  0  0  0  0  0  0  0  0  0
   59.9740   31.6140   49.3800 H   0  0  0  0  0  0  0  0  0  0  0  0
   60.2477   33.7858   48.2535 H   0  0  0  0  0  0  0  0  0  0  0  0
   60.0382   35.9388   47.0324 H   0  0  0  0  0  0  0  0  0  0  0  0
   59.1855   35.9702   44.6948 H   0  0  0  0  0  0  0  0  0  0  0  0
   58.4272   33.8686   43.6124 H   0  0  0  0  0  0  0  0  0  0  0  0
   56.4619   31.5757   43.8855 H   0  0  0  0  0  0  0  0  0  0  0  0
   57.7844   32.3786   42.9728 H   0  0  0  0  0  0  0  0  0  0  0  0
   57.6521   30.5872   42.9728 H   0  0  0  0  0  0  0  0  0  0  0  0
   57.9905   29.0161   43.6656 H   0  0  0  0  0  0  0  0  0  0  0  0
   58.3585   26.8313   44.7847 H   0  0  0  0  0  0  0  0  0  0  0  0
   59.1889   26.7465   47.1240 H   0  0  0  0  0  0  0  0  0  0  0  0
  1  2  1  0
  2  3  1  0
  3  4  1  0
  4  5  1  0
  3  6  1  0
  6  7  1  0
  7  8  1  0
  8  9  1  0
  9 10  2  0
 10 11  1  0
 11 12  2  0
 12 13  1  0
 13 14  2  0
 14 15  1  0
 15 16  2  0
 16 17  1  0
 16 18  1  0
 18 19  2  0
 19 20  1  0
 20 21  2  0
 21 22  1  0
 22 23  1  0
 22 24  2  0
 24  9  1  0
 15 10  1  0
 24 18  1  0
  1 25  1  0
  1 26  1  0
  1 27  1  0
  2 28  1  0
  2 29  1  0
  3 30  1  0
  4 31  1  0
  4 32  1  0
  5 33  1  0
  5 34  1  0
  5 35  1  0
  6 36  1  0
  6 37  1  0
  7 38  1  0
  7 39  1  0
  8 40  1  0
 11 41  1  0
 12 42  1  0
 13 43  1  0
 14 44  1  0
 17 45  1  0
 17 46  1  0
 17 47  1  0
 19 48  1  0
 20 49  1  0
 21 50  1  0
M  CHG  2   3   1  16   1
M  END
>  <UniqueID>  (11) 
10

>  <SMILES>  (11) 
CC[NH+](CC)CCNc1c2ccccc2[n+](C)c2cccc(F)c12

>  <Energy>  (11) 
81.77772118857453

>  <Genealogy>  (11) 
CC[NH+](CC)CCNc1c2ccccc2[n+](C)c2cccc(F)c12 (protonated)
CC[NH+](CC)CCNc1c2ccccc2[n+](C)c2cccc(F)c12 (3D coordinates assigned)
CC[NH+](CC)CCNc1c2ccccc2[n+](C)c2cccc(F)c12 (optimized conformer: 81.77772118857453 kcal/mol)

>  <smiles>  (11) 
CCN(CC)CCNc1c2ccccc2[n+](C)c2cccc(F)c12

>  <score_type>  (11) 
oracle

>  <origin>  (11) 
adg

>  <m_score__min__energy>  (11) 
-4.4500000000000002

>  <m_primary>  (11) 
energy

$$$$
11:0
     RDKit          3D

 75 78  0  0  0  0  0  0  0  0999 V2000
   60.2980   34.4980   49.0600 C   0  0  0  0  0  0  0  0  0  0  0  0
   59.5070   34.8740   47.7990 C   0  0  0  0  0  0  0  0  0  0  0  0
   59.8040   34.0380   46.6090 N   0  0  0  0  0  0  0  0  0  0  0  0
   61.2510   33.8360   46.4260 C   0  0  0  0  0  0  0  0  0  0  0  0
   59.1720   34.4910   45.3480 C   0  0  0  0  0  0  0  0  0  0  0  0
   57.7870   33.8650   45.1160 C   0  0  0  0  0  0  0  0  0  0  0  0
   57.4490   32.8840   46.1510 N   0  0  0  0  0  0  0  0  0  0  0  0
   57.8980   31.5170   46.1010 C   0  0  0  0  0  0  0  0  0  0  0  0
   57.6170   30.7140   44.9830 C   0  0  0  0  0  0  0  0  0  0  0  0
   57.0060   31.2600   43.8330 C   0  0  0  0  0  0  0  0  0  0  0  0
   56.6460   30.4440   42.7640 C   0  0  0  0  0  0  0  0  0  0  0  0
   56.8870   29.0770   42.8200 C   0  0  0  0  0  0  0  0  0  0  0  0
   57.5330   28.5230   43.9250 C   0  0  0  0  0  0  0  0  0  0  0  0
   57.9570   29.3350   45.0080 C   0  0  0  0  0  0  0  0  0  0  0  0
   58.6690   28.8140   46.0730 N   0  0  0  0  0  0  0  0  0  0  0  0
   59.2680   27.4630   45.9710 C   0  0  0  0  0  0  0  0  0  0  0  0
   58.8610   29.5700   47.2150 C   0  0  0  0  0  0  0  0  0  0  0  0
   59.3560   28.9960   48.4160 C   0  0  0  0  0  0  0  0  0  0  0  0
   59.6090   29.7850   49.5530 C   0  0  0  0  0  0  0  0  0  0  0  0
   60.1130   29.2530   50.7520 O   0  0  0  0  0  0  0  0  0  0  0  0
   60.9460   29.9380   51.6900 C   0  0  0  0  0  0  0  0  0  0  0  0
   62.4410   29.8740   51.2850 C   0  0  0  0  0  0  0  0  0  0  0  0
   63.1990   31.1660   51.3860 N   0  0  0  0  0  0  0  0  0  0  0  0
   63.2280   31.6190   52.8040 C   0  0  0  0  0  0  0  0  0  0  0  0
   64.6110   30.9780   50.9030 C   0  0  0  0  0  0  0  0  0  0  0  0
   65.4350   32.2770   50.7290 C   0  0  0  0  0  0  0  0  0  0  0  0
   64.9240   33.2620   49.6470 C   0  0  0  0  0  0  0  0  0  0  0  0
   64.0150   32.6490   48.5690 C   0  0  0  0  0  0  0  0  0  0  0  0
   62.6320   32.2130   49.0870 C   0  0  0  0  0  0  0  0  0  0  0  0
   62.4480   32.2190   50.6220 C   0  0  0  0  0  0  0  0  0  0  0  0
   59.3480   31.1500   49.5050 C   0  0  0  0  0  0  0  0  0  0  0  0
   58.8130   31.7290   48.3600 C   0  0  0  0  0  0  0  0  0  0  0  0
   58.5340   30.9500   47.2180 C   0  0  0  0  0  0  0  0  0  0  0  0
   59.7176   34.7739   49.9528 H   0  0  0  0  0  0  0  0  0  0  0  0
   60.4860   33.4142   49.0654 H   0  0  0  0  0  0  0  0  0  0  0  0
   61.2571   35.0365   49.0654 H   0  0  0  0  0  0  0  0  0  0  0  0
   58.4349   34.7788   48.0258 H   0  0  0  0  0  0  0  0  0  0  0  0
   59.8047   35.9008   47.5398 H   0  0  0  0  0  0  0  0  0  0  0  0
   61.7390   33.7679   47.4095 H   0  0  0  0  0  0  0  0  0  0  0  0
   61.4233   32.9051   45.8659 H   0  0  0  0  0  0  0  0  0  0  0  0
   61.6717   34.6841   45.8659 H   0  0  0  0  0  0  0  0  0  0  0  0
   59.0615   35.5849   45.3837 H   0  0  0  0  0  0  0  0  0  0  0  0
   59.8218   34.1727   44.5195 H   0  0  0  0  0  0  0  0  0  0  0  0
   57.0305   34.6635   45.1226 H   0  0  0  0  0  0  0  0  0  0  0  0
   57.8067   33.3445   44.1471 H   0  0  0  0  0  0  0  0  0  0  0  0
   56.7900   33.1630   46.9130 H   0  0  0  0  0  0  0  0  0  0  0  0
   56.8124   32.3416   43.7812 H   0  0  0  0  0  0  0  0  0  0  0  0
   56.1703   30.8821   41.8742 H   0  0  0  0  0  0  0  0  0  0  0  0
   56.5673   28.4295   41.9902 H   0  0  0  0  0  0  0  0  0  0  0  0
   57.7166   27.4389   43.9572 H   0  0  0  0  0  0  0  0  0  0  0  0
   59.4452   27.0633   46.9804 H   0  0  0  0  0  0  0  0  0  0  0  0
   58.5807   26.7972   45.4284 H   0  0  0  0  0  0  0  0  0  0  0  0
   60.2229   27.5253   45.4284 H   0  0  0  0  0  0  0  0  0  0  0  0
   59.5453   27.9132   48.4581 H   0  0  0  0  0  0  0  0  0  0  0  0
   60.6351   30.9920   51.7392 H   0  0  0  0  0  0  0  0  0  0  0  0
   60.8351   29.4474   52.6683 H   0  0  0  0  0  0  0  0  0  0  0  0
   62.9366   29.1396   51.9370 H   0  0  0  0  0  0  0  0  0  0  0  0
   62.4514   29.6030   50.2190 H   0  0  0  0  0  0  0  0  0  0  0  0
   63.1720   30.7449   53.4694 H   0  0  0  0  0  0  0  0  0  0  0  0
   64.1630   32.1660   52.9951 H   0  0  0  0  0  0  0  0  0  0  0  0
   62.3704   32.2808   52.9951 H   0  0  0  0  0  0  0  0  0  0  0  0
   65.1351   30.3390   51.6289 H   0  0  0  0  0  0  0  0  0  0  0  0
   64.5301   30.5353   49.8993 H   0  0  0  0  0  0  0  0  0  0  0  0
   65.4371   32.8066   51.6931 H   0  0  0  0  0  0  0  0  0  0  0  0
   66.4314   31.9550   50.3922 H   0  0  0  0  0  0  0  0  0  0  0  0
   64.3591   34.0584   50.1536 H   0  0  0  0  0  0  0  0  0  0  0  0
   65.8195   33.6204   49.1183 H   0  0  0  0  0  0  0  0  0  0  0  0
   63.8669   33.3967   47.7759 H   0  0  0  0  0  0  0  0  0  0  0  0
   64.5193   31.7407   48.2075 H   0  0  0  0  0  0  0  0  0  0  0  0
   61.8821   32.8926   48.6559 H   0  0  0  0  0  0  0  0  0  0  0  0
   62.5190   31.1628   48.7799 H   0  0  0  0  0  0  0  0  0  0  0  0
   62.7748   33.2009   50.9950 H   0  0  0  0  0  0  0  0  0  0  0  0
   61.3832   32.0007   50.7908 H   0  0  0  0  0  0  0  0  0  0  0  0
   59.5670   31.7776   50.3814 H   0  0  0  0  0  0  0  0  0  0  0  0
   58.6045   32.8090   48.3445 H   0  0  0  0  0  0  0  0  0  0  0  0
  1  2  1  0
  2  3  1  0
  3  4  1  0
  3  5  1  0
  5  6  1  0
  6  7  1  0
  7  8  1  0
  8  9  2  0
  9 10  1  0
 10 11  2  0
 11 12  1  0
 12 13  2  0
 13 14  1  0
 14 15  2  0
 15 16  1  0
 15 17  1  0
 17 18  2  0
 18 19  1  0
 19 20  1  0
 20 21  1  0
 21 22  1  0
 22 23  1  0
 23 24  1  0
 23 25  1  0
 25 26  1  0
 26 27  1  0
 27 28  1  0
 28 29  1  0
 29 30  1  0
 19 31  2  0
 31 32  1  0
 32 33  2  0
 33  8  1  0
 14  9  1  0
 33 17  1  0
 30 23  1  0
  1 34  1  0
  1 35  1  0
  1 36  1  0
  2 37  1  0
  2 38  1  0
  4 39  1  0
  4 40  1  0
  4 41  1  0
  5 42  1  0
  5 43  1  0
  6 44  1  0
  6 45  1  0
  7 46  1  0
 10 47  1  0
 11 48  1  0
 12 49  1  0
 13 50  1  0
 16 51  1  0
 16 52  1  0
 16 53  1  0
 18 54  1  0
 21 55  1  0
 21 56  1  0
 22 57  1  0
 22 58  1  0
 24 59  1  0
 24 60  1  0
 24 61  1  0
 25 62  1  0
 25 63  1  0
 26 64  1  0
 26 65  1  0
 27 66  1  0
 27 67  1  0
 28 68  1  0
 28 69  1  0
 29 70  1  0
 29 71  1  0
 30 72  1  0
 30 73  1  0
 31 74  1  0
 32 75  1  0
M  CHG  2  15   1  23   1
M  END
>  <UniqueID>  (12) 
11

>  <SMILES>  (12) 
CCN(C)CCNc1c2ccccc2[n+](C)c2cc(OCC[N+]3(C)CCCCCC3)ccc12

>  <Energy>  (12) 
126.67928238575647

>  <Genealogy>  (12) 
CCN(C)CCNc1c2ccccc2[n+](C)c2cc(OCC[N+]3(C)CCCCCC3)ccc12 (3D coordinates assigned)
CCN(C)CCNc1c2ccccc2[n+](C)c2cc(OCC[N+]3(C)CCCCCC3)ccc12 (nonaromatic ring conformer: 126.67928238575647 kcal/mol)

>  <smiles>  (12) 
CCN(C)CCNc1c2ccccc2[n+](C)c2cc(OCC[N+]3(C)CCCCCC3)ccc12

>  <score_type>  (12) 
oracle

>  <origin>  (12) 
adg

>  <m_score__min__energy>  (12) 
-3.3199999999999998

>  <m_primary>  (12) 
energy

$$$$
12:0
     RDKit          3D

 60 63  0  0  0  0  0  0  0  0999 V2000
   63.3050   33.7880   46.3690 C   0  0  0  0  0  0  0  0  0  0  0  0
   63.4380   33.8570   47.8880 C   0  0  0  0  0  0  0  0  0  0  0  0
   62.4320   32.9800   48.5310 N   0  0  0  0  0  0  0  0  0  0  0  0
   62.4460   33.1360   50.0040 C   0  0  0  0  0  0  0  0  0  0  0  0
   62.9960   34.5080   50.3840 C   0  0  0  0  0  0  0  0  0  0  0  0
   62.6290   31.5640   48.1400 C   0  0  0  0  0  0  0  0  0  0  0  0
   61.4830   30.7010   48.6920 C   0  0  0  0  0  0  0  0  0  0  0  0
   60.1880   31.4150   48.7250 N   0  0  0  0  0  0  0  0  0  0  0  0
   59.5150   31.3950   47.4360 C   0  0  0  0  0  0  0  0  0  0  0  0
   59.3660   32.6170   46.6950 C   0  0  0  0  0  0  0  0  0  0  0  0
   59.7860   33.8660   47.2240 C   0  0  0  0  0  0  0  0  0  0  0  0
   59.6870   35.0390   46.4800 C   0  0  0  0  0  0  0  0  0  0  0  0
   59.1810   35.0080   45.1910 C   0  0  0  0  0  0  0  0  0  0  0  0
   58.7440   33.8060   44.6420 C   0  0  0  0  0  0  0  0  0  0  0  0
   58.7900   32.5990   45.3830 C   0  0  0  0  0  0  0  0  0  0  0  0
   58.3110   31.4230   44.8480 N   0  0  0  0  0  0  0  0  0  0  0  0
   57.4130   31.4370   43.6780 C   0  0  0  0  0  0  0  0  0  0  0  0
   58.5960   30.2490   45.4910 C   0  0  0  0  0  0  0  0  0  0  0  0
   58.3890   28.9430   45.0700 C   0  0  0  0  0  0  0  0  0  0  0  0
   58.0500   28.3900   43.8250 C   0  0  0  0  0  0  0  0  0  0  0  0
   57.9170   26.9980   43.7250 C   0  0  0  0  0  0  0  0  0  0  0  0
   58.1420   26.1820   44.8440 C   0  0  0  0  0  0  0  0  0  0  0  0
   58.5340   26.7440   46.0670 C   0  0  0  0  0  0  0  0  0  0  0  0
   58.6800   28.1420   46.1530 C   0  0  0  0  0  0  0  0  0  0  0  0
   59.1090   28.8770   47.2160 N   0  0  0  0  0  0  0  0  0  0  0  0
   59.3120   28.3130   48.5640 C   0  0  0  0  0  0  0  0  0  0  0  0
   60.5170   27.3750   48.5810 C   0  0  0  0  0  0  0  0  0  0  0  0
   59.0960   30.1890   46.7890 C   0  0  0  0  0  0  0  0  0  0  0  0
   62.3569   33.2961   46.1059 H   0  0  0  0  0  0  0  0  0  0  0  0
   63.3175   34.8063   45.9532 H   0  0  0  0  0  0  0  0  0  0  0  0
   64.1447   33.2118   45.9532 H   0  0  0  0  0  0  0  0  0  0  0  0
   64.4462   33.5277   48.1796 H   0  0  0  0  0  0  0  0  0  0  0  0
   63.2715   34.8938   48.2157 H   0  0  0  0  0  0  0  0  0  0  0  0
   61.4207   33.0361   50.3896 H   0  0  0  0  0  0  0  0  0  0  0  0
   63.0893   32.3581   50.4410 H   0  0  0  0  0  0  0  0  0  0  0  0
   63.0321   34.5979   51.4797 H   0  0  0  0  0  0  0  0  0  0  0  0
   64.0098   34.6233   49.9731 H   0  0  0  0  0  0  0  0  0  0  0  0
   62.3425   35.2917   49.9731 H   0  0  0  0  0  0  0  0  0  0  0  0
   62.6460   31.4882   47.0427 H   0  0  0  0  0  0  0  0  0  0  0  0
   63.5827   31.2048   48.5540 H   0  0  0  0  0  0  0  0  0  0  0  0
   61.3764   29.8104   48.0553 H   0  0  0  0  0  0  0  0  0  0  0  0
   61.7397   30.4357   49.7282 H   0  0  0  0  0  0  0  0  0  0  0  0
   60.3520   32.4070   49.0100 H   0  0  0  0  0  0  0  0  0  0  0  0
   59.6080   31.0780   49.5070 H   0  0  0  0  0  0  0  0  0  0  0  0
   60.1983   33.9079   48.2430 H   0  0  0  0  0  0  0  0  0  0  0  0
   60.0121   35.9943   46.9179 H   0  0  0  0  0  0  0  0  0  0  0  0
   59.1245   35.9344   44.6006 H   0  0  0  0  0  0  0  0  0  0  0  0
   58.3554   33.7927   43.6130 H   0  0  0  0  0  0  0  0  0  0  0  0
   56.3672   31.4533   44.0186 H   0  0  0  0  0  0  0  0  0  0  0  0
   57.6150   32.3321   43.0714 H   0  0  0  0  0  0  0  0  0  0  0  0
   57.5870   30.5360   43.0714 H   0  0  0  0  0  0  0  0  0  0  0  0
   57.8923   29.0344   42.9476 H   0  0  0  0  0  0  0  0  0  0  0  0
   57.6347   26.5431   42.7641 H   0  0  0  0  0  0  0  0  0  0  0  0
   58.0098   25.0931   44.7610 H   0  0  0  0  0  0  0  0  0  0  0  0
   58.7238   26.1055   46.9424 H   0  0  0  0  0  0  0  0  0  0  0  0
   59.4829   29.1333   49.2766 H   0  0  0  0  0  0  0  0  0  0  0  0
   58.4154   27.7420   48.8471 H   0  0  0  0  0  0  0  0  0  0  0  0
   60.7972   27.1569   49.6221 H   0  0  0  0  0  0  0  0  0  0  0  0
   60.2592   26.4375   48.0666 H   0  0  0  0  0  0  0  0  0  0  0  0
   61.3626   27.8550   48.0666 H   0  0  0  0  0  0  0  0  0  0  0  0
  1  2  1  0
  2  3  1  0
  3  4  1  0
  4  5  1  0
  3  6  1  0
  6  7  1  0
  7  8  1  0
  8  9  1  0
  9 10  2  0
 10 11  1  0
 11 12  2  0
 12 13  1  0
 13 14  2  0
 14 15  1  0
 15 16  2  0
 16 17  1  0
 16 18  1  0
 18 19  1  0
 19 20  2  0
 20 21  1  0
 21 22  2  0
 22 23  1  0
 23 24  2  0
 24 25  1  0
 25 26  1  0
 26 27  1  0
 25 28  1  0
 28  9  1  0
 15 10  1  0
 28 18  2  0
 24 19  1  0
  1 29  1  0
  1 30  1  0
  1 31  1  0
  2 32  1  0
  2 33  1  0
  4 34  1  0
  4 35  1  0
  5 36  1  0
  5 37  1  0
  5 38  1  0
  6 39  1  0
  6 40  1  0
  7 41  1  0
  7 42  1  0
  8 43  1  0
  8 44  1  0
 11 45  1  0
 12 46  1  0
 13 47  1  0
 14 48  1  0
 17 49  1  0
 17 50  1  0
 17 51  1  0
 20 52  1  0
 21 53  1  0
 22 54  1  0
 23 55  1  0
 26 56  1  0
 26 57  1  0
 27 58  1  0
 27 59  1  0
 27 60  1  0
M  CHG  2   8   1  16   1
M  END
>  <UniqueID>  (13) 
12

>  <SMILES>  (13) 
CCN(CC)CC[NH2+]c1c2ccccc2[n+](C)c2c3ccccc3n(CC)c12

>  <Energy>  (13) 
133.71757249227545

>  <Genealogy>  (13) 
CCN(CC)CC[NH2+]c1c2ccccc2[n+](C)c2c3ccccc3n(CC)c12 (protonated)
CCN(CC)CC[NH2+]c1c2ccccc2[n+](C)c2c3ccccc3n(CC)c12 (3D coordinates assigned)
CCN(CC)CC[NH2+]c1c2ccccc2[n+](C)c2c3ccccc3n(CC)c12 (optimized conformer: 133.71757249227545 kcal/mol)

>  <smiles>  (13) 
CCN(CC)CCNc1c2ccccc2[n+](C)c2c3ccccc3n(CC)c12

>  <score_type>  (13) 
oracle

>  <origin>  (13) 
adg

>  <m_score__min__energy>  (13) 
-4.9000000000000004

>  <m_primary>  (13) 
energy

$$$$
13:0
     RDKit          3D

 38 41  0  0  0  0  0  0  0  0999 V2000
   66.4010   32.9950   50.3310 C   0  0  0  0  0  0  0  0  0  0  0  0
   64.9760   33.3810   50.0860 C   0  0  0  0  0  0  0  0  0  0  0  0
   64.2170   32.9780   49.0030 C   0  0  0  0  0  0  0  0  0  0  0  0
   62.9680   33.5450   49.1830 C   0  0  0  0  0  0  0  0  0  0  0  0
   61.8150   33.4110   48.2850 C   0  0  0  0  0  0  0  0  0  0  0  0
   61.5710   32.2940   47.5450 N   0  0  0  0  0  0  0  0  0  0  0  0
   60.4410   32.6540   46.9110 C   0  0  0  0  0  0  0  0  0  0  0  0
   59.7470   31.8950   46.0280 N   0  0  0  0  0  0  0  0  0  0  0  0
   58.6020   32.4050   45.4650 C   0  0  0  0  0  0  0  0  0  0  0  0
   57.8280   31.5970   44.4910 C   0  0  0  0  0  0  0  0  0  0  0  0
   57.1560   30.4290   44.8980 C   0  0  0  0  0  0  0  0  0  0  0  0
   56.4290   29.6710   43.9740 C   0  0  0  0  0  0  0  0  0  0  0  0
   56.3660   30.0690   42.6370 C   0  0  0  0  0  0  0  0  0  0  0  0
   57.0290   31.2250   42.2200 C   0  0  0  0  0  0  0  0  0  0  0  0
   57.7570   31.9870   43.1400 C   0  0  0  0  0  0  0  0  0  0  0  0
   58.1730   33.7110   45.8160 C   0  0  0  0  0  0  0  0  0  0  0  0
   58.9270   34.4540   46.7320 C   0  0  0  0  0  0  0  0  0  0  0  0
   60.0400   33.8800   47.2420 N   0  0  0  0  0  0  0  0  0  0  0  0
   60.8900   34.3880   48.1110 N   0  0  0  0  0  0  0  0  0  0  0  0
   63.0090   34.2610   50.3650 C   0  0  0  0  0  0  0  0  0  0  0  0
   64.2330   34.1470   50.9160 N   0  0  0  0  0  0  0  0  0  0  0  0
   64.6780   34.7880   52.1490 C   0  0  0  0  0  0  0  0  0  0  0  0
   66.5863   32.9448   51.4141 H   0  0  0  0  0  0  0  0  0  0  0  0
   66.5973   32.0113   49.8795 H   0  0  0  0  0  0  0  0  0  0  0  0
   67.0669   33.7451   49.8795 H   0  0  0  0  0  0  0  0  0  0  0  0
   64.5401   32.3377   48.1690 H   0  0  0  0  0  0  0  0  0  0  0  0
   60.0790   30.9290   45.8080 H   0  0  0  0  0  0  0  0  0  0  0  0
   57.2028   30.1102   45.9497 H   0  0  0  0  0  0  0  0  0  0  0  0
   55.9062   28.7601   44.3011 H   0  0  0  0  0  0  0  0  0  0  0  0
   55.7938   29.4716   41.9120 H   0  0  0  0  0  0  0  0  0  0  0  0
   56.9788   31.5370   41.1664 H   0  0  0  0  0  0  0  0  0  0  0  0
   58.2773   32.8967   42.8058 H   0  0  0  0  0  0  0  0  0  0  0  0
   57.2592   34.1345   45.3738 H   0  0  0  0  0  0  0  0  0  0  0  0
   58.6245   35.4697   47.0267 H   0  0  0  0  0  0  0  0  0  0  0  0
   62.1720   34.8347   50.7896 H   0  0  0  0  0  0  0  0  0  0  0  0
   64.2901   34.2292   53.0134 H   0  0  0  0  0  0  0  0  0  0  0  0
   65.7775   34.7968   52.1815 H   0  0  0  0  0  0  0  0  0  0  0  0
   64.3019   35.8212   52.1815 H   0  0  0  0  0  0  0  0  0  0  0  0
  1  2  1  0
  2  3  2  0
  3  4  1  0
  4  5  1  0
  5  6  1  0
  6  7  2  0
  7  8  1  0
  8  9  2  0
  9 10  1  0
 10 11  2  0
 11 12  1  0
 12 13  2  0
 13 14  1  0
 14 15  2  0
  9 16  1  0
 16 17  2  0
 17 18  1  0
 18 19  1  0
  4 20  2  0
 20 21  1  0
 21 22  1  0
 21  2  1  0
 19  5  2  0
 18  7  1  0
 15 10  1  0
  1 23  1  0
  1 24  1  0
  1 25  1  0
  3 26  1  0
  8 27  1  0
 11 28  1  0
 12 29  1  0
 13 30  1  0
 14 31  1  0
 15 32  1  0
 16 33  1  0
 17 34  1  0
 20 35  1  0
 22 36  1  0
 22 37  1  0
 22 38  1  0
M  CHG  1   8   1
M  END
>  <UniqueID>  (14) 
13

>  <SMILES>  (14) 
Cc1cc(-c2nc3[nH+]c(-c4ccccc4)ccn3n2)cn1C

>  <Energy>  (14) 
109.88801793909073

>  <Genealogy>  (14) 
Cc1cc(-c2nc3[nH+]c(-c4ccccc4)ccn3n2)cn1C (protonated)
Cc1cc(-c2nc3[nH+]c(-c4ccccc4)ccn3n2)cn1C (3D coordinates assigned)
Cc1cc(-c2nc3[nH+]c(-c4ccccc4)ccn3n2)cn1C (optimized conformer: 109.88801793909073 kcal/mol)

>  <smiles>  (14) 
Cc1cc(-c2nc3nc(-c4ccccc4)ccn3n2)cn1C

>  <score_type>  (14) 
oracle

>  <origin>  (14) 
adg

>  <m_score__min__energy>  (14) 
-6.2400000000000002

>  <m_primary>  (14) 
energy

$$$$
14:0
     RDKit          3D

 35 37  0  0  0  0  0  0  0  0999 V2000
   58.4620   26.0450   46.4930 C   0  0  0  0  0  0  0  0  0  0  0  0
   57.0510   26.6260   46.5080 C   0  0  0  0  0  0  0  0  0  0  0  0
   56.7640   27.3190   45.2510 N   0  0  0  0  0  0  0  0  0  0  0  0
   57.1050   28.6920   44.9710 C   0  0  0  0  0  0  0  0  0  0  0  0
   56.6560   29.3470   43.8140 C   0  0  0  0  0  0  0  0  0  0  0  0
   56.9810   30.6830   43.5890 C   0  0  0  0  0  0  0  0  0  0  0  0
   57.7780   31.3850   44.5030 C   0  0  0  0  0  0  0  0  0  0  0  0
   58.0480   32.7340   44.2900 C   0  0  0  0  0  0  0  0  0  0  0  0
   58.7650   33.4590   45.2370 C   0  0  0  0  0  0  0  0  0  0  0  0
   58.9560   34.8400   45.0630 C   0  0  0  0  0  0  0  0  0  0  0  0
   59.6270   35.5840   46.0300 C   0  0  0  0  0  0  0  0  0  0  0  0
   60.1000   34.9630   47.1830 C   0  0  0  0  0  0  0  0  0  0  0  0
   59.9270   33.5900   47.3660 C   0  0  0  0  0  0  0  0  0  0  0  0
   59.2830   32.7980   46.3810 C   0  0  0  0  0  0  0  0  0  0  0  0
   59.1340   31.4270   46.5130 N   0  0  0  0  0  0  0  0  0  0  0  0
   59.8880   30.6980   47.5570 C   0  0  0  0  0  0  0  0  0  0  0  0
   58.2980   30.7370   45.6500 C   0  0  0  0  0  0  0  0  0  0  0  0
   57.9190   29.3910   45.8790 C   0  0  0  0  0  0  0  0  0  0  0  0
   58.8105   25.9015   47.5264 H   0  0  0  0  0  0  0  0  0  0  0  0
   58.4544   25.0768   45.9709 H   0  0  0  0  0  0  0  0  0  0  0  0
   59.1383   26.7378   45.9709 H   0  0  0  0  0  0  0  0  0  0  0  0
   56.3259   25.8102   46.6444 H   0  0  0  0  0  0  0  0  0  0  0  0
   56.9739   27.3470   47.3352 H   0  0  0  0  0  0  0  0  0  0  0  0
   56.2670   26.7700   44.5130 H   0  0  0  0  0  0  0  0  0  0  0  0
   56.0437   28.8023   43.0802 H   0  0  0  0  0  0  0  0  0  0  0  0
   56.6090   31.1907   42.6868 H   0  0  0  0  0  0  0  0  0  0  0  0
   57.6943   33.2271   43.3725 H   0  0  0  0  0  0  0  0  0  0  0  0
   58.5737   35.3358   44.1586 H   0  0  0  0  0  0  0  0  0  0  0  0
   59.7835   36.6628   45.8830 H   0  0  0  0  0  0  0  0  0  0  0  0
   60.6126   35.5574   47.9536 H   0  0  0  0  0  0  0  0  0  0  0  0
   60.2954   33.1153   48.2874 H   0  0  0  0  0  0  0  0  0  0  0  0
   59.5488   31.0259   48.5507 H   0  0  0  0  0  0  0  0  0  0  0  0
   59.7135   29.6174   47.4482 H   0  0  0  0  0  0  0  0  0  0  0  0
   60.9621   30.9088   47.4482 H   0  0  0  0  0  0  0  0  0  0  0  0
   58.2699   28.8813   46.7884 H   0  0  0  0  0  0  0  0  0  0  0  0
  1  2  1  0
  2  3  1  0
  3  4  1  0
  4  5  2  0
  5  6  1  0
  6  7  2  0
  7  8  1  0
  8  9  2  0
  9 10  1  0
 10 11  2  0
 11 12  1  0
 12 13  2  0
 13 14  1  0
 14 15  2  0
 15 16  1  0
 15 17  1  0
 17 18  2  0
 18  4  1  0
 17  7  1  0
 14  9  1  0
  1 19  1  0
  1 20  1  0
  1 21  1  0
  2 22  1  0
  2 23  1  0
  3 24  1  0
  5 25  1  0
  6 26  1  0
  8 27  1  0
 10 28  1  0
 11 29  1  0
 12 30  1  0
 13 31  1  0
 16 32  1  0
 16 33  1  0
 16 34  1  0
 18 35  1  0
M  CHG  1  15   1
M  END
>  <UniqueID>  (15) 
14

>  <SMILES>  (15) 
CCNc1ccc2cc3ccccc3[n+](C)c2c1

>  <Energy>  (15) 
52.60782971350936

>  <Genealogy>  (15) 
CCNc1ccc2cc3ccccc3[n+](C)c2c1 (3D coordinates assigned)
CCNc1ccc2cc3ccccc3[n+](C)c2c1 (optimized conformer: 52.60782971350936 kcal/mol)

>  <smiles>  (15) 
CCNc1ccc2cc3ccccc3[n+](C)c2c1

>  <score_type>  (15) 
oracle

>  <origin>  (15) 
adg

>  <m_score__min__energy>  (15) 
-5.7999999999999998

>  <m_primary>  (15) 
energy

$$$$
15:0
     RDKit          3D

 56 58  0  0  0  0  0  0  0  0999 V2000
   63.4000   33.4530   46.7440 C   0  0  0  0  0  0  0  0  0  0  0  0
   63.3190   33.7860   48.2420 C   0  0  0  0  0  0  0  0  0  0  0  0
   62.7390   32.6980   49.0700 N   0  0  0  0  0  0  0  0  0  0  0  0
   63.7630   32.1220   49.9790 C   0  0  0  0  0  0  0  0  0  0  0  0
   65.1470   32.7220   49.7410 C   0  0  0  0  0  0  0  0  0  0  0  0
   61.5010   33.1330   49.7690 C   0  0  0  0  0  0  0  0  0  0  0  0
   60.2600   32.3830   49.2550 C   0  0  0  0  0  0  0  0  0  0  0  0
   60.5770   31.4570   48.1650 N   0  0  0  0  0  0  0  0  0  0  0  0
   59.7800   31.3680   46.9720 C   0  0  0  0  0  0  0  0  0  0  0  0
   59.4210   32.5420   46.2850 C   0  0  0  0  0  0  0  0  0  0  0  0
   60.0210   33.7810   46.6020 C   0  0  0  0  0  0  0  0  0  0  0  0
   59.6710   34.9400   45.9130 C   0  0  0  0  0  0  0  0  0  0  0  0
   58.7400   34.8820   44.8840 C   0  0  0  0  0  0  0  0  0  0  0  0
   58.1500   33.6660   44.5390 C   0  0  0  0  0  0  0  0  0  0  0  0
   58.4650   32.4750   45.2410 C   0  0  0  0  0  0  0  0  0  0  0  0
   57.8840   31.2670   44.9180 N   0  0  0  0  0  0  0  0  0  0  0  0
   56.6690   31.2350   44.0740 C   0  0  0  0  0  0  0  0  0  0  0  0
   58.4320   30.0880   45.3910 C   0  0  0  0  0  0  0  0  0  0  0  0
   58.0750   28.8400   44.8270 C   0  0  0  0  0  0  0  0  0  0  0  0
   58.5850   27.6430   45.3290 C   0  0  0  0  0  0  0  0  0  0  0  0
   58.1430   26.3350   44.7390 C   0  0  0  0  0  0  0  0  0  0  0  0
   59.4510   27.6660   46.4180 C   0  0  0  0  0  0  0  0  0  0  0  0
   59.8690   28.8810   46.9860 C   0  0  0  0  0  0  0  0  0  0  0  0
   60.7570   28.8830   48.0750 O   0  0  0  0  0  0  0  0  0  0  0  0
   60.4460   28.4410   49.3910 C   0  0  0  0  0  0  0  0  0  0  0  0
   59.3770   30.1110   46.4570 C   0  0  0  0  0  0  0  0  0  0  0  0
   63.6583   32.3912   46.6179 H   0  0  0  0  0  0  0  0  0  0  0  0
   62.4272   33.6524   46.2709 H   0  0  0  0  0  0  0  0  0  0  0  0
   64.1726   34.0770   46.2709 H   0  0  0  0  0  0  0  0  0  0  0  0
   64.3360   33.9936   48.6061 H   0  0  0  0  0  0  0  0  0  0  0  0
   62.6498   34.6534   48.3404 H   0  0  0  0  0  0  0  0  0  0  0  0
   63.4650   32.3198   51.0192 H   0  0  0  0  0  0  0  0  0  0  0  0
   63.8237   31.0420   49.7790 H   0  0  0  0  0  0  0  0  0  0  0  0
   65.6276   32.9303   50.7083 H   0  0  0  0  0  0  0  0  0  0  0  0
   65.7624   32.0099   49.1716 H   0  0  0  0  0  0  0  0  0  0  0  0
   65.0479   33.6580   49.1716 H   0  0  0  0  0  0  0  0  0  0  0  0
   61.6134   32.9389   50.8459 H   0  0  0  0  0  0  0  0  0  0  0  0
   61.3572   34.2058   49.5730 H   0  0  0  0  0  0  0  0  0  0  0  0
   59.8228   31.8120   50.0873 H   0  0  0  0  0  0  0  0  0  0  0  0
   59.5547   33.1312   48.8641 H   0  0  0  0  0  0  0  0  0  0  0  0
   61.4830   30.9370   48.1950 H   0  0  0  0  0  0  0  0  0  0  0  0
   60.7737   33.8312   47.4026 H   0  0  0  0  0  0  0  0  0  0  0  0
   60.1320   35.9013   46.1839 H   0  0  0  0  0  0  0  0  0  0  0  0
   58.4670   35.7979   44.3393 H   0  0  0  0  0  0  0  0  0  0  0  0
   57.4289   33.6305   43.7091 H   0  0  0  0  0  0  0  0  0  0  0  0
   55.7766   31.2115   44.7167 H   0  0  0  0  0  0  0  0  0  0  0  0
   56.6399   32.1327   43.4389 H   0  0  0  0  0  0  0  0  0  0  0  0
   56.6872   30.3370   43.4389 H   0  0  0  0  0  0  0  0  0  0  0  0
   57.3804   28.8136   43.9744 H   0  0  0  0  0  0  0  0  0  0  0  0
   57.9046   25.6295   45.5486 H   0  0  0  0  0  0  0  0  0  0  0  0
   57.2494   26.4961   44.1181 H   0  0  0  0  0  0  0  0  0  0  0  0
   58.9512   25.9211   44.1181 H   0  0  0  0  0  0  0  0  0  0  0  0
   59.8141   26.7177   46.8409 H   0  0  0  0  0  0  0  0  0  0  0  0
   60.9179   29.1117   50.1242 H   0  0  0  0  0  0  0  0  0  0  0  0
   59.3553   28.4516   49.5332 H   0  0  0  0  0  0  0  0  0  0  0  0
   60.8244   27.4180   49.5332 H   0  0  0  0  0  0  0  0  0  0  0  0
  1  2  1  0
  2  3  1  0
  3  4  1  0
  4  5  1  0
  3  6  1  0
  6  7  1  0
  7  8  1  0
  8  9  1  0
  9 10  2  0
 10 11  1  0
 11 12  2  0
 12 13  1  0
 13 14  2  0
 14 15  1  0
 15 16  2  0
 16 17  1  0
 16 18  1  0
 18 19  2  0
 19 20  1  0
 20 21  1  0
 20 22  2  0
 22 23  1  0
 23 24  1  0
 24 25  1  0
 23 26  2  0
 26  9  1  0
 15 10  1  0
 26 18  1  0
  1 27  1  0
  1 28  1  0
  1 29  1  0
  2 30  1  0
  2 31  1  0
  4 32  1  0
  4 33  1  0
  5 34  1  0
  5 35  1  0
  5 36  1  0
  6 37  1  0
  6 38  1  0
  7 39  1  0
  7 40  1  0
  8 41  1  0
 11 42  1  0
 12 43  1  0
 13 44  1  0
 14 45  1  0
 17 46  1  0
 17 47  1  0
 17 48  1  0
 19 49  1  0
 21 50  1  0
 21 51  1  0
 21 52  1  0
 22 53  1  0
 25 54  1  0
 25 55  1  0
 25 56  1  0
M  CHG  1  16   1
M  END
>  <UniqueID>  (16) 
15

>  <SMILES>  (16) 
CCN(CC)CCNc1c2ccccc2[n+](C)c2cc(C)cc(OC)c12

>  <Energy>  (16) 
83.8937989814311

>  <Genealogy>  (16) 
CCN(CC)CCNc1c2ccccc2[n+](C)c2cc(C)cc(OC)c12 (3D coordinates assigned)
CCN(CC)CCNc1c2ccccc2[n+](C)c2cc(C)cc(OC)c12 (optimized conformer: 83.8937989814311 kcal/mol)

>  <smiles>  (16) 
CCN(CC)CCNc1c2ccccc2[n+](C)c2cc(C)cc(OC)c12

>  <score_type>  (16) 
oracle

>  <origin>  (16) 
adg

>  <m_score__min__energy>  (16) 
-5.54

>  <m_primary>  (16) 
energy

$$$$
16:0
     RDKit          3D

 60 63  0  0  0  0  0  0  0  0999 V2000
   62.7570   33.6860   46.8310 C   0  0  0  0  0  0  0  0  0  0  0  0
   61.6740   33.7290   47.9040 C   0  0  0  0  0  0  0  0  0  0  0  0
   60.3460   33.8330   47.2980 N   0  0  0  0  0  0  0  0  0  0  0  0
   59.6460   32.7430   46.6570 C   0  0  0  0  0  0  0  0  0  0  0  0
   59.9460   31.4000   46.9620 C   0  0  0  0  0  0  0  0  0  0  0  0
   59.2680   30.3550   46.3200 C   0  0  0  0  0  0  0  0  0  0  0  0
   58.2870   30.6370   45.3760 C   0  0  0  0  0  0  0  0  0  0  0  0
   57.9660   31.9640   45.0680 C   0  0  0  0  0  0  0  0  0  0  0  0
   58.6440   33.0260   45.7000 C   0  0  0  0  0  0  0  0  0  0  0  0
   58.3420   34.3680   45.4110 O   0  0  0  0  0  0  0  0  0  0  0  0
   59.2780   35.3210   44.9160 C   0  0  0  0  0  0  0  0  0  0  0  0
   57.5650   29.4810   44.7610 C   0  0  0  0  0  0  0  0  0  0  0  0
   58.5640   28.3650   44.3900 C   0  0  0  0  0  0  0  0  0  0  0  0
   59.6160   28.0780   45.4250 N   0  0  2  0  0  0  0  0  0  0  0  0
   59.6220   26.6300   45.7570 C   0  0  0  0  0  0  0  0  0  0  0  0
   58.2380   26.1130   46.2340 C   0  0  0  0  0  0  0  0  0  0  0  0
   57.7340   24.9380   45.4870 N   0  0  0  0  0  0  0  0  0  0  0  0
   58.6010   23.7550   45.5920 C   0  0  0  0  0  0  0  0  0  0  0  0
   57.7840   22.5070   45.2650 C   0  0  0  0  0  0  0  0  0  0  0  0
   56.9930   22.6490   43.9430 C   0  0  1  0  0  0  0  0  0  0  0  0
   57.0390   21.4550   42.9650 C   0  0  0  0  0  0  0  0  0  0  0  0
   56.2470   20.3750   43.3900 O   0  0  0  0  0  0  0  0  0  0  0  0
   55.6360   23.3490   44.1070 C   0  0  0  0  0  0  0  0  0  0  0  0
   56.7660   24.0470   43.3530 C   0  0  1  0  0  0  0  0  0  0  0  0
   57.4180   25.2390   44.0780 C   0  0  0  0  0  0  0  0  0  0  0  0
   59.5220   28.9100   46.6560 C   0  0  0  0  0  0  0  0  0  0  0  0
   63.7464   33.6467   47.3101 H   0  0  0  0  0  0  0  0  0  0  0  0
   62.6172   32.7927   46.2045 H   0  0  0  0  0  0  0  0  0  0  0  0
   62.6885   34.5876   46.2045 H   0  0  0  0  0  0  0  0  0  0  0  0
   61.7251   32.8092   48.5051 H   0  0  0  0  0  0  0  0  0  0  0  0
   61.8418   34.6112   48.5392 H   0  0  0  0  0  0  0  0  0  0  0  0
   59.8820   34.7680   47.3510 H   0  0  0  0  0  0  0  0  0  0  0  0
   60.7188   31.1702   47.7103 H   0  0  0  0  0  0  0  0  0  0  0  0
   57.1804   32.1794   44.3288 H   0  0  0  0  0  0  0  0  0  0  0  0
   59.7714   35.8234   45.7611 H   0  0  0  0  0  0  0  0  0  0  0  0
   60.0334   34.8084   44.3024 H   0  0  0  0  0  0  0  0  0  0  0  0
   58.7519   36.0671   44.3024 H   0  0  0  0  0  0  0  0  0  0  0  0
   56.8309   29.0874   45.4794 H   0  0  0  0  0  0  0  0  0  0  0  0
   57.0528   29.8218   43.8492 H   0  0  0  0  0  0  0  0  0  0  0  0
   57.9933   27.4403   44.2193 H   0  0  0  0  0  0  0  0  0  0  0  0
   59.1016   28.7203   43.4985 H   0  0  0  0  0  0  0  0  0  0  0  0
   60.5430   28.2980   44.9830 H   0  0  0  0  0  0  0  0  0  0  0  0
   59.9173   26.0656   44.8602 H   0  0  0  0  0  0  0  0  0  0  0  0
   60.3316   26.4844   46.5848 H   0  0  0  0  0  0  0  0  0  0  0  0
   58.3211   25.8363   47.2954 H   0  0  0  0  0  0  0  0  0  0  0  0
   57.5206   26.9282   46.0586 H   0  0  0  0  0  0  0  0  0  0  0  0
   59.4357   23.8456   44.8813 H   0  0  0  0  0  0  0  0  0  0  0  0
   59.0021   23.6786   46.6134 H   0  0  0  0  0  0  0  0  0  0  0  0
   58.4681   21.6501   45.1770 H   0  0  0  0  0  0  0  0  0  0  0  0
   57.0564   22.3605   46.0769 H   0  0  0  0  0  0  0  0  0  0  0  0
   56.6774   21.7912   41.9820 H   0  0  0  0  0  0  0  0  0  0  0  0
   58.0806   21.1046   42.9173 H   0  0  0  0  0  0  0  0  0  0  0  0
   56.8600   19.6120   43.5560 H   0  0  0  0  0  0  0  0  0  0  0  0
   54.7567   22.9785   43.5597 H   0  0  0  0  0  0  0  0  0  0  0  0
   54.9946   23.6102   44.9616 H   0  0  0  0  0  0  0  0  0  0  0  0
   56.8910   24.4875   42.3528 H   0  0  0  0  0  0  0  0  0  0  0  0
   58.3496   25.5029   43.5560 H   0  0  0  0  0  0  0  0  0  0  0  0
   56.6989   26.0713   44.0668 H   0  0  0  0  0  0  0  0  0  0  0  0
   58.6961   28.5363   47.2791 H   0  0  0  0  0  0  0  0  0  0  0  0
   60.4780   28.8414   47.1958 H   0  0  0  0  0  0  0  0  0  0  0  0
  1  2  1  0
  2  3  1  0
  3  4  1  0
  4  5  2  0
  5  6  1  0
  6  7  2  0
  7  8  1  0
  8  9  2  0
  9 10  1  0
 10 11  1  0
  7 12  1  0
 12 13  1  0
 13 14  1  0
 14 15  1  0
 15 16  1  0
 16 17  1  0
 17 18  1  0
 18 19  1  0
 19 20  1  0
 20 21  1  6
 21 22  1  0
 20 23  1  0
 23 24  1  0
 24 25  1  0
 14 26  1  0
  9  4  1  0
 25 17  1  0
 26  6  1  0
 24 20  1  0
  1 27  1  0
  1 28  1  0
  1 29  1  0
  2 30  1  0
  2 31  1  0
  3 32  1  0
  5 33  1  0
  8 34  1  0
 11 35  1  0
 11 36  1  0
 11 37  1  0
 12 38  1  0
 12 39  1  0
 13 40  1  0
 13 41  1  0
 14 42  1  6
 15 43  1  0
 15 44  1  0
 16 45  1  0
 16 46  1  0
 18 47  1  0
 18 48  1  0
 19 49  1  0
 19 50  1  0
 21 51  1  0
 21 52  1  0
 22 53  1  0
 23 54  1  0
 23 55  1  0
 24 56  1  6
 25 57  1  0
 25 58  1  0
 26 59  1  0
 26 60  1  0
M  CHG  1  14   1
M  END
>  <UniqueID>  (17) 
16

>  <SMILES>  (17) 
CCNc1cc2c(cc1OC)CC[N@H+](CCN1CC[C@@]3(CO)CC3C1)C2

>  <Energy>  (17) 
347.4883409337341

>  <Genealogy>  (17) 
CCNc1cc2c(cc1OC)CC[NH+](CCN1CCC3(CO)CC3C1)C2 (protonated)
CCNc1cc2c(cc1OC)CC[N@H+](CCN1CC[C@@]3(CO)CC3C1)C2 (chirality)
CCNc1cc2c(cc1OC)CC[N@H+](CCN1CC[C@@]3(CO)CC3C1)C2 (3D coordinates assigned)
CCNc1cc2c(cc1OC)CC[N@H+](CCN1CC[C@@]3(CO)CC3C1)C2 (nonaromatic ring conformer: 347.4883409337341 kcal/mol)

>  <smiles>  (17) 
CCNc1cc2c(cc1OC)CCN(CCN1CCC3(CO)CC3C1)C2

>  <score_type>  (17) 
oracle

>  <origin>  (17) 
adg

>  <m_score__min__energy>  (17) 
-6.79

>  <m_primary>  (17) 
energy

$$$$
17:0
     RDKit          3D

 34 36  0  0  0  0  0  0  0  0999 V2000
   60.1390   34.6020   48.4280 C   0  0  0  0  0  0  0  0  0  0  0  0
   59.6140   34.3940   47.0820 N   0  0  0  0  0  0  0  0  0  0  0  0
   59.6200   35.2900   46.0680 C   0  0  0  0  0  0  0  0  0  0  0  0
   59.0380   34.7420   44.9290 C   0  0  0  0  0  0  0  0  0  0  0  0
   58.6710   33.4610   45.2890 C   0  0  0  0  0  0  0  0  0  0  0  0
   58.0480   32.4600   44.5490 C   0  0  0  0  0  0  0  0  0  0  0  0
   57.7910   31.2290   45.1880 C   0  0  0  0  0  0  0  0  0  0  0  0
   57.0020   29.9190   44.3140 S   0  0  0  0  0  0  0  0  0  0  0  0
   55.9340   29.3000   45.1720 O   0  0  0  0  0  0  0  0  0  0  0  0
   56.3710   30.4880   43.0740 O   0  0  0  0  0  0  0  0  0  0  0  0
   58.1880   28.7080   43.8730 N   0  0  0  0  0  0  0  0  0  0  0  0
   59.4750   28.9880   44.5180 C   0  0  0  0  0  0  0  0  0  0  0  0
   59.5380   28.1970   45.8180 C   0  0  0  0  0  0  0  0  0  0  0  0
   58.4270   27.1700   45.7260 C   0  0  0  0  0  0  0  0  0  0  0  0
   57.7810   27.3870   44.3650 C   0  0  0  0  0  0  0  0  0  0  0  0
   58.1690   31.0400   46.5390 C   0  0  0  0  0  0  0  0  0  0  0  0
   58.7960   32.0720   47.2590 C   0  0  0  0  0  0  0  0  0  0  0  0
   59.0330   33.2790   46.5980 C   0  0  0  0  0  0  0  0  0  0  0  0
   59.3818   34.3020   49.1673 H   0  0  0  0  0  0  0  0  0  0  0  0
   61.0462   33.9954   48.5655 H   0  0  0  0  0  0  0  0  0  0  0  0
   60.3846   35.6654   48.5655 H   0  0  0  0  0  0  0  0  0  0  0  0
   60.0280   36.3093   46.1348 H   0  0  0  0  0  0  0  0  0  0  0  0
   58.8999   35.2261   43.9510 H   0  0  0  0  0  0  0  0  0  0  0  0
   57.7650   32.6238   43.4987 H   0  0  0  0  0  0  0  0  0  0  0  0
   60.2980   28.6817   43.8555 H   0  0  0  0  0  0  0  0  0  0  0  0
   59.5709   30.0644   44.7232 H   0  0  0  0  0  0  0  0  0  0  0  0
   60.5137   27.6989   45.9173 H   0  0  0  0  0  0  0  0  0  0  0  0
   59.4179   28.8482   46.6963 H   0  0  0  0  0  0  0  0  0  0  0  0
   58.8380   26.1522   45.7981 H   0  0  0  0  0  0  0  0  0  0  0  0
   57.7003   27.2820   46.5441 H   0  0  0  0  0  0  0  0  0  0  0  0
   58.1169   26.6084   43.6644 H   0  0  0  0  0  0  0  0  0  0  0  0
   56.6856   27.3327   44.4499 H   0  0  0  0  0  0  0  0  0  0  0  0
   57.9702   30.0761   47.0304 H   0  0  0  0  0  0  0  0  0  0  0  0
   59.0905   31.9331   48.3097 H   0  0  0  0  0  0  0  0  0  0  0  0
  1  2  1  0
  2  3  1  0
  3  4  2  0
  4  5  1  0
  5  6  2  0
  6  7  1  0
  7  8  1  0
  8  9  2  0
  8 10  2  0
  8 11  1  0
 11 12  1  0
 12 13  1  0
 13 14  1  0
 14 15  1  0
  7 16  2  0
 16 17  1  0
 17 18  2  0
 18  2  1  0
 18  5  1  0
 15 11  1  0
  1 19  1  0
  1 20  1  0
  1 21  1  0
  3 22  1  0
  4 23  1  0
  6 24  1  0
 12 25  1  0
 12 26  1  0
 13 27  1  0
 13 28  1  0
 14 29  1  0
 14 30  1  0
 15 31  1  0
 15 32  1  0
 16 33  1  0
 17 34  1  0
M  END
>  <UniqueID>  (18) 
17

>  <SMILES>  (18) 
Cn1ccc2cc(S(=O)(=O)N3CCCC3)ccc21

>  <Energy>  (18) 
68.49172918655965

>  <Genealogy>  (18) 
Cn1ccc2cc(S(=O)(=O)N3CCCC3)ccc21 (3D coordinates assigned)
Cn1ccc2cc(S(=O)(=O)N3CCCC3)ccc21 (nonaromatic ring conformer: 68.49172918655965 kcal/mol)

>  <smiles>  (18) 
Cn1ccc2cc(S(=O)(=O)N3CCCC3)ccc21

>  <score_type>  (18) 
oracle

>  <origin>  (18) 
adg

>  <m_score__min__energy>  (18) 
-7.3799999999999999

>  <m_primary>  (18) 
energy

$$$$
18:0
     RDKit          3D

 58 60  0  0  0  0  0  0  0  0999 V2000
   61.0300   28.6550   44.8470 C   0  0  0  0  0  0  0  0  0  0  0  0
   59.5680   28.9750   44.5590 C   0  0  0  0  0  0  0  0  0  0  0  0
   58.9440   29.6370   45.7290 N   0  0  0  0  0  0  0  0  0  0  0  0
   59.9510   29.9440   46.7710 C   0  0  0  0  0  0  0  0  0  0  0  0
   59.5030   29.3940   48.1210 C   0  0  0  0  0  0  0  0  0  0  0  0
   57.8230   28.8300   46.2750 C   0  0  0  0  0  0  0  0  0  0  0  0
   56.8970   28.3810   45.1440 C   0  0  0  0  0  0  0  0  0  0  0  0
   55.6950   29.1200   45.1850 O   0  0  0  0  0  0  0  0  0  0  0  0
   55.4830   29.7540   43.9420 C   0  0  0  0  0  0  0  0  0  0  0  0
   56.6460   30.6940   43.6550 C   0  0  0  0  0  0  0  0  0  0  0  0
   56.9350   31.4430   44.8170 O   0  0  0  0  0  0  0  0  0  0  0  0
   57.5510   32.6750   44.4870 C   0  0  0  0  0  0  0  0  0  0  0  0
   56.9150   33.8230   45.2830 C   0  0  0  0  0  0  0  0  0  0  0  0
   57.4070   33.8640   46.6620 N   0  0  0  0  0  0  0  0  0  0  0  0
   58.7940   33.7080   47.0270 C   0  0  0  0  0  0  0  0  0  0  0  0
   59.7810   34.2930   46.2170 C   0  0  0  0  0  0  0  0  0  0  0  0
   59.4310   34.9980   45.1120 F   0  0  0  0  0  0  0  0  0  0  0  0
   61.1330   34.1830   46.5460 C   0  0  0  0  0  0  0  0  0  0  0  0
   61.5550   33.4860   47.6980 C   0  0  0  0  0  0  0  0  0  0  0  0
   62.9520   33.4100   48.0080 C   0  0  0  0  0  0  0  0  0  0  0  0
   63.7620   33.9730   47.2190 O   0  0  0  0  0  0  0  0  0  0  0  0
   63.4960   32.7400   49.1490 C   0  0  0  0  0  0  0  0  0  0  0  0
   64.8930   32.7270   49.3680 C   0  0  0  0  0  0  0  0  0  0  0  0
   65.4360   32.0810   50.4800 C   0  0  0  0  0  0  0  0  0  0  0  0
   64.5880   31.4420   51.3820 C   0  0  0  0  0  0  0  0  0  0  0  0
   63.2470   31.4490   51.1740 N   0  0  0  0  0  0  0  0  0  0  0  0
   62.6960   32.0720   50.0990 C   0  0  0  0  0  0  0  0  0  0  0  0
   61.0300   32.0520   49.8830 S   0  0  0  0  0  0  0  0  0  0  0  0
   60.5540   32.8870   48.4980 C   0  0  0  0  0  0  0  0  0  0  0  0
   59.1950   32.9810   48.1660 C   0  0  0  0  0  0  0  0  0  0  0  0
   58.2820   32.3480   48.9480 F   0  0  0  0  0  0  0  0  0  0  0  0
   61.1903   28.6199   45.9347 H   0  0  0  0  0  0  0  0  0  0  0  0
   61.2854   27.6797   44.4071 H   0  0  0  0  0  0  0  0  0  0  0  0
   61.6695   29.4344   44.4071 H   0  0  0  0  0  0  0  0  0  0  0  0
   59.5083   29.6452   43.6888 H   0  0  0  0  0  0  0  0  0  0  0  0
   59.0316   28.0373   44.3514 H   0  0  0  0  0  0  0  0  0  0  0  0
   60.9115   29.4853   46.4933 H   0  0  0  0  0  0  0  0  0  0  0  0
   60.0623   31.0355   46.8493 H   0  0  0  0  0  0  0  0  0  0  0  0
   59.9751   29.9736   48.9280 H   0  0  0  0  0  0  0  0  0  0  0  0
   58.4090   29.4731   48.2044 H   0  0  0  0  0  0  0  0  0  0  0  0
   59.8017   28.3386   48.2044 H   0  0  0  0  0  0  0  0  0  0  0  0
   58.2280   27.9444   46.7865 H   0  0  0  0  0  0  0  0  0  0  0  0
   57.2506   29.4444   46.9855 H   0  0  0  0  0  0  0  0  0  0  0  0
   57.3947   28.5476   44.1773 H   0  0  0  0  0  0  0  0  0  0  0  0
   56.6690   27.3118   45.2656 H   0  0  0  0  0  0  0  0  0  0  0  0
   55.4186   28.9953   43.1482 H   0  0  0  0  0  0  0  0  0  0  0  0
   54.5442   30.3264   43.9743 H   0  0  0  0  0  0  0  0  0  0  0  0
   57.5305   30.1074   43.3658 H   0  0  0  0  0  0  0  0  0  0  0  0
   56.3772   31.3747   42.8338 H   0  0  0  0  0  0  0  0  0  0  0  0
   58.6233   32.6192   44.7258 H   0  0  0  0  0  0  0  0  0  0  0  0
   57.4117   32.8664   43.4128 H   0  0  0  0  0  0  0  0  0  0  0  0
   57.1572   34.7759   44.7897 H   0  0  0  0  0  0  0  0  0  0  0  0
   55.8277   33.6591   45.3117 H   0  0  0  0  0  0  0  0  0  0  0  0
   56.7110   33.9700   47.4340 H   0  0  0  0  0  0  0  0  0  0  0  0
   61.8855   34.6496   45.8933 H   0  0  0  0  0  0  0  0  0  0  0  0
   65.5598   33.2320   48.6536 H   0  0  0  0  0  0  0  0  0  0  0  0
   66.5239   32.0765   50.6427 H   0  0  0  0  0  0  0  0  0  0  0  0
   65.0054   30.9319   52.2627 H   0  0  0  0  0  0  0  0  0  0  0  0
  1  2  1  0
  2  3  1  0
  3  4  1  0
  4  5  1  0
  3  6  1  0
  6  7  1  0
  7  8  1  0
  8  9  1  0
  9 10  1  0
 10 11  1  0
 11 12  1  0
 12 13  1  0
 13 14  1  0
 14 15  1  0
 15 16  2  0
 16 17  1  0
 16 18  1  0
 18 19  2  0
 19 20  1  0
 20 21  2  0
 20 22  1  0
 22 23  2  0
 23 24  1  0
 24 25  2  0
 25 26  1  0
 26 27  2  0
 27 28  1  0
 28 29  1  0
 29 30  2  0
 30 31  1  0
 30 15  1  0
 29 19  1  0
 27 22  1  0
  1 32  1  0
  1 33  1  0
  1 34  1  0
  2 35  1  0
  2 36  1  0
  4 37  1  0
  4 38  1  0
  5 39  1  0
  5 40  1  0
  5 41  1  0
  6 42  1  0
  6 43  1  0
  7 44  1  0
  7 45  1  0
  9 46  1  0
  9 47  1  0
 10 48  1  0
 10 49  1  0
 12 50  1  0
 12 51  1  0
 13 52  1  0
 13 53  1  0
 14 54  1  0
 18 55  1  0
 23 56  1  0
 24 57  1  0
 25 58  1  0
M  END
>  <UniqueID>  (19) 
18

>  <SMILES>  (19) 
CCN(CC)CCOCCOCCNc1c(F)cc2c(=O)c3cccnc3sc2c1F

>  <Energy>  (19) 
69.287801603424

>  <Genealogy>  (19) 
CCN(CC)CCOCCOCCNc1c(F)cc2c(=O)c3cccnc3sc2c1F (3D coordinates assigned)
CCN(CC)CCOCCOCCNc1c(F)cc2c(=O)c3cccnc3sc2c1F (optimized conformer: 69.287801603424 kcal/mol)

>  <smiles>  (19) 
CCN(CC)CCOCCOCCNc1c(F)cc2c(=O)c3cccnc3sc2c1F

>  <score_type>  (19) 
oracle

>  <origin>  (19) 
adg

>  <m_score__min__energy>  (19) 
-7.8099999999999996

>  <m_primary>  (19) 
energy

$$$$
19:0
     RDKit          3D

 60 62  0  0  0  0  0  0  0  0999 V2000
   56.6200   29.8680   42.9930 C   0  0  0  0  0  0  0  0  0  0  0  0
   56.2600   30.4170   44.3810 C   0  0  0  0  0  0  0  0  0  0  0  0
   57.3930   31.0770   45.0710 N   0  0  0  0  0  0  0  0  0  0  0  0
   58.5490   30.1730   45.2560 C   0  0  0  0  0  0  0  0  0  0  0  0
   58.5800   29.6020   46.6710 C   0  0  0  0  0  0  0  0  0  0  0  0
   57.7520   32.3860   44.4710 C   0  0  0  0  0  0  0  0  0  0  0  0
   57.8730   33.4530   45.5650 C   0  0  0  0  0  0  0  0  0  0  0  0
   57.8050   32.8430   46.9670 C   0  0  0  0  0  0  0  0  0  0  0  0
   58.7600   33.5040   47.8560 N   0  0  0  0  0  0  0  0  0  0  0  0
   59.8450   32.7750   48.4590 C   0  0  0  0  0  0  0  0  0  0  0  0
   61.1560   32.9310   47.9740 C   0  0  0  0  0  0  0  0  0  0  0  0
   61.4320   33.8030   46.8990 C   0  0  0  0  0  0  0  0  0  0  0  0
   62.7180   33.8990   46.3720 C   0  0  0  0  0  0  0  0  0  0  0  0
   63.7450   33.1230   46.8960 C   0  0  0  0  0  0  0  0  0  0  0  0
   63.5000   32.2670   47.9680 C   0  0  0  0  0  0  0  0  0  0  0  0
   62.2120   32.1790   48.5560 C   0  0  0  0  0  0  0  0  0  0  0  0
   61.9670   31.3710   49.6520 N   0  0  0  0  0  0  0  0  0  0  0  0
   63.1000   30.8240   50.4330 C   0  0  0  0  0  0  0  0  0  0  0  0
   60.6670   31.1080   50.0450 C   0  0  0  0  0  0  0  0  0  0  0  0
   60.3640   30.0970   50.9880 C   0  0  0  0  0  0  0  0  0  0  0  0
   59.0510   29.8930   51.4500 C   0  0  0  0  0  0  0  0  0  0  0  0
   58.7370   28.9020   52.3950 O   0  0  0  0  0  0  0  0  0  0  0  0
   59.6950   28.1370   53.1200 C   0  0  0  0  0  0  0  0  0  0  0  0
   58.0150   30.6930   50.9650 C   0  0  0  0  0  0  0  0  0  0  0  0
   56.7210   30.4800   51.4670 O   0  0  0  0  0  0  0  0  0  0  0  0
   56.2820   30.8700   52.7660 C   0  0  0  0  0  0  0  0  0  0  0  0
   58.2880   31.6670   49.9940 C   0  0  0  0  0  0  0  0  0  0  0  0
   59.5930   31.8520   49.4930 C   0  0  0  0  0  0  0  0  0  0  0  0
   57.2201   28.9529   43.1050 H   0  0  0  0  0  0  0  0  0  0  0  0
   55.6979   29.6364   42.4398 H   0  0  0  0  0  0  0  0  0  0  0  0
   57.2000   30.6214   42.4398 H   0  0  0  0  0  0  0  0  0  0  0  0
   55.4488   31.1508   44.2649 H   0  0  0  0  0  0  0  0  0  0  0  0
   55.9622   29.5578   45.0000 H   0  0  0  0  0  0  0  0  0  0  0  0
   58.4759   29.3446   44.5360 H   0  0  0  0  0  0  0  0  0  0  0  0
   59.4719   30.7484   45.0915 H   0  0  0  0  0  0  0  0  0  0  0  0
   58.5353   30.4249   47.3995 H   0  0  0  0  0  0  0  0  0  0  0  0
   57.7167   28.9361   46.8167 H   0  0  0  0  0  0  0  0  0  0  0  0
   59.5103   29.0334   46.8167 H   0  0  0  0  0  0  0  0  0  0  0  0
   58.7139   32.2935   43.9454 H   0  0  0  0  0  0  0  0  0  0  0  0
   56.9650   32.6848   43.7629 H   0  0  0  0  0  0  0  0  0  0  0  0
   58.8354   33.9730   45.4497 H   0  0  0  0  0  0  0  0  0  0  0  0
   57.0297   34.1508   45.4555 H   0  0  0  0  0  0  0  0  0  0  0  0
   56.7886   32.9689   47.3684 H   0  0  0  0  0  0  0  0  0  0  0  0
   58.0561   31.7739   46.9042 H   0  0  0  0  0  0  0  0  0  0  0  0
   58.8060   34.5480   47.8390 H   0  0  0  0  0  0  0  0  0  0  0  0
   60.6226   34.4137   46.4725 H   0  0  0  0  0  0  0  0  0  0  0  0
   62.9208   34.5897   45.5403 H   0  0  0  0  0  0  0  0  0  0  0  0
   64.7544   33.1847   46.4632 H   0  0  0  0  0  0  0  0  0  0  0  0
   64.3190   31.6492   48.3649 H   0  0  0  0  0  0  0  0  0  0  0  0
   62.8880   30.9264   51.5075 H   0  0  0  0  0  0  0  0  0  0  0  0
   63.2363   29.7608   50.1858 H   0  0  0  0  0  0  0  0  0  0  0  0
   64.0173   31.3785   50.1858 H   0  0  0  0  0  0  0  0  0  0  0  0
   61.1734   29.4564   51.3682 H   0  0  0  0  0  0  0  0  0  0  0  0
   59.5291   28.2695   54.1993 H   0  0  0  0  0  0  0  0  0  0  0  0
   59.5874   27.0735   52.8603 H   0  0  0  0  0  0  0  0  0  0  0  0
   60.7083   28.4772   52.8603 H   0  0  0  0  0  0  0  0  0  0  0  0
   56.8756   30.3427   53.5273 H   0  0  0  0  0  0  0  0  0  0  0  0
   56.4123   31.9556   52.8865 H   0  0  0  0  0  0  0  0  0  0  0  0
   55.2193   30.6127   52.8865 H   0  0  0  0  0  0  0  0  0  0  0  0
   57.4698   32.2978   49.6165 H   0  0  0  0  0  0  0  0  0  0  0  0
  1  2  1  0
  2  3  1  0
  3  4  1  0
  4  5  1  0
  3  6  1  0
  6  7  1  0
  7  8  1  0
  8  9  1  0
  9 10  1  0
 10 11  2  0
 11 12  1  0
 12 13  2  0
 13 14  1  0
 14 15  2  0
 15 16  1  0
 16 17  2  0
 17 18  1  0
 17 19  1  0
 19 20  2  0
 20 21  1  0
 21 22  1  0
 22 23  1  0
 21 24  2  0
 24 25  1  0
 25 26  1  0
 24 27  1  0
 27 28  2  0
 28 10  1  0
 16 11  1  0
 28 19  1  0
  1 29  1  0
  1 30  1  0
  1 31  1  0
  2 32  1  0
  2 33  1  0
  4 34  1  0
  4 35  1  0
  5 36  1  0
  5 37  1  0
  5 38  1  0
  6 39  1  0
  6 40  1  0
  7 41  1  0
  7 42  1  0
  8 43  1  0
  8 44  1  0
  9 45  1  0
 12 46  1  0
 13 47  1  0
 14 48  1  0
 15 49  1  0
 18 50  1  0
 18 51  1  0
 18 52  1  0
 20 53  1  0
 23 54  1  0
 23 55  1  0
 23 56  1  0
 26 57  1  0
 26 58  1  0
 26 59  1  0
 27 60  1  0
M  CHG  1  17   1
M  END
>  <UniqueID>  (20) 
19

>  <SMILES>  (20) 
CCN(CC)CCCNc1c2ccccc2[n+](C)c2cc(OC)c(OC)cc12

>  <Energy>  (20) 
83.32538415987723

>  <Genealogy>  (20) 
CCN(CC)CCCNc1c2ccccc2[n+](C)c2cc(OC)c(OC)cc12 (3D coordinates assigned)
CCN(CC)CCCNc1c2ccccc2[n+](C)c2cc(OC)c(OC)cc12 (optimized conformer: 83.32538415987723 kcal/mol)

>  <smiles>  (20) 
CCN(CC)CCCNc1c2ccccc2[n+](C)c2cc(OC)c(OC)cc12

>  <score_type>  (20) 
oracle

>  <origin>  (20) 
adg

>  <m_score__min__energy>  (20) 
-5.8099999999999996

>  <m_primary>  (20) 
energy

$$$$
20:0
     RDKit          3D

 39 41  0  0  0  0  0  0  0  0999 V2000
   60.3940   28.8750   45.8630 C   0  0  0  0  0  0  0  0  0  0  0  0
   59.7460   29.3730   44.5760 C   0  0  0  0  0  0  0  0  0  0  0  0
   58.3050   29.1010   44.5830 N   0  0  0  0  0  0  0  0  0  0  0  0
   57.8060   27.7710   44.8080 C   0  0  0  0  0  0  0  0  0  0  0  0
   57.0290   27.4820   45.9430 C   0  0  0  0  0  0  0  0  0  0  0  0
   56.5550   26.1850   46.1610 C   0  0  0  0  0  0  0  0  0  0  0  0
   56.8560   25.1670   45.2520 C   0  0  0  0  0  0  0  0  0  0  0  0
   57.6300   25.4460   44.1230 C   0  0  0  0  0  0  0  0  0  0  0  0
   58.1050   26.7410   43.9000 C   0  0  0  0  0  0  0  0  0  0  0  0
   57.1930   30.4140   44.3240 S   0  0  0  0  0  0  0  0  0  0  0  0
   57.0810   30.6720   42.8480 O   0  0  0  0  0  0  0  0  0  0  0  0
   55.8350   30.0650   44.8680 O   0  0  0  0  0  0  0  0  0  0  0  0
   57.7750   31.8480   45.1600 C   0  0  0  0  0  0  0  0  0  0  0  0
   57.7060   33.1170   44.5420 C   0  0  0  0  0  0  0  0  0  0  0  0
   58.1750   34.2580   45.2130 C   0  0  0  0  0  0  0  0  0  0  0  0
   58.7030   34.1000   46.4930 C   0  0  0  0  0  0  0  0  0  0  0  0
   58.7690   32.8790   47.0980 C   0  0  0  0  0  0  0  0  0  0  0  0
   58.3100   31.7280   46.4570 C   0  0  0  0  0  0  0  0  0  0  0  0
   59.3730   33.0020   48.4550 C   0  0  0  0  0  0  0  0  0  0  0  0
   59.6670   34.5200   48.5750 C   0  0  0  0  0  0  0  0  0  0  0  0
   59.2210   35.1190   47.3200 N   0  0  0  0  0  0  0  0  0  0  0  0
   59.8557   29.2887   46.7285 H   0  0  0  0  0  0  0  0  0  0  0  0
   60.3497   27.7763   45.8946 H   0  0  0  0  0  0  0  0  0  0  0  0
   61.4442   29.2006   45.8946 H   0  0  0  0  0  0  0  0  0  0  0  0
   59.9085   30.4572   44.4858 H   0  0  0  0  0  0  0  0  0  0  0  0
   60.2013   28.8470   43.7240 H   0  0  0  0  0  0  0  0  0  0  0  0
   56.7929   28.2796   46.6627 H   0  0  0  0  0  0  0  0  0  0  0  0
   55.9443   25.9654   47.0492 H   0  0  0  0  0  0  0  0  0  0  0  0
   56.4836   24.1466   45.4254 H   0  0  0  0  0  0  0  0  0  0  0  0
   57.8661   24.6443   43.4078 H   0  0  0  0  0  0  0  0  0  0  0  0
   58.7153   26.9551   43.0103 H   0  0  0  0  0  0  0  0  0  0  0  0
   57.2831   33.2114   43.5310 H   0  0  0  0  0  0  0  0  0  0  0  0
   58.1269   35.2503   44.7407 H   0  0  0  0  0  0  0  0  0  0  0  0
   58.3648   30.7482   46.9539 H   0  0  0  0  0  0  0  0  0  0  0  0
   58.6671   32.6742   49.2323 H   0  0  0  0  0  0  0  0  0  0  0  0
   60.2686   32.3771   48.5871 H   0  0  0  0  0  0  0  0  0  0  0  0
   59.1125   34.9505   49.4219 H   0  0  0  0  0  0  0  0  0  0  0  0
   60.7357   34.7096   48.7535 H   0  0  0  0  0  0  0  0  0  0  0  0
   59.2770   36.1340   47.0760 H   0  0  0  0  0  0  0  0  0  0  0  0
  1  2  1  0
  2  3  1  0
  3  4  1  0
  4  5  2  0
  5  6  1  0
  6  7  2  0
  7  8  1  0
  8  9  2  0
  3 10  1  0
 10 11  2  0
 10 12  2  0
 10 13  1  0
 13 14  2  0
 14 15  1  0
 15 16  2  0
 16 17  1  0
 17 18  2  0
 17 19  1  0
 19 20  1  0
 20 21  1  0
  9  4  1  0
 18 13  1  0
 21 16  1  0
  1 22  1  0
  1 23  1  0
  1 24  1  0
  2 25  1  0
  2 26  1  0
  5 27  1  0
  6 28  1  0
  7 29  1  0
  8 30  1  0
  9 31  1  0
 14 32  1  0
 15 33  1  0
 18 34  1  0
 19 35  1  0
 19 36  1  0
 20 37  1  0
 20 38  1  0
 21 39  1  0
M  END
>  <UniqueID>  (21) 
20

>  <SMILES>  (21) 
CCN(c1ccccc1)S(=O)(=O)c1ccc2c(c1)CCN2

>  <Energy>  (21) 
56.293332183364114

>  <Genealogy>  (21) 
CCN(c1ccccc1)S(=O)(=O)c1ccc2c(c1)CCN2 (3D coordinates assigned)
CCN(c1ccccc1)S(=O)(=O)c1ccc2c(c1)CCN2 (nonaromatic ring conformer: 56.293332183364114 kcal/mol)

>  <smiles>  (21) 
CCN(c1ccccc1)S(=O)(=O)c1ccc2c(c1)CCN2

>  <score_type>  (21) 
oracle

>  <origin>  (21) 
adg

>  <m_score__min__energy>  (21) 
-7.9299999999999997

>  <m_primary>  (21) 
energy

$$$$
21:0
     RDKit          3D

 56 58  0  0  0  0  0  0  0  0999 V2000
   63.0710   33.7790   49.6190 C   0  0  0  0  0  0  0  0  0  0  0  0
   64.1470   33.1080   48.7530 C   0  0  0  0  0  0  0  0  0  0  0  0
   63.6810   32.6630   47.4160 N   0  0  1  0  0  0  0  0  0  0  0  0
   62.9100   31.4060   47.4990 C   0  0  0  0  0  0  0  0  0  0  0  0
   62.9290   33.7310   46.7080 C   0  0  0  0  0  0  0  0  0  0  0  0
   61.4260   33.4300   46.4960 C   0  0  0  0  0  0  0  0  0  0  0  0
   60.4550   33.9760   47.5570 C   0  0  0  0  0  0  0  0  0  0  0  0
   59.4860   32.9760   48.0260 N   0  0  0  0  0  0  0  0  0  0  0  0
   59.1810   31.7780   47.2870 C   0  0  0  0  0  0  0  0  0  0  0  0
   59.5940   30.5340   47.8010 C   0  0  0  0  0  0  0  0  0  0  0  0
   60.0140   30.4100   49.1440 C   0  0  0  0  0  0  0  0  0  0  0  0
   60.5130   29.2040   49.6290 C   0  0  0  0  0  0  0  0  0  0  0  0
   60.6040   28.1030   48.7880 C   0  0  0  0  0  0  0  0  0  0  0  0
   60.1520   28.1890   47.4710 C   0  0  0  0  0  0  0  0  0  0  0  0
   59.5850   29.3890   46.9660 C   0  0  0  0  0  0  0  0  0  0  0  0
   59.0600   29.4660   45.6920 N   0  0  0  0  0  0  0  0  0  0  0  0
   58.8300   28.2260   44.9160 C   0  0  0  0  0  0  0  0  0  0  0  0
   58.6930   30.6900   45.1590 C   0  0  0  0  0  0  0  0  0  0  0  0
   58.4290   30.8290   43.7750 C   0  0  0  0  0  0  0  0  0  0  0  0
   57.9620   32.0290   43.2400 C   0  0  0  0  0  0  0  0  0  0  0  0
   57.7230   32.1580   41.7620 C   0  0  0  0  0  0  0  0  0  0  0  0
   57.7510   33.1180   44.0790 C   0  0  0  0  0  0  0  0  0  0  0  0
   58.0350   33.0420   45.4500 C   0  0  0  0  0  0  0  0  0  0  0  0
   57.6330   34.2280   46.2910 C   0  0  0  0  0  0  0  0  0  0  0  0
   58.6190   31.8490   45.9870 C   0  0  0  0  0  0  0  0  0  0  0  0
   63.3104   33.6297   50.6822 H   0  0  0  0  0  0  0  0  0  0  0  0
   63.0412   34.8561   49.3976 H   0  0  0  0  0  0  0  0  0  0  0  0
   62.0907   33.3319   49.3976 H   0  0  0  0  0  0  0  0  0  0  0  0
   64.9670   33.8268   48.6079 H   0  0  0  0  0  0  0  0  0  0  0  0
   64.4563   32.2000   49.2914 H   0  0  0  0  0  0  0  0  0  0  0  0
   64.5550   32.4550   46.8850 H   0  0  0  0  0  0  0  0  0  0  0  0
   62.7491   31.1436   48.5551 H   0  0  0  0  0  0  0  0  0  0  0  0
   61.9378   31.5387   47.0019 H   0  0  0  0  0  0  0  0  0  0  0  0
   63.4690   30.5995   47.0019 H   0  0  0  0  0  0  0  0  0  0  0  0
   63.0137   34.6571   47.2955 H   0  0  0  0  0  0  0  0  0  0  0  0
   63.3744   33.8130   45.7056 H   0  0  0  0  0  0  0  0  0  0  0  0
   61.1341   33.8579   45.5256 H   0  0  0  0  0  0  0  0  0  0  0  0
   61.3388   32.3354   46.5608 H   0  0  0  0  0  0  0  0  0  0  0  0
   61.0409   34.3261   48.4196 H   0  0  0  0  0  0  0  0  0  0  0  0
   59.8828   34.7898   47.0876 H   0  0  0  0  0  0  0  0  0  0  0  0
   59.2610   32.9810   49.0450 H   0  0  0  0  0  0  0  0  0  0  0  0
   59.9459   31.2782   49.8160 H   0  0  0  0  0  0  0  0  0  0  0  0
   60.8349   29.1236   50.6778 H   0  0  0  0  0  0  0  0  0  0  0  0
   61.0332   27.1613   49.1608 H   0  0  0  0  0  0  0  0  0  0  0  0
   60.2363   27.3121   46.8123 H   0  0  0  0  0  0  0  0  0  0  0  0
   58.6739   27.3846   45.6071 H   0  0  0  0  0  0  0  0  0  0  0  0
   57.9395   28.3499   44.2822 H   0  0  0  0  0  0  0  0  0  0  0  0
   59.7057   28.0223   44.2822 H   0  0  0  0  0  0  0  0  0  0  0  0
   58.5960   29.9713   43.1069 H   0  0  0  0  0  0  0  0  0  0  0  0
   56.7671   32.6740   41.5888 H   0  0  0  0  0  0  0  0  0  0  0  0
   58.5401   32.7376   41.3077 H   0  0  0  0  0  0  0  0  0  0  0  0
   57.6869   31.1569   41.3077 H   0  0  0  0  0  0  0  0  0  0  0  0
   57.3547   34.0547   43.6600 H   0  0  0  0  0  0  0  0  0  0  0  0
   57.7209   33.9687   47.3564 H   0  0  0  0  0  0  0  0  0  0  0  0
   58.2931   35.0784   46.0649 H   0  0  0  0  0  0  0  0  0  0  0  0
   56.5919   34.5018   46.0649 H   0  0  0  0  0  0  0  0  0  0  0  0
  1  2  1  0
  2  3  1  0
  3  4  1  0
  3  5  1  0
  5  6  1  0
  6  7  1  0
  7  8  1  0
  8  9  1  0
  9 10  2  0
 10 11  1  0
 11 12  2  0
 12 13  1  0
 13 14  2  0
 14 15  1  0
 15 16  2  0
 16 17  1  0
 16 18  1  0
 18 19  2  0
 19 20  1  0
 20 21  1  0
 20 22  2  0
 22 23  1  0
 23 24  1  0
 23 25  2  0
 25  9  1  0
 15 10  1  0
 25 18  1  0
  1 26  1  0
  1 27  1  0
  1 28  1  0
  2 29  1  0
  2 30  1  0
  3 31  1  6
  4 32  1  0
  4 33  1  0
  4 34  1  0
  5 35  1  0
  5 36  1  0
  6 37  1  0
  6 38  1  0
  7 39  1  0
  7 40  1  0
  8 41  1  0
 11 42  1  0
 12 43  1  0
 13 44  1  0
 14 45  1  0
 17 46  1  0
 17 47  1  0
 17 48  1  0
 19 49  1  0
 21 50  1  0
 21 51  1  0
 21 52  1  0
 22 53  1  0
 24 54  1  0
 24 55  1  0
 24 56  1  0
M  CHG  2   3   1  16   1
M  END
>  <UniqueID>  (22) 
21

>  <SMILES>  (22) 
CC[N@@H+](C)CCCNc1c2ccccc2[n+](C)c2cc(C)cc(C)c12

>  <Energy>  (22) 
91.76247699193647

>  <Genealogy>  (22) 
CC[NH+](C)CCCNc1c2ccccc2[n+](C)c2cc(C)cc(C)c12 (protonated)
CC[N@@H+](C)CCCNc1c2ccccc2[n+](C)c2cc(C)cc(C)c12 (chirality)
CC[N@@H+](C)CCCNc1c2ccccc2[n+](C)c2cc(C)cc(C)c12 (3D coordinates assigned)
CC[N@@H+](C)CCCNc1c2ccccc2[n+](C)c2cc(C)cc(C)c12 (optimized conformer: 91.76247699193647 kcal/mol)

>  <smiles>  (22) 
CCN(C)CCCNc1c2ccccc2[n+](C)c2cc(C)cc(C)c12

>  <score_type>  (22) 
oracle

>  <origin>  (22) 
adg

>  <m_score__min__energy>  (22) 
-4.9800000000000004

>  <m_primary>  (22) 
energy

$$$$
22:0
     RDKit          3D

 43 43  0  0  0  0  0  0  0  0999 V2000
   59.7076   34.8495   44.8890 H   0  0  0  0  0  0  0  0  0  0  0  0
   59.6210   34.4470   45.9090 C   0  0  0  0  0  0  0  0  0  0  0  0
   60.6910   34.5660   46.7980 C   0  0  0  0  0  0  0  0  0  0  0  0
   61.6168   35.0640   46.4743 H   0  0  0  0  0  0  0  0  0  0  0  0
   60.5940   34.0540   48.1040 C   0  0  0  0  0  0  0  0  0  0  0  0
   61.7460   34.2350   49.0650 C   0  0  0  0  0  0  0  0  0  0  0  0
   61.3475   34.3465   50.0842 H   0  0  0  0  0  0  0  0  0  0  0  0
   62.3088   35.1313   48.7653 H   0  0  0  0  0  0  0  0  0  0  0  0
   62.6570   33.0860   49.0320 N   0  0  0  0  0  0  0  0  0  0  0  0
   63.4210   33.0730   49.7450 H   0  0  0  0  0  0  0  0  0  0  0  0
   62.8530   32.2700   47.8640 C   0  0  0  0  0  0  0  0  0  0  0  0
   64.1260   32.3060   47.2140 N   0  0  0  0  0  0  0  0  0  0  0  0
   64.8800   32.9330   47.5720 H   0  0  0  0  0  0  0  0  0  0  0  0
   64.3200   31.7190   46.3720 H   0  0  0  0  0  0  0  0  0  0  0  0
   61.9230   31.4700   47.4160 N   0  0  0  0  0  0  0  0  0  0  0  0
   61.7000   31.5040   46.3950 H   0  0  0  0  0  0  0  0  0  0  0  0
   61.2340   30.4740   48.2440 C   0  0  0  0  0  0  0  0  0  0  0  0
   60.8278   30.9699   49.1379 H   0  0  0  0  0  0  0  0  0  0  0  0
   61.9582   29.6958   48.5268 H   0  0  0  0  0  0  0  0  0  0  0  0
   60.0840   29.8100   47.4740 C   0  0  0  0  0  0  0  0  0  0  0  0
   59.1252   30.1753   47.8705 H   0  0  0  0  0  0  0  0  0  0  0  0
   60.1571   28.7195   47.5988 H   0  0  0  0  0  0  0  0  0  0  0  0
   60.1680   30.1320   46.0300 N   0  0  0  0  0  0  0  0  0  0  0  0
   58.8930   30.6930   45.5260 C   0  0  0  0  0  0  0  0  0  0  0  0
   59.0874   31.6611   45.0412 H   0  0  0  0  0  0  0  0  0  0  0  0
   58.2006   30.8304   46.3696 H   0  0  0  0  0  0  0  0  0  0  0  0
   58.2660   29.7380   44.5140 C   0  0  0  0  0  0  0  0  0  0  0  0
   57.7379   28.9337   45.0472 H   0  0  0  0  0  0  0  0  0  0  0  0
   57.5533   30.2889   43.8827 H   0  0  0  0  0  0  0  0  0  0  0  0
   59.0549   29.3031   43.8827 H   0  0  0  0  0  0  0  0  0  0  0  0
   60.5820   28.9500   45.2390 C   0  0  0  0  0  0  0  0  0  0  0  0
   59.9718   28.8929   44.3255 H   0  0  0  0  0  0  0  0  0  0  0  0
   61.6455   29.0501   44.9763 H   0  0  0  0  0  0  0  0  0  0  0  0
   60.3900   27.6740   46.0530 C   0  0  0  0  0  0  0  0  0  0  0  0
   60.4262   27.9145   47.1258 H   0  0  0  0  0  0  0  0  0  0  0  0
   59.4145   27.2274   45.8101 H   0  0  0  0  0  0  0  0  0  0  0  0
   61.1908   26.9601   45.8101 H   0  0  0  0  0  0  0  0  0  0  0  0
   59.3970   33.4190   48.5070 C   0  0  0  0  0  0  0  0  0  0  0  0
   59.1990   32.7610   50.1270 Cl  0  0  0  0  0  0  0  0  0  0  0  0
   58.3310   33.3050   47.6060 C   0  0  0  0  0  0  0  0  0  0  0  0
   57.4011   32.8081   47.9197 H   0  0  0  0  0  0  0  0  0  0  0  0
   58.4410   33.8180   46.3120 C   0  0  0  0  0  0  0  0  0  0  0  0
   57.0980   33.6740   45.1920 Cl  0  0  0  0  0  0  0  0  0  0  0  0
  1  2  1  0
  2  3  2  0
  3  4  1  0
  3  5  1  0
  5  6  1  0
  6  7  1  0
  6  8  1  0
  6  9  1  0
  9 10  1  0
  9 11  1  0
 11 12  1  0
 12 13  1  0
 12 14  1  0
 11 15  2  0
 15 16  1  0
 15 17  1  0
 17 18  1  0
 17 19  1  0
 17 20  1  0
 20 21  1  0
 20 22  1  0
 20 23  1  0
 23 24  1  0
 24 25  1  0
 24 26  1  0
 24 27  1  0
 27 28  1  0
 27 29  1  0
 27 30  1  0
 23 31  1  0
 31 32  1  0
 31 33  1  0
 31 34  1  0
 34 35  1  0
 34 36  1  0
 34 37  1  0
  5 38  2  0
 38 39  1  0
 38 40  1  0
 40 41  1  0
 40 42  2  0
 42 43  1  0
 42  2  1  0
M  CHG  1  15   1
M  END
>  <UniqueID>  (23) 
22

>  <SMILES>  (23) 
CCN(CC)CC/[NH+]=C(/N)NCc1ccc(Cl)cc1Cl

>  <Energy>  (23) 
39.45064739232155

>  <Genealogy>  (23) 
CCN(CC)CC[NH+]=C(N)NCc1ccc(Cl)cc1Cl (protonated)
CCN(CC)CC/[NH+]=C(/N)NCc1ccc(Cl)cc1Cl (cis-trans isomerization)
CCN(CC)CC/[NH+]=C(/N)NCc1ccc(Cl)cc1Cl (3D coordinates assigned)
CCN(CC)CC/[NH+]=C(/N)NCc1ccc(Cl)cc1Cl (optimized conformer: 39.45064739232155 kcal/mol)

>  <smiles>  (23) 
CCN(CC)CCN=C(N)NCc1ccc(Cl)cc1Cl

>  <score_type>  (23) 
oracle

>  <origin>  (23) 
adg

>  <m_score__min__energy>  (23) 
-4.71

>  <m_primary>  (23) 
energy

$$$$
23:0
     RDKit          3D

 29 29  0  0  0  0  0  0  0  0999 V2000
   63.1110   33.5880   46.7630 C   0  0  0  0  0  0  0  0  0  0  0  0
   61.8320   33.8110   47.0820 C   0  0  0  0  0  0  0  0  0  0  0  0
   60.7520   33.8940   46.0370 C   0  0  0  0  0  0  0  0  0  0  0  0
   59.6080   34.8480   46.4270 C   0  0  0  0  0  0  0  0  0  0  0  0
   58.2080   34.2100   46.3380 C   0  0  0  0  0  0  0  0  0  0  0  0
   58.1650   33.0110   45.4140 C   0  0  0  0  0  0  0  0  0  0  0  0
   57.9090   33.2100   44.0500 C   0  0  0  0  0  0  0  0  0  0  0  0
   57.8900   32.1200   43.1740 C   0  0  0  0  0  0  0  0  0  0  0  0
   57.6700   32.3430   41.7070 C   0  0  0  0  0  0  0  0  0  0  0  0
   58.1450   30.8660   43.6450 N   0  0  0  0  0  0  0  0  0  0  0  0
   58.3890   30.6340   44.9650 C   0  0  0  0  0  0  0  0  0  0  0  0
   58.6060   29.4540   45.3570 O   0  0  0  0  0  0  0  0  0  0  0  0
   58.4010   31.7000   45.8820 C   0  0  0  0  0  0  0  0  0  0  0  0
   58.6510   31.4370   47.2830 C   0  0  0  0  0  0  0  0  0  0  0  0
   58.8500   31.2280   48.4030 N   0  0  0  0  0  0  0  0  0  0  0  0
   63.8737   33.5336   47.5538 H   0  0  0  0  0  0  0  0  0  0  0  0
   63.4007   33.4589   45.7097 H   0  0  0  0  0  0  0  0  0  0  0  0
   61.5607   33.9377   48.1405 H   0  0  0  0  0  0  0  0  0  0  0  0
   61.2001   34.2500   45.0976 H   0  0  0  0  0  0  0  0  0  0  0  0
   60.3194   32.8882   45.9310 H   0  0  0  0  0  0  0  0  0  0  0  0
   59.7721   35.1811   47.4624 H   0  0  0  0  0  0  0  0  0  0  0  0
   59.6266   35.6808   45.7087 H   0  0  0  0  0  0  0  0  0  0  0  0
   57.9042   33.8882   47.3450 H   0  0  0  0  0  0  0  0  0  0  0  0
   57.5250   34.9682   45.9273 H   0  0  0  0  0  0  0  0  0  0  0  0
   57.7229   34.2247   43.6684 H   0  0  0  0  0  0  0  0  0  0  0  0
   56.9039   33.1195   41.5650 H   0  0  0  0  0  0  0  0  0  0  0  0
   58.6117   32.6673   41.2401 H   0  0  0  0  0  0  0  0  0  0  0  0
   57.3330   31.4057   41.2401 H   0  0  0  0  0  0  0  0  0  0  0  0
   58.1540   30.0590   42.9810 H   0  0  0  0  0  0  0  0  0  0  0  0
  1  2  2  0
  2  3  1  0
  3  4  1  0
  4  5  1  0
  5  6  1  0
  6  7  1  0
  7  8  2  0
  8  9  1  0
  8 10  1  0
 10 11  1  0
 11 12  2  0
 11 13  1  0
 13 14  1  0
 14 15  3  0
 13  6  2  0
  1 16  1  0
  1 17  1  0
  2 18  1  0
  3 19  1  0
  3 20  1  0
  4 21  1  0
  4 22  1  0
  5 23  1  0
  5 24  1  0
  7 25  1  0
  9 26  1  0
  9 27  1  0
  9 28  1  0
 10 29  1  0
M  END
>  <UniqueID>  (24) 
23

>  <SMILES>  (24) 
C=CCCCc1cc(C)[nH]c(=O)c1C#N

>  <Energy>  (24) 
21.210118860275678

>  <Genealogy>  (24) 
C=CCCCc1cc(C)[nH]c(=O)c1C#N (3D coordinates assigned)
C=CCCCc1cc(C)[nH]c(=O)c1C#N (optimized conformer: 21.210118860275678 kcal/mol)

>  <smiles>  (24) 
C=CCCCc1cc(C)[nH]c(=O)c1C#N

>  <score_type>  (24) 
oracle

>  <origin>  (24) 
adg

>  <m_score__min__energy>  (24) 
-5.6299999999999999

>  <m_primary>  (24) 
energy

$$$$
24:0
     RDKit          3D

 78 81  0  0  0  0  0  0  0  0999 V2000
   63.3820   34.1990   46.3670 C   0  0  0  0  0  0  0  0  0  0  0  0
   62.4690   33.1180   46.9660 C   0  0  0  0  0  0  0  0  0  0  0  0
   63.1800   32.1350   47.8240 N   0  0  0  0  0  0  0  0  0  0  0  0
   64.1510   32.7900   48.7310 C   0  0  0  0  0  0  0  0  0  0  0  0
   64.3210   31.9750   50.0100 C   0  0  0  0  0  0  0  0  0  0  0  0
   62.2790   31.2170   48.5640 C   0  0  0  0  0  0  0  0  0  0  0  0
   61.3370   30.4460   47.6220 C   0  0  0  0  0  0  0  0  0  0  0  0
   60.3330   29.5620   48.3830 C   0  0  0  0  0  0  0  0  0  0  0  0
   58.9420   29.9300   48.0900 N   0  0  0  0  0  0  0  0  0  0  0  0
   58.5890   30.9890   47.1830 C   0  0  0  0  0  0  0  0  0  0  0  0
   58.0530   30.6980   45.9150 C   0  0  0  0  0  0  0  0  0  0  0  0
   57.7200   29.3740   45.5590 C   0  0  0  0  0  0  0  0  0  0  0  0
   57.2730   29.0740   44.2750 C   0  0  0  0  0  0  0  0  0  0  0  0
   57.1510   30.0820   43.3280 C   0  0  0  0  0  0  0  0  0  0  0  0
   57.4300   31.4050   43.6700 C   0  0  0  0  0  0  0  0  0  0  0  0
   57.8350   31.7520   44.9880 C   0  0  0  0  0  0  0  0  0  0  0  0
   58.0290   33.0690   45.3690 N   0  0  0  0  0  0  0  0  0  0  0  0
   57.5600   34.1700   44.4980 C   0  0  0  0  0  0  0  0  0  0  0  0
   58.6280   33.3580   46.5820 C   0  0  0  0  0  0  0  0  0  0  0  0
   59.0540   34.6710   46.9140 C   0  0  0  0  0  0  0  0  0  0  0  0
   59.6290   34.9560   48.1530 C   0  0  0  0  0  0  0  0  0  0  0  0
   59.8020   33.9400   49.1000 C   0  0  0  0  0  0  0  0  0  0  0  0
   60.3690   34.1690   50.3590 O   0  0  0  0  0  0  0  0  0  0  0  0
   61.2500   33.2770   51.0370 C   0  0  0  0  0  0  0  0  0  0  0  0
   60.4230   32.1810   51.7350 C   0  0  0  0  0  0  0  0  0  0  0  0
   59.3880   32.6520   52.7300 N   0  0  0  0  0  0  0  0  0  0  0  0
   59.9430   33.8480   53.4240 C   0  0  0  0  0  0  0  0  0  0  0  0
   59.0020   31.6480   53.7840 C   0  0  0  0  0  0  0  0  0  0  0  0
   57.8690   30.6690   53.3940 C   0  0  0  0  0  0  0  0  0  0  0  0
   57.6450   30.5690   51.8930 C   0  0  0  0  0  0  0  0  0  0  0  0
   57.4220   31.9520   51.2640 C   0  0  0  0  0  0  0  0  0  0  0  0
   58.1650   33.0970   51.9970 C   0  0  0  0  0  0  0  0  0  0  0  0
   59.4120   32.6410   48.7850 C   0  0  0  0  0  0  0  0  0  0  0  0
   58.8640   32.3250   47.5260 C   0  0  0  0  0  0  0  0  0  0  0  0
   63.8607   34.7658   47.1791 H   0  0  0  0  0  0  0  0  0  0  0  0
   64.1556   33.7230   45.7465 H   0  0  0  0  0  0  0  0  0  0  0  0
   62.7833   34.8821   45.7465 H   0  0  0  0  0  0  0  0  0  0  0  0
   61.6981   33.6141   47.5739 H   0  0  0  0  0  0  0  0  0  0  0  0
   62.0447   32.5554   46.1213 H   0  0  0  0  0  0  0  0  0  0  0  0
   65.1229   32.8724   48.2224 H   0  0  0  0  0  0  0  0  0  0  0  0
   63.7745   33.7897   48.9934 H   0  0  0  0  0  0  0  0  0  0  0  0
   64.1844   32.6300   50.8831 H   0  0  0  0  0  0  0  0  0  0  0  0
   63.5714   31.1704   50.0344 H   0  0  0  0  0  0  0  0  0  0  0  0
   65.3298   31.5371   50.0344 H   0  0  0  0  0  0  0  0  0  0  0  0
   62.8909   30.4940   49.1234 H   0  0  0  0  0  0  0  0  0  0  0  0
   61.6592   31.8234   49.2408 H   0  0  0  0  0  0  0  0  0  0  0  0
   60.7771   31.1709   47.0128 H   0  0  0  0  0  0  0  0  0  0  0  0
   61.9570   29.7852   46.9983 H   0  0  0  0  0  0  0  0  0  0  0  0
   60.4916   28.5132   48.0917 H   0  0  0  0  0  0  0  0  0  0  0  0
   60.5024   29.7063   49.4603 H   0  0  0  0  0  0  0  0  0  0  0  0
   58.1740   29.4190   48.5820 H   0  0  0  0  0  0  0  0  0  0  0  0
   57.8146   28.5701   46.3039 H   0  0  0  0  0  0  0  0  0  0  0  0
   57.0163   28.0376   44.0106 H   0  0  0  0  0  0  0  0  0  0  0  0
   56.8331   29.8362   42.3040 H   0  0  0  0  0  0  0  0  0  0  0  0
   57.3352   32.1926   42.9079 H   0  0  0  0  0  0  0  0  0  0  0  0
   57.2046   35.0042   45.1208 H   0  0  0  0  0  0  0  0  0  0  0  0
   58.3897   34.5140   43.8630 H   0  0  0  0  0  0  0  0  0  0  0  0
   56.7371   33.8100   43.8630 H   0  0  0  0  0  0  0  0  0  0  0  0
   58.9282   35.4801   46.1795 H   0  0  0  0  0  0  0  0  0  0  0  0
   59.9474   35.9827   48.3863 H   0  0  0  0  0  0  0  0  0  0  0  0
   61.9354   32.8147   50.3114 H   0  0  0  0  0  0  0  0  0  0  0  0
   61.8339   33.8324   51.7857 H   0  0  0  0  0  0  0  0  0  0  0  0
   59.9008   31.6078   50.9548 H   0  0  0  0  0  0  0  0  0  0  0  0
   61.1476   31.5968   52.3213 H   0  0  0  0  0  0  0  0  0  0  0  0
   59.8762   33.7041   54.5125 H   0  0  0  0  0  0  0  0  0  0  0  0
   60.9959   33.9833   53.1359 H   0  0  0  0  0  0  0  0  0  0  0  0
   59.3665   34.7395   53.1359 H   0  0  0  0  0  0  0  0  0  0  0  0
   59.8945   31.0527   54.0269 H   0  0  0  0  0  0  0  0  0  0  0  0
   58.6139   32.2347   54.6297 H   0  0  0  0  0  0  0  0  0  0  0  0
   58.1255   29.6696   53.7753 H   0  0  0  0  0  0  0  0  0  0  0  0
   56.9392   31.0572   53.8352 H   0  0  0  0  0  0  0  0  0  0  0  0
   58.5278   30.1039   51.4300 H   0  0  0  0  0  0  0  0  0  0  0  0
   56.7451   29.9611   51.7181 H   0  0  0  0  0  0  0  0  0  0  0  0
   57.7741   31.9205   50.2223 H   0  0  0  0  0  0  0  0  0  0  0  0
   56.3460   32.1686   51.3372 H   0  0  0  0  0  0  0  0  0  0  0  0
   58.4622   33.8499   51.2521 H   0  0  0  0  0  0  0  0  0  0  0  0
   57.4701   33.4990   52.7490 H   0  0  0  0  0  0  0  0  0  0  0  0
   59.5342   31.8451   49.5344 H   0  0  0  0  0  0  0  0  0  0  0  0
  1  2  1  0
  2  3  1  0
  3  4  1  0
  4  5  1  0
  3  6  1  0
  6  7  1  0
  7  8  1  0
  8  9  1  0
  9 10  1  0
 10 11  2  0
 11 12  1  0
 12 13  2  0
 13 14  1  0
 14 15  2  0
 15 16  1  0
 16 17  2  0
 17 18  1  0
 17 19  1  0
 19 20  2  0
 20 21  1  0
 21 22  2  0
 22 23  1  0
 23 24  1  0
 24 25  1  0
 25 26  1  0
 26 27  1  0
 26 28  1  0
 28 29  1  0
 29 30  1  0
 30 31  1  0
 31 32  1  0
 22 33  1  0
 33 34  2  0
 34 10  1  0
 16 11  1  0
 34 19  1  0
 32 26  1  0
  1 35  1  0
  1 36  1  0
  1 37  1  0
  2 38  1  0
  2 39  1  0
  4 40  1  0
  4 41  1  0
  5 42  1  0
  5 43  1  0
  5 44  1  0
  6 45  1  0
  6 46  1  0
  7 47  1  0
  7 48  1  0
  8 49  1  0
  8 50  1  0
  9 51  1  0
 12 52  1  0
 13 53  1  0
 14 54  1  0
 15 55  1  0
 18 56  1  0
 18 57  1  0
 18 58  1  0
 20 59  1  0
 21 60  1  0
 24 61  1  0
 24 62  1  0
 25 63  1  0
 25 64  1  0
 27 65  1  0
 27 66  1  0
 27 67  1  0
 28 68  1  0
 28 69  1  0
 29 70  1  0
 29 71  1  0
 30 72  1  0
 30 73  1  0
 31 74  1  0
 31 75  1  0
 32 76  1  0
 32 77  1  0
 33 78  1  0
M  CHG  2  17   1  26   1
M  END
>  <UniqueID>  (25) 
24

>  <SMILES>  (25) 
CCN(CC)CCCNc1c2ccccc2[n+](C)c2ccc(OCC[N+]3(C)CCCCC3)cc12

>  <Energy>  (25) 
120.95534567428689

>  <Genealogy>  (25) 
CCN(CC)CCCNc1c2ccccc2[n+](C)c2ccc(OCC[N+]3(C)CCCCC3)cc12 (3D coordinates assigned)
CCN(CC)CCCNc1c2ccccc2[n+](C)c2ccc(OCC[N+]3(C)CCCCC3)cc12 (nonaromatic ring conformer: 120.95534567428689 kcal/mol)

>  <smiles>  (25) 
CCN(CC)CCCNc1c2ccccc2[n+](C)c2ccc(OCC[N+]3(C)CCCCC3)cc12

>  <score_type>  (25) 
oracle

>  <origin>  (25) 
adg

>  <m_score__min__energy>  (25) 
-5.1900000000000004

>  <m_primary>  (25) 
energy

$$$$
25:0
     RDKit          3D

 52 54  0  0  0  0  0  0  0  0999 V2000
   58.7199   33.5901   47.5522 H   0  0  0  0  0  0  0  0  0  0  0  0
   59.3420   33.1940   46.7360 C   0  0  0  0  0  0  0  0  0  0  0  0
   60.1900   32.1850   47.0300 C   0  0  0  0  0  0  0  0  0  0  0  0
   61.5730   32.4380   47.4920 C   0  0  0  0  0  0  0  0  0  0  0  0
   62.1380   31.6880   48.5350 C   0  0  0  0  0  0  0  0  0  0  0  0
   61.5582   30.8810   49.0068 H   0  0  0  0  0  0  0  0  0  0  0  0
   63.4000   31.9560   48.9640 N   0  0  0  0  0  0  0  0  0  0  0  0
   64.1460   32.9500   48.4130 C   0  0  0  0  0  0  0  0  0  0  0  0
   65.1676   33.1359   48.7760 H   0  0  0  0  0  0  0  0  0  0  0  0
   63.6170   33.7350   47.3870 C   0  0  0  0  0  0  0  0  0  0  0  0
   64.2144   34.5446   46.9424 H   0  0  0  0  0  0  0  0  0  0  0  0
   62.3220   33.4820   46.9310 C   0  0  0  0  0  0  0  0  0  0  0  0
   61.8894   34.1016   46.1317 H   0  0  0  0  0  0  0  0  0  0  0  0
   59.7360   30.7750   46.9090 C   0  0  0  0  0  0  0  0  0  0  0  0
   59.2770   30.0560   48.0470 C   0  0  0  0  0  0  0  0  0  0  0  0
   59.2424   30.5557   49.0264 H   0  0  0  0  0  0  0  0  0  0  0  0
   58.8670   28.7160   47.9380 C   0  0  0  0  0  0  0  0  0  0  0  0
   58.5086   28.1603   48.8170 H   0  0  0  0  0  0  0  0  0  0  0  0
   58.9280   28.1110   46.6810 C   0  0  0  0  0  0  0  0  0  0  0  0
   59.3800   28.7950   45.5830 C   0  0  0  0  0  0  0  0  0  0  0  0
   59.7950   30.1210   45.6560 C   0  0  0  0  0  0  0  0  0  0  0  0
   60.1598   30.6476   44.7618 H   0  0  0  0  0  0  0  0  0  0  0  0
   59.3450   27.9290   44.5090 C   0  0  0  0  0  0  0  0  0  0  0  0
   59.6357   28.1423   43.4698 H   0  0  0  0  0  0  0  0  0  0  0  0
   58.8640   26.7300   45.0210 C   0  0  0  0  0  0  0  0  0  0  0  0
   58.7165   25.8125   44.4325 H   0  0  0  0  0  0  0  0  0  0  0  0
   58.6020   26.8470   46.3440 N   0  0  0  0  0  0  0  0  0  0  0  0
   58.1480   25.7720   47.2280 C   0  0  0  0  0  0  0  0  0  0  0  0
   58.0708   26.1556   48.2560 H   0  0  0  0  0  0  0  0  0  0  0  0
   58.8727   24.9454   47.1880 H   0  0  0  0  0  0  0  0  0  0  0  0
   56.7850   25.2590   46.7790 C   0  0  0  0  0  0  0  0  0  0  0  0
   56.1711   25.0279   47.6620 H   0  0  0  0  0  0  0  0  0  0  0  0
   56.2837   26.0300   46.1754 H   0  0  0  0  0  0  0  0  0  0  0  0
   56.9164   24.3488   46.1754 H   0  0  0  0  0  0  0  0  0  0  0  0
   59.1840   33.8190   45.3710 C   0  0  0  0  0  0  0  0  0  0  0  0
   59.5768   34.8458   45.4090 H   0  0  0  0  0  0  0  0  0  0  0  0
   59.7379   33.1909   44.6577 H   0  0  0  0  0  0  0  0  0  0  0  0
   57.7210   33.8720   44.8940 C   0  0  0  0  0  0  0  0  0  0  0  0
   57.1563   34.5103   45.5894 H   0  0  0  0  0  0  0  0  0  0  0  0
   57.7419   34.2659   43.8671 H   0  0  0  0  0  0  0  0  0  0  0  0
   57.0190   32.5000   44.8220 C   0  0  0  0  0  0  0  0  0  0  0  0
   57.1264   32.0091   45.8005 H   0  0  0  0  0  0  0  0  0  0  0  0
   55.9725   32.7019   44.5498 H   0  0  0  0  0  0  0  0  0  0  0  0
   57.5700   31.5480   43.7460 C   0  0  0  0  0  0  0  0  0  0  0  0
   57.8645   32.1423   42.8685 H   0  0  0  0  0  0  0  0  0  0  0  0
   58.4264   31.0141   44.1836 H   0  0  0  0  0  0  0  0  0  0  0  0
   56.5460   30.4940   43.3030 C   0  0  0  0  0  0  0  0  0  0  0  0
   55.7487   30.9831   42.7241 H   0  0  0  0  0  0  0  0  0  0  0  0
   57.0530   29.7402   42.6827 H   0  0  0  0  0  0  0  0  0  0  0  0
   55.9470   29.8200   44.4970 C   0  0  0  0  0  0  0  0  0  0  0  0
   54.7950   29.3140   44.4270 O   0  0  0  0  0  0  0  0  0  0  0  0
   56.6810   29.7010   45.6700 O   0  0  0  0  0  0  0  0  0  0  0  0
  1  2  1  0
  2  3  2  0
  3  4  1  0
  4  5  2  0
  5  6  1  0
  5  7  1  0
  7  8  2  0
  8  9  1  0
  8 10  1  0
 10 11  1  0
 10 12  2  0
 12 13  1  0
  3 14  1  0
 14 15  2  0
 15 16  1  0
 15 17  1  0
 17 18  1  0
 17 19  2  0
 19 20  1  0
 20 21  2  0
 21 22  1  0
 20 23  1  0
 23 24  1  0
 23 25  2  0
 25 26  1  0
 25 27  1  0
 27 28  1  0
 28 29  1  0
 28 30  1  0
 28 31  1  0
 31 32  1  0
 31 33  1  0
 31 34  1  0
  2 35  1  0
 35 36  1  0
 35 37  1  0
 35 38  1  0
 38 39  1  0
 38 40  1  0
 38 41  1  0
 41 42  1  0
 41 43  1  0
 41 44  1  0
 44 45  1  0
 44 46  1  0
 44 47  1  0
 47 48  1  0
 47 49  1  0
 47 50  1  0
 50 51  2  0
 50 52  1  0
 12  4  1  0
 21 14  1  0
 27 19  1  0
M  CHG  1  52  -1
M  END
>  <UniqueID>  (26) 
25

>  <SMILES>  (26) 
CCn1ccc2cc(/C(=C/CCCCCC(=O)[O-])c3cccnc3)ccc21

>  <Energy>  (26) 
86.82242374809547

>  <Genealogy>  (26) 
CCn1ccc2cc(C(=CCCCCCC(=O)[O-])c3cccnc3)ccc21 (protonated)
CCn1ccc2cc(/C(=C/CCCCCC(=O)[O-])c3cccnc3)ccc21 (cis-trans isomerization)
CCn1ccc2cc(/C(=C/CCCCCC(=O)[O-])c3cccnc3)ccc21 (3D coordinates assigned)
CCn1ccc2cc(/C(=C/CCCCCC(=O)[O-])c3cccnc3)ccc21 (optimized conformer: 86.82242374809547 kcal/mol)

>  <smiles>  (26) 
CCn1ccc2cc(C(=CCCCCCC(=O)O)c3cccnc3)ccc21

>  <score_type>  (26) 
oracle

>  <origin>  (26) 
adg

>  <m_score__min__energy>  (26) 
-11.49

>  <m_primary>  (26) 
energy

$$$$
26:0
     RDKit          3D

 45 47  0  0  0  0  0  0  0  0999 V2000
   59.3640   35.3370   46.7150 C   0  0  0  0  0  0  0  0  0  0  0  0
   59.2220   34.1110   46.2200 C   0  0  0  0  0  0  0  0  0  0  0  0
   59.9280   32.9920   46.7390 N   0  0  0  0  0  0  0  0  0  0  0  0
   59.5370   31.8080   46.0590 C   0  0  0  0  0  0  0  0  0  0  0  0
   60.0070   30.5330   46.3680 C   0  0  0  0  0  0  0  0  0  0  0  0
   61.0350   30.3600   47.3580 N   0  0  0  0  0  0  0  0  0  0  0  0
   60.8400   30.7560   48.7540 C   0  0  0  0  0  0  0  0  0  0  0  0
   62.0070   31.6470   49.2460 C   0  0  0  0  0  0  0  0  0  0  0  0
   62.2520   32.8500   48.4160 N   0  0  0  0  0  0  0  0  0  0  0  0
   62.3060   34.0910   49.2050 C   0  0  0  0  0  0  0  0  0  0  0  0
   63.4060   32.7080   47.5000 C   0  0  0  0  0  0  0  0  0  0  0  0
   63.3960   33.8400   46.4780 C   0  0  0  0  0  0  0  0  0  0  0  0
   59.4320   29.4280   45.7030 C   0  0  0  0  0  0  0  0  0  0  0  0
   59.8470   28.1110   45.9890 C   0  0  0  0  0  0  0  0  0  0  0  0
   59.2770   27.0260   45.3280 C   0  0  0  0  0  0  0  0  0  0  0  0
   58.2870   27.2310   44.3730 C   0  0  0  0  0  0  0  0  0  0  0  0
   57.8640   28.5220   44.0630 C   0  0  0  0  0  0  0  0  0  0  0  0
   58.4280   29.6510   44.7090 C   0  0  0  0  0  0  0  0  0  0  0  0
   58.0300   30.9410   44.3960 N   0  0  0  0  0  0  0  0  0  0  0  0
   57.0180   31.1800   43.3480 C   0  0  0  0  0  0  0  0  0  0  0  0
   58.5750   31.9990   45.0810 C   0  0  0  0  0  0  0  0  0  0  0  0
   58.1030   33.7330   44.8740 S   0  0  0  0  0  0  0  0  0  0  0  0
   58.7971   36.1742   46.2817 H   0  0  0  0  0  0  0  0  0  0  0  0
   60.0484   35.5140   47.5578 H   0  0  0  0  0  0  0  0  0  0  0  0
   60.5570   33.0300   47.5720 H   0  0  0  0  0  0  0  0  0  0  0  0
   62.0040   30.1240   47.0480 H   0  0  0  0  0  0  0  0  0  0  0  0
   59.8978   31.3170   48.8406 H   0  0  0  0  0  0  0  0  0  0  0  0
   60.8063   29.8483   49.3744 H   0  0  0  0  0  0  0  0  0  0  0  0
   61.7797   31.9766   50.2705 H   0  0  0  0  0  0  0  0  0  0  0  0
   62.9176   31.0330   49.1846 H   0  0  0  0  0  0  0  0  0  0  0  0
   62.2953   33.8447   50.2770 H   0  0  0  0  0  0  0  0  0  0  0  0
   63.2288   34.6389   48.9639 H   0  0  0  0  0  0  0  0  0  0  0  0
   61.4342   34.7170   48.9639 H   0  0  0  0  0  0  0  0  0  0  0  0
   64.3398   32.7478   48.0800 H   0  0  0  0  0  0  0  0  0  0  0  0
   63.3368   31.7438   46.9751 H   0  0  0  0  0  0  0  0  0  0  0  0
   63.3875   34.8071   47.0021 H   0  0  0  0  0  0  0  0  0  0  0  0
   64.2948   33.7726   45.8474 H   0  0  0  0  0  0  0  0  0  0  0  0
   62.4986   33.7568   45.8474 H   0  0  0  0  0  0  0  0  0  0  0  0
   60.6296   27.9389   46.7426 H   0  0  0  0  0  0  0  0  0  0  0  0
   59.6106   26.0042   45.5618 H   0  0  0  0  0  0  0  0  0  0  0  0
   57.8354   26.3693   43.8596 H   0  0  0  0  0  0  0  0  0  0  0  0
   57.0801   28.6675   43.3051 H   0  0  0  0  0  0  0  0  0  0  0  0
   56.0502   31.4086   43.8182 H   0  0  0  0  0  0  0  0  0  0  0  0
   57.3313   32.0289   42.7225 H   0  0  0  0  0  0  0  0  0  0  0  0
   56.9185   30.2807   42.7225 H   0  0  0  0  0  0  0  0  0  0  0  0
  1  2  2  0
  2  3  1  0
  3  4  1  0
  4  5  2  0
  5  6  1  0
  6  7  1  0
  7  8  1  0
  8  9  1  0
  9 10  1  0
  9 11  1  0
 11 12  1  0
  5 13  1  0
 13 14  2  0
 14 15  1  0
 15 16  2  0
 16 17  1  0
 17 18  2  0
 18 19  1  0
 19 20  1  0
 19 21  2  0
 21 22  1  0
 22  2  1  0
 21  4  1  0
 18 13  1  0
  1 23  1  0
  1 24  1  0
  3 25  1  0
  6 26  1  0
  7 27  1  0
  7 28  1  0
  8 29  1  0
  8 30  1  0
 10 31  1  0
 10 32  1  0
 10 33  1  0
 11 34  1  0
 11 35  1  0
 12 36  1  0
 12 37  1  0
 12 38  1  0
 14 39  1  0
 15 40  1  0
 16 41  1  0
 17 42  1  0
 20 43  1  0
 20 44  1  0
 20 45  1  0
M  CHG  1  19   1
M  END
>  <UniqueID>  (27) 
26

>  <SMILES>  (27) 
C=C1Nc2c(NCCN(C)CC)c3ccccc3[n+](C)c2S1

>  <Energy>  (27) 
83.26158956195918

>  <Genealogy>  (27) 
C=C1Nc2c(NCCN(C)CC)c3ccccc3[n+](C)c2S1 (3D coordinates assigned)
C=C1Nc2c(NCCN(C)CC)c3ccccc3[n+](C)c2S1 (nonaromatic ring conformer: 83.26158956195918 kcal/mol)

>  <smiles>  (27) 
C=C1Nc2c(NCCN(C)CC)c3ccccc3[n+](C)c2S1

>  <score_type>  (27) 
oracle

>  <origin>  (27) 
adg

>  <m_score__min__energy>  (27) 
-4.8499999999999996

>  <m_primary>  (27) 
energy

$$$$
