0:0
     RDKit          3D

 59 61  0  0  0  0  0  0  0  0999 V2000
   55.4680   24.0260   44.7710 C   0  0  0  0  0  0  0  0  0  0  0  0
   54.4680   24.8750   45.5680 C   0  0  0  0  0  0  0  0  0  0  0  0
   55.0870   26.0290   45.9740 O   0  0  0  0  0  0  0  0  0  0  0  0
   56.4630   25.9460   46.1300 C   0  0  0  0  0  0  0  0  0  0  0  0
   57.0400   27.3180   46.1740 C   0  0  0  0  0  0  0  0  0  0  0  0
   56.5300   28.1680   45.2040 O   0  0  0  0  0  0  0  0  0  0  0  0
   57.4310   29.0670   44.7110 C   0  0  0  0  0  0  0  0  0  0  0  0
   56.9400   30.4720   44.5640 C   0  0  0  0  0  0  0  0  0  0  0  0
   57.3330   31.3650   45.5170 O   0  0  0  0  0  0  0  0  0  0  0  0
   57.3060   32.6810   45.1720 C   0  0  0  0  0  0  0  0  0  0  0  0
   58.1120   33.5580   46.2130 C   0  0  0  0  0  0  0  0  0  0  0  0
   58.8400   32.7050   47.0710 N   0  0  0  0  0  0  0  0  0  0  0  0
   59.6990   32.8650   48.1610 C   0  0  0  0  0  0  0  0  0  0  0  0
   61.0350   33.2420   47.9200 C   0  0  0  0  0  0  0  0  0  0  0  0
   61.5110   33.4590   46.6480 C   0  0  0  0  0  0  0  0  0  0  0  0
   62.8350   33.8370   46.3840 C   0  0  0  0  0  0  0  0  0  0  0  0
   63.7170   34.0050   47.4150 C   0  0  0  0  0  0  0  0  0  0  0  0
   63.2410   33.7870   48.6920 C   0  0  0  0  0  0  0  0  0  0  0  0
   61.9300   33.4130   48.9550 C   0  0  0  0  0  0  0  0  0  0  0  0
   61.5660   33.2270   50.2510 N   0  0  0  0  0  0  0  0  0  0  0  0
   62.6000   33.4310   51.2360 C   0  0  0  0  0  0  0  0  0  0  0  0
   60.3100   32.8700   50.5220 C   0  0  0  0  0  0  0  0  0  0  0  0
   59.9390   32.6820   51.8430 C   0  0  0  0  0  0  0  0  0  0  0  0
   58.6500   32.3100   52.2050 C   0  0  0  0  0  0  0  0  0  0  0  0
   58.2640   32.1110   53.6170 C   0  0  0  0  0  0  0  0  0  0  0  0
   57.7510   32.1370   51.1890 C   0  0  0  0  0  0  0  0  0  0  0  0
   58.1330   32.3280   49.8780 C   0  0  0  0  0  0  0  0  0  0  0  0
   59.3910   32.6920   49.4840 C   0  0  0  0  0  0  0  0  0  0  0  0
   56.1174   23.4747   45.4669 H   0  0  0  0  0  0  0  0  0  0  0  0
   54.9203   23.3128   44.1374 H   0  0  0  0  0  0  0  0  0  0  0  0
   56.0829   24.6821   44.1374 H   0  0  0  0  0  0  0  0  0  0  0  0
   53.6055   25.1231   44.9320 H   0  0  0  0  0  0  0  0  0  0  0  0
   54.1186   24.3117   46.4459 H   0  0  0  0  0  0  0  0  0  0  0  0
   56.6948   25.4202   47.0680 H   0  0  0  0  0  0  0  0  0  0  0  0
   56.8958   25.3926   45.2835 H   0  0  0  0  0  0  0  0  0  0  0  0
   56.8287   27.7522   47.1623 H   0  0  0  0  0  0  0  0  0  0  0  0
   58.1185   27.2198   45.9810 H   0  0  0  0  0  0  0  0  0  0  0  0
   58.2971   29.0821   45.3890 H   0  0  0  0  0  0  0  0  0  0  0  0
   57.6641   28.7255   43.6917 H   0  0  0  0  0  0  0  0  0  0  0  0
   57.2918   30.8471   43.5916 H   0  0  0  0  0  0  0  0  0  0  0  0
   55.8467   30.4062   44.6655 H   0  0  0  0  0  0  0  0  0  0  0  0
   57.7568   32.8008   44.1758 H   0  0  0  0  0  0  0  0  0  0  0  0
   56.2594   33.0196   45.1654 H   0  0  0  0  0  0  0  0  0  0  0  0
   58.8068   34.2207   45.6763 H   0  0  0  0  0  0  0  0  0  0  0  0
   57.4125   34.1679   46.8035 H   0  0  0  0  0  0  0  0  0  0  0  0
   58.6770   31.6640   46.8030 H   0  0  0  0  0  0  0  0  0  0  0  0
   60.8222   33.3302   45.8001 H   0  0  0  0  0  0  0  0  0  0  0  0
   63.1643   33.9985   45.3469 H   0  0  0  0  0  0  0  0  0  0  0  0
   64.7609   34.3011   47.2345 H   0  0  0  0  0  0  0  0  0  0  0  0
   63.9309   33.9153   49.5391 H   0  0  0  0  0  0  0  0  0  0  0  0
   62.1681   33.3458   52.2441 H   0  0  0  0  0  0  0  0  0  0  0  0
   63.3840   32.6702   51.1075 H   0  0  0  0  0  0  0  0  0  0  0  0
   63.0363   34.4325   51.1075 H   0  0  0  0  0  0  0  0  0  0  0  0
   60.6902   32.8322   52.6324 H   0  0  0  0  0  0  0  0  0  0  0  0
   59.0493   32.5158   54.2723 H   0  0  0  0  0  0  0  0  0  0  0  0
   57.3161   32.6328   53.8150 H   0  0  0  0  0  0  0  0  0  0  0  0
   58.1392   31.0362   53.8150 H   0  0  0  0  0  0  0  0  0  0  0  0
   56.7162   31.8435   51.4193 H   0  0  0  0  0  0  0  0  0  0  0  0
   57.3743   32.1774   49.0959 H   0  0  0  0  0  0  0  0  0  0  0  0
  1  2  1  0
  2  3  1  0
  3  4  1  0
  4  5  1  0
  5  6  1  0
  6  7  1  0
  7  8  1  0
  8  9  1  0
  9 10  1  0
 10 11  1  0
 11 12  1  0
 12 13  1  0
 13 14  2  0
 14 15  1  0
 15 16  2  0
 16 17  1  0
 17 18  2  0
 18 19  1  0
 19 20  2  0
 20 21  1  0
 20 22  1  0
 22 23  2  0
 23 24  1  0
 24 25  1  0
 24 26  2  0
 26 27  1  0
 27 28  2  0
 28 13  1  0
 19 14  1  0
 28 22  1  0
  1 29  1  0
  1 30  1  0
  1 31  1  0
  2 32  1  0
  2 33  1  0
  4 34  1  0
  4 35  1  0
  5 36  1  0
  5 37  1  0
  7 38  1  0
  7 39  1  0
  8 40  1  0
  8 41  1  0
 10 42  1  0
 10 43  1  0
 11 44  1  0
 11 45  1  0
 12 46  1  0
 15 47  1  0
 16 48  1  0
 17 49  1  0
 18 50  1  0
 21 51  1  0
 21 52  1  0
 21 53  1  0
 23 54  1  0
 25 55  1  0
 25 56  1  0
 25 57  1  0
 26 58  1  0
 27 59  1  0
M  CHG  1  20   1
M  END
>  <smiles>  (1) 
CCOCCOCCOCCNc1c2ccccc2[n+](C)c2cc(C)ccc12

>  <score_type>  (1) 
oracle

>  <origin>  (1) 
adg

>  <m_score__min__energy>  (1) 
-5.8200000000000003

>  <m_primary>  (1) 
energy

$$$$
1:0
     RDKit          3D

 38 41  0  0  0  0  0  0  0  0999 V2000
   65.2070   33.1680   50.7010 C   0  0  0  0  0  0  0  0  0  0  0  0
   65.1950   33.0290   49.2780 N   0  0  0  0  0  0  0  0  0  0  0  0
   63.9950   32.8060   48.5760 C   0  0  0  0  0  0  0  0  0  0  0  0
   63.0960   31.8780   49.0390 C   0  0  0  0  0  0  0  0  0  0  0  0
   61.8980   31.6410   48.3580 C   0  0  0  0  0  0  0  0  0  0  0  0
   61.5310   32.2940   47.2100 C   0  0  0  0  0  0  0  0  0  0  0  0
   60.3110   32.0630   46.4570 C   0  0  0  0  0  0  0  0  0  0  0  0
   59.8640   30.8110   46.3530 C   0  0  0  0  0  0  0  0  0  0  0  0
   58.6680   30.4150   45.6440 C   0  0  0  0  0  0  0  0  0  0  0  0
   58.2680   29.0970   45.5780 C   0  0  0  0  0  0  0  0  0  0  0  0
   57.1220   28.7190   44.8970 C   0  0  0  0  0  0  0  0  0  0  0  0
   56.3600   29.6670   44.2730 C   0  0  0  0  0  0  0  0  0  0  0  0
   56.7460   31.0020   44.3270 C   0  0  0  0  0  0  0  0  0  0  0  0
   57.8910   31.3440   45.0120 C   0  0  0  0  0  0  0  0  0  0  0  0
   58.3560   32.7440   45.1090 C   0  0  0  0  0  0  0  0  0  0  0  0
   57.7850   33.7610   44.6060 N   0  0  0  0  0  0  0  0  0  0  0  0
   58.4900   34.9650   44.8820 C   0  0  0  0  0  0  0  0  0  0  0  0
   59.6870   34.5080   45.6950 C   0  0  0  0  0  0  0  0  0  0  0  0
   59.5480   33.0980   45.8190 N   0  0  0  0  0  0  0  0  0  0  0  0
   62.4510   33.2340   46.7500 C   0  0  0  0  0  0  0  0  0  0  0  0
   63.6530   33.4760   47.4280 C   0  0  0  0  0  0  0  0  0  0  0  0
   65.1213   32.1753   51.1671 H   0  0  0  0  0  0  0  0  0  0  0  0
   66.1493   33.6405   51.0153 H   0  0  0  0  0  0  0  0  0  0  0  0
   64.3597   33.7951   51.0153 H   0  0  0  0  0  0  0  0  0  0  0  0
   66.0750   33.0880   48.7140 H   0  0  0  0  0  0  0  0  0  0  0  0
   63.3205   31.3142   49.9564 H   0  0  0  0  0  0  0  0  0  0  0  0
   61.2100   30.8866   48.7673 H   0  0  0  0  0  0  0  0  0  0  0  0
   60.4496   30.0197   46.8438 H   0  0  0  0  0  0  0  0  0  0  0  0
   58.8735   28.3268   46.0782 H   0  0  0  0  0  0  0  0  0  0  0  0
   56.8265   27.6601   44.8586 H   0  0  0  0  0  0  0  0  0  0  0  0
   55.4477   29.3759   43.7318 H   0  0  0  0  0  0  0  0  0  0  0  0
   56.1439   31.7759   43.8284 H   0  0  0  0  0  0  0  0  0  0  0  0
   58.8127   35.4521   43.9500 H   0  0  0  0  0  0  0  0  0  0  0  0
   57.8739   35.7055   45.4131 H   0  0  0  0  0  0  0  0  0  0  0  0
   60.6231   34.7574   45.1740 H   0  0  0  0  0  0  0  0  0  0  0  0
   59.7249   35.0017   46.6773 H   0  0  0  0  0  0  0  0  0  0  0  0
   62.2284   33.7993   45.8330 H   0  0  0  0  0  0  0  0  0  0  0  0
   64.3468   34.2292   47.0262 H   0  0  0  0  0  0  0  0  0  0  0  0
  1  2  1  0
  2  3  1  0
  3  4  2  0
  4  5  1  0
  5  6  2  0
  6  7  1  0
  7  8  2  0
  8  9  1  0
  9 10  2  0
 10 11  1  0
 11 12  2  0
 12 13  1  0
 13 14  2  0
 14 15  1  0
 15 16  2  0
 16 17  1  0
 17 18  1  0
 18 19  1  0
  6 20  1  0
 20 21  2  0
 21  3  1  0
 19  7  1  0
 14  9  1  0
 19 15  1  0
  1 22  1  0
  1 23  1  0
  1 24  1  0
  2 25  1  0
  4 26  1  0
  5 27  1  0
  8 28  1  0
 10 29  1  0
 11 30  1  0
 12 31  1  0
 13 32  1  0
 17 33  1  0
 17 34  1  0
 18 35  1  0
 18 36  1  0
 20 37  1  0
 21 38  1  0
M  END
>  <smiles>  (2) 
CNc1ccc(C2=Cc3ccccc3C3=NCCN23)cc1

>  <score_type>  (2) 
oracle

>  <origin>  (2) 
adg

>  <m_score__min__energy>  (2) 
-7.5499999999999998

>  <m_primary>  (2) 
energy

$$$$
2:0
     RDKit          3D

 54 54  0  0  0  0  0  0  0  0999 V2000
   56.3410   29.3670   43.0170 C   0  0  0  0  0  0  0  0  0  0  0  0
   57.1540   30.1700   43.9560 C   0  0  0  0  0  0  0  0  0  0  0  0
   58.3020   29.6580   44.5230 C   0  0  0  0  0  0  0  0  0  0  0  0
   59.0840   30.4030   45.4130 C   0  0  0  0  0  0  0  0  0  0  0  0
   60.3260   29.8210   46.0160 C   0  0  0  0  0  0  0  0  0  0  0  0
   58.6770   31.6970   45.7240 C   0  0  0  0  0  0  0  0  0  0  0  0
   59.4460   32.4850   46.6210 N   0  0  0  0  0  0  0  0  0  0  0  0
   60.4770   33.2220   46.2100 O   0  0  0  0  0  0  0  0  0  0  0  0
   60.0020   34.5320   46.0040 C   0  0  0  0  0  0  0  0  0  0  0  0
   59.3790   34.9880   47.3270 C   0  0  0  0  0  0  0  0  0  0  0  0
   60.0390   34.3430   48.4230 N   0  0  0  0  0  0  0  0  0  0  0  0
   59.2360   33.5540   49.1580 O   0  0  0  0  0  0  0  0  0  0  0  0
   59.8350   33.3650   50.4000 C   0  0  0  0  0  0  0  0  0  0  0  0
   60.7930   32.2000   50.2490 C   0  0  0  0  0  0  0  0  0  0  0  0
   60.8220   31.8390   48.9270 O   0  0  0  0  0  0  0  0  0  0  0  0
   61.9510   31.0950   48.5860 C   0  0  0  0  0  0  0  0  0  0  0  0
   62.7900   31.7560   47.5410 C   0  0  0  0  0  0  0  0  0  0  0  0
   62.8660   33.1860   47.7780 N   0  0  0  0  0  0  0  0  0  0  0  0
   63.3820   33.8490   46.6050 C   0  0  0  0  0  0  0  0  0  0  0  0
   63.8190   33.3830   48.8570 C   0  0  0  0  0  0  0  0  0  0  0  0
   57.5290   32.2100   45.1580 C   0  0  0  0  0  0  0  0  0  0  0  0
   57.0900   33.5920   45.4890 C   0  0  0  0  0  0  0  0  0  0  0  0
   56.7560   31.4530   44.2680 C   0  0  0  0  0  0  0  0  0  0  0  0
   55.6710   28.7052   43.5855 H   0  0  0  0  0  0  0  0  0  0  0  0
   55.7425   30.0383   42.3836 H   0  0  0  0  0  0  0  0  0  0  0  0
   57.0048   28.7603   42.3836 H   0  0  0  0  0  0  0  0  0  0  0  0
   58.6123   28.6339   44.2683 H   0  0  0  0  0  0  0  0  0  0  0  0
   60.2520   29.8557   47.1130 H   0  0  0  0  0  0  0  0  0  0  0  0
   60.4378   28.7767   45.6889 H   0  0  0  0  0  0  0  0  0  0  0  0
   61.2000   30.4033   45.6889 H   0  0  0  0  0  0  0  0  0  0  0  0
   59.2110   32.4970   47.6360 H   0  0  0  0  0  0  0  0  0  0  0  0
   60.8331   35.1974   45.7272 H   0  0  0  0  0  0  0  0  0  0  0  0
   59.2643   34.5615   45.1886 H   0  0  0  0  0  0  0  0  0  0  0  0
   59.4885   36.0781   47.4254 H   0  0  0  0  0  0  0  0  0  0  0  0
   58.3123   34.7197   47.3372 H   0  0  0  0  0  0  0  0  0  0  0  0
   60.8120   33.7850   48.0470 H   0  0  0  0  0  0  0  0  0  0  0  0
   60.3835   34.2707   50.6981 H   0  0  0  0  0  0  0  0  0  0  0  0
   59.0820   33.1601   51.1753 H   0  0  0  0  0  0  0  0  0  0  0  0
   61.7996   32.5007   50.5752 H   0  0  0  0  0  0  0  0  0  0  0  0
   60.4619   31.3527   50.8675 H   0  0  0  0  0  0  0  0  0  0  0  0
   62.5630   30.9523   49.4888 H   0  0  0  0  0  0  0  0  0  0  0  0
   61.6022   30.1375   48.1719 H   0  0  0  0  0  0  0  0  0  0  0  0
   63.8039   31.3303   47.5685 H   0  0  0  0  0  0  0  0  0  0  0  0
   62.3321   31.5830   46.5559 H   0  0  0  0  0  0  0  0  0  0  0  0
   64.0310   34.6829   46.9108 H   0  0  0  0  0  0  0  0  0  0  0  0
   63.9630   33.1332   46.0050 H   0  0  0  0  0  0  0  0  0  0  0  0
   62.5454   34.2364   46.0050 H   0  0  0  0  0  0  0  0  0  0  0  0
   63.3053   33.2768   49.8239 H   0  0  0  0  0  0  0  0  0  0  0  0
   64.6184   32.6311   48.7820 H   0  0  0  0  0  0  0  0  0  0  0  0
   64.2548   34.3902   48.7820 H   0  0  0  0  0  0  0  0  0  0  0  0
   57.0517   33.7127   46.5817 H   0  0  0  0  0  0  0  0  0  0  0  0
   57.8028   34.3146   45.0651 H   0  0  0  0  0  0  0  0  0  0  0  0
   56.0908   33.7708   45.0651 H   0  0  0  0  0  0  0  0  0  0  0  0
   55.8432   31.8766   43.8237 H   0  0  0  0  0  0  0  0  0  0  0  0
  1  2  1  0
  2  3  2  0
  3  4  1  0
  4  5  1  0
  4  6  2  0
  6  7  1  0
  7  8  1  0
  8  9  1  0
  9 10  1  0
 10 11  1  0
 11 12  1  0
 12 13  1  0
 13 14  1  0
 14 15  1  0
 15 16  1  0
 16 17  1  0
 17 18  1  0
 18 19  1  0
 18 20  1  0
  6 21  1  0
 21 22  1  0
 21 23  2  0
 23  2  1  0
  1 24  1  0
  1 25  1  0
  1 26  1  0
  3 27  1  0
  5 28  1  0
  5 29  1  0
  5 30  1  0
  7 31  1  0
  9 32  1  0
  9 33  1  0
 10 34  1  0
 10 35  1  0
 11 36  1  0
 13 37  1  0
 13 38  1  0
 14 39  1  0
 14 40  1  0
 16 41  1  0
 16 42  1  0
 17 43  1  0
 17 44  1  0
 19 45  1  0
 19 46  1  0
 19 47  1  0
 20 48  1  0
 20 49  1  0
 20 50  1  0
 22 51  1  0
 22 52  1  0
 22 53  1  0
 23 54  1  0
M  END
>  <smiles>  (3) 
Cc1cc(C)c(NOCCNOCCOCCN(C)C)c(C)c1

>  <score_type>  (3) 
oracle

>  <origin>  (3) 
adg

>  <m_score__min__energy>  (3) 
-7.29

>  <m_primary>  (3) 
energy

$$$$
3:0
     RDKit          3D

 44 46  0  0  0  0  0  0  0  0999 V2000
   61.2480   33.8490   47.0050 C   0  0  0  0  0  0  0  0  0  0  0  0
   60.2360   34.0970   48.1050 C   0  0  0  0  0  0  0  0  0  0  0  0
   58.9170   34.5040   47.4860 C   0  0  0  0  0  0  0  0  0  0  0  0
   58.5760   33.5340   46.4350 C   0  0  0  0  0  0  0  0  0  0  0  0
   58.3330   32.3310   46.3610 N   0  0  0  0  0  0  0  0  0  0  0  0
   58.0400   31.6390   45.2820 C   0  0  0  0  0  0  0  0  0  0  0  0
   57.7270   30.1940   45.3690 C   0  0  0  0  0  0  0  0  0  0  0  0
   58.6410   29.3370   45.9940 C   0  0  0  0  0  0  0  0  0  0  0  0
   58.4350   27.9840   46.0920 C   0  0  0  0  0  0  0  0  0  0  0  0
   57.2990   27.4600   45.5590 C   0  0  0  0  0  0  0  0  0  0  0  0
   57.0260   26.0290   45.6340 C   0  0  0  0  0  0  0  0  0  0  0  0
   58.0260   25.1000   45.4300 C   0  0  0  0  0  0  0  0  0  0  0  0
   57.7610   23.7480   45.5020 C   0  0  0  0  0  0  0  0  0  0  0  0
   58.8870   22.8040   45.2700 C   0  0  0  0  0  0  0  0  0  0  0  0
   56.4800   23.3330   45.7810 C   0  0  0  0  0  0  0  0  0  0  0  0
   55.4780   24.2800   45.9850 C   0  0  0  0  0  0  0  0  0  0  0  0
   54.0750   23.8260   46.2910 C   0  0  0  0  0  0  0  0  0  0  0  0
   55.7700   25.5950   45.9080 N   0  0  0  0  0  0  0  0  0  0  0  0
   56.4270   28.2670   44.9640 N   0  0  0  0  0  0  0  0  0  0  0  0
   56.6100   29.6160   44.8540 C   0  0  0  0  0  0  0  0  0  0  0  0
   55.5680   30.3590   44.1260 C   0  0  0  0  0  0  0  0  0  0  0  0
   58.0030   32.3480   44.1110 C   0  0  0  0  0  0  0  0  0  0  0  0
   58.4170   34.0930   44.6330 S   0  0  0  0  0  0  0  0  0  0  0  0
   62.2242   33.6098   47.4520 H   0  0  0  0  0  0  0  0  0  0  0  0
   60.9135   33.0063   46.3822 H   0  0  0  0  0  0  0  0  0  0  0  0
   61.3410   34.7509   46.3822 H   0  0  0  0  0  0  0  0  0  0  0  0
   60.0983   33.1772   48.6923 H   0  0  0  0  0  0  0  0  0  0  0  0
   60.5973   34.8994   48.7651 H   0  0  0  0  0  0  0  0  0  0  0  0
   58.1314   34.5084   48.2560 H   0  0  0  0  0  0  0  0  0  0  0  0
   58.9980   35.5131   47.0557 H   0  0  0  0  0  0  0  0  0  0  0  0
   59.5592   29.7647   46.4228 H   0  0  0  0  0  0  0  0  0  0  0  0
   59.1723   27.3376   46.5906 H   0  0  0  0  0  0  0  0  0  0  0  0
   59.0475   25.4419   45.2071 H   0  0  0  0  0  0  0  0  0  0  0  0
   59.2885   22.4674   46.2372 H   0  0  0  0  0  0  0  0  0  0  0  0
   58.5256   21.9350   44.7006 H   0  0  0  0  0  0  0  0  0  0  0  0
   59.6796   23.3115   44.7006 H   0  0  0  0  0  0  0  0  0  0  0  0
   56.2475   22.2596   45.8428 H   0  0  0  0  0  0  0  0  0  0  0  0
   53.9339   23.7803   47.3810 H   0  0  0  0  0  0  0  0  0  0  0  0
   53.3567   24.5375   45.8578 H   0  0  0  0  0  0  0  0  0  0  0  0
   53.9097   22.8285   45.8578 H   0  0  0  0  0  0  0  0  0  0  0  0
   54.8910   30.8417   44.8461 H   0  0  0  0  0  0  0  0  0  0  0  0
   56.0387   31.1265   43.4940 H   0  0  0  0  0  0  0  0  0  0  0  0
   54.9958   29.6639   43.4940 H   0  0  0  0  0  0  0  0  0  0  0  0
   57.7813   31.9767   43.0996 H   0  0  0  0  0  0  0  0  0  0  0  0
  1  2  1  0
  2  3  1  0
  3  4  1  0
  4  5  2  0
  5  6  1  0
  6  7  1  0
  7  8  2  0
  8  9  1  0
  9 10  2  0
 10 11  1  0
 11 12  2  0
 12 13  1  0
 13 14  1  0
 13 15  2  0
 15 16  1  0
 16 17  1  0
 16 18  2  0
 10 19  1  0
 19 20  2  0
 20 21  1  0
  6 22  2  0
 22 23  1  0
 23  4  1  0
 20  7  1  0
 18 11  1  0
  1 24  1  0
  1 25  1  0
  1 26  1  0
  2 27  1  0
  2 28  1  0
  3 29  1  0
  3 30  1  0
  8 31  1  0
  9 32  1  0
 12 33  1  0
 14 34  1  0
 14 35  1  0
 14 36  1  0
 15 37  1  0
 17 38  1  0
 17 39  1  0
 17 40  1  0
 21 41  1  0
 21 42  1  0
 21 43  1  0
 22 44  1  0
M  END
>  <smiles>  (4) 
CCCc1nc(-c2ccc(-c3cc(C)cc(C)n3)nc2C)cs1

>  <score_type>  (4) 
oracle

>  <origin>  (4) 
adg

>  <m_score__min__energy>  (4) 
-7.7800000000000002

>  <m_primary>  (4) 
energy

$$$$
4:0
     RDKit          3D

 36 37  0  0  1  0  0  0  0  0999 V2000
   56.5730   29.4180   42.6270 C   0  0  0  0  0  0  0  0  0  0  0  0
   55.5910   29.7250   43.7360 C   0  0  0  0  0  0  0  0  0  0  0  0
   56.2650   30.2230   44.8780 O   0  0  0  0  0  0  0  0  0  0  0  0
   56.6000   31.5540   44.8550 N   0  0  0  0  0  0  0  0  0  0  0  0
   57.7860   31.9710   44.5620 C   0  0  0  0  0  0  0  0  0  0  0  0
   58.4620   32.8440   45.5160 C   0  0  0  0  0  0  0  0  0  0  0  0
   58.7010   34.1430   45.1490 C   0  0  0  0  0  0  0  0  0  0  0  0
   59.3320   35.0360   45.9850 C   0  0  0  0  0  0  0  0  0  0  0  0
   59.7200   34.5670   47.2210 C   0  0  0  0  0  0  0  0  0  0  0  0
   59.4760   33.2550   47.5840 C   0  0  0  0  0  0  0  0  0  0  0  0
   58.8500   32.3400   46.7780 C   0  0  0  0  0  0  0  0  0  0  0  0
   58.5610   31.0570   47.0150 O   0  0  0  0  0  0  0  0  0  0  0  0
   59.3400   29.9370   47.0550 C   0  0  0  0  0  0  0  0  0  0  0  0
   58.9450   28.7700   46.2580 C   0  0  0  0  0  0  0  0  0  0  0  0
   58.3040   27.7310   46.9480 C   0  0  0  0  0  0  0  0  0  0  0  0
   57.8540   26.6020   46.3320 C   0  0  0  0  0  0  0  0  0  0  0  0
   58.0200   26.4410   44.9790 C   0  0  0  0  0  0  0  0  0  0  0  0
   57.3750   24.8510   44.1740 Br  0  0  0  0  0  0  0  0  0  0  0  0
   58.6460   27.4480   44.2770 C   0  0  0  0  0  0  0  0  0  0  0  0
   59.0990   28.5910   44.9150 C   0  0  0  0  0  0  0  0  0  0  0  0
   57.5367   29.1167   43.0636 H   0  0  0  0  0  0  0  0  0  0  0  0
   56.1802   28.5998   42.0055 H   0  0  0  0  0  0  0  0  0  0  0  0
   56.7162   30.3142   42.0055 H   0  0  0  0  0  0  0  0  0  0  0  0
   54.8723   30.4794   43.3833 H   0  0  0  0  0  0  0  0  0  0  0  0
   55.0669   28.7978   44.0110 H   0  0  0  0  0  0  0  0  0  0  0  0
   58.2729   31.6768   43.6205 H   0  0  0  0  0  0  0  0  0  0  0  0
   58.3780   34.4828   44.1539 H   0  0  0  0  0  0  0  0  0  0  0  0
   59.5180   36.0765   45.6803 H   0  0  0  0  0  0  0  0  0  0  0  0
   60.2283   35.2420   47.9253 H   0  0  0  0  0  0  0  0  0  0  0  0
   59.8045   32.9255   48.5808 H   0  0  0  0  0  0  0  0  0  0  0  0
   60.3457   30.2311   46.7203 H   0  0  0  0  0  0  0  0  0  0  0  0
   59.2518   29.5898   48.0950 H   0  0  0  0  0  0  0  0  0  0  0  0
   58.1582   27.8318   48.0336 H   0  0  0  0  0  0  0  0  0  0  0  0
   57.3563   25.8173   46.9207 H   0  0  0  0  0  0  0  0  0  0  0  0
   58.7884   27.3424   43.1914 H   0  0  0  0  0  0  0  0  0  0  0  0
   59.5956   29.3741   44.3233 H   0  0  0  0  0  0  0  0  0  0  0  0
  1  2  1  0
  2  3  1  0
  3  4  1  0
  4  5  2  0
  5  6  1  0
  6  7  2  0
  7  8  1  0
  8  9  2  0
  9 10  1  0
 10 11  2  0
 11 12  1  0
 12 13  1  0
 13 14  1  0
 14 15  2  0
 15 16  1  0
 16 17  2  0
 17 18  1  0
 17 19  1  0
 19 20  2  0
 11  6  1  0
 20 14  1  0
  1 21  1  0
  1 22  1  0
  1 23  1  0
  2 24  1  0
  2 25  1  0
  5 26  1  0
  7 27  1  0
  8 28  1  0
  9 29  1  0
 10 30  1  0
 13 31  1  0
 13 32  1  0
 15 33  1  0
 16 34  1  0
 19 35  1  0
 20 36  1  0
M  END
>  <smiles>  (5) 
CCON=Cc1ccccc1OCc1ccc(Br)cc1

>  <score_type>  (5) 
oracle

>  <origin>  (5) 
adg

>  <m_score__min__energy>  (5) 
-7.4699999999999998

>  <m_primary>  (5) 
energy

$$$$
5:0
     RDKit          3D

 52 55  0  0  0  0  0  0  0  0999 V2000
   63.3300   33.7580   46.7110 C   0  0  0  0  0  0  0  0  0  0  0  0
   63.0890   32.3140   47.1470 C   0  0  0  0  0  0  0  0  0  0  0  0
   62.8800   32.3410   48.5050 O   0  0  0  0  0  0  0  0  0  0  0  0
   63.3480   33.5000   49.1070 C   0  0  0  0  0  0  0  0  0  0  0  0
   62.4720   33.8970   50.2400 C   0  0  0  0  0  0  0  0  0  0  0  0
   61.6170   32.8950   50.6260 O   0  0  0  0  0  0  0  0  0  0  0  0
   60.4020   33.3490   51.0890 C   0  0  0  0  0  0  0  0  0  0  0  0
   59.3870   33.0260   49.9830 C   0  0  0  0  0  0  0  0  0  0  0  0
   60.0700   32.2010   48.9990 N   0  0  0  0  0  0  0  0  0  0  0  0
   59.5700   32.0540   47.6740 C   0  0  0  0  0  0  0  0  0  0  0  0
   59.2110   30.7570   47.3000 C   0  0  0  0  0  0  0  0  0  0  0  0
   58.7130   30.5110   46.0260 C   0  0  0  0  0  0  0  0  0  0  0  0
   58.5940   31.5540   45.1830 N   0  0  0  0  0  0  0  0  0  0  0  0
   58.0840   31.3390   43.8590 C   0  0  0  0  0  0  0  0  0  0  0  0
   58.9430   32.8190   45.5410 C   0  0  0  0  0  0  0  0  0  0  0  0
   58.7990   33.8590   44.6290 C   0  0  0  0  0  0  0  0  0  0  0  0
   59.1540   35.1550   44.9880 C   0  0  0  0  0  0  0  0  0  0  0  0
   59.6490   35.3920   46.2620 C   0  0  0  0  0  0  0  0  0  0  0  0
   59.8050   34.3770   47.1930 C   0  0  0  0  0  0  0  0  0  0  0  0
   59.4410   33.1090   46.7940 C   0  0  0  0  0  0  0  0  0  0  0  0
   58.4240   29.0710   45.9220 C   0  0  0  0  0  0  0  0  0  0  0  0
   57.9400   28.3190   44.9350 N   0  0  0  0  0  0  0  0  0  0  0  0
   57.7630   26.9750   45.0950 C   0  0  0  0  0  0  0  0  0  0  0  0
   58.0820   26.3480   46.2950 C   0  0  0  0  0  0  0  0  0  0  0  0
   58.5840   27.1010   47.3320 C   0  0  0  0  0  0  0  0  0  0  0  0
   58.7420   28.4540   47.1150 C   0  0  0  0  0  0  0  0  0  0  0  0
   59.2450   29.4770   48.0240 C   0  0  0  0  0  0  0  0  0  0  0  0
   59.6360   29.2830   49.2130 O   0  0  0  0  0  0  0  0  0  0  0  0
   63.4366   34.3966   47.6003 H   0  0  0  0  0  0  0  0  0  0  0  0
   64.2494   33.8108   46.1094 H   0  0  0  0  0  0  0  0  0  0  0  0
   62.4776   34.1065   46.1094 H   0  0  0  0  0  0  0  0  0  0  0  0
   62.2047   31.9061   46.6354 H   0  0  0  0  0  0  0  0  0  0  0  0
   63.9472   31.6751   46.8915 H   0  0  0  0  0  0  0  0  0  0  0  0
   64.3668   33.3250   49.4830 H   0  0  0  0  0  0  0  0  0  0  0  0
   63.3486   34.3089   48.3616 H   0  0  0  0  0  0  0  0  0  0  0  0
   63.1063   34.1677   51.0970 H   0  0  0  0  0  0  0  0  0  0  0  0
   61.8583   34.7456   49.9034 H   0  0  0  0  0  0  0  0  0  0  0  0
   60.1300   32.8327   52.0215 H   0  0  0  0  0  0  0  0  0  0  0  0
   60.4298   34.4259   51.3117 H   0  0  0  0  0  0  0  0  0  0  0  0
   58.5314   32.4784   50.4051 H   0  0  0  0  0  0  0  0  0  0  0  0
   59.0060   33.9489   49.5214 H   0  0  0  0  0  0  0  0  0  0  0  0
   60.9480   31.6870   49.2210 H   0  0  0  0  0  0  0  0  0  0  0  0
   57.0720   30.9124   43.9207 H   0  0  0  0  0  0  0  0  0  0  0  0
   58.0456   32.2975   43.3207 H   0  0  0  0  0  0  0  0  0  0  0  0
   58.7434   30.6423   43.3207 H   0  0  0  0  0  0  0  0  0  0  0  0
   58.4039   33.6564   43.6226 H   0  0  0  0  0  0  0  0  0  0  0  0
   59.0436   35.9816   44.2707 H   0  0  0  0  0  0  0  0  0  0  0  0
   59.9267   36.4187   46.5425 H   0  0  0  0  0  0  0  0  0  0  0  0
   60.1999   34.5738   48.2006 H   0  0  0  0  0  0  0  0  0  0  0  0
   57.3620   26.3786   44.2622 H   0  0  0  0  0  0  0  0  0  0  0  0
   57.9350   25.2643   46.4136 H   0  0  0  0  0  0  0  0  0  0  0  0
   58.8488   26.6419   48.2959 H   0  0  0  0  0  0  0  0  0  0  0  0
  1  2  1  0
  2  3  1  0
  3  4  1  0
  4  5  1  0
  5  6  1  0
  6  7  1  0
  7  8  1  0
  8  9  1  0
  9 10  1  0
 10 11  2  0
 11 12  1  0
 12 13  2  0
 13 14  1  0
 13 15  1  0
 15 16  2  0
 16 17  1  0
 17 18  2  0
 18 19  1  0
 19 20  2  0
 12 21  1  0
 21 22  2  0
 22 23  1  0
 23 24  2  0
 24 25  1  0
 25 26  2  0
 26 27  1  0
 27 28  2  0
 20 10  1  0
 26 21  1  0
 27 11  1  0
 20 15  1  0
  1 29  1  0
  1 30  1  0
  1 31  1  0
  2 32  1  0
  2 33  1  0
  4 34  1  0
  4 35  1  0
  5 36  1  0
  5 37  1  0
  7 38  1  0
  7 39  1  0
  8 40  1  0
  8 41  1  0
  9 42  1  0
 14 43  1  0
 14 44  1  0
 14 45  1  0
 16 46  1  0
 17 47  1  0
 18 48  1  0
 19 49  1  0
 23 50  1  0
 24 51  1  0
 25 52  1  0
M  CHG  1  13   1
M  END
>  <smiles>  (6) 
CCOCCOCCNc1c2c([n+](C)c3ccccc13)-c1ncccc1C2=O

>  <score_type>  (6) 
oracle

>  <origin>  (6) 
adg

>  <m_score__min__energy>  (6) 
-6.4900000000000002

>  <m_primary>  (6) 
energy

$$$$
6:0
     RDKit          3D

 46 48  0  0  0  0  0  0  0  0999 V2000
   57.7990   24.8440   44.8960 C   0  0  0  0  0  0  0  0  0  0  0  0
   58.3880   24.9420   46.2190 N   0  0  0  0  0  0  0  0  0  0  0  0
   59.7270   25.4690   46.0520 C   0  0  0  0  0  0  0  0  0  0  0  0
   57.5680   25.8040   47.0900 C   0  0  0  0  0  0  0  0  0  0  0  0
   56.5260   26.3910   46.2130 C   0  0  0  0  0  0  0  0  0  0  0  0
   56.7360   27.5940   45.6250 O   0  0  0  0  0  0  0  0  0  0  0  0
   57.5370   28.6710   45.8760 C   0  0  0  0  0  0  0  0  0  0  0  0
   58.5100   28.6510   46.8400 C   0  0  0  0  0  0  0  0  0  0  0  0
   59.3370   29.7530   47.1020 C   0  0  0  0  0  0  0  0  0  0  0  0
   59.0980   30.8580   46.3150 C   0  0  0  0  0  0  0  0  0  0  0  0
   58.1200   30.8960   45.3360 C   0  0  0  0  0  0  0  0  0  0  0  0
   57.3090   29.8240   45.0790 C   0  0  0  0  0  0  0  0  0  0  0  0
   56.2370   29.7280   44.1090 C   0  0  0  0  0  0  0  0  0  0  0  0
   56.4560   29.5180   42.8080 F   0  0  0  0  0  0  0  0  0  0  0  0
   55.6500   31.0280   44.1150 F   0  0  0  0  0  0  0  0  0  0  0  0
   55.1560   28.9700   44.6000 F   0  0  0  0  0  0  0  0  0  0  0  0
   57.8620   32.0130   44.4780 N   0  0  0  0  0  0  0  0  0  0  0  0
   57.9980   33.4380   44.6760 C   0  0  0  0  0  0  0  0  0  0  0  0
   58.3700   33.8750   46.0500 C   0  0  0  0  0  0  0  0  0  0  0  0
   59.6670   33.2930   46.5500 C   0  0  0  0  0  0  0  0  0  0  0  0
   60.5920   34.2360   46.9180 C   0  0  0  0  0  0  0  0  0  0  0  0
   61.8270   33.7960   47.3890 C   0  0  0  0  0  0  0  0  0  0  0  0
   62.1460   32.4560   47.4950 C   0  0  0  0  0  0  0  0  0  0  0  0
   61.2100   31.4820   47.1220 C   0  0  0  0  0  0  0  0  0  0  0  0
   60.0090   31.9550   46.6660 C   0  0  0  0  0  0  0  0  0  0  0  0
   56.7178   24.6641   44.9884 H   0  0  0  0  0  0  0  0  0  0  0  0
   57.9690   25.7828   44.3485 H   0  0  0  0  0  0  0  0  0  0  0  0
   58.2638   24.0109   44.3485 H   0  0  0  0  0  0  0  0  0  0  0  0
   60.1772   25.6462   47.0399 H   0  0  0  0  0  0  0  0  0  0  0  0
   60.3392   24.7448   45.4946 H   0  0  0  0  0  0  0  0  0  0  0  0
   59.6814   26.4162   45.4946 H   0  0  0  0  0  0  0  0  0  0  0  0
   57.1041   25.2090   47.8905 H   0  0  0  0  0  0  0  0  0  0  0  0
   58.1745   26.5830   47.5750 H   0  0  0  0  0  0  0  0  0  0  0  0
   56.3479   25.6681   45.4032 H   0  0  0  0  0  0  0  0  0  0  0  0
   55.6941   26.5888   46.9050 H   0  0  0  0  0  0  0  0  0  0  0  0
   58.6482   27.7343   47.4321 H   0  0  0  0  0  0  0  0  0  0  0  0
   60.1173   29.7362   47.8771 H   0  0  0  0  0  0  0  0  0  0  0  0
   57.5330   31.7060   43.5380 H   0  0  0  0  0  0  0  0  0  0  0  0
   58.7741   33.8008   43.9861 H   0  0  0  0  0  0  0  0  0  0  0  0
   56.9985   33.8590   44.4920 H   0  0  0  0  0  0  0  0  0  0  0  0
   58.4599   34.9713   46.0515 H   0  0  0  0  0  0  0  0  0  0  0  0
   57.5791   33.5130   46.7234 H   0  0  0  0  0  0  0  0  0  0  0  0
   60.3652   35.3098   46.8434 H   0  0  0  0  0  0  0  0  0  0  0  0
   62.5764   34.5437   47.6878 H   0  0  0  0  0  0  0  0  0  0  0  0
   63.1342   32.1537   47.8720 H   0  0  0  0  0  0  0  0  0  0  0  0
   61.4266   30.4058   47.1912 H   0  0  0  0  0  0  0  0  0  0  0  0
  1  2  1  0
  2  3  1  0
  2  4  1  0
  4  5  1  0
  5  6  1  0
  6  7  1  0
  7  8  2  0
  8  9  1  0
  9 10  2  0
 10 11  1  0
 11 12  2  0
 12 13  1  0
 13 14  1  0
 13 15  1  0
 13 16  1  0
 11 17  1  0
 17 18  1  0
 18 19  1  0
 19 20  1  0
 20 21  2  0
 21 22  1  0
 22 23  2  0
 23 24  1  0
 24 25  2  0
 12  7  1  0
 25 20  1  0
 25 10  1  0
  1 26  1  0
  1 27  1  0
  1 28  1  0
  3 29  1  0
  3 30  1  0
  3 31  1  0
  4 32  1  0
  4 33  1  0
  5 34  1  0
  5 35  1  0
  8 36  1  0
  9 37  1  0
 17 38  1  0
 18 39  1  0
 18 40  1  0
 19 41  1  0
 19 42  1  0
 21 43  1  0
 22 44  1  0
 23 45  1  0
 24 46  1  0
M  END
>  <smiles>  (7) 
CN(C)CCOc1ccc2c(c1C(F)(F)F)NCCc1ccccc1-2

>  <score_type>  (7) 
oracle

>  <origin>  (7) 
adg

>  <m_score__min__energy>  (7) 
-5.6299999999999999

>  <m_primary>  (7) 
energy

$$$$
7:0
     RDKit          3D

 50 52  0  0  0  0  0  0  0  0999 V2000
   61.9230   33.8320   46.3800 C   0  0  0  0  0  0  0  0  0  0  0  0
   63.4090   33.9280   46.2760 C   0  0  0  0  0  0  0  0  0  0  0  0
   64.0950   33.3620   47.4130 N   0  0  0  0  0  0  0  0  0  0  0  0
   63.4150   33.5070   48.6610 C   0  0  0  0  0  0  0  0  0  0  0  0
   62.8510   32.1660   49.1140 C   0  0  0  0  0  0  0  0  0  0  0  0
   62.8830   31.2190   48.1400 O   0  0  0  0  0  0  0  0  0  0  0  0
   61.6890   30.8390   47.5980 C   0  0  0  0  0  0  0  0  0  0  0  0
   60.7350   30.3810   48.6570 C   0  0  0  0  0  0  0  0  0  0  0  0
   59.3720   30.9000   48.4180 N   0  0  0  0  0  0  0  0  0  0  0  0
   58.8520   30.9500   47.0980 C   0  0  0  0  0  0  0  0  0  0  0  0
   58.5870   29.7510   46.4240 C   0  0  0  0  0  0  0  0  0  0  0  0
   58.8170   28.5450   47.0880 C   0  0  0  0  0  0  0  0  0  0  0  0
   58.5640   27.3250   46.4650 C   0  0  0  0  0  0  0  0  0  0  0  0
   58.0820   27.3740   45.1820 C   0  0  0  0  0  0  0  0  0  0  0  0
   57.7590   25.8430   44.3850 Cl  0  0  0  0  0  0  0  0  0  0  0  0
   57.8500   28.5830   44.5130 C   0  0  0  0  0  0  0  0  0  0  0  0
   58.1000   29.7850   45.1300 C   0  0  0  0  0  0  0  0  0  0  0  0
   57.8560   30.9140   44.4540 N   0  0  0  0  0  0  0  0  0  0  0  0
   57.3650   31.0130   43.1230 C   0  0  0  0  0  0  0  0  0  0  0  0
   58.1080   32.0930   45.1040 C   0  0  0  0  0  0  0  0  0  0  0  0
   57.8520   33.3050   44.4580 C   0  0  0  0  0  0  0  0  0  0  0  0
   58.0640   34.5240   45.0650 C   0  0  0  0  0  0  0  0  0  0  0  0
   58.5460   34.5160   46.3530 C   0  0  0  0  0  0  0  0  0  0  0  0
   58.8100   33.3180   47.0190 C   0  0  0  0  0  0  0  0  0  0  0  0
   59.3640   33.4430   48.6590 Cl  0  0  0  0  0  0  0  0  0  0  0  0
   58.5960   32.1040   46.4030 C   0  0  0  0  0  0  0  0  0  0  0  0
   61.6301   33.8131   47.4401 H   0  0  0  0  0  0  0  0  0  0  0  0
   61.4640   34.7024   45.8883 H   0  0  0  0  0  0  0  0  0  0  0  0
   61.5798   32.9098   45.8883 H   0  0  0  0  0  0  0  0  0  0  0  0
   63.7317   33.3929   45.3707 H   0  0  0  0  0  0  0  0  0  0  0  0
   63.6662   34.9968   46.2371 H   0  0  0  0  0  0  0  0  0  0  0  0
   64.4840   32.4340   47.2410 H   0  0  0  0  0  0  0  0  0  0  0  0
   64.1213   33.8782   49.4182 H   0  0  0  0  0  0  0  0  0  0  0  0
   62.5869   34.2203   48.5368 H   0  0  0  0  0  0  0  0  0  0  0  0
   63.4423   31.8084   49.9698 H   0  0  0  0  0  0  0  0  0  0  0  0
   61.7962   32.3267   49.3814 H   0  0  0  0  0  0  0  0  0  0  0  0
   61.2489   31.6942   47.0642 H   0  0  0  0  0  0  0  0  0  0  0  0
   61.8705   30.0024   46.9073 H   0  0  0  0  0  0  0  0  0  0  0  0
   60.7038   29.2814   48.6589 H   0  0  0  0  0  0  0  0  0  0  0  0
   61.0854   30.7640   49.6268 H   0  0  0  0  0  0  0  0  0  0  0  0
   58.7980   31.2280   49.2320 H   0  0  0  0  0  0  0  0  0  0  0  0
   59.2035   28.5581   48.1178 H   0  0  0  0  0  0  0  0  0  0  0  0
   58.7423   26.3682   46.9776 H   0  0  0  0  0  0  0  0  0  0  0  0
   57.4637   28.5698   43.4831 H   0  0  0  0  0  0  0  0  0  0  0  0
   56.2869   31.2304   43.1451 H   0  0  0  0  0  0  0  0  0  0  0  0
   57.8917   31.8230   42.5972 H   0  0  0  0  0  0  0  0  0  0  0  0
   57.5366   30.0622   42.5972 H   0  0  0  0  0  0  0  0  0  0  0  0
   57.4673   33.2856   43.4276 H   0  0  0  0  0  0  0  0  0  0  0  0
   57.8556   35.4675   44.5393 H   0  0  0  0  0  0  0  0  0  0  0  0
   58.7268   35.4711   46.8678 H   0  0  0  0  0  0  0  0  0  0  0  0
  1  2  1  0
  2  3  1  0
  3  4  1  0
  4  5  1  0
  5  6  1  0
  6  7  1  0
  7  8  1  0
  8  9  1  0
  9 10  1  0
 10 11  2  0
 11 12  1  0
 12 13  2  0
 13 14  1  0
 14 15  1  0
 14 16  2  0
 16 17  1  0
 17 18  2  0
 18 19  1  0
 18 20  1  0
 20 21  2  0
 21 22  1  0
 22 23  2  0
 23 24  1  0
 24 25  1  0
 24 26  2  0
 26 10  1  0
 17 11  1  0
 26 20  1  0
  1 27  1  0
  1 28  1  0
  1 29  1  0
  2 30  1  0
  2 31  1  0
  3 32  1  0
  4 33  1  0
  4 34  1  0
  5 35  1  0
  5 36  1  0
  7 37  1  0
  7 38  1  0
  8 39  1  0
  8 40  1  0
  9 41  1  0
 12 42  1  0
 13 43  1  0
 16 44  1  0
 19 45  1  0
 19 46  1  0
 19 47  1  0
 21 48  1  0
 22 49  1  0
 23 50  1  0
M  CHG  1  18   1
M  END
>  <smiles>  (8) 
CCNCCOCCNc1c2ccc(Cl)cc2[n+](C)c2cccc(Cl)c12

>  <score_type>  (8) 
oracle

>  <origin>  (8) 
adg

>  <m_score__min__energy>  (8) 
-6.0099999999999998

>  <m_primary>  (8) 
energy

$$$$
8:0
     RDKit          3D

 58 60  0  0  0  0  0  0  0  0999 V2000
   63.1150   33.7990   46.7530 C   0  0  0  0  0  0  0  0  0  0  0  0
   63.4420   32.5030   47.4790 C   0  0  0  0  0  0  0  0  0  0  0  0
   62.3290   31.9020   48.0030 O   0  0  0  0  0  0  0  0  0  0  0  0
   61.7950   30.8620   47.3050 C   0  0  0  0  0  0  0  0  0  0  0  0
   60.7530   30.0390   47.9750 C   0  0  0  0  0  0  0  0  0  0  0  0
   59.4520   30.7200   48.0520 N   0  0  0  0  0  0  0  0  0  0  0  0
   59.0180   31.3300   46.8460 C   0  0  0  0  0  0  0  0  0  0  0  0
   58.4710   30.4500   45.9050 C   0  0  0  0  0  0  0  0  0  0  0  0
   58.3120   29.1170   46.2120 C   0  0  0  0  0  0  0  0  0  0  0  0
   57.7810   28.1790   45.3580 C   0  0  0  0  0  0  0  0  0  0  0  0
   57.3840   28.6090   44.1170 C   0  0  0  0  0  0  0  0  0  0  0  0
   57.5330   29.9470   43.7850 C   0  0  0  0  0  0  0  0  0  0  0  0
   58.0660   30.8590   44.6590 C   0  0  0  0  0  0  0  0  0  0  0  0
   58.2010   32.1540   44.3330 N   0  0  0  0  0  0  0  0  0  0  0  0
   57.7940   32.6790   43.0480 C   0  0  0  0  0  0  0  0  0  0  0  0
   58.7270   33.0390   45.2230 C   0  0  0  0  0  0  0  0  0  0  0  0
   58.8430   34.3380   44.8320 C   0  0  0  0  0  0  0  0  0  0  0  0
   59.3720   35.2610   45.7010 C   0  0  0  0  0  0  0  0  0  0  0  0
   59.7700   34.8430   46.9490 C   0  0  0  0  0  0  0  0  0  0  0  0
   59.6700   33.5280   47.3920 C   0  0  0  0  0  0  0  0  0  0  0  0
   60.0570   33.2490   48.7160 N   0  0  0  0  0  0  0  0  0  0  0  0
   59.6550   34.2130   49.7690 C   0  0  0  0  0  0  0  0  0  0  0  0
   59.2510   33.3970   50.9600 C   0  0  0  0  0  0  0  0  0  0  0  0
   59.0970   32.0100   50.6460 N   0  0  0  0  0  0  0  0  0  0  0  0
   57.7600   31.5970   51.0910 C   0  0  0  0  0  0  0  0  0  0  0  0
   60.0260   31.1240   51.2680 C   0  0  0  0  0  0  0  0  0  0  0  0
   59.1420   32.6310   46.4990 C   0  0  0  0  0  0  0  0  0  0  0  0
   62.9151   34.5914   47.4893 H   0  0  0  0  0  0  0  0  0  0  0  0
   63.9676   34.0912   46.1223 H   0  0  0  0  0  0  0  0  0  0  0  0
   62.2259   33.6517   46.1223 H   0  0  0  0  0  0  0  0  0  0  0  0
   63.9159   31.8100   46.7682 H   0  0  0  0  0  0  0  0  0  0  0  0
   64.1151   32.7475   48.3140 H   0  0  0  0  0  0  0  0  0  0  0  0
   61.3472   31.2767   46.3898 H   0  0  0  0  0  0  0  0  0  0  0  0
   62.6368   30.1709   47.1507 H   0  0  0  0  0  0  0  0  0  0  0  0
   60.6272   29.1034   47.4104 H   0  0  0  0  0  0  0  0  0  0  0  0
   61.0904   29.8515   49.0051 H   0  0  0  0  0  0  0  0  0  0  0  0
   58.8770   30.7150   48.9390 H   0  0  0  0  0  0  0  0  0  0  0  0
   58.6317   28.7793   47.2089 H   0  0  0  0  0  0  0  0  0  0  0  0
   57.6786   27.1257   45.6579 H   0  0  0  0  0  0  0  0  0  0  0  0
   56.9527   27.9008   43.3942 H   0  0  0  0  0  0  0  0  0  0  0  0
   57.2135   30.2875   42.7890 H   0  0  0  0  0  0  0  0  0  0  0  0
   57.1264   33.5402   43.1985 H   0  0  0  0  0  0  0  0  0  0  0  0
   58.6829   32.9983   42.4842 H   0  0  0  0  0  0  0  0  0  0  0  0
   57.2632   31.8977   42.4842 H   0  0  0  0  0  0  0  0  0  0  0  0
   58.5156   34.6460   43.8280 H   0  0  0  0  0  0  0  0  0  0  0  0
   59.4753   36.3151   45.4040 H   0  0  0  0  0  0  0  0  0  0  0  0
   60.1916   35.5911   47.6364 H   0  0  0  0  0  0  0  0  0  0  0  0
   60.5600   32.4550   49.1070 H   0  0  0  0  0  0  0  0  0  0  0  0
   60.4996   34.8690   50.0264 H   0  0  0  0  0  0  0  0  0  0  0  0
   58.8294   34.8546   49.4273 H   0  0  0  0  0  0  0  0  0  0  0  0
   60.0234   33.4994   51.7364 H   0  0  0  0  0  0  0  0  0  0  0  0
   58.2768   33.7716   51.3074 H   0  0  0  0  0  0  0  0  0  0  0  0
   57.7264   31.5866   52.1904 H   0  0  0  0  0  0  0  0  0  0  0  0
   57.0109   32.3056   50.7080 H   0  0  0  0  0  0  0  0  0  0  0  0
   57.5411   30.5894   50.7080 H   0  0  0  0  0  0  0  0  0  0  0  0
   59.9375   31.2084   52.3612 H   0  0  0  0  0  0  0  0  0  0  0  0
   59.8085   30.0903   50.9612 H   0  0  0  0  0  0  0  0  0  0  0  0
   61.0483   31.3902   50.9612 H   0  0  0  0  0  0  0  0  0  0  0  0
  1  2  1  0
  2  3  1  0
  3  4  1  0
  4  5  1  0
  5  6  1  0
  6  7  1  0
  7  8  2  0
  8  9  1  0
  9 10  2  0
 10 11  1  0
 11 12  2  0
 12 13  1  0
 13 14  2  0
 14 15  1  0
 14 16  1  0
 16 17  2  0
 17 18  1  0
 18 19  2  0
 19 20  1  0
 20 21  1  0
 21 22  1  0
 22 23  1  0
 23 24  1  0
 24 25  1  0
 24 26  1  0
 20 27  2  0
 27  7  1  0
 13  8  1  0
 27 16  1  0
  1 28  1  0
  1 29  1  0
  1 30  1  0
  2 31  1  0
  2 32  1  0
  4 33  1  0
  4 34  1  0
  5 35  1  0
  5 36  1  0
  6 37  1  0
  9 38  1  0
 10 39  1  0
 11 40  1  0
 12 41  1  0
 15 42  1  0
 15 43  1  0
 15 44  1  0
 17 45  1  0
 18 46  1  0
 19 47  1  0
 21 48  1  0
 22 49  1  0
 22 50  1  0
 23 51  1  0
 23 52  1  0
 25 53  1  0
 25 54  1  0
 25 55  1  0
 26 56  1  0
 26 57  1  0
 26 58  1  0
M  CHG  1  14   1
M  END
>  <smiles>  (9) 
CCOCCNc1c2ccccc2[n+](C)c2cccc(NCCN(C)C)c12

>  <score_type>  (9) 
oracle

>  <origin>  (9) 
adg

>  <m_score__min__energy>  (9) 
-4.7199999999999998

>  <m_primary>  (9) 
energy

$$$$
9:0
     RDKit          3D

 51 54  0  0  0  0  0  0  0  0999 V2000
   61.8000   33.7850   50.1330 C   0  0  0  0  0  0  0  0  0  0  0  0
   63.2120   33.5390   50.1800 N   0  0  0  0  0  0  0  0  0  0  0  0
   63.9750   33.9510   51.2410 C   0  0  0  0  0  0  0  0  0  0  0  0
   65.2510   33.6220   51.0260 N   0  0  0  0  0  0  0  0  0  0  0  0
   65.2830   33.0080   49.8380 C   0  0  0  0  0  0  0  0  0  0  0  0
   63.9880   32.9490   49.2890 C   0  0  0  0  0  0  0  0  0  0  0  0
   63.7660   32.2900   47.9830 C   0  0  0  0  0  0  0  0  0  0  0  0
   62.4060   31.7930   47.8690 N   0  0  0  0  0  0  0  0  0  0  0  0
   61.3290   32.4310   47.2300 C   0  0  0  0  0  0  0  0  0  0  0  0
   61.5020   33.7870   46.9270 C   0  0  0  0  0  0  0  0  0  0  0  0
   60.5420   34.5360   46.2940 C   0  0  0  0  0  0  0  0  0  0  0  0
   59.3740   33.9070   45.9530 C   0  0  0  0  0  0  0  0  0  0  0  0
   58.4210   34.6800   45.3050 C   0  0  0  0  0  0  0  0  0  0  0  0
   57.2240   34.1110   44.9220 C   0  0  0  0  0  0  0  0  0  0  0  0
   57.0560   32.7750   45.2200 C   0  0  0  0  0  0  0  0  0  0  0  0
   57.9930   32.0650   45.8430 N   0  0  0  0  0  0  0  0  0  0  0  0
   59.1640   32.5610   46.2340 C   0  0  0  0  0  0  0  0  0  0  0  0
   60.1340   31.7840   46.8810 C   0  0  0  0  0  0  0  0  0  0  0  0
   59.9410   30.3680   47.1340 C   0  0  0  0  0  0  0  0  0  0  0  0
   60.7330   29.6640   47.8290 O   0  0  0  0  0  0  0  0  0  0  0  0
   58.8310   29.6110   46.6280 N   0  0  0  0  0  0  0  0  0  0  0  0
   58.7020   28.1920   46.9090 C   0  0  0  0  0  0  0  0  0  0  0  0
   57.4860   27.5600   46.3100 C   0  0  0  0  0  0  0  0  0  0  0  0
   57.0280   28.3050   45.0870 C   0  0  0  0  0  0  0  0  0  0  0  0
   57.4750   27.9530   43.8200 C   0  0  0  0  0  0  0  0  0  0  0  0
   57.0390   28.6590   42.6950 C   0  0  0  0  0  0  0  0  0  0  0  0
   56.1520   29.7120   42.9010 C   0  0  0  0  0  0  0  0  0  0  0  0
   55.7160   30.0510   44.1780 C   0  0  0  0  0  0  0  0  0  0  0  0
   56.1640   29.3390   45.2460 N   0  0  0  0  0  0  0  0  0  0  0  0
   61.4055   33.8537   51.1575 H   0  0  0  0  0  0  0  0  0  0  0  0
   61.6099   34.7298   49.6027 H   0  0  0  0  0  0  0  0  0  0  0  0
   61.3016   32.9602   49.6027 H   0  0  0  0  0  0  0  0  0  0  0  0
   63.5950   34.4722   52.1321 H   0  0  0  0  0  0  0  0  0  0  0  0
   66.1891   32.6076   49.3598 H   0  0  0  0  0  0  0  0  0  0  0  0
   63.9508   33.0170   47.1784 H   0  0  0  0  0  0  0  0  0  0  0  0
   64.4561   31.4372   47.9018 H   0  0  0  0  0  0  0  0  0  0  0  0
   62.2970   30.8450   48.3550 H   0  0  0  0  0  0  0  0  0  0  0  0
   62.4480   34.2728   47.2084 H   0  0  0  0  0  0  0  0  0  0  0  0
   60.7043   35.6005   46.0691 H   0  0  0  0  0  0  0  0  0  0  0  0
   58.6191   35.7419   45.0976 H   0  0  0  0  0  0  0  0  0  0  0  0
   56.4451   34.6920   44.4064 H   0  0  0  0  0  0  0  0  0  0  0  0
   56.1164   32.2801   44.9332 H   0  0  0  0  0  0  0  0  0  0  0  0
   58.0700   30.0240   46.0600 H   0  0  0  0  0  0  0  0  0  0  0  0
   59.5899   27.6787   46.5111 H   0  0  0  0  0  0  0  0  0  0  0  0
   58.6073   28.0916   48.0003 H   0  0  0  0  0  0  0  0  0  0  0  0
   57.7225   26.5229   46.0299 H   0  0  0  0  0  0  0  0  0  0  0  0
   56.6778   27.5876   47.0557 H   0  0  0  0  0  0  0  0  0  0  0  0
   58.1762   27.1138   43.7011 H   0  0  0  0  0  0  0  0  0  0  0  0
   57.3838   28.3925   41.6850 H   0  0  0  0  0  0  0  0  0  0  0  0
   55.7886   30.2875   42.0369 H   0  0  0  0  0  0  0  0  0  0  0  0
   55.0157   30.8869   44.3221 H   0  0  0  0  0  0  0  0  0  0  0  0
  1  2  1  0
  2  3  1  0
  3  4  2  0
  4  5  1  0
  5  6  2  0
  6  7  1  0
  7  8  1  0
  8  9  1  0
  9 10  2  0
 10 11  1  0
 11 12  2  0
 12 13  1  0
 13 14  2  0
 14 15  1  0
 15 16  2  0
 16 17  1  0
 17 18  2  0
 18 19  1  0
 19 20  2  0
 19 21  1  0
 21 22  1  0
 22 23  1  0
 23 24  1  0
 24 25  2  0
 25 26  1  0
 26 27  2  0
 27 28  1  0
 28 29  2  0
  6  2  1  0
 18  9  1  0
 29 24  1  0
 17 12  1  0
  1 30  1  0
  1 31  1  0
  1 32  1  0
  3 33  1  0
  5 34  1  0
  7 35  1  0
  7 36  1  0
  8 37  1  0
 10 38  1  0
 11 39  1  0
 13 40  1  0
 14 41  1  0
 15 42  1  0
 21 43  1  0
 22 44  1  0
 22 45  1  0
 23 46  1  0
 23 47  1  0
 25 48  1  0
 26 49  1  0
 27 50  1  0
 28 51  1  0
M  END
>  <smiles>  (10) 
Cn1cncc1CNc1ccc2cccnc2c1C(=O)NCCc1ccccn1

>  <score_type>  (10) 
oracle

>  <origin>  (10) 
adg

>  <m_score__min__energy>  (10) 
-8.25

>  <m_primary>  (10) 
energy

$$$$
11:0
     RDKit          3D

 84 86  0  0  1  0  0  0  0  0999 V2000
   63.3580   33.7910   47.8330 C   0  0  0  0  0  0  0  0  0  0  0  0
   62.9570   34.0320   46.3620 C   0  0  0  0  0  0  0  0  0  0  0  0
   61.6410   33.7540   46.1570 O   0  0  0  0  0  0  0  0  0  0  0  0
   60.7130   34.5260   46.7650 C   0  0  0  0  0  0  0  0  0  0  0  0
   59.9570   34.0290   47.8950 C   0  0  0  0  0  0  0  0  0  0  0  0
   58.6750   34.1230   47.8270 O   0  0  0  0  0  0  0  0  0  0  0  0
   60.4470   33.4420   49.0820 N   0  0  0  0  0  0  0  0  0  0  0  0
   59.4890   33.0390   50.0540 C   0  0  0  0  0  0  0  0  0  0  0  0
   59.4570   33.8240   51.2150 C   0  0  0  0  0  0  0  0  0  0  0  0
   58.5710   33.5550   52.2350 C   0  0  0  0  0  0  0  0  0  0  0  0
   57.7240   32.4870   52.0670 C   0  0  0  0  0  0  0  0  0  0  0  0
   57.7570   31.7300   50.9460 C   0  0  0  0  0  0  0  0  0  0  0  0
   58.6450   31.9670   49.8760 C   0  0  0  0  0  0  0  0  0  0  0  0
   58.5710   31.1390   48.8290 O   0  0  0  0  0  0  0  0  0  0  0  0
   58.8090   31.2160   47.4880 C   0  0  2  0  0  0  0  0  0  0  0  0
   57.8230   30.6550   46.7030 O   0  0  0  0  0  0  0  0  0  0  0  0
   57.7640   29.3160   46.5930 C   0  0  1  0  0  0  0  0  0  0  0  0
   57.2890   29.0430   45.1180 C   0  0  0  0  0  0  0  0  0  0  0  0
   56.1970   29.7720   44.8450 O   0  0  0  0  0  0  0  0  0  0  0  0
   55.7990   30.0870   43.6400 C   0  0  0  0  0  0  0  0  0  0  0  0
   56.6700   30.4250   42.4940 C   0  0  0  0  0  0  0  0  0  0  0  0
   57.3840   31.7230   42.5280 C   0  0  0  0  0  0  0  0  0  0  0  0
   58.1710   31.9110   43.8160 C   0  0  0  0  0  0  0  0  0  0  0  0
   57.7610   33.1260   44.5670 C   0  0  0  0  0  0  0  0  0  0  0  0
   56.8680   32.7890   45.6800 N   0  0  0  0  0  0  0  0  0  0  0  0
   58.9880   28.5060   46.7750 C   0  0  2  0  0  0  0  0  0  0  0  0
   58.6440   27.3680   47.5380 O   0  0  0  0  0  0  0  0  0  0  0  0
   59.1120   26.1890   47.0100 C   0  0  0  0  0  0  0  0  0  0  0  0
   59.1520   26.4150   45.4930 C   0  0  0  0  0  0  0  0  0  0  0  0
   57.7840   26.0230   44.9850 C   0  0  0  0  0  0  0  0  0  0  0  0
   57.0050   25.5830   46.2180 C   0  0  0  0  0  0  0  0  0  0  0  0
   58.1390   25.0370   47.0800 C   0  0  0  0  0  0  0  0  0  0  0  0
   60.0910   29.1820   47.5730 C   0  0  2  0  0  0  0  0  0  0  0  0
   59.7040   29.1140   48.9090 O   0  0  0  0  0  0  0  0  0  0  0  0
   60.7380   28.9580   49.7980 C   0  0  0  0  0  0  0  0  0  0  0  0
   60.1600   30.6110   47.0790 C   0  0  2  0  0  0  0  0  0  0  0  0
   61.2080   31.3340   47.5900 O   0  0  0  0  0  0  0  0  0  0  0  0
   62.4520   30.8480   47.1300 C   0  0  0  0  0  0  0  0  0  0  0  0
   62.6062   34.2429   48.4967 H   0  0  0  0  0  0  0  0  0  0  0  0
   63.4141   32.7094   48.0253 H   0  0  0  0  0  0  0  0  0  0  0  0
   64.3395   34.2490   48.0253 H   0  0  0  0  0  0  0  0  0  0  0  0
   63.1447   35.0855   46.1073 H   0  0  0  0  0  0  0  0  0  0  0  0
   63.5564   33.3651   45.7248 H   0  0  0  0  0  0  0  0  0  0  0  0
   61.2356   35.4300   47.1110 H   0  0  0  0  0  0  0  0  0  0  0  0
   59.9428   34.6377   45.9876 H   0  0  0  0  0  0  0  0  0  0  0  0
   61.4490   33.2780   49.2710 H   0  0  0  0  0  0  0  0  0  0  0  0
   60.1524   34.6706   51.3134 H   0  0  0  0  0  0  0  0  0  0  0  0
   58.5431   34.1702   53.1464 H   0  0  0  0  0  0  0  0  0  0  0  0
   57.0032   32.2417   52.8609 H   0  0  0  0  0  0  0  0  0  0  0  0
   57.0555   30.8866   50.8649 H   0  0  0  0  0  0  0  0  0  0  0  0
   58.8210   32.3000   47.3012 H   0  0  0  0  0  0  0  0  0  0  0  0
   57.1165   29.0040   47.4257 H   0  0  0  0  0  0  0  0  0  0  0  0
   58.0936   29.3168   44.4197 H   0  0  0  0  0  0  0  0  0  0  0  0
   57.0469   27.9756   45.0086 H   0  0  0  0  0  0  0  0  0  0  0  0
   55.1990   29.2293   43.3020 H   0  0  0  0  0  0  0  0  0  0  0  0
   55.3640   31.0771   43.8410 H   0  0  0  0  0  0  0  0  0  0  0  0
   57.4305   29.6342   42.4155 H   0  0  0  0  0  0  0  0  0  0  0  0
   55.9828   30.5092   41.6392 H   0  0  0  0  0  0  0  0  0  0  0  0
   58.0803   31.7669   41.6775 H   0  0  0  0  0  0  0  0  0  0  0  0
   56.6323   32.5241   42.4710 H   0  0  0  0  0  0  0  0  0  0  0  0
   58.0124   31.0311   44.4568 H   0  0  0  0  0  0  0  0  0  0  0  0
   59.2300   32.0306   43.5436 H   0  0  0  0  0  0  0  0  0  0  0  0
   58.6590   33.6209   44.9654 H   0  0  0  0  0  0  0  0  0  0  0  0
   57.2213   33.7934   43.8791 H   0  0  0  0  0  0  0  0  0  0  0  0
   56.4220   31.8430   45.5430 H   0  0  0  0  0  0  0  0  0  0  0  0
   57.4150   32.8310   46.5510 H   0  0  0  0  0  0  0  0  0  0  0  0
   59.3603   28.3047   45.7597 H   0  0  0  0  0  0  0  0  0  0  0  0
   60.0409   25.9544   47.5505 H   0  0  0  0  0  0  0  0  0  0  0  0
   59.3562   27.4722   45.2680 H   0  0  0  0  0  0  0  0  0  0  0  0
   59.9472   25.8239   45.0153 H   0  0  0  0  0  0  0  0  0  0  0  0
   57.2914   26.8813   44.5046 H   0  0  0  0  0  0  0  0  0  0  0  0
   57.8412   25.2242   44.2309 H   0  0  0  0  0  0  0  0  0  0  0  0
   56.4980   26.4305   46.7024 H   0  0  0  0  0  0  0  0  0  0  0  0
   56.1944   24.8668   46.0178 H   0  0  0  0  0  0  0  0  0  0  0  0
   57.8094   24.8451   48.1118 H   0  0  0  0  0  0  0  0  0  0  0  0
   58.5457   24.0708   46.7467 H   0  0  0  0  0  0  0  0  0  0  0  0
   61.0813   28.7162   47.4614 H   0  0  0  0  0  0  0  0  0  0  0  0
   60.3500   29.0165   50.8256 H   0  0  0  0  0  0  0  0  0  0  0  0
   61.2124   27.9781   49.6404 H   0  0  0  0  0  0  0  0  0  0  0  0
   61.4803   29.7543   49.6404 H   0  0  0  0  0  0  0  0  0  0  0  0
   60.3414   30.6371   45.9944 H   0  0  0  0  0  0  0  0  0  0  0  0
   63.0895   30.5990   47.9912 H   0  0  0  0  0  0  0  0  0  0  0  0
   62.2908   29.9467   46.5203 H   0  0  0  0  0  0  0  0  0  0  0  0
   62.9445   31.6199   46.5203 H   0  0  0  0  0  0  0  0  0  0  0  0
  1  2  1  0
  2  3  1  0
  3  4  1  0
  4  5  1  0
  5  6  2  0
  5  7  1  0
  7  8  1  0
  8  9  2  0
  9 10  1  0
 10 11  2  0
 11 12  1  0
 12 13  2  0
 13 14  1  0
 14 15  1  0
 15 16  1  0
 16 17  1  0
 17 18  1  0
 18 19  1  0
 19 20  1  0
 20 21  1  0
 21 22  1  0
 22 23  1  0
 23 24  1  0
 24 25  1  0
 17 26  1  0
 26 27  1  0
 27 28  1  0
 28 29  1  0
 29 30  1  0
 30 31  1  0
 31 32  1  0
 26 33  1  0
 33 34  1  0
 34 35  1  0
 33 36  1  0
 36 37  1  0
 37 38  1  0
 13  8  1  0
 36 15  1  0
 32 28  1  0
  1 39  1  0
  1 40  1  0
  1 41  1  0
  2 42  1  0
  2 43  1  0
  4 44  1  0
  4 45  1  0
  7 46  1  0
  9 47  1  0
 10 48  1  0
 11 49  1  0
 12 50  1  0
 15 51  1  6
 17 52  1  1
 18 53  1  0
 18 54  1  0
 20 55  1  0
 20 56  1  0
 21 57  1  0
 21 58  1  0
 22 59  1  0
 22 60  1  0
 23 61  1  0
 23 62  1  0
 24 63  1  0
 24 64  1  0
 25 65  1  0
 25 66  1  0
 26 67  1  6
 28 68  1  0
 29 69  1  0
 29 70  1  0
 30 71  1  0
 30 72  1  0
 31 73  1  0
 31 74  1  0
 32 75  1  0
 32 76  1  0
 33 77  1  1
 35 78  1  0
 35 79  1  0
 35 80  1  0
 36 81  1  6
 38 82  1  0
 38 83  1  0
 38 84  1  0
M  END
>  <smiles>  (11) 
CCOCC(=O)Nc1ccccc1OC1OC(COCCCCCN)C(OC2CCCC2)C(OC)C1OC

>  <score_type>  (11) 
oracle

>  <origin>  (11) 
adg

>  <m_score__min__energy>  (11) 
-7.5199999999999996

>  <m_primary>  (11) 
energy

$$$$
12:0
     RDKit          3D

 55 57  0  0  0  0  0  0  0  0999 V2000
   62.4410   33.5950   47.1000 C   0  0  0  0  0  0  0  0  0  0  0  0
   61.1500   34.1840   47.6140 C   0  0  0  0  0  0  0  0  0  0  0  0
   60.0060   33.4330   47.1470 N   0  0  0  0  0  0  0  0  0  0  0  0
   59.2790   34.2030   46.1920 C   0  0  0  0  0  0  0  0  0  0  0  0
   57.8440   33.8410   46.0070 C   0  0  0  0  0  0  0  0  0  0  0  0
   57.4000   33.8770   44.5410 C   0  0  0  0  0  0  0  0  0  0  0  0
   58.1350   32.4750   43.6950 S   0  0  0  0  0  0  0  0  0  0  0  0
   57.2900   31.0010   44.2890 C   0  0  0  0  0  0  0  0  0  0  0  0
   56.0000   30.7850   44.4960 N   0  0  0  0  0  0  0  0  0  0  0  0
   55.8690   29.5290   44.9460 N   0  0  0  0  0  0  0  0  0  0  0  0
   57.0630   28.9260   45.0330 C   0  0  0  0  0  0  0  0  0  0  0  0
   57.4110   27.5790   45.4650 C   0  0  0  0  0  0  0  0  0  0  0  0
   57.5820   27.2890   46.7990 C   0  0  0  0  0  0  0  0  0  0  0  0
   57.9130   26.0090   47.2280 C   0  0  0  0  0  0  0  0  0  0  0  0
   58.0620   25.0430   46.2450 C   0  0  0  0  0  0  0  0  0  0  0  0
   57.9010   25.2890   44.9140 C   0  0  0  0  0  0  0  0  0  0  0  0
   58.0670   24.2790   44.0150 F   0  0  0  0  0  0  0  0  0  0  0  0
   57.5700   26.5780   44.5020 C   0  0  0  0  0  0  0  0  0  0  0  0
   57.9510   29.8730   44.6130 N   0  0  0  0  0  0  0  0  0  0  0  0
   59.4060   29.6700   44.5350 C   0  0  0  0  0  0  0  0  0  0  0  0
   59.2110   32.8520   48.1960 C   0  0  0  0  0  0  0  0  0  0  0  0
   59.4710   31.4080   48.4060 C   0  0  0  0  0  0  0  0  0  0  0  0
   58.9260   30.6380   49.3860 C   0  0  0  0  0  0  0  0  0  0  0  0
   59.2660   29.2820   49.4630 C   0  0  0  0  0  0  0  0  0  0  0  0
   60.1400   28.7220   48.5630 C   0  0  0  0  0  0  0  0  0  0  0  0
   60.5400   27.2880   48.5910 C   0  0  0  0  0  0  0  0  0  0  0  0
   60.7050   29.4950   47.5580 C   0  0  0  0  0  0  0  0  0  0  0  0
   60.3610   30.8150   47.5000 C   0  0  0  0  0  0  0  0  0  0  0  0
   63.0760   33.3053   47.9502 H   0  0  0  0  0  0  0  0  0  0  0  0
   62.2212   32.7081   46.4876 H   0  0  0  0  0  0  0  0  0  0  0  0
   62.9668   34.3423   46.4876 H   0  0  0  0  0  0  0  0  0  0  0  0
   61.1629   34.1700   48.7138 H   0  0  0  0  0  0  0  0  0  0  0  0
   61.0652   35.2144   47.2383 H   0  0  0  0  0  0  0  0  0  0  0  0
   59.3212   35.2558   46.5081 H   0  0  0  0  0  0  0  0  0  0  0  0
   59.7602   34.0003   45.2238 H   0  0  0  0  0  0  0  0  0  0  0  0
   57.6864   32.8241   46.3958 H   0  0  0  0  0  0  0  0  0  0  0  0
   57.2447   34.5866   46.5500 H   0  0  0  0  0  0  0  0  0  0  0  0
   56.3034   33.8134   44.4828 H   0  0  0  0  0  0  0  0  0  0  0  0
   57.7243   34.8166   44.0698 H   0  0  0  0  0  0  0  0  0  0  0  0
   57.4538   28.0887   47.5433 H   0  0  0  0  0  0  0  0  0  0  0  0
   58.0498   25.7744   48.2939 H   0  0  0  0  0  0  0  0  0  0  0  0
   58.3247   24.0212   46.5564 H   0  0  0  0  0  0  0  0  0  0  0  0
   57.4356   26.8050   43.4341 H   0  0  0  0  0  0  0  0  0  0  0  0
   59.8231   29.6118   45.5512 H   0  0  0  0  0  0  0  0  0  0  0  0
   59.6173   28.7337   43.9977 H   0  0  0  0  0  0  0  0  0  0  0  0
   59.8655   30.5127   43.9977 H   0  0  0  0  0  0  0  0  0  0  0  0
   59.4290   33.3847   49.1334 H   0  0  0  0  0  0  0  0  0  0  0  0
   58.1576   32.9500   47.8949 H   0  0  0  0  0  0  0  0  0  0  0  0
   58.2247   31.0766   50.1112 H   0  0  0  0  0  0  0  0  0  0  0  0
   58.8275   28.6567   50.2546 H   0  0  0  0  0  0  0  0  0  0  0  0
   60.6333   26.9537   49.6348 H   0  0  0  0  0  0  0  0  0  0  0  0
   59.7760   26.6842   48.0794 H   0  0  0  0  0  0  0  0  0  0  0  0
   61.5062   27.1668   48.0794 H   0  0  0  0  0  0  0  0  0  0  0  0
   61.4068   29.0584   46.8322 H   0  0  0  0  0  0  0  0  0  0  0  0
   60.8010   31.4396   46.7086 H   0  0  0  0  0  0  0  0  0  0  0  0
  1  2  1  0
  2  3  1  0
  3  4  1  0
  4  5  1  0
  5  6  1  0
  6  7  1  0
  7  8  1  0
  8  9  2  0
  9 10  1  0
 10 11  2  0
 11 12  1  0
 12 13  2  0
 13 14  1  0
 14 15  2  0
 15 16  1  0
 16 17  1  0
 16 18  2  0
 11 19  1  0
 19 20  1  0
  3 21  1  0
 21 22  1  0
 22 23  2  0
 23 24  1  0
 24 25  2  0
 25 26  1  0
 25 27  1  0
 27 28  2  0
 19  8  1  0
 28 22  1  0
 18 12  1  0
  1 29  1  0
  1 30  1  0
  1 31  1  0
  2 32  1  0
  2 33  1  0
  4 34  1  0
  4 35  1  0
  5 36  1  0
  5 37  1  0
  6 38  1  0
  6 39  1  0
 13 40  1  0
 14 41  1  0
 15 42  1  0
 18 43  1  0
 20 44  1  0
 20 45  1  0
 20 46  1  0
 21 47  1  0
 21 48  1  0
 23 49  1  0
 24 50  1  0
 26 51  1  0
 26 52  1  0
 26 53  1  0
 27 54  1  0
 28 55  1  0
M  END
>  <smiles>  (12) 
CCN(CCCSc1nnc(-c2cccc(F)c2)n1C)Cc1ccc(C)cc1

>  <score_type>  (12) 
oracle

>  <origin>  (12) 
adg

>  <m_score__min__energy>  (12) 
-8.5299999999999994

>  <m_primary>  (12) 
energy

$$$$
14:0
     RDKit          3D

 26 28  0  0  0  0  0  0  0  0999 V2000
   56.2670   29.8280   43.2240 C   0  0  0  0  0  0  0  0  0  0  0  0
   56.2420   30.4390   44.4980 O   0  0  0  0  0  0  0  0  0  0  0  0
   57.4280   30.7760   45.1150 C   0  0  0  0  0  0  0  0  0  0  0  0
   58.3410   29.8910   45.6060 C   0  0  0  0  0  0  0  0  0  0  0  0
   59.5120   30.2490   46.2150 C   0  0  0  0  0  0  0  0  0  0  0  0
   59.8640   31.6160   46.3800 C   0  0  0  0  0  0  0  0  0  0  0  0
   58.9190   32.4720   45.8720 C   0  0  0  0  0  0  0  0  0  0  0  0
   57.7550   32.1300   45.2670 C   0  0  0  0  0  0  0  0  0  0  0  0
   59.5630   34.1150   46.1860 S   0  0  0  0  0  0  0  0  0  0  0  0
   61.0820   33.4340   46.9930 C   0  0  0  0  0  0  0  0  0  0  0  0
   62.2540   33.8440   47.6000 C   0  0  0  0  0  0  0  0  0  0  0  0
   62.8580   32.6900   47.9340 N   0  0  0  0  0  0  0  0  0  0  0  0
   64.1400   32.6200   48.6060 C   0  0  0  0  0  0  0  0  0  0  0  0
   62.0950   31.6600   47.5480 C   0  0  0  0  0  0  0  0  0  0  0  0
   60.9430   32.1150   46.9390 N   0  0  0  0  0  0  0  0  0  0  0  0
   56.3117   28.7353   43.3422 H   0  0  0  0  0  0  0  0  0  0  0  0
   55.3570   30.0998   42.6690 H   0  0  0  0  0  0  0  0  0  0  0  0
   57.1518   30.1733   42.6690 H   0  0  0  0  0  0  0  0  0  0  0  0
   58.1214   28.8178   45.5058 H   0  0  0  0  0  0  0  0  0  0  0  0
   60.1921   29.4666   46.5829 H   0  0  0  0  0  0  0  0  0  0  0  0
   57.0723   32.9097   44.8982 H   0  0  0  0  0  0  0  0  0  0  0  0
   62.6088   34.8713   47.7697 H   0  0  0  0  0  0  0  0  0  0  0  0
   63.9842   32.6285   49.6949 H   0  0  0  0  0  0  0  0  0  0  0  0
   64.6555   31.6924   48.3166 H   0  0  0  0  0  0  0  0  0  0  0  0
   64.7534   33.4860   48.3166 H   0  0  0  0  0  0  0  0  0  0  0  0
   62.3502   30.6002   47.6954 H   0  0  0  0  0  0  0  0  0  0  0  0
  1  2  1  0
  2  3  1  0
  3  4  2  0
  4  5  1  0
  5  6  2  0
  6  7  1  0
  7  8  2  0
  7  9  1  0
  9 10  1  0
 10 11  2  0
 11 12  1  0
 12 13  1  0
 12 14  1  0
 14 15  2  0
  8  3  1  0
 15 10  1  0
 15  6  1  0
  1 16  1  0
  1 17  1  0
  1 18  1  0
  4 19  1  0
  5 20  1  0
  8 21  1  0
 11 22  1  0
 13 23  1  0
 13 24  1  0
 13 25  1  0
 14 26  1  0
M  CHG  1  15   1
M  END
>  <smiles>  (13) 
COc1ccc2c(c1)sc1cn(C)c[n+]12

>  <score_type>  (13) 
oracle

>  <origin>  (13) 
adg

>  <m_score__min__energy>  (13) 
-4.3799999999999999

>  <m_primary>  (13) 
energy

$$$$
15:0
     RDKit          3D

 61 63  0  0  0  0  0  0  0  0999 V2000
   56.2870   30.4820   42.6120 C   0  0  0  0  0  0  0  0  0  0  0  0
   55.5460   29.9970   43.8480 C   0  0  0  0  0  0  0  0  0  0  0  0
   56.3710   29.0450   44.4930 N   0  0  0  0  0  0  0  0  0  0  0  0
   57.6700   28.8100   43.8730 C   0  0  0  0  0  0  0  0  0  0  0  0
   58.6120   29.7910   44.4780 C   0  0  0  0  0  0  0  0  0  0  0  0
   58.0120   30.6800   45.4920 N   0  0  0  0  0  0  0  0  0  0  0  0
   58.7540   31.2170   46.5660 C   0  0  0  0  0  0  0  0  0  0  0  0
   59.0740   32.5790   46.4320 C   0  0  0  0  0  0  0  0  0  0  0  0
   58.6050   33.3050   45.3310 C   0  0  0  0  0  0  0  0  0  0  0  0
   58.8580   34.6230   45.1310 C   0  0  0  0  0  0  0  0  0  0  0  0
   59.6200   35.2900   46.0610 C   0  0  0  0  0  0  0  0  0  0  0  0
   60.0960   34.5760   47.1700 C   0  0  0  0  0  0  0  0  0  0  0  0
   59.8340   33.2480   47.3610 C   0  0  0  0  0  0  0  0  0  0  0  0
   60.2950   32.6000   48.4420 N   0  0  0  0  0  0  0  0  0  0  0  0
   61.0960   33.2080   49.4510 C   0  0  0  0  0  0  0  0  0  0  0  0
   59.9940   31.2760   48.6000 C   0  0  0  0  0  0  0  0  0  0  0  0
   60.4560   30.6520   49.7410 C   0  0  0  0  0  0  0  0  0  0  0  0
   60.1560   29.3320   49.9720 C   0  0  0  0  0  0  0  0  0  0  0  0
   59.3900   28.6820   49.0350 C   0  0  0  0  0  0  0  0  0  0  0  0
   58.9040   29.2660   47.8750 C   0  0  0  0  0  0  0  0  0  0  0  0
   58.0570   28.4860   47.0690 N   0  0  0  0  0  0  0  0  0  0  0  0
   58.1490   27.0120   47.2120 C   0  0  0  0  0  0  0  0  0  0  0  0
   56.9410   26.3330   46.6820 C   0  0  0  0  0  0  0  0  0  0  0  0
   56.0900   26.9970   46.1120 O   0  0  0  0  0  0  0  0  0  0  0  0
   56.8390   24.8630   46.8810 C   0  0  0  0  0  0  0  0  0  0  0  0
   55.4790   24.3940   46.7430 N   0  0  0  0  0  0  0  0  0  0  0  0
   55.1640   23.2420   47.5330 C   0  0  0  0  0  0  0  0  0  0  0  0
   55.0730   24.2300   45.3740 C   0  0  0  0  0  0  0  0  0  0  0  0
   59.2250   30.5840   47.6690 C   0  0  0  0  0  0  0  0  0  0  0  0
   57.1711   31.0606   42.9180 H   0  0  0  0  0  0  0  0  0  0  0  0
   56.6049   29.6166   42.0119 H   0  0  0  0  0  0  0  0  0  0  0  0
   55.6211   31.1196   42.0119 H   0  0  0  0  0  0  0  0  0  0  0  0
   55.3492   30.8424   44.5237 H   0  0  0  0  0  0  0  0  0  0  0  0
   54.5812   29.5479   43.5697 H   0  0  0  0  0  0  0  0  0  0  0  0
   55.9260   28.2070   44.8690 H   0  0  0  0  0  0  0  0  0  0  0  0
   58.0080   27.7833   44.0770 H   0  0  0  0  0  0  0  0  0  0  0  0
   57.6169   28.9315   42.7810 H   0  0  0  0  0  0  0  0  0  0  0  0
   59.4300   29.2310   44.9547 H   0  0  0  0  0  0  0  0  0  0  0  0
   58.9516   30.4409   43.6580 H   0  0  0  0  0  0  0  0  0  0  0  0
   56.9840   30.9770   45.3920 H   0  0  0  0  0  0  0  0  0  0  0  0
   57.9953   32.7758   44.5838 H   0  0  0  0  0  0  0  0  0  0  0  0
   58.4633   35.1449   44.2468 H   0  0  0  0  0  0  0  0  0  0  0  0
   59.8508   36.3585   45.9380 H   0  0  0  0  0  0  0  0  0  0  0  0
   60.7052   35.1062   47.9168 H   0  0  0  0  0  0  0  0  0  0  0  0
   60.7171   32.9204   50.4428 H   0  0  0  0  0  0  0  0  0  0  0  0
   62.1377   32.8712   49.3447 H   0  0  0  0  0  0  0  0  0  0  0  0
   61.0517   34.3020   49.3447 H   0  0  0  0  0  0  0  0  0  0  0  0
   61.0649   31.2123   50.4658 H   0  0  0  0  0  0  0  0  0  0  0  0
   60.5156   28.8145   50.8736 H   0  0  0  0  0  0  0  0  0  0  0  0
   59.1453   27.6252   49.2175 H   0  0  0  0  0  0  0  0  0  0  0  0
   57.3540   28.7500   46.3800 H   0  0  0  0  0  0  0  0  0  0  0  0
   59.0303   26.6545   46.6593 H   0  0  0  0  0  0  0  0  0  0  0  0
   58.2330   26.7759   48.2831 H   0  0  0  0  0  0  0  0  0  0  0  0
   57.4670   24.3582   46.1321 H   0  0  0  0  0  0  0  0  0  0  0  0
   57.1773   24.6327   47.9021 H   0  0  0  0  0  0  0  0  0  0  0  0
   55.2343   23.4989   48.6003 H   0  0  0  0  0  0  0  0  0  0  0  0
   54.1415   22.9079   47.3028 H   0  0  0  0  0  0  0  0  0  0  0  0
   55.8742   22.4342   47.3028 H   0  0  0  0  0  0  0  0  0  0  0  0
   54.0535   23.8182   45.3407 H   0  0  0  0  0  0  0  0  0  0  0  0
   55.0910   25.2059   44.8668 H   0  0  0  0  0  0  0  0  0  0  0  0
   55.7638   23.5404   44.8668 H   0  0  0  0  0  0  0  0  0  0  0  0
  1  2  1  0
  2  3  1  0
  3  4  1  0
  4  5  1  0
  5  6  1  0
  6  7  1  0
  7  8  2  0
  8  9  1  0
  9 10  2  0
 10 11  1  0
 11 12  2  0
 12 13  1  0
 13 14  2  0
 14 15  1  0
 14 16  1  0
 16 17  2  0
 17 18  1  0
 18 19  2  0
 19 20  1  0
 20 21  1  0
 21 22  1  0
 22 23  1  0
 23 24  2  0
 23 25  1  0
 25 26  1  0
 26 27  1  0
 26 28  1  0
 20 29  2  0
 29  7  1  0
 13  8  1  0
 29 16  1  0
  1 30  1  0
  1 31  1  0
  1 32  1  0
  2 33  1  0
  2 34  1  0
  3 35  1  0
  4 36  1  0
  4 37  1  0
  5 38  1  0
  5 39  1  0
  6 40  1  0
  9 41  1  0
 10 42  1  0
 11 43  1  0
 12 44  1  0
 15 45  1  0
 15 46  1  0
 15 47  1  0
 17 48  1  0
 18 49  1  0
 19 50  1  0
 21 51  1  0
 22 52  1  0
 22 53  1  0
 25 54  1  0
 25 55  1  0
 27 56  1  0
 27 57  1  0
 27 58  1  0
 28 59  1  0
 28 60  1  0
 28 61  1  0
M  CHG  1  14   1
M  END
>  <smiles>  (14) 
CCNCCNc1c2ccccc2[n+](C)c2cccc(NCC(=O)CN(C)C)c12

>  <score_type>  (14) 
oracle

>  <origin>  (14) 
adg

>  <m_score__min__energy>  (14) 
-5.9100000000000001

>  <m_primary>  (14) 
energy

$$$$
16:0
     RDKit          3D

 48 49  0  0  0  0  0  0  0  0999 V2000
   58.9620   29.9040   46.5080 C   0  0  0  0  0  0  0  0  0  0  0  0
   60.4140   30.2710   46.3410 C   0  0  0  0  0  0  0  0  0  0  0  0
   60.6010   31.6000   46.7260 O   0  0  0  0  0  0  0  0  0  0  0  0
   61.7490   32.1380   47.2780 C   0  0  0  0  0  0  0  0  0  0  0  0
   62.4060   33.2380   46.7700 C   0  0  0  0  0  0  0  0  0  0  0  0
   63.5590   33.7030   47.4030 C   0  0  0  0  0  0  0  0  0  0  0  0
   64.0650   33.0950   48.5290 C   0  0  0  0  0  0  0  0  0  0  0  0
   63.4050   31.9920   49.0390 C   0  0  0  0  0  0  0  0  0  0  0  0
   62.2730   31.5450   48.4070 C   0  0  0  0  0  0  0  0  0  0  0  0
   61.6310   30.4360   48.9400 O   0  0  0  0  0  0  0  0  0  0  0  0
   61.4630   30.2600   50.3340 C   0  0  0  0  0  0  0  0  0  0  0  0
   59.9950   30.4910   50.7220 C   0  0  0  0  0  0  0  0  0  0  0  0
   59.3780   31.1290   49.5870 N   0  0  0  0  0  0  0  0  0  0  0  0
   58.8120   32.4180   49.8640 C   0  0  0  0  0  0  0  0  0  0  0  0
   59.8850   33.3680   50.2920 C   0  0  0  0  0  0  0  0  0  0  0  0
   60.3170   34.2780   49.1640 C   0  0  0  0  0  0  0  0  0  0  0  0
   59.2490   34.9130   48.5120 O   0  0  0  0  0  0  0  0  0  0  0  0
   58.9270   34.4780   47.2250 C   0  0  0  0  0  0  0  0  0  0  0  0
   59.6010   34.9710   46.1110 C   0  0  0  0  0  0  0  0  0  0  0  0
   59.2630   34.5240   44.8510 C   0  0  0  0  0  0  0  0  0  0  0  0
   58.2680   33.5900   44.6300 C   0  0  0  0  0  0  0  0  0  0  0  0
   57.5940   33.0950   45.7360 C   0  0  0  0  0  0  0  0  0  0  0  0
   57.9380   33.5460   46.9920 C   0  0  0  0  0  0  0  0  0  0  0  0
   58.7201   29.8429   47.5793 H   0  0  0  0  0  0  0  0  0  0  0  0
   58.3329   30.6714   46.0333 H   0  0  0  0  0  0  0  0  0  0  0  0
   58.7731   28.9299   46.0333 H   0  0  0  0  0  0  0  0  0  0  0  0
   61.0335   29.6154   46.9705 H   0  0  0  0  0  0  0  0  0  0  0  0
   60.7066   30.1477   45.2878 H   0  0  0  0  0  0  0  0  0  0  0  0
   62.0240   33.7456   45.8720 H   0  0  0  0  0  0  0  0  0  0  0  0
   64.0783   34.5805   46.9903 H   0  0  0  0  0  0  0  0  0  0  0  0
   64.9753   33.4783   49.0132 H   0  0  0  0  0  0  0  0  0  0  0  0
   63.7820   31.4813   49.9373 H   0  0  0  0  0  0  0  0  0  0  0  0
   61.7552   29.2359   50.6092 H   0  0  0  0  0  0  0  0  0  0  0  0
   62.0948   30.9856   50.8672 H   0  0  0  0  0  0  0  0  0  0  0  0
   59.5011   29.5317   50.9360 H   0  0  0  0  0  0  0  0  0  0  0  0
   59.9110   31.1110   51.6267 H   0  0  0  0  0  0  0  0  0  0  0  0
   59.9820   31.2210   48.7540 H   0  0  0  0  0  0  0  0  0  0  0  0
   58.3246   32.8042   48.9566 H   0  0  0  0  0  0  0  0  0  0  0  0
   58.0728   32.3209   50.6728 H   0  0  0  0  0  0  0  0  0  0  0  0
   59.5045   33.9843   51.1199 H   0  0  0  0  0  0  0  0  0  0  0  0
   60.7579   32.7767   50.6056 H   0  0  0  0  0  0  0  0  0  0  0  0
   60.9814   35.0515   49.5767 H   0  0  0  0  0  0  0  0  0  0  0  0
   60.8210   33.6474   48.4168 H   0  0  0  0  0  0  0  0  0  0  0  0
   60.4013   35.7153   46.2356 H   0  0  0  0  0  0  0  0  0  0  0  0
   59.8082   34.9277   43.9851 H   0  0  0  0  0  0  0  0  0  0  0  0
   58.0199   33.2517   43.6132 H   0  0  0  0  0  0  0  0  0  0  0  0
   56.7936   32.3506   45.6123 H   0  0  0  0  0  0  0  0  0  0  0  0
   57.3931   33.1397   47.8569 H   0  0  0  0  0  0  0  0  0  0  0  0
  1  2  1  0
  2  3  1  0
  3  4  1  0
  4  5  2  0
  5  6  1  0
  6  7  2  0
  7  8  1  0
  8  9  2  0
  9 10  1  0
 10 11  1  0
 11 12  1  0
 12 13  1  0
 13 14  1  0
 14 15  1  0
 15 16  1  0
 16 17  1  0
 17 18  1  0
 18 19  2  0
 19 20  1  0
 20 21  2  0
 21 22  1  0
 22 23  2  0
  9  4  1  0
 23 18  1  0
  1 24  1  0
  1 25  1  0
  1 26  1  0
  2 27  1  0
  2 28  1  0
  5 29  1  0
  6 30  1  0
  7 31  1  0
  8 32  1  0
 11 33  1  0
 11 34  1  0
 12 35  1  0
 12 36  1  0
 13 37  1  0
 14 38  1  0
 14 39  1  0
 15 40  1  0
 15 41  1  0
 16 42  1  0
 16 43  1  0
 19 44  1  0
 20 45  1  0
 21 46  1  0
 22 47  1  0
 23 48  1  0
M  END
>  <smiles>  (15) 
CCOc1ccccc1OCCNCCCOc1ccccc1

>  <score_type>  (15) 
oracle

>  <origin>  (15) 
adg

>  <m_score__min__energy>  (15) 
-7.0499999999999998

>  <m_primary>  (15) 
energy

$$$$
17:0
     RDKit          3D

 42 44  0  0  0  0  0  0  0  0999 V2000
   59.2370   27.5680   46.9950 C   0  0  0  0  0  0  0  0  0  0  0  0
   57.7450   27.3440   47.0630 C   0  0  0  0  0  0  0  0  0  0  0  0
   57.2760   27.0400   45.7340 N   0  0  0  0  0  0  0  0  0  0  0  0
   57.6510   27.7030   44.5350 C   0  0  0  0  0  0  0  0  0  0  0  0
   57.4030   29.1630   44.5050 C   0  0  0  0  0  0  0  0  0  0  0  0
   58.1990   30.1750   44.1180 N   0  0  0  0  0  0  0  0  0  0  0  0
   57.5390   31.3520   44.2670 C   0  0  0  0  0  0  0  0  0  0  0  0
   58.0230   32.7280   43.9690 C   0  0  0  0  0  0  0  0  0  0  0  0
   57.6920   33.6770   45.1020 C   0  0  0  0  0  0  0  0  0  0  0  0
   58.5250   34.9320   44.9700 C   0  0  0  0  0  0  0  0  0  0  0  0
   59.8490   34.6690   45.6650 C   0  0  0  0  0  0  0  0  0  0  0  0
   59.6170   34.8400   47.0850 N   0  0  0  0  0  0  0  0  0  0  0  0
   58.5000   34.0030   47.4580 C   0  0  0  0  0  0  0  0  0  0  0  0
   58.1370   32.9970   46.3900 C   0  0  0  0  0  0  0  0  0  0  0  0
   56.3170   30.9970   44.7580 N   0  0  0  0  0  0  0  0  0  0  0  0
   56.2620   29.7030   44.8890 O   0  0  0  0  0  0  0  0  0  0  0  0
   56.3300   25.9560   45.6280 C   0  0  0  0  0  0  0  0  0  0  0  0
   56.6200   24.6600   45.3550 N   0  0  0  0  0  0  0  0  0  0  0  0
   55.4500   23.9960   45.3500 C   0  0  0  0  0  0  0  0  0  0  0  0
   54.4620   24.9170   45.6230 C   0  0  0  0  0  0  0  0  0  0  0  0
   55.0360   26.1070   45.7880 O   0  0  0  0  0  0  0  0  0  0  0  0
   59.6454   27.6293   48.0145 H   0  0  0  0  0  0  0  0  0  0  0  0
   59.7095   26.7307   46.4605 H   0  0  0  0  0  0  0  0  0  0  0  0
   59.4428   28.5071   46.4605 H   0  0  0  0  0  0  0  0  0  0  0  0
   57.5247   26.5034   47.7374 H   0  0  0  0  0  0  0  0  0  0  0  0
   57.2421   28.2434   47.4478 H   0  0  0  0  0  0  0  0  0  0  0  0
   58.7278   27.5397   44.3808 H   0  0  0  0  0  0  0  0  0  0  0  0
   57.0177   27.2745   43.7442 H   0  0  0  0  0  0  0  0  0  0  0  0
   59.1136   32.7030   43.8277 H   0  0  0  0  0  0  0  0  0  0  0  0
   57.5242   33.0849   43.0559 H   0  0  0  0  0  0  0  0  0  0  0  0
   56.6198   33.9225   45.0915 H   0  0  0  0  0  0  0  0  0  0  0  0
   58.6961   35.1604   43.9077 H   0  0  0  0  0  0  0  0  0  0  0  0
   58.0101   35.7913   45.4244 H   0  0  0  0  0  0  0  0  0  0  0  0
   60.1886   33.6435   45.4575 H   0  0  0  0  0  0  0  0  0  0  0  0
   60.6272   35.3586   45.3061 H   0  0  0  0  0  0  0  0  0  0  0  0
   59.3150   35.8290   47.2290 H   0  0  0  0  0  0  0  0  0  0  0  0
   58.7604   33.4595   48.3782 H   0  0  0  0  0  0  0  0  0  0  0  0
   57.6293   34.6594   47.6030 H   0  0  0  0  0  0  0  0  0  0  0  0
   59.0159   32.3707   46.1770 H   0  0  0  0  0  0  0  0  0  0  0  0
   57.2998   32.3887   46.7630 H   0  0  0  0  0  0  0  0  0  0  0  0
   55.3087   22.9212   45.1633 H   0  0  0  0  0  0  0  0  0  0  0  0
   53.3848   24.7055   45.6926 H   0  0  0  0  0  0  0  0  0  0  0  0
  1  2  1  0
  2  3  1  0
  3  4  1  0
  4  5  1  0
  5  6  2  0
  6  7  1  0
  7  8  1  0
  8  9  1  0
  9 10  1  0
 10 11  1  0
 11 12  1  0
 12 13  1  0
 13 14  1  0
  7 15  2  0
 15 16  1  0
  3 17  1  0
 17 18  2  0
 18 19  1  0
 19 20  2  0
 20 21  1  0
 16  5  1  0
 21 17  1  0
 14  9  1  0
  1 22  1  0
  1 23  1  0
  1 24  1  0
  2 25  1  0
  2 26  1  0
  4 27  1  0
  4 28  1  0
  8 29  1  0
  8 30  1  0
  9 31  1  0
 10 32  1  0
 10 33  1  0
 11 34  1  0
 11 35  1  0
 12 36  1  0
 13 37  1  0
 13 38  1  0
 14 39  1  0
 14 40  1  0
 19 41  1  0
 20 42  1  0
M  END
>  <smiles>  (16) 
CCN(Cc1nc(CC2CCNCC2)no1)c1ncco1

>  <score_type>  (16) 
oracle

>  <origin>  (16) 
adg

>  <m_score__min__energy>  (16) 
-8.0299999999999994

>  <m_primary>  (16) 
energy

$$$$
18:0
     RDKit          3D

 33 35  0  0  0  0  0  0  0  0999 V2000
   55.6460   24.1680   44.8960 C   0  0  0  0  0  0  0  0  0  0  0  0
   54.6350   25.0460   45.6370 C   0  0  0  0  0  0  0  0  0  0  0  0
   55.2650   26.3340   45.9130 N   0  0  0  0  0  0  0  0  0  0  0  0
   56.6770   26.3270   45.5720 C   0  0  0  0  0  0  0  0  0  0  0  0
   57.2970   27.6500   45.9400 C   0  0  0  0  0  0  0  0  0  0  0  0
   58.1150   27.8280   47.0430 C   0  0  0  0  0  0  0  0  0  0  0  0
   58.5290   29.1520   47.1040 C   0  0  0  0  0  0  0  0  0  0  0  0
   57.9690   29.8280   46.0250 C   0  0  0  0  0  0  0  0  0  0  0  0
   58.0420   31.1130   45.6180 N   0  0  0  0  0  0  0  0  0  0  0  0
   58.7880   31.9430   46.3540 C   0  0  0  0  0  0  0  0  0  0  0  0
   58.9180   33.2730   46.0140 C   0  0  0  0  0  0  0  0  0  0  0  0
   59.9830   34.4310   47.0830 Br  0  0  0  0  0  0  0  0  0  0  0  0
   58.2440   33.7010   44.8810 C   0  0  0  0  0  0  0  0  0  0  0  0
   57.4760   32.8030   44.1360 C   0  0  0  0  0  0  0  0  0  0  0  0
   57.3700   31.4750   44.5110 C   0  0  0  0  0  0  0  0  0  0  0  0
   56.6060   30.5730   43.7780 C   0  0  0  0  0  0  0  0  0  0  0  0
   56.4930   29.2370   44.1510 C   0  0  0  0  0  0  0  0  0  0  0  0
   57.1770   28.8570   45.2790 C   0  0  0  0  0  0  0  0  0  0  0  0
   56.2674   23.6284   45.6259 H   0  0  0  0  0  0  0  0  0  0  0  0
   55.1097   23.4441   44.2648 H   0  0  0  0  0  0  0  0  0  0  0  0
   56.2876   24.8004   44.2648 H   0  0  0  0  0  0  0  0  0  0  0  0
   53.7422   25.1946   45.0118 H   0  0  0  0  0  0  0  0  0  0  0  0
   54.3297   24.5632   46.5771 H   0  0  0  0  0  0  0  0  0  0  0  0
   54.7980   27.0910   45.3580 H   0  0  0  0  0  0  0  0  0  0  0  0
   57.1821   25.5207   46.1241 H   0  0  0  0  0  0  0  0  0  0  0  0
   56.7888   26.1617   44.4903 H   0  0  0  0  0  0  0  0  0  0  0  0
   58.3938   27.0419   47.7602 H   0  0  0  0  0  0  0  0  0  0  0  0
   59.1848   29.5895   47.8711 H   0  0  0  0  0  0  0  0  0  0  0  0
   59.3063   31.5589   47.2449 H   0  0  0  0  0  0  0  0  0  0  0  0
   58.3142   34.7529   44.5670 H   0  0  0  0  0  0  0  0  0  0  0  0
   56.9478   33.1565   43.2382 H   0  0  0  0  0  0  0  0  0  0  0  0
   56.0772   30.9249   42.8799 H   0  0  0  0  0  0  0  0  0  0  0  0
   55.8878   28.5234   43.5727 H   0  0  0  0  0  0  0  0  0  0  0  0
  1  2  1  0
  2  3  1  0
  3  4  1  0
  4  5  1  0
  5  6  2  0
  6  7  1  0
  7  8  2  0
  8  9  1  0
  9 10  1  0
 10 11  2  0
 11 12  1  0
 11 13  1  0
 13 14  2  0
 14 15  1  0
 15 16  2  0
 16 17  1  0
 17 18  2  0
 18  5  1  0
 18  8  1  0
 15  9  1  0
  1 19  1  0
  1 20  1  0
  1 21  1  0
  2 22  1  0
  2 23  1  0
  3 24  1  0
  4 25  1  0
  4 26  1  0
  6 27  1  0
  7 28  1  0
 10 29  1  0
 13 30  1  0
 14 31  1  0
 16 32  1  0
 17 33  1  0
M  END
>  <smiles>  (17) 
CCNCc1ccc2n3cc(Br)ccc3ccc1-2

>  <score_type>  (17) 
oracle

>  <origin>  (17) 
adg

>  <m_score__min__energy>  (17) 
-7.5499999999999998

>  <m_primary>  (17) 
energy

$$$$
19:0
     RDKit          3D

 55 57  0  0  1  0  0  0  0  0999 V2000
   58.8290   26.9220   47.4470 C   0  0  0  0  0  0  0  0  0  0  0  0
   60.0280   27.7920   47.2500 C   0  0  0  0  0  0  0  0  0  0  0  0
   59.6890   29.1800   47.2020 N   0  0  0  0  0  0  0  0  0  0  0  0
   60.4600   29.8510   46.2070 C   0  0  0  0  0  0  0  0  0  0  0  0
   59.5640   29.8250   44.9870 C   0  0  0  0  0  0  0  0  0  0  0  0
   58.1490   29.8000   45.4890 C   0  0  2  0  0  0  0  0  0  0  0  0
   57.4640   28.5940   44.8790 C   0  0  0  0  0  0  0  0  0  0  0  0
   57.3790   28.7460   43.3690 C   0  0  0  0  0  0  0  0  0  0  0  0
   56.4660   29.9510   43.1760 C   0  0  0  0  0  0  0  0  0  0  0  0
   56.8630   31.1330   43.9600 C   0  0  0  0  0  0  0  0  0  0  0  0
   57.4060   30.9750   45.2580 N   0  0  0  0  0  0  0  0  0  0  0  0
   58.1300   32.2120   45.5410 C   0  0  0  0  0  0  0  0  0  0  0  0
   57.7980   32.7110   46.9360 C   0  0  0  0  0  0  0  0  0  0  0  0
   58.5700   33.8240   47.3380 N   0  0  0  0  0  0  0  0  0  0  0  0
   59.2770   33.6420   48.5830 C   0  0  0  0  0  0  0  0  0  0  0  0
   60.3370   32.5740   48.4840 C   0  0  0  0  0  0  0  0  0  0  0  0
   61.4150   32.9540   47.1550 S   0  0  0  0  0  0  0  0  0  0  0  0
   62.9090   33.7620   47.6990 C   0  0  0  0  0  0  0  0  0  0  0  0
   60.5610   33.8250   45.9060 C   0  0  0  0  0  0  0  0  0  0  0  0
   59.3140   34.5170   46.3490 C   0  0  0  0  0  0  0  0  0  0  0  0
   58.2990   29.4650   46.9590 C   0  0  0  0  0  0  0  0  0  0  0  0
   58.6455   26.7888   48.5234 H   0  0  0  0  0  0  0  0  0  0  0  0
   57.9520   27.3953   46.9813 H   0  0  0  0  0  0  0  0  0  0  0  0
   59.0070   25.9415   46.9813 H   0  0  0  0  0  0  0  0  0  0  0  0
   60.7258   27.6269   48.0842 H   0  0  0  0  0  0  0  0  0  0  0  0
   60.4840   27.5233   46.2857 H   0  0  0  0  0  0  0  0  0  0  0  0
   60.6798   30.8850   46.5112 H   0  0  0  0  0  0  0  0  0  0  0  0
   61.4369   29.3771   46.0308 H   0  0  0  0  0  0  0  0  0  0  0  0
   59.7326   30.7227   44.3740 H   0  0  0  0  0  0  0  0  0  0  0  0
   59.7761   28.9465   44.3599 H   0  0  0  0  0  0  0  0  0  0  0  0
   58.0394   27.6883   45.1211 H   0  0  0  0  0  0  0  0  0  0  0  0
   56.4466   28.5137   45.2893 H   0  0  0  0  0  0  0  0  0  0  0  0
   58.3731   28.9344   42.9375 H   0  0  0  0  0  0  0  0  0  0  0  0
   57.0004   27.8412   42.8709 H   0  0  0  0  0  0  0  0  0  0  0  0
   56.4734   30.2239   42.1104 H   0  0  0  0  0  0  0  0  0  0  0  0
   55.4674   29.6545   43.5294 H   0  0  0  0  0  0  0  0  0  0  0  0
   57.6161   31.6700   43.3646 H   0  0  0  0  0  0  0  0  0  0  0  0
   55.9067   31.6431   44.1478 H   0  0  0  0  0  0  0  0  0  0  0  0
   59.2114   32.0233   45.4712 H   0  0  0  0  0  0  0  0  0  0  0  0
   57.8320   32.9761   44.8079 H   0  0  0  0  0  0  0  0  0  0  0  0
   56.7363   32.9978   46.9591 H   0  0  0  0  0  0  0  0  0  0  0  0
   58.0258   31.8919   47.6339 H   0  0  0  0  0  0  0  0  0  0  0  0
   59.7562   34.5924   48.8607 H   0  0  0  0  0  0  0  0  0  0  0  0
   58.5476   33.3251   49.3429 H   0  0  0  0  0  0  0  0  0  0  0  0
   60.9093   32.5355   49.4226 H   0  0  0  0  0  0  0  0  0  0  0  0
   59.8626   31.5974   48.3076 H   0  0  0  0  0  0  0  0  0  0  0  0
   62.9379   33.7776   48.7985 H   0  0  0  0  0  0  0  0  0  0  0  0
   63.7825   33.2134   47.3170 H   0  0  0  0  0  0  0  0  0  0  0  0
   62.9280   34.7934   47.3170 H   0  0  0  0  0  0  0  0  0  0  0  0
   61.2426   34.5837   45.4941 H   0  0  0  0  0  0  0  0  0  0  0  0
   60.2452   33.0704   45.1706 H   0  0  0  0  0  0  0  0  0  0  0  0
   59.5940   35.4995   46.7569 H   0  0  0  0  0  0  0  0  0  0  0  0
   58.6652   34.5845   45.4633 H   0  0  0  0  0  0  0  0  0  0  0  0
   57.9787   30.3197   47.5729 H   0  0  0  0  0  0  0  0  0  0  0  0
   57.6755   28.5980   47.2227 H   0  0  0  0  0  0  0  0  0  0  0  0
  1  2  1  0
  2  3  1  0
  3  4  1  0
  4  5  1  0
  5  6  1  0
  6  7  1  0
  7  8  1  0
  8  9  1  0
  9 10  1  0
 10 11  1  0
 11 12  1  0
 12 13  1  0
 13 14  1  0
 14 15  1  0
 15 16  1  0
 16 17  1  0
 17 18  1  0
 17 19  1  0
 19 20  1  0
  6 21  1  0
 21  3  1  0
  6 11  1  1
 20 14  1  0
  1 22  1  0
  1 23  1  0
  1 24  1  0
  2 25  1  0
  2 26  1  0
  4 27  1  0
  4 28  1  0
  5 29  1  0
  5 30  1  0
  7 31  1  0
  7 32  1  0
  8 33  1  0
  8 34  1  0
  9 35  1  0
  9 36  1  0
 10 37  1  0
 10 38  1  0
 12 39  1  0
 12 40  1  0
 13 41  1  0
 13 42  1  0
 15 43  1  0
 15 44  1  0
 16 45  1  0
 16 46  1  0
 18 47  1  0
 18 48  1  0
 18 49  1  0
 19 50  1  0
 19 51  1  0
 20 52  1  0
 20 53  1  0
 21 54  1  0
 21 55  1  0
M  CHG  1  17   1
M  END
>  <smiles>  (18) 
CCN1CCC2(CCCCN2CCN2CC[S+](C)CC2)C1

>  <score_type>  (18) 
oracle

>  <origin>  (18) 
adg

>  <m_score__min__energy>  (18) 
-6.2699999999999996

>  <m_primary>  (18) 
energy

$$$$
20:0
     RDKit          3D

 66 68  0  0  0  0  0  0  0  0999 V2000
   57.2200   31.8550   51.9740 C   0  0  0  0  0  0  0  0  0  0  0  0
   57.7900   31.3560   50.6260 C   0  0  0  0  0  0  0  0  0  0  0  0
   58.2610   30.0430   50.8650 N   0  0  0  0  0  0  0  0  0  0  0  0
   58.2210   29.5390   52.2010 C   0  0  0  0  0  0  0  0  0  0  0  0
   59.5620   29.5910   52.8910 C   0  0  0  0  0  0  0  0  0  0  0  0
   60.6880   29.7050   52.0050 N   0  0  0  0  0  0  0  0  0  0  0  0
   61.4760   28.4960   51.9790 C   0  0  0  0  0  0  0  0  0  0  0  0
   61.1390   27.5810   50.8580 C   0  0  0  0  0  0  0  0  0  0  0  0
   60.2350   28.0630   49.8710 N   0  0  0  0  0  0  0  0  0  0  0  0
   60.3860   27.4850   48.5520 C   0  0  0  0  0  0  0  0  0  0  0  0
   60.2600   28.5810   47.5230 C   0  0  0  0  0  0  0  0  0  0  0  0
   59.4670   29.6980   47.9020 N   0  0  0  0  0  0  0  0  0  0  0  0
   58.9920   30.7480   47.1160 C   0  0  0  0  0  0  0  0  0  0  0  0
   58.2350   30.6600   45.9790 C   0  0  0  0  0  0  0  0  0  0  0  0
   57.9010   29.4380   45.4690 C   0  0  0  0  0  0  0  0  0  0  0  0
   57.1570   29.2620   44.3260 C   0  0  0  0  0  0  0  0  0  0  0  0
   56.7060   30.3540   43.6260 C   0  0  0  0  0  0  0  0  0  0  0  0
   57.0380   31.6000   44.1310 C   0  0  0  0  0  0  0  0  0  0  0  0
   57.7850   31.7770   45.2770 C   0  0  0  0  0  0  0  0  0  0  0  0
   58.0800   33.0300   45.6930 N   0  0  0  0  0  0  0  0  0  0  0  0
   57.5680   34.1090   44.8910 C   0  0  0  0  0  0  0  0  0  0  0  0
   58.8160   33.1510   46.7920 C   0  0  0  0  0  0  0  0  0  0  0  0
   59.1450   34.4250   47.2240 C   0  0  0  0  0  0  0  0  0  0  0  0
   59.9280   34.6370   48.3630 C   0  0  0  0  0  0  0  0  0  0  0  0
   60.3940   33.5590   49.0850 C   0  0  0  0  0  0  0  0  0  0  0  0
   60.0760   32.2880   48.6670 C   0  0  0  0  0  0  0  0  0  0  0  0
   60.5200   31.1870   49.3510 O   0  0  0  0  0  0  0  0  0  0  0  0
   61.8900   30.9130   49.4730 C   0  0  0  0  0  0  0  0  0  0  0  0
   62.7610   31.5640   48.4340 C   0  0  0  0  0  0  0  0  0  0  0  0
   59.2890   32.0650   47.5280 C   0  0  0  0  0  0  0  0  0  0  0  0
   57.7651   31.3778   52.8017 H   0  0  0  0  0  0  0  0  0  0  0  0
   57.3363   32.9469   52.0396 H   0  0  0  0  0  0  0  0  0  0  0  0
   56.1531   31.5953   52.0396 H   0  0  0  0  0  0  0  0  0  0  0  0
   57.0025   31.3459   49.8581 H   0  0  0  0  0  0  0  0  0  0  0  0
   58.5933   32.0123   50.2600 H   0  0  0  0  0  0  0  0  0  0  0  0
   59.1800   29.8770   50.4110 H   0  0  0  0  0  0  0  0  0  0  0  0
   57.5048   30.1396   52.7810 H   0  0  0  0  0  0  0  0  0  0  0  0
   57.9203   28.4824   52.1453 H   0  0  0  0  0  0  0  0  0  0  0  0
   59.5671   30.4599   53.5655 H   0  0  0  0  0  0  0  0  0  0  0  0
   59.6775   28.6332   53.4194 H   0  0  0  0  0  0  0  0  0  0  0  0
   60.3250   29.8830   51.0380 H   0  0  0  0  0  0  0  0  0  0  0  0
   62.5362   28.7756   51.8909 H   0  0  0  0  0  0  0  0  0  0  0  0
   61.2580   27.9531   52.9105 H   0  0  0  0  0  0  0  0  0  0  0  0
   62.0789   27.3237   50.3476 H   0  0  0  0  0  0  0  0  0  0  0  0
   60.6166   26.7362   51.3306 H   0  0  0  0  0  0  0  0  0  0  0  0
   60.1360   29.0970   49.8670 H   0  0  0  0  0  0  0  0  0  0  0  0
   61.3748   27.0105   48.4674 H   0  0  0  0  0  0  0  0  0  0  0  0
   59.6080   26.7254   48.3858 H   0  0  0  0  0  0  0  0  0  0  0  0
   61.2718   28.9474   47.2948 H   0  0  0  0  0  0  0  0  0  0  0  0
   59.7441   28.1264   46.6644 H   0  0  0  0  0  0  0  0  0  0  0  0
   59.1900   29.7390   48.9420 H   0  0  0  0  0  0  0  0  0  0  0  0
   58.2476   28.5416   46.0041 H   0  0  0  0  0  0  0  0  0  0  0  0
   56.9232   28.2469   43.9725 H   0  0  0  0  0  0  0  0  0  0  0  0
   56.1097   30.2442   42.7082 H   0  0  0  0  0  0  0  0  0  0  0  0
   56.6887   32.4927   43.5915 H   0  0  0  0  0  0  0  0  0  0  0  0
   57.1896   34.9063   45.5476 H   0  0  0  0  0  0  0  0  0  0  0  0
   58.3729   34.5079   44.2561 H   0  0  0  0  0  0  0  0  0  0  0  0
   56.7500   33.7378   44.2561 H   0  0  0  0  0  0  0  0  0  0  0  0
   58.7806   35.2935   46.6558 H   0  0  0  0  0  0  0  0  0  0  0  0
   60.1715   35.6612   48.6820 H   0  0  0  0  0  0  0  0  0  0  0  0
   61.0112   33.7132   49.9824 H   0  0  0  0  0  0  0  0  0  0  0  0
   62.2211   31.2603   50.4628 H   0  0  0  0  0  0  0  0  0  0  0  0
   62.0012   29.8277   49.3327 H   0  0  0  0  0  0  0  0  0  0  0  0
   63.5472   32.1516   48.9305 H   0  0  0  0  0  0  0  0  0  0  0  0
   63.2241   30.7888   47.8058 H   0  0  0  0  0  0  0  0  0  0  0  0
   62.1487   32.2277   47.8058 H   0  0  0  0  0  0  0  0  0  0  0  0
  1  2  1  0
  2  3  1  0
  3  4  1  0
  4  5  1  0
  5  6  1  0
  6  7  1  0
  7  8  1  0
  8  9  1  0
  9 10  1  0
 10 11  1  0
 11 12  1  0
 12 13  1  0
 13 14  2  0
 14 15  1  0
 15 16  2  0
 16 17  1  0
 17 18  2  0
 18 19  1  0
 19 20  2  0
 20 21  1  0
 20 22  1  0
 22 23  2  0
 23 24  1  0
 24 25  2  0
 25 26  1  0
 26 27  1  0
 27 28  1  0
 28 29  1  0
 26 30  2  0
 30 13  1  0
 19 14  1  0
 30 22  1  0
  1 31  1  0
  1 32  1  0
  1 33  1  0
  2 34  1  0
  2 35  1  0
  3 36  1  0
  4 37  1  0
  4 38  1  0
  5 39  1  0
  5 40  1  0
  6 41  1  0
  7 42  1  0
  7 43  1  0
  8 44  1  0
  8 45  1  0
  9 46  1  0
 10 47  1  0
 10 48  1  0
 11 49  1  0
 11 50  1  0
 12 51  1  0
 15 52  1  0
 16 53  1  0
 17 54  1  0
 18 55  1  0
 21 56  1  0
 21 57  1  0
 21 58  1  0
 23 59  1  0
 24 60  1  0
 25 61  1  0
 28 62  1  0
 28 63  1  0
 29 64  1  0
 29 65  1  0
 29 66  1  0
M  CHG  1  20   1
M  END
>  <smiles>  (19) 
CCNCCNCCNCCNc1c2ccccc2[n+](C)c2cccc(OCC)c12

>  <score_type>  (19) 
oracle

>  <origin>  (19) 
adg

>  <m_score__min__energy>  (19) 
-6.3200000000000003

>  <m_primary>  (19) 
energy

$$$$
21:0
     RDKit          3D

 64 66  0  0  0  0  0  0  0  0999 V2000
   59.6420   33.4320   50.1910 C   0  0  0  0  0  0  0  0  0  0  0  0
   58.6220   32.3600   49.8890 C   0  0  0  0  0  0  0  0  0  0  0  0
   58.3540   32.3950   48.5210 O   0  0  0  0  0  0  0  0  0  0  0  0
   58.8640   33.5400   47.9410 C   0  0  0  0  0  0  0  0  0  0  0  0
   58.2720   33.7300   46.5790 C   0  0  0  0  0  0  0  0  0  0  0  0
   58.2760   32.6400   45.7640 O   0  0  0  0  0  0  0  0  0  0  0  0
   58.2080   32.8430   44.4190 C   0  0  0  0  0  0  0  0  0  0  0  0
   57.3860   31.8010   43.6590 C   0  0  0  0  0  0  0  0  0  0  0  0
   56.5830   31.0990   44.5140 O   0  0  0  0  0  0  0  0  0  0  0  0
   56.4310   29.7780   44.2010 C   0  0  0  0  0  0  0  0  0  0  0  0
   57.0210   28.8470   45.2310 C   0  0  0  0  0  0  0  0  0  0  0  0
   58.1290   29.5050   45.8480 N   0  0  0  0  0  0  0  0  0  0  0  0
   59.4120   29.1590   45.2950 C   0  0  0  0  0  0  0  0  0  0  0  0
   60.5950   29.7410   45.9740 C   0  0  0  0  0  0  0  0  0  0  0  0
   60.1960   30.6910   47.0250 N   0  0  0  0  0  0  0  0  0  0  0  0
   61.1460   30.9200   48.0560 C   0  0  0  0  0  0  0  0  0  0  0  0
   61.2580   30.1600   49.1930 C   0  0  0  0  0  0  0  0  0  0  0  0
   60.3780   29.1020   49.3310 C   0  0  0  0  0  0  0  0  0  0  0  0
   60.4540   28.3070   50.4520 C   0  0  0  0  0  0  0  0  0  0  0  0
   61.4030   28.5800   51.4140 C   0  0  0  0  0  0  0  0  0  0  0  0
   62.2790   29.6560   51.2460 C   0  0  0  0  0  0  0  0  0  0  0  0
   62.2210   30.4660   50.1320 C   0  0  0  0  0  0  0  0  0  0  0  0
   63.0860   31.4980   50.0010 N   0  0  0  0  0  0  0  0  0  0  0  0
   64.0740   31.8340   50.9780 C   0  0  0  0  0  0  0  0  0  0  0  0
   62.9850   32.2550   48.8780 C   0  0  0  0  0  0  0  0  0  0  0  0
   63.8170   33.3240   48.6240 C   0  0  0  0  0  0  0  0  0  0  0  0
   63.7150   34.0940   47.4660 C   0  0  0  0  0  0  0  0  0  0  0  0
   62.7640   33.8080   46.5190 C   0  0  0  0  0  0  0  0  0  0  0  0
   61.9260   32.7470   46.7530 C   0  0  0  0  0  0  0  0  0  0  0  0
   62.0190   31.9710   47.9060 C   0  0  0  0  0  0  0  0  0  0  0  0
   59.7467   33.5420   51.2805 H   0  0  0  0  0  0  0  0  0  0  0  0
   60.6118   33.1483   49.7563 H   0  0  0  0  0  0  0  0  0  0  0  0
   59.3105   34.3865   49.7563 H   0  0  0  0  0  0  0  0  0  0  0  0
   59.0233   31.3740   50.1659 H   0  0  0  0  0  0  0  0  0  0  0  0
   57.7008   32.5354   50.4640 H   0  0  0  0  0  0  0  0  0  0  0  0
   58.6174   34.4081   48.5700 H   0  0  0  0  0  0  0  0  0  0  0  0
   59.9560   33.4439   47.8504 H   0  0  0  0  0  0  0  0  0  0  0  0
   57.2270   34.0480   46.7088 H   0  0  0  0  0  0  0  0  0  0  0  0
   58.9130   34.4721   46.0807 H   0  0  0  0  0  0  0  0  0  0  0  0
   57.7568   33.8307   44.2434 H   0  0  0  0  0  0  0  0  0  0  0  0
   59.2375   32.7655   44.0394 H   0  0  0  0  0  0  0  0  0  0  0  0
   56.7594   32.3106   42.9122 H   0  0  0  0  0  0  0  0  0  0  0  0
   58.0749   31.0994   43.1659 H   0  0  0  0  0  0  0  0  0  0  0  0
   55.3561   29.5623   44.1110 H   0  0  0  0  0  0  0  0  0  0  0  0
   56.9702   29.6033   43.2583 H   0  0  0  0  0  0  0  0  0  0  0  0
   56.2630   28.6038   45.9902 H   0  0  0  0  0  0  0  0  0  0  0  0
   57.3529   27.9138   44.7525 H   0  0  0  0  0  0  0  0  0  0  0  0
   57.9920   30.5050   46.0070 H   0  0  0  0  0  0  0  0  0  0  0  0
   59.5090   28.0639   45.3312 H   0  0  0  0  0  0  0  0  0  0  0  0
   59.4184   29.5802   44.2789 H   0  0  0  0  0  0  0  0  0  0  0  0
   61.1821   28.9296   46.4288 H   0  0  0  0  0  0  0  0  0  0  0  0
   61.1927   30.2824   45.2259 H   0  0  0  0  0  0  0  0  0  0  0  0
   59.2520   31.1640   46.9990 H   0  0  0  0  0  0  0  0  0  0  0  0
   59.6263   28.8983   48.5541 H   0  0  0  0  0  0  0  0  0  0  0  0
   59.7631   27.4606   50.5793 H   0  0  0  0  0  0  0  0  0  0  0  0
   61.4708   27.9509   52.3138 H   0  0  0  0  0  0  0  0  0  0  0  0
   63.0324   29.8613   52.0208 H   0  0  0  0  0  0  0  0  0  0  0  0
   63.6564   31.6920   51.9857 H   0  0  0  0  0  0  0  0  0  0  0  0
   64.9521   31.1840   50.8501 H   0  0  0  0  0  0  0  0  0  0  0  0
   64.3738   32.8846   50.8501 H   0  0  0  0  0  0  0  0  0  0  0  0
   64.5909   33.5794   49.3628 H   0  0  0  0  0  0  0  0  0  0  0  0
   64.4029   34.9381   47.3102 H   0  0  0  0  0  0  0  0  0  0  0  0
   62.6763   34.4096   45.6023 H   0  0  0  0  0  0  0  0  0  0  0  0
   61.1564   32.5015   46.0064 H   0  0  0  0  0  0  0  0  0  0  0  0
  1  2  1  0
  2  3  1  0
  3  4  1  0
  4  5  1  0
  5  6  1  0
  6  7  1  0
  7  8  1  0
  8  9  1  0
  9 10  1  0
 10 11  1  0
 11 12  1  0
 12 13  1  0
 13 14  1  0
 14 15  1  0
 15 16  1  0
 16 17  2  0
 17 18  1  0
 18 19  2  0
 19 20  1  0
 20 21  2  0
 21 22  1  0
 22 23  2  0
 23 24  1  0
 23 25  1  0
 25 26  2  0
 26 27  1  0
 27 28  2  0
 28 29  1  0
 29 30  2  0
 30 16  1  0
 22 17  1  0
 30 25  1  0
  1 31  1  0
  1 32  1  0
  1 33  1  0
  2 34  1  0
  2 35  1  0
  4 36  1  0
  4 37  1  0
  5 38  1  0
  5 39  1  0
  7 40  1  0
  7 41  1  0
  8 42  1  0
  8 43  1  0
 10 44  1  0
 10 45  1  0
 11 46  1  0
 11 47  1  0
 12 48  1  0
 13 49  1  0
 13 50  1  0
 14 51  1  0
 14 52  1  0
 15 53  1  0
 18 54  1  0
 19 55  1  0
 20 56  1  0
 21 57  1  0
 24 58  1  0
 24 59  1  0
 24 60  1  0
 26 61  1  0
 27 62  1  0
 28 63  1  0
 29 64  1  0
M  CHG  1  23   1
M  END
>  <smiles>  (20) 
CCOCCOCCOCCNCCNc1c2ccccc2[n+](C)c2ccccc12

>  <score_type>  (20) 
oracle

>  <origin>  (20) 
adg

>  <m_score__min__energy>  (20) 
-4.75

>  <m_primary>  (20) 
energy

$$$$
22:0
     RDKit          3D

 39 39  0  0  0  0  0  0  0  0999 V2000
   57.4200   31.1640   43.3430 C   0  0  0  0  0  0  0  0  0  0  0  0
   56.1860   30.8200   44.0990 C   0  0  0  0  0  0  0  0  0  0  0  0
   56.2640   29.7370   44.8870 O   0  0  0  0  0  0  0  0  0  0  0  0
   57.0730   28.7010   44.6760 C   0  0  0  0  0  0  0  0  0  0  0  0
   58.4600   28.6880   45.2090 C   0  0  0  0  0  0  0  0  0  0  0  0
   58.7410   29.8540   46.0640 N   0  0  0  0  0  0  0  0  0  0  0  0
   60.1540   30.1580   46.2840 C   0  0  0  0  0  0  0  0  0  0  0  0
   60.9190   29.3680   45.7020 O   0  0  0  0  0  0  0  0  0  0  0  0
   60.5100   31.2400   47.0770 N   0  0  0  0  0  0  0  0  0  0  0  0
   61.7320   31.8010   47.4960 C   0  0  0  0  0  0  0  0  0  0  0  0
   61.9690   33.2600   47.4270 C   0  0  0  0  0  0  0  0  0  0  0  0
   60.8940   34.2180   47.8210 C   0  0  0  0  0  0  0  0  0  0  0  0
   59.7360   34.1690   46.8990 C   0  0  0  0  0  0  0  0  0  0  0  0
   59.6410   34.6720   45.6460 C   0  0  0  0  0  0  0  0  0  0  0  0
   58.4840   34.5540   44.8830 C   0  0  0  0  0  0  0  0  0  0  0  0
   57.3710   33.9070   45.3850 C   0  0  0  0  0  0  0  0  0  0  0  0
   57.4990   33.4010   46.6730 C   0  0  0  0  0  0  0  0  0  0  0  0
   58.6260   33.5300   47.3850 N   0  0  0  0  0  0  0  0  0  0  0  0
   58.2319   31.3903   44.0498 H   0  0  0  0  0  0  0  0  0  0  0  0
   57.7115   30.3129   42.7101 H   0  0  0  0  0  0  0  0  0  0  0  0
   57.2291   32.0432   42.7101 H   0  0  0  0  0  0  0  0  0  0  0  0
   55.9287   31.6808   44.7338 H   0  0  0  0  0  0  0  0  0  0  0  0
   55.4282   30.5806   43.3385 H   0  0  0  0  0  0  0  0  0  0  0  0
   56.5681   27.8197   45.0984 H   0  0  0  0  0  0  0  0  0  0  0  0
   57.2338   28.7393   43.5885 H   0  0  0  0  0  0  0  0  0  0  0  0
   58.6028   27.7722   45.8015 H   0  0  0  0  0  0  0  0  0  0  0  0
   59.1499   28.7242   44.3530 H   0  0  0  0  0  0  0  0  0  0  0  0
   57.9880   30.4110   46.4740 H   0  0  0  0  0  0  0  0  0  0  0  0
   59.6270   31.7830   47.4690 H   0  0  0  0  0  0  0  0  0  0  0  0
   61.8621   31.5134   48.5497 H   0  0  0  0  0  0  0  0  0  0  0  0
   62.4433   31.4072   46.7550 H   0  0  0  0  0  0  0  0  0  0  0  0
   62.8329   33.4707   48.0746 H   0  0  0  0  0  0  0  0  0  0  0  0
   62.0829   33.4432   46.3484 H   0  0  0  0  0  0  0  0  0  0  0  0
   60.5502   33.9671   48.8353 H   0  0  0  0  0  0  0  0  0  0  0  0
   61.3151   35.2334   47.7809 H   0  0  0  0  0  0  0  0  0  0  0  0
   60.5094   35.1925   45.2159 H   0  0  0  0  0  0  0  0  0  0  0  0
   58.4547   34.9802   43.8693 H   0  0  0  0  0  0  0  0  0  0  0  0
   56.4438   33.7994   44.8029 H   0  0  0  0  0  0  0  0  0  0  0  0
   56.6441   32.8757   47.1238 H   0  0  0  0  0  0  0  0  0  0  0  0
  1  2  1  0
  2  3  1  0
  3  4  1  0
  4  5  1  0
  5  6  1  0
  6  7  1  0
  7  8  2  0
  7  9  1  0
  9 10  1  0
 10 11  1  0
 11 12  1  0
 12 13  1  0
 13 14  2  0
 14 15  1  0
 15 16  2  0
 16 17  1  0
 17 18  2  0
 18 13  1  0
  1 19  1  0
  1 20  1  0
  1 21  1  0
  2 22  1  0
  2 23  1  0
  4 24  1  0
  4 25  1  0
  5 26  1  0
  5 27  1  0
  6 28  1  0
  9 29  1  0
 10 30  1  0
 10 31  1  0
 11 32  1  0
 11 33  1  0
 12 34  1  0
 12 35  1  0
 14 36  1  0
 15 37  1  0
 16 38  1  0
 17 39  1  0
M  END
>  <smiles>  (21) 
CCOCCNC(=O)NCCCc1ccccn1

>  <score_type>  (21) 
oracle

>  <origin>  (21) 
adg

>  <m_score__min__energy>  (21) 
-6.2599999999999998

>  <m_primary>  (21) 
energy

$$$$
