0:0
     RDKit          3D

 44 46  0  0  0  0  0  0  0  0999 V2000
   59.0360   29.5590   48.9340 C   0  0  0  0  0  0  0  0  0  0  0  0
   59.7600   29.6420   47.6660 N   0  0  0  0  0  0  0  0  0  0  0  0
   60.9630   30.2200   47.4420 C   0  0  0  0  0  0  0  0  0  0  0  0
   61.9810   30.9940   48.6990 S   0  0  0  0  0  0  0  0  0  0  0  0
   62.9860   31.9560   47.5110 C   0  0  0  0  0  0  0  0  0  0  0  0
   63.5710   33.2220   48.1570 C   0  0  0  0  0  0  0  0  0  0  0  0
   62.8800   33.5870   49.4780 C   0  0  0  0  0  0  0  0  0  0  0  0
   61.8160   34.5740   49.2380 N   0  0  0  0  0  0  0  0  0  0  0  0
   60.4740   34.0020   49.4260 C   0  0  0  0  0  0  0  0  0  0  0  0
   59.8010   33.6740   48.1160 C   0  0  0  0  0  0  0  0  0  0  0  0
   58.6850   32.8200   48.0790 C   0  0  0  0  0  0  0  0  0  0  0  0
   58.0760   32.5030   46.8580 C   0  0  0  0  0  0  0  0  0  0  0  0
   58.5790   33.0330   45.6640 C   0  0  0  0  0  0  0  0  0  0  0  0
   57.7710   32.5750   44.0030 Br  0  0  0  0  0  0  0  0  0  0  0  0
   59.6810   33.8940   45.6920 C   0  0  0  0  0  0  0  0  0  0  0  0
   60.2860   34.2190   46.9140 C   0  0  0  0  0  0  0  0  0  0  0  0
   61.3390   30.1100   46.1540 N   0  0  0  0  0  0  0  0  0  0  0  0
   60.3590   29.4680   45.5390 N   0  0  0  0  0  0  0  0  0  0  0  0
   59.3970   29.1970   46.4430 C   0  0  0  0  0  0  0  0  0  0  0  0
   58.1260   28.5270   46.0970 C   0  0  0  0  0  0  0  0  0  0  0  0
   57.8620   27.1800   46.2270 C   0  0  0  0  0  0  0  0  0  0  0  0
   56.5890   27.0000   45.7280 C   0  0  0  0  0  0  0  0  0  0  0  0
   56.1150   28.1460   45.3030 O   0  0  0  0  0  0  0  0  0  0  0  0
   57.0080   29.0850   45.5050 C   0  0  0  0  0  0  0  0  0  0  0  0
   59.7478   29.6406   49.7687 H   0  0  0  0  0  0  0  0  0  0  0  0
   58.3055   30.3793   48.9935 H   0  0  0  0  0  0  0  0  0  0  0  0
   58.5101   28.5947   48.9935 H   0  0  0  0  0  0  0  0  0  0  0  0
   63.8120   31.3255   47.1500 H   0  0  0  0  0  0  0  0  0  0  0  0
   62.3340   32.2643   46.6805 H   0  0  0  0  0  0  0  0  0  0  0  0
   64.6402   33.0546   48.3538 H   0  0  0  0  0  0  0  0  0  0  0  0
   63.4115   34.0558   47.4574 H   0  0  0  0  0  0  0  0  0  0  0  0
   62.4418   32.6808   49.9216 H   0  0  0  0  0  0  0  0  0  0  0  0
   63.6228   34.0192   50.1646 H   0  0  0  0  0  0  0  0  0  0  0  0
   61.9430   35.3640   49.9160 H   0  0  0  0  0  0  0  0  0  0  0  0
   60.5628   33.0794   50.0185 H   0  0  0  0  0  0  0  0  0  0  0  0
   59.8578   34.7535   49.9412 H   0  0  0  0  0  0  0  0  0  0  0  0
   58.2877   32.3983   49.0141 H   0  0  0  0  0  0  0  0  0  0  0  0
   57.2011   31.8365   46.8374 H   0  0  0  0  0  0  0  0  0  0  0  0
   60.0729   34.3162   44.7549 H   0  0  0  0  0  0  0  0  0  0  0  0
   61.1458   34.9049   46.9327 H   0  0  0  0  0  0  0  0  0  0  0  0
   60.3520   29.2410   44.5200 H   0  0  0  0  0  0  0  0  0  0  0  0
   58.5281   26.4094   46.6423 H   0  0  0  0  0  0  0  0  0  0  0  0
   56.0526   26.0403   45.6920 H   0  0  0  0  0  0  0  0  0  0  0  0
   56.8869   30.1469   45.2450 H   0  0  0  0  0  0  0  0  0  0  0  0
  1  2  1  0
  2  3  1  0
  3  4  1  0
  4  5  1  0
  5  6  1  0
  6  7  1  0
  7  8  1  0
  8  9  1  0
  9 10  1  0
 10 11  2  0
 11 12  1  0
 12 13  2  0
 13 14  1  0
 13 15  1  0
 15 16  2  0
  3 17  2  0
 17 18  1  0
 18 19  2  0
 19 20  1  0
 20 21  1  0
 21 22  2  0
 22 23  1  0
 23 24  1  0
 19  2  1  0
 24 20  2  0
 16 10  1  0
  1 25  1  0
  1 26  1  0
  1 27  1  0
  5 28  1  0
  5 29  1  0
  6 30  1  0
  6 31  1  0
  7 32  1  0
  7 33  1  0
  8 34  1  0
  9 35  1  0
  9 36  1  0
 11 37  1  0
 12 38  1  0
 15 39  1  0
 16 40  1  0
 18 41  1  0
 21 42  1  0
 22 43  1  0
 24 44  1  0
M  CHG  1  18   1
M  END
>  <UniqueID>  (1) 
1

>  <SMILES>  (1) 
Cn1c(SCCCNCc2ccc(Br)cc2)n[nH+]c1-c1ccoc1

>  <Energy>  (1) 
103.83892170600473

>  <Genealogy>  (1) 
Cn1c(SCCCNCc2ccc(Br)cc2)n[nH+]c1-c1ccoc1 (protonated)
Cn1c(SCCCNCc2ccc(Br)cc2)n[nH+]c1-c1ccoc1 (3D coordinates assigned)
Cn1c(SCCCNCc2ccc(Br)cc2)n[nH+]c1-c1ccoc1 (optimized conformer: 103.83892170600473 kcal/mol)

>  <smiles>  (1) 
Cn1c(SCCCNCc2ccc(Br)cc2)nnc1-c1ccoc1

>  <score_type>  (1) 
oracle

>  <origin>  (1) 
adg

>  <m_score__min__energy>  (1) 
-7.4299999999999997

>  <m_primary>  (1) 
energy

$$$$
1:0
     RDKit          3D

 42 45  0  0  0  0  0  0  0  0999 V2000
   61.7869   33.5367   49.2912 H   0  0  0  0  0  0  0  0  0  0  0  0
   61.4420   33.8310   48.2890 C   0  0  0  0  0  0  0  0  0  0  0  0
   62.3900   33.8270   47.2030 C   0  0  0  0  0  0  0  0  0  0  0  0
   63.1520   33.8250   46.3320 N   0  0  0  0  0  0  0  0  0  0  0  0
   60.1600   34.1780   48.1280 C   0  0  0  0  0  0  0  0  0  0  0  0
   59.6822   34.7904   48.9069 H   0  0  0  0  0  0  0  0  0  0  0  0
   59.3560   33.7800   46.9580 C   0  0  0  0  0  0  0  0  0  0  0  0
   59.1500   34.5650   45.8260 C   0  0  0  0  0  0  0  0  0  0  0  0
   59.6510   35.9580   45.6120 C   0  0  0  0  0  0  0  0  0  0  0  0
   59.8240   36.4391   46.5860 H   0  0  0  0  0  0  0  0  0  0  0  0
   60.5939   35.9257   45.0463 H   0  0  0  0  0  0  0  0  0  0  0  0
   58.9036   36.5336   45.0463 H   0  0  0  0  0  0  0  0  0  0  0  0
   58.5670   33.8180   44.8630 N   0  0  0  0  0  0  0  0  0  0  0  0
   58.3330   34.1030   43.8860 H   0  0  0  0  0  0  0  0  0  0  0  0
   58.4100   32.6080   45.4290 C   0  0  0  0  0  0  0  0  0  0  0  0
   57.9000   31.4670   44.8420 C   0  0  0  0  0  0  0  0  0  0  0  0
   57.3740   31.1460   43.6090 C   0  0  0  0  0  0  0  0  0  0  0  0
   57.2628   31.8302   42.7549 H   0  0  0  0  0  0  0  0  0  0  0  0
   57.0170   29.8350   43.6350 N   0  0  0  0  0  0  0  0  0  0  0  0
   57.3200   29.3400   44.8330 N   0  0  0  0  0  0  0  0  0  0  0  0
   57.0210   27.9810   45.2640 C   0  0  0  0  0  0  0  0  0  0  0  0
   57.0117   27.9386   46.3631 H   0  0  0  0  0  0  0  0  0  0  0  0
   56.0356   27.6821   44.8772 H   0  0  0  0  0  0  0  0  0  0  0  0
   57.7899   27.2961   44.8772 H   0  0  0  0  0  0  0  0  0  0  0  0
   57.8500   30.3240   45.5750 C   0  0  0  0  0  0  0  0  0  0  0  0
   58.2520   30.2630   46.8740 N   0  0  0  0  0  0  0  0  0  0  0  0
   58.7600   31.3970   47.4580 C   0  0  0  0  0  0  0  0  0  0  0  0
   59.0680   31.3840   48.8600 N   0  0  0  0  0  0  0  0  0  0  0  0
   59.8540   30.2790   49.4170 C   0  0  0  0  0  0  0  0  0  0  0  0
   60.1959   29.6295   48.5977 H   0  0  0  0  0  0  0  0  0  0  0  0
   60.7169   30.6946   49.9580 H   0  0  0  0  0  0  0  0  0  0  0  0
   59.0010   29.4480   50.4020 C   0  0  0  0  0  0  0  0  0  0  0  0
   58.7291   28.5021   49.9107 H   0  0  0  0  0  0  0  0  0  0  0  0
   59.6133   29.2976   51.3034 H   0  0  0  0  0  0  0  0  0  0  0  0
   57.8060   30.0930   50.8210 O   0  0  0  0  0  0  0  0  0  0  0  0
   58.0450   31.4580   51.0930 C   0  0  0  0  0  0  0  0  0  0  0  0
   57.1763   31.8856   51.6150 H   0  0  0  0  0  0  0  0  0  0  0  0
   58.9380   31.5549   51.7280 H   0  0  0  0  0  0  0  0  0  0  0  0
   58.2700   32.2080   49.7770 C   0  0  0  0  0  0  0  0  0  0  0  0
   57.2975   32.4310   49.3138 H   0  0  0  0  0  0  0  0  0  0  0  0
   58.8086   33.1448   49.9826 H   0  0  0  0  0  0  0  0  0  0  0  0
   58.8550   32.5480   46.7040 N   0  0  0  0  0  0  0  0  0  0  0  0
  1  2  1  0
  2  3  1  0
  3  4  3  0
  2  5  2  0
  5  6  1  0
  5  7  1  0
  7  8  2  0
  8  9  1  0
  9 10  1  0
  9 11  1  0
  9 12  1  0
  8 13  1  0
 13 14  1  0
 13 15  2  0
 15 16  1  0
 16 17  1  0
 17 18  1  0
 17 19  2  0
 19 20  1  0
 20 21  1  0
 21 22  1  0
 21 23  1  0
 21 24  1  0
 20 25  1  0
 25 26  1  0
 26 27  2  0
 27 28  1  0
 28 29  1  0
 29 30  1  0
 29 31  1  0
 29 32  1  0
 32 33  1  0
 32 34  1  0
 32 35  1  0
 35 36  1  0
 36 37  1  0
 36 38  1  0
 36 39  1  0
 39 40  1  0
 39 41  1  0
 27 42  1  0
 42  7  1  0
 42 15  1  0
 25 16  2  0
 39 28  1  0
M  CHG  1  13   1
M  END
>  <UniqueID>  (2) 
2

>  <SMILES>  (2) 
Cc1[nH+]c2c3cnn(C)c3nc(N3CCOCC3)n2c1/C=C\C#N

>  <Energy>  (2) 
141.24438606117562

>  <Genealogy>  (2) 
Cc1[nH+]c2c3cnn(C)c3nc(N3CCOCC3)n2c1C=CC#N (protonated)
Cc1[nH+]c2c3cnn(C)c3nc(N3CCOCC3)n2c1/C=C\C#N (cis-trans isomerization)
Cc1[nH+]c2c3cnn(C)c3nc(N3CCOCC3)n2c1/C=C\C#N (3D coordinates assigned)
Cc1[nH+]c2c3cnn(C)c3nc(N3CCOCC3)n2c1/C=C\C#N (nonaromatic ring conformer: 141.24438606117562 kcal/mol)

>  <smiles>  (2) 
Cc1nc2c3cnn(C)c3nc(N3CCOCC3)n2c1C=CC#N

>  <score_type>  (2) 
oracle

>  <origin>  (2) 
adg

>  <m_score__min__energy>  (2) 
-5.3300000000000001

>  <m_primary>  (2) 
energy

$$$$
2:0
     RDKit          3D

 90 89  0  0  0  0  0  0  0  0999 V2000
   58.4710   34.3400   46.1690 C   0  0  0  0  0  0  0  0  0  0  0  0
   57.4000   33.3370   46.6100 C   0  0  0  0  0  0  0  0  0  0  0  0
   57.2840   32.2000   45.6760 N   0  0  0  0  0  0  0  0  0  0  0  0
   57.8050   32.5120   44.3270 C   0  0  0  0  0  0  0  0  0  0  0  0
   57.9770   31.2530   43.4500 C   0  0  0  0  0  0  0  0  0  0  0  0
   56.6320   30.7410   42.9030 C   0  0  0  0  0  0  0  0  0  0  0  0
   55.8650   29.8710   43.9220 C   0  0  0  0  0  0  0  0  0  0  0  0
   56.5450   29.7570   45.2250 N   0  0  0  0  0  0  0  0  0  0  0  0
   57.3790   28.5480   45.3370 C   0  0  0  0  0  0  0  0  0  0  0  0
   58.7710   28.8760   45.8820 C   0  0  0  0  0  0  0  0  0  0  0  0
   58.6850   29.4470   47.6200 S   0  0  0  0  0  0  0  0  0  0  0  0
   59.7040   30.9550   47.4230 C   0  0  0  0  0  0  0  0  0  0  0  0
   61.1690   30.6390   47.0980 C   0  0  0  0  0  0  0  0  0  0  0  0
   62.0700   31.2990   48.0610 N   0  0  0  0  0  0  0  0  0  0  0  0
   63.2920   31.7930   47.4030 C   0  0  0  0  0  0  0  0  0  0  0  0
   63.1480   33.2860   47.0210 C   0  0  1  0  0  0  0  0  0  0  0  0
   61.7570   33.5430   46.4130 C   0  0  0  0  0  0  0  0  0  0  0  0
   63.3760   34.2000   48.2440 C   0  0  0  0  0  0  0  0  0  0  0  0
   62.4280   33.8600   49.3210 N   0  0  0  0  0  0  0  0  0  0  0  0
   61.1430   34.5690   49.2030 C   0  0  0  0  0  0  0  0  0  0  0  0
   59.9480   33.5960   49.1540 C   0  0  0  0  0  0  0  0  0  0  0  0
   59.7520   32.8500   50.4820 C   0  0  0  0  0  0  0  0  0  0  0  0
   60.7950   31.8280   50.6570 N   0  0  0  0  0  0  0  0  0  0  0  0
   60.2950   30.4700   50.3840 C   0  0  0  0  0  0  0  0  0  0  0  0
   61.3870   29.3960   50.5670 C   0  0  0  0  0  0  0  0  0  0  0  0
   62.4060   29.7680   51.6570 C   0  0  0  0  0  0  0  0  0  0  0  0
   63.7730   30.2640   51.1330 C   0  0  0  0  0  0  0  0  0  0  0  0
   63.6880   31.3940   50.1930 N   0  0  0  0  0  0  0  0  0  0  0  0
   64.8170   32.3260   50.3160 C   0  0  0  0  0  0  0  0  0  0  0  0
   64.9980   32.7480   51.7780 C   0  0  0  0  0  0  0  0  0  0  0  0
   63.8390   33.6230   52.2680 C   0  0  0  0  0  0  0  0  0  0  0  0
   62.5700   33.0750   51.8040 N   0  0  0  0  0  0  0  0  0  0  0  0
   58.9452   34.7841   47.0567 H   0  0  0  0  0  0  0  0  0  0  0  0
   59.2323   33.8225   45.5669 H   0  0  0  0  0  0  0  0  0  0  0  0
   58.0044   35.1336   45.5669 H   0  0  0  0  0  0  0  0  0  0  0  0
   57.6637   32.9520   47.6061 H   0  0  0  0  0  0  0  0  0  0  0  0
   56.4328   33.8607   46.6270 H   0  0  0  0  0  0  0  0  0  0  0  0
   56.2780   31.9170   45.6180 H   0  0  0  0  0  0  0  0  0  0  0  0
   57.8020   31.3710   46.0570 H   0  0  0  0  0  0  0  0  0  0  0  0
   57.1026   33.1956   43.8277 H   0  0  0  0  0  0  0  0  0  0  0  0
   58.7978   32.9691   44.4513 H   0  0  0  0  0  0  0  0  0  0  0  0
   58.6345   31.4978   42.6028 H   0  0  0  0  0  0  0  0  0  0  0  0
   58.4121   30.4603   44.0764 H   0  0  0  0  0  0  0  0  0  0  0  0
   56.0071   31.6070   42.6393 H   0  0  0  0  0  0  0  0  0  0  0  0
   56.8482   30.1124   42.0266 H   0  0  0  0  0  0  0  0  0  0  0  0
   54.8729   30.3176   44.0845 H   0  0  0  0  0  0  0  0  0  0  0  0
   55.8011   28.8573   43.4998 H   0  0  0  0  0  0  0  0  0  0  0  0
   55.8400   29.7560   45.9960 H   0  0  0  0  0  0  0  0  0  0  0  0
   56.8875   27.8363   46.0167 H   0  0  0  0  0  0  0  0  0  0  0  0
   57.4947   28.1140   44.3329 H   0  0  0  0  0  0  0  0  0  0  0  0
   59.3978   27.9734   45.8316 H   0  0  0  0  0  0  0  0  0  0  0  0
   59.2025   29.6829   45.2715 H   0  0  0  0  0  0  0  0  0  0  0  0
   59.2843   31.5594   46.6054 H   0  0  0  0  0  0  0  0  0  0  0  0
   59.6847   31.4973   48.3799 H   0  0  0  0  0  0  0  0  0  0  0  0
   61.3231   29.5509   47.1464 H   0  0  0  0  0  0  0  0  0  0  0  0
   61.3959   31.0118   46.0883 H   0  0  0  0  0  0  0  0  0  0  0  0
   61.5610   32.1220   48.4620 H   0  0  0  0  0  0  0  0  0  0  0  0
   64.1431   31.6775   48.0903 H   0  0  0  0  0  0  0  0  0  0  0  0
   63.4576   31.2096   46.4853 H   0  0  0  0  0  0  0  0  0  0  0  0
   63.9180   33.5249   46.2726 H   0  0  0  0  0  0  0  0  0  0  0  0
   61.0230   33.6786   47.2210 H   0  0  0  0  0  0  0  0  0  0  0  0
   61.7903   34.4502   45.7918 H   0  0  0  0  0  0  0  0  0  0  0  0
   61.4639   32.6838   45.7918 H   0  0  0  0  0  0  0  0  0  0  0  0
   64.4045   34.0661   48.6103 H   0  0  0  0  0  0  0  0  0  0  0  0
   63.2160   35.2460   47.9436 H   0  0  0  0  0  0  0  0  0  0  0  0
   62.2610   32.8260   49.3360 H   0  0  0  0  0  0  0  0  0  0  0  0
   61.0237   35.2344   50.0708 H   0  0  0  0  0  0  0  0  0  0  0  0
   61.1551   35.1394   48.2625 H   0  0  0  0  0  0  0  0  0  0  0  0
   59.0350   34.1674   48.9306 H   0  0  0  0  0  0  0  0  0  0  0  0
   60.1534   32.8482   48.3739 H   0  0  0  0  0  0  0  0  0  0  0  0
   59.8066   33.5690   51.3127 H   0  0  0  0  0  0  0  0  0  0  0  0
   58.7687   32.3570   50.4715 H   0  0  0  0  0  0  0  0  0  0  0  0
   61.5980   32.0300   50.0200 H   0  0  0  0  0  0  0  0  0  0  0  0
   59.4662   30.2529   51.0739 H   0  0  0  0  0  0  0  0  0  0  0  0
   59.9639   30.4379   49.3355 H   0  0  0  0  0  0  0  0  0  0  0  0
   60.9048   28.4471   50.8447 H   0  0  0  0  0  0  0  0  0  0  0  0
   61.9330   29.3107   49.6159 H   0  0  0  0  0  0  0  0  0  0  0  0
   61.9681   30.5654   52.2754 H   0  0  0  0  0  0  0  0  0  0  0  0
   62.6090   28.8426   52.2160 H   0  0  0  0  0  0  0  0  0  0  0  0
   64.3791   30.5783   51.9955 H   0  0  0  0  0  0  0  0  0  0  0  0
   64.2205   29.4260   50.5784 H   0  0  0  0  0  0  0  0  0  0  0  0
   62.7890   31.9090   50.3300 H   0  0  0  0  0  0  0  0  0  0  0  0
   65.7351   31.8331   49.9638 H   0  0  0  0  0  0  0  0  0  0  0  0
   64.6131   33.2192   49.7072 H   0  0  0  0  0  0  0  0  0  0  0  0
   65.0518   31.8455   52.4046 H   0  0  0  0  0  0  0  0  0  0  0  0
   65.9242   33.3370   51.8506 H   0  0  0  0  0  0  0  0  0  0  0  0
   63.8434   33.6511   53.3676 H   0  0  0  0  0  0  0  0  0  0  0  0
   63.9607   34.6406   51.8684 H   0  0  0  0  0  0  0  0  0  0  0  0
   62.5780   32.0460   51.9910 H   0  0  0  0  0  0  0  0  0  0  0  0
   62.5200   33.1920   50.7670 H   0  0  0  0  0  0  0  0  0  0  0  0
  1  2  1  0
  2  3  1  0
  3  4  1  0
  4  5  1  0
  5  6  1  0
  6  7  1  0
  7  8  1  0
  8  9  1  0
  9 10  1  0
 10 11  1  0
 11 12  1  0
 12 13  1  0
 13 14  1  0
 14 15  1  0
 15 16  1  0
 16 17  1  0
 16 18  1  0
 18 19  1  0
 19 20  1  0
 20 21  1  0
 21 22  1  0
 22 23  1  0
 23 24  1  0
 24 25  1  0
 25 26  1  0
 26 27  1  0
 27 28  1  0
 28 29  1  0
 29 30  1  0
 30 31  1  0
 31 32  1  0
  1 33  1  0
  1 34  1  0
  1 35  1  0
  2 36  1  0
  2 37  1  0
  3 38  1  0
  3 39  1  0
  4 40  1  0
  4 41  1  0
  5 42  1  0
  5 43  1  0
  6 44  1  0
  6 45  1  0
  7 46  1  0
  7 47  1  0
  8 48  1  0
  9 49  1  0
  9 50  1  0
 10 51  1  0
 10 52  1  0
 12 53  1  0
 12 54  1  0
 13 55  1  0
 13 56  1  0
 14 57  1  0
 15 58  1  0
 15 59  1  0
 16 60  1  6
 17 61  1  0
 17 62  1  0
 17 63  1  0
 18 64  1  0
 18 65  1  0
 19 66  1  0
 20 67  1  0
 20 68  1  0
 21 69  1  0
 21 70  1  0
 22 71  1  0
 22 72  1  0
 23 73  1  0
 24 74  1  0
 24 75  1  0
 25 76  1  0
 25 77  1  0
 26 78  1  0
 26 79  1  0
 27 80  1  0
 27 81  1  0
 28 82  1  0
 29 83  1  0
 29 84  1  0
 30 85  1  0
 30 86  1  0
 31 87  1  0
 31 88  1  0
 32 89  1  0
 32 90  1  0
M  CHG  1   3   1
M  END
>  <UniqueID>  (3) 
3

>  <SMILES>  (3) 
CC[NH2+]CCCCNCCSCCNC[C@@H](C)CNCCCNCCCCNCCCN

>  <Energy>  (3) 
64.08198064901867

>  <Genealogy>  (3) 
CC[NH2+]CCCCNCCSCCNCC(C)CNCCCNCCCCNCCCN (protonated)
CC[NH2+]CCCCNCCSCCNC[C@@H](C)CNCCCNCCCCNCCCN (chirality)
CC[NH2+]CCCCNCCSCCNC[C@@H](C)CNCCCNCCCCNCCCN (3D coordinates assigned)
CC[NH2+]CCCCNCCSCCNC[C@@H](C)CNCCCNCCCCNCCCN (optimized conformer: 64.08198064901867 kcal/mol)

>  <smiles>  (3) 
CCNCCCCNCCSCCNCC(C)CNCCCNCCCCNCCCN

>  <score_type>  (3) 
oracle

>  <origin>  (3) 
adg

>  <m_score__min__energy>  (3) 
-1.05

>  <m_primary>  (3) 
energy

$$$$
3:0
     RDKit          3D

 47 50  0  0  0  0  0  0  0  0999 V2000
   54.8270   26.3370   45.9320 O   0  0  0  0  0  0  0  0  0  0  0  0
   55.3300   25.1800   45.9590 C   0  0  0  0  0  0  0  0  0  0  0  0
   56.0400   24.7220   47.1140 N   0  0  0  0  0  0  0  0  0  0  0  0
   57.3750   25.1810   47.4820 C   0  0  0  0  0  0  0  0  0  0  0  0
   58.1820   25.5600   46.2260 C   0  0  0  0  0  0  0  0  0  0  0  0
   58.5550   26.9970   46.2120 N   0  0  1  0  0  0  0  0  0  0  0  0
   58.5150   27.5460   47.5880 C   0  0  0  0  0  0  0  0  0  0  0  0
   59.1910   28.9360   47.7280 C   0  0  0  0  0  0  0  0  0  0  0  0
   59.5840   29.6340   46.4010 C   0  0  2  0  0  0  0  0  0  0  0  0
   58.5160   30.4900   45.8360 N   0  0  0  0  0  0  0  0  0  0  0  0
   57.3350   30.1710   45.2310 C   0  0  0  0  0  0  0  0  0  0  0  0
   56.9130   28.9950   45.0910 O   0  0  0  0  0  0  0  0  0  0  0  0
   56.6310   31.2400   44.7780 N   0  0  0  0  0  0  0  0  0  0  0  0
   57.4200   32.2750   45.1130 C   0  0  0  0  0  0  0  0  0  0  0  0
   57.1910   33.6260   44.8650 C   0  0  0  0  0  0  0  0  0  0  0  0
   58.1730   34.5450   45.2790 C   0  0  0  0  0  0  0  0  0  0  0  0
   59.3500   34.0930   45.9190 C   0  0  0  0  0  0  0  0  0  0  0  0
   60.2920   34.9880   46.3040 F   0  0  0  0  0  0  0  0  0  0  0  0
   59.5490   32.7200   46.1560 C   0  0  0  0  0  0  0  0  0  0  0  0
   58.5510   31.8340   45.7400 C   0  0  0  0  0  0  0  0  0  0  0  0
   60.1440   28.6710   45.3240 C   0  0  0  0  0  0  0  0  0  0  0  0
   59.9030   27.1910   45.6390 C   0  0  0  0  0  0  0  0  0  0  0  0
   55.1410   24.2580   44.7960 C   0  0  0  0  0  0  0  0  0  0  0  0
   55.9800   22.9910   44.8630 C   0  0  0  0  0  0  0  0  0  0  0  0
   56.3600   24.1020   43.8980 C   0  0  0  0  0  0  0  0  0  0  0  0
   57.2874   26.0618   48.1351 H   0  0  0  0  0  0  0  0  0  0  0  0
   57.8975   24.3684   48.0080 H   0  0  0  0  0  0  0  0  0  0  0  0
   59.1005   24.9553   46.1991 H   0  0  0  0  0  0  0  0  0  0  0  0
   57.5496   25.3665   45.3470 H   0  0  0  0  0  0  0  0  0  0  0  0
   57.8530   27.5180   45.6320 H   0  0  0  0  0  0  0  0  0  0  0  0
   59.0295   26.8411   48.2577 H   0  0  0  0  0  0  0  0  0  0  0  0
   57.4547   27.6777   47.8495 H   0  0  0  0  0  0  0  0  0  0  0  0
   60.1059   28.8073   48.3250 H   0  0  0  0  0  0  0  0  0  0  0  0
   58.4382   29.5876   48.1957 H   0  0  0  0  0  0  0  0  0  0  0  0
   60.4092   30.2982   46.6977 H   0  0  0  0  0  0  0  0  0  0  0  0
   56.2728   33.9637   44.3621 H   0  0  0  0  0  0  0  0  0  0  0  0
   58.0242   35.6207   45.1038 H   0  0  0  0  0  0  0  0  0  0  0  0
   60.4605   32.3559   46.6526 H   0  0  0  0  0  0  0  0  0  0  0  0
   61.2282   28.8364   45.2396 H   0  0  0  0  0  0  0  0  0  0  0  0
   59.6127   28.8918   44.3865 H   0  0  0  0  0  0  0  0  0  0  0  0
   60.6569   26.8474   46.3626 H   0  0  0  0  0  0  0  0  0  0  0  0
   59.9803   26.6116   44.7071 H   0  0  0  0  0  0  0  0  0  0  0  0
   54.0781   24.4874   44.6297 H   0  0  0  0  0  0  0  0  0  0  0  0
   56.6053   22.7917   45.7457 H   0  0  0  0  0  0  0  0  0  0  0  0
   55.7723   21.9151   44.7669 H   0  0  0  0  0  0  0  0  0  0  0  0
   57.2601   24.7068   44.0825 H   0  0  0  0  0  0  0  0  0  0  0  0
   56.5410   24.1632   42.8147 H   0  0  0  0  0  0  0  0  0  0  0  0
  1  2  2  0
  2  3  1  0
  3  4  1  0
  4  5  1  0
  5  6  1  0
  6  7  1  0
  7  8  1  0
  8  9  1  0
  9 10  1  0
 10 11  1  0
 11 12  2  0
 11 13  1  0
 13 14  1  0
 14 15  2  0
 15 16  1  0
 16 17  2  0
 17 18  1  0
 17 19  1  0
 19 20  2  0
  9 21  1  0
 21 22  1  0
  2 23  1  0
 23 24  1  0
 24 25  1  0
 22  6  1  0
 25 23  1  0
 20 10  1  0
 20 14  1  0
  4 26  1  0
  4 27  1  0
  5 28  1  0
  5 29  1  0
  6 30  1  6
  7 31  1  0
  7 32  1  0
  8 33  1  0
  8 34  1  0
  9 35  1  1
 15 36  1  0
 16 37  1  0
 19 38  1  0
 21 39  1  0
 21 40  1  0
 22 41  1  0
 22 42  1  0
 23 43  1  0
 24 44  1  0
 24 45  1  0
 25 46  1  0
 25 47  1  0
M  CHG  3   3  -1   6   1  13  -1
M  END
>  <UniqueID>  (4) 
4

>  <SMILES>  (4) 
O=C([N-]CC[NH+]1CCC(n2c(=O)[n-]c3ccc(F)cc32)CC1)C1CC1

>  <Energy>  (4) 
362.15272148691145

>  <Genealogy>  (4) 
O=C([N-]CC[NH+]1CCC(n2c(=O)[n-]c3ccc(F)cc32)CC1)C1CC1 (protonated)
O=C([N-]CC[NH+]1CCC(n2c(=O)[n-]c3ccc(F)cc32)CC1)C1CC1 (3D coordinates assigned)
O=C([N-]CC[NH+]1CCC(n2c(=O)[n-]c3ccc(F)cc32)CC1)C1CC1 (nonaromatic ring conformer: 362.15272148691145 kcal/mol)

>  <smiles>  (4) 
O=C(NCCN1CCC(n2c(=O)[nH]c3ccc(F)cc32)CC1)C1CC1

>  <score_type>  (4) 
oracle

>  <origin>  (4) 
adg

>  <m_score__min__energy>  (4) 
-9.4399999999999995

>  <m_primary>  (4) 
energy

$$$$
4:0
     RDKit          3D

 89 93  0  0  0  0  0  0  0  0999 V2000
   62.9790   32.9190   47.4160 C   0  0  0  0  0  0  0  0  0  0  0  0
   62.7660   31.5950   48.1330 C   0  0  0  0  0  0  0  0  0  0  0  0
   61.6830   31.7020   49.0360 O   0  0  0  0  0  0  0  0  0  0  0  0
   61.7620   32.9110   49.7630 C   0  0  0  0  0  0  0  0  0  0  0  0
   60.3880   33.5660   49.8130 C   0  0  0  0  0  0  0  0  0  0  0  0
   59.6060   33.0050   50.9410 N   0  0  0  0  0  0  0  0  0  0  0  0
   59.5760   33.9510   52.0740 C   0  0  0  0  0  0  0  0  0  0  0  0
   60.1150   31.6790   51.3570 C   0  0  0  0  0  0  0  0  0  0  0  0
   58.9770   30.6620   51.5150 C   0  0  0  0  0  0  0  0  0  0  0  0
   59.5200   29.2860   51.4460 N   0  0  0  0  0  0  0  0  0  0  0  0
   60.7110   29.1210   52.3110 C   0  0  0  0  0  0  0  0  0  0  0  0
   61.8680   28.4990   51.4990 C   0  0  0  0  0  0  0  0  0  0  0  0
   62.6880   29.4960   50.7960 N   0  0  0  0  0  0  0  0  0  0  0  0
   63.9890   29.7410   51.4450 C   0  0  0  0  0  0  0  0  0  0  0  0
   64.4050   31.1990   51.3230 C   0  0  0  0  0  0  0  0  0  0  0  0
   65.3960   31.5700   50.3870 C   0  0  0  0  0  0  0  0  0  0  0  0
   65.8060   32.8970   50.2590 C   0  0  0  0  0  0  0  0  0  0  0  0
   65.2600   33.8840   51.0730 C   0  0  0  0  0  0  0  0  0  0  0  0
   64.3040   33.5510   52.0400 C   0  0  0  0  0  0  0  0  0  0  0  0
   63.7790   34.5550   52.8680 C   0  0  0  0  0  0  0  0  0  0  0  0
   62.8360   34.2380   53.8450 C   0  0  0  0  0  0  0  0  0  0  0  0
   62.4220   32.9170   54.0160 C   0  0  0  0  0  0  0  0  0  0  0  0
   62.9360   31.9040   53.2050 C   0  0  0  0  0  0  0  0  0  0  0  0
   63.8750   32.2010   52.1880 C   0  0  0  0  0  0  0  0  0  0  0  0
   59.8290   28.8880   50.0540 C   0  0  0  0  0  0  0  0  0  0  0  0
   58.9020   29.5970   49.0550 C   0  0  0  0  0  0  0  0  0  0  0  0
   59.6630   30.4440   48.1250 N   0  0  0  0  0  0  0  0  0  0  0  0
   58.9760   30.5490   46.8470 C   0  0  0  0  0  0  0  0  0  0  0  0
   58.7120   29.3900   46.0740 C   0  0  0  0  0  0  0  0  0  0  0  0
   58.9510   28.0890   46.5810 C   0  0  0  0  0  0  0  0  0  0  0  0
   58.7820   26.9630   45.7810 C   0  0  0  0  0  0  0  0  0  0  0  0
   58.3830   27.1030   44.4600 C   0  0  0  0  0  0  0  0  0  0  0  0
   58.0940   28.3650   43.9490 C   0  0  0  0  0  0  0  0  0  0  0  0
   58.1940   29.5280   44.7580 C   0  0  0  0  0  0  0  0  0  0  0  0
   57.8080   30.7660   44.2840 N   0  0  0  0  0  0  0  0  0  0  0  0
   57.0150   30.8600   43.0360 C   0  0  0  0  0  0  0  0  0  0  0  0
   58.1110   31.9090   44.9960 C   0  0  0  0  0  0  0  0  0  0  0  0
   57.9310   33.2010   44.4330 C   0  0  0  0  0  0  0  0  0  0  0  0
   58.1390   34.3540   45.1850 C   0  0  0  0  0  0  0  0  0  0  0  0
   58.5370   34.2560   46.5100 C   0  0  0  0  0  0  0  0  0  0  0  0
   58.7820   33.0080   47.0740 C   0  0  0  0  0  0  0  0  0  0  0  0
   58.6300   31.8190   46.3180 C   0  0  0  0  0  0  0  0  0  0  0  0
   63.1080   33.7210   48.1577 H   0  0  0  0  0  0  0  0  0  0  0  0
   63.8783   32.8542   46.7858 H   0  0  0  0  0  0  0  0  0  0  0  0
   62.1048   33.1395   46.7858 H   0  0  0  0  0  0  0  0  0  0  0  0
   62.5470   30.8112   47.3929 H   0  0  0  0  0  0  0  0  0  0  0  0
   63.6775   31.3366   48.6919 H   0  0  0  0  0  0  0  0  0  0  0  0
   62.1053   32.7011   50.7868 H   0  0  0  0  0  0  0  0  0  0  0  0
   62.4730   33.5894   49.2688 H   0  0  0  0  0  0  0  0  0  0  0  0
   60.5052   34.6507   49.9534 H   0  0  0  0  0  0  0  0  0  0  0  0
   59.8572   33.3701   48.8696 H   0  0  0  0  0  0  0  0  0  0  0  0
   59.5938   33.3904   53.0203 H   0  0  0  0  0  0  0  0  0  0  0  0
   60.4536   34.6122   52.0230 H   0  0  0  0  0  0  0  0  0  0  0  0
   58.6582   34.5552   52.0230 H   0  0  0  0  0  0  0  0  0  0  0  0
   60.8189   31.3118   50.5956 H   0  0  0  0  0  0  0  0  0  0  0  0
   60.6138   31.7917   52.3309 H   0  0  0  0  0  0  0  0  0  0  0  0
   58.4856   30.8122   52.4876 H   0  0  0  0  0  0  0  0  0  0  0  0
   58.2471   30.8052   50.7046 H   0  0  0  0  0  0  0  0  0  0  0  0
   61.0219   30.1038   52.6950 H   0  0  0  0  0  0  0  0  0  0  0  0
   60.4596   28.4564   53.1507 H   0  0  0  0  0  0  0  0  0  0  0  0
   62.5159   27.9378   52.1884 H   0  0  0  0  0  0  0  0  0  0  0  0
   61.4165   27.8509   50.7334 H   0  0  0  0  0  0  0  0  0  0  0  0
   62.1560   30.3970   50.7170 H   0  0  0  0  0  0  0  0  0  0  0  0
   63.9123   29.4788   52.5105 H   0  0  0  0  0  0  0  0  0  0  0  0
   64.7476   29.1218   50.9439 H   0  0  0  0  0  0  0  0  0  0  0  0
   65.8520   30.7992   49.7483 H   0  0  0  0  0  0  0  0  0  0  0  0
   66.5657   33.1646   49.5098 H   0  0  0  0  0  0  0  0  0  0  0  0
   65.5805   34.9298   50.9565 H   0  0  0  0  0  0  0  0  0  0  0  0
   64.1127   35.5960   52.7458 H   0  0  0  0  0  0  0  0  0  0  0  0
   62.4178   35.0312   54.4821 H   0  0  0  0  0  0  0  0  0  0  0  0
   61.6854   32.6719   54.7953 H   0  0  0  0  0  0  0  0  0  0  0  0
   62.6084   30.8650   53.3575 H   0  0  0  0  0  0  0  0  0  0  0  0
   60.8718   29.1549   49.8276 H   0  0  0  0  0  0  0  0  0  0  0  0
   59.6774   27.8025   49.9601 H   0  0  0  0  0  0  0  0  0  0  0  0
   58.3501   28.8395   48.4792 H   0  0  0  0  0  0  0  0  0  0  0  0
   58.2099   30.2385   49.6202 H   0  0  0  0  0  0  0  0  0  0  0  0
   59.8260   31.3880   48.5390 H   0  0  0  0  0  0  0  0  0  0  0  0
   60.6320   30.0770   47.9990 H   0  0  0  0  0  0  0  0  0  0  0  0
   59.2757   27.9668   47.6249 H   0  0  0  0  0  0  0  0  0  0  0  0
   58.9650   25.9611   46.1966 H   0  0  0  0  0  0  0  0  0  0  0  0
   58.2949   26.2159   43.8156 H   0  0  0  0  0  0  0  0  0  0  0  0
   57.7823   28.4635   42.8987 H   0  0  0  0  0  0  0  0  0  0  0  0
   55.9513   30.9861   43.2861 H   0  0  0  0  0  0  0  0  0  0  0  0
   57.3582   31.7237   42.4477 H   0  0  0  0  0  0  0  0  0  0  0  0
   57.1468   29.9399   42.4477 H   0  0  0  0  0  0  0  0  0  0  0  0
   57.6210   33.2921   43.3815 H   0  0  0  0  0  0  0  0  0  0  0  0
   57.9876   35.3431   44.7281 H   0  0  0  0  0  0  0  0  0  0  0  0
   58.6591   35.1661   47.1157 H   0  0  0  0  0  0  0  0  0  0  0  0
   59.0993   32.9430   48.1252 H   0  0  0  0  0  0  0  0  0  0  0  0
  1  2  1  0
  2  3  1  0
  3  4  1  0
  4  5  1  0
  5  6  1  0
  6  7  1  0
  6  8  1  0
  8  9  1  0
  9 10  1  0
 10 11  1  0
 11 12  1  0
 12 13  1  0
 13 14  1  0
 14 15  1  0
 15 16  2  0
 16 17  1  0
 17 18  2  0
 18 19  1  0
 19 20  2  0
 20 21  1  0
 21 22  2  0
 22 23  1  0
 23 24  2  0
 10 25  1  0
 25 26  1  0
 26 27  1  0
 27 28  1  0
 28 29  1  0
 29 30  2  0
 30 31  1  0
 31 32  2  0
 32 33  1  0
 33 34  2  0
 34 35  1  0
 35 36  1  0
 35 37  2  0
 37 38  1  0
 38 39  2  0
 39 40  1  0
 40 41  2  0
 41 42  1  0
 24 15  1  0
 42 28  2  0
 24 19  1  0
 34 29  1  0
 42 37  1  0
  1 43  1  0
  1 44  1  0
  1 45  1  0
  2 46  1  0
  2 47  1  0
  4 48  1  0
  4 49  1  0
  5 50  1  0
  5 51  1  0
  7 52  1  0
  7 53  1  0
  7 54  1  0
  8 55  1  0
  8 56  1  0
  9 57  1  0
  9 58  1  0
 11 59  1  0
 11 60  1  0
 12 61  1  0
 12 62  1  0
 13 63  1  0
 14 64  1  0
 14 65  1  0
 16 66  1  0
 17 67  1  0
 18 68  1  0
 20 69  1  0
 21 70  1  0
 22 71  1  0
 23 72  1  0
 25 73  1  0
 25 74  1  0
 26 75  1  0
 26 76  1  0
 27 77  1  0
 27 78  1  0
 30 79  1  0
 31 80  1  0
 32 81  1  0
 33 82  1  0
 36 83  1  0
 36 84  1  0
 36 85  1  0
 38 86  1  0
 39 87  1  0
 40 88  1  0
 41 89  1  0
M  CHG  2  27   1  35   1
M  END
>  <UniqueID>  (5) 
5

>  <SMILES>  (5) 
CCOCCN(C)CCN(CCNCc1cccc2ccccc12)CC[NH2+]c1c2ccccc2[n+](C)c2ccccc12

>  <Energy>  (5) 
133.27456267335333

>  <Genealogy>  (5) 
CCOCCN(C)CCN(CCNCc1cccc2ccccc12)CC[NH2+]c1c2ccccc2[n+](C)c2ccccc12 (protonated)
CCOCCN(C)CCN(CCNCc1cccc2ccccc12)CC[NH2+]c1c2ccccc2[n+](C)c2ccccc12 (3D coordinates assigned)
CCOCCN(C)CCN(CCNCc1cccc2ccccc12)CC[NH2+]c1c2ccccc2[n+](C)c2ccccc12 (optimized conformer: 133.27456267335333 kcal/mol)

>  <smiles>  (5) 
CCOCCN(C)CCN(CCNCc1cccc2ccccc12)CCNc1c2ccccc2[n+](C)c2ccccc12

>  <score_type>  (5) 
oracle

>  <origin>  (5) 
adg

>  <m_score__min__energy>  (5) 
-6.4900000000000002

>  <m_primary>  (5) 
energy

$$$$
5:0
     RDKit          3D

 36 37  0  0  0  0  0  0  0  0999 V2000
   58.8610   29.8340   47.3330 C   0  0  0  0  0  0  0  0  0  0  0  0
   58.9630   30.2760   45.8780 C   0  0  0  0  0  0  0  0  0  0  0  0
   58.6180   29.1780   44.9690 N   0  0  0  0  0  0  0  0  0  0  0  0
   59.2270   27.9740   44.8470 C   0  0  0  0  0  0  0  0  0  0  0  0
   60.4250   27.5350   45.6250 C   0  0  0  0  0  0  0  0  0  0  0  0
   58.5380   27.1500   44.0300 N   0  0  0  0  0  0  0  0  0  0  0  0
   57.4870   27.8360   43.6140 N   0  0  0  0  0  0  0  0  0  0  0  0
   57.5340   29.0570   44.1730 C   0  0  0  0  0  0  0  0  0  0  0  0
   56.2390   30.2900   43.9820 S   0  0  0  0  0  0  0  0  0  0  0  0
   57.0560   31.2110   42.6270 C   0  0  0  0  0  0  0  0  0  0  0  0
   57.8130   32.4330   43.1350 C   0  0  0  0  0  0  0  0  0  0  0  0
   57.3240   32.8060   44.4220 O   0  0  0  0  0  0  0  0  0  0  0  0
   58.0730   33.4980   45.3850 C   0  0  0  0  0  0  0  0  0  0  0  0
   58.0260   33.1740   46.7550 C   0  0  0  0  0  0  0  0  0  0  0  0
   58.7840   33.9020   47.6770 C   0  0  0  0  0  0  0  0  0  0  0  0
   59.5930   34.9550   47.2420 C   0  0  0  0  0  0  0  0  0  0  0  0
   59.6460   35.2810   45.8840 C   0  0  0  0  0  0  0  0  0  0  0  0
   58.8880   34.5540   44.9600 C   0  0  0  0  0  0  0  0  0  0  0  0
   59.0591   30.6924   47.9917 H   0  0  0  0  0  0  0  0  0  0  0  0
   57.8500   29.4473   47.5287 H   0  0  0  0  0  0  0  0  0  0  0  0
   59.6003   29.0433   47.5287 H   0  0  0  0  0  0  0  0  0  0  0  0
   58.2718   31.1145   45.7076 H   0  0  0  0  0  0  0  0  0  0  0  0
   59.9998   30.5839   45.6775 H   0  0  0  0  0  0  0  0  0  0  0  0
   60.2120   27.6131   46.7014 H   0  0  0  0  0  0  0  0  0  0  0  0
   60.6634   26.4911   45.3732 H   0  0  0  0  0  0  0  0  0  0  0  0
   61.2814   28.1777   45.3732 H   0  0  0  0  0  0  0  0  0  0  0  0
   56.7460   27.4620   42.9810 H   0  0  0  0  0  0  0  0  0  0  0  0
   57.7655   30.5402   42.1204 H   0  0  0  0  0  0  0  0  0  0  0  0
   56.2737   31.5613   41.9375 H   0  0  0  0  0  0  0  0  0  0  0  0
   58.8844   32.1946   43.2069 H   0  0  0  0  0  0  0  0  0  0  0  0
   57.6643   33.2683   42.4348 H   0  0  0  0  0  0  0  0  0  0  0  0
   57.3906   32.3452   47.1007 H   0  0  0  0  0  0  0  0  0  0  0  0
   58.7435   33.6456   48.7459 H   0  0  0  0  0  0  0  0  0  0  0  0
   60.1883   35.5275   47.9686 H   0  0  0  0  0  0  0  0  0  0  0  0
   60.2838   36.1093   45.5417 H   0  0  0  0  0  0  0  0  0  0  0  0
   58.9326   34.8139   43.8921 H   0  0  0  0  0  0  0  0  0  0  0  0
  1  2  1  0
  2  3  1  0
  3  4  1  0
  4  5  1  0
  4  6  2  0
  6  7  1  0
  7  8  2  0
  8  9  1  0
  9 10  1  0
 10 11  1  0
 11 12  1  0
 12 13  1  0
 13 14  2  0
 14 15  1  0
 15 16  2  0
 16 17  1  0
 17 18  2  0
  8  3  1  0
 18 13  1  0
  1 19  1  0
  1 20  1  0
  1 21  1  0
  2 22  1  0
  2 23  1  0
  5 24  1  0
  5 25  1  0
  5 26  1  0
  7 27  1  0
 10 28  1  0
 10 29  1  0
 11 30  1  0
 11 31  1  0
 14 32  1  0
 15 33  1  0
 16 34  1  0
 17 35  1  0
 18 36  1  0
M  CHG  1   7   1
M  END
>  <UniqueID>  (6) 
6

>  <SMILES>  (6) 
CCn1c(C)n[nH+]c1SCCOc1ccccc1

>  <Energy>  (6) 
61.36004748248568

>  <Genealogy>  (6) 
CCn1c(C)n[nH+]c1SCCOc1ccccc1 (protonated)
CCn1c(C)n[nH+]c1SCCOc1ccccc1 (3D coordinates assigned)
CCn1c(C)n[nH+]c1SCCOc1ccccc1 (optimized conformer: 61.36004748248568 kcal/mol)

>  <smiles>  (6) 
CCn1c(C)nnc1SCCOc1ccccc1

>  <score_type>  (6) 
oracle

>  <origin>  (6) 
adg

>  <m_score__min__energy>  (6) 
-5.2000000000000002

>  <m_primary>  (6) 
energy

$$$$
6:0
     RDKit          3D

 72 74  0  0  0  0  0  0  0  0999 V2000
   56.5740   30.8360   51.9940 C   0  0  0  0  0  0  0  0  0  0  0  0
   57.3170   32.0080   51.3620 C   0  0  0  0  0  0  0  0  0  0  0  0
   58.6320   31.5520   50.8430 N   0  0  0  0  0  0  0  0  0  0  0  0
   59.7640   32.1880   51.5640 C   0  0  0  0  0  0  0  0  0  0  0  0
   59.4160   33.5410   52.2050 C   0  0  0  0  0  0  0  0  0  0  0  0
   58.7700   30.0790   50.7900 C   0  0  0  0  0  0  0  0  0  0  0  0
   59.2860   29.5740   49.4260 C   0  0  0  0  0  0  0  0  0  0  0  0
   59.8870   30.6340   48.5720 N   0  0  0  0  0  0  0  0  0  0  0  0
   59.2700   30.7040   47.2480 C   0  0  0  0  0  0  0  0  0  0  0  0
   59.2820   29.5190   46.4450 C   0  0  0  0  0  0  0  0  0  0  0  0
   60.0210   28.3630   46.8170 C   0  0  0  0  0  0  0  0  0  0  0  0
   60.0070   27.2100   46.0380 C   0  0  0  0  0  0  0  0  0  0  0  0
   59.2710   27.1720   44.8640 C   0  0  0  0  0  0  0  0  0  0  0  0
   58.5420   28.2860   44.4680 C   0  0  0  0  0  0  0  0  0  0  0  0
   58.5250   29.4710   45.2480 C   0  0  0  0  0  0  0  0  0  0  0  0
   57.8090   30.5680   44.8470 N   0  0  0  0  0  0  0  0  0  0  0  0
   56.7460   30.4230   43.8260 C   0  0  0  0  0  0  0  0  0  0  0  0
   58.0860   31.8010   45.3870 C   0  0  0  0  0  0  0  0  0  0  0  0
   57.7570   32.9650   44.6570 C   0  0  0  0  0  0  0  0  0  0  0  0
   57.9750   34.2260   45.1720 C   0  0  0  0  0  0  0  0  0  0  0  0
   58.4830   34.3670   46.4440 C   0  0  0  0  0  0  0  0  0  0  0  0
   58.8450   33.2530   47.2160 C   0  0  0  0  0  0  0  0  0  0  0  0
   59.2010   33.5260   48.5760 N   0  0  0  0  0  0  0  0  0  0  0  0
   60.1640   34.5540   48.9880 C   0  0  0  0  0  0  0  0  0  0  0  0
   61.5770   33.9810   49.1860 C   0  0  0  0  0  0  0  0  0  0  0  0
   61.6830   32.5790   48.7140 N   0  0  0  0  0  0  0  0  0  0  0  0
   62.5190   31.7690   49.6210 C   0  0  0  0  0  0  0  0  0  0  0  0
   62.1400   32.4500   47.3000 C   0  0  0  0  0  0  0  0  0  0  0  0
   63.4510   31.6530   47.1380 C   0  0  0  0  0  0  0  0  0  0  0  0
   62.2550   33.8310   46.6400 C   0  0  0  0  0  0  0  0  0  0  0  0
   58.7320   31.9190   46.6660 C   0  0  0  0  0  0  0  0  0  0  0  0
   56.6255   30.9172   53.0898 H   0  0  0  0  0  0  0  0  0  0  0  0
   55.5217   30.8535   51.6741 H   0  0  0  0  0  0  0  0  0  0  0  0
   57.0388   29.8918   51.6741 H   0  0  0  0  0  0  0  0  0  0  0  0
   56.7189   32.4148   50.5333 H   0  0  0  0  0  0  0  0  0  0  0  0
   57.4778   32.7870   52.1218 H   0  0  0  0  0  0  0  0  0  0  0  0
   60.0959   31.5039   52.3589 H   0  0  0  0  0  0  0  0  0  0  0  0
   60.5481   32.3820   50.8173 H   0  0  0  0  0  0  0  0  0  0  0  0
   59.4407   33.4449   53.3005 H   0  0  0  0  0  0  0  0  0  0  0  0
   60.1490   34.2969   51.8866 H   0  0  0  0  0  0  0  0  0  0  0  0
   58.4093   33.8495   51.8866 H   0  0  0  0  0  0  0  0  0  0  0  0
   59.4772   29.7642   51.5715 H   0  0  0  0  0  0  0  0  0  0  0  0
   57.7702   29.6475   50.9456 H   0  0  0  0  0  0  0  0  0  0  0  0
   60.0500   28.8041   49.6095 H   0  0  0  0  0  0  0  0  0  0  0  0
   58.4128   29.1858   48.8812 H   0  0  0  0  0  0  0  0  0  0  0  0
   59.9390   31.5130   49.0940 H   0  0  0  0  0  0  0  0  0  0  0  0
   60.9040   30.4350   48.4380 H   0  0  0  0  0  0  0  0  0  0  0  0
   60.6172   28.3803   47.7413 H   0  0  0  0  0  0  0  0  0  0  0  0
   60.5812   26.3268   46.3545 H   0  0  0  0  0  0  0  0  0  0  0  0
   59.2643   26.2613   44.2471 H   0  0  0  0  0  0  0  0  0  0  0  0
   57.9666   28.2487   43.5313 H   0  0  0  0  0  0  0  0  0  0  0  0
   55.7744   30.2905   44.3245 H   0  0  0  0  0  0  0  0  0  0  0  0
   56.7156   31.3253   43.1976 H   0  0  0  0  0  0  0  0  0  0  0  0
   56.9584   29.5455   43.1976 H   0  0  0  0  0  0  0  0  0  0  0  0
   57.3166   32.8633   43.6542 H   0  0  0  0  0  0  0  0  0  0  0  0
   57.7437   35.1161   44.5684 H   0  0  0  0  0  0  0  0  0  0  0  0
   58.6078   35.3758   46.8643 H   0  0  0  0  0  0  0  0  0  0  0  0
   58.6030   33.1110   49.3180 H   0  0  0  0  0  0  0  0  0  0  0  0
   60.2033   35.3334   48.2128 H   0  0  0  0  0  0  0  0  0  0  0  0
   59.8281   34.9642   49.9518 H   0  0  0  0  0  0  0  0  0  0  0  0
   62.2922   34.5993   48.6238 H   0  0  0  0  0  0  0  0  0  0  0  0
   61.7988   33.9928   50.2633 H   0  0  0  0  0  0  0  0  0  0  0  0
   62.2689   32.0113   50.6644 H   0  0  0  0  0  0  0  0  0  0  0  0
   62.3306   30.7009   49.4373 H   0  0  0  0  0  0  0  0  0  0  0  0
   63.5806   31.9910   49.4373 H   0  0  0  0  0  0  0  0  0  0  0  0
   61.3666   31.8626   46.7834 H   0  0  0  0  0  0  0  0  0  0  0  0
   63.8556   31.4070   48.1309 H   0  0  0  0  0  0  0  0  0  0  0  0
   63.2495   30.7244   46.5838 H   0  0  0  0  0  0  0  0  0  0  0  0
   64.1826   32.2593   46.5838 H   0  0  0  0  0  0  0  0  0  0  0  0
   62.3195   34.6053   47.4187 H   0  0  0  0  0  0  0  0  0  0  0  0
   63.1590   33.8642   46.0142 H   0  0  0  0  0  0  0  0  0  0  0  0
   61.3689   34.0132   46.0142 H   0  0  0  0  0  0  0  0  0  0  0  0
  1  2  1  0
  2  3  1  0
  3  4  1  0
  4  5  1  0
  3  6  1  0
  6  7  1  0
  7  8  1  0
  8  9  1  0
  9 10  2  0
 10 11  1  0
 11 12  2  0
 12 13  1  0
 13 14  2  0
 14 15  1  0
 15 16  2  0
 16 17  1  0
 16 18  1  0
 18 19  2  0
 19 20  1  0
 20 21  2  0
 21 22  1  0
 22 23  1  0
 23 24  1  0
 24 25  1  0
 25 26  1  0
 26 27  1  0
 26 28  1  0
 28 29  1  0
 28 30  1  0
 22 31  2  0
 31  9  1  0
 15 10  1  0
 31 18  1  0
  1 32  1  0
  1 33  1  0
  1 34  1  0
  2 35  1  0
  2 36  1  0
  4 37  1  0
  4 38  1  0
  5 39  1  0
  5 40  1  0
  5 41  1  0
  6 42  1  0
  6 43  1  0
  7 44  1  0
  7 45  1  0
  8 46  1  0
  8 47  1  0
 11 48  1  0
 12 49  1  0
 13 50  1  0
 14 51  1  0
 17 52  1  0
 17 53  1  0
 17 54  1  0
 19 55  1  0
 20 56  1  0
 21 57  1  0
 23 58  1  0
 24 59  1  0
 24 60  1  0
 25 61  1  0
 25 62  1  0
 27 63  1  0
 27 64  1  0
 27 65  1  0
 28 66  1  0
 29 67  1  0
 29 68  1  0
 29 69  1  0
 30 70  1  0
 30 71  1  0
 30 72  1  0
M  CHG  2   8   1  16   1
M  END
>  <UniqueID>  (7) 
7

>  <SMILES>  (7) 
CCN(CC)CC[NH2+]c1c2ccccc2[n+](C)c2cccc(NCCN(C)C(C)C)c12

>  <Energy>  (7) 
120.51027814659462

>  <Genealogy>  (7) 
CCN(CC)CC[NH2+]c1c2ccccc2[n+](C)c2cccc(NCCN(C)C(C)C)c12 (protonated)
CCN(CC)CC[NH2+]c1c2ccccc2[n+](C)c2cccc(NCCN(C)C(C)C)c12 (3D coordinates assigned)
CCN(CC)CC[NH2+]c1c2ccccc2[n+](C)c2cccc(NCCN(C)C(C)C)c12 (optimized conformer: 120.51027814659462 kcal/mol)

>  <smiles>  (7) 
CCN(CC)CCNc1c2ccccc2[n+](C)c2cccc(NCCN(C)C(C)C)c12

>  <score_type>  (7) 
oracle

>  <origin>  (7) 
adg

>  <m_score__min__energy>  (7) 
-3.8300000000000001

>  <m_primary>  (7) 
energy

$$$$
7:0
     RDKit          3D

 59 60  0  0  0  0  0  0  0  0999 V2000
   64.4920   33.0215   49.5778 H   0  0  0  0  0  0  0  0  0  0  0  0
   63.7110   33.4820   48.9550 C   0  0  0  0  0  0  0  0  0  0  0  0
   63.5700   33.0300   47.6930 C   0  0  0  0  0  0  0  0  0  0  0  0
   64.3115   33.3599   46.9505 H   0  0  0  0  0  0  0  0  0  0  0  0
   62.4700   32.1030   47.2170 C   0  0  0  0  0  0  0  0  0  0  0  0
   62.3442   32.2274   46.1313 H   0  0  0  0  0  0  0  0  0  0  0  0
   62.7602   31.0714   47.4650 H   0  0  0  0  0  0  0  0  0  0  0  0
   61.1840   32.3920   47.8840 N   0  0  0  0  0  0  0  0  0  0  0  0
   61.3120   32.9280   48.7750 H   0  0  0  0  0  0  0  0  0  0  0  0
   60.7360   31.4870   48.1580 H   0  0  0  0  0  0  0  0  0  0  0  0
   60.2920   33.1170   47.0000 C   0  0  0  0  0  0  0  0  0  0  0  0
   60.4690   34.5050   46.8410 C   0  0  0  0  0  0  0  0  0  0  0  0
   61.2587   35.0269   47.4014 H   0  0  0  0  0  0  0  0  0  0  0  0
   59.6420   35.2180   45.9720 C   0  0  0  0  0  0  0  0  0  0  0  0
   59.7895   36.3004   45.8427 H   0  0  0  0  0  0  0  0  0  0  0  0
   58.6580   34.5860   45.2860 N   0  0  0  0  0  0  0  0  0  0  0  0
   58.4260   33.2540   45.4280 C   0  0  0  0  0  0  0  0  0  0  0  0
   57.3860   32.6600   44.7090 C   0  0  0  0  0  0  0  0  0  0  0  0
   56.7807   33.2695   44.0219 H   0  0  0  0  0  0  0  0  0  0  0  0
   57.1060   31.2890   44.8560 C   0  0  0  0  0  0  0  0  0  0  0  0
   56.0690   30.6570   44.1470 O   0  0  0  0  0  0  0  0  0  0  0  0
   56.2590   29.7590   43.0550 C   0  0  0  0  0  0  0  0  0  0  0  0
   56.4722   28.7515   43.4416 H   0  0  0  0  0  0  0  0  0  0  0  0
   55.3470   29.7306   42.4407 H   0  0  0  0  0  0  0  0  0  0  0  0
   57.1044   30.1024   42.4407 H   0  0  0  0  0  0  0  0  0  0  0  0
   57.8720   30.5140   45.7390 C   0  0  0  0  0  0  0  0  0  0  0  0
   57.5480   29.1540   45.8790 O   0  0  0  0  0  0  0  0  0  0  0  0
   58.3010   28.0770   45.3250 C   0  0  0  0  0  0  0  0  0  0  0  0
   58.7254   27.4699   46.1382 H   0  0  0  0  0  0  0  0  0  0  0  0
   57.6431   27.4505   44.7047 H   0  0  0  0  0  0  0  0  0  0  0  0
   59.1153   28.4798   44.7047 H   0  0  0  0  0  0  0  0  0  0  0  0
   58.9380   31.1060   46.4510 C   0  0  0  0  0  0  0  0  0  0  0  0
   59.5459   30.4913   47.1312 H   0  0  0  0  0  0  0  0  0  0  0  0
   59.2320   32.4790   46.2990 C   0  0  0  0  0  0  0  0  0  0  0  0
   62.8770   34.5710   49.5730 C   0  0  0  0  0  0  0  0  0  0  0  0
   62.7568   35.3937   48.8528 H   0  0  0  0  0  0  0  0  0  0  0  0
   63.3769   34.9451   50.4786 H   0  0  0  0  0  0  0  0  0  0  0  0
   61.6070   34.0570   49.9160 O   0  0  0  0  0  0  0  0  0  0  0  0
   61.6700   33.4510   51.1910 C   0  0  0  0  0  0  0  0  0  0  0  0
   61.7461   34.2285   51.9654 H   0  0  0  0  0  0  0  0  0  0  0  0
   62.5524   32.7967   51.2479 H   0  0  0  0  0  0  0  0  0  0  0  0
   60.4010   32.6270   51.4150 C   0  0  0  0  0  0  0  0  0  0  0  0
   59.5617   33.3027   51.6364 H   0  0  0  0  0  0  0  0  0  0  0  0
   60.5592   31.9411   52.2603 H   0  0  0  0  0  0  0  0  0  0  0  0
   60.0890   31.8370   50.1960 N   0  0  0  0  0  0  0  0  0  0  0  0
   60.5030   30.4240   50.3540 C   0  0  0  0  0  0  0  0  0  0  0  0
   60.2703   30.0893   51.3757 H   0  0  0  0  0  0  0  0  0  0  0  0
   61.5845   30.3442   50.1698 H   0  0  0  0  0  0  0  0  0  0  0  0
   59.7600   29.5410   49.3520 C   0  0  0  0  0  0  0  0  0  0  0  0
   59.1440   28.8089   49.8947 H   0  0  0  0  0  0  0  0  0  0  0  0
   59.1134   30.1675   48.7201 H   0  0  0  0  0  0  0  0  0  0  0  0
   60.4879   29.0110   48.7201 H   0  0  0  0  0  0  0  0  0  0  0  0
   58.6560   31.9450   49.8330 C   0  0  0  0  0  0  0  0  0  0  0  0
   58.4920   32.8799   49.2770 H   0  0  0  0  0  0  0  0  0  0  0  0
   58.3788   31.0822   49.2095 H   0  0  0  0  0  0  0  0  0  0  0  0
   57.7890   31.9480   51.0910 C   0  0  0  0  0  0  0  0  0  0  0  0
   58.4349   31.9458   51.9814 H   0  0  0  0  0  0  0  0  0  0  0  0
   57.1571   32.8483   51.0987 H   0  0  0  0  0  0  0  0  0  0  0  0
   57.1509   31.0521   51.0987 H   0  0  0  0  0  0  0  0  0  0  0  0
  1  2  1  0
  2  3  2  0
  3  4  1  0
  3  5  1  0
  5  6  1  0
  5  7  1  0
  5  8  1  0
  8  9  1  0
  8 10  1  0
  8 11  1  0
 11 12  2  0
 12 13  1  0
 12 14  1  0
 14 15  1  0
 14 16  2  0
 16 17  1  0
 17 18  2  0
 18 19  1  0
 18 20  1  0
 20 21  1  0
 21 22  1  0
 22 23  1  0
 22 24  1  0
 22 25  1  0
 20 26  2  0
 26 27  1  0
 27 28  1  0
 28 29  1  0
 28 30  1  0
 28 31  1  0
 26 32  1  0
 32 33  1  0
 32 34  2  0
  2 35  1  0
 35 36  1  0
 35 37  1  0
 35 38  1  0
 38 39  1  0
 39 40  1  0
 39 41  1  0
 39 42  1  0
 42 43  1  0
 42 44  1  0
 42 45  1  0
 45 46  1  0
 46 47  1  0
 46 48  1  0
 46 49  1  0
 49 50  1  0
 49 51  1  0
 49 52  1  0
 45 53  1  0
 53 54  1  0
 53 55  1  0
 53 56  1  0
 56 57  1  0
 56 58  1  0
 56 59  1  0
 34 11  1  0
 34 17  1  0
M  CHG  1   8   1
M  END
>  <UniqueID>  (8) 
8

>  <SMILES>  (8) 
CCN(CC)CCOC/C=C\C[NH2+]c1ccnc2cc(OC)c(OC)cc12

>  <Energy>  (8) 
60.13212463570835

>  <Genealogy>  (8) 
CCN(CC)CCOCC=CC[NH2+]c1ccnc2cc(OC)c(OC)cc12 (protonated)
CCN(CC)CCOC/C=C\C[NH2+]c1ccnc2cc(OC)c(OC)cc12 (cis-trans isomerization)
CCN(CC)CCOC/C=C\C[NH2+]c1ccnc2cc(OC)c(OC)cc12 (3D coordinates assigned)
CCN(CC)CCOC/C=C\C[NH2+]c1ccnc2cc(OC)c(OC)cc12 (optimized conformer: 60.13212463570835 kcal/mol)

>  <smiles>  (8) 
CCN(CC)CCOCC=CCNc1ccnc2cc(OC)c(OC)cc12

>  <score_type>  (8) 
oracle

>  <origin>  (8) 
adg

>  <m_score__min__energy>  (8) 
-4.1200000000000001

>  <m_primary>  (8) 
energy

$$$$
8:0
     RDKit          3D

 46 50  0  0  0  0  0  0  0  0999 V2000
   57.8290   24.6220   45.5020 C   0  0  0  0  0  0  0  0  0  0  0  0
   57.8370   25.9570   44.9190 N   0  0  0  0  0  0  0  0  0  0  0  0
   57.5610   27.1380   45.5100 C   0  0  0  0  0  0  0  0  0  0  0  0
   57.7060   28.0970   44.5470 C   0  0  0  0  0  0  0  0  0  0  0  0
   57.4970   29.5230   44.7710 C   0  0  0  0  0  0  0  0  0  0  0  0
   58.3660   30.4560   45.2150 N   0  0  0  0  0  0  0  0  0  0  0  0
   57.7490   31.6590   45.2740 C   0  0  0  0  0  0  0  0  0  0  0  0
   58.3720   32.9410   45.7150 C   0  0  0  0  0  0  0  0  0  0  0  0
   59.5700   32.7640   46.5310 C   0  0  0  0  0  0  0  0  0  0  0  0
   59.5380   31.8180   47.5450 C   0  0  0  0  0  0  0  0  0  0  0  0
   60.6480   31.6160   48.3400 C   0  0  0  0  0  0  0  0  0  0  0  0
   61.8100   32.3340   48.1580 C   0  0  0  0  0  0  0  0  0  0  0  0
   62.9940   32.1410   48.9830 C   0  0  0  0  0  0  0  0  0  0  0  0
   63.0160   31.3530   50.1140 C   0  0  0  0  0  0  0  0  0  0  0  0
   64.1560   31.2420   50.8040 N   0  0  0  0  0  0  0  0  0  0  0  0
   65.3010   31.8580   50.4590 C   0  0  0  0  0  0  0  0  0  0  0  0
   66.3510   31.6900   51.1880 N   0  0  0  0  0  0  0  0  0  0  0  0
   65.2890   32.6280   49.3570 N   0  0  0  0  0  0  0  0  0  0  0  0
   64.1680   32.7690   48.6350 C   0  0  0  0  0  0  0  0  0  0  0  0
   61.8110   33.2430   47.1680 N   0  0  0  0  0  0  0  0  0  0  0  0
   60.7510   33.4600   46.3830 C   0  0  0  0  0  0  0  0  0  0  0  0
   57.3790   33.9340   46.2810 C   0  0  0  0  0  0  0  0  0  0  0  0
   57.2320   34.5040   44.8860 C   0  0  0  0  0  0  0  0  0  0  0  0
   58.6130   33.9340   44.5970 C   0  0  0  0  0  0  0  0  0  0  0  0
   56.4950   31.4220   44.8550 N   0  0  0  0  0  0  0  0  0  0  0  0
   56.3650   30.1620   44.5640 O   0  0  0  0  0  0  0  0  0  0  0  0
   58.0720   27.4870   43.3660 C   0  0  0  0  0  0  0  0  0  0  0  0
   58.1380   26.1760   43.6500 N   0  0  0  0  0  0  0  0  0  0  0  0
   57.8295   24.7010   46.5992 H   0  0  0  0  0  0  0  0  0  0  0  0
   56.9276   24.0838   45.1735 H   0  0  0  0  0  0  0  0  0  0  0  0
   58.7239   24.0731   45.1735 H   0  0  0  0  0  0  0  0  0  0  0  0
   57.2755   27.2977   46.5602 H   0  0  0  0  0  0  0  0  0  0  0  0
   58.6258   31.2274   47.7159 H   0  0  0  0  0  0  0  0  0  0  0  0
   60.6039   30.8621   49.1398 H   0  0  0  0  0  0  0  0  0  0  0  0
   62.1098   30.8238   50.4437 H   0  0  0  0  0  0  0  0  0  0  0  0
   66.2240   31.3300   52.1520 H   0  0  0  0  0  0  0  0  0  0  0  0
   66.1570   33.1230   49.0560 H   0  0  0  0  0  0  0  0  0  0  0  0
   64.1873   33.4055   47.7380 H   0  0  0  0  0  0  0  0  0  0  0  0
   60.8235   34.2203   45.5914 H   0  0  0  0  0  0  0  0  0  0  0  0
   56.4627   33.4818   46.6884 H   0  0  0  0  0  0  0  0  0  0  0  0
   57.6333   34.5743   47.1385 H   0  0  0  0  0  0  0  0  0  0  0  0
   56.4179   34.0638   44.2915 H   0  0  0  0  0  0  0  0  0  0  0  0
   56.9888   35.5623   44.7105 H   0  0  0  0  0  0  0  0  0  0  0  0
   58.7225   33.4829   43.5998 H   0  0  0  0  0  0  0  0  0  0  0  0
   59.5078   34.5735   44.5771 H   0  0  0  0  0  0  0  0  0  0  0  0
   58.2681   27.9708   42.3978 H   0  0  0  0  0  0  0  0  0  0  0  0
  1  2  1  0
  2  3  1  0
  3  4  2  0
  4  5  1  0
  5  6  2  0
  6  7  1  0
  7  8  1  0
  8  9  1  0
  9 10  2  0
 10 11  1  0
 11 12  2  0
 12 13  1  0
 13 14  1  0
 14 15  2  0
 15 16  1  0
 16 17  2  3
 16 18  1  0
 18 19  1  0
 12 20  1  0
 20 21  2  0
  8 22  1  0
 22 23  1  0
 23 24  1  0
  7 25  2  0
 25 26  1  0
  4 27  1  0
 27 28  2  0
 28  2  1  0
 26  5  1  0
 24  8  1  0
 21  9  1  0
 19 13  2  0
  1 29  1  0
  1 30  1  0
  1 31  1  0
  3 32  1  0
 10 33  1  0
 11 34  1  0
 14 35  1  0
 17 36  1  0
 18 37  1  0
 19 38  1  0
 21 39  1  0
 22 40  1  0
 22 41  1  0
 23 42  1  0
 23 43  1  0
 24 44  1  0
 24 45  1  0
 27 46  1  0
M  END
>  <smiles>  (9) 
Cn1cc(-c2nc(C3(c4ccc(-c5cnc(=N)[nH]c5)nc4)CCC3)no2)cn1

>  <score_type>  (9) 
oracle

>  <origin>  (9) 
adg

>  <m_score__min__energy>  (9) 
-8.7799999999999994

>  <m_primary>  (9) 
energy

$$$$
9:0
     RDKit          3D

 59 61  0  0  0  0  0  0  0  0999 V2000
   63.0280   33.8370   46.3690 C   0  0  0  0  0  0  0  0  0  0  0  0
   63.7550   32.7300   47.1200 C   0  0  0  0  0  0  0  0  0  0  0  0
   62.9890   32.3010   48.2300 O   0  0  0  0  0  0  0  0  0  0  0  0
   63.5860   32.6950   49.4500 C   0  0  0  0  0  0  0  0  0  0  0  0
   62.8160   33.8600   50.0850 C   0  0  0  0  0  0  0  0  0  0  0  0
   61.4410   33.7790   49.7530 O   0  0  0  0  0  0  0  0  0  0  0  0
   60.6710   33.4130   50.8780 C   0  0  0  0  0  0  0  0  0  0  0  0
   59.3580   32.7760   50.4140 C   0  0  0  0  0  0  0  0  0  0  0  0
   59.5690   31.3520   49.8880 C   0  0  0  0  0  0  0  0  0  0  0  0
   60.3980   31.3780   48.6830 N   0  0  0  0  0  0  0  0  0  0  0  0
   59.7850   31.2700   47.3870 C   0  0  0  0  0  0  0  0  0  0  0  0
   59.4130   32.4300   46.6910 C   0  0  0  0  0  0  0  0  0  0  0  0
   58.8000   32.3140   45.4170 C   0  0  0  0  0  0  0  0  0  0  0  0
   58.4860   31.0620   44.9070 N   0  0  0  0  0  0  0  0  0  0  0  0
   57.7060   30.9560   43.6460 C   0  0  0  0  0  0  0  0  0  0  0  0
   56.2750   30.4910   43.9210 C   0  0  0  0  0  0  0  0  0  0  0  0
   58.9100   29.9140   45.5590 C   0  0  0  0  0  0  0  0  0  0  0  0
   58.7270   28.6170   45.0070 C   0  0  0  0  0  0  0  0  0  0  0  0
   59.1760   27.4750   45.6660 C   0  0  0  0  0  0  0  0  0  0  0  0
   59.8290   27.5840   46.8820 C   0  0  0  0  0  0  0  0  0  0  0  0
   60.0330   28.8360   47.4480 C   0  0  0  0  0  0  0  0  0  0  0  0
   59.5710   30.0080   46.8100 C   0  0  0  0  0  0  0  0  0  0  0  0
   58.3890   33.5850   44.6690 C   0  0  0  0  0  0  0  0  0  0  0  0
   59.0930   34.8510   45.1520 C   0  0  0  0  0  0  0  0  0  0  0  0
   58.9880   34.9440   46.6620 C   0  0  0  0  0  0  0  0  0  0  0  0
   59.7450   33.7830   47.2980 C   0  0  0  0  0  0  0  0  0  0  0  0
   62.5721   34.5312   47.0903 H   0  0  0  0  0  0  0  0  0  0  0  0
   63.7440   34.3828   45.7371 H   0  0  0  0  0  0  0  0  0  0  0  0
   62.2426   33.3968   45.7371 H   0  0  0  0  0  0  0  0  0  0  0  0
   63.9187   31.8793   46.4422 H   0  0  0  0  0  0  0  0  0  0  0  0
   64.7194   33.1174   47.4805 H   0  0  0  0  0  0  0  0  0  0  0  0
   63.5844   31.8415   50.1439 H   0  0  0  0  0  0  0  0  0  0  0  0
   64.6161   33.0234   49.2473 H   0  0  0  0  0  0  0  0  0  0  0  0
   62.9286   33.8164   51.1784 H   0  0  0  0  0  0  0  0  0  0  0  0
   63.2215   34.8082   49.7022 H   0  0  0  0  0  0  0  0  0  0  0  0
   61.2334   32.6906   51.4877 H   0  0  0  0  0  0  0  0  0  0  0  0
   60.4516   34.3081   51.4785 H   0  0  0  0  0  0  0  0  0  0  0  0
   58.6596   32.7417   51.2632 H   0  0  0  0  0  0  0  0  0  0  0  0
   58.9539   33.3866   49.5931 H   0  0  0  0  0  0  0  0  0  0  0  0
   60.0690   30.7493   50.6605 H   0  0  0  0  0  0  0  0  0  0  0  0
   58.5917   30.9107   49.6428 H   0  0  0  0  0  0  0  0  0  0  0  0
   61.3210   31.8740   48.7430 H   0  0  0  0  0  0  0  0  0  0  0  0
   57.6760   31.9415   43.1582 H   0  0  0  0  0  0  0  0  0  0  0  0
   58.1944   30.2166   42.9942 H   0  0  0  0  0  0  0  0  0  0  0  0
   56.1093   30.4372   45.0071 H   0  0  0  0  0  0  0  0  0  0  0  0
   55.5657   31.2049   43.4768 H   0  0  0  0  0  0  0  0  0  0  0  0
   56.1209   29.4965   43.4768 H   0  0  0  0  0  0  0  0  0  0  0  0
   58.2190   28.5128   44.0369 H   0  0  0  0  0  0  0  0  0  0  0  0
   59.0113   26.4835   45.2190 H   0  0  0  0  0  0  0  0  0  0  0  0
   60.1856   26.6809   47.3989 H   0  0  0  0  0  0  0  0  0  0  0  0
   60.5629   28.9158   48.4086 H   0  0  0  0  0  0  0  0  0  0  0  0
   58.6200   33.4475   43.6024 H   0  0  0  0  0  0  0  0  0  0  0  0
   57.3149   33.7292   44.8574 H   0  0  0  0  0  0  0  0  0  0  0  0
   60.1529   34.8152   44.8598 H   0  0  0  0  0  0  0  0  0  0  0  0
   58.6163   35.7316   44.6967 H   0  0  0  0  0  0  0  0  0  0  0  0
   59.4235   35.8953   47.0017 H   0  0  0  0  0  0  0  0  0  0  0  0
   57.9299   34.8976   46.9590 H   0  0  0  0  0  0  0  0  0  0  0  0
   60.8232   33.9631   47.1756 H   0  0  0  0  0  0  0  0  0  0  0  0
   59.4428   33.7434   48.3549 H   0  0  0  0  0  0  0  0  0  0  0  0
  1  2  1  0
  2  3  1  0
  3  4  1  0
  4  5  1  0
  5  6  1  0
  6  7  1  0
  7  8  1  0
  8  9  1  0
  9 10  1  0
 10 11  1  0
 11 12  2  0
 12 13  1  0
 13 14  2  0
 14 15  1  0
 15 16  1  0
 14 17  1  0
 17 18  2  0
 18 19  1  0
 19 20  2  0
 20 21  1  0
 21 22  2  0
 13 23  1  0
 23 24  1  0
 24 25  1  0
 25 26  1  0
 22 11  1  0
 26 12  1  0
 22 17  1  0
  1 27  1  0
  1 28  1  0
  1 29  1  0
  2 30  1  0
  2 31  1  0
  4 32  1  0
  4 33  1  0
  5 34  1  0
  5 35  1  0
  7 36  1  0
  7 37  1  0
  8 38  1  0
  8 39  1  0
  9 40  1  0
  9 41  1  0
 10 42  1  0
 15 43  1  0
 15 44  1  0
 16 45  1  0
 16 46  1  0
 16 47  1  0
 18 48  1  0
 19 49  1  0
 20 50  1  0
 21 51  1  0
 23 52  1  0
 23 53  1  0
 24 54  1  0
 24 55  1  0
 25 56  1  0
 25 57  1  0
 26 58  1  0
 26 59  1  0
M  CHG  1  14   1
M  END
>  <UniqueID>  (10) 
9

>  <SMILES>  (10) 
CCOCCOCCCNc1c2c([n+](CC)c3ccccc13)CCCC2

>  <Energy>  (10) 
74.2654518207506

>  <Genealogy>  (10) 
CCOCCOCCCNc1c2c([n+](CC)c3ccccc13)CCCC2 (3D coordinates assigned)
CCOCCOCCCNc1c2c([n+](CC)c3ccccc13)CCCC2 (nonaromatic ring conformer: 74.2654518207506 kcal/mol)

>  <smiles>  (10) 
CCOCCOCCCNc1c2c([n+](CC)c3ccccc13)CCCC2

>  <score_type>  (10) 
oracle

>  <origin>  (10) 
adg

>  <m_score__min__energy>  (10) 
-4.9500000000000002

>  <m_primary>  (10) 
energy

$$$$
10:0
     RDKit          3D

 55 55  0  0  0  0  0  0  0  0999 V2000
   59.4130   29.3330   45.1980 C   0  0  0  0  0  0  0  0  0  0  0  0
   58.4390   28.7910   46.2320 C   0  0  0  0  0  0  0  0  0  0  0  0
   57.1430   29.2720   45.9460 O   0  0  0  0  0  0  0  0  0  0  0  0
   56.7100   28.8100   44.6790 C   0  0  0  0  0  0  0  0  0  0  0  0
   56.1460   29.9680   43.8590 C   0  0  0  0  0  0  0  0  0  0  0  0
   56.6370   31.1850   44.3800 O   0  0  0  0  0  0  0  0  0  0  0  0
   57.4020   31.8710   43.4060 C   0  0  0  0  0  0  0  0  0  0  0  0
   58.1470   33.0390   44.0510 C   0  0  0  0  0  0  0  0  0  0  0  0
   57.6420   33.2480   45.7500 S   0  0  0  0  0  0  0  0  0  0  0  0
   57.7620   31.7940   46.5850 O   0  0  0  0  0  0  0  0  0  0  0  0
   58.4920   34.5610   46.6220 C   0  0  0  0  0  0  0  0  0  0  0  0
   59.6100   34.0560   47.5470 C   0  0  0  0  0  0  0  0  0  0  0  0
   60.7730   33.4060   46.7780 C   0  0  0  0  0  0  0  0  0  0  0  0
   62.0850   33.8530   47.2990 N   0  0  0  0  0  0  0  0  0  0  0  0
   62.0950   33.9120   48.7840 C   0  0  0  0  0  0  0  0  0  0  0  0
   63.5210   33.8270   49.3550 C   0  0  0  0  0  0  0  0  0  0  0  0
   64.2160   32.5710   48.9580 N   0  0  0  0  0  0  0  0  0  0  0  0
   64.3460   31.5880   50.0630 C   0  0  0  0  0  0  0  0  0  0  0  0
   63.0300   30.9150   50.4910 C   0  0  0  0  0  0  0  0  0  0  0  0
   63.6740   31.9590   47.7190 C   0  0  0  0  0  0  0  0  0  0  0  0
   63.1960   33.0380   46.7380 C   0  0  0  0  0  0  0  0  0  0  0  0
   60.2642   29.8067   45.7090 H   0  0  0  0  0  0  0  0  0  0  0  0
   59.7765   28.5074   44.5685 H   0  0  0  0  0  0  0  0  0  0  0  0
   58.9030   30.0770   44.5685 H   0  0  0  0  0  0  0  0  0  0  0  0
   58.4394   27.6916   46.1970 H   0  0  0  0  0  0  0  0  0  0  0  0
   58.7431   29.1228   47.2357 H   0  0  0  0  0  0  0  0  0  0  0  0
   57.5624   28.3669   44.1432 H   0  0  0  0  0  0  0  0  0  0  0  0
   55.9227   28.0553   44.8224 H   0  0  0  0  0  0  0  0  0  0  0  0
   56.4593   29.8634   42.8098 H   0  0  0  0  0  0  0  0  0  0  0  0
   55.0473   29.9588   43.9114 H   0  0  0  0  0  0  0  0  0  0  0  0
   58.1297   31.1771   42.9599 H   0  0  0  0  0  0  0  0  0  0  0  0
   56.7290   32.2591   42.6272 H   0  0  0  0  0  0  0  0  0  0  0  0
   59.2284   32.8402   44.0175 H   0  0  0  0  0  0  0  0  0  0  0  0
   57.9108   33.9589   43.4961 H   0  0  0  0  0  0  0  0  0  0  0  0
   57.0320   31.2370   46.2180 H   0  0  0  0  0  0  0  0  0  0  0  0
   58.9344   35.2425   45.8805 H   0  0  0  0  0  0  0  0  0  0  0  0
   57.7477   35.0636   47.2571 H   0  0  0  0  0  0  0  0  0  0  0  0
   60.0018   34.9079   48.1221 H   0  0  0  0  0  0  0  0  0  0  0  0
   59.1753   33.2864   48.2018 H   0  0  0  0  0  0  0  0  0  0  0  0
   60.7018   32.3130   46.8792 H   0  0  0  0  0  0  0  0  0  0  0  0
   60.7000   33.7071   45.7225 H   0  0  0  0  0  0  0  0  0  0  0  0
   61.6401   34.8608   49.1047 H   0  0  0  0  0  0  0  0  0  0  0  0
   61.5259   33.0498   49.1619 H   0  0  0  0  0  0  0  0  0  0  0  0
   64.1018   34.6847   48.9847 H   0  0  0  0  0  0  0  0  0  0  0  0
   63.4447   33.8364   50.4523 H   0  0  0  0  0  0  0  0  0  0  0  0
   65.2010   32.8500   48.7270 H   0  0  0  0  0  0  0  0  0  0  0  0
   65.0427   30.8007   49.7395 H   0  0  0  0  0  0  0  0  0  0  0  0
   64.7018   32.1527   50.9374 H   0  0  0  0  0  0  0  0  0  0  0  0
   62.9732   30.8860   51.5892 H   0  0  0  0  0  0  0  0  0  0  0  0
   62.1791   31.4886   50.0949 H   0  0  0  0  0  0  0  0  0  0  0  0
   62.9970   29.8893   50.0949 H   0  0  0  0  0  0  0  0  0  0  0  0
   64.4618   31.3597   47.2391 H   0  0  0  0  0  0  0  0  0  0  0  0
   62.8169   31.3237   47.9871 H   0  0  0  0  0  0  0  0  0  0  0  0
   64.0402   33.7031   46.5035 H   0  0  0  0  0  0  0  0  0  0  0  0
   62.8226   32.5328   45.8350 H   0  0  0  0  0  0  0  0  0  0  0  0
  1  2  1  0
  2  3  1  0
  3  4  1  0
  4  5  1  0
  5  6  1  0
  6  7  1  0
  7  8  1  0
  8  9  1  0
  9 10  1  1
  9 11  1  0
 11 12  1  0
 12 13  1  0
 13 14  1  0
 14 15  1  0
 15 16  1  0
 16 17  1  0
 17 18  1  0
 18 19  1  0
 17 20  1  0
 20 21  1  0
 21 14  1  0
  1 22  1  0
  1 23  1  0
  1 24  1  0
  2 25  1  0
  2 26  1  0
  4 27  1  0
  4 28  1  0
  5 29  1  0
  5 30  1  0
  7 31  1  0
  7 32  1  0
  8 33  1  0
  8 34  1  0
 10 35  1  0
 11 36  1  0
 11 37  1  0
 12 38  1  0
 12 39  1  0
 13 40  1  0
 13 41  1  0
 15 42  1  0
 15 43  1  0
 16 44  1  0
 16 45  1  0
 17 46  1  0
 18 47  1  0
 18 48  1  0
 19 49  1  0
 19 50  1  0
 19 51  1  0
 20 52  1  0
 20 53  1  0
 21 54  1  0
 21 55  1  0
M  CHG  2   9   1  17   1
M  END
>  <UniqueID>  (11) 
10

>  <SMILES>  (11) 
CCOCCOCC[S@@+](O)CCCN1CC[NH+](CC)CC1

>  <Energy>  (11) 
54.28861515494895

>  <Genealogy>  (11) 
CCOCCOCC[S+](O)CCCN1CC[NH+](CC)CC1 (protonated)
CCOCCOCC[S@@+](O)CCCN1CC[NH+](CC)CC1 (chirality)
CCOCCOCC[S@@+](O)CCCN1CC[NH+](CC)CC1 (3D coordinates assigned)
CCOCCOCC[S@@+](O)CCCN1CC[NH+](CC)CC1 (nonaromatic ring conformer: 54.28861515494895 kcal/mol)

>  <smiles>  (11) 
CCOCCOCC[S+]([O-])CCCN1CCN(CC)CC1

>  <score_type>  (11) 
oracle

>  <origin>  (11) 
adg

>  <m_score__min__energy>  (11) 
-3.1600000000000001

>  <m_primary>  (11) 
energy

$$$$
11:0
     RDKit          3D

 35 37  0  0  0  0  0  0  0  0999 V2000
   60.0090   29.7390   45.2670 C   0  0  0  0  0  0  0  0  0  0  0  0
   58.6110   29.7960   44.8410 N   0  0  0  0  0  0  0  0  0  0  0  0
   57.7240   30.8170   44.9430 C   0  0  0  0  0  0  0  0  0  0  0  0
   58.0110   32.1820   45.4220 C   0  0  0  0  0  0  0  0  0  0  0  0
   58.2390   33.3240   44.6590 C   0  0  0  0  0  0  0  0  0  0  0  0
   58.5190   34.4590   45.4290 C   0  0  0  0  0  0  0  0  0  0  0  0
   58.5270   34.2190   46.7960 C   0  0  0  0  0  0  0  0  0  0  0  0
   58.1910   32.5920   47.0440 S   0  0  0  0  0  0  0  0  0  0  0  0
   56.5040   30.4530   44.4960 N   0  0  0  0  0  0  0  0  0  0  0  0
   56.6020   29.1860   44.1290 N   0  0  0  0  0  0  0  0  0  0  0  0
   57.8710   28.7940   44.3260 C   0  0  0  0  0  0  0  0  0  0  0  0
   58.4860   27.1520   43.9320 S   0  0  0  0  0  0  0  0  0  0  0  0
   59.1280   26.7760   45.6070 C   0  0  0  0  0  0  0  0  0  0  0  0
   58.6110   25.4440   46.1770 C   0  0  0  0  0  0  0  0  0  0  0  0
   57.1430   25.2010   45.9160 C   0  0  0  0  0  0  0  0  0  0  0  0
   56.7040   23.9590   45.4330 C   0  0  0  0  0  0  0  0  0  0  0  0
   55.3460   23.7390   45.1970 C   0  0  0  0  0  0  0  0  0  0  0  0
   54.4310   24.7550   45.4720 C   0  0  0  0  0  0  0  0  0  0  0  0
   54.8620   25.9390   45.9790 N   0  0  0  0  0  0  0  0  0  0  0  0
   56.1800   26.1790   46.2160 C   0  0  0  0  0  0  0  0  0  0  0  0
   60.0577   29.7370   46.3659 H   0  0  0  0  0  0  0  0  0  0  0  0
   60.4738   28.8212   44.8777 H   0  0  0  0  0  0  0  0  0  0  0  0
   60.5470   30.6160   44.8777 H   0  0  0  0  0  0  0  0  0  0  0  0
   58.2027   33.3335   43.5596 H   0  0  0  0  0  0  0  0  0  0  0  0
   58.7145   35.4491   44.9913 H   0  0  0  0  0  0  0  0  0  0  0  0
   58.7199   34.9650   47.5810 H   0  0  0  0  0  0  0  0  0  0  0  0
   55.8190   28.6170   43.7390 H   0  0  0  0  0  0  0  0  0  0  0  0
   60.2259   26.7307   45.5571 H   0  0  0  0  0  0  0  0  0  0  0  0
   58.7736   27.5739   46.2762 H   0  0  0  0  0  0  0  0  0  0  0  0
   59.1853   24.6245   45.7202 H   0  0  0  0  0  0  0  0  0  0  0  0
   58.7403   25.4895   47.2684 H   0  0  0  0  0  0  0  0  0  0  0  0
   57.4316   23.1569   45.2399 H   0  0  0  0  0  0  0  0  0  0  0  0
   55.0009   22.7738   44.7980 H   0  0  0  0  0  0  0  0  0  0  0  0
   53.3597   24.5973   45.2782 H   0  0  0  0  0  0  0  0  0  0  0  0
   56.4929   27.1427   46.6442 H   0  0  0  0  0  0  0  0  0  0  0  0
  1  2  1  0
  2  3  1  0
  3  4  1  0
  4  5  2  0
  5  6  1  0
  6  7  2  0
  7  8  1  0
  3  9  2  0
  9 10  1  0
 10 11  2  0
 11 12  1  0
 12 13  1  0
 13 14  1  0
 14 15  1  0
 15 16  2  0
 16 17  1  0
 17 18  2  0
 18 19  1  0
 19 20  2  0
 11  2  1  0
 20 15  1  0
  8  4  1  0
  1 21  1  0
  1 22  1  0
  1 23  1  0
  5 24  1  0
  6 25  1  0
  7 26  1  0
 10 27  1  0
 13 28  1  0
 13 29  1  0
 14 30  1  0
 14 31  1  0
 16 32  1  0
 17 33  1  0
 18 34  1  0
 20 35  1  0
M  CHG  1  10   1
M  END
>  <UniqueID>  (12) 
11

>  <SMILES>  (12) 
Cn1c(-c2cccs2)n[nH+]c1SCCc1cccnc1

>  <Energy>  (12) 
95.44064384315982

>  <Genealogy>  (12) 
Cn1c(-c2cccs2)n[nH+]c1SCCc1cccnc1 (protonated)
Cn1c(-c2cccs2)n[nH+]c1SCCc1cccnc1 (3D coordinates assigned)
Cn1c(-c2cccs2)n[nH+]c1SCCc1cccnc1 (optimized conformer: 95.44064384315982 kcal/mol)

>  <smiles>  (12) 
Cn1c(SCCc2cccnc2)nnc1-c1cccs1

>  <score_type>  (12) 
oracle

>  <origin>  (12) 
adg

>  <m_score__min__energy>  (12) 
-6.2999999999999998

>  <m_primary>  (12) 
energy

$$$$
12:0
     RDKit          3D

 62 65  0  0  0  0  0  0  0  0999 V2000
   57.5730   27.9180   53.8740 C   0  0  0  0  0  0  0  0  0  0  0  0
   56.0930   27.5450   53.8900 C   0  0  0  0  0  0  0  0  0  0  0  0
   55.2830   28.7050   54.0710 O   0  0  0  0  0  0  0  0  0  0  0  0
   54.4070   29.2510   53.1160 C   0  0  0  0  0  0  0  0  0  0  0  0
   53.0820   28.7980   52.9730 C   0  0  0  0  0  0  0  0  0  0  0  0
   52.2270   29.3870   52.0410 C   0  0  0  0  0  0  0  0  0  0  0  0
   52.6840   30.4170   51.2050 C   0  0  0  0  0  0  0  0  0  0  0  0
   51.7910   31.0340   50.2580 N   0  0  0  0  0  0  0  0  0  0  0  0
   51.4280   30.4220   49.2310 O   0  0  0  0  0  0  0  0  0  0  0  0
   51.3430   32.3230   50.4530 O   0  0  0  0  0  0  0  0  0  0  0  0
   54.0130   30.8520   51.3240 C   0  0  0  0  0  0  0  0  0  0  0  0
   54.8740   30.2870   52.2810 C   0  0  0  0  0  0  0  0  0  0  0  0
   56.2630   30.8540   52.4560 C   0  0  0  0  0  0  0  0  0  0  0  0
   57.0840   30.6070   51.2660 N   0  0  0  0  0  0  0  0  0  0  0  0
   57.9740   31.7400   50.9820 C   0  0  0  0  0  0  0  0  0  0  0  0
   59.4270   31.2600   50.9450 C   0  0  0  0  0  0  0  0  0  0  0  0
   59.7900   30.6030   49.6060 C   0  0  0  0  0  0  0  0  0  0  0  0
   58.5910   30.3220   48.8170 N   0  0  0  0  0  0  0  0  0  0  0  0
   58.4940   30.6160   47.4120 C   0  0  0  0  0  0  0  0  0  0  0  0
   58.6210   31.9420   46.9630 C   0  0  0  0  0  0  0  0  0  0  0  0
   58.8180   32.9970   47.8800 C   0  0  0  0  0  0  0  0  0  0  0  0
   58.9800   34.3070   47.4380 C   0  0  0  0  0  0  0  0  0  0  0  0
   58.9570   34.5890   46.0790 C   0  0  0  0  0  0  0  0  0  0  0  0
   58.7600   33.5640   45.1530 C   0  0  0  0  0  0  0  0  0  0  0  0
   58.5570   32.2240   45.5720 C   0  0  0  0  0  0  0  0  0  0  0  0
   58.3250   31.2060   44.6650 N   0  0  0  0  0  0  0  0  0  0  0  0
   58.0480   31.5370   43.2490 C   0  0  0  0  0  0  0  0  0  0  0  0
   58.3660   29.8880   45.0820 C   0  0  0  0  0  0  0  0  0  0  0  0
   58.3900   28.8130   44.1590 C   0  0  0  0  0  0  0  0  0  0  0  0
   58.4060   27.4880   44.5920 C   0  0  0  0  0  0  0  0  0  0  0  0
   58.4300   27.1950   45.9480 C   0  0  0  0  0  0  0  0  0  0  0  0
   58.4510   28.2260   46.8820 C   0  0  0  0  0  0  0  0  0  0  0  0
   58.4190   29.5770   46.4700 C   0  0  0  0  0  0  0  0  0  0  0  0
   57.9391   28.0103   54.9072 H   0  0  0  0  0  0  0  0  0  0  0  0
   58.1428   27.1354   53.3516 H   0  0  0  0  0  0  0  0  0  0  0  0
   57.7038   28.8772   53.3516 H   0  0  0  0  0  0  0  0  0  0  0  0
   55.8307   27.0668   52.9347 H   0  0  0  0  0  0  0  0  0  0  0  0
   55.9116   26.8529   54.7255 H   0  0  0  0  0  0  0  0  0  0  0  0
   52.7174   27.9723   53.6017 H   0  0  0  0  0  0  0  0  0  0  0  0
   51.1859   29.0410   51.9609 H   0  0  0  0  0  0  0  0  0  0  0  0
   54.3859   31.6455   50.6597 H   0  0  0  0  0  0  0  0  0  0  0  0
   56.1905   31.9386   52.6245 H   0  0  0  0  0  0  0  0  0  0  0  0
   56.7371   30.3616   53.3179 H   0  0  0  0  0  0  0  0  0  0  0  0
   57.6840   29.7710   51.4620 H   0  0  0  0  0  0  0  0  0  0  0  0
   57.7089   32.1777   50.0083 H   0  0  0  0  0  0  0  0  0  0  0  0
   57.8613   32.4977   51.7714 H   0  0  0  0  0  0  0  0  0  0  0  0
   60.0890   32.1236   51.1062 H   0  0  0  0  0  0  0  0  0  0  0  0
   59.5520   30.5048   51.7350 H   0  0  0  0  0  0  0  0  0  0  0  0
   60.4434   31.2816   49.0380 H   0  0  0  0  0  0  0  0  0  0  0  0
   60.3051   29.6528   49.8105 H   0  0  0  0  0  0  0  0  0  0  0  0
   57.8080   29.7990   49.2770 H   0  0  0  0  0  0  0  0  0  0  0  0
   58.8438   32.7810   48.9583 H   0  0  0  0  0  0  0  0  0  0  0  0
   59.1263   35.1188   48.1657 H   0  0  0  0  0  0  0  0  0  0  0  0
   59.0945   35.6234   45.7311 H   0  0  0  0  0  0  0  0  0  0  0  0
   58.7621   33.7993   44.0785 H   0  0  0  0  0  0  0  0  0  0  0  0
   57.3427   32.3798   43.2007 H   0  0  0  0  0  0  0  0  0  0  0  0
   58.9865   31.8150   42.7471 H   0  0  0  0  0  0  0  0  0  0  0  0
   57.6089   30.6622   42.7471 H   0  0  0  0  0  0  0  0  0  0  0  0
   58.3961   29.0282   43.0803 H   0  0  0  0  0  0  0  0  0  0  0  0
   58.3996   26.6711   43.8553 H   0  0  0  0  0  0  0  0  0  0  0  0
   58.4324   26.1477   46.2845 H   0  0  0  0  0  0  0  0  0  0  0  0
   58.4930   27.9862   47.9547 H   0  0  0  0  0  0  0  0  0  0  0  0
  1  2  1  0
  2  3  1  0
  3  4  1  0
  4  5  2  0
  5  6  1  0
  6  7  2  0
  7  8  1  0
  8  9  2  0
  8 10  1  0
  7 11  1  0
 11 12  2  0
 12 13  1  0
 13 14  1  0
 14 15  1  0
 15 16  1  0
 16 17  1  0
 17 18  1  0
 18 19  1  0
 19 20  1  0
 20 21  2  0
 21 22  1  0
 22 23  2  0
 23 24  1  0
 24 25  2  0
 25 26  1  0
 26 27  1  0
 26 28  2  0
 28 29  1  0
 29 30  2  0
 30 31  1  0
 31 32  2  0
 32 33  1  0
 12  4  1  0
 33 19  2  0
 25 20  1  0
 33 28  1  0
  1 34  1  0
  1 35  1  0
  1 36  1  0
  2 37  1  0
  2 38  1  0
  5 39  1  0
  6 40  1  0
 11 41  1  0
 13 42  1  0
 13 43  1  0
 14 44  1  0
 15 45  1  0
 15 46  1  0
 16 47  1  0
 16 48  1  0
 17 49  1  0
 17 50  1  0
 18 51  1  0
 21 52  1  0
 22 53  1  0
 23 54  1  0
 24 55  1  0
 27 56  1  0
 27 57  1  0
 27 58  1  0
 29 59  1  0
 30 60  1  0
 31 61  1  0
 32 62  1  0
M  CHG  3   8   1  10  -1  26   1
M  END
>  <UniqueID>  (13) 
12

>  <SMILES>  (13) 
CCOc1ccc([N+](=O)[O-])cc1CNCCCNc1c2ccccc2[n+](C)c2ccccc12

>  <Energy>  (13) 
79.1662701369328

>  <Genealogy>  (13) 
CCOc1ccc([N+](=O)[O-])cc1CNCCCNc1c2ccccc2[n+](C)c2ccccc12 (3D coordinates assigned)
CCOc1ccc([N+](=O)[O-])cc1CNCCCNc1c2ccccc2[n+](C)c2ccccc12 (optimized conformer: 79.1662701369328 kcal/mol)

>  <smiles>  (13) 
CCOc1ccc([N+](=O)[O-])cc1CNCCCNc1c2ccccc2[n+](C)c2ccccc12

>  <score_type>  (13) 
oracle

>  <origin>  (13) 
adg

>  <m_score__min__energy>  (13) 
-8.4900000000000002

>  <m_primary>  (13) 
energy

$$$$
13:0
     RDKit          3D

 62 64  0  0  0  0  0  0  0  0999 V2000
   58.9090   34.5200   45.7280 C   0  0  0  0  0  0  0  0  0  0  0  0
   60.3830   34.2040   45.9960 C   0  0  0  0  0  0  0  0  0  0  0  0
   60.6670   33.7340   47.3740 N   0  0  0  0  0  0  0  0  0  0  0  0
   59.5230   33.7410   48.3120 C   0  0  0  0  0  0  0  0  0  0  0  0
   59.9840   33.8390   49.7650 C   0  0  0  0  0  0  0  0  0  0  0  0
   61.9570   34.2020   47.9400 C   0  0  0  0  0  0  0  0  0  0  0  0
   63.2020   33.8370   47.0940 C   0  0  0  0  0  0  0  0  0  0  0  0
   63.5260   32.3960   47.1580 N   0  0  0  0  0  0  0  0  0  0  0  0
   63.0740   31.7780   48.4000 C   0  0  0  0  0  0  0  0  0  0  0  0
   63.8120   31.9190   49.6110 C   0  0  0  0  0  0  0  0  0  0  0  0
   65.0570   32.5990   49.6670 C   0  0  0  0  0  0  0  0  0  0  0  0
   65.7900   32.6710   50.8490 C   0  0  0  0  0  0  0  0  0  0  0  0
   65.3160   32.0650   52.0010 C   0  0  0  0  0  0  0  0  0  0  0  0
   64.0890   31.4110   51.9890 C   0  0  0  0  0  0  0  0  0  0  0  0
   63.2940   31.3580   50.8150 C   0  0  0  0  0  0  0  0  0  0  0  0
   62.0500   30.7650   50.8280 N   0  0  0  0  0  0  0  0  0  0  0  0
   61.3730   30.4950   52.1180 C   0  0  0  0  0  0  0  0  0  0  0  0
   61.4220   30.4470   49.6430 C   0  0  0  0  0  0  0  0  0  0  0  0
   60.3090   29.5740   49.6160 C   0  0  0  0  0  0  0  0  0  0  0  0
   59.6330   29.2910   48.4350 C   0  0  0  0  0  0  0  0  0  0  0  0
   60.0360   29.8590   47.2160 C   0  0  0  0  0  0  0  0  0  0  0  0
   59.3130   29.5680   45.8820 C   0  0  0  0  0  0  0  0  0  0  0  0
   60.3160   28.9650   44.8740 C   0  0  0  0  0  0  0  0  0  0  0  0
   58.1390   28.5700   46.0310 C   0  0  0  0  0  0  0  0  0  0  0  0
   58.7340   30.8810   45.3080 C   0  0  0  0  0  0  0  0  0  0  0  0
   61.1690   30.6950   47.2280 C   0  0  0  0  0  0  0  0  0  0  0  0
   61.8920   30.9800   48.4150 C   0  0  0  0  0  0  0  0  0  0  0  0
   58.3785   34.6337   46.6849 H   0  0  0  0  0  0  0  0  0  0  0  0
   58.8330   35.4548   45.1533 H   0  0  0  0  0  0  0  0  0  0  0  0
   58.4565   33.6985   45.1533 H   0  0  0  0  0  0  0  0  0  0  0  0
   60.7004   33.4201   45.2926 H   0  0  0  0  0  0  0  0  0  0  0  0
   60.9355   35.1461   45.8650 H   0  0  0  0  0  0  0  0  0  0  0  0
   58.8797   34.6035   48.0832 H   0  0  0  0  0  0  0  0  0  0  0  0
   58.9736   32.7959   48.1897 H   0  0  0  0  0  0  0  0  0  0  0  0
   59.1297   33.6574   50.4338 H   0  0  0  0  0  0  0  0  0  0  0  0
   60.7639   33.0866   49.9538 H   0  0  0  0  0  0  0  0  0  0  0  0
   60.3904   34.8436   49.9538 H   0  0  0  0  0  0  0  0  0  0  0  0
   61.9140   35.2973   48.0325 H   0  0  0  0  0  0  0  0  0  0  0  0
   62.0766   33.6920   48.9072 H   0  0  0  0  0  0  0  0  0  0  0  0
   63.0087   34.1091   46.0459 H   0  0  0  0  0  0  0  0  0  0  0  0
   64.0593   34.3913   47.5036 H   0  0  0  0  0  0  0  0  0  0  0  0
   63.1860   31.9000   46.3070 H   0  0  0  0  0  0  0  0  0  0  0  0
   64.5600   32.2710   47.0720 H   0  0  0  0  0  0  0  0  0  0  0  0
   65.4506   33.0786   48.7586 H   0  0  0  0  0  0  0  0  0  0  0  0
   66.7483   33.2107   50.8679 H   0  0  0  0  0  0  0  0  0  0  0  0
   65.9106   32.1012   52.9257 H   0  0  0  0  0  0  0  0  0  0  0  0
   63.7277   30.9253   52.9075 H   0  0  0  0  0  0  0  0  0  0  0  0
   62.0442   30.7627   52.9474 H   0  0  0  0  0  0  0  0  0  0  0  0
   60.4534   31.0952   52.1822 H   0  0  0  0  0  0  0  0  0  0  0  0
   61.1188   29.4267   52.1822 H   0  0  0  0  0  0  0  0  0  0  0  0
   59.9702   29.1077   50.5529 H   0  0  0  0  0  0  0  0  0  0  0  0
   58.7685   28.6112   48.4558 H   0  0  0  0  0  0  0  0  0  0  0  0
   61.1342   28.4731   45.4205 H   0  0  0  0  0  0  0  0  0  0  0  0
   59.8013   28.2265   44.2418 H   0  0  0  0  0  0  0  0  0  0  0  0
   60.7268   29.7660   44.2418 H   0  0  0  0  0  0  0  0  0  0  0  0
   57.9370   28.3983   47.0986 H   0  0  0  0  0  0  0  0  0  0  0  0
   57.2412   28.9856   45.5502 H   0  0  0  0  0  0  0  0  0  0  0  0
   58.4046   27.6170   45.5502 H   0  0  0  0  0  0  0  0  0  0  0  0
   58.4412   31.5449   46.1347 H   0  0  0  0  0  0  0  0  0  0  0  0
   59.4961   31.3787   44.6904 H   0  0  0  0  0  0  0  0  0  0  0  0
   57.8526   30.6539   44.6904 H   0  0  0  0  0  0  0  0  0  0  0  0
   61.5061   31.1438   46.2820 H   0  0  0  0  0  0  0  0  0  0  0  0
  1  2  1  0
  2  3  1  0
  3  4  1  0
  4  5  1  0
  3  6  1  0
  6  7  1  0
  7  8  1  0
  8  9  1  0
  9 10  2  0
 10 11  1  0
 11 12  2  0
 12 13  1  0
 13 14  2  0
 14 15  1  0
 15 16  2  0
 16 17  1  0
 16 18  1  0
 18 19  2  0
 19 20  1  0
 20 21  2  0
 21 22  1  0
 22 23  1  0
 22 24  1  0
 22 25  1  0
 21 26  1  0
 26 27  2  0
 27  9  1  0
 15 10  1  0
 27 18  1  0
  1 28  1  0
  1 29  1  0
  1 30  1  0
  2 31  1  0
  2 32  1  0
  4 33  1  0
  4 34  1  0
  5 35  1  0
  5 36  1  0
  5 37  1  0
  6 38  1  0
  6 39  1  0
  7 40  1  0
  7 41  1  0
  8 42  1  0
  8 43  1  0
 11 44  1  0
 12 45  1  0
 13 46  1  0
 14 47  1  0
 17 48  1  0
 17 49  1  0
 17 50  1  0
 19 51  1  0
 20 52  1  0
 23 53  1  0
 23 54  1  0
 23 55  1  0
 24 56  1  0
 24 57  1  0
 24 58  1  0
 25 59  1  0
 25 60  1  0
 25 61  1  0
 26 62  1  0
M  CHG  2   8   1  16   1
M  END
>  <UniqueID>  (14) 
13

>  <SMILES>  (14) 
CCN(CC)CC[NH2+]c1c2ccccc2[n+](C)c2ccc(C(C)(C)C)cc12

>  <Energy>  (14) 
99.57474886124258

>  <Genealogy>  (14) 
CCN(CC)CC[NH2+]c1c2ccccc2[n+](C)c2ccc(C(C)(C)C)cc12 (protonated)
CCN(CC)CC[NH2+]c1c2ccccc2[n+](C)c2ccc(C(C)(C)C)cc12 (3D coordinates assigned)
CCN(CC)CC[NH2+]c1c2ccccc2[n+](C)c2ccc(C(C)(C)C)cc12 (optimized conformer: 99.57474886124258 kcal/mol)

>  <smiles>  (14) 
CCN(CC)CCNc1c2ccccc2[n+](C)c2ccc(C(C)(C)C)cc12

>  <score_type>  (14) 
oracle

>  <origin>  (14) 
adg

>  <m_score__min__energy>  (14) 
-5.0899999999999999

>  <m_primary>  (14) 
energy

$$$$
14:0
     RDKit          3D

 51 53  0  0  0  0  0  0  0  0999 V2000
   56.2600   24.2350   46.7550 C   0  0  0  0  0  0  0  0  0  0  0  0
   55.5120   25.3140   45.9660 C   0  0  0  0  0  0  0  0  0  0  0  0
   56.2890   26.5610   45.8510 N   0  0  0  0  0  0  0  0  0  0  0  0
   57.6510   26.4330   46.3950 C   0  0  0  0  0  0  0  0  0  0  0  0
   58.6820   26.6040   45.2730 C   0  0  0  0  0  0  0  0  0  0  0  0
   59.3550   27.9880   45.2880 C   0  0  0  0  0  0  0  0  0  0  0  0
   59.4150   28.6330   46.6810 C   0  0  0  0  0  0  0  0  0  0  0  0
   58.2550   29.4880   46.9340 N   0  0  0  0  0  0  0  0  0  0  0  0
   58.2250   30.8240   46.4120 C   0  0  0  0  0  0  0  0  0  0  0  0
   58.7080   31.8810   47.2020 C   0  0  0  0  0  0  0  0  0  0  0  0
   58.9930   31.6930   48.5730 C   0  0  0  0  0  0  0  0  0  0  0  0
   59.4130   32.7580   49.3640 C   0  0  0  0  0  0  0  0  0  0  0  0
   59.5530   34.0250   48.8090 C   0  0  0  0  0  0  0  0  0  0  0  0
   59.3130   34.2250   47.4500 C   0  0  0  0  0  0  0  0  0  0  0  0
   58.9290   33.1490   46.6090 C   0  0  0  0  0  0  0  0  0  0  0  0
   58.7860   33.3050   45.2450 N   0  0  0  0  0  0  0  0  0  0  0  0
   59.3580   34.4980   44.5770 C   0  0  0  0  0  0  0  0  0  0  0  0
   58.1340   32.3380   44.5020 C   0  0  0  0  0  0  0  0  0  0  0  0
   57.7700   32.5710   43.1510 C   0  0  0  0  0  0  0  0  0  0  0  0
   57.1520   31.5850   42.3910 C   0  0  0  0  0  0  0  0  0  0  0  0
   56.8070   30.3720   42.9670 C   0  0  0  0  0  0  0  0  0  0  0  0
   57.0700   30.1240   44.3180 C   0  0  0  0  0  0  0  0  0  0  0  0
   56.4720   28.9610   44.9030 N   0  0  0  0  0  0  0  0  0  0  0  0
   57.8020   31.0790   45.0870 C   0  0  0  0  0  0  0  0  0  0  0  0
   56.1347   24.4157   47.8328 H   0  0  0  0  0  0  0  0  0  0  0  0
   55.8531   23.2455   46.4994 H   0  0  0  0  0  0  0  0  0  0  0  0
   57.3294   24.2689   46.4994 H   0  0  0  0  0  0  0  0  0  0  0  0
   55.3030   24.9327   44.9556 H   0  0  0  0  0  0  0  0  0  0  0  0
   54.5829   25.5446   46.5079 H   0  0  0  0  0  0  0  0  0  0  0  0
   56.3420   26.8510   44.8460 H   0  0  0  0  0  0  0  0  0  0  0  0
   57.8123   27.2076   47.1591 H   0  0  0  0  0  0  0  0  0  0  0  0
   57.7682   25.4358   46.8442 H   0  0  0  0  0  0  0  0  0  0  0  0
   59.4589   25.8340   45.3891 H   0  0  0  0  0  0  0  0  0  0  0  0
   58.1494   26.5048   44.3156 H   0  0  0  0  0  0  0  0  0  0  0  0
   60.3829   27.8779   44.9122 H   0  0  0  0  0  0  0  0  0  0  0  0
   58.7439   28.6484   44.6551 H   0  0  0  0  0  0  0  0  0  0  0  0
   59.4438   27.8379   47.4406 H   0  0  0  0  0  0  0  0  0  0  0  0
   60.3183   29.2589   46.7295 H   0  0  0  0  0  0  0  0  0  0  0  0
   57.5410   29.2130   47.6460 H   0  0  0  0  0  0  0  0  0  0  0  0
   58.8817   30.6941   49.0199 H   0  0  0  0  0  0  0  0  0  0  0  0
   59.6345   32.5973   50.4294 H   0  0  0  0  0  0  0  0  0  0  0  0
   59.8538   34.8717   49.4435 H   0  0  0  0  0  0  0  0  0  0  0  0
   59.4232   35.2329   47.0234 H   0  0  0  0  0  0  0  0  0  0  0  0
   59.7016   35.2146   45.3375 H   0  0  0  0  0  0  0  0  0  0  0  0
   60.2083   34.1941   43.9488 H   0  0  0  0  0  0  0  0  0  0  0  0
   58.5886   34.9707   43.9488 H   0  0  0  0  0  0  0  0  0  0  0  0
   57.9807   33.5502   42.6964 H   0  0  0  0  0  0  0  0  0  0  0  0
   56.9357   31.7678   41.3281 H   0  0  0  0  0  0  0  0  0  0  0  0
   56.3217   29.5971   42.3554 H   0  0  0  0  0  0  0  0  0  0  0  0
   56.4770   28.8280   45.9390 H   0  0  0  0  0  0  0  0  0  0  0  0
   56.2630   28.1190   44.3230 H   0  0  0  0  0  0  0  0  0  0  0  0
  1  2  1  0
  2  3  1  0
  3  4  1  0
  4  5  1  0
  5  6  1  0
  6  7  1  0
  7  8  1  0
  8  9  1  0
  9 10  2  0
 10 11  1  0
 11 12  2  0
 12 13  1  0
 13 14  2  0
 14 15  1  0
 15 16  2  0
 16 17  1  0
 16 18  1  0
 18 19  2  0
 19 20  1  0
 20 21  2  0
 21 22  1  0
 22 23  1  0
 22 24  2  0
 24  9  1  0
 15 10  1  0
 24 18  1  0
  1 25  1  0
  1 26  1  0
  1 27  1  0
  2 28  1  0
  2 29  1  0
  3 30  1  0
  4 31  1  0
  4 32  1  0
  5 33  1  0
  5 34  1  0
  6 35  1  0
  6 36  1  0
  7 37  1  0
  7 38  1  0
  8 39  1  0
 11 40  1  0
 12 41  1  0
 13 42  1  0
 14 43  1  0
 17 44  1  0
 17 45  1  0
 17 46  1  0
 19 47  1  0
 20 48  1  0
 21 49  1  0
 23 50  1  0
 23 51  1  0
M  CHG  1  16   1
M  END
>  <UniqueID>  (15) 
14

>  <SMILES>  (15) 
CCNCCCCNc1c2ccccc2[n+](C)c2cccc(N)c12

>  <Energy>  (15) 
80.46340485357631

>  <Genealogy>  (15) 
CCNCCCCNc1c2ccccc2[n+](C)c2cccc(N)c12 (3D coordinates assigned)
CCNCCCCNc1c2ccccc2[n+](C)c2cccc(N)c12 (optimized conformer: 80.46340485357631 kcal/mol)

>  <smiles>  (15) 
CCNCCCCNc1c2ccccc2[n+](C)c2cccc(N)c12

>  <score_type>  (15) 
oracle

>  <origin>  (15) 
adg

>  <m_score__min__energy>  (15) 
-6.2599999999999998

>  <m_primary>  (15) 
energy

$$$$
