0:0
     RDKit          3D

 36 38  0  0  0  0  0  0  0  0999 V2000
   65.2340   31.4380   50.8420 C   0  0  0  0  0  0  0  0  0  0  0  0
   65.6980   33.1210   50.3310 S   0  0  0  0  0  0  0  0  0  0  0  0
   64.1730   33.3970   49.4290 C   0  0  0  0  0  0  0  0  0  0  0  0
   64.0810   33.0430   48.0800 C   0  0  0  0  0  0  0  0  0  0  0  0
   62.8930   33.2550   47.3760 C   0  0  0  0  0  0  0  0  0  0  0  0
   61.7740   33.8210   48.0170 C   0  0  0  0  0  0  0  0  0  0  0  0
   60.5080   34.0480   47.2730 C   0  0  0  0  0  0  0  0  0  0  0  0
   60.1780   33.5750   46.0150 C   0  0  0  0  0  0  0  0  0  0  0  0
   58.9410   34.0330   45.7490 N   0  0  0  0  0  0  0  0  0  0  0  0
   58.1990   33.8620   44.5050 C   0  0  0  0  0  0  0  0  0  0  0  0
   57.8210   32.4180   44.3320 C   0  0  0  0  0  0  0  0  0  0  0  0
   57.8080   31.5510   45.4380 C   0  0  0  0  0  0  0  0  0  0  0  0
   57.4170   30.2180   45.2830 C   0  0  0  0  0  0  0  0  0  0  0  0
   57.0280   29.7430   44.0280 C   0  0  0  0  0  0  0  0  0  0  0  0
   57.0240   30.6020   42.9260 C   0  0  0  0  0  0  0  0  0  0  0  0
   57.4130   31.9370   43.0760 C   0  0  0  0  0  0  0  0  0  0  0  0
   58.5270   34.7620   46.7710 N   0  0  0  0  0  0  0  0  0  0  0  0
   59.4600   34.7780   47.7110 N   0  0  0  0  0  0  0  0  0  0  0  0
   61.8760   34.1670   49.3780 C   0  0  0  0  0  0  0  0  0  0  0  0
   63.0670   33.9540   50.0780 C   0  0  0  0  0  0  0  0  0  0  0  0
   65.2179   31.3796   51.9403 H   0  0  0  0  0  0  0  0  0  0  0  0
   64.2359   31.1970   50.4473 H   0  0  0  0  0  0  0  0  0  0  0  0
   65.9676   30.7196   50.4473 H   0  0  0  0  0  0  0  0  0  0  0  0
   64.9473   32.5957   47.5706 H   0  0  0  0  0  0  0  0  0  0  0  0
   62.8312   32.9778   46.3133 H   0  0  0  0  0  0  0  0  0  0  0  0
   60.8032   32.9486   45.3618 H   0  0  0  0  0  0  0  0  0  0  0  0
   57.2874   34.4769   44.5361 H   0  0  0  0  0  0  0  0  0  0  0  0
   58.8294   34.1761   43.6601 H   0  0  0  0  0  0  0  0  0  0  0  0
   58.1066   31.9228   46.4293 H   0  0  0  0  0  0  0  0  0  0  0  0
   57.4156   29.5418   46.1506 H   0  0  0  0  0  0  0  0  0  0  0  0
   56.7248   28.6925   43.9074 H   0  0  0  0  0  0  0  0  0  0  0  0
   56.7144   30.2277   41.9390 H   0  0  0  0  0  0  0  0  0  0  0  0
   57.3996   32.6127   42.2081 H   0  0  0  0  0  0  0  0  0  0  0  0
   59.3600   35.2750   48.6230 H   0  0  0  0  0  0  0  0  0  0  0  0
   61.0112   34.6086   49.8948 H   0  0  0  0  0  0  0  0  0  0  0  0
   63.1342   34.2252   51.1419 H   0  0  0  0  0  0  0  0  0  0  0  0
  1  2  1  0
  2  3  1  0
  3  4  2  0
  4  5  1  0
  5  6  2  0
  6  7  1  0
  7  8  2  0
  8  9  1  0
  9 10  1  0
 10 11  1  0
 11 12  2  0
 12 13  1  0
 13 14  2  0
 14 15  1  0
 15 16  2  0
  9 17  1  0
 17 18  2  0
  6 19  1  0
 19 20  2  0
 20  3  1  0
 18  7  1  0
 16 11  1  0
  1 21  1  0
  1 22  1  0
  1 23  1  0
  4 24  1  0
  5 25  1  0
  8 26  1  0
 10 27  1  0
 10 28  1  0
 12 29  1  0
 13 30  1  0
 14 31  1  0
 15 32  1  0
 16 33  1  0
 18 34  1  0
 19 35  1  0
 20 36  1  0
M  CHG  1  18   1
M  END
>  <UniqueID>  (1) 
1

>  <SMILES>  (1) 
CSc1ccc(-c2cn(Cc3ccccc3)n[nH+]2)cc1

>  <Energy>  (1) 
70.08959764648563

>  <Genealogy>  (1) 
CSc1ccc(-c2cn(Cc3ccccc3)n[nH+]2)cc1 (protonated)
CSc1ccc(-c2cn(Cc3ccccc3)n[nH+]2)cc1 (3D coordinates assigned)
CSc1ccc(-c2cn(Cc3ccccc3)n[nH+]2)cc1 (optimized conformer: 70.08959764648563 kcal/mol)

>  <smiles>  (1) 
CSc1ccc(-c2cn(Cc3ccccc3)nn2)cc1

>  <score_type>  (1) 
oracle

>  <origin>  (1) 
adg

>  <m_score__min__energy>  (1) 
-6.5599999999999996

>  <m_primary>  (1) 
energy

$$$$
1:0
     RDKit          3D

 51 54  0  0  0  0  0  0  0  0999 V2000
   57.9570   34.0460   44.6320 C   0  0  0  0  0  0  0  0  0  0  0  0
   59.2340   34.5990   44.7580 C   0  0  0  0  0  0  0  0  0  0  0  0
   59.8170   34.7400   46.0210 C   0  0  0  0  0  0  0  0  0  0  0  0
   59.1230   34.3270   47.1700 C   0  0  0  0  0  0  0  0  0  0  0  0
   59.7620   34.4670   48.5290 C   0  0  0  0  0  0  0  0  0  0  0  0
   60.3760   33.1900   48.9620 N   0  0  0  0  0  0  0  0  0  0  0  0
   61.7720   33.4050   49.4390 C   0  0  0  0  0  0  0  0  0  0  0  0
   62.7500   32.2470   49.1310 C   0  0  0  0  0  0  0  0  0  0  0  0
   62.3110   30.8830   49.7190 C   0  0  0  0  0  0  0  0  0  0  0  0
   60.9480   30.5180   49.2820 N   0  0  0  0  0  0  0  0  0  0  0  0
   60.7980   29.0810   48.9590 C   0  0  0  0  0  0  0  0  0  0  0  0
   59.9940   28.8220   47.7020 C   0  0  0  0  0  0  0  0  0  0  0  0
   59.7500   27.5070   47.2770 C   0  0  0  0  0  0  0  0  0  0  0  0
   58.9960   27.2780   46.1270 C   0  0  0  0  0  0  0  0  0  0  0  0
   58.4930   28.3600   45.3980 C   0  0  0  0  0  0  0  0  0  0  0  0
   57.7300   28.1590   44.2370 C   0  0  0  0  0  0  0  0  0  0  0  0
   57.2400   29.2570   43.5240 C   0  0  0  0  0  0  0  0  0  0  0  0
   57.5090   30.5560   43.9610 C   0  0  0  0  0  0  0  0  0  0  0  0
   58.2680   30.7660   45.1160 C   0  0  0  0  0  0  0  0  0  0  0  0
   58.7660   29.6730   45.8430 C   0  0  0  0  0  0  0  0  0  0  0  0
   59.5080   29.8690   46.9720 N   0  0  0  0  0  0  0  0  0  0  0  0
   59.8800   31.0170   50.1750 C   0  0  0  0  0  0  0  0  0  0  0  0
   59.4870   32.4870   49.9220 C   0  0  0  0  0  0  0  0  0  0  0  0
   57.8400   33.7690   47.0370 C   0  0  0  0  0  0  0  0  0  0  0  0
   57.2610   33.6300   45.7710 C   0  0  0  0  0  0  0  0  0  0  0  0
   57.4996   33.9380   43.6374 H   0  0  0  0  0  0  0  0  0  0  0  0
   59.7820   34.9242   43.8614 H   0  0  0  0  0  0  0  0  0  0  0  0
   60.8226   35.1759   46.1150 H   0  0  0  0  0  0  0  0  0  0  0  0
   60.5406   35.2426   48.4821 H   0  0  0  0  0  0  0  0  0  0  0  0
   58.9837   34.7451   49.2549 H   0  0  0  0  0  0  0  0  0  0  0  0
   62.1601   34.3165   48.9610 H   0  0  0  0  0  0  0  0  0  0  0  0
   61.7160   33.4788   50.5351 H   0  0  0  0  0  0  0  0  0  0  0  0
   62.8316   32.1435   48.0389 H   0  0  0  0  0  0  0  0  0  0  0  0
   63.7095   32.5048   49.6031 H   0  0  0  0  0  0  0  0  0  0  0  0
   63.0139   30.1063   49.3833 H   0  0  0  0  0  0  0  0  0  0  0  0
   62.3113   30.9641   50.8160 H   0  0  0  0  0  0  0  0  0  0  0  0
   61.8005   28.6482   48.8258 H   0  0  0  0  0  0  0  0  0  0  0  0
   60.2497   28.6188   49.7931 H   0  0  0  0  0  0  0  0  0  0  0  0
   60.1528   26.6588   47.8500 H   0  0  0  0  0  0  0  0  0  0  0  0
   58.7972   26.2487   45.7939 H   0  0  0  0  0  0  0  0  0  0  0  0
   57.5177   27.1376   43.8883 H   0  0  0  0  0  0  0  0  0  0  0  0
   56.6405   29.0974   42.6156 H   0  0  0  0  0  0  0  0  0  0  0  0
   57.1225   31.4162   43.3947 H   0  0  0  0  0  0  0  0  0  0  0  0
   58.4758   31.7911   45.4564 H   0  0  0  0  0  0  0  0  0  0  0  0
   59.7080   30.8450   47.2890 H   0  0  0  0  0  0  0  0  0  0  0  0
   58.9875   30.3905   50.0306 H   0  0  0  0  0  0  0  0  0  0  0  0
   60.2726   30.9645   51.2012 H   0  0  0  0  0  0  0  0  0  0  0  0
   58.4617   32.5080   49.5241 H   0  0  0  0  0  0  0  0  0  0  0  0
   59.5768   33.0121   50.8844 H   0  0  0  0  0  0  0  0  0  0  0  0
   57.2894   33.4406   47.9309 H   0  0  0  0  0  0  0  0  0  0  0  0
   56.2566   33.1927   45.6716 H   0  0  0  0  0  0  0  0  0  0  0  0
  1  2  2  0
  2  3  1  0
  3  4  2  0
  4  5  1  0
  5  6  1  0
  6  7  1  0
  7  8  1  0
  8  9  1  0
  9 10  1  0
 10 11  1  0
 11 12  1  0
 12 13  2  0
 13 14  1  0
 14 15  2  0
 15 16  1  0
 16 17  2  0
 17 18  1  0
 18 19  2  0
 19 20  1  0
 20 21  2  0
 10 22  1  0
 22 23  1  0
  4 24  1  0
 24 25  2  0
 25  1  1  0
 23  6  1  0
 21 12  1  0
 20 15  1  0
  1 26  1  0
  2 27  1  0
  3 28  1  0
  5 29  1  0
  5 30  1  0
  7 31  1  0
  7 32  1  0
  8 33  1  0
  8 34  1  0
  9 35  1  0
  9 36  1  0
 11 37  1  0
 11 38  1  0
 13 39  1  0
 14 40  1  0
 16 41  1  0
 17 42  1  0
 18 43  1  0
 19 44  1  0
 21 45  1  0
 22 46  1  0
 22 47  1  0
 23 48  1  0
 23 49  1  0
 24 50  1  0
 25 51  1  0
M  CHG  1  21   1
M  END
>  <UniqueID>  (2) 
2

>  <SMILES>  (2) 
c1ccc(CN2CCCN(Cc3ccc4ccccc4[nH+]3)CC2)cc1

>  <Energy>  (2) 
77.30155768005555

>  <Genealogy>  (2) 
c1ccc(CN2CCCN(Cc3ccc4ccccc4[nH+]3)CC2)cc1 (protonated)
c1ccc(CN2CCCN(Cc3ccc4ccccc4[nH+]3)CC2)cc1 (3D coordinates assigned)
c1ccc(CN2CCCN(Cc3ccc4ccccc4[nH+]3)CC2)cc1 (nonaromatic ring conformer: 77.30155768005555 kcal/mol)

>  <smiles>  (2) 
c1ccc(CN2CCCN(Cc3ccc4ccccc4n3)CC2)cc1

>  <score_type>  (2) 
oracle

>  <origin>  (2) 
adg

>  <m_score__min__energy>  (2) 
-5.3099999999999996

>  <m_primary>  (2) 
energy

$$$$
2:0
     RDKit          3D

 46 49  0  0  0  0  0  0  0  0999 V2000
   60.0950   34.6250   48.2250 C   0  0  0  0  0  0  0  0  0  0  0  0
   59.5090   35.1320   46.9120 C   0  0  0  0  0  0  0  0  0  0  0  0
   58.8850   34.0030   46.1350 C   0  0  0  0  0  0  0  0  0  0  0  0
   58.3350   34.2360   44.8660 C   0  0  0  0  0  0  0  0  0  0  0  0
   57.7950   33.1810   44.1290 C   0  0  0  0  0  0  0  0  0  0  0  0
   57.8000   31.8840   44.6500 C   0  0  0  0  0  0  0  0  0  0  0  0
   58.3410   31.6340   45.9240 C   0  0  0  0  0  0  0  0  0  0  0  0
   58.3890   30.3040   46.4690 N   0  0  0  0  0  0  0  0  0  0  0  0
   57.5470   29.2260   46.0250 C   0  0  0  0  0  0  0  0  0  0  0  0
   56.5120   29.4690   45.3470 O   0  0  0  0  0  0  0  0  0  0  0  0
   57.8590   27.8330   46.3910 C   0  0  0  0  0  0  0  0  0  0  0  0
   59.0650   27.3080   46.8610 C   0  0  0  0  0  0  0  0  0  0  0  0
   58.9400   25.9730   47.0690 N   0  0  0  0  0  0  0  0  0  0  0  0
   57.7000   25.6550   46.7410 N   0  0  0  0  0  0  0  0  0  0  0  0
   57.1090   24.4420   46.7830 C   0  0  0  0  0  0  0  0  0  0  0  0
   57.7520   23.4300   47.1780 O   0  0  0  0  0  0  0  0  0  0  0  0
   55.7990   24.3470   46.3870 N   0  0  0  0  0  0  0  0  0  0  0  0
   55.0680   23.0780   46.4330 C   0  0  0  0  0  0  0  0  0  0  0  0
   55.6030   22.1350   45.3890 C   0  0  0  0  0  0  0  0  0  0  0  0
   55.5000   20.7440   45.5640 C   0  0  0  0  0  0  0  0  0  0  0  0
   55.9690   19.8730   44.5760 C   0  0  0  0  0  0  0  0  0  0  0  0
   56.5360   20.3840   43.4040 C   0  0  0  0  0  0  0  0  0  0  0  0
   56.6320   21.7650   43.2190 C   0  0  0  0  0  0  0  0  0  0  0  0
   56.1640   22.6400   44.2050 C   0  0  0  0  0  0  0  0  0  0  0  0
   55.1470   25.4530   45.9890 N   0  0  0  0  0  0  0  0  0  0  0  0
   55.7430   26.6490   45.9530 N   0  0  0  0  0  0  0  0  0  0  0  0
   57.0350   26.7330   46.3360 C   0  0  0  0  0  0  0  0  0  0  0  0
   58.9020   32.6960   46.6500 C   0  0  0  0  0  0  0  0  0  0  0  0
   59.5605   35.0874   49.0679 H   0  0  0  0  0  0  0  0  0  0  0  0
   59.9860   33.5317   48.2772 H   0  0  0  0  0  0  0  0  0  0  0  0
   61.1613   34.8901   48.2772 H   0  0  0  0  0  0  0  0  0  0  0  0
   58.7408   35.8891   47.1282 H   0  0  0  0  0  0  0  0  0  0  0  0
   60.3186   35.5700   46.3098 H   0  0  0  0  0  0  0  0  0  0  0  0
   58.3292   35.2543   44.4500 H   0  0  0  0  0  0  0  0  0  0  0  0
   57.3641   33.3708   43.1349 H   0  0  0  0  0  0  0  0  0  0  0  0
   57.3792   31.0555   44.0613 H   0  0  0  0  0  0  0  0  0  0  0  0
   59.0010   30.1400   47.2990 H   0  0  0  0  0  0  0  0  0  0  0  0
   59.9811   27.8909   47.0366 H   0  0  0  0  0  0  0  0  0  0  0  0
   55.1878   22.6249   47.4282 H   0  0  0  0  0  0  0  0  0  0  0  0
   54.0030   23.2685   46.2343 H   0  0  0  0  0  0  0  0  0  0  0  0
   55.0486   20.3392   46.4818 H   0  0  0  0  0  0  0  0  0  0  0  0
   55.8920   18.7853   44.7205 H   0  0  0  0  0  0  0  0  0  0  0  0
   56.9064   19.6981   42.6279 H   0  0  0  0  0  0  0  0  0  0  0  0
   57.0766   22.1655   42.2960 H   0  0  0  0  0  0  0  0  0  0  0  0
   56.2357   23.7270   44.0523 H   0  0  0  0  0  0  0  0  0  0  0  0
   59.3594   32.5032   47.6316 H   0  0  0  0  0  0  0  0  0  0  0  0
  1  2  1  0
  2  3  1  0
  3  4  2  0
  4  5  1  0
  5  6  2  0
  6  7  1  0
  7  8  1  0
  8  9  1  0
  9 10  2  0
  9 11  1  0
 11 12  1  0
 12 13  2  0
 13 14  1  0
 14 15  1  0
 15 16  2  0
 15 17  1  0
 17 18  1  0
 18 19  1  0
 19 20  2  0
 20 21  1  0
 21 22  2  0
 22 23  1  0
 23 24  2  0
 17 25  1  0
 25 26  2  0
 26 27  1  0
  7 28  2  0
 28  3  1  0
 27 11  2  0
 27 14  1  0
 24 19  1  0
  1 29  1  0
  1 30  1  0
  1 31  1  0
  2 32  1  0
  2 33  1  0
  4 34  1  0
  5 35  1  0
  6 36  1  0
  8 37  1  0
 12 38  1  0
 18 39  1  0
 18 40  1  0
 20 41  1  0
 21 42  1  0
 22 43  1  0
 23 44  1  0
 24 45  1  0
 28 46  1  0
M  END
>  <UniqueID>  (3) 
3

>  <SMILES>  (3) 
CCc1cccc(NC(=O)c2cnn3c(=O)n(Cc4ccccc4)nnc23)c1

>  <Energy>  (3) 
90.03983482494536

>  <Genealogy>  (3) 
CCc1cccc(NC(=O)c2cnn3c(=O)n(Cc4ccccc4)nnc23)c1 (3D coordinates assigned)
CCc1cccc(NC(=O)c2cnn3c(=O)n(Cc4ccccc4)nnc23)c1 (optimized conformer: 90.03983482494536 kcal/mol)

>  <smiles>  (3) 
CCc1cccc(NC(=O)c2cnn3c(=O)n(Cc4ccccc4)nnc23)c1

>  <score_type>  (3) 
oracle

>  <origin>  (3) 
adg

>  <m_score__min__energy>  (3) 
-9.4600000000000009

>  <m_primary>  (3) 
energy

$$$$
3:0
     RDKit          3D

 46 49  0  0  0  0  0  0  0  0999 V2000
   57.0130   34.2120   44.8510 C   0  0  0  0  0  0  0  0  0  0  0  0
   58.3090   34.0630   45.5910 C   0  0  0  0  0  0  0  0  0  0  0  0
   59.2300   35.1200   45.6180 C   0  0  0  0  0  0  0  0  0  0  0  0
   60.4200   34.9950   46.3370 C   0  0  0  0  0  0  0  0  0  0  0  0
   60.6940   33.8220   47.0440 C   0  0  0  0  0  0  0  0  0  0  0  0
   59.7760   32.7580   47.0450 C   0  0  0  0  0  0  0  0  0  0  0  0
   60.0870   31.5280   47.8130 C   0  0  0  0  0  0  0  0  0  0  0  0
   59.3110   30.4240   47.8620 N   0  0  0  0  0  0  0  0  0  0  0  0
   59.9810   29.5800   48.6650 C   0  0  0  0  0  0  0  0  0  0  0  0
   59.4920   28.2200   49.0680 C   0  0  0  0  0  0  0  0  0  0  0  0
   59.2760   27.3640   47.8810 N   0  0  0  0  0  0  0  0  0  0  0  0
   60.5160   27.2430   47.0700 C   0  0  0  0  0  0  0  0  0  0  0  0
   60.2210   26.8250   45.6250 C   0  0  0  0  0  0  0  0  0  0  0  0
   59.3560   27.8770   44.9080 C   0  0  0  0  0  0  0  0  0  0  0  0
   58.4600   28.6680   45.8870 C   0  0  1  0  0  0  0  0  0  0  0  0
   57.2330   29.1960   45.1910 C   0  0  0  0  0  0  0  0  0  0  0  0
   57.1460   30.3490   44.4360 C   0  0  0  0  0  0  0  0  0  0  0  0
   55.8250   30.3960   44.0460 C   0  0  0  0  0  0  0  0  0  0  0  0
   55.1710   29.3300   44.5470 N   0  0  0  0  0  0  0  0  0  0  0  0
   56.0260   28.6000   45.2460 N   0  0  0  0  0  0  0  0  0  0  0  0
   58.0840   27.8020   47.1060 C   0  0  0  0  0  0  0  0  0  0  0  0
   61.1390   30.1940   49.0870 C   0  0  0  0  0  0  0  0  0  0  0  0
   61.1760   31.3880   48.5420 O   0  0  0  0  0  0  0  0  0  0  0  0
   58.5770   32.8920   46.3180 C   0  0  0  0  0  0  0  0  0  0  0  0
   56.1878   34.3069   45.5722 H   0  0  0  0  0  0  0  0  0  0  0  0
   57.0529   35.1115   44.2191 H   0  0  0  0  0  0  0  0  0  0  0  0
   56.8477   33.3269   44.2191 H   0  0  0  0  0  0  0  0  0  0  0  0
   59.0143   36.0499   45.0713 H   0  0  0  0  0  0  0  0  0  0  0  0
   61.1442   35.8229   46.3468 H   0  0  0  0  0  0  0  0  0  0  0  0
   61.6360   33.7303   47.6046 H   0  0  0  0  0  0  0  0  0  0  0  0
   58.3920   30.2440   47.4010 H   0  0  0  0  0  0  0  0  0  0  0  0
   60.2399   27.7474   49.7217 H   0  0  0  0  0  0  0  0  0  0  0  0
   58.5351   28.3334   49.5986 H   0  0  0  0  0  0  0  0  0  0  0  0
   61.0297   28.2156   47.0601 H   0  0  0  0  0  0  0  0  0  0  0  0
   61.1448   26.4643   47.5264 H   0  0  0  0  0  0  0  0  0  0  0  0
   61.1714   26.7117   45.0829 H   0  0  0  0  0  0  0  0  0  0  0  0
   59.6695   25.8734   45.6428 H   0  0  0  0  0  0  0  0  0  0  0  0
   60.0186   28.5832   44.3861 H   0  0  0  0  0  0  0  0  0  0  0  0
   58.6977   27.3470   44.2039 H   0  0  0  0  0  0  0  0  0  0  0  0
   59.0326   29.5333   46.2521 H   0  0  0  0  0  0  0  0  0  0  0  0
   57.9469   31.0652   44.2001 H   0  0  0  0  0  0  0  0  0  0  0  0
   55.3744   31.1821   43.4223 H   0  0  0  0  0  0  0  0  0  0  0  0
   57.4289   28.3884   47.7671 H   0  0  0  0  0  0  0  0  0  0  0  0
   57.5773   26.8999   46.7325 H   0  0  0  0  0  0  0  0  0  0  0  0
   61.8957   29.7625   49.7587 H   0  0  0  0  0  0  0  0  0  0  0  0
   57.8440   32.0718   46.3198 H   0  0  0  0  0  0  0  0  0  0  0  0
  1  2  1  0
  2  3  2  0
  3  4  1  0
  4  5  2  0
  5  6  1  0
  6  7  1  0
  7  8  2  0
  8  9  1  0
  9 10  1  0
 10 11  1  0
 11 12  1  0
 12 13  1  0
 13 14  1  0
 14 15  1  0
 15 16  1  0
 16 17  1  0
 17 18  2  0
 18 19  1  0
 19 20  1  0
 15 21  1  0
  9 22  2  0
 22 23  1  0
  6 24  2  0
 24  2  1  0
 23  7  1  0
 21 11  1  0
 20 16  2  0
  1 25  1  0
  1 26  1  0
  1 27  1  0
  3 28  1  0
  4 29  1  0
  5 30  1  0
  8 31  1  0
 10 32  1  0
 10 33  1  0
 12 34  1  0
 12 35  1  0
 13 36  1  0
 13 37  1  0
 14 38  1  0
 14 39  1  0
 15 40  1  1
 17 41  1  0
 18 42  1  0
 21 43  1  0
 21 44  1  0
 22 45  1  0
 24 46  1  0
M  CHG  2   8   1  19  -1
M  END
>  <UniqueID>  (4) 
4

>  <SMILES>  (4) 
Cc1cccc(-c2[nH+]c(CN3CCC[C@@H](c4cc[n-]n4)C3)co2)c1

>  <Energy>  (4) 
116.44376037358339

>  <Genealogy>  (4) 
Cc1cccc(-c2[nH+]c(CN3CCCC(c4cc[n-]n4)C3)co2)c1 (protonated)
Cc1cccc(-c2[nH+]c(CN3CCC[C@@H](c4cc[n-]n4)C3)co2)c1 (chirality)
Cc1cccc(-c2[nH+]c(CN3CCC[C@@H](c4cc[n-]n4)C3)co2)c1 (3D coordinates assigned)
Cc1cccc(-c2[nH+]c(CN3CCC[C@@H](c4cc[n-]n4)C3)co2)c1 (nonaromatic ring conformer: 116.44376037358339 kcal/mol)

>  <smiles>  (4) 
Cc1cccc(-c2nc(CN3CCCC(c4cc[nH]n4)C3)co2)c1

>  <score_type>  (4) 
oracle

>  <origin>  (4) 
adg

>  <m_score__min__energy>  (4) 
-8.9299999999999997

>  <m_primary>  (4) 
energy

$$$$
4:0
     RDKit          3D

 39 42  0  0  0  0  0  0  0  0999 V2000
   57.9720   34.5630   44.8580 C   0  0  0  0  0  0  0  0  0  0  0  0
   57.2670   33.7670   45.7630 C   0  0  0  0  0  0  0  0  0  0  0  0
   57.8580   33.3840   46.9700 C   0  0  0  0  0  0  0  0  0  0  0  0
   59.1680   33.7950   47.2850 C   0  0  0  0  0  0  0  0  0  0  0  0
   59.8000   33.3890   48.5670 C   0  0  0  0  0  0  0  0  0  0  0  0
   59.0130   32.9500   49.6390 C   0  0  0  0  0  0  0  0  0  0  0  0
   59.6180   32.5720   50.8470 C   0  0  0  0  0  0  0  0  0  0  0  0
   58.7880   32.0960   51.9820 C   0  0  0  0  0  0  0  0  0  0  0  0
   59.1250   32.4280   53.3070 C   0  0  0  0  0  0  0  0  0  0  0  0
   58.3420   31.9750   54.3730 C   0  0  0  0  0  0  0  0  0  0  0  0
   57.2150   31.1860   54.1270 C   0  0  0  0  0  0  0  0  0  0  0  0
   56.8700   30.8500   52.8170 C   0  0  0  0  0  0  0  0  0  0  0  0
   57.6510   31.3000   51.7480 C   0  0  0  0  0  0  0  0  0  0  0  0
   60.9780   32.6340   50.9650 N   0  0  0  0  0  0  0  0  0  0  0  0
   61.7790   33.0520   49.9400 C   0  0  0  0  0  0  0  0  0  0  0  0
   63.2530   33.1080   50.1220 C   0  0  0  0  0  0  0  0  0  0  0  0
   64.2210   32.4820   49.3360 C   0  0  0  0  0  0  0  0  0  0  0  0
   65.5330   32.7220   49.7650 C   0  0  0  0  0  0  0  0  0  0  0  0
   65.6160   33.5340   50.8870 C   0  0  0  0  0  0  0  0  0  0  0  0
   64.0550   33.9490   51.3430 S   0  0  0  0  0  0  0  0  0  0  0  0
   61.1920   33.4390   48.7240 C   0  0  0  0  0  0  0  0  0  0  0  0
   59.8690   34.5970   46.3640 C   0  0  0  0  0  0  0  0  0  0  0  0
   59.2720   34.9770   45.1580 C   0  0  0  0  0  0  0  0  0  0  0  0
   57.5039   34.8640   43.9092 H   0  0  0  0  0  0  0  0  0  0  0  0
   56.2438   33.4406   45.5253 H   0  0  0  0  0  0  0  0  0  0  0  0
   57.2966   32.7575   47.6787 H   0  0  0  0  0  0  0  0  0  0  0  0
   57.9191   32.9015   49.5337 H   0  0  0  0  0  0  0  0  0  0  0  0
   60.0112   33.0486   53.5057 H   0  0  0  0  0  0  0  0  0  0  0  0
   58.6131   32.2397   55.4057 H   0  0  0  0  0  0  0  0  0  0  0  0
   56.5996   30.8296   54.9662 H   0  0  0  0  0  0  0  0  0  0  0  0
   55.9819   30.2299   52.6251 H   0  0  0  0  0  0  0  0  0  0  0  0
   57.3751   31.0303   50.7179 H   0  0  0  0  0  0  0  0  0  0  0  0
   61.4130   32.3630   51.8750 H   0  0  0  0  0  0  0  0  0  0  0  0
   63.9773   31.8593   48.4626 H   0  0  0  0  0  0  0  0  0  0  0  0
   66.4161   32.3050   49.2588 H   0  0  0  0  0  0  0  0  0  0  0  0
   66.5421   33.8502   51.3894 H   0  0  0  0  0  0  0  0  0  0  0  0
   61.8260   33.7820   47.8931 H   0  0  0  0  0  0  0  0  0  0  0  0
   60.8928   34.9267   46.5947 H   0  0  0  0  0  0  0  0  0  0  0  0
   59.8271   35.6032   44.4441 H   0  0  0  0  0  0  0  0  0  0  0  0
  1  2  2  0
  2  3  1  0
  3  4  2  0
  4  5  1  0
  5  6  2  0
  6  7  1  0
  7  8  1  0
  8  9  2  0
  9 10  1  0
 10 11  2  0
 11 12  1  0
 12 13  2  0
  7 14  2  0
 14 15  1  0
 15 16  1  0
 16 17  2  0
 17 18  1  0
 18 19  2  0
 19 20  1  0
 15 21  2  0
  4 22  1  0
 22 23  2  0
 23  1  1  0
 21  5  1  0
 13  8  1  0
 20 16  1  0
  1 24  1  0
  2 25  1  0
  3 26  1  0
  6 27  1  0
  9 28  1  0
 10 29  1  0
 11 30  1  0
 12 31  1  0
 13 32  1  0
 14 33  1  0
 17 34  1  0
 18 35  1  0
 19 36  1  0
 21 37  1  0
 22 38  1  0
 23 39  1  0
M  CHG  1  14   1
M  END
>  <UniqueID>  (5) 
5

>  <SMILES>  (5) 
c1ccc(-c2cc(-c3ccccc3)[nH+]c(-c3cccs3)c2)cc1

>  <Energy>  (5) 
82.21541522115892

>  <Genealogy>  (5) 
c1ccc(-c2cc(-c3ccccc3)[nH+]c(-c3cccs3)c2)cc1 (protonated)
c1ccc(-c2cc(-c3ccccc3)[nH+]c(-c3cccs3)c2)cc1 (3D coordinates assigned)
c1ccc(-c2cc(-c3ccccc3)[nH+]c(-c3cccs3)c2)cc1 (optimized conformer: 82.21541522115892 kcal/mol)

>  <smiles>  (5) 
c1ccc(-c2cc(-c3ccccc3)nc(-c3cccs3)c2)cc1

>  <score_type>  (5) 
oracle

>  <origin>  (5) 
adg

>  <m_score__min__energy>  (5) 
-5.7699999999999996

>  <m_primary>  (5) 
energy

$$$$
5:0
     RDKit          3D

 29 30  0  0  0  0  0  0  0  0999 V2000
   62.9930   34.1800   50.6670 C   0  0  0  0  0  0  0  0  0  0  0  0
   62.8290   34.5320   49.2990 O   0  0  0  0  0  0  0  0  0  0  0  0
   63.1050   33.6450   48.2540 C   0  0  0  0  0  0  0  0  0  0  0  0
   64.2950   33.4520   47.8800 O   0  0  0  0  0  0  0  0  0  0  0  0
   61.9930   32.9380   47.5960 C   0  0  0  0  0  0  0  0  0  0  0  0
   61.9750   31.5370   47.4940 C   0  0  0  0  0  0  0  0  0  0  0  0
   60.9030   30.9020   46.8630 C   0  0  0  0  0  0  0  0  0  0  0  0
   59.8540   31.6650   46.3360 C   0  0  0  0  0  0  0  0  0  0  0  0
   58.7620   31.0580   45.6960 C   0  0  0  0  0  0  0  0  0  0  0  0
   57.7200   31.8480   45.1760 C   0  0  0  0  0  0  0  0  0  0  0  0
   56.5850   31.2730   44.5130 N   0  0  0  0  0  0  0  0  0  0  0  0
   56.2660   29.5760   44.3680 S   0  0  0  0  0  0  0  0  0  0  0  0
   57.0250   28.9820   42.9320 N   0  0  0  0  0  0  0  0  0  0  0  0
   54.7850   29.3420   44.2730 O   0  0  0  0  0  0  0  0  0  0  0  0
   56.8250   28.8490   45.5600 O   0  0  0  0  0  0  0  0  0  0  0  0
   57.7840   33.2430   45.3020 C   0  0  0  0  0  0  0  0  0  0  0  0
   58.8690   33.8520   45.9400 C   0  0  0  0  0  0  0  0  0  0  0  0
   59.9050   33.0700   46.4560 C   0  0  0  0  0  0  0  0  0  0  0  0
   60.9610   33.6600   47.0770 N   0  0  0  0  0  0  0  0  0  0  0  0
   62.6139   34.9936   51.3029 H   0  0  0  0  0  0  0  0  0  0  0  0
   62.4318   33.2578   50.8781 H   0  0  0  0  0  0  0  0  0  0  0  0
   64.0601   34.0164   50.8781 H   0  0  0  0  0  0  0  0  0  0  0  0
   62.8020   30.9425   47.9095 H   0  0  0  0  0  0  0  0  0  0  0  0
   60.8829   29.8053   46.7803 H   0  0  0  0  0  0  0  0  0  0  0  0
   58.7207   29.9629   45.6008 H   0  0  0  0  0  0  0  0  0  0  0  0
   58.0330   29.2510   42.9870 H   0  0  0  0  0  0  0  0  0  0  0  0
   56.9870   27.9390   42.9750 H   0  0  0  0  0  0  0  0  0  0  0  0
   56.9727   33.8644   44.8950 H   0  0  0  0  0  0  0  0  0  0  0  0
   58.9067   34.9472   46.0356 H   0  0  0  0  0  0  0  0  0  0  0  0
  1  2  1  0
  2  3  1  0
  3  4  2  0
  3  5  1  0
  5  6  2  0
  6  7  1  0
  7  8  2  0
  8  9  1  0
  9 10  2  0
 10 11  1  0
 11 12  1  0
 12 13  1  0
 12 14  2  0
 12 15  2  0
 10 16  1  0
 16 17  2  0
 17 18  1  0
 18 19  2  0
 19  5  1  0
 18  8  1  0
  1 20  1  0
  1 21  1  0
  1 22  1  0
  6 23  1  0
  7 24  1  0
  9 25  1  0
 13 26  1  0
 13 27  1  0
 16 28  1  0
 17 29  1  0
M  CHG  1  11  -1
M  END
>  <UniqueID>  (6) 
6

>  <SMILES>  (6) 
COC(=O)c1ccc2cc([N-]S(N)(=O)=O)ccc2n1

>  <Energy>  (6) 
30.121489883768056

>  <Genealogy>  (6) 
COC(=O)c1ccc2cc([N-]S(N)(=O)=O)ccc2n1 (protonated)
COC(=O)c1ccc2cc([N-]S(N)(=O)=O)ccc2n1 (3D coordinates assigned)
COC(=O)c1ccc2cc([N-]S(N)(=O)=O)ccc2n1 (optimized conformer: 30.121489883768056 kcal/mol)

>  <smiles>  (6) 
COC(=O)c1ccc2cc(NS(N)(=O)=O)ccc2n1

>  <score_type>  (6) 
oracle

>  <origin>  (6) 
adg

>  <m_score__min__energy>  (6) 
-8.4499999999999993

>  <m_primary>  (6) 
energy

$$$$
6:0
     RDKit          3D

 33 35  0  0  0  0  0  0  0  0999 V2000
   62.8740   32.4930   47.1760 C   0  0  0  0  0  0  0  0  0  0  0  0
   61.7360   31.9060   47.7980 O   0  0  0  0  0  0  0  0  0  0  0  0
   60.5640   31.5290   47.1220 C   0  0  0  0  0  0  0  0  0  0  0  0
   60.1400   30.1870   47.0590 C   0  0  0  0  0  0  0  0  0  0  0  0
   58.9680   29.8480   46.3780 C   0  0  0  0  0  0  0  0  0  0  0  0
   58.5650   28.5520   46.3220 N   0  0  0  0  0  0  0  0  0  0  0  0
   57.4300   28.1880   45.6680 C   0  0  0  0  0  0  0  0  0  0  0  0
   57.0150   26.7650   45.6230 C   0  0  0  0  0  0  0  0  0  0  0  0
   57.7240   25.8290   44.8500 C   0  0  0  0  0  0  0  0  0  0  0  0
   57.3210   24.4940   44.8170 C   0  0  0  0  0  0  0  0  0  0  0  0
   56.2080   24.0970   45.5590 C   0  0  0  0  0  0  0  0  0  0  0  0
   55.5280   25.0070   46.3030 N   0  0  0  0  0  0  0  0  0  0  0  0
   55.8980   26.3140   46.3520 C   0  0  0  0  0  0  0  0  0  0  0  0
   56.6790   29.1430   45.0530 N   0  0  0  0  0  0  0  0  0  0  0  0
   57.0330   30.4540   45.0750 C   0  0  0  0  0  0  0  0  0  0  0  0
   56.3040   31.3000   44.4910 O   0  0  0  0  0  0  0  0  0  0  0  0
   58.2020   30.8470   45.7480 C   0  0  0  0  0  0  0  0  0  0  0  0
   58.6230   32.1870   45.8080 C   0  0  0  0  0  0  0  0  0  0  0  0
   59.8050   32.5300   46.4950 C   0  0  0  0  0  0  0  0  0  0  0  0
   60.2590   33.8560   46.5780 O   0  0  0  0  0  0  0  0  0  0  0  0
   59.6120   34.9710   45.9710 C   0  0  0  0  0  0  0  0  0  0  0  0
   63.5698   32.8519   47.9486 H   0  0  0  0  0  0  0  0  0  0  0  0
   63.3775   31.7421   46.5494 H   0  0  0  0  0  0  0  0  0  0  0  0
   62.5540   33.3385   46.5494 H   0  0  0  0  0  0  0  0  0  0  0  0
   60.7348   29.4018   47.5486 H   0  0  0  0  0  0  0  0  0  0  0  0
   58.6005   26.1508   44.2685 H   0  0  0  0  0  0  0  0  0  0  0  0
   57.8752   23.7614   44.2119 H   0  0  0  0  0  0  0  0  0  0  0  0
   55.8814   23.0468   45.5413 H   0  0  0  0  0  0  0  0  0  0  0  0
   55.3217   27.0231   46.9644 H   0  0  0  0  0  0  0  0  0  0  0  0
   58.0277   32.9708   45.3169 H   0  0  0  0  0  0  0  0  0  0  0  0
   59.2238   35.6400   46.7531 H   0  0  0  0  0  0  0  0  0  0  0  0
   60.3332   35.5176   45.3457 H   0  0  0  0  0  0  0  0  0  0  0  0
   58.7795   34.6161   45.3457 H   0  0  0  0  0  0  0  0  0  0  0  0
  1  2  1  0
  2  3  1  0
  3  4  2  0
  4  5  1  0
  5  6  1  0
  6  7  2  0
  7  8  1  0
  8  9  2  0
  9 10  1  0
 10 11  2  0
 11 12  1  0
 12 13  2  0
  7 14  1  0
 14 15  1  0
 15 16  2  0
 15 17  1  0
 17 18  1  0
 18 19  2  0
 19 20  1  0
 20 21  1  0
 19  3  1  0
 17  5  2  0
 13  8  1  0
  1 22  1  0
  1 23  1  0
  1 24  1  0
  4 25  1  0
  9 26  1  0
 10 27  1  0
 11 28  1  0
 13 29  1  0
 18 30  1  0
 21 31  1  0
 21 32  1  0
 21 33  1  0
M  CHG  1  14  -1
M  END
>  <UniqueID>  (7) 
7

>  <SMILES>  (7) 
COc1cc2nc(-c3cccnc3)[n-]c(=O)c2cc1OC

>  <Energy>  (7) 
41.65975800795696

>  <Genealogy>  (7) 
COc1cc2nc(-c3cccnc3)[n-]c(=O)c2cc1OC (protonated)
COc1cc2nc(-c3cccnc3)[n-]c(=O)c2cc1OC (3D coordinates assigned)
COc1cc2nc(-c3cccnc3)[n-]c(=O)c2cc1OC (optimized conformer: 41.65975800795696 kcal/mol)

>  <smiles>  (7) 
COc1cc2nc(-c3cccnc3)[nH]c(=O)c2cc1OC

>  <score_type>  (7) 
oracle

>  <origin>  (7) 
adg

>  <m_score__min__energy>  (7) 
-7.2699999999999996

>  <m_primary>  (7) 
energy

$$$$
7:0
     RDKit          3D

 47 50  0  0  0  0  0  0  0  0999 V2000
   59.5000   34.0730   48.3640 C   0  0  0  0  0  0  0  0  0  0  0  0
   58.9840   33.6140   47.0260 C   0  0  0  0  0  0  0  0  0  0  0  0
   58.4890   34.5730   46.1240 C   0  0  0  0  0  0  0  0  0  0  0  0
   58.0210   34.1910   44.8690 C   0  0  0  0  0  0  0  0  0  0  0  0
   58.0290   32.8460   44.4960 C   0  0  0  0  0  0  0  0  0  0  0  0
   58.5110   31.8700   45.3760 C   0  0  0  0  0  0  0  0  0  0  0  0
   58.4730   30.4950   44.9660 N   0  0  0  0  0  0  0  0  0  0  0  0
   59.7080   29.7150   44.8730 C   0  0  0  0  0  0  0  0  0  0  0  0
   59.5060   28.3190   45.4960 C   0  0  0  0  0  0  0  0  0  0  0  0
   58.1720   27.7090   45.2250 N   0  0  0  0  0  0  0  0  0  0  0  0
   57.3880   27.4880   46.4640 C   0  0  0  0  0  0  0  0  0  0  0  0
   56.5310   26.2630   46.3320 C   0  0  0  0  0  0  0  0  0  0  0  0
   57.0190   25.0090   46.5190 N   0  0  0  0  0  0  0  0  0  0  0  0
   55.9500   24.2380   46.2700 C   0  0  0  0  0  0  0  0  0  0  0  0
   55.8730   22.8480   46.3050 C   0  0  0  0  0  0  0  0  0  0  0  0
   54.6340   22.2530   45.9920 C   0  0  0  0  0  0  0  0  0  0  0  0
   53.5230   23.0550   45.6470 C   0  0  0  0  0  0  0  0  0  0  0  0
   53.6420   24.4590   45.6140 C   0  0  0  0  0  0  0  0  0  0  0  0
   54.8800   25.0100   45.9390 C   0  0  0  0  0  0  0  0  0  0  0  0
   55.2230   26.3080   45.9580 N   0  0  0  0  0  0  0  0  0  0  0  0
   57.3860   28.4260   44.1960 C   0  0  0  0  0  0  0  0  0  0  0  0
   57.1950   29.9000   44.5730 C   0  0  0  0  0  0  0  0  0  0  0  0
   59.0280   32.2480   46.6420 C   0  0  0  0  0  0  0  0  0  0  0  0
   59.5830   31.2010   47.5820 C   0  0  0  0  0  0  0  0  0  0  0  0
   58.9371   33.5723   49.1655 H   0  0  0  0  0  0  0  0  0  0  0  0
   60.5669   33.8200   48.4520 H   0  0  0  0  0  0  0  0  0  0  0  0
   59.3730   35.1621   48.4520 H   0  0  0  0  0  0  0  0  0  0  0  0
   58.4713   35.6344   46.4124 H   0  0  0  0  0  0  0  0  0  0  0  0
   57.6439   34.9517   44.1696 H   0  0  0  0  0  0  0  0  0  0  0  0
   57.6543   32.5513   43.5047 H   0  0  0  0  0  0  0  0  0  0  0  0
   59.9882   29.6034   43.8152 H   0  0  0  0  0  0  0  0  0  0  0  0
   60.5052   30.2396   45.4201 H   0  0  0  0  0  0  0  0  0  0  0  0
   60.2791   27.6478   45.0936 H   0  0  0  0  0  0  0  0  0  0  0  0
   59.5753   28.4493   46.5860 H   0  0  0  0  0  0  0  0  0  0  0  0
   58.0781   27.3576   47.3106 H   0  0  0  0  0  0  0  0  0  0  0  0
   56.7390   28.3596   46.6347 H   0  0  0  0  0  0  0  0  0  0  0  0
   56.7483   22.2358   46.5677 H   0  0  0  0  0  0  0  0  0  0  0  0
   54.5315   21.1581   46.0165 H   0  0  0  0  0  0  0  0  0  0  0  0
   52.5607   22.5813   45.4030 H   0  0  0  0  0  0  0  0  0  0  0  0
   52.7883   25.0969   45.3415 H   0  0  0  0  0  0  0  0  0  0  0  0
   57.9160   28.3673   43.2339 H   0  0  0  0  0  0  0  0  0  0  0  0
   56.3953   27.9537   44.1219 H   0  0  0  0  0  0  0  0  0  0  0  0
   56.7916   30.4463   43.7076 H   0  0  0  0  0  0  0  0  0  0  0  0
   56.4957   29.9644   45.4196 H   0  0  0  0  0  0  0  0  0  0  0  0
   59.4157   31.5167   48.6224 H   0  0  0  0  0  0  0  0  0  0  0  0
   59.0749   30.2418   47.4036 H   0  0  0  0  0  0  0  0  0  0  0  0
   60.6620   31.0831   47.4036 H   0  0  0  0  0  0  0  0  0  0  0  0
  1  2  1  0
  2  3  2  0
  3  4  1  0
  4  5  2  0
  5  6  1  0
  6  7  1  0
  7  8  1  0
  8  9  1  0
  9 10  1  0
 10 11  1  0
 11 12  1  0
 12 13  2  0
 13 14  1  0
 14 15  2  0
 15 16  1  0
 16 17  2  0
 17 18  1  0
 18 19  2  0
 19 20  1  0
 10 21  1  0
 21 22  1  0
  6 23  2  0
 23 24  1  0
 23  2  1  0
 22  7  1  0
 20 12  1  0
 19 14  1  0
  1 25  1  0
  1 26  1  0
  1 27  1  0
  3 28  1  0
  4 29  1  0
  5 30  1  0
  8 31  1  0
  8 32  1  0
  9 33  1  0
  9 34  1  0
 11 35  1  0
 11 36  1  0
 15 37  1  0
 16 38  1  0
 17 39  1  0
 18 40  1  0
 21 41  1  0
 21 42  1  0
 22 43  1  0
 22 44  1  0
 24 45  1  0
 24 46  1  0
 24 47  1  0
M  CHG  1  20  -1
M  END
>  <UniqueID>  (8) 
8

>  <SMILES>  (8) 
Cc1cccc(N2CCN(Cc3nc4ccccc4[n-]3)CC2)c1C

>  <Energy>  (8) 
100.19502275277657

>  <Genealogy>  (8) 
Cc1cccc(N2CCN(Cc3nc4ccccc4[n-]3)CC2)c1C (protonated)
Cc1cccc(N2CCN(Cc3nc4ccccc4[n-]3)CC2)c1C (3D coordinates assigned)
Cc1cccc(N2CCN(Cc3nc4ccccc4[n-]3)CC2)c1C (nonaromatic ring conformer: 100.19502275277657 kcal/mol)

>  <smiles>  (8) 
Cc1cccc(N2CCN(Cc3nc4ccccc4[nH]3)CC2)c1C

>  <score_type>  (8) 
oracle

>  <origin>  (8) 
adg

>  <m_score__min__energy>  (8) 
-9.3200000000000003

>  <m_primary>  (8) 
energy

$$$$
8:0
     RDKit          3D

 53 56  0  0  0  0  0  0  0  0999 V2000
   56.9140   34.5820   44.8720 C   0  0  0  0  0  0  0  0  0  0  0  0
   57.0470   33.5210   45.9680 C   0  0  0  0  0  0  0  0  0  0  0  0
   58.3610   32.6990   45.9480 C   0  0  1  0  0  0  0  0  0  0  0  0
   59.1550   32.6770   47.2840 C   0  0  0  0  0  0  0  0  0  0  0  0
   60.0800   33.8280   47.4350 N   0  0  0  0  0  0  0  0  0  0  0  0
   60.9230   34.0730   46.2270 C   0  0  0  0  0  0  0  0  0  0  0  0
   62.4320   33.8430   46.4420 C   0  0  0  0  0  0  0  0  0  0  0  0
   62.7010   32.5820   47.2870 C   0  0  1  0  0  0  0  0  0  0  0  0
   64.1430   32.4630   47.6220 N   0  0  0  0  0  0  0  0  0  0  0  0
   64.1960   32.6640   49.0320 C   0  0  0  0  0  0  0  0  0  0  0  0
   65.3700   32.7150   49.7870 C   0  0  0  0  0  0  0  0  0  0  0  0
   65.2740   32.8730   51.1780 C   0  0  0  0  0  0  0  0  0  0  0  0
   64.0100   32.9760   51.7990 C   0  0  0  0  0  0  0  0  0  0  0  0
   63.9100   33.0920   53.2900 C   0  0  0  0  0  0  0  0  0  0  0  0
   62.8430   32.8940   51.0160 C   0  0  0  0  0  0  0  0  0  0  0  0
   62.9710   32.7580   49.6310 C   0  0  0  0  0  0  0  0  0  0  0  0
   61.9020   32.6090   48.6210 C   0  0  1  0  0  0  0  0  0  0  0  0
   60.8670   33.7520   48.6850 C   0  0  0  0  0  0  0  0  0  0  0  0
   58.2010   31.3230   45.3100 C   0  0  0  0  0  0  0  0  0  0  0  0
   59.0690   30.2540   45.6150 C   0  0  0  0  0  0  0  0  0  0  0  0
   58.8880   29.0010   45.0240 C   0  0  0  0  0  0  0  0  0  0  0  0
   57.8360   28.7920   44.1300 C   0  0  0  0  0  0  0  0  0  0  0  0
   56.9590   29.8350   43.8300 C   0  0  0  0  0  0  0  0  0  0  0  0
   57.1350   31.0910   44.4190 C   0  0  0  0  0  0  0  0  0  0  0  0
   56.7898   35.5726   45.3338 H   0  0  0  0  0  0  0  0  0  0  0  0
   57.8195   34.5795   44.2474 H   0  0  0  0  0  0  0  0  0  0  0  0
   56.0371   34.3561   44.2474 H   0  0  0  0  0  0  0  0  0  0  0  0
   56.9806   34.0294   46.9412 H   0  0  0  0  0  0  0  0  0  0  0  0
   56.2372   32.7987   45.7876 H   0  0  0  0  0  0  0  0  0  0  0  0
   59.0160   33.2714   45.2747 H   0  0  0  0  0  0  0  0  0  0  0  0
   58.4372   32.6940   48.1173 H   0  0  0  0  0  0  0  0  0  0  0  0
   59.7679   31.7636   47.2843 H   0  0  0  0  0  0  0  0  0  0  0  0
   60.5830   33.3974   45.4283 H   0  0  0  0  0  0  0  0  0  0  0  0
   60.8022   35.1362   45.9722 H   0  0  0  0  0  0  0  0  0  0  0  0
   62.9181   33.7261   45.4622 H   0  0  0  0  0  0  0  0  0  0  0  0
   62.8380   34.7111   46.9820 H   0  0  0  0  0  0  0  0  0  0  0  0
   62.3797   31.7236   46.6787 H   0  0  0  0  0  0  0  0  0  0  0  0
   64.7390   33.1750   47.1380 H   0  0  0  0  0  0  0  0  0  0  0  0
   64.4870   31.4980   47.4050 H   0  0  0  0  0  0  0  0  0  0  0  0
   66.3527   32.6327   49.2997 H   0  0  0  0  0  0  0  0  0  0  0  0
   66.1883   32.9169   51.7880 H   0  0  0  0  0  0  0  0  0  0  0  0
   64.5592   32.3390   53.7607 H   0  0  0  0  0  0  0  0  0  0  0  0
   64.2290   34.0975   53.6018 H   0  0  0  0  0  0  0  0  0  0  0  0
   62.8685   32.9246   53.6018 H   0  0  0  0  0  0  0  0  0  0  0  0
   61.8491   32.9362   51.4854 H   0  0  0  0  0  0  0  0  0  0  0  0
   61.2844   31.7103   48.7661 H   0  0  0  0  0  0  0  0  0  0  0  0
   60.1847   33.5720   49.5288 H   0  0  0  0  0  0  0  0  0  0  0  0
   61.4040   34.7027   48.8182 H   0  0  0  0  0  0  0  0  0  0  0  0
   59.8956   30.4081   46.3243 H   0  0  0  0  0  0  0  0  0  0  0  0
   59.5761   28.1769   45.2636 H   0  0  0  0  0  0  0  0  0  0  0  0
   57.6987   27.8058   43.6625 H   0  0  0  0  0  0  0  0  0  0  0  0
   56.1277   29.6689   43.1290 H   0  0  0  0  0  0  0  0  0  0  0  0
   56.4342   31.9057   44.1842 H   0  0  0  0  0  0  0  0  0  0  0  0
  1  2  1  0
  2  3  1  0
  3  4  1  0
  4  5  1  0
  5  6  1  0
  6  7  1  0
  7  8  1  0
  8  9  1  0
  9 10  1  0
 10 11  2  0
 11 12  1  0
 12 13  2  0
 13 14  1  0
 13 15  1  0
 15 16  2  0
 16 17  1  0
 17 18  1  0
  3 19  1  0
 19 20  2  0
 20 21  1  0
 21 22  2  0
 22 23  1  0
 23 24  2  0
 18  5  1  0
 24 19  1  0
 17  8  1  0
 16 10  1  0
  1 25  1  0
  1 26  1  0
  1 27  1  0
  2 28  1  0
  2 29  1  0
  3 30  1  6
  4 31  1  0
  4 32  1  0
  6 33  1  0
  6 34  1  0
  7 35  1  0
  7 36  1  0
  8 37  1  6
  9 38  1  0
  9 39  1  0
 11 40  1  0
 12 41  1  0
 14 42  1  0
 14 43  1  0
 14 44  1  0
 15 45  1  0
 17 46  1  1
 18 47  1  0
 18 48  1  0
 20 49  1  0
 21 50  1  0
 22 51  1  0
 23 52  1  0
 24 53  1  0
M  CHG  1   9   1
M  END
>  <UniqueID>  (9) 
9

>  <SMILES>  (9) 
CC[C@@H](CN1CC[C@H]2[NH2+]c3ccc(C)cc3C2C1)c1ccccc1

>  <Energy>  (9) 
78.8602183350752

>  <Genealogy>  (9) 
CCC(CN1CCC2[NH2+]c3ccc(C)cc3C2C1)c1ccccc1 (protonated)
CC[C@@H](CN1CC[C@H]2[NH2+]c3ccc(C)cc3C2C1)c1ccccc1 (chirality)
CC[C@@H](CN1CC[C@H]2[NH2+]c3ccc(C)cc3C2C1)c1ccccc1 (3D coordinates assigned)
CC[C@@H](CN1CC[C@H]2[NH2+]c3ccc(C)cc3C2C1)c1ccccc1 (nonaromatic ring conformer: 78.8602183350752 kcal/mol)

>  <smiles>  (9) 
CCC(CN1CCC2Nc3ccc(C)cc3C2C1)c1ccccc1

>  <score_type>  (9) 
oracle

>  <origin>  (9) 
adg

>  <m_score__min__energy>  (9) 
-7.3099999999999996

>  <m_primary>  (9) 
energy

$$$$
9:0
     RDKit          3D

 39 42  0  0  0  0  0  0  0  0999 V2000
   59.5210   27.4140   47.6850 C   0  0  0  0  0  0  0  0  0  0  0  0
   58.2960   27.7320   47.0330 O   0  0  0  0  0  0  0  0  0  0  0  0
   58.1260   28.8030   46.1430 C   0  0  0  0  0  0  0  0  0  0  0  0
   57.3120   28.7090   44.9990 C   0  0  0  0  0  0  0  0  0  0  0  0
   57.1810   29.8000   44.1370 C   0  0  0  0  0  0  0  0  0  0  0  0
   57.8610   30.9930   44.4010 C   0  0  0  0  0  0  0  0  0  0  0  0
   58.6480   31.1150   45.5630 C   0  0  0  0  0  0  0  0  0  0  0  0
   58.7850   30.0070   46.4170 C   0  0  0  0  0  0  0  0  0  0  0  0
   59.2410   32.4250   45.9290 C   0  0  0  0  0  0  0  0  0  0  0  0
   60.2850   32.4780   46.8000 N   0  0  0  0  0  0  0  0  0  0  0  0
   60.8450   33.6590   47.1790 C   0  0  0  0  0  0  0  0  0  0  0  0
   61.9550   33.6780   48.1020 N   0  0  0  0  0  0  0  0  0  0  0  0
   63.3260   33.5180   47.6000 C   0  0  0  0  0  0  0  0  0  0  0  0
   64.2520   33.0190   48.7130 C   0  0  0  0  0  0  0  0  0  0  0  0
   64.1240   33.8220   49.8690 O   0  0  0  0  0  0  0  0  0  0  0  0
   62.8280   33.6680   50.4090 C   0  0  0  0  0  0  0  0  0  0  0  0
   61.7700   34.2260   49.4530 C   0  0  0  0  0  0  0  0  0  0  0  0
   60.3410   34.8230   46.6840 N   0  0  0  0  0  0  0  0  0  0  0  0
   59.2950   34.8300   45.8190 C   0  0  0  0  0  0  0  0  0  0  0  0
   58.7180   33.6240   45.4070 C   0  0  0  0  0  0  0  0  0  0  0  0
   57.5250   33.6120   44.4890 C   0  0  0  0  0  0  0  0  0  0  0  0
   57.7650   32.3390   43.2100 S   0  0  0  0  0  0  0  0  0  0  0  0
   59.3768   27.4514   48.7749 H   0  0  0  0  0  0  0  0  0  0  0  0
   59.8407   26.4031   47.3920 H   0  0  0  0  0  0  0  0  0  0  0  0
   60.2920   28.1418   47.3920 H   0  0  0  0  0  0  0  0  0  0  0  0
   56.7768   27.7726   44.7828 H   0  0  0  0  0  0  0  0  0  0  0  0
   56.5401   29.7205   43.2465 H   0  0  0  0  0  0  0  0  0  0  0  0
   59.4186   30.0872   47.3126 H   0  0  0  0  0  0  0  0  0  0  0  0
   63.3265   32.7898   46.7755 H   0  0  0  0  0  0  0  0  0  0  0  0
   63.6904   34.4936   47.2459 H   0  0  0  0  0  0  0  0  0  0  0  0
   63.9880   31.9810   48.9637 H   0  0  0  0  0  0  0  0  0  0  0  0
   65.2918   33.0742   48.3583 H   0  0  0  0  0  0  0  0  0  0  0  0
   62.6328   32.5988   50.5784 H   0  0  0  0  0  0  0  0  0  0  0  0
   62.7733   34.2225   51.3574 H   0  0  0  0  0  0  0  0  0  0  0  0
   60.7700   33.9524   49.8206 H   0  0  0  0  0  0  0  0  0  0  0  0
   61.8724   35.3204   49.4095 H   0  0  0  0  0  0  0  0  0  0  0  0
   58.9006   35.7850   45.4415 H   0  0  0  0  0  0  0  0  0  0  0  0
   56.6177   33.3850   45.0681 H   0  0  0  0  0  0  0  0  0  0  0  0
   57.4157   34.5976   44.0129 H   0  0  0  0  0  0  0  0  0  0  0  0
  1  2  1  0
  2  3  1  0
  3  4  2  0
  4  5  1  0
  5  6  2  0
  6  7  1  0
  7  8  2  0
  7  9  1  0
  9 10  2  0
 10 11  1  0
 11 12  1  0
 12 13  1  0
 13 14  1  0
 14 15  1  0
 15 16  1  0
 16 17  1  0
 11 18  2  0
 18 19  1  0
 19 20  2  0
 20 21  1  0
 21 22  1  0
  8  3  1  0
 20  9  1  0
 22  6  1  0
 17 12  1  0
  1 23  1  0
  1 24  1  0
  1 25  1  0
  4 26  1  0
  5 27  1  0
  8 28  1  0
 13 29  1  0
 13 30  1  0
 14 31  1  0
 14 32  1  0
 16 33  1  0
 16 34  1  0
 17 35  1  0
 17 36  1  0
 19 37  1  0
 21 38  1  0
 21 39  1  0
M  END
>  <UniqueID>  (10) 
10

>  <SMILES>  (10) 
COc1ccc2c(c1)-c1nc(N3CCOCC3)ncc1CS2

>  <Energy>  (10) 
51.151309508369444

>  <Genealogy>  (10) 
COc1ccc2c(c1)-c1nc(N3CCOCC3)ncc1CS2 (3D coordinates assigned)
COc1ccc2c(c1)-c1nc(N3CCOCC3)ncc1CS2 (nonaromatic ring conformer: 51.151309508369444 kcal/mol)

>  <smiles>  (10) 
COc1ccc2c(c1)-c1nc(N3CCOCC3)ncc1CS2

>  <score_type>  (10) 
oracle

>  <origin>  (10) 
adg

>  <m_score__min__energy>  (10) 
-7.0300000000000002

>  <m_primary>  (10) 
energy

$$$$
10:0
     RDKit          3D

 55 57  0  0  0  0  0  0  0  0999 V2000
   57.3940   34.1600   45.2060 C   0  0  0  0  0  0  0  0  0  0  0  0
   58.4630   33.5310   44.3110 C   0  0  0  0  0  0  0  0  0  0  0  0
   57.8170   32.6400   43.2240 C   0  0  0  0  0  0  0  0  0  0  0  0
   57.9790   31.1910   43.5170 N   0  0  2  0  0  0  0  0  0  0  0  0
   56.8140   30.4480   42.9870 C   0  0  0  0  0  0  0  0  0  0  0  0
   57.0190   28.9280   43.1260 C   0  0  0  0  0  0  0  0  0  0  0  0
   57.5810   28.5340   44.5210 C   0  0  2  0  0  0  0  0  0  0  0  0
   56.9770   27.2880   45.0410 N   0  0  0  0  0  0  0  0  0  0  0  0
   57.2730   27.0270   46.4660 C   0  0  0  0  0  0  0  0  0  0  0  0
   58.7680   26.7600   46.7090 C   0  0  0  0  0  0  0  0  0  0  0  0
   59.5330   28.0340   46.9700 C   0  0  0  0  0  0  0  0  0  0  0  0
   60.4050   28.5450   45.9980 C   0  0  0  0  0  0  0  0  0  0  0  0
   61.1110   29.7260   46.2330 C   0  0  0  0  0  0  0  0  0  0  0  0
   60.9540   30.4240   47.4440 C   0  0  0  0  0  0  0  0  0  0  0  0
   61.7260   31.6630   47.7100 C   0  0  0  0  0  0  0  0  0  0  0  0
   61.1240   32.7600   48.3560 C   0  0  0  0  0  0  0  0  0  0  0  0
   61.8600   33.9160   48.6210 C   0  0  0  0  0  0  0  0  0  0  0  0
   63.1970   33.9950   48.2490 C   0  0  0  0  0  0  0  0  0  0  0  0
   63.8100   32.9130   47.6090 C   0  0  0  0  0  0  0  0  0  0  0  0
   63.0790   31.7540   47.3400 C   0  0  0  0  0  0  0  0  0  0  0  0
   60.0660   29.9180   48.4100 C   0  0  0  0  0  0  0  0  0  0  0  0
   59.3610   28.7350   48.1740 C   0  0  0  0  0  0  0  0  0  0  0  0
   57.4960   29.6970   45.5300 C   0  0  0  0  0  0  0  0  0  0  0  0
   58.1990   30.9570   44.9770 C   0  0  0  0  0  0  0  0  0  0  0  0
   57.6608   34.0030   46.2616 H   0  0  0  0  0  0  0  0  0  0  0  0
   57.3317   35.2388   45.0001 H   0  0  0  0  0  0  0  0  0  0  0  0
   56.4207   33.6906   45.0001 H   0  0  0  0  0  0  0  0  0  0  0  0
   59.0417   34.3302   43.8248 H   0  0  0  0  0  0  0  0  0  0  0  0
   59.1200   32.9059   44.9336 H   0  0  0  0  0  0  0  0  0  0  0  0
   56.7433   32.8722   43.1674 H   0  0  0  0  0  0  0  0  0  0  0  0
   58.3226   32.8505   42.2700 H   0  0  0  0  0  0  0  0  0  0  0  0
   58.8220   30.8480   42.9940 H   0  0  0  0  0  0  0  0  0  0  0  0
   55.9144   30.7424   43.5474 H   0  0  0  0  0  0  0  0  0  0  0  0
   56.6998   30.6901   41.9201 H   0  0  0  0  0  0  0  0  0  0  0  0
   56.0514   28.4256   42.9796 H   0  0  0  0  0  0  0  0  0  0  0  0
   57.7521   28.6164   42.3674 H   0  0  0  0  0  0  0  0  0  0  0  0
   58.6507   28.3198   44.3802 H   0  0  0  0  0  0  0  0  0  0  0  0
   55.9440   27.3480   44.8760 H   0  0  0  0  0  0  0  0  0  0  0  0
   56.9689   27.9033   47.0573 H   0  0  0  0  0  0  0  0  0  0  0  0
   56.7158   26.1278   46.7676 H   0  0  0  0  0  0  0  0  0  0  0  0
   58.8736   26.0971   47.5805 H   0  0  0  0  0  0  0  0  0  0  0  0
   59.1822   26.2937   45.8029 H   0  0  0  0  0  0  0  0  0  0  0  0
   60.5335   28.0119   45.0444 H   0  0  0  0  0  0  0  0  0  0  0  0
   61.7959   30.1141   45.4647 H   0  0  0  0  0  0  0  0  0  0  0  0
   60.0665   32.7055   48.6538 H   0  0  0  0  0  0  0  0  0  0  0  0
   61.3803   34.7674   49.1260 H   0  0  0  0  0  0  0  0  0  0  0  0
   63.7729   34.9086   48.4580 H   0  0  0  0  0  0  0  0  0  0  0  0
   64.8688   32.9750   47.3173 H   0  0  0  0  0  0  0  0  0  0  0  0
   63.5654   30.9064   46.8351 H   0  0  0  0  0  0  0  0  0  0  0  0
   59.9254   30.4575   49.3583 H   0  0  0  0  0  0  0  0  0  0  0  0
   58.6671   28.3507   48.9361 H   0  0  0  0  0  0  0  0  0  0  0  0
   56.4385   29.9299   45.7234 H   0  0  0  0  0  0  0  0  0  0  0  0
   57.9980   29.3934   46.4605 H   0  0  0  0  0  0  0  0  0  0  0  0
   57.8220   31.8318   45.5271 H   0  0  0  0  0  0  0  0  0  0  0  0
   59.2794   30.8011   45.1127 H   0  0  0  0  0  0  0  0  0  0  0  0
  1  2  1  0
  2  3  1  0
  3  4  1  0
  4  5  1  0
  5  6  1  0
  6  7  1  0
  7  8  1  0
  8  9  1  0
  9 10  1  0
 10 11  1  0
 11 12  2  0
 12 13  1  0
 13 14  2  0
 14 15  1  0
 15 16  2  0
 16 17  1  0
 17 18  2  0
 18 19  1  0
 19 20  2  0
 14 21  1  0
 21 22  2  0
  7 23  1  0
 23 24  1  0
 24  4  1  0
 22 11  1  0
 20 15  1  0
  1 25  1  0
  1 26  1  0
  1 27  1  0
  2 28  1  0
  2 29  1  0
  3 30  1  0
  3 31  1  0
  4 32  1  6
  5 33  1  0
  5 34  1  0
  6 35  1  0
  6 36  1  0
  7 37  1  6
  8 38  1  0
  9 39  1  0
  9 40  1  0
 10 41  1  0
 10 42  1  0
 12 43  1  0
 13 44  1  0
 16 45  1  0
 17 46  1  0
 18 47  1  0
 19 48  1  0
 20 49  1  0
 21 50  1  0
 22 51  1  0
 23 52  1  0
 23 53  1  0
 24 54  1  0
 24 55  1  0
M  CHG  1   4   1
M  END
>  <UniqueID>  (11) 
11

>  <SMILES>  (11) 
CCC[NH+]1CCC(NCCc2ccc(-c3ccccc3)cc2)CC1

>  <Energy>  (11) 
67.61178303143588

>  <Genealogy>  (11) 
CCC[NH+]1CCC(NCCc2ccc(-c3ccccc3)cc2)CC1 (protonated)
CCC[NH+]1CCC(NCCc2ccc(-c3ccccc3)cc2)CC1 (3D coordinates assigned)
CCC[NH+]1CCC(NCCc2ccc(-c3ccccc3)cc2)CC1 (nonaromatic ring conformer: 67.61178303143588 kcal/mol)

>  <smiles>  (11) 
CCCN1CCC(NCCc2ccc(-c3ccccc3)cc2)CC1

>  <score_type>  (11) 
oracle

>  <origin>  (11) 
adg

>  <m_score__min__energy>  (11) 
-6.8200000000000003

>  <m_primary>  (11) 
energy

$$$$
11:0
     RDKit          3D

103102  0  0  0  0  0  0  0  0999 V2000
   56.1422   27.5280   45.2191 H   0  0  0  0  0  0  0  0  0  0  0  0
   57.0780   28.0140   44.9060 C   0  0  0  0  0  0  0  0  0  0  0  0
   58.1240   27.2550   44.5560 C   0  0  0  0  0  0  0  0  0  0  0  0
   57.9854   26.4356   43.8353 H   0  0  0  0  0  0  0  0  0  0  0  0
   59.4830   27.5110   45.1370 C   0  0  0  0  0  0  0  0  0  0  0  0
   60.1576   26.6829   44.8741 H   0  0  0  0  0  0  0  0  0  0  0  0
   59.4091   27.5853   46.2320 H   0  0  0  0  0  0  0  0  0  0  0  0
   60.0110   28.7660   44.5920 N   0  0  0  0  0  0  0  0  0  0  0  0
   60.8030   28.5350   43.9470 H   0  0  0  0  0  0  0  0  0  0  0  0
   60.5170   29.6420   45.6540 C   0  0  0  0  0  0  0  0  0  0  0  0
   59.9816   30.6022   45.6171 H   0  0  0  0  0  0  0  0  0  0  0  0
   61.5943   29.8024   45.4999 H   0  0  0  0  0  0  0  0  0  0  0  0
   60.3030   28.9970   47.0300 C   0  0  0  0  0  0  0  0  0  0  0  0
   61.0804   29.3718   47.7120 H   0  0  0  0  0  0  0  0  0  0  0  0
   60.3570   27.9083   46.8823 H   0  0  0  0  0  0  0  0  0  0  0  0
   58.9230   29.2940   47.6570 C   0  0  0  0  0  0  0  0  0  0  0  0
   58.6081   28.4114   48.2331 H   0  0  0  0  0  0  0  0  0  0  0  0
   58.2400   29.5247   46.8262 H   0  0  0  0  0  0  0  0  0  0  0  0
   58.9090   30.5110   48.5930 C   0  0  0  0  0  0  0  0  0  0  0  0
   57.9460   30.5510   49.1231 H   0  0  0  0  0  0  0  0  0  0  0  0
   59.0468   31.4250   47.9966 H   0  0  0  0  0  0  0  0  0  0  0  0
   59.9990   30.4080   49.5730 N   0  0  0  0  0  0  0  0  0  0  0  0
   60.2070   31.3560   49.9610 H   0  0  0  0  0  0  0  0  0  0  0  0
   59.6860   29.4830   50.6700 C   0  0  0  0  0  0  0  0  0  0  0  0
   60.5706   28.8599   50.8681 H   0  0  0  0  0  0  0  0  0  0  0  0
   58.8231   28.8767   50.3574 H   0  0  0  0  0  0  0  0  0  0  0  0
   59.2960   30.2120   51.9690 C   0  0  0  0  0  0  0  0  0  0  0  0
   59.8987   31.1271   52.0653 H   0  0  0  0  0  0  0  0  0  0  0  0
   59.4828   29.5428   52.8218 H   0  0  0  0  0  0  0  0  0  0  0  0
   57.8090   30.5870   51.9500 C   0  0  0  0  0  0  0  0  0  0  0  0
   57.4410   30.6387   52.9853 H   0  0  0  0  0  0  0  0  0  0  0  0
   57.2684   29.8186   51.3779 H   0  0  0  0  0  0  0  0  0  0  0  0
   57.5740   31.9500   51.2670 C   0  0  0  0  0  0  0  0  0  0  0  0
   56.9691   32.5830   51.9329 H   0  0  0  0  0  0  0  0  0  0  0  0
   57.0543   31.7712   50.3141 H   0  0  0  0  0  0  0  0  0  0  0  0
   58.8430   32.6390   50.9760 N   0  0  0  0  0  0  0  0  0  0  0  0
   59.6410   31.9730   51.1060 H   0  0  0  0  0  0  0  0  0  0  0  0
   59.0210   33.8180   51.8360 C   0  0  0  0  0  0  0  0  0  0  0  0
   58.0724   34.3728   51.8841 H   0  0  0  0  0  0  0  0  0  0  0  0
   59.8169   34.4440   51.4063 H   0  0  0  0  0  0  0  0  0  0  0  0
   59.4360   33.4150   53.2550 C   0  0  0  0  0  0  0  0  0  0  0  0
   58.8386   32.5478   53.5729 H   0  0  0  0  0  0  0  0  0  0  0  0
   59.2624   34.2671   53.9286 H   0  0  0  0  0  0  0  0  0  0  0  0
   60.9260   33.0450   53.3030 C   0  0  0  0  0  0  0  0  0  0  0  0
   61.0174   31.9577   53.4424 H   0  0  0  0  0  0  0  0  0  0  0  0
   61.3851   33.5938   54.1385 H   0  0  0  0  0  0  0  0  0  0  0  0
   61.6590   33.4420   52.0170 C   0  0  0  0  0  0  0  0  0  0  0  0
   62.6508   33.8416   52.2751 H   0  0  0  0  0  0  0  0  0  0  0  0
   61.0655   34.2051   51.4922 H   0  0  0  0  0  0  0  0  0  0  0  0
   61.8220   32.2800   51.1340 N   0  0  0  0  0  0  0  0  0  0  0  0
   60.8940   32.0190   50.7230 H   0  0  0  0  0  0  0  0  0  0  0  0
   62.3870   31.1270   51.8530 C   0  0  0  0  0  0  0  0  0  0  0  0
   61.5819   30.6300   52.4141 H   0  0  0  0  0  0  0  0  0  0  0  0
   63.1723   31.5004   52.5267 H   0  0  0  0  0  0  0  0  0  0  0  0
   63.0260   30.1110   50.9030 C   0  0  0  0  0  0  0  0  0  0  0  0
   63.5217   29.3228   51.4886 H   0  0  0  0  0  0  0  0  0  0  0  0
   62.2475   29.6619   50.2688 H   0  0  0  0  0  0  0  0  0  0  0  0
   63.7680   30.6182   50.2688 H   0  0  0  0  0  0  0  0  0  0  0  0
   57.1530   29.5110   44.8810 C   0  0  0  0  0  0  0  0  0  0  0  0
   56.1789   29.9275   45.1770 H   0  0  0  0  0  0  0  0  0  0  0  0
   57.9342   29.8405   45.5818 H   0  0  0  0  0  0  0  0  0  0  0  0
   57.4930   29.9860   43.5300 N   0  0  0  0  0  0  0  0  0  0  0  0
   58.4780   29.6860   43.3370 H   0  0  0  0  0  0  0  0  0  0  0  0
   57.4390   31.4540   43.3920 C   0  0  0  0  0  0  0  0  0  0  0  0
   57.8661   31.7363   42.4184 H   0  0  0  0  0  0  0  0  0  0  0  0
   56.3870   31.7666   43.4670 H   0  0  0  0  0  0  0  0  0  0  0  0
   58.2310   32.1620   44.5090 C   0  0  0  0  0  0  0  0  0  0  0  0
   58.8636   31.4110   45.0048 H   0  0  0  0  0  0  0  0  0  0  0  0
   58.8004   32.9634   44.0155 H   0  0  0  0  0  0  0  0  0  0  0  0
   57.3740   32.8540   45.5930 C   0  0  0  0  0  0  0  0  0  0  0  0
   56.3473   32.9427   45.2082 H   0  0  0  0  0  0  0  0  0  0  0  0
   57.4571   32.2251   46.4917 H   0  0  0  0  0  0  0  0  0  0  0  0
   57.8260   34.1970   45.9950 N   0  0  0  0  0  0  0  0  0  0  0  0
   57.4970   34.4040   46.9640 H   0  0  0  0  0  0  0  0  0  0  0  0
   59.2810   34.4070   45.8930 C   0  0  0  0  0  0  0  0  0  0  0  0
   59.7649   33.4533   45.6355 H   0  0  0  0  0  0  0  0  0  0  0  0
   59.4728   35.1592   45.1136 H   0  0  0  0  0  0  0  0  0  0  0  0
   59.8570   34.9200   47.2200 C   0  0  0  0  0  0  0  0  0  0  0  0
   60.9478   35.0124   47.1122 H   0  0  0  0  0  0  0  0  0  0  0  0
   59.3718   35.8849   47.4286 H   0  0  0  0  0  0  0  0  0  0  0  0
   59.5640   34.0020   48.4190 C   0  0  0  0  0  0  0  0  0  0  0  0
   59.2808   34.6254   49.2799 H   0  0  0  0  0  0  0  0  0  0  0  0
   58.7504   33.3212   48.1282 H   0  0  0  0  0  0  0  0  0  0  0  0
   60.7250   33.1780   48.7940 N   0  0  0  0  0  0  0  0  0  0  0  0
   60.4040   32.5080   49.5310 H   0  0  0  0  0  0  0  0  0  0  0  0
   61.2670   32.4330   47.6430 C   0  0  0  0  0  0  0  0  0  0  0  0
   60.5783   31.6125   47.3929 H   0  0  0  0  0  0  0  0  0  0  0  0
   61.3699   33.1316   46.7996 H   0  0  0  0  0  0  0  0  0  0  0  0
   62.6580   31.8420   47.9510 C   0  0  0  0  0  0  0  0  0  0  0  0
   62.5906   31.2493   48.8752 H   0  0  0  0  0  0  0  0  0  0  0  0
   62.9524   31.2250   47.0893 H   0  0  0  0  0  0  0  0  0  0  0  0
   63.7380   32.9190   48.1370 C   0  0  0  0  0  0  0  0  0  0  0  0
   64.7190   32.4287   48.2217 H   0  0  0  0  0  0  0  0  0  0  0  0
   63.7055   33.5901   47.2660 H   0  0  0  0  0  0  0  0  0  0  0  0
   63.5030   33.7240   49.3430 N   0  0  0  0  0  0  0  0  0  0  0  0
   62.6130   33.3870   49.7810 H   0  0  0  0  0  0  0  0  0  0  0  0
   64.5730   33.5470   50.3320 C   0  0  0  0  0  0  0  0  0  0  0  0
   65.1515   34.4789   50.4155 H   0  0  0  0  0  0  0  0  0  0  0  0
   64.1297   33.2986   51.3076 H   0  0  0  0  0  0  0  0  0  0  0  0
   65.4960   32.4150   49.8940 C   0  0  0  0  0  0  0  0  0  0  0  0
   65.9062   31.9119   50.7821 H   0  0  0  0  0  0  0  0  0  0  0  0
   64.9277   31.6907   49.2920 H   0  0  0  0  0  0  0  0  0  0  0  0
   66.3199   32.8258   49.2920 H   0  0  0  0  0  0  0  0  0  0  0  0
  1  2  1  0
  2  3  2  0
  3  4  1  0
  3  5  1  0
  5  6  1  0
  5  7  1  0
  5  8  1  0
  8  9  1  0
  8 10  1  0
 10 11  1  0
 10 12  1  0
 10 13  1  0
 13 14  1  0
 13 15  1  0
 13 16  1  0
 16 17  1  0
 16 18  1  0
 16 19  1  0
 19 20  1  0
 19 21  1  0
 19 22  1  0
 22 23  1  0
 22 24  1  0
 24 25  1  0
 24 26  1  0
 24 27  1  0
 27 28  1  0
 27 29  1  0
 27 30  1  0
 30 31  1  0
 30 32  1  0
 30 33  1  0
 33 34  1  0
 33 35  1  0
 33 36  1  0
 36 37  1  0
 36 38  1  0
 38 39  1  0
 38 40  1  0
 38 41  1  0
 41 42  1  0
 41 43  1  0
 41 44  1  0
 44 45  1  0
 44 46  1  0
 44 47  1  0
 47 48  1  0
 47 49  1  0
 47 50  1  0
 50 51  1  0
 50 52  1  0
 52 53  1  0
 52 54  1  0
 52 55  1  0
 55 56  1  0
 55 57  1  0
 55 58  1  0
  2 59  1  0
 59 60  1  0
 59 61  1  0
 59 62  1  0
 62 63  1  0
 62 64  1  0
 64 65  1  0
 64 66  1  0
 64 67  1  0
 67 68  1  0
 67 69  1  0
 67 70  1  0
 70 71  1  0
 70 72  1  0
 70 73  1  0
 73 74  1  0
 73 75  1  0
 75 76  1  0
 75 77  1  0
 75 78  1  0
 78 79  1  0
 78 80  1  0
 78 81  1  0
 81 82  1  0
 81 83  1  0
 81 84  1  0
 84 85  1  0
 84 86  1  0
 86 87  1  0
 86 88  1  0
 86 89  1  0
 89 90  1  0
 89 91  1  0
 89 92  1  0
 92 93  1  0
 92 94  1  0
 92 95  1  0
 95 96  1  0
 95 97  1  0
 97 98  1  0
 97 99  1  0
 97100  1  0
100101  1  0
100102  1  0
100103  1  0
M  END
>  <UniqueID>  (12) 
12

>  <SMILES>  (12) 
CCNCCCCNCCCCNCCCCNC/C=C/CNCCCNCCCNCCCNCC

>  <Energy>  (12) 
57.063541258474785

>  <Genealogy>  (12) 
CCNCCCCNCCCCNCCCCNC/C=C/CNCCCNCCCNCCCNCC (cis-trans isomerization)
CCNCCCCNCCCCNCCCCNC/C=C/CNCCCNCCCNCCCNCC (3D coordinates assigned)
CCNCCCCNCCCCNCCCCNC/C=C/CNCCCNCCCNCCCNCC (optimized conformer: 57.063541258474785 kcal/mol)

>  <smiles>  (12) 
CCNCCCCNCCCCNCCCCNCC=CCNCCCNCCCNCCCNCC

>  <score_type>  (12) 
oracle

>  <origin>  (12) 
adg

>  <m_score__min__energy>  (12) 
-3.98

>  <m_primary>  (12) 
energy

$$$$
12:0
     RDKit          3D

 35 36  0  0  0  0  0  0  0  0999 V2000
   57.9750   30.7448   46.5987 H   0  0  0  0  0  0  0  0  0  0  0  0
   58.1250   31.7980   46.3190 C   0  0  0  0  0  0  0  0  0  0  0  0
   58.9630   32.6090   47.0890 C   0  0  0  0  0  0  0  0  0  0  0  0
   59.4572   32.1924   47.9791 H   0  0  0  0  0  0  0  0  0  0  0  0
   59.1790   33.9460   46.7380 C   0  0  0  0  0  0  0  0  0  0  0  0
   60.0260   34.7190   47.5460 O   0  0  0  0  0  0  0  0  0  0  0  0
   60.7720   34.2100   48.6460 C   0  0  0  0  0  0  0  0  0  0  0  0
   60.3021   34.5306   49.5875 H   0  0  0  0  0  0  0  0  0  0  0  0
   60.7890   33.1111   48.6004 H   0  0  0  0  0  0  0  0  0  0  0  0
   61.8015   34.5949   48.6004 H   0  0  0  0  0  0  0  0  0  0  0  0
   58.5470   34.4650   45.5920 C   0  0  0  0  0  0  0  0  0  0  0  0
   58.7129   35.5130   45.3019 H   0  0  0  0  0  0  0  0  0  0  0  0
   57.7090   33.6530   44.8210 C   0  0  0  0  0  0  0  0  0  0  0  0
   57.2306   34.0613   43.9185 H   0  0  0  0  0  0  0  0  0  0  0  0
   57.4750   32.3190   45.1930 C   0  0  0  0  0  0  0  0  0  0  0  0
   56.6390   31.4520   44.4120 N   0  0  0  0  0  0  0  0  0  0  0  0
   56.6120   30.0220   44.4870 C   0  0  0  0  0  0  0  0  0  0  0  0
   55.5520   29.4580   44.8690 O   0  0  0  0  0  0  0  0  0  0  0  0
   57.7380   29.2440   44.0370 N   0  0  0  0  0  0  0  0  0  0  0  0
   58.3870   29.7140   43.3690 H   0  0  0  0  0  0  0  0  0  0  0  0
   58.0080   28.0240   44.4240 C   0  0  0  0  0  0  0  0  0  0  0  0
   58.4510   27.7110   45.7380 N   0  0  0  0  0  0  0  0  0  0  0  0
   58.7650   28.6760   46.7880 C   0  0  0  0  0  0  0  0  0  0  0  0
   58.6131   28.2092   47.7724 H   0  0  0  0  0  0  0  0  0  0  0  0
   59.8133   28.9950   46.6913 H   0  0  0  0  0  0  0  0  0  0  0  0
   58.1051   29.5508   46.6913 H   0  0  0  0  0  0  0  0  0  0  0  0
   58.6250   26.2780   45.8860 C   0  0  0  0  0  0  0  0  0  0  0  0
   58.0417   25.9086   46.7423 H   0  0  0  0  0  0  0  0  0  0  0  0
   59.6774   26.0171   46.0713 H   0  0  0  0  0  0  0  0  0  0  0  0
   58.1110   25.6510   44.5790 C   0  0  0  0  0  0  0  0  0  0  0  0
   57.1812   25.0947   44.7686 H   0  0  0  0  0  0  0  0  0  0  0  0
   58.8505   24.9487   44.1668 H   0  0  0  0  0  0  0  0  0  0  0  0
   57.8450   26.7990   43.5960 C   0  0  0  0  0  0  0  0  0  0  0  0
   56.8258   26.7358   43.1870 H   0  0  0  0  0  0  0  0  0  0  0  0
   58.5213   26.7801   42.7287 H   0  0  0  0  0  0  0  0  0  0  0  0
  1  2  1  0
  2  3  2  0
  3  4  1  0
  3  5  1  0
  5  6  1  0
  6  7  1  0
  7  8  1  0
  7  9  1  0
  7 10  1  0
  5 11  2  0
 11 12  1  0
 11 13  1  0
 13 14  1  0
 13 15  2  0
 15 16  1  0
 16 17  1  0
 17 18  2  0
 17 19  1  0
 19 20  1  0
 19 21  2  0
 21 22  1  0
 22 23  1  0
 23 24  1  0
 23 25  1  0
 23 26  1  0
 22 27  1  0
 27 28  1  0
 27 29  1  0
 27 30  1  0
 30 31  1  0
 30 32  1  0
 30 33  1  0
 33 34  1  0
 33 35  1  0
 15  2  1  0
 33 21  1  0
M  CHG  2  16  -1  19   1
M  END
>  <UniqueID>  (13) 
13

>  <SMILES>  (13) 
COc1ccc([N-]C(=O)/[NH+]=C2\CCCN2C)cc1

>  <Energy>  (13) 
44.25928666064621

>  <Genealogy>  (13) 
COc1ccc([N-]C(=O)[NH+]=C2CCCN2C)cc1 (protonated)
COc1ccc([N-]C(=O)/[NH+]=C2\CCCN2C)cc1 (cis-trans isomerization)
COc1ccc([N-]C(=O)/[NH+]=C2\CCCN2C)cc1 (3D coordinates assigned)
COc1ccc([N-]C(=O)/[NH+]=C2\CCCN2C)cc1 (nonaromatic ring conformer: 44.25928666064621 kcal/mol)

>  <smiles>  (13) 
COc1ccc(NC(=O)N=C2CCCN2C)cc1

>  <score_type>  (13) 
oracle

>  <origin>  (13) 
adg

>  <m_score__min__energy>  (13) 
-6.6100000000000003

>  <m_primary>  (13) 
energy

$$$$
13:0
     RDKit          3D

 40 42  0  0  1  0  0  0  0  0999 V2000
   60.4080   29.4310   48.2590 C   0  0  0  0  0  0  0  0  0  0  0  0
   59.6860   30.4450   47.4620 C   0  0  0  0  0  0  0  0  0  0  0  0
   58.8240   30.0120   46.4790 C   0  0  0  0  0  0  0  0  0  0  0  0
   58.0920   30.8260   45.6680 C   0  0  0  0  0  0  0  0  0  0  0  0
   57.1840   30.3590   44.6320 C   0  0  0  0  0  0  0  0  0  0  0  0
   55.8740   30.1460   44.7590 N   0  0  0  0  0  0  0  0  0  0  0  0
   55.3490   29.7140   43.5910 C   0  0  0  0  0  0  0  0  0  0  0  0
   56.4390   29.6760   42.7210 C   0  0  0  0  0  0  0  0  0  0  0  0
   57.5440   30.0690   43.3680 N   0  0  0  0  0  0  0  0  0  0  0  0
   58.2470   32.2000   45.8690 C   0  0  0  0  0  0  0  0  0  0  0  0
   59.0990   32.6090   46.8410 C   0  0  0  0  0  0  0  0  0  0  0  0
   59.5140   34.3640   47.3440 S   0  0  0  0  0  0  0  0  0  0  0  0
   60.6650   33.7310   48.6340 C   0  0  0  0  0  0  0  0  0  0  0  0
   61.3350   34.5050   49.4060 N   0  0  0  0  0  0  0  0  0  0  0  0
   62.7720   34.5730   49.2310 C   0  0  0  0  0  0  0  0  0  0  0  0
   63.3940   33.2070   49.0800 C   0  0  0  0  0  0  0  0  0  0  0  0
   63.8330   32.9350   47.7460 N   0  0  0  0  0  0  0  0  0  0  0  0
   63.3890   31.6040   47.3810 C   0  0  0  0  0  0  0  0  0  0  0  0
   63.3960   33.8930   46.7750 C   0  0  0  0  0  0  0  0  0  0  0  0
   60.6190   32.4310   48.5580 N   0  0  0  0  0  0  0  0  0  0  0  0
   59.8550   31.8300   47.6810 C   0  0  0  0  0  0  0  0  0  0  0  0
   60.2627   29.6350   49.3301 H   0  0  0  0  0  0  0  0  0  0  0  0
   60.0177   28.4307   48.0200 H   0  0  0  0  0  0  0  0  0  0  0  0
   61.4809   29.4726   48.0200 H   0  0  0  0  0  0  0  0  0  0  0  0
   58.7185   28.9262   46.3379 H   0  0  0  0  0  0  0  0  0  0  0  0
   54.3025   29.4524   43.3757 H   0  0  0  0  0  0  0  0  0  0  0  0
   56.3973   29.3701   41.6652 H   0  0  0  0  0  0  0  0  0  0  0  0
   58.5160   30.1490   42.9930 H   0  0  0  0  0  0  0  0  0  0  0  0
   57.6943   32.9280   45.2570 H   0  0  0  0  0  0  0  0  0  0  0  0
   62.9913   35.1635   48.3292 H   0  0  0  0  0  0  0  0  0  0  0  0
   63.1995   35.0407   50.1302 H   0  0  0  0  0  0  0  0  0  0  0  0
   64.2606   33.1404   49.7542 H   0  0  0  0  0  0  0  0  0  0  0  0
   62.6209   32.4651   49.3287 H   0  0  0  0  0  0  0  0  0  0  0  0
   63.1941   31.0197   48.2924 H   0  0  0  0  0  0  0  0  0  0  0  0
   62.4660   31.6754   46.7868 H   0  0  0  0  0  0  0  0  0  0  0  0
   64.1700   31.1070   46.7868 H   0  0  0  0  0  0  0  0  0  0  0  0
   62.9923   34.7779   47.2888 H   0  0  0  0  0  0  0  0  0  0  0  0
   64.2472   34.1912   46.1452 H   0  0  0  0  0  0  0  0  0  0  0  0
   62.6129   33.4457   46.1452 H   0  0  0  0  0  0  0  0  0  0  0  0
   61.2390   31.8510   49.2470 H   0  0  0  0  0  0  0  0  0  0  0  0
  1  2  1  0
  2  3  2  0
  3  4  1  0
  4  5  1  0
  5  6  2  0
  6  7  1  0
  7  8  2  0
  8  9  1  0
  4 10  2  0
 10 11  1  0
 11 12  1  0
 12 13  1  0
 13 14  2  0
 14 15  1  0
 15 16  1  0
 16 17  1  0
 17 18  1  0
 17 19  1  0
 13 20  1  0
 20 21  1  0
 21  2  1  0
  9  5  1  0
 21 11  2  0
  1 22  1  0
  1 23  1  0
  1 24  1  0
  3 25  1  0
  7 26  1  0
  8 27  1  0
  9 28  1  0
 10 29  1  0
 15 30  1  0
 15 31  1  0
 16 32  1  0
 16 33  1  0
 18 34  1  0
 18 35  1  0
 18 36  1  0
 19 37  1  0
 19 38  1  0
 19 39  1  0
 20 40  1  0
M  END
>  <smiles>  (14) 
Cc1cc(-c2ncc[nH]2)cc2sc(=NCCN(C)C)[nH]c12

>  <score_type>  (14) 
oracle

>  <origin>  (14) 
adg

>  <m_score__min__energy>  (14) 
-7.0899999999999999

>  <m_primary>  (14) 
energy

$$$$
14:0
     RDKit          3D

 30 31  0  0  0  0  0  0  0  0999 V2000
   56.0280   30.0210   44.0450 C   0  0  0  0  0  0  0  0  0  0  0  0
   57.1940   29.2490   44.5890 C   0  0  0  0  0  0  0  0  0  0  0  0
   58.5030   29.7120   44.3880 C   0  0  0  0  0  0  0  0  0  0  0  0
   59.5900   28.9770   44.8670 C   0  0  0  0  0  0  0  0  0  0  0  0
   59.3800   27.7700   45.5380 C   0  0  0  0  0  0  0  0  0  0  0  0
   58.0780   27.2800   45.7210 C   0  0  0  0  0  0  0  0  0  0  0  0
   57.8570   25.9900   46.4650 C   0  0  0  0  0  0  0  0  0  0  0  0
   57.2950   24.9770   45.5640 N   0  0  0  0  0  0  0  0  0  0  0  0
   58.1370   24.1420   44.9510 N   0  0  0  0  0  0  0  0  0  0  0  0
   57.6920   23.1590   44.1380 C   0  0  0  0  0  0  0  0  0  0  0  0
   56.3250   23.0140   43.9370 C   0  0  0  0  0  0  0  0  0  0  0  0
   55.9070   22.0830   43.1940 O   0  0  0  0  0  0  0  0  0  0  0  0
   55.4530   23.8760   44.5470 N   0  0  0  0  0  0  0  0  0  0  0  0
   54.0000   23.7110   44.3710 C   0  0  0  0  0  0  0  0  0  0  0  0
   55.9430   24.8460   45.3860 C   0  0  0  0  0  0  0  0  0  0  0  0
   55.1480   25.6140   45.9980 O   0  0  0  0  0  0  0  0  0  0  0  0
   56.9870   28.0260   45.2460 C   0  0  0  0  0  0  0  0  0  0  0  0
   55.4296   30.4172   44.8786 H   0  0  0  0  0  0  0  0  0  0  0  0
   56.3957   30.8547   43.4288 H   0  0  0  0  0  0  0  0  0  0  0  0
   55.4040   29.3570   43.4288 H   0  0  0  0  0  0  0  0  0  0  0  0
   58.6739   30.6569   43.8514 H   0  0  0  0  0  0  0  0  0  0  0  0
   60.6138   29.3496   44.7154 H   0  0  0  0  0  0  0  0  0  0  0  0
   60.2387   27.2014   45.9244 H   0  0  0  0  0  0  0  0  0  0  0  0
   58.8175   25.6303   46.8626 H   0  0  0  0  0  0  0  0  0  0  0  0
   57.1524   26.1673   47.2909 H   0  0  0  0  0  0  0  0  0  0  0  0
   58.4029   22.4821   43.6416 H   0  0  0  0  0  0  0  0  0  0  0  0
   53.5152   23.6559   45.3568 H   0  0  0  0  0  0  0  0  0  0  0  0
   53.5985   24.5693   43.8124 H   0  0  0  0  0  0  0  0  0  0  0  0
   53.8012   22.7845   43.8124 H   0  0  0  0  0  0  0  0  0  0  0  0
   55.9635   27.6494   45.3898 H   0  0  0  0  0  0  0  0  0  0  0  0
  1  2  1  0
  2  3  2  0
  3  4  1  0
  4  5  2  0
  5  6  1  0
  6  7  1  0
  7  8  1  0
  8  9  1  0
  9 10  2  0
 10 11  1  0
 11 12  2  0
 11 13  1  0
 13 14  1  0
 13 15  1  0
 15 16  2  0
  6 17  2  0
 17  2  1  0
 15  8  1  0
  1 18  1  0
  1 19  1  0
  1 20  1  0
  3 21  1  0
  4 22  1  0
  5 23  1  0
  7 24  1  0
  7 25  1  0
 10 26  1  0
 14 27  1  0
 14 28  1  0
 14 29  1  0
 17 30  1  0
M  END
>  <UniqueID>  (15) 
14

>  <SMILES>  (15) 
Cc1cccc(Cn2ncc(=O)n(C)c2=O)c1

>  <Energy>  (15) 
34.037113415331056

>  <Genealogy>  (15) 
Cc1cccc(Cn2ncc(=O)n(C)c2=O)c1 (3D coordinates assigned)
Cc1cccc(Cn2ncc(=O)n(C)c2=O)c1 (optimized conformer: 34.037113415331056 kcal/mol)

>  <smiles>  (15) 
Cc1cccc(Cn2ncc(=O)n(C)c2=O)c1

>  <score_type>  (15) 
oracle

>  <origin>  (15) 
adg

>  <m_score__min__energy>  (15) 
-6.0700000000000003

>  <m_primary>  (15) 
energy

$$$$
15:0
     RDKit          3D

 23 24  0  0  0  0  0  0  0  0999 V2000
   56.0200   31.0580   44.7380 O   0  0  0  0  0  0  0  0  0  0  0  0
   57.4220   31.3360   44.2750 S   0  0  0  0  0  0  0  0  0  0  0  0
   57.3910   31.7320   42.8250 O   0  0  0  0  0  0  0  0  0  0  0  0
   58.3790   29.9020   44.4520 N   0  0  0  0  0  0  0  0  0  0  0  0
   57.9880   28.7320   45.1850 C   0  0  0  0  0  0  0  0  0  0  0  0
   58.9710   28.0180   45.8810 C   0  0  0  0  0  0  0  0  0  0  0  0
   58.6320   26.8770   46.6140 C   0  0  0  0  0  0  0  0  0  0  0  0
   57.3060   26.4390   46.6550 C   0  0  0  0  0  0  0  0  0  0  0  0
   56.3170   27.1420   45.9630 C   0  0  0  0  0  0  0  0  0  0  0  0
   54.9980   26.7060   46.0030 O   0  0  0  0  0  0  0  0  0  0  0  0
   56.6540   28.2850   45.2280 C   0  0  0  0  0  0  0  0  0  0  0  0
   58.1250   32.6430   45.2070 C   0  0  0  0  0  0  0  0  0  0  0  0
   58.7490   33.7670   44.6880 C   0  0  0  0  0  0  0  0  0  0  0  0
   59.1980   34.6480   45.6800 C   0  0  0  0  0  0  0  0  0  0  0  0
   58.9260   34.2160   46.9730 C   0  0  0  0  0  0  0  0  0  0  0  0
   58.1270   32.7370   46.8840 S   0  0  0  0  0  0  0  0  0  0  0  0
   60.0170   28.3572   45.8508 H   0  0  0  0  0  0  0  0  0  0  0  0
   59.4104   26.3232   47.1593 H   0  0  0  0  0  0  0  0  0  0  0  0
   57.0409   25.5408   47.2320 H   0  0  0  0  0  0  0  0  0  0  0  0
   55.8736   28.8356   44.6823 H   0  0  0  0  0  0  0  0  0  0  0  0
   58.8779   33.9479   43.6107 H   0  0  0  0  0  0  0  0  0  0  0  0
   59.7166   35.5921   45.4571 H   0  0  0  0  0  0  0  0  0  0  0  0
   59.1885   34.7503   47.8980 H   0  0  0  0  0  0  0  0  0  0  0  0
  1  2  2  0
  2  3  2  0
  2  4  1  0
  4  5  1  0
  5  6  2  0
  6  7  1  0
  7  8  2  0
  8  9  1  0
  9 10  1  0
  9 11  2  0
  2 12  1  0
 12 13  2  0
 13 14  1  0
 14 15  2  0
 15 16  1  0
 11  5  1  0
 16 12  1  0
  6 17  1  0
  7 18  1  0
  8 19  1  0
 11 20  1  0
 13 21  1  0
 14 22  1  0
 15 23  1  0
M  CHG  2   4  -1  10  -1
M  END
>  <UniqueID>  (16) 
15

>  <SMILES>  (16) 
O=S(=O)([N-]c1cccc([O-])c1)c1cccs1

>  <Energy>  (16) 
52.73453448736299

>  <Genealogy>  (16) 
O=S(=O)([N-]c1cccc([O-])c1)c1cccs1 (protonated)
O=S(=O)([N-]c1cccc([O-])c1)c1cccs1 (3D coordinates assigned)
O=S(=O)([N-]c1cccc([O-])c1)c1cccs1 (optimized conformer: 52.73453448736299 kcal/mol)

>  <smiles>  (16) 
O=S(=O)(Nc1cccc(O)c1)c1cccs1

>  <score_type>  (16) 
oracle

>  <origin>  (16) 
adg

>  <m_score__min__energy>  (16) 
-11.73

>  <m_primary>  (16) 
energy

$$$$
16:0
     RDKit          3D

 30 31  0  0  0  0  0  0  0  0999 V2000
   57.9420   34.2280   44.9710 C   0  0  0  0  0  0  0  0  0  0  0  0
   58.9610   34.5840   45.8550 C   0  0  0  0  0  0  0  0  0  0  0  0
   59.2670   33.7520   46.9320 C   0  0  0  0  0  0  0  0  0  0  0  0
   58.5400   32.5670   47.1180 C   0  0  0  0  0  0  0  0  0  0  0  0
   58.8800   31.6390   48.2550 C   0  0  0  0  0  0  0  0  0  0  0  0
   59.3210   30.2650   47.7430 C   0  0  0  0  0  0  0  0  0  0  0  0
   58.1900   29.5500   47.1210 N   0  0  0  0  0  0  0  0  0  0  0  0
   58.4960   29.0770   45.7630 C   0  0  0  0  0  0  0  0  0  0  0  0
   57.4010   29.4470   44.8140 C   0  0  0  0  0  0  0  0  0  0  0  0
   57.3720   29.1670   43.4630 C   0  0  0  0  0  0  0  0  0  0  0  0
   56.1710   29.6670   43.0080 C   0  0  0  0  0  0  0  0  0  0  0  0
   55.5440   30.2200   44.1070 C   0  0  0  0  0  0  0  0  0  0  0  0
   56.3020   30.0730   45.1690 O   0  0  0  0  0  0  0  0  0  0  0  0
   57.5530   32.2350   46.2320 N   0  0  0  0  0  0  0  0  0  0  0  0
   57.2440   33.0380   45.1770 C   0  0  0  0  0  0  0  0  0  0  0  0
   57.6916   34.8790   44.1204 H   0  0  0  0  0  0  0  0  0  0  0  0
   59.5215   35.5182   45.7031 H   0  0  0  0  0  0  0  0  0  0  0  0
   60.0725   34.0232   47.6303 H   0  0  0  0  0  0  0  0  0  0  0  0
   59.6971   32.0802   48.8447 H   0  0  0  0  0  0  0  0  0  0  0  0
   57.9800   31.5052   48.8732 H   0  0  0  0  0  0  0  0  0  0  0  0
   60.1184   30.3971   46.9969 H   0  0  0  0  0  0  0  0  0  0  0  0
   59.6875   29.6725   48.5942 H   0  0  0  0  0  0  0  0  0  0  0  0
   57.3900   30.2190   47.0400 H   0  0  0  0  0  0  0  0  0  0  0  0
   59.4370   29.5353   45.4247 H   0  0  0  0  0  0  0  0  0  0  0  0
   58.5903   27.9812   45.7835 H   0  0  0  0  0  0  0  0  0  0  0  0
   58.1451   28.6528   42.8732 H   0  0  0  0  0  0  0  0  0  0  0  0
   55.7889   29.6325   41.9771 H   0  0  0  0  0  0  0  0  0  0  0  0
   54.5590   30.7094   44.0946 H   0  0  0  0  0  0  0  0  0  0  0  0
   57.0180   31.3460   46.3570 H   0  0  0  0  0  0  0  0  0  0  0  0
   56.4406   32.7472   44.4842 H   0  0  0  0  0  0  0  0  0  0  0  0
  1  2  2  0
  2  3  1  0
  3  4  2  0
  4  5  1  0
  5  6  1  0
  6  7  1  0
  7  8  1  0
  8  9  1  0
  9 10  2  0
 10 11  1  0
 11 12  2  0
 12 13  1  0
  4 14  1  0
 14 15  2  0
 15  1  1  0
 13  9  1  0
  1 16  1  0
  2 17  1  0
  3 18  1  0
  5 19  1  0
  5 20  1  0
  6 21  1  0
  6 22  1  0
  7 23  1  0
  8 24  1  0
  8 25  1  0
 10 26  1  0
 11 27  1  0
 12 28  1  0
 14 29  1  0
 15 30  1  0
M  CHG  1  14   1
M  END
>  <UniqueID>  (17) 
16

>  <SMILES>  (17) 
c1ccc(CCNCc2ccco2)[nH+]c1

>  <Energy>  (17) 
52.44972820841635

>  <Genealogy>  (17) 
c1ccc(CCNCc2ccco2)[nH+]c1 (protonated)
c1ccc(CCNCc2ccco2)[nH+]c1 (3D coordinates assigned)
c1ccc(CCNCc2ccco2)[nH+]c1 (optimized conformer: 52.44972820841635 kcal/mol)

>  <smiles>  (17) 
c1ccc(CCNCc2ccco2)nc1

>  <score_type>  (17) 
oracle

>  <origin>  (17) 
adg

>  <m_score__min__energy>  (17) 
-5

>  <m_primary>  (17) 
energy

$$$$
17:0
     RDKit          3D

 42 45  0  0  0  0  0  0  0  0999 V2000
   59.1220   33.2930   48.4950 C   0  0  0  0  0  0  0  0  0  0  0  0
   58.8050   31.8960   49.0240 C   0  0  0  0  0  0  0  0  0  0  0  0
   59.0170   31.8270   50.4750 N   0  0  0  0  0  0  0  0  0  0  0  0
   60.1310   32.1410   51.2000 C   0  0  0  0  0  0  0  0  0  0  0  0
   61.4220   32.5920   50.6440 C   0  0  0  0  0  0  0  0  0  0  0  0
   62.1290   31.8390   49.6990 C   0  0  0  0  0  0  0  0  0  0  0  0
   63.3590   32.3040   49.2400 C   0  0  0  0  0  0  0  0  0  0  0  0
   63.8650   33.5000   49.7420 C   0  0  0  0  0  0  0  0  0  0  0  0
   63.1570   34.1860   50.6780 N   0  0  0  0  0  0  0  0  0  0  0  0
   61.9770   33.7410   51.1170 N   0  0  0  0  0  0  0  0  0  0  0  0
   59.9310   32.0740   52.5430 N   0  0  0  0  0  0  0  0  0  0  0  0
   58.6480   31.6870   52.6450 C   0  0  0  0  0  0  0  0  0  0  0  0
   57.9180   31.4820   53.8120 C   0  0  0  0  0  0  0  0  0  0  0  0
   56.5650   31.1170   53.6840 C   0  0  0  0  0  0  0  0  0  0  0  0
   55.9720   30.9710   52.4030 C   0  0  0  0  0  0  0  0  0  0  0  0
   54.5800   30.6140   52.2860 N   0  0  0  0  0  0  0  0  0  0  0  0
   53.6920   31.5570   51.8420 C   0  0  0  0  0  0  0  0  0  0  0  0
   52.3270   31.2550   51.7020 C   0  0  0  0  0  0  0  0  0  0  0  0
   51.3750   32.2780   51.2180 C   0  0  0  0  0  0  0  0  0  0  0  0
   50.8760   33.1160   52.0140 O   0  0  0  0  0  0  0  0  0  0  0  0
   51.0170   32.3300   49.8750 O   0  0  0  0  0  0  0  0  0  0  0  0
   51.8910   29.9640   52.0270 C   0  0  0  0  0  0  0  0  0  0  0  0
   52.8010   29.0130   52.4820 C   0  0  0  0  0  0  0  0  0  0  0  0
   54.1490   29.3520   52.6130 C   0  0  0  0  0  0  0  0  0  0  0  0
   54.9570   28.4860   53.0480 O   0  0  0  0  0  0  0  0  0  0  0  0
   56.7480   31.2000   51.2440 C   0  0  0  0  0  0  0  0  0  0  0  0
   58.0910   31.5430   51.4090 C   0  0  0  0  0  0  0  0  0  0  0  0
   59.2776   33.9788   49.3409 H   0  0  0  0  0  0  0  0  0  0  0  0
   60.0342   33.2545   47.8815 H   0  0  0  0  0  0  0  0  0  0  0  0
   58.2825   33.6520   47.8815 H   0  0  0  0  0  0  0  0  0  0  0  0
   57.7549   31.6558   48.8012 H   0  0  0  0  0  0  0  0  0  0  0  0
   59.4753   31.1736   48.5352 H   0  0  0  0  0  0  0  0  0  0  0  0
   61.7176   30.8906   49.3232 H   0  0  0  0  0  0  0  0  0  0  0  0
   63.9244   31.7326   48.4891 H   0  0  0  0  0  0  0  0  0  0  0  0
   64.8304   33.8869   49.3839 H   0  0  0  0  0  0  0  0  0  0  0  0
   63.5410   35.0760   51.0640 H   0  0  0  0  0  0  0  0  0  0  0  0
   58.3832   31.6013   54.8016 H   0  0  0  0  0  0  0  0  0  0  0  0
   55.9606   30.9430   54.5865 H   0  0  0  0  0  0  0  0  0  0  0  0
   54.0525   32.5656   51.5913 H   0  0  0  0  0  0  0  0  0  0  0  0
   50.8280   29.7010   51.9226 H   0  0  0  0  0  0  0  0  0  0  0  0
   52.4591   27.9991   52.7371 H   0  0  0  0  0  0  0  0  0  0  0  0
   56.3062   31.1105   50.2406 H   0  0  0  0  0  0  0  0  0  0  0  0
  1  2  1  0
  2  3  1  0
  3  4  1  0
  4  5  1  0
  5  6  2  0
  6  7  1  0
  7  8  2  0
  8  9  1  0
  9 10  2  0
  4 11  2  0
 11 12  1  0
 12 13  2  0
 13 14  1  0
 14 15  2  0
 15 16  1  0
 16 17  1  0
 17 18  2  0
 18 19  1  0
 19 20  2  0
 19 21  1  0
 18 22  1  0
 22 23  2  0
 23 24  1  0
 24 25  2  0
 15 26  1  0
 26 27  2  0
 27  3  1  0
 10  5  1  0
 27 12  1  0
 24 16  1  0
  1 28  1  0
  1 29  1  0
  1 30  1  0
  2 31  1  0
  2 32  1  0
  6 33  1  0
  7 34  1  0
  8 35  1  0
  9 36  1  0
 13 37  1  0
 14 38  1  0
 17 39  1  0
 22 40  1  0
 23 41  1  0
 26 42  1  0
M  CHG  2   9   1  21  -1
M  END
>  <UniqueID>  (18) 
17

>  <SMILES>  (18) 
CCn1c(-c2ccc[nH+]n2)nc2ccc(-n3cc(C(=O)[O-])ccc3=O)cc21

>  <Energy>  (18) 
95.8981216188113

>  <Genealogy>  (18) 
CCn1c(-c2ccc[nH+]n2)nc2ccc(-n3cc(C(=O)[O-])ccc3=O)cc21 (protonated)
CCn1c(-c2ccc[nH+]n2)nc2ccc(-n3cc(C(=O)[O-])ccc3=O)cc21 (3D coordinates assigned)
CCn1c(-c2ccc[nH+]n2)nc2ccc(-n3cc(C(=O)[O-])ccc3=O)cc21 (optimized conformer: 95.8981216188113 kcal/mol)

>  <smiles>  (18) 
CCn1c(-c2cccnn2)nc2ccc(-n3cc(C(=O)O)ccc3=O)cc21

>  <score_type>  (18) 
oracle

>  <origin>  (18) 
adg

>  <m_score__min__energy>  (18) 
-9.4700000000000006

>  <m_primary>  (18) 
energy

$$$$
18:0
     RDKit          3D

 47 49  0  0  0  0  0  0  0  0999 V2000
   56.2676   29.3640   44.7339 H   0  0  0  0  0  0  0  0  0  0  0  0
   56.6830   28.5240   45.3100 C   0  0  0  0  0  0  0  0  0  0  0  0
   55.8950   27.4620   45.6210 N   0  0  0  0  0  0  0  0  0  0  0  0
   56.3580   26.3930   46.3250 C   0  0  0  0  0  0  0  0  0  0  0  0
   55.5370   25.4140   46.5830 N   0  0  0  0  0  0  0  0  0  0  0  0
   54.6630   24.7470   45.6220 C   0  0  0  0  0  0  0  0  0  0  0  0
   53.9010   24.1654   46.1615 H   0  0  0  0  0  0  0  0  0  0  0  0
   54.1699   25.5005   44.9903 H   0  0  0  0  0  0  0  0  0  0  0  0
   55.2597   24.0726   44.9903 H   0  0  0  0  0  0  0  0  0  0  0  0
   57.7040   26.3800   46.7450 C   0  0  0  0  0  0  0  0  0  0  0  0
   58.0996   25.5251   47.3130 H   0  0  0  0  0  0  0  0  0  0  0  0
   58.5300   27.4610   46.4340 C   0  0  0  0  0  0  0  0  0  0  0  0
   59.5834   27.4546   46.7509 H   0  0  0  0  0  0  0  0  0  0  0  0
   58.0230   28.5540   45.7200 C   0  0  0  0  0  0  0  0  0  0  0  0
   58.9160   29.7090   45.3520 C   0  0  0  0  0  0  0  0  0  0  0  0
   59.8917   29.5759   45.8422 H   0  0  0  0  0  0  0  0  0  0  0  0
   59.0245   29.7243   44.2575 H   0  0  0  0  0  0  0  0  0  0  0  0
   58.3260   31.0290   45.7860 C   0  0  0  0  0  0  0  0  0  0  0  0
   57.1260   31.2880   45.4940 O   0  0  0  0  0  0  0  0  0  0  0  0
   59.0850   31.9700   46.5780 N   0  0  0  0  0  0  0  0  0  0  0  0
   60.5460   32.0780   46.3870 C   0  0  0  0  0  0  0  0  0  0  0  0
   60.7379   32.6514   45.4681 H   0  0  0  0  0  0  0  0  0  0  0  0
   60.9461   31.0553   46.3239 H   0  0  0  0  0  0  0  0  0  0  0  0
   61.2420   32.7650   47.5370 C   0  0  0  0  0  0  0  0  0  0  0  0
   62.6000   32.5180   47.7850 C   0  0  0  0  0  0  0  0  0  0  0  0
   63.1435   31.7900   47.1649 H   0  0  0  0  0  0  0  0  0  0  0  0
   63.2740   33.1930   48.8200 C   0  0  0  0  0  0  0  0  0  0  0  0
   64.6310   32.9610   49.1010 O   0  0  0  0  0  0  0  0  0  0  0  0
   65.1090   31.9910   50.0300 C   0  0  0  0  0  0  0  0  0  0  0  0
   64.9332   32.3477   51.0556 H   0  0  0  0  0  0  0  0  0  0  0  0
   64.5757   31.0414   49.8756 H   0  0  0  0  0  0  0  0  0  0  0  0
   66.1869   31.8354   49.8756 H   0  0  0  0  0  0  0  0  0  0  0  0
   62.5840   34.1350   49.6000 C   0  0  0  0  0  0  0  0  0  0  0  0
   63.2850   34.7910   50.6240 O   0  0  0  0  0  0  0  0  0  0  0  0
   63.5870   34.2170   51.8920 C   0  0  0  0  0  0  0  0  0  0  0  0
   63.2348   34.8863   52.6907 H   0  0  0  0  0  0  0  0  0  0  0  0
   63.0849   33.2425   51.9823 H   0  0  0  0  0  0  0  0  0  0  0  0
   64.6746   34.0789   51.9823 H   0  0  0  0  0  0  0  0  0  0  0  0
   61.2260   34.3950   49.3370 C   0  0  0  0  0  0  0  0  0  0  0  0
   60.6867   35.1424   49.9375 H   0  0  0  0  0  0  0  0  0  0  0  0
   60.5560   33.7080   48.3150 C   0  0  0  0  0  0  0  0  0  0  0  0
   59.1210   34.0050   48.0050 C   0  0  0  0  0  0  0  0  0  0  0  0
   59.0688   34.7057   47.1587 H   0  0  0  0  0  0  0  0  0  0  0  0
   58.6459   34.4526   48.8904 H   0  0  0  0  0  0  0  0  0  0  0  0
   58.3860   32.7150   47.6400 C   0  0  0  0  0  0  0  0  0  0  0  0
   57.3741   32.9681   47.2908 H   0  0  0  0  0  0  0  0  0  0  0  0
   58.3466   32.0781   48.5360 H   0  0  0  0  0  0  0  0  0  0  0  0
  1  2  1  0
  2  3  1  0
  3  4  1  0
  4  5  2  0
  5  6  1  0
  6  7  1  0
  6  8  1  0
  6  9  1  0
  4 10  1  0
 10 11  1  0
 10 12  2  0
 12 13  1  0
 12 14  1  0
 14 15  1  0
 15 16  1  0
 15 17  1  0
 15 18  1  0
 18 19  2  0
 18 20  1  0
 20 21  1  0
 21 22  1  0
 21 23  1  0
 21 24  1  0
 24 25  2  0
 25 26  1  0
 25 27  1  0
 27 28  1  0
 28 29  1  0
 29 30  1  0
 29 31  1  0
 29 32  1  0
 27 33  2  0
 33 34  1  0
 34 35  1  0
 35 36  1  0
 35 37  1  0
 35 38  1  0
 33 39  1  0
 39 40  1  0
 39 41  2  0
 41 42  1  0
 42 43  1  0
 42 44  1  0
 42 45  1  0
 45 46  1  0
 45 47  1  0
 14  2  2  0
 45 20  1  0
 41 24  1  0
M  CHG  1   3  -1
M  END
>  <UniqueID>  (19) 
18

>  <SMILES>  (19) 
C/N=c1\ccc(CC(=O)N2CCc3cc(OC)c(OC)cc3C2)c[n-]1

>  <Energy>  (19) 
51.44552112319918

>  <Genealogy>  (19) 
CN=c1ccc(CC(=O)N2CCc3cc(OC)c(OC)cc3C2)c[n-]1 (protonated)
C/N=c1\ccc(CC(=O)N2CCc3cc(OC)c(OC)cc3C2)c[n-]1 (cis-trans isomerization)
C/N=c1\ccc(CC(=O)N2CCc3cc(OC)c(OC)cc3C2)c[n-]1 (3D coordinates assigned)
C/N=c1\ccc(CC(=O)N2CCc3cc(OC)c(OC)cc3C2)c[n-]1 (nonaromatic ring conformer: 51.44552112319918 kcal/mol)

>  <smiles>  (19) 
CN=c1ccc(CC(=O)N2CCc3cc(OC)c(OC)cc3C2)c[nH]1

>  <score_type>  (19) 
oracle

>  <origin>  (19) 
adg

>  <m_score__min__energy>  (19) 
-9.3100000000000005

>  <m_primary>  (19) 
energy

$$$$
19:0
     RDKit          3D

 44 46  0  0  0  0  0  0  0  0999 V2000
   57.0340   31.1840   42.7760 C   0  0  0  0  0  0  0  0  0  0  0  0
   57.7910   31.0540   44.0420 N   0  0  0  0  0  0  0  0  0  0  0  0
   58.2190   29.8090   44.4660 C   0  0  0  0  0  0  0  0  0  0  0  0
   57.7280   28.6110   43.8820 C   0  0  0  0  0  0  0  0  0  0  0  0
   58.2130   27.3660   44.2770 C   0  0  0  0  0  0  0  0  0  0  0  0
   59.1870   27.2750   45.2650 C   0  0  0  0  0  0  0  0  0  0  0  0
   59.6540   28.4280   45.8900 C   0  0  0  0  0  0  0  0  0  0  0  0
   59.1590   29.6990   45.5260 C   0  0  0  0  0  0  0  0  0  0  0  0
   59.5670   30.8530   46.2150 C   0  0  0  0  0  0  0  0  0  0  0  0
   60.4470   30.7390   47.3490 N   0  0  0  0  0  0  0  0  0  0  0  0
   61.9010   30.8460   47.2150 C   0  0  0  0  0  0  0  0  0  0  0  0
   62.4670   31.8770   48.2070 C   0  0  0  0  0  0  0  0  0  0  0  0
   63.7010   32.5300   47.7040 N   0  0  0  0  0  0  0  0  0  0  0  0
   64.4720   33.0760   48.8350 C   0  0  0  0  0  0  0  0  0  0  0  0
   63.3920   33.6150   46.7510 C   0  0  0  0  0  0  0  0  0  0  0  0
   59.0530   32.1050   45.8360 C   0  0  0  0  0  0  0  0  0  0  0  0
   59.4720   33.2870   46.4840 C   0  0  0  0  0  0  0  0  0  0  0  0
   58.9020   34.5160   46.1610 C   0  0  0  0  0  0  0  0  0  0  0  0
   57.9070   34.5890   45.1950 C   0  0  0  0  0  0  0  0  0  0  0  0
   57.5100   33.4420   44.5090 C   0  0  0  0  0  0  0  0  0  0  0  0
   58.1090   32.1830   44.7760 C   0  0  0  0  0  0  0  0  0  0  0  0
   55.9727   31.3663   43.0005 H   0  0  0  0  0  0  0  0  0  0  0  0
   57.4355   32.0263   42.1935 H   0  0  0  0  0  0  0  0  0  0  0  0
   57.1315   30.2560   42.1935 H   0  0  0  0  0  0  0  0  0  0  0  0
   56.9517   28.6671   43.1047 H   0  0  0  0  0  0  0  0  0  0  0  0
   57.8238   26.4516   43.8054 H   0  0  0  0  0  0  0  0  0  0  0  0
   59.5885   26.2922   45.5528 H   0  0  0  0  0  0  0  0  0  0  0  0
   60.4181   28.3477   46.6772 H   0  0  0  0  0  0  0  0  0  0  0  0
   60.0290   30.6590   48.3040 H   0  0  0  0  0  0  0  0  0  0  0  0
   62.3549   29.8645   47.4168 H   0  0  0  0  0  0  0  0  0  0  0  0
   62.1375   31.1744   46.1921 H   0  0  0  0  0  0  0  0  0  0  0  0
   61.7056   32.6507   48.3848 H   0  0  0  0  0  0  0  0  0  0  0  0
   62.7246   31.3434   49.1338 H   0  0  0  0  0  0  0  0  0  0  0  0
   64.3010   31.8210   47.2220 H   0  0  0  0  0  0  0  0  0  0  0  0
   64.0143   32.7519   49.7813 H   0  0  0  0  0  0  0  0  0  0  0  0
   65.5077   32.7089   48.7840 H   0  0  0  0  0  0  0  0  0  0  0  0
   64.4695   34.1748   48.7840 H   0  0  0  0  0  0  0  0  0  0  0  0
   63.1320   34.5280   47.3066 H   0  0  0  0  0  0  0  0  0  0  0  0
   64.2707   33.8086   46.1183 H   0  0  0  0  0  0  0  0  0  0  0  0
   62.5431   33.3166   46.1183 H   0  0  0  0  0  0  0  0  0  0  0  0
   60.2574   33.2368   47.2526 H   0  0  0  0  0  0  0  0  0  0  0  0
   59.2403   35.4297   46.6715 H   0  0  0  0  0  0  0  0  0  0  0  0
   57.4306   35.5547   44.9704 H   0  0  0  0  0  0  0  0  0  0  0  0
   56.7191   33.5138   43.7479 H   0  0  0  0  0  0  0  0  0  0  0  0
  1  2  1  0
  2  3  2  0
  3  4  1  0
  4  5  2  0
  5  6  1  0
  6  7  2  0
  7  8  1  0
  8  9  2  0
  9 10  1  0
 10 11  1  0
 11 12  1  0
 12 13  1  0
 13 14  1  0
 13 15  1  0
  9 16  1  0
 16 17  2  0
 17 18  1  0
 18 19  2  0
 19 20  1  0
 20 21  2  0
 21  2  1  0
  8  3  1  0
 21 16  1  0
  1 22  1  0
  1 23  1  0
  1 24  1  0
  4 25  1  0
  5 26  1  0
  6 27  1  0
  7 28  1  0
 10 29  1  0
 11 30  1  0
 11 31  1  0
 12 32  1  0
 12 33  1  0
 13 34  1  0
 14 35  1  0
 14 36  1  0
 14 37  1  0
 15 38  1  0
 15 39  1  0
 15 40  1  0
 17 41  1  0
 18 42  1  0
 19 43  1  0
 20 44  1  0
M  CHG  2   2   1  13   1
M  END
>  <UniqueID>  (20) 
19

>  <SMILES>  (20) 
C[n+]1c2ccccc2c(NCC[NH+](C)C)c2ccccc21

>  <Energy>  (20) 
71.45288838973596

>  <Genealogy>  (20) 
C[n+]1c2ccccc2c(NCC[NH+](C)C)c2ccccc21 (protonated)
C[n+]1c2ccccc2c(NCC[NH+](C)C)c2ccccc21 (3D coordinates assigned)
C[n+]1c2ccccc2c(NCC[NH+](C)C)c2ccccc21 (optimized conformer: 71.45288838973596 kcal/mol)

>  <smiles>  (20) 
CN(C)CCNc1c2ccccc2[n+](C)c2ccccc12

>  <score_type>  (20) 
oracle

>  <origin>  (20) 
adg

>  <m_score__min__energy>  (20) 
-4.2999999999999998

>  <m_primary>  (20) 
energy

$$$$
20:0
     RDKit          3D

 50 53  0  0  0  0  0  0  0  0999 V2000
   60.2720   28.3720   48.6690 C   0  0  0  0  0  0  0  0  0  0  0  0
   59.4330   29.4170   47.9440 C   0  0  0  0  0  0  0  0  0  0  0  0
   59.5910   29.2850   46.4950 N   0  0  0  0  0  0  0  0  0  0  0  0
   60.4350   28.4440   45.8650 C   0  0  0  0  0  0  0  0  0  0  0  0
   60.2380   28.5640   44.5070 C   0  0  0  0  0  0  0  0  0  0  0  0
   59.2680   29.4720   44.2890 N   0  0  0  0  0  0  0  0  0  0  0  0
   58.8900   29.8970   45.5110 C   0  0  0  0  0  0  0  0  0  0  0  0
   57.7930   30.9030   45.7290 C   0  0  0  0  0  0  0  0  0  0  0  0
   58.1980   32.2410   45.2560 N   0  0  0  0  0  0  0  0  0  0  0  0
   57.0240   33.0770   44.9360 C   0  0  0  0  0  0  0  0  0  0  0  0
   57.3760   34.5700   44.8710 C   0  0  0  0  0  0  0  0  0  0  0  0
   58.7440   34.7720   44.5690 O   0  0  0  0  0  0  0  0  0  0  0  0
   59.5950   34.2750   45.5960 C   0  0  1  0  0  0  0  0  0  0  0  0
   59.6670   35.2110   46.8100 C   0  0  0  0  0  0  0  0  0  0  0  0
   59.3470   34.4270   48.0160 N   0  0  0  0  0  0  0  0  0  0  0  0
   60.5120   34.1910   48.9070 C   0  0  0  0  0  0  0  0  0  0  0  0
   61.6370   33.3850   48.2810 C   0  0  0  0  0  0  0  0  0  0  0  0
   61.5880   31.9810   48.2760 C   0  0  0  0  0  0  0  0  0  0  0  0
   62.6200   31.2540   47.6810 C   0  0  0  0  0  0  0  0  0  0  0  0
   63.6750   31.9000   47.1210 N   0  0  0  0  0  0  0  0  0  0  0  0
   63.7640   33.2560   47.1280 C   0  0  0  0  0  0  0  0  0  0  0  0
   62.7550   34.0220   47.7170 C   0  0  0  0  0  0  0  0  0  0  0  0
   58.6790   33.1970   47.5650 C   0  0  0  0  0  0  0  0  0  0  0  0
   59.1790   32.9080   46.1450 C   0  0  1  0  0  0  0  0  0  0  0  0
   60.1650   28.5053   49.7556 H   0  0  0  0  0  0  0  0  0  0  0  0
   59.9280   27.3658   48.3874 H   0  0  0  0  0  0  0  0  0  0  0  0
   61.3287   28.4904   48.3874 H   0  0  0  0  0  0  0  0  0  0  0  0
   58.3741   29.2773   48.2070 H   0  0  0  0  0  0  0  0  0  0  0  0
   59.7702   30.4186   48.2491 H   0  0  0  0  0  0  0  0  0  0  0  0
   61.1589   27.7748   46.3529 H   0  0  0  0  0  0  0  0  0  0  0  0
   60.7832   28.0095   43.7290 H   0  0  0  0  0  0  0  0  0  0  0  0
   58.8830   29.7690   43.3660 H   0  0  0  0  0  0  0  0  0  0  0  0
   56.8969   30.5828   45.1771 H   0  0  0  0  0  0  0  0  0  0  0  0
   57.5823   30.9623   46.8070 H   0  0  0  0  0  0  0  0  0  0  0  0
   56.6221   32.7650   43.9608 H   0  0  0  0  0  0  0  0  0  0  0  0
   56.2827   32.9392   45.7370 H   0  0  0  0  0  0  0  0  0  0  0  0
   56.7644   35.0470   44.0910 H   0  0  0  0  0  0  0  0  0  0  0  0
   57.1730   35.0137   45.8569 H   0  0  0  0  0  0  0  0  0  0  0  0
   60.5683   34.1969   45.0895 H   0  0  0  0  0  0  0  0  0  0  0  0
   60.6800   35.6308   46.8968 H   0  0  0  0  0  0  0  0  0  0  0  0
   58.9519   36.0388   46.6943 H   0  0  0  0  0  0  0  0  0  0  0  0
   60.9170   35.1686   49.2076 H   0  0  0  0  0  0  0  0  0  0  0  0
   60.1393   33.5976   49.7550 H   0  0  0  0  0  0  0  0  0  0  0  0
   60.7393   31.4566   48.7394 H   0  0  0  0  0  0  0  0  0  0  0  0
   62.5787   30.1549   47.6656 H   0  0  0  0  0  0  0  0  0  0  0  0
   64.6322   33.7515   46.6690 H   0  0  0  0  0  0  0  0  0  0  0  0
   62.8355   35.1188   47.7391 H   0  0  0  0  0  0  0  0  0  0  0  0
   58.9357   32.3615   48.2329 H   0  0  0  0  0  0  0  0  0  0  0  0
   57.5857   33.3174   47.5785 H   0  0  0  0  0  0  0  0  0  0  0  0
   60.0035   32.1808   46.1819 H   0  0  0  0  0  0  0  0  0  0  0  0
  1  2  1  0
  2  3  1  0
  3  4  1  0
  4  5  2  0
  5  6  1  0
  6  7  2  0
  7  8  1  0
  8  9  1  0
  9 10  1  0
 10 11  1  0
 11 12  1  0
 12 13  1  0
 13 14  1  0
 14 15  1  0
 15 16  1  0
 16 17  1  0
 17 18  2  0
 18 19  1  0
 19 20  2  0
 20 21  1  0
 21 22  2  0
 15 23  1  0
 23 24  1  0
  7  3  1  0
 24  9  1  0
 24 13  1  0
 22 17  1  0
  1 25  1  0
  1 26  1  0
  1 27  1  0
  2 28  1  0
  2 29  1  0
  4 30  1  0
  5 31  1  0
  6 32  1  0
  8 33  1  0
  8 34  1  0
 10 35  1  0
 10 36  1  0
 11 37  1  0
 11 38  1  0
 13 39  1  6
 14 40  1  0
 14 41  1  0
 16 42  1  0
 16 43  1  0
 18 44  1  0
 19 45  1  0
 21 46  1  0
 22 47  1  0
 23 48  1  0
 23 49  1  0
 24 50  1  1
M  CHG  1   6   1
M  END
>  <UniqueID>  (21) 
20

>  <SMILES>  (21) 
CCn1cc[nH+]c1CN1CCO[C@H]2CN(Cc3ccncc3)C[C@H]21

>  <Energy>  (21) 
97.61372154807333

>  <Genealogy>  (21) 
CCn1cc[nH+]c1CN1CCOC2CN(Cc3ccncc3)CC21 (protonated)
CCn1cc[nH+]c1CN1CCO[C@H]2CN(Cc3ccncc3)C[C@H]21 (chirality)
CCn1cc[nH+]c1CN1CCO[C@H]2CN(Cc3ccncc3)C[C@H]21 (3D coordinates assigned)
CCn1cc[nH+]c1CN1CCO[C@H]2CN(Cc3ccncc3)C[C@H]21 (nonaromatic ring conformer: 97.61372154807333 kcal/mol)

>  <smiles>  (21) 
CCn1ccnc1CN1CCOC2CN(Cc3ccncc3)CC21

>  <score_type>  (21) 
oracle

>  <origin>  (21) 
adg

>  <m_score__min__energy>  (21) 
-5.5099999999999998

>  <m_primary>  (21) 
energy

$$$$
21:0
     RDKit          3D

 55 58  0  0  0  0  0  0  0  0999 V2000
   58.5240   32.6550   49.7240 C   0  0  0  0  0  0  0  0  0  0  0  0
   58.8000   32.2170   48.3980 O   0  0  0  0  0  0  0  0  0  0  0  0
   58.6750   33.0170   47.2510 C   0  0  0  0  0  0  0  0  0  0  0  0
   57.4580   33.1210   46.5460 C   0  0  0  0  0  0  0  0  0  0  0  0
   57.3720   33.9090   45.3960 C   0  0  0  0  0  0  0  0  0  0  0  0
   58.4940   34.6000   44.9360 C   0  0  0  0  0  0  0  0  0  0  0  0
   59.7030   34.5080   45.6260 C   0  0  0  0  0  0  0  0  0  0  0  0
   59.8030   33.7240   46.7850 C   0  0  0  0  0  0  0  0  0  0  0  0
   61.0560   33.6520   47.4870 N   0  0  0  0  0  0  0  0  0  0  0  0
   62.2620   33.1780   46.7940 C   0  0  0  0  0  0  0  0  0  0  0  0
   63.1510   32.3140   47.7180 C   0  0  0  0  0  0  0  0  0  0  0  0
   62.7950   32.4420   49.1490 N   0  0  0  0  0  0  0  0  0  0  0  0
   63.8630   31.8910   50.0110 C   0  0  0  0  0  0  0  0  0  0  0  0
   63.2700   31.1730   51.2330 C   0  0  0  0  0  0  0  0  0  0  0  0
   62.6890   29.8010   50.8620 C   0  0  0  0  0  0  0  0  0  0  0  0
   61.1650   29.8660   50.7370 C   0  0  0  0  0  0  0  0  0  0  0  0
   60.7520   29.6070   49.3230 C   0  0  0  0  0  0  0  0  0  0  0  0
   60.6930   30.5670   48.3660 N   0  0  0  0  0  0  0  0  0  0  0  0
   60.2470   29.9030   47.2900 C   0  0  0  0  0  0  0  0  0  0  0  0
   59.9910   30.3920   46.0110 C   0  0  0  0  0  0  0  0  0  0  0  0
   59.5180   29.4780   45.0490 C   0  0  0  0  0  0  0  0  0  0  0  0
   59.3140   28.1200   45.3890 C   0  0  0  0  0  0  0  0  0  0  0  0
   59.5820   27.6630   46.6950 C   0  0  0  0  0  0  0  0  0  0  0  0
   59.3310   25.9850   47.1400 Cl  0  0  0  0  0  0  0  0  0  0  0  0
   60.0500   28.5940   47.6200 C   0  0  0  0  0  0  0  0  0  0  0  0
   60.3630   28.4210   48.8800 O   0  0  0  0  0  0  0  0  0  0  0  0
   62.4870   33.8440   49.4860 C   0  0  0  0  0  0  0  0  0  0  0  0
   61.1530   34.2120   48.8400 C   0  0  0  0  0  0  0  0  0  0  0  0
   58.9679   31.9505   50.4427 H   0  0  0  0  0  0  0  0  0  0  0  0
   58.9553   33.6553   49.8770 H   0  0  0  0  0  0  0  0  0  0  0  0
   57.4355   32.6977   49.8770 H   0  0  0  0  0  0  0  0  0  0  0  0
   56.5709   32.5781   46.9041 H   0  0  0  0  0  0  0  0  0  0  0  0
   56.4188   33.9851   44.8522 H   0  0  0  0  0  0  0  0  0  0  0  0
   58.4249   35.2178   44.0285 H   0  0  0  0  0  0  0  0  0  0  0  0
   60.5843   35.0542   45.2586 H   0  0  0  0  0  0  0  0  0  0  0  0
   61.9599   32.5753   45.9248 H   0  0  0  0  0  0  0  0  0  0  0  0
   62.8451   34.0567   46.4813 H   0  0  0  0  0  0  0  0  0  0  0  0
   63.0427   31.2599   47.4229 H   0  0  0  0  0  0  0  0  0  0  0  0
   64.1860   32.6685   47.6037 H   0  0  0  0  0  0  0  0  0  0  0  0
   64.4615   31.1750   49.4287 H   0  0  0  0  0  0  0  0  0  0  0  0
   64.4915   32.7219   50.3641 H   0  0  0  0  0  0  0  0  0  0  0  0
   64.0625   31.0331   51.9830 H   0  0  0  0  0  0  0  0  0  0  0  0
   62.4537   31.7935   51.6313 H   0  0  0  0  0  0  0  0  0  0  0  0
   63.1153   29.4779   49.9008 H   0  0  0  0  0  0  0  0  0  0  0  0
   62.9451   29.0855   51.6573 H   0  0  0  0  0  0  0  0  0  0  0  0
   60.7138   29.1065   51.3924 H   0  0  0  0  0  0  0  0  0  0  0  0
   60.8226   30.8685   51.0334 H   0  0  0  0  0  0  0  0  0  0  0  0
   60.9280   31.5810   48.4510 H   0  0  0  0  0  0  0  0  0  0  0  0
   60.1520   31.4512   45.7618 H   0  0  0  0  0  0  0  0  0  0  0  0
   59.3058   29.8227   44.0262 H   0  0  0  0  0  0  0  0  0  0  0  0
   58.9438   27.4162   44.6290 H   0  0  0  0  0  0  0  0  0  0  0  0
   62.4149   33.9566   50.5778 H   0  0  0  0  0  0  0  0  0  0  0  0
   63.2829   34.5062   49.1143 H   0  0  0  0  0  0  0  0  0  0  0  0
   60.3326   33.8132   49.4548 H   0  0  0  0  0  0  0  0  0  0  0  0
   61.0845   35.3078   48.7733 H   0  0  0  0  0  0  0  0  0  0  0  0
  1  2  1  0
  2  3  1  0
  3  4  2  0
  4  5  1  0
  5  6  2  0
  6  7  1  0
  7  8  2  0
  8  9  1  0
  9 10  1  0
 10 11  1  0
 11 12  1  0
 12 13  1  0
 13 14  1  0
 14 15  1  0
 15 16  1  0
 16 17  1  0
 17 18  2  0
 18 19  1  0
 19 20  2  0
 20 21  1  0
 21 22  2  0
 22 23  1  0
 23 24  1  0
 23 25  2  0
 25 26  1  0
 12 27  1  0
 27 28  1  0
  8  3  1  0
 28  9  1  0
 26 17  1  0
 25 19  1  0
  1 29  1  0
  1 30  1  0
  1 31  1  0
  4 32  1  0
  5 33  1  0
  6 34  1  0
  7 35  1  0
 10 36  1  0
 10 37  1  0
 11 38  1  0
 11 39  1  0
 13 40  1  0
 13 41  1  0
 14 42  1  0
 14 43  1  0
 15 44  1  0
 15 45  1  0
 16 46  1  0
 16 47  1  0
 18 48  1  0
 20 49  1  0
 21 50  1  0
 22 51  1  0
 27 52  1  0
 27 53  1  0
 28 54  1  0
 28 55  1  0
M  CHG  1  18   1
M  END
>  <UniqueID>  (22) 
21

>  <SMILES>  (22) 
COc1ccccc1N1CCN(CCCCc2[nH+]c3cccc(Cl)c3o2)CC1

>  <Energy>  (22) 
99.85628955432009

>  <Genealogy>  (22) 
COc1ccccc1N1CCN(CCCCc2[nH+]c3cccc(Cl)c3o2)CC1 (protonated)
COc1ccccc1N1CCN(CCCCc2[nH+]c3cccc(Cl)c3o2)CC1 (3D coordinates assigned)
COc1ccccc1N1CCN(CCCCc2[nH+]c3cccc(Cl)c3o2)CC1 (nonaromatic ring conformer: 99.85628955432009 kcal/mol)

>  <smiles>  (22) 
COc1ccccc1N1CCN(CCCCc2nc3cccc(Cl)c3o2)CC1

>  <score_type>  (22) 
oracle

>  <origin>  (22) 
adg

>  <m_score__min__energy>  (22) 
-7.1799999999999997

>  <m_primary>  (22) 
energy

$$$$
22:0
     RDKit          3D

 48 50  0  0  0  0  0  0  0  0999 V2000
   59.4230   32.7990   50.4110 C   0  0  0  0  0  0  0  0  0  0  0  0
   60.6640   32.8480   49.5220 C   0  0  0  0  0  0  0  0  0  0  0  0
   60.8710   34.2340   48.8930 C   0  0  0  0  0  0  0  0  0  0  0  0
   60.5710   34.2340   47.4440 N   0  0  0  0  0  0  0  0  0  0  0  0
   61.5040   33.5340   46.5230 C   0  0  0  0  0  0  0  0  0  0  0  0
   63.0010   33.8320   46.7330 C   0  0  0  0  0  0  0  0  0  0  0  0
   63.7450   32.7250   47.4730 C   0  0  0  0  0  0  0  0  0  0  0  0
   59.1460   34.3390   47.0310 C   0  0  1  0  0  0  0  0  0  0  0  0
   58.9740   34.9640   45.6170 C   0  0  0  0  0  0  0  0  0  0  0  0
   57.7640   34.4020   44.8750 C   0  0  0  0  0  0  0  0  0  0  0  0
   57.9020   32.9080   44.7810 C   0  0  0  0  0  0  0  0  0  0  0  0
   57.7020   32.2570   43.5600 C   0  0  0  0  0  0  0  0  0  0  0  0
   57.8310   30.8760   43.4690 C   0  0  0  0  0  0  0  0  0  0  0  0
   58.1240   30.1160   44.6080 C   0  0  0  0  0  0  0  0  0  0  0  0
   58.2180   28.7190   44.5020 C   0  0  0  0  0  0  0  0  0  0  0  0
   58.4700   27.9430   45.6310 C   0  0  0  0  0  0  0  0  0  0  0  0
   58.6190   28.5490   46.8760 C   0  0  0  0  0  0  0  0  0  0  0  0
   58.5320   29.9380   47.0010 C   0  0  0  0  0  0  0  0  0  0  0  0
   58.3080   30.7540   45.8660 C   0  0  0  0  0  0  0  0  0  0  0  0
   58.2430   32.1770   45.9380 C   0  0  0  0  0  0  0  0  0  0  0  0
   58.4360   32.9640   47.2260 C   0  0  0  0  0  0  0  0  0  0  0  0
   59.7283   32.8111   51.4677 H   0  0  0  0  0  0  0  0  0  0  0  0
   58.7881   33.6728   50.2028 H   0  0  0  0  0  0  0  0  0  0  0  0
   58.8589   31.8779   50.2028 H   0  0  0  0  0  0  0  0  0  0  0  0
   61.5460   32.5995   50.1305 H   0  0  0  0  0  0  0  0  0  0  0  0
   60.5245   32.1236   48.7061 H   0  0  0  0  0  0  0  0  0  0  0  0
   60.2070   34.9542   49.3934 H   0  0  0  0  0  0  0  0  0  0  0  0
   61.9275   34.5120   49.0219 H   0  0  0  0  0  0  0  0  0  0  0  0
   61.3542   32.4516   46.6490 H   0  0  0  0  0  0  0  0  0  0  0  0
   61.2637   33.9040   45.5154 H   0  0  0  0  0  0  0  0  0  0  0  0
   63.4703   33.9680   45.7475 H   0  0  0  0  0  0  0  0  0  0  0  0
   63.0661   34.7368   47.3552 H   0  0  0  0  0  0  0  0  0  0  0  0
   63.6432   32.8765   48.5578 H   0  0  0  0  0  0  0  0  0  0  0  0
   63.3187   31.7491   47.1975 H   0  0  0  0  0  0  0  0  0  0  0  0
   64.8096   32.7511   47.1975 H   0  0  0  0  0  0  0  0  0  0  0  0
   58.6350   35.0559   47.6905 H   0  0  0  0  0  0  0  0  0  0  0  0
   58.8485   36.0515   45.7245 H   0  0  0  0  0  0  0  0  0  0  0  0
   59.8712   34.7175   45.0302 H   0  0  0  0  0  0  0  0  0  0  0  0
   56.8445   34.6542   45.4235 H   0  0  0  0  0  0  0  0  0  0  0  0
   57.7109   34.8359   43.8656 H   0  0  0  0  0  0  0  0  0  0  0  0
   57.4408   32.8415   42.6655 H   0  0  0  0  0  0  0  0  0  0  0  0
   57.7022   30.3774   42.4970 H   0  0  0  0  0  0  0  0  0  0  0  0
   58.0920   28.2349   43.5223 H   0  0  0  0  0  0  0  0  0  0  0  0
   58.5514   26.8499   45.5390 H   0  0  0  0  0  0  0  0  0  0  0  0
   58.8063   27.9306   47.7662 H   0  0  0  0  0  0  0  0  0  0  0  0
   58.6388   30.4026   47.9923 H   0  0  0  0  0  0  0  0  0  0  0  0
   57.4468   33.1460   47.6713 H   0  0  0  0  0  0  0  0  0  0  0  0
   59.0880   32.3589   47.8731 H   0  0  0  0  0  0  0  0  0  0  0  0
  1  2  1  0
  2  3  1  0
  3  4  1  0
  4  5  1  0
  5  6  1  0
  6  7  1  0
  4  8  1  0
  8  9  1  0
  9 10  1  0
 10 11  1  0
 11 12  2  0
 12 13  1  0
 13 14  2  0
 14 15  1  0
 15 16  2  0
 16 17  1  0
 17 18  2  0
 18 19  1  0
 19 20  2  0
 20 21  1  0
 21  8  1  0
 20 11  1  0
 19 14  1  0
  1 22  1  0
  1 23  1  0
  1 24  1  0
  2 25  1  0
  2 26  1  0
  3 27  1  0
  3 28  1  0
  5 29  1  0
  5 30  1  0
  6 31  1  0
  6 32  1  0
  7 33  1  0
  7 34  1  0
  7 35  1  0
  8 36  1  1
  9 37  1  0
  9 38  1  0
 10 39  1  0
 10 40  1  0
 12 41  1  0
 13 42  1  0
 15 43  1  0
 16 44  1  0
 17 45  1  0
 18 46  1  0
 21 47  1  0
 21 48  1  0
M  END
>  <UniqueID>  (23) 
22

>  <SMILES>  (23) 
CCCN(CCC)[C@H]1CCc2ccc3ccccc3c2C1

>  <Energy>  (23) 
68.36566893458091

>  <Genealogy>  (23) 
CCCN(CCC)[C@H]1CCc2ccc3ccccc3c2C1 (chirality)
CCCN(CCC)[C@H]1CCc2ccc3ccccc3c2C1 (3D coordinates assigned)
CCCN(CCC)[C@H]1CCc2ccc3ccccc3c2C1 (nonaromatic ring conformer: 68.36566893458091 kcal/mol)

>  <smiles>  (23) 
CCCN(CCC)C1CCc2ccc3ccccc3c2C1

>  <score_type>  (23) 
oracle

>  <origin>  (23) 
adg

>  <m_score__min__energy>  (23) 
-7.79

>  <m_primary>  (23) 
energy

$$$$
23:0
     RDKit          3D

 47 49  0  0  0  0  0  0  0  0999 V2000
   57.7670   26.2000   42.6190 C   0  0  0  0  0  0  0  0  0  0  0  0
   57.7930   26.5500   44.0700 C   0  0  0  0  0  0  0  0  0  0  0  0
   57.8140   25.6350   45.0620 N   0  0  0  0  0  0  0  0  0  0  0  0
   57.9010   26.2890   46.2110 N   0  0  0  0  0  0  0  0  0  0  0  0
   58.0050   25.6290   47.5060 C   0  0  0  0  0  0  0  0  0  0  0  0
   57.9340   27.6210   45.9850 C   0  0  0  0  0  0  0  0  0  0  0  0
   58.2090   28.6650   47.0240 C   0  0  0  0  0  0  0  0  0  0  0  0
   57.8780   27.8150   44.6210 C   0  0  0  0  0  0  0  0  0  0  0  0
   58.0910   29.0470   43.9280 N   0  0  0  0  0  0  0  0  0  0  0  0
   56.9390   30.3290   44.0950 S   0  0  0  0  0  0  0  0  0  0  0  0
   56.4740   30.7850   42.7420 O   0  0  0  0  0  0  0  0  0  0  0  0
   55.7490   29.8330   44.8700 O   0  0  0  0  0  0  0  0  0  0  0  0
   57.6940   31.6550   44.9720 C   0  0  0  0  0  0  0  0  0  0  0  0
   58.9360   31.4710   45.5910 C   0  0  0  0  0  0  0  0  0  0  0  0
   59.4870   32.4840   46.3810 C   0  0  0  0  0  0  0  0  0  0  0  0
   58.7950   33.6960   46.5650 C   0  0  0  0  0  0  0  0  0  0  0  0
   59.2860   34.7330   47.3740 O   0  0  0  0  0  0  0  0  0  0  0  0
   60.0080   34.5520   48.5920 C   0  0  0  0  0  0  0  0  0  0  0  0
   61.3960   34.0370   48.3130 C   0  0  0  0  0  0  0  0  0  0  0  0
   62.1500   33.4570   49.3460 C   0  0  0  0  0  0  0  0  0  0  0  0
   63.4380   32.9760   49.0950 C   0  0  0  0  0  0  0  0  0  0  0  0
   63.9820   33.0700   47.8110 C   0  0  0  0  0  0  0  0  0  0  0  0
   63.2400   33.6490   46.7770 C   0  0  0  0  0  0  0  0  0  0  0  0
   61.9530   34.1360   47.0260 C   0  0  0  0  0  0  0  0  0  0  0  0
   57.5640   33.8820   45.9240 C   0  0  0  0  0  0  0  0  0  0  0  0
   57.0110   32.8660   45.1400 C   0  0  0  0  0  0  0  0  0  0  0  0
   57.6859   25.1088   42.5064 H   0  0  0  0  0  0  0  0  0  0  0  0
   56.9023   26.6832   42.1407 H   0  0  0  0  0  0  0  0  0  0  0  0
   58.6936   26.5501   42.1407 H   0  0  0  0  0  0  0  0  0  0  0  0
   57.8877   26.3733   48.3074 H   0  0  0  0  0  0  0  0  0  0  0  0
   57.2157   24.8679   47.5941 H   0  0  0  0  0  0  0  0  0  0  0  0
   58.9901   25.1475   47.5941 H   0  0  0  0  0  0  0  0  0  0  0  0
   58.0931   28.2251   48.0255 H   0  0  0  0  0  0  0  0  0  0  0  0
   59.2364   29.0394   46.9046 H   0  0  0  0  0  0  0  0  0  0  0  0
   57.4994   29.4970   46.9046 H   0  0  0  0  0  0  0  0  0  0  0  0
   58.6650   29.0320   43.0570 H   0  0  0  0  0  0  0  0  0  0  0  0
   59.4808   30.5251   45.4551 H   0  0  0  0  0  0  0  0  0  0  0  0
   60.4653   32.3335   46.8609 H   0  0  0  0  0  0  0  0  0  0  0  0
   60.0787   35.5159   49.1172 H   0  0  0  0  0  0  0  0  0  0  0  0
   59.4755   33.8180   49.2147 H   0  0  0  0  0  0  0  0  0  0  0  0
   61.7248   33.3809   50.3576 H   0  0  0  0  0  0  0  0  0  0  0  0
   64.0239   32.5232   49.9084 H   0  0  0  0  0  0  0  0  0  0  0  0
   64.9946   32.6882   47.6138 H   0  0  0  0  0  0  0  0  0  0  0  0
   63.6690   33.7215   45.7667 H   0  0  0  0  0  0  0  0  0  0  0  0
   61.3746   34.5980   46.2123 H   0  0  0  0  0  0  0  0  0  0  0  0
   57.0279   34.8357   46.0385 H   0  0  0  0  0  0  0  0  0  0  0  0
   56.0363   33.0179   44.6533 H   0  0  0  0  0  0  0  0  0  0  0  0
  1  2  1  0
  2  3  2  0
  3  4  1  0
  4  5  1  0
  4  6  1  0
  6  7  1  0
  6  8  2  0
  8  9  1  0
  9 10  1  0
 10 11  2  0
 10 12  2  0
 10 13  1  0
 13 14  2  0
 14 15  1  0
 15 16  2  0
 16 17  1  0
 17 18  1  0
 18 19  1  0
 19 20  2  0
 20 21  1  0
 21 22  2  0
 22 23  1  0
 23 24  2  0
 16 25  1  0
 25 26  2  0
  8  2  1  0
 26 13  1  0
 24 19  1  0
  1 27  1  0
  1 28  1  0
  1 29  1  0
  5 30  1  0
  5 31  1  0
  5 32  1  0
  7 33  1  0
  7 34  1  0
  7 35  1  0
  9 36  1  0
 14 37  1  0
 15 38  1  0
 18 39  1  0
 18 40  1  0
 20 41  1  0
 21 42  1  0
 22 43  1  0
 23 44  1  0
 24 45  1  0
 25 46  1  0
 26 47  1  0
M  END
>  <UniqueID>  (24) 
23

>  <SMILES>  (24) 
Cc1nn(C)c(C)c1NS(=O)(=O)c1ccc(OCc2ccccc2)cc1

>  <Energy>  (24) 
80.7402868402209

>  <Genealogy>  (24) 
Cc1nn(C)c(C)c1NS(=O)(=O)c1ccc(OCc2ccccc2)cc1 (3D coordinates assigned)
Cc1nn(C)c(C)c1NS(=O)(=O)c1ccc(OCc2ccccc2)cc1 (optimized conformer: 80.7402868402209 kcal/mol)

>  <smiles>  (24) 
Cc1nn(C)c(C)c1NS(=O)(=O)c1ccc(OCc2ccccc2)cc1

>  <score_type>  (24) 
oracle

>  <origin>  (24) 
adg

>  <m_score__min__energy>  (24) 
-9.1899999999999995

>  <m_primary>  (24) 
energy

$$$$
24:0
     RDKit          3D

 50 53  0  0  0  0  0  0  0  0999 V2000
   57.9580   26.7910   43.0070 C   0  0  0  0  0  0  0  0  0  0  0  0
   58.1910   28.0630   43.7660 C   0  0  0  0  0  0  0  0  0  0  0  0
   59.3640   28.2160   44.5510 C   0  0  0  0  0  0  0  0  0  0  0  0
   59.5790   29.3910   45.2980 C   0  0  0  0  0  0  0  0  0  0  0  0
   58.6000   30.3780   45.2450 C   0  0  0  0  0  0  0  0  0  0  0  0
   58.5900   31.5660   45.8740 N   0  0  0  0  0  0  0  0  0  0  0  0
   57.4020   32.0870   45.4650 C   0  0  0  0  0  0  0  0  0  0  0  0
   56.9090   33.4330   45.8930 C   0  0  0  0  0  0  0  0  0  0  0  0
   57.9670   34.3900   45.8490 O   0  0  0  0  0  0  0  0  0  0  0  0
   59.2220   34.2400   46.4610 C   0  0  0  0  0  0  0  0  0  0  0  0
   60.3990   33.9920   45.7290 C   0  0  0  0  0  0  0  0  0  0  0  0
   61.6220   33.8460   46.3890 C   0  0  0  0  0  0  0  0  0  0  0  0
   61.6970   33.9420   47.7890 C   0  0  0  0  0  0  0  0  0  0  0  0
   63.0330   33.7920   48.4930 C   0  0  1  0  0  0  0  0  0  0  0  0
   62.9270   34.2280   49.9680 C   0  0  0  0  0  0  0  0  0  0  0  0
   64.1740   33.7800   50.7420 C   0  0  0  0  0  0  0  0  0  0  0  0
   64.3730   32.3000   50.7300 N   0  0  1  0  0  0  0  0  0  0  0  0
   64.0500   31.7150   52.0440 C   0  0  0  0  0  0  0  0  0  0  0  0
   63.6150   31.5890   49.6670 C   0  0  0  0  0  0  0  0  0  0  0  0
   63.6240   32.3650   48.3410 C   0  0  0  0  0  0  0  0  0  0  0  0
   60.5180   34.1990   48.5140 C   0  0  0  0  0  0  0  0  0  0  0  0
   59.2960   34.3450   47.8530 C   0  0  0  0  0  0  0  0  0  0  0  0
   56.7300   31.2960   44.6460 O   0  0  0  0  0  0  0  0  0  0  0  0
   57.4670   30.2280   44.5060 C   0  0  0  0  0  0  0  0  0  0  0  0
   57.2160   29.0850   43.7530 C   0  0  0  0  0  0  0  0  0  0  0  0
   57.8064   25.9636   43.7158 H   0  0  0  0  0  0  0  0  0  0  0  0
   57.0649   26.9000   42.3742 H   0  0  0  0  0  0  0  0  0  0  0  0
   58.8318   26.5763   42.3742 H   0  0  0  0  0  0  0  0  0  0  0  0
   60.1119   27.4097   44.5762 H   0  0  0  0  0  0  0  0  0  0  0  0
   60.4889   29.5233   45.9019 H   0  0  0  0  0  0  0  0  0  0  0  0
   56.1019   33.7543   45.2182 H   0  0  0  0  0  0  0  0  0  0  0  0
   56.5350   33.3633   46.9251 H   0  0  0  0  0  0  0  0  0  0  0  0
   60.3556   33.9128   44.6327 H   0  0  0  0  0  0  0  0  0  0  0  0
   62.5353   33.6540   45.8068 H   0  0  0  0  0  0  0  0  0  0  0  0
   63.7463   34.4670   47.9974 H   0  0  0  0  0  0  0  0  0  0  0  0
   62.0346   33.7698   50.4194 H   0  0  0  0  0  0  0  0  0  0  0  0
   62.8494   35.3243   50.0144 H   0  0  0  0  0  0  0  0  0  0  0  0
   64.0751   34.1111   51.7863 H   0  0  0  0  0  0  0  0  0  0  0  0
   65.0462   34.2314   50.2466 H   0  0  0  0  0  0  0  0  0  0  0  0
   65.3910   32.1180   50.5610 H   0  0  0  0  0  0  0  0  0  0  0  0
   64.4165   32.3788   52.8409 H   0  0  0  0  0  0  0  0  0  0  0  0
   62.9600   31.5990   52.1358 H   0  0  0  0  0  0  0  0  0  0  0  0
   64.5325   30.7307   52.1358 H   0  0  0  0  0  0  0  0  0  0  0  0
   62.5736   31.4615   49.9974 H   0  0  0  0  0  0  0  0  0  0  0  0
   64.0985   30.6159   49.4960 H   0  0  0  0  0  0  0  0  0  0  0  0
   63.0264   31.8109   47.6022 H   0  0  0  0  0  0  0  0  0  0  0  0
   64.6699   32.4655   48.0156 H   0  0  0  0  0  0  0  0  0  0  0  0
   60.5593   34.2856   49.6098 H   0  0  0  0  0  0  0  0  0  0  0  0
   58.3832   34.5445   48.4335 H   0  0  0  0  0  0  0  0  0  0  0  0
   56.2904   28.9810   43.1679 H   0  0  0  0  0  0  0  0  0  0  0  0
  1  2  1  0
  2  3  2  0
  3  4  1  0
  4  5  2  0
  5  6  1  0
  6  7  2  0
  7  8  1  0
  8  9  1  0
  9 10  1  0
 10 11  2  0
 11 12  1  0
 12 13  2  0
 13 14  1  0
 14 15  1  0
 15 16  1  0
 16 17  1  0
 17 18  1  0
 17 19  1  0
 19 20  1  0
 13 21  1  0
 21 22  2  0
  7 23  1  0
 23 24  1  0
 24 25  2  0
 25  2  1  0
 24  5  1  0
 22 10  1  0
 20 14  1  0
  1 26  1  0
  1 27  1  0
  1 28  1  0
  3 29  1  0
  4 30  1  0
  8 31  1  0
  8 32  1  0
 11 33  1  0
 12 34  1  0
 14 35  1  6
 15 36  1  0
 15 37  1  0
 16 38  1  0
 16 39  1  0
 17 40  1  6
 18 41  1  0
 18 42  1  0
 18 43  1  0
 19 44  1  0
 19 45  1  0
 20 46  1  0
 20 47  1  0
 21 48  1  0
 22 49  1  0
 25 50  1  0
M  CHG  1  17   1
M  END
>  <UniqueID>  (25) 
24

>  <SMILES>  (25) 
Cc1ccc2nc(COc3ccc(C4CC[NH+](C)CC4)cc3)oc2c1

>  <Energy>  (25) 
97.32482075013957

>  <Genealogy>  (25) 
Cc1ccc2nc(COc3ccc(C4CC[NH+](C)CC4)cc3)oc2c1 (protonated)
Cc1ccc2nc(COc3ccc(C4CC[NH+](C)CC4)cc3)oc2c1 (3D coordinates assigned)
Cc1ccc2nc(COc3ccc(C4CC[NH+](C)CC4)cc3)oc2c1 (nonaromatic ring conformer: 97.32482075013957 kcal/mol)

>  <smiles>  (25) 
Cc1ccc2nc(COc3ccc(C4CCN(C)CC4)cc3)oc2c1

>  <score_type>  (25) 
oracle

>  <origin>  (25) 
adg

>  <m_score__min__energy>  (25) 
-7.5300000000000002

>  <m_primary>  (25) 
energy

$$$$
25:0
     RDKit          3D

 42 43  0  0  0  0  0  0  0  0999 V2000
   57.1555   26.3591   46.4391 H   0  0  0  0  0  0  0  0  0  0  0  0
   57.3880   27.4280   46.3230 C   0  0  0  0  0  0  0  0  0  0  0  0
   56.6660   28.1900   45.4620 N   0  0  0  0  0  0  0  0  0  0  0  0
   56.9330   29.5130   45.3030 C   0  0  0  0  0  0  0  0  0  0  0  0
   56.2200   30.2100   44.4690 N   0  0  0  0  0  0  0  0  0  0  0  0
   56.2550   30.0690   43.0120 C   0  0  0  0  0  0  0  0  0  0  0  0
   55.2236   30.0517   42.6300 H   0  0  0  0  0  0  0  0  0  0  0  0
   56.7792   29.1330   42.7690 H   0  0  0  0  0  0  0  0  0  0  0  0
   57.0130   31.2310   42.3500 C   0  0  0  0  0  0  0  0  0  0  0  0
   56.2758   31.9496   41.9624 H   0  0  0  0  0  0  0  0  0  0  0  0
   57.6354   30.7950   41.5546 H   0  0  0  0  0  0  0  0  0  0  0  0
   57.9650   31.9790   43.3050 C   0  0  0  0  0  0  0  0  0  0  0  0
   58.3651   32.8606   42.7828 H   0  0  0  0  0  0  0  0  0  0  0  0
   58.7622   31.2780   43.5933 H   0  0  0  0  0  0  0  0  0  0  0  0
   57.2960   32.4290   44.5490 N   0  0  0  0  0  0  0  0  0  0  0  0
   57.5230   31.7940   45.3490 H   0  0  0  0  0  0  0  0  0  0  0  0
   56.2600   32.3890   44.4020 H   0  0  0  0  0  0  0  0  0  0  0  0
   57.6550   33.8140   44.8940 C   0  0  0  0  0  0  0  0  0  0  0  0
   56.7359   34.3988   45.0465 H   0  0  0  0  0  0  0  0  0  0  0  0
   58.2460   34.2433   44.0716 H   0  0  0  0  0  0  0  0  0  0  0  0
   58.4790   33.8480   46.1550 C   0  0  0  0  0  0  0  0  0  0  0  0
   59.6870   34.5620   46.1910 C   0  0  0  0  0  0  0  0  0  0  0  0
   60.0187   35.1213   45.3038 H   0  0  0  0  0  0  0  0  0  0  0  0
   60.4710   34.5660   47.3490 C   0  0  0  0  0  0  0  0  0  0  0  0
   61.4067   35.1438   47.3750 H   0  0  0  0  0  0  0  0  0  0  0  0
   60.0690   33.8360   48.4780 C   0  0  0  0  0  0  0  0  0  0  0  0
   60.8900   33.8710   49.7320 C   0  0  0  0  0  0  0  0  0  0  0  0
   60.2241   33.8426   50.6071 H   0  0  0  0  0  0  0  0  0  0  0  0
   61.5624   33.0007   49.7545 H   0  0  0  0  0  0  0  0  0  0  0  0
   61.4859   34.7954   49.7545 H   0  0  0  0  0  0  0  0  0  0  0  0
   58.8600   33.1240   48.4430 C   0  0  0  0  0  0  0  0  0  0  0  0
   58.5277   32.5662   49.3309 H   0  0  0  0  0  0  0  0  0  0  0  0
   58.0760   33.1200   47.2860 C   0  0  0  0  0  0  0  0  0  0  0  0
   57.1392   32.5440   47.2613 H   0  0  0  0  0  0  0  0  0  0  0  0
   57.9430   30.0870   46.0150 N   0  0  0  0  0  0  0  0  0  0  0  0
   58.6900   29.3620   46.8890 C   0  0  0  0  0  0  0  0  0  0  0  0
   59.7950   30.0190   47.6520 C   0  0  0  0  0  0  0  0  0  0  0  0
   59.6110   29.9096   48.7310 H   0  0  0  0  0  0  0  0  0  0  0  0
   60.7525   29.5434   47.3932 H   0  0  0  0  0  0  0  0  0  0  0  0
   59.8345   31.0874   47.3932 H   0  0  0  0  0  0  0  0  0  0  0  0
   58.4240   28.0000   47.0600 C   0  0  0  0  0  0  0  0  0  0  0  0
   59.0183   27.3940   47.7597 H   0  0  0  0  0  0  0  0  0  0  0  0
  1  2  1  0
  2  3  1  0
  3  4  1  0
  4  5  2  0
  5  6  1  0
  6  7  1  0
  6  8  1  0
  6  9  1  0
  9 10  1  0
  9 11  1  0
  9 12  1  0
 12 13  1  0
 12 14  1  0
 12 15  1  0
 15 16  1  0
 15 17  1  0
 15 18  1  0
 18 19  1  0
 18 20  1  0
 18 21  1  0
 21 22  2  0
 22 23  1  0
 22 24  1  0
 24 25  1  0
 24 26  2  0
 26 27  1  0
 27 28  1  0
 27 29  1  0
 27 30  1  0
 26 31  1  0
 31 32  1  0
 31 33  2  0
 33 34  1  0
  4 35  1  0
 35 36  2  0
 36 37  1  0
 37 38  1  0
 37 39  1  0
 37 40  1  0
 36 41  1  0
 41 42  1  0
 41  2  2  0
 33 21  1  0
M  CHG  2   3  -1  15   1
M  END
>  <UniqueID>  (26) 
25

>  <SMILES>  (26) 
Cc1ccc(C[NH2+]CCC/N=c2\nc(C)cc[n-]2)cc1

>  <Energy>  (26) 
38.86707047780488

>  <Genealogy>  (26) 
Cc1ccc(C[NH2+]CCCN=c2nc(C)cc[n-]2)cc1 (protonated)
Cc1ccc(C[NH2+]CCC/N=c2\nc(C)cc[n-]2)cc1 (cis-trans isomerization)
Cc1ccc(C[NH2+]CCC/N=c2\nc(C)cc[n-]2)cc1 (3D coordinates assigned)
Cc1ccc(C[NH2+]CCC/N=c2\nc(C)cc[n-]2)cc1 (optimized conformer: 38.86707047780488 kcal/mol)

>  <smiles>  (26) 
Cc1ccc(CNCCCN=c2nc(C)cc[nH]2)cc1

>  <score_type>  (26) 
oracle

>  <origin>  (26) 
adg

>  <m_score__min__energy>  (26) 
-6.5700000000000003

>  <m_primary>  (26) 
energy

$$$$
26:0
     RDKit          3D

 41 43  0  0  0  0  0  0  0  0999 V2000
   58.5300   29.7100   46.5700 C   0  0  0  0  0  0  0  0  0  0  0  0
   57.4280   30.4070   45.9890 O   0  0  0  0  0  0  0  0  0  0  0  0
   57.3560   30.8150   44.6460 C   0  0  0  0  0  0  0  0  0  0  0  0
   56.6980   30.0390   43.6700 C   0  0  0  0  0  0  0  0  0  0  0  0
   56.6470   30.4690   42.3420 C   0  0  0  0  0  0  0  0  0  0  0  0
   57.2570   31.6670   41.9690 C   0  0  0  0  0  0  0  0  0  0  0  0
   57.9150   32.4440   42.9240 C   0  0  0  0  0  0  0  0  0  0  0  0
   57.9570   32.0360   44.2720 C   0  0  0  0  0  0  0  0  0  0  0  0
   58.6630   32.8130   45.2580 N   0  0  0  0  0  0  0  0  0  0  0  0
   58.7100   34.2490   45.2770 C   0  0  0  0  0  0  0  0  0  0  0  0
   57.9530   34.9280   44.5310 O   0  0  0  0  0  0  0  0  0  0  0  0
   59.6220   34.9550   46.2340 C   0  0  0  0  0  0  0  0  0  0  0  0
   59.9990   34.0560   47.3330 N   0  0  0  0  0  0  0  0  0  0  0  0
   59.0430   33.8100   48.4230 C   0  0  0  0  0  0  0  0  0  0  0  0
   58.9260   32.3090   48.6840 C   0  0  0  0  0  0  0  0  0  0  0  0
   60.2520   31.7260   48.8860 N   0  0  0  0  0  0  0  0  0  0  0  0
   61.3960   32.2150   48.1680 C   0  0  0  0  0  0  0  0  0  0  0  0
   62.6240   31.5470   48.2550 C   0  0  0  0  0  0  0  0  0  0  0  0
   63.7340   32.0240   47.5570 C   0  0  0  0  0  0  0  0  0  0  0  0
   63.6270   33.1750   46.7750 C   0  0  0  0  0  0  0  0  0  0  0  0
   62.4090   33.8540   46.6880 C   0  0  0  0  0  0  0  0  0  0  0  0
   61.2770   33.3780   47.3810 C   0  0  0  0  0  0  0  0  0  0  0  0
   58.4563   29.7566   47.6665 H   0  0  0  0  0  0  0  0  0  0  0  0
   58.5113   28.6591   46.2456 H   0  0  0  0  0  0  0  0  0  0  0  0
   59.4715   30.1772   46.2456 H   0  0  0  0  0  0  0  0  0  0  0  0
   56.2220   29.0894   43.9560 H   0  0  0  0  0  0  0  0  0  0  0  0
   56.1245   29.8615   41.5883 H   0  0  0  0  0  0  0  0  0  0  0  0
   57.2194   31.9997   40.9212 H   0  0  0  0  0  0  0  0  0  0  0  0
   58.4043   33.3817   42.6219 H   0  0  0  0  0  0  0  0  0  0  0  0
   59.1130   32.3070   46.0530 H   0  0  0  0  0  0  0  0  0  0  0  0
   60.5287   35.2774   45.7011 H   0  0  0  0  0  0  0  0  0  0  0  0
   59.0992   35.8294   46.6490 H   0  0  0  0  0  0  0  0  0  0  0  0
   59.3941   34.3126   49.3363 H   0  0  0  0  0  0  0  0  0  0  0  0
   58.0574   34.2054   48.1361 H   0  0  0  0  0  0  0  0  0  0  0  0
   58.3154   32.1433   49.5839 H   0  0  0  0  0  0  0  0  0  0  0  0
   58.4521   31.8297   47.8147 H   0  0  0  0  0  0  0  0  0  0  0  0
   60.3460   30.9070   49.5240 H   0  0  0  0  0  0  0  0  0  0  0  0
   62.7136   30.6433   48.8757 H   0  0  0  0  0  0  0  0  0  0  0  0
   64.6946   31.4922   47.6232 H   0  0  0  0  0  0  0  0  0  0  0  0
   64.5038   33.5486   46.2258 H   0  0  0  0  0  0  0  0  0  0  0  0
   62.3328   34.7646   46.0757 H   0  0  0  0  0  0  0  0  0  0  0  0
  1  2  1  0
  2  3  1  0
  3  4  2  0
  4  5  1  0
  5  6  2  0
  6  7  1  0
  7  8  2  0
  8  9  1  0
  9 10  1  0
 10 11  2  0
 10 12  1  0
 12 13  1  0
 13 14  1  0
 14 15  1  0
 15 16  1  0
 16 17  1  0
 17 18  2  0
 18 19  1  0
 19 20  2  0
 20 21  1  0
 21 22  2  0
  8  3  1  0
 22 13  1  0
 22 17  1  0
  1 23  1  0
  1 24  1  0
  1 25  1  0
  4 26  1  0
  5 27  1  0
  6 28  1  0
  7 29  1  0
  9 30  1  0
 12 31  1  0
 12 32  1  0
 14 33  1  0
 14 34  1  0
 15 35  1  0
 15 36  1  0
 16 37  1  0
 18 38  1  0
 19 39  1  0
 20 40  1  0
 21 41  1  0
M  END
>  <UniqueID>  (27) 
26

>  <SMILES>  (27) 
COc1ccccc1NC(=O)CN1CCNc2ccccc21

>  <Energy>  (27) 
45.76998174073049

>  <Genealogy>  (27) 
COc1ccccc1NC(=O)CN1CCNc2ccccc21 (3D coordinates assigned)
COc1ccccc1NC(=O)CN1CCNc2ccccc21 (nonaromatic ring conformer: 45.76998174073049 kcal/mol)

>  <smiles>  (27) 
COc1ccccc1NC(=O)CN1CCNc2ccccc21

>  <score_type>  (27) 
oracle

>  <origin>  (27) 
adg

>  <m_score__min__energy>  (27) 
-6.7699999999999996

>  <m_primary>  (27) 
energy

$$$$
27:0
     RDKit          3D

 41 42  0  0  0  0  0  0  0  0999 V2000
   56.2960   26.3050   46.0610 C   0  0  0  0  0  0  0  0  0  0  0  0
   55.8170   27.5720   45.6220 O   0  0  0  0  0  0  0  0  0  0  0  0
   56.6410   28.6400   45.2370 C   0  0  0  0  0  0  0  0  0  0  0  0
   56.1800   29.6920   44.4210 C   0  0  0  0  0  0  0  0  0  0  0  0
   57.0380   30.7380   44.0720 C   0  0  0  0  0  0  0  0  0  0  0  0
   58.3590   30.7450   44.5250 C   0  0  0  0  0  0  0  0  0  0  0  0
   58.8360   29.6970   45.3260 C   0  0  0  0  0  0  0  0  0  0  0  0
   60.2490   29.7210   45.8450 C   0  0  0  0  0  0  0  0  0  0  0  0
   60.3160   30.4370   47.1990 C   0  0  0  0  0  0  0  0  0  0  0  0
   61.2760   31.5510   47.1540 N   0  0  0  0  0  0  0  0  0  0  0  0
   61.1000   32.4330   48.3190 C   0  0  0  0  0  0  0  0  0  0  0  0
   60.7480   33.8680   47.8970 C   0  0  0  0  0  0  0  0  0  0  0  0
   59.5600   33.9080   46.9710 C   0  0  0  0  0  0  0  0  0  0  0  0
   59.6640   34.5120   45.7060 C   0  0  0  0  0  0  0  0  0  0  0  0
   58.5510   34.5700   44.8610 C   0  0  0  0  0  0  0  0  0  0  0  0
   57.3290   34.0320   45.2730 C   0  0  0  0  0  0  0  0  0  0  0  0
   57.2170   33.4370   46.5320 C   0  0  0  0  0  0  0  0  0  0  0  0
   58.3260   33.3770   47.3810 C   0  0  0  0  0  0  0  0  0  0  0  0
   57.9670   28.6540   45.6860 C   0  0  0  0  0  0  0  0  0  0  0  0
   56.3063   26.2778   47.1606 H   0  0  0  0  0  0  0  0  0  0  0  0
   55.6358   25.5116   45.6808 H   0  0  0  0  0  0  0  0  0  0  0  0
   57.3160   26.1468   45.6808 H   0  0  0  0  0  0  0  0  0  0  0  0
   55.1417   29.6898   44.0577 H   0  0  0  0  0  0  0  0  0  0  0  0
   56.6717   31.5590   43.4381 H   0  0  0  0  0  0  0  0  0  0  0  0
   59.0276   31.5750   44.2528 H   0  0  0  0  0  0  0  0  0  0  0  0
   60.6075   28.6880   45.9645 H   0  0  0  0  0  0  0  0  0  0  0  0
   60.8810   30.2632   45.1262 H   0  0  0  0  0  0  0  0  0  0  0  0
   59.3194   30.8297   47.4490 H   0  0  0  0  0  0  0  0  0  0  0  0
   60.6466   29.7173   47.9624 H   0  0  0  0  0  0  0  0  0  0  0  0
   62.2470   31.1590   47.1570 H   0  0  0  0  0  0  0  0  0  0  0  0
   61.1240   32.1000   46.2750 H   0  0  0  0  0  0  0  0  0  0  0  0
   60.2883   32.0367   48.9468 H   0  0  0  0  0  0  0  0  0  0  0  0
   62.0493   32.4617   48.8740 H   0  0  0  0  0  0  0  0  0  0  0  0
   60.5168   34.4564   48.7972 H   0  0  0  0  0  0  0  0  0  0  0  0
   61.6121   34.2861   47.3598 H   0  0  0  0  0  0  0  0  0  0  0  0
   60.6233   34.9402   45.3798 H   0  0  0  0  0  0  0  0  0  0  0  0
   58.6378   35.0400   43.8703 H   0  0  0  0  0  0  0  0  0  0  0  0
   56.4554   34.0770   44.6061 H   0  0  0  0  0  0  0  0  0  0  0  0
   56.2543   33.0149   46.8559 H   0  0  0  0  0  0  0  0  0  0  0  0
   58.2319   32.9123   48.3736 H   0  0  0  0  0  0  0  0  0  0  0  0
   58.3324   27.8389   46.3280 H   0  0  0  0  0  0  0  0  0  0  0  0
  1  2  1  0
  2  3  1  0
  3  4  2  0
  4  5  1  0
  5  6  2  0
  6  7  1  0
  7  8  1  0
  8  9  1  0
  9 10  1  0
 10 11  1  0
 11 12  1  0
 12 13  1  0
 13 14  2  0
 14 15  1  0
 15 16  2  0
 16 17  1  0
 17 18  2  0
  7 19  2  0
 19  3  1  0
 18 13  1  0
  1 20  1  0
  1 21  1  0
  1 22  1  0
  4 23  1  0
  5 24  1  0
  6 25  1  0
  8 26  1  0
  8 27  1  0
  9 28  1  0
  9 29  1  0
 10 30  1  0
 10 31  1  0
 11 32  1  0
 11 33  1  0
 12 34  1  0
 12 35  1  0
 14 36  1  0
 15 37  1  0
 16 38  1  0
 17 39  1  0
 18 40  1  0
 19 41  1  0
M  CHG  1  10   1
M  END
>  <UniqueID>  (28) 
27

>  <SMILES>  (28) 
COc1cccc(CC[NH2+]CCc2ccccc2)c1

>  <Energy>  (28) 
34.2289247934214

>  <Genealogy>  (28) 
COc1cccc(CC[NH2+]CCc2ccccc2)c1 (protonated)
COc1cccc(CC[NH2+]CCc2ccccc2)c1 (3D coordinates assigned)
COc1cccc(CC[NH2+]CCc2ccccc2)c1 (optimized conformer: 34.2289247934214 kcal/mol)

>  <smiles>  (28) 
COc1cccc(CCNCCc2ccccc2)c1

>  <score_type>  (28) 
oracle

>  <origin>  (28) 
adg

>  <m_score__min__energy>  (28) 
-5.6600000000000001

>  <m_primary>  (28) 
energy

$$$$
28:0
     RDKit          3D

 32 34  0  0  0  0  0  0  0  0999 V2000
   58.2040   21.5600   45.3040 C   0  0  0  0  0  0  0  0  0  0  0  0
   58.1420   22.5200   46.3530 O   0  0  0  0  0  0  0  0  0  0  0  0
   57.8760   23.8850   46.1620 C   0  0  0  0  0  0  0  0  0  0  0  0
   56.6290   24.4610   46.4650 C   0  0  0  0  0  0  0  0  0  0  0  0
   56.4110   25.8270   46.2560 C   0  0  0  0  0  0  0  0  0  0  0  0
   57.4350   26.6440   45.7410 C   0  0  0  0  0  0  0  0  0  0  0  0
   57.2260   28.0950   45.5130 C   0  0  0  0  0  0  0  0  0  0  0  0
   58.1920   29.0240   45.6910 N   0  0  0  0  0  0  0  0  0  0  0  0
   57.5470   30.1670   45.3690 C   0  0  0  0  0  0  0  0  0  0  0  0
   58.1650   31.5060   45.3980 C   0  0  0  0  0  0  0  0  0  0  0  0
   59.2210   31.7900   46.2800 C   0  0  0  0  0  0  0  0  0  0  0  0
   59.8020   33.0620   46.3020 C   0  0  0  0  0  0  0  0  0  0  0  0
   59.3340   34.0600   45.4430 C   0  0  0  0  0  0  0  0  0  0  0  0
   58.2840   33.7880   44.5620 C   0  0  0  0  0  0  0  0  0  0  0  0
   57.7010   32.5170   44.5370 C   0  0  0  0  0  0  0  0  0  0  0  0
   56.3010   29.9350   45.0290 O   0  0  0  0  0  0  0  0  0  0  0  0
   56.0720   28.6620   45.1080 N   0  0  0  0  0  0  0  0  0  0  0  0
   58.6780   26.0610   45.4400 C   0  0  0  0  0  0  0  0  0  0  0  0
   58.8930   24.6950   45.6500 C   0  0  0  0  0  0  0  0  0  0  0  0
   58.2692   20.5499   45.7347 H   0  0  0  0  0  0  0  0  0  0  0  0
   57.2991   21.6362   44.6833 H   0  0  0  0  0  0  0  0  0  0  0  0
   59.0916   21.7520   44.6833 H   0  0  0  0  0  0  0  0  0  0  0  0
   55.8205   23.8337   46.8686 H   0  0  0  0  0  0  0  0  0  0  0  0
   55.4314   26.2661   46.4961 H   0  0  0  0  0  0  0  0  0  0  0  0
   59.5931   31.0072   46.9574 H   0  0  0  0  0  0  0  0  0  0  0  0
   60.6279   33.2770   46.9960 H   0  0  0  0  0  0  0  0  0  0  0  0
   59.7922   35.0599   45.4604 H   0  0  0  0  0  0  0  0  0  0  0  0
   57.9155   34.5747   43.8872 H   0  0  0  0  0  0  0  0  0  0  0  0
   56.8757   32.3069   43.8408 H   0  0  0  0  0  0  0  0  0  0  0  0
   55.1580   28.2090   44.8890 H   0  0  0  0  0  0  0  0  0  0  0  0
   59.4889   26.6846   45.0357 H   0  0  0  0  0  0  0  0  0  0  0  0
   59.8718   24.2542   45.4099 H   0  0  0  0  0  0  0  0  0  0  0  0
  1  2  1  0
  2  3  1  0
  3  4  2  0
  4  5  1  0
  5  6  2  0
  6  7  1  0
  7  8  1  0
  8  9  2  0
  9 10  1  0
 10 11  2  0
 11 12  1  0
 12 13  2  0
 13 14  1  0
 14 15  2  0
  9 16  1  0
 16 17  1  0
  6 18  1  0
 18 19  2  0
 19  3  1  0
 17  7  2  0
 15 10  1  0
  1 20  1  0
  1 21  1  0
  1 22  1  0
  4 23  1  0
  5 24  1  0
 11 25  1  0
 12 26  1  0
 13 27  1  0
 14 28  1  0
 15 29  1  0
 17 30  1  0
 18 31  1  0
 19 32  1  0
M  CHG  1  17   1
M  END
>  <UniqueID>  (29) 
28

>  <SMILES>  (29) 
COc1ccc(-c2nc(-c3ccccc3)o[nH+]2)cc1

>  <Energy>  (29) 
69.6964103628543

>  <Genealogy>  (29) 
COc1ccc(-c2nc(-c3ccccc3)o[nH+]2)cc1 (protonated)
COc1ccc(-c2nc(-c3ccccc3)o[nH+]2)cc1 (3D coordinates assigned)
COc1ccc(-c2nc(-c3ccccc3)o[nH+]2)cc1 (optimized conformer: 69.6964103628543 kcal/mol)

>  <smiles>  (29) 
COc1ccc(-c2noc(-c3ccccc3)n2)cc1

>  <score_type>  (29) 
oracle

>  <origin>  (29) 
adg

>  <m_score__min__energy>  (29) 
-5.5300000000000002

>  <m_primary>  (29) 
energy

$$$$
29:0
     RDKit          3D

 64 69  0  0  0  0  0  0  0  0999 V2000
   54.9006   28.8210   44.3747 H   0  0  0  0  0  0  0  0  0  0  0  0
   55.8420   29.3750   44.5050 C   0  0  0  0  0  0  0  0  0  0  0  0
   56.6650   29.0770   45.5530 N   0  0  0  0  0  0  0  0  0  0  0  0
   57.8160   29.7790   45.6960 C   0  0  0  0  0  0  0  0  0  0  0  0
   58.7950   29.6450   46.6530 C   0  0  0  0  0  0  0  0  0  0  0  0
   58.8640   28.6770   47.7550 C   0  0  0  0  0  0  0  0  0  0  0  0
   58.0290   27.7360   47.8230 O   0  0  0  0  0  0  0  0  0  0  0  0
   59.9060   28.7850   48.7290 N   0  0  0  0  0  0  0  0  0  0  0  0
   60.4550   29.8770   49.1780 C   0  0  0  0  0  0  0  0  0  0  0  0
   61.5570   30.4610   48.6000 C   0  0  0  0  0  0  0  0  0  0  0  0
   62.1368   30.1028   47.7365 H   0  0  0  0  0  0  0  0  0  0  0  0
   61.7710   31.6060   49.3550 C   0  0  0  0  0  0  0  0  0  0  0  0
   62.8020   32.6940   49.0980 C   0  0  0  0  0  0  0  0  0  0  0  0
   63.7103   32.3717   49.6282 H   0  0  0  0  0  0  0  0  0  0  0  0
   63.1340   32.8650   47.5970 C   0  0  0  0  0  0  0  0  0  0  0  0
   64.0402   33.4815   47.5040 H   0  0  0  0  0  0  0  0  0  0  0  0
   63.2824   31.8619   47.1706 H   0  0  0  0  0  0  0  0  0  0  0  0
   61.9870   33.5460   46.8110 C   0  0  0  0  0  0  0  0  0  0  0  0
   62.3295   34.5287   46.4547 H   0  0  0  0  0  0  0  0  0  0  0  0
   61.7136   32.9013   45.9627 H   0  0  0  0  0  0  0  0  0  0  0  0
   60.7920   33.7310   47.6660 N   0  0  0  0  0  0  0  0  0  0  0  0
   59.5490   34.1290   46.9560 C   0  0  0  0  0  0  0  0  0  0  0  0
   59.3848   35.1879   47.2047 H   0  0  0  0  0  0  0  0  0  0  0  0
   58.3510   33.2860   47.4530 C   0  0  0  0  0  0  0  0  0  0  0  0
   58.6898   32.2532   47.6221 H   0  0  0  0  0  0  0  0  0  0  0  0
   57.9789   33.7411   48.3828 H   0  0  0  0  0  0  0  0  0  0  0  0
   57.1940   33.2690   46.4370 C   0  0  0  0  0  0  0  0  0  0  0  0
   57.3193   32.4108   45.7604 H   0  0  0  0  0  0  0  0  0  0  0  0
   56.2428   33.1864   46.9833 H   0  0  0  0  0  0  0  0  0  0  0  0
   57.1820   34.5070   45.6490 N   0  0  0  0  0  0  0  0  0  0  0  0
   56.3210   34.5060   45.0530 H   0  0  0  0  0  0  0  0  0  0  0  0
   58.3550   34.5970   44.7580 C   0  0  0  0  0  0  0  0  0  0  0  0
   58.1573   33.9980   43.8569 H   0  0  0  0  0  0  0  0  0  0  0  0
   58.5060   35.6602   44.5198 H   0  0  0  0  0  0  0  0  0  0  0  0
   59.6550   34.0820   45.4160 C   0  0  0  0  0  0  0  0  0  0  0  0
   59.8325   33.0438   45.0987 H   0  0  0  0  0  0  0  0  0  0  0  0
   60.4881   34.7276   45.1011 H   0  0  0  0  0  0  0  0  0  0  0  0
   61.0950   34.5930   48.8290 C   0  0  0  0  0  0  0  0  0  0  0  0
   61.3219   35.6084   48.4721 H   0  0  0  0  0  0  0  0  0  0  0  0
   60.2179   34.5987   49.4928 H   0  0  0  0  0  0  0  0  0  0  0  0
   62.3080   34.0580   49.6300 C   0  0  0  0  0  0  0  0  0  0  0  0
   63.1297   34.7856   49.5569 H   0  0  0  0  0  0  0  0  0  0  0  0
   61.9891   33.9184   50.6735 H   0  0  0  0  0  0  0  0  0  0  0  0
   60.8440   31.6770   50.3340 N   0  0  0  0  0  0  0  0  0  0  0  0
   60.0400   30.6320   50.2260 N   0  0  0  0  0  0  0  0  0  0  0  0
   58.8070   30.5630   50.9520 C   0  0  0  0  0  0  0  0  0  0  0  0
   57.8890   31.6240   50.8940 C   0  0  0  0  0  0  0  0  0  0  0  0
   58.1022   32.5000   50.2638 H   0  0  0  0  0  0  0  0  0  0  0  0
   56.7050   31.5700   51.6350 C   0  0  0  0  0  0  0  0  0  0  0  0
   55.9795   32.3945   51.5726 H   0  0  0  0  0  0  0  0  0  0  0  0
   56.4420   30.4680   52.4560 C   0  0  0  0  0  0  0  0  0  0  0  0
   54.9590   30.4050   53.3900 Cl  0  0  0  0  0  0  0  0  0  0  0  0
   57.3680   29.4210   52.5370 C   0  0  0  0  0  0  0  0  0  0  0  0
   57.1638   28.5562   53.1854 H   0  0  0  0  0  0  0  0  0  0  0  0
   58.5520   29.4730   51.7950 C   0  0  0  0  0  0  0  0  0  0  0  0
   59.2849   28.6565   51.8732 H   0  0  0  0  0  0  0  0  0  0  0  0
   59.7460   30.5960   46.2860 C   0  0  0  0  0  0  0  0  0  0  0  0
   60.6890   30.7843   46.8202 H   0  0  0  0  0  0  0  0  0  0  0  0
   59.3370   31.2550   45.1730 N   0  0  0  0  0  0  0  0  0  0  0  0
   58.1650   30.7400   44.8360 N   0  0  0  0  0  0  0  0  0  0  0  0
   57.3960   31.0820   43.7750 C   0  0  0  0  0  0  0  0  0  0  0  0
   57.7060   31.8778   43.0818 H   0  0  0  0  0  0  0  0  0  0  0  0
   56.1910   30.3880   43.5890 C   0  0  0  0  0  0  0  0  0  0  0  0
   55.5303   30.6300   42.7435 H   0  0  0  0  0  0  0  0  0  0  0  0
  1  2  1  0
  2  3  2  0
  3  4  1  0
  4  5  2  0
  5  6  1  0
  6  7  2  0
  6  8  1  0
  8  9  2  0
  9 10  1  0
 10 11  1  0
 10 12  2  0
 12 13  1  0
 13 14  1  0
 13 15  1  0
 15 16  1  0
 15 17  1  0
 15 18  1  0
 18 19  1  0
 18 20  1  0
 18 21  1  0
 21 22  1  0
 22 23  1  0
 22 24  1  0
 24 25  1  0
 24 26  1  0
 24 27  1  0
 27 28  1  0
 27 29  1  0
 27 30  1  0
 30 31  1  0
 30 32  1  0
 32 33  1  0
 32 34  1  0
 32 35  1  0
 35 36  1  0
 35 37  1  0
 21 38  1  0
 38 39  1  0
 38 40  1  0
 38 41  1  0
 41 42  1  0
 41 43  1  0
 12 44  1  0
 44 45  1  0
 45 46  1  0
 46 47  2  0
 47 48  1  0
 47 49  1  0
 49 50  1  0
 49 51  2  0
 51 52  1  0
 51 53  1  0
 53 54  1  0
 53 55  2  0
 55 56  1  0
  5 57  1  0
 57 58  1  0
 57 59  2  0
 59 60  1  0
 60 61  1  0
 61 62  1  0
 61 63  2  0
 63 64  1  0
 63  2  1  0
 60  4  1  0
 45  9  1  0
 55 46  1  0
 41 13  1  0
 35 22  1  0
M  CHG  1  44  -1
M  END
>  <UniqueID>  (30) 
29

>  <SMILES>  (30) 
O=C(/N=c1/cc(C2CCN(C3CCNCC3)CC2)[n-]n1-c1ccc(Cl)cc1)c1cnn2cccnc12

>  <Energy>  (30) 
169.25727777317223

>  <Genealogy>  (30) 
O=C(N=c1cc(C2CCN(C3CCNCC3)CC2)[n-]n1-c1ccc(Cl)cc1)c1cnn2cccnc12 (protonated)
O=C(/N=c1/cc(C2CCN(C3CCNCC3)CC2)[n-]n1-c1ccc(Cl)cc1)c1cnn2cccnc12 (cis-trans isomerization)
O=C(/N=c1/cc(C2CCN(C3CCNCC3)CC2)[n-]n1-c1ccc(Cl)cc1)c1cnn2cccnc12 (3D coordinates assigned)
O=C(/N=c1/cc(C2CCN(C3CCNCC3)CC2)[n-]n1-c1ccc(Cl)cc1)c1cnn2cccnc12 (nonaromatic ring conformer: 169.25727777317223 kcal/mol)

>  <smiles>  (30) 
O=C(N=c1cc(C2CCN(C3CCNCC3)CC2)[nH]n1-c1ccc(Cl)cc1)c1cnn2cccnc12

>  <score_type>  (30) 
oracle

>  <origin>  (30) 
adg

>  <m_score__min__energy>  (30) 
-11.69

>  <m_primary>  (30) 
energy

$$$$
30:0
     RDKit          3D

 51 53  0  0  0  0  0  0  0  0999 V2000
   55.7130   29.5230   44.3640 C   0  0  0  0  0  0  0  0  0  0  0  0
   56.0180   28.4200   45.2110 O   0  0  0  0  0  0  0  0  0  0  0  0
   57.3010   28.1130   45.6940 C   0  0  0  0  0  0  0  0  0  0  0  0
   58.3640   29.0340   45.6150 C   0  0  0  0  0  0  0  0  0  0  0  0
   59.6340   28.7010   46.1080 C   0  0  0  0  0  0  0  0  0  0  0  0
   60.7770   29.6760   45.9850 C   0  0  0  0  0  0  0  0  0  0  0  0
   60.9410   30.4350   47.2350 N   0  0  0  0  0  0  0  0  0  0  0  0
   59.7070   31.1430   47.6160 C   0  0  0  0  0  0  0  0  0  0  0  0
   59.5520   32.4480   46.8720 C   0  0  0  0  0  0  0  0  0  0  0  0
   60.4370   33.5140   47.1090 C   0  0  0  0  0  0  0  0  0  0  0  0
   60.3040   34.7110   46.4000 C   0  0  0  0  0  0  0  0  0  0  0  0
   59.2900   34.8540   45.4480 C   0  0  0  0  0  0  0  0  0  0  0  0
   59.1620   36.0160   44.7610 F   0  0  0  0  0  0  0  0  0  0  0  0
   58.4080   33.7960   45.2040 C   0  0  0  0  0  0  0  0  0  0  0  0
   58.5390   32.5970   45.9110 C   0  0  0  0  0  0  0  0  0  0  0  0
   59.8500   27.4310   46.6580 C   0  0  0  0  0  0  0  0  0  0  0  0
   58.8020   26.5120   46.7400 C   0  0  0  0  0  0  0  0  0  0  0  0
   57.5260   26.8470   46.2670 C   0  0  0  0  0  0  0  0  0  0  0  0
   56.2160   25.6680   46.3590 S   0  0  0  0  0  0  0  0  0  0  0  0
   54.9220   26.3370   45.9830 O   0  0  0  0  0  0  0  0  0  0  0  0
   56.0810   25.1290   47.7570 O   0  0  0  0  0  0  0  0  0  0  0  0
   56.5640   24.3340   45.2660 C   0  0  0  0  0  0  0  0  0  0  0  0
   57.6680   23.4980   45.4840 C   0  0  0  0  0  0  0  0  0  0  0  0
   57.9210   22.4260   44.6230 C   0  0  0  0  0  0  0  0  0  0  0  0
   57.0770   22.1860   43.5270 C   0  0  0  0  0  0  0  0  0  0  0  0
   57.3240   21.0120   42.6270 C   0  0  0  0  0  0  0  0  0  0  0  0
   55.9620   23.0110   43.3230 C   0  0  0  0  0  0  0  0  0  0  0  0
   55.7090   24.0820   44.1850 C   0  0  0  0  0  0  0  0  0  0  0  0
   55.4700   30.4017   44.9795 H   0  0  0  0  0  0  0  0  0  0  0  0
   56.5823   29.7491   43.7291 H   0  0  0  0  0  0  0  0  0  0  0  0
   54.8510   29.2704   43.7291 H   0  0  0  0  0  0  0  0  0  0  0  0
   58.1965   30.0227   45.1628 H   0  0  0  0  0  0  0  0  0  0  0  0
   61.7038   29.1229   45.7726 H   0  0  0  0  0  0  0  0  0  0  0  0
   60.5600   30.3786   45.1669 H   0  0  0  0  0  0  0  0  0  0  0  0
   61.2350   29.7910   48.0070 H   0  0  0  0  0  0  0  0  0  0  0  0
   61.6940   31.1500   47.1010 H   0  0  0  0  0  0  0  0  0  0  0  0
   58.8439   30.4999   47.3891 H   0  0  0  0  0  0  0  0  0  0  0  0
   59.7625   31.3689   48.6911 H   0  0  0  0  0  0  0  0  0  0  0  0
   61.2375   33.4056   47.8556 H   0  0  0  0  0  0  0  0  0  0  0  0
   60.9985   35.5423   46.5913 H   0  0  0  0  0  0  0  0  0  0  0  0
   57.6103   33.9076   44.4549 H   0  0  0  0  0  0  0  0  0  0  0  0
   57.8453   31.7665   45.7135 H   0  0  0  0  0  0  0  0  0  0  0  0
   60.8493   27.1565   47.0268 H   0  0  0  0  0  0  0  0  0  0  0  0
   58.9790   25.5189   47.1786 H   0  0  0  0  0  0  0  0  0  0  0  0
   58.3379   23.6862   46.3359 H   0  0  0  0  0  0  0  0  0  0  0  0
   58.7840   21.7686   44.8048 H   0  0  0  0  0  0  0  0  0  0  0  0
   57.5125   20.1160   43.2366 H   0  0  0  0  0  0  0  0  0  0  0  0
   56.4414   20.8446   41.9922 H   0  0  0  0  0  0  0  0  0  0  0  0
   58.1992   21.2144   41.9922 H   0  0  0  0  0  0  0  0  0  0  0  0
   55.2828   22.8145   42.4803 H   0  0  0  0  0  0  0  0  0  0  0  0
   54.8359   24.7289   44.0141 H   0  0  0  0  0  0  0  0  0  0  0  0
  1  2  1  0
  2  3  1  0
  3  4  2  0
  4  5  1  0
  5  6  1  0
  6  7  1  0
  7  8  1  0
  8  9  1  0
  9 10  2  0
 10 11  1  0
 11 12  2  0
 12 13  1  0
 12 14  1  0
 14 15  2  0
  5 16  2  0
 16 17  1  0
 17 18  2  0
 18 19  1  0
 19 20  2  0
 19 21  2  0
 19 22  1  0
 22 23  2  0
 23 24  1  0
 24 25  2  0
 25 26  1  0
 25 27  1  0
 27 28  2  0
 18  3  1  0
 28 22  1  0
 15  9  1  0
  1 29  1  0
  1 30  1  0
  1 31  1  0
  4 32  1  0
  6 33  1  0
  6 34  1  0
  7 35  1  0
  7 36  1  0
  8 37  1  0
  8 38  1  0
 10 39  1  0
 11 40  1  0
 14 41  1  0
 15 42  1  0
 16 43  1  0
 17 44  1  0
 23 45  1  0
 24 46  1  0
 26 47  1  0
 26 48  1  0
 26 49  1  0
 27 50  1  0
 28 51  1  0
M  CHG  1   7   1
M  END
>  <UniqueID>  (31) 
30

>  <SMILES>  (31) 
COc1cc(C[NH2+]Cc2ccc(F)cc2)ccc1S(=O)(=O)c1ccc(C)cc1

>  <Energy>  (31) 
52.75507549146017

>  <Genealogy>  (31) 
COc1cc(C[NH2+]Cc2ccc(F)cc2)ccc1S(=O)(=O)c1ccc(C)cc1 (protonated)
COc1cc(C[NH2+]Cc2ccc(F)cc2)ccc1S(=O)(=O)c1ccc(C)cc1 (3D coordinates assigned)
COc1cc(C[NH2+]Cc2ccc(F)cc2)ccc1S(=O)(=O)c1ccc(C)cc1 (optimized conformer: 52.75507549146017 kcal/mol)

>  <smiles>  (31) 
COc1cc(CNCc2ccc(F)cc2)ccc1S(=O)(=O)c1ccc(C)cc1

>  <score_type>  (31) 
oracle

>  <origin>  (31) 
adg

>  <m_score__min__energy>  (31) 
-7.25

>  <m_primary>  (31) 
energy

$$$$
31:0
     RDKit          3D

 35 37  0  0  0  0  0  0  0  0999 V2000
   62.4070   33.2200   47.1720 C   0  0  0  0  0  0  0  0  0  0  0  0
   61.0200   33.0320   46.9110 O   0  0  0  0  0  0  0  0  0  0  0  0
   60.4060   31.7810   46.7390 C   0  0  0  0  0  0  0  0  0  0  0  0
   61.1110   30.5750   46.8980 C   0  0  0  0  0  0  0  0  0  0  0  0
   60.4680   29.3490   46.7200 C   0  0  0  0  0  0  0  0  0  0  0  0
   59.1060   29.3020   46.3800 C   0  0  0  0  0  0  0  0  0  0  0  0
   58.4220   27.9960   46.1930 C   0  0  0  0  0  0  0  0  0  0  0  0
   57.0190   27.9230   46.1780 C   0  0  0  0  0  0  0  0  0  0  0  0
   56.3650   26.6990   46.0030 C   0  0  0  0  0  0  0  0  0  0  0  0
   54.9740   26.6800   46.0000 O   0  0  0  0  0  0  0  0  0  0  0  0
   57.1150   25.5140   45.8370 C   0  0  0  0  0  0  0  0  0  0  0  0
   56.5270   24.2450   45.6540 C   0  0  0  0  0  0  0  0  0  0  0  0
   55.2740   24.0980   45.6300 O   0  0  0  0  0  0  0  0  0  0  0  0
   57.3440   23.1260   45.4960 C   0  0  0  0  0  0  0  0  0  0  0  0
   58.7290   23.2870   45.5220 C   0  0  0  0  0  0  0  0  0  0  0  0
   59.2650   24.4890   45.6960 O   0  0  0  0  0  0  0  0  0  0  0  0
   58.5310   25.5870   45.8520 C   0  0  0  0  0  0  0  0  0  0  0  0
   59.1700   26.8180   46.0290 C   0  0  0  0  0  0  0  0  0  0  0  0
   58.4010   30.5070   46.2210 C   0  0  0  0  0  0  0  0  0  0  0  0
   59.0450   31.7480   46.3980 C   0  0  0  0  0  0  0  0  0  0  0  0
   58.3680   32.9680   46.2440 O   0  0  0  0  0  0  0  0  0  0  0  0
   58.5060   33.8330   45.1210 C   0  0  0  0  0  0  0  0  0  0  0  0
   62.5758   33.2429   48.2587 H   0  0  0  0  0  0  0  0  0  0  0  0
   62.9790   32.3912   46.7295 H   0  0  0  0  0  0  0  0  0  0  0  0
   62.7377   34.1712   46.7295 H   0  0  0  0  0  0  0  0  0  0  0  0
   62.1779   30.5978   47.1648 H   0  0  0  0  0  0  0  0  0  0  0  0
   61.0319   28.4131   46.8469 H   0  0  0  0  0  0  0  0  0  0  0  0
   56.4267   28.8411   46.3056 H   0  0  0  0  0  0  0  0  0  0  0  0
   56.9017   22.1291   45.3527 H   0  0  0  0  0  0  0  0  0  0  0  0
   59.3825   22.4110   45.3973 H   0  0  0  0  0  0  0  0  0  0  0  0
   60.2690   26.8646   46.0400 H   0  0  0  0  0  0  0  0  0  0  0  0
   57.3339   30.4814   45.9553 H   0  0  0  0  0  0  0  0  0  0  0  0
   58.6704   34.8632   45.4697 H   0  0  0  0  0  0  0  0  0  0  0  0
   59.3640   33.5104   44.5130 H   0  0  0  0  0  0  0  0  0  0  0  0
   57.5902   33.7934   44.5130 H   0  0  0  0  0  0  0  0  0  0  0  0
  1  2  1  0
  2  3  1  0
  3  4  2  0
  4  5  1  0
  5  6  2  0
  6  7  1  0
  7  8  2  0
  8  9  1  0
  9 10  1  0
  9 11  2  0
 11 12  1  0
 12 13  2  0
 12 14  1  0
 14 15  2  0
 15 16  1  0
 16 17  1  0
 17 18  2  0
  6 19  1  0
 19 20  2  0
 20 21  1  0
 21 22  1  0
 20  3  1  0
 18  7  1  0
 17 11  1  0
  1 23  1  0
  1 24  1  0
  1 25  1  0
  4 26  1  0
  5 27  1  0
  8 28  1  0
 14 29  1  0
 15 30  1  0
 18 31  1  0
 19 32  1  0
 22 33  1  0
 22 34  1  0
 22 35  1  0
M  CHG  1  10  -1
M  END
>  <UniqueID>  (32) 
31

>  <SMILES>  (32) 
COc1ccc(-c2cc([O-])c3c(=O)ccoc3c2)cc1OC

>  <Energy>  (32) 
49.00289873462392

>  <Genealogy>  (32) 
COc1ccc(-c2cc([O-])c3c(=O)ccoc3c2)cc1OC (protonated)
COc1ccc(-c2cc([O-])c3c(=O)ccoc3c2)cc1OC (3D coordinates assigned)
COc1ccc(-c2cc([O-])c3c(=O)ccoc3c2)cc1OC (optimized conformer: 49.00289873462392 kcal/mol)

>  <smiles>  (32) 
COc1ccc(-c2cc(O)c3c(=O)ccoc3c2)cc1OC

>  <score_type>  (32) 
oracle

>  <origin>  (32) 
adg

>  <m_score__min__energy>  (32) 
-9.3399999999999999

>  <m_primary>  (32) 
energy

$$$$
32:0
     RDKit          3D

 36 37  0  0  0  0  0  0  0  0999 V2000
   57.8300   26.1940   44.0180 C   0  0  0  0  0  0  0  0  0  0  0  0
   58.0650   27.2640   42.9490 C   0  0  0  0  0  0  0  0  0  0  0  0
   57.7020   28.6160   43.4290 N   0  0  0  0  0  0  0  0  0  0  0  0
   56.6290   29.2460   42.6380 C   0  0  0  0  0  0  0  0  0  0  0  0
   56.6390   30.7740   42.7510 C   0  0  0  0  0  0  0  0  0  0  0  0
   57.9650   31.2160   43.0310 O   0  0  0  0  0  0  0  0  0  0  0  0
   58.3130   32.0920   44.0720 C   0  0  0  0  0  0  0  0  0  0  0  0
   58.5110   33.4660   43.8430 C   0  0  0  0  0  0  0  0  0  0  0  0
   58.8300   34.3230   44.8940 C   0  0  0  0  0  0  0  0  0  0  0  0
   58.9760   33.8250   46.1930 C   0  0  0  0  0  0  0  0  0  0  0  0
   59.3140   34.6930   47.2440 C   0  0  0  0  0  0  0  0  0  0  0  0
   59.4870   34.1990   48.5370 C   0  0  0  0  0  0  0  0  0  0  0  0
   59.3350   32.8360   48.7910 C   0  0  0  0  0  0  0  0  0  0  0  0
   58.9950   31.9600   47.7580 C   0  0  0  0  0  0  0  0  0  0  0  0
   58.7930   32.4410   46.4470 C   0  0  0  0  0  0  0  0  0  0  0  0
   58.4450   31.5770   45.3770 C   0  0  0  0  0  0  0  0  0  0  0  0
   58.2060   30.1780   45.6010 N   0  0  0  0  0  0  0  0  0  0  0  0
   57.0420   29.7610   45.7710 O   0  0  0  0  0  0  0  0  0  0  0  0
   59.2250   29.2680   45.4340 O   0  0  0  0  0  0  0  0  0  0  0  0
   57.9291   26.6451   45.0163 H   0  0  0  0  0  0  0  0  0  0  0  0
   56.8188   25.7766   43.9030 H   0  0  0  0  0  0  0  0  0  0  0  0
   58.5733   25.3913   43.9030 H   0  0  0  0  0  0  0  0  0  0  0  0
   59.1291   27.2599   42.6702 H   0  0  0  0  0  0  0  0  0  0  0  0
   57.4266   27.0273   42.0851 H   0  0  0  0  0  0  0  0  0  0  0  0
   57.4380   28.6120   44.4420 H   0  0  0  0  0  0  0  0  0  0  0  0
   58.5470   29.2290   43.3440 H   0  0  0  0  0  0  0  0  0  0  0  0
   56.7601   28.9692   41.5815 H   0  0  0  0  0  0  0  0  0  0  0  0
   55.6670   28.8872   43.0327 H   0  0  0  0  0  0  0  0  0  0  0  0
   56.2969   31.2150   41.8031 H   0  0  0  0  0  0  0  0  0  0  0  0
   55.9662   31.0884   43.5625 H   0  0  0  0  0  0  0  0  0  0  0  0
   58.4129   33.8677   42.8237 H   0  0  0  0  0  0  0  0  0  0  0  0
   58.9678   35.3972   44.7013 H   0  0  0  0  0  0  0  0  0  0  0  0
   59.4429   35.7674   47.0467 H   0  0  0  0  0  0  0  0  0  0  0  0
   59.7436   34.8853   49.3574 H   0  0  0  0  0  0  0  0  0  0  0  0
   59.4837   32.4492   49.8100 H   0  0  0  0  0  0  0  0  0  0  0  0
   58.8837   30.8860   47.9681 H   0  0  0  0  0  0  0  0  0  0  0  0
  1  2  1  0
  2  3  1  0
  3  4  1  0
  4  5  1  0
  5  6  1  0
  6  7  1  0
  7  8  2  0
  8  9  1  0
  9 10  2  0
 10 11  1  0
 11 12  2  0
 12 13  1  0
 13 14  2  0
 14 15  1  0
 15 16  2  0
 16 17  1  0
 17 18  2  0
 17 19  1  0
 16  7  1  0
 15 10  1  0
  1 20  1  0
  1 21  1  0
  1 22  1  0
  2 23  1  0
  2 24  1  0
  3 25  1  0
  3 26  1  0
  4 27  1  0
  4 28  1  0
  5 29  1  0
  5 30  1  0
  8 31  1  0
  9 32  1  0
 11 33  1  0
 12 34  1  0
 13 35  1  0
 14 36  1  0
M  CHG  3   3   1  17   1  19  -1
M  END
>  <UniqueID>  (33) 
32

>  <SMILES>  (33) 
CC[NH2+]CCOc1ccc2ccccc2c1[N+](=O)[O-]

>  <Energy>  (33) 
45.077215082065734

>  <Genealogy>  (33) 
CC[NH2+]CCOc1ccc2ccccc2c1[N+](=O)[O-] (protonated)
CC[NH2+]CCOc1ccc2ccccc2c1[N+](=O)[O-] (3D coordinates assigned)
CC[NH2+]CCOc1ccc2ccccc2c1[N+](=O)[O-] (optimized conformer: 45.077215082065734 kcal/mol)

>  <smiles>  (33) 
CCNCCOc1ccc2ccccc2c1[N+](=O)[O-]

>  <score_type>  (33) 
oracle

>  <origin>  (33) 
adg

>  <m_score__min__energy>  (33) 
-4.6399999999999997

>  <m_primary>  (33) 
energy

$$$$
33:0
     RDKit          3D

 33 35  0  0  0  0  0  0  0  0999 V2000
   56.3800   24.1730   46.6010 C   0  0  0  0  0  0  0  0  0  0  0  0
   56.2950   25.4960   47.1210 O   0  0  0  0  0  0  0  0  0  0  0  0
   57.0700   26.5740   46.6720 C   0  0  0  0  0  0  0  0  0  0  0  0
   58.3020   26.9160   47.2630 C   0  0  0  0  0  0  0  0  0  0  0  0
   59.0380   28.0020   46.7790 C   0  0  0  0  0  0  0  0  0  0  0  0
   58.5610   28.7590   45.6980 C   0  0  0  0  0  0  0  0  0  0  0  0
   59.3370   29.9550   45.2090 C   0  0  0  0  0  0  0  0  0  0  0  0
   58.7570   31.1900   45.7390 N   0  0  0  0  0  0  0  0  0  0  0  0
   57.5710   31.8090   45.2300 C   0  0  0  0  0  0  0  0  0  0  0  0
   56.6990   31.2130   44.5430 O   0  0  0  0  0  0  0  0  0  0  0  0
   57.5330   33.2130   45.6000 C   0  0  0  0  0  0  0  0  0  0  0  0
   56.6360   34.0510   45.3180 O   0  0  0  0  0  0  0  0  0  0  0  0
   58.7500   33.4490   46.3540 C   0  0  0  0  0  0  0  0  0  0  0  0
   59.2210   34.6160   46.9490 C   0  0  0  0  0  0  0  0  0  0  0  0
   60.4390   34.5580   47.6450 C   0  0  0  0  0  0  0  0  0  0  0  0
   61.1490   33.3450   47.7390 C   0  0  0  0  0  0  0  0  0  0  0  0
   60.6550   32.1770   47.1330 C   0  0  0  0  0  0  0  0  0  0  0  0
   61.3260   31.0100   47.2800 F   0  0  0  0  0  0  0  0  0  0  0  0
   59.4490   32.2520   46.4210 C   0  0  0  0  0  0  0  0  0  0  0  0
   57.3310   28.4200   45.1150 C   0  0  0  0  0  0  0  0  0  0  0  0
   56.5950   27.3350   45.5980 C   0  0  0  0  0  0  0  0  0  0  0  0
   56.4262   23.4544   47.4326 H   0  0  0  0  0  0  0  0  0  0  0  0
   55.4935   23.9637   45.9844 H   0  0  0  0  0  0  0  0  0  0  0  0
   57.2860   24.0789   45.9844 H   0  0  0  0  0  0  0  0  0  0  0  0
   58.6866   26.3266   48.1084 H   0  0  0  0  0  0  0  0  0  0  0  0
   59.9973   28.2647   47.2488 H   0  0  0  0  0  0  0  0  0  0  0  0
   60.3812   29.8716   45.5446 H   0  0  0  0  0  0  0  0  0  0  0  0
   59.2947   29.9833   44.1102 H   0  0  0  0  0  0  0  0  0  0  0  0
   58.6552   35.5565   46.8760 H   0  0  0  0  0  0  0  0  0  0  0  0
   60.8412   35.4651   48.1197 H   0  0  0  0  0  0  0  0  0  0  0  0
   62.0993   33.3116   48.2920 H   0  0  0  0  0  0  0  0  0  0  0  0
   56.9436   29.0119   44.2726 H   0  0  0  0  0  0  0  0  0  0  0  0
   55.6337   27.0767   45.1299 H   0  0  0  0  0  0  0  0  0  0  0  0
  1  2  1  0
  2  3  1  0
  3  4  2  0
  4  5  1  0
  5  6  2  0
  6  7  1  0
  7  8  1  0
  8  9  1  0
  9 10  2  0
  9 11  1  0
 11 12  2  0
 11 13  1  0
 13 14  2  0
 14 15  1  0
 15 16  2  0
 16 17  1  0
 17 18  1  0
 17 19  2  0
  6 20  1  0
 20 21  2  0
 21  3  1  0
 19  8  1  0
 19 13  1  0
  1 22  1  0
  1 23  1  0
  1 24  1  0
  4 25  1  0
  5 26  1  0
  7 27  1  0
  7 28  1  0
 14 29  1  0
 15 30  1  0
 16 31  1  0
 20 32  1  0
 21 33  1  0
M  END
>  <UniqueID>  (34) 
33

>  <SMILES>  (34) 
COc1ccc(CN2C(=O)C(=O)c3cccc(F)c32)cc1

>  <Energy>  (34) 
66.37553396239926

>  <Genealogy>  (34) 
COc1ccc(CN2C(=O)C(=O)c3cccc(F)c32)cc1 (3D coordinates assigned)
COc1ccc(CN2C(=O)C(=O)c3cccc(F)c32)cc1 (nonaromatic ring conformer: 66.37553396239926 kcal/mol)

>  <smiles>  (34) 
COc1ccc(CN2C(=O)C(=O)c3cccc(F)c32)cc1

>  <score_type>  (34) 
oracle

>  <origin>  (34) 
adg

>  <m_score__min__energy>  (34) 
-6.71

>  <m_primary>  (34) 
energy

$$$$
34:0
     RDKit          3D

 20 20  0  0  0  0  0  0  0  0999 V2000
   54.9012   30.7459   43.6378 H   0  0  0  0  0  0  0  0  0  0  0  0
   55.7300   30.1600   44.0620 C   0  0  0  0  0  0  0  0  0  0  0  0
   55.5310   29.0890   44.8760 N   0  0  0  0  0  0  0  0  0  0  0  0
   56.7030   28.5380   45.2650 C   0  0  0  0  0  0  0  0  0  0  0  0
   56.8050   27.5020   46.0430 N   0  0  0  0  0  0  0  0  0  0  0  0
   56.0200   26.3010   45.9580 C   0  0  0  0  0  0  0  0  0  0  0  0
   54.7600   26.3410   45.9880 O   0  0  0  0  0  0  0  0  0  0  0  0
   56.7130   24.9830   45.7960 C   0  0  0  0  0  0  0  0  0  0  0  0
   55.9780   24.1753   45.9279 H   0  0  0  0  0  0  0  0  0  0  0  0
   57.5092   24.9191   46.5523 H   0  0  0  0  0  0  0  0  0  0  0  0
   57.3580   24.8470   44.4100 C   0  0  0  0  0  0  0  0  0  0  0  0
   58.3792   24.4569   44.5322 H   0  0  0  0  0  0  0  0  0  0  0  0
   57.3604   25.8424   43.9418 H   0  0  0  0  0  0  0  0  0  0  0  0
   56.5780   23.9030   43.4950 C   0  0  0  0  0  0  0  0  0  0  0  0
   55.9955   23.1980   44.1063 H   0  0  0  0  0  0  0  0  0  0  0  0
   55.8962   24.4879   42.8601 H   0  0  0  0  0  0  0  0  0  0  0  0
   57.2810   23.3438   42.8601 H   0  0  0  0  0  0  0  0  0  0  0  0
   58.0310   29.3450   44.6240 S   0  0  0  0  0  0  0  0  0  0  0  0
   57.0640   30.4550   43.8090 C   0  0  0  0  0  0  0  0  0  0  0  0
   57.7070   31.8790   42.7180 Br  0  0  0  0  0  0  0  0  0  0  0  0
  1  2  1  0
  2  3  1  0
  3  4  1  0
  4  5  2  0
  5  6  1  0
  6  7  2  0
  6  8  1  0
  8  9  1  0
  8 10  1  0
  8 11  1  0
 11 12  1  0
 11 13  1  0
 11 14  1  0
 14 15  1  0
 14 16  1  0
 14 17  1  0
  4 18  1  0
 18 19  1  0
 19 20  1  0
 19  2  2  0
M  CHG  1   3  -1
M  END
>  <UniqueID>  (35) 
34

>  <SMILES>  (35) 
CCCC(=O)/N=c1\[n-]cc(Br)s1

>  <Energy>  (35) 
44.56640634032886

>  <Genealogy>  (35) 
CCCC(=O)N=c1[n-]cc(Br)s1 (protonated)
CCCC(=O)/N=c1\[n-]cc(Br)s1 (cis-trans isomerization)
CCCC(=O)/N=c1\[n-]cc(Br)s1 (3D coordinates assigned)
CCCC(=O)/N=c1\[n-]cc(Br)s1 (optimized conformer: 44.56640634032886 kcal/mol)

>  <smiles>  (35) 
CCCC(=O)N=c1[nH]cc(Br)s1

>  <score_type>  (35) 
oracle

>  <origin>  (35) 
adg

>  <m_score__min__energy>  (35) 
-7.8200000000000003

>  <m_primary>  (35) 
energy

$$$$
35:0
     RDKit          3D

 40 41  0  0  0  0  0  0  0  0999 V2000
   55.4590   24.9770   45.6380 C   0  0  0  0  0  0  0  0  0  0  0  0
   55.8370   26.3180   45.9290 O   0  0  0  0  0  0  0  0  0  0  0  0
   57.1300   26.7220   46.3020 C   0  0  0  0  0  0  0  0  0  0  0  0
   57.7760   26.1690   47.4230 C   0  0  0  0  0  0  0  0  0  0  0  0
   59.0710   26.5590   47.7540 C   0  0  0  0  0  0  0  0  0  0  0  0
   59.7380   27.5030   46.9800 C   0  0  0  0  0  0  0  0  0  0  0  0
   59.1110   28.0920   45.8750 C   0  0  0  0  0  0  0  0  0  0  0  0
   60.0710   29.2810   44.9080 S   0  0  0  0  0  0  0  0  0  0  0  0
   59.2300   30.7350   45.5670 C   0  0  0  0  0  0  0  0  0  0  0  0
   59.3810   31.0480   46.9260 C   0  0  0  0  0  0  0  0  0  0  0  0
   58.7050   32.1360   47.4840 C   0  0  0  0  0  0  0  0  0  0  0  0
   57.8890   32.9350   46.6830 C   0  0  0  0  0  0  0  0  0  0  0  0
   57.7660   32.6630   45.3190 C   0  0  0  0  0  0  0  0  0  0  0  0
   58.4470   31.5780   44.7440 C   0  0  0  0  0  0  0  0  0  0  0  0
   58.3810   31.3910   43.3250 N   0  0  0  0  0  0  0  0  0  0  0  0
   57.7930   27.7010   45.5230 C   0  0  0  0  0  0  0  0  0  0  0  0
   57.1480   28.2330   44.3420 N   0  0  0  0  0  0  0  0  0  0  0  0
   56.2140   29.3070   44.7130 C   0  0  0  0  0  0  0  0  0  0  0  0
   55.7280   30.0880   43.4840 C   0  0  0  0  0  0  0  0  0  0  0  0
   56.4400   29.6640   42.2810 N   0  0  0  0  0  0  0  0  0  0  0  0
   55.3041   24.4275   46.5782 H   0  0  0  0  0  0  0  0  0  0  0  0
   54.5259   24.9773   45.0554 H   0  0  0  0  0  0  0  0  0  0  0  0
   56.2548   24.4899   45.0554 H   0  0  0  0  0  0  0  0  0  0  0  0
   57.2546   25.4238   48.0418 H   0  0  0  0  0  0  0  0  0  0  0  0
   59.5685   26.1190   48.6308 H   0  0  0  0  0  0  0  0  0  0  0  0
   60.7681   27.7896   47.2385 H   0  0  0  0  0  0  0  0  0  0  0  0
   60.0373   30.4315   47.5578 H   0  0  0  0  0  0  0  0  0  0  0  0
   58.8162   32.3625   48.5547 H   0  0  0  0  0  0  0  0  0  0  0  0
   57.3419   33.7801   47.1263 H   0  0  0  0  0  0  0  0  0  0  0  0
   57.1306   33.3037   44.6899 H   0  0  0  0  0  0  0  0  0  0  0  0
   58.3470   30.4300   42.9170 H   0  0  0  0  0  0  0  0  0  0  0  0
   58.2840   32.1960   42.6670 H   0  0  0  0  0  0  0  0  0  0  0  0
   57.8680   28.6010   43.6780 H   0  0  0  0  0  0  0  0  0  0  0  0
   56.6440   27.4750   43.8370 H   0  0  0  0  0  0  0  0  0  0  0  0
   55.3444   28.8635   45.2201 H   0  0  0  0  0  0  0  0  0  0  0  0
   56.7432   30.0070   45.3763 H   0  0  0  0  0  0  0  0  0  0  0  0
   54.6513   29.9096   43.3468 H   0  0  0  0  0  0  0  0  0  0  0  0
   55.9227   31.1581   43.6484 H   0  0  0  0  0  0  0  0  0  0  0  0
   57.3740   29.2880   42.5660 H   0  0  0  0  0  0  0  0  0  0  0  0
   55.9180   28.8550   41.8700 H   0  0  0  0  0  0  0  0  0  0  0  0
  1  2  1  0
  2  3  1  0
  3  4  2  0
  4  5  1  0
  5  6  2  0
  6  7  1  0
  7  8  1  0
  8  9  1  0
  9 10  2  0
 10 11  1  0
 11 12  2  0
 12 13  1  0
 13 14  2  0
 14 15  1  0
  7 16  2  0
 16 17  1  0
 17 18  1  0
 18 19  1  0
 19 20  1  0
 16  3  1  0
 14  9  1  0
  1 21  1  0
  1 22  1  0
  1 23  1  0
  4 24  1  0
  5 25  1  0
  6 26  1  0
 10 27  1  0
 11 28  1  0
 12 29  1  0
 13 30  1  0
 15 31  1  0
 15 32  1  0
 17 33  1  0
 17 34  1  0
 18 35  1  0
 18 36  1  0
 19 37  1  0
 19 38  1  0
 20 39  1  0
 20 40  1  0
M  CHG  1  17   1
M  END
>  <UniqueID>  (36) 
35

>  <SMILES>  (36) 
COc1cccc(Sc2ccccc2N)c1[NH2+]CCN

>  <Energy>  (36) 
36.993570210664934

>  <Genealogy>  (36) 
COc1cccc(Sc2ccccc2N)c1[NH2+]CCN (protonated)
COc1cccc(Sc2ccccc2N)c1[NH2+]CCN (3D coordinates assigned)
COc1cccc(Sc2ccccc2N)c1[NH2+]CCN (optimized conformer: 36.993570210664934 kcal/mol)

>  <smiles>  (36) 
COc1cccc(Sc2ccccc2N)c1NCCN

>  <score_type>  (36) 
oracle

>  <origin>  (36) 
adg

>  <m_score__min__energy>  (36) 
-4.5599999999999996

>  <m_primary>  (36) 
energy

$$$$
36:0
     RDKit          3D

 47 50  0  0  0  0  0  0  0  0999 V2000
   56.2430   27.4110   45.6250 C   0  0  0  0  0  0  0  0  0  0  0  0
   55.6570   28.6620   45.1650 N   0  0  0  0  0  0  0  0  0  0  0  0
   56.4270   29.6860   44.5300 C   0  0  0  0  0  0  0  0  0  0  0  0
   55.8920   30.7900   44.2280 O   0  0  0  0  0  0  0  0  0  0  0  0
   57.8780   29.4560   44.2440 C   0  0  0  0  0  0  0  0  0  0  0  0
   58.8400   29.4370   45.7950 S   0  0  0  0  0  0  0  0  0  0  0  0
   58.7250   31.2110   46.0590 C   0  0  0  0  0  0  0  0  0  0  0  0
   58.2330   32.0800   45.1580 N   0  0  0  0  0  0  0  0  0  0  0  0
   58.3280   33.2980   45.6680 N   0  0  0  0  0  0  0  0  0  0  0  0
   58.8930   33.1540   46.8870 C   0  0  0  0  0  0  0  0  0  0  0  0
   59.1130   34.2960   47.8330 C   0  0  0  0  0  0  0  0  0  0  0  0
   60.4640   34.1740   48.4600 C   0  0  0  0  0  0  0  0  0  0  0  0
   60.6510   34.1890   49.8070 N   0  0  0  0  0  0  0  0  0  0  0  0
   61.9690   33.9630   49.9180 C   0  0  0  0  0  0  0  0  0  0  0  0
   62.7210   33.8590   51.0880 C   0  0  0  0  0  0  0  0  0  0  0  0
   64.0980   33.5850   50.9580 C   0  0  0  0  0  0  0  0  0  0  0  0
   64.6760   33.4200   49.6760 C   0  0  0  0  0  0  0  0  0  0  0  0
   63.8840   33.5330   48.5150 C   0  0  0  0  0  0  0  0  0  0  0  0
   62.5270   33.8100   48.6850 C   0  0  0  0  0  0  0  0  0  0  0  0
   61.5900   33.9350   47.7340 N   0  0  0  0  0  0  0  0  0  0  0  0
   59.1370   31.8540   47.1660 N   0  0  0  0  0  0  0  0  0  0  0  0
   59.7440   31.2910   48.3360 C   0  0  0  0  0  0  0  0  0  0  0  0
   58.9970   31.1990   49.5190 C   0  0  0  0  0  0  0  0  0  0  0  0
   59.5680   30.6700   50.6780 C   0  0  0  0  0  0  0  0  0  0  0  0
   60.8900   30.2260   50.6640 C   0  0  0  0  0  0  0  0  0  0  0  0
   61.6440   30.3080   49.4900 C   0  0  0  0  0  0  0  0  0  0  0  0
   61.0790   30.8320   48.3140 C   0  0  0  0  0  0  0  0  0  0  0  0
   61.9200   30.9430   47.0710 C   0  0  0  0  0  0  0  0  0  0  0  0
   56.2516   27.3927   46.7248 H   0  0  0  0  0  0  0  0  0  0  0  0
   55.6467   26.5666   45.2489 H   0  0  0  0  0  0  0  0  0  0  0  0
   57.2734   27.3286   45.2489 H   0  0  0  0  0  0  0  0  0  0  0  0
   57.9973   28.4897   43.7321 H   0  0  0  0  0  0  0  0  0  0  0  0
   58.2484   30.2716   43.6056 H   0  0  0  0  0  0  0  0  0  0  0  0
   57.8440   31.8570   44.2140 H   0  0  0  0  0  0  0  0  0  0  0  0
   59.0497   35.2457   47.2815 H   0  0  0  0  0  0  0  0  0  0  0  0
   58.3426   34.2740   48.6178 H   0  0  0  0  0  0  0  0  0  0  0  0
   62.2564   33.9862   52.0769 H   0  0  0  0  0  0  0  0  0  0  0  0
   64.7262   33.4990   51.8569 H   0  0  0  0  0  0  0  0  0  0  0  0
   65.7504   33.2021   49.5852 H   0  0  0  0  0  0  0  0  0  0  0  0
   64.3195   33.4075   47.5127 H   0  0  0  0  0  0  0  0  0  0  0  0
   57.9533   31.5462   49.5340 H   0  0  0  0  0  0  0  0  0  0  0  0
   58.9752   30.6034   51.6022 H   0  0  0  0  0  0  0  0  0  0  0  0
   61.3398   29.8108   51.5779 H   0  0  0  0  0  0  0  0  0  0  0  0
   62.6875   29.9599   49.4861 H   0  0  0  0  0  0  0  0  0  0  0  0
   62.9742   31.0821   47.3527 H   0  0  0  0  0  0  0  0  0  0  0  0
   61.8178   30.0236   46.4758 H   0  0  0  0  0  0  0  0  0  0  0  0
   61.5828   31.8044   46.4758 H   0  0  0  0  0  0  0  0  0  0  0  0
  1  2  1  0
  2  3  1  0
  3  4  2  0
  3  5  1  0
  5  6  1  0
  6  7  1  0
  7  8  2  0
  8  9  1  0
  9 10  2  0
 10 11  1  0
 11 12  1  0
 12 13  2  0
 13 14  1  0
 14 15  2  0
 15 16  1  0
 16 17  2  0
 17 18  1  0
 18 19  2  0
 19 20  1  0
 10 21  1  0
 21 22  1  0
 22 23  2  0
 23 24  1  0
 24 25  2  0
 25 26  1  0
 26 27  2  0
 27 28  1  0
 21  7  1  0
 27 22  1  0
 20 12  1  0
 19 14  1  0
  1 29  1  0
  1 30  1  0
  1 31  1  0
  5 32  1  0
  5 33  1  0
  8 34  1  0
 11 35  1  0
 11 36  1  0
 15 37  1  0
 16 38  1  0
 17 39  1  0
 18 40  1  0
 23 41  1  0
 24 42  1  0
 25 43  1  0
 26 44  1  0
 28 45  1  0
 28 46  1  0
 28 47  1  0
M  CHG  3   2  -1   8   1  20  -1
M  END
>  <UniqueID>  (37) 
36

>  <SMILES>  (37) 
C[N-]C(=O)CSc1[nH+]nc(Cc2nc3ccccc3[n-]2)n1-c1ccccc1C

>  <Energy>  (37) 
116.43174392172605

>  <Genealogy>  (37) 
C[N-]C(=O)CSc1[nH+]nc(Cc2nc3ccccc3[n-]2)n1-c1ccccc1C (protonated)
C[N-]C(=O)CSc1[nH+]nc(Cc2nc3ccccc3[n-]2)n1-c1ccccc1C (3D coordinates assigned)
C[N-]C(=O)CSc1[nH+]nc(Cc2nc3ccccc3[n-]2)n1-c1ccccc1C (optimized conformer: 116.43174392172605 kcal/mol)

>  <smiles>  (37) 
CNC(=O)CSc1nnc(Cc2nc3ccccc3[nH]2)n1-c1ccccc1C

>  <score_type>  (37) 
oracle

>  <origin>  (37) 
adg

>  <m_score__min__energy>  (37) 
-9.6799999999999997

>  <m_primary>  (37) 
energy

$$$$
37:0
     RDKit          3D

 42 44  0  0  0  0  0  0  0  0999 V2000
   63.3140   33.7610   47.9940 C   0  0  0  0  0  0  0  0  0  0  0  0
   61.8210   33.6700   47.8880 C   0  0  0  0  0  0  0  0  0  0  0  0
   61.0050   34.2000   48.9000 C   0  0  0  0  0  0  0  0  0  0  0  0
   59.6140   34.1070   48.8030 C   0  0  0  0  0  0  0  0  0  0  0  0
   59.0290   33.4660   47.7090 C   0  0  0  0  0  0  0  0  0  0  0  0
   59.8310   32.8910   46.7110 C   0  0  0  0  0  0  0  0  0  0  0  0
   59.2050   32.2420   45.5910 N   0  0  0  0  0  0  0  0  0  0  0  0
   58.1040   32.7980   44.8530 C   0  0  0  0  0  0  0  0  0  0  0  0
   57.7460   33.9940   45.0380 O   0  0  0  0  0  0  0  0  0  0  0  0
   57.4380   31.9920   43.7830 C   0  0  0  0  0  0  0  0  0  0  0  0
   56.8530   30.7850   44.3630 N   0  0  0  0  0  0  0  0  0  0  0  0
   55.5520   30.5580   44.4500 N   0  0  0  0  0  0  0  0  0  0  0  0
   55.3230   29.3530   44.9600 N   0  0  0  0  0  0  0  0  0  0  0  0
   56.5210   28.7770   45.2030 C   0  0  0  0  0  0  0  0  0  0  0  0
   56.6610   27.4170   45.7560 C   0  0  0  0  0  0  0  0  0  0  0  0
   57.8120   26.9970   46.0540 O   0  0  0  0  0  0  0  0  0  0  0  0
   55.5090   26.6040   46.0140 N   0  0  0  0  0  0  0  0  0  0  0  0
   55.3800   25.1960   45.7790 C   0  0  0  0  0  0  0  0  0  0  0  0
   56.4990   24.3450   45.6870 C   0  0  0  0  0  0  0  0  0  0  0  0
   56.3250   22.9800   45.4330 C   0  0  0  0  0  0  0  0  0  0  0  0
   55.0410   22.4570   45.2540 C   0  0  0  0  0  0  0  0  0  0  0  0
   53.9290   23.3010   45.3170 C   0  0  0  0  0  0  0  0  0  0  0  0
   54.0990   24.6660   45.5720 C   0  0  0  0  0  0  0  0  0  0  0  0
   57.4900   29.6910   44.8150 C   0  0  0  0  0  0  0  0  0  0  0  0
   58.7800   29.5680   44.8600 N   0  0  0  0  0  0  0  0  0  0  0  0
   61.2300   33.0070   46.8000 C   0  0  0  0  0  0  0  0  0  0  0  0
   63.6059   33.7788   49.0544 H   0  0  0  0  0  0  0  0  0  0  0  0
   63.7703   32.8890   47.5027 H   0  0  0  0  0  0  0  0  0  0  0  0
   63.6610   34.6820   47.5027 H   0  0  0  0  0  0  0  0  0  0  0  0
   61.4621   34.6901   49.7723 H   0  0  0  0  0  0  0  0  0  0  0  0
   58.9787   34.5396   49.5899 H   0  0  0  0  0  0  0  0  0  0  0  0
   57.9333   33.4114   47.6289 H   0  0  0  0  0  0  0  0  0  0  0  0
   59.6400   31.3630   45.2290 H   0  0  0  0  0  0  0  0  0  0  0  0
   56.6450   32.5928   43.3137 H   0  0  0  0  0  0  0  0  0  0  0  0
   58.1839   31.7063   43.0267 H   0  0  0  0  0  0  0  0  0  0  0  0
   57.5118   24.7545   45.8151 H   0  0  0  0  0  0  0  0  0  0  0  0
   57.2007   22.3169   45.3740 H   0  0  0  0  0  0  0  0  0  0  0  0
   54.9061   21.3820   45.0637 H   0  0  0  0  0  0  0  0  0  0  0  0
   52.9192   22.8917   45.1660 H   0  0  0  0  0  0  0  0  0  0  0  0
   53.2213   25.3279   45.6103 H   0  0  0  0  0  0  0  0  0  0  0  0
   59.2720   28.7240   45.2200 H   0  0  0  0  0  0  0  0  0  0  0  0
   61.8653   32.5757   46.0124 H   0  0  0  0  0  0  0  0  0  0  0  0
  1  2  1  0
  2  3  2  0
  3  4  1  0
  4  5  2  0
  5  6  1  0
  6  7  1  0
  7  8  1  0
  8  9  2  0
  8 10  1  0
 10 11  1  0
 11 12  1  0
 12 13  1  0
 13 14  2  0
 14 15  1  0
 15 16  2  0
 15 17  1  0
 17 18  1  0
 18 19  2  0
 19 20  1  0
 20 21  2  0
 21 22  1  0
 22 23  2  0
 14 24  1  0
 24 25  2  3
  6 26  2  0
 26  2  1  0
 24 11  1  0
 23 18  1  0
  1 27  1  0
  1 28  1  0
  1 29  1  0
  3 30  1  0
  4 31  1  0
  5 32  1  0
  7 33  1  0
 10 34  1  0
 10 35  1  0
 19 36  1  0
 20 37  1  0
 21 38  1  0
 22 39  1  0
 23 40  1  0
 25 41  1  0
 26 42  1  0
M  CHG  2  12  -1  17  -1
M  END
>  <UniqueID>  (38) 
37

>  <SMILES>  (38) 
Cc1cccc(NC(=O)Cn2[n-]nc(C(=O)[N-]c3ccccc3)c2=N)c1

>  <Energy>  (38) 
87.67711453771534

>  <Genealogy>  (38) 
Cc1cccc(NC(=O)Cn2[n-]nc(C(=O)[N-]c3ccccc3)c2=N)c1 (protonated)
Cc1cccc(NC(=O)Cn2[n-]nc(C(=O)[N-]c3ccccc3)c2=N)c1 (3D coordinates assigned)
Cc1cccc(NC(=O)Cn2[n-]nc(C(=O)[N-]c3ccccc3)c2=N)c1 (optimized conformer: 87.67711453771534 kcal/mol)

>  <smiles>  (38) 
Cc1cccc(NC(=O)Cn2[nH]nc(C(=O)Nc3ccccc3)c2=N)c1

>  <score_type>  (38) 
oracle

>  <origin>  (38) 
adg

>  <m_score__min__energy>  (38) 
-11.720000000000001

>  <m_primary>  (38) 
energy

$$$$
38:0
     RDKit          3D

 25 27  0  0  0  0  0  0  0  0999 V2000
   57.7942   32.8644   47.8716 H   0  0  0  0  0  0  0  0  0  0  0  0
   57.7860   32.7370   46.7790 C   0  0  0  0  0  0  0  0  0  0  0  0
   57.9620   31.5030   46.2380 N   0  0  0  0  0  0  0  0  0  0  0  0
   57.9520   31.2920   44.8900 C   0  0  0  0  0  0  0  0  0  0  0  0
   58.1470   30.1000   44.3980 N   0  0  0  0  0  0  0  0  0  0  0  0
   57.8710   28.8430   45.0390 C   0  0  0  0  0  0  0  0  0  0  0  0
   58.9630   28.0510   45.4720 C   0  0  0  0  0  0  0  0  0  0  0  0
   59.9895   28.4223   45.3365 H   0  0  0  0  0  0  0  0  0  0  0  0
   58.7530   26.7960   46.0730 C   0  0  0  0  0  0  0  0  0  0  0  0
   59.5958   26.1837   46.4263 H   0  0  0  0  0  0  0  0  0  0  0  0
   57.4400   26.3600   46.2030 C   0  0  0  0  0  0  0  0  0  0  0  0
   56.8940   25.2090   46.7150 C   0  0  0  0  0  0  0  0  0  0  0  0
   57.4511   24.3721   47.1613 H   0  0  0  0  0  0  0  0  0  0  0  0
   55.5480   25.2850   46.5740 N   0  0  0  0  0  0  0  0  0  0  0  0
   55.2320   26.4390   45.9930 N   0  0  0  0  0  0  0  0  0  0  0  0
   56.3810   27.0990   45.7680 C   0  0  0  0  0  0  0  0  0  0  0  0
   56.5500   28.3440   45.1680 C   0  0  0  0  0  0  0  0  0  0  0  0
   55.6868   28.9217   44.8058 H   0  0  0  0  0  0  0  0  0  0  0  0
   57.7730   32.3880   44.0230 C   0  0  0  0  0  0  0  0  0  0  0  0
   57.7700   32.2220   42.5890 C   0  0  0  0  0  0  0  0  0  0  0  0
   57.7660   32.0870   41.4390 N   0  0  0  0  0  0  0  0  0  0  0  0
   57.5890   33.6650   44.5670 C   0  0  0  0  0  0  0  0  0  0  0  0
   57.4396   34.5291   43.9029 H   0  0  0  0  0  0  0  0  0  0  0  0
   57.5950   33.8420   45.9500 C   0  0  0  0  0  0  0  0  0  0  0  0
   57.4506   34.8429   46.3827 H   0  0  0  0  0  0  0  0  0  0  0  0
  1  2  1  0
  2  3  1  0
  3  4  1  0
  4  5  2  0
  5  6  1  0
  6  7  1  0
  7  8  1  0
  7  9  2  0
  9 10  1  0
  9 11  1  0
 11 12  2  0
 12 13  1  0
 12 14  1  0
 14 15  1  0
 15 16  2  0
 16 17  1  0
 17 18  1  0
  4 19  1  0
 19 20  1  0
 20 21  3  0
 19 22  2  0
 22 23  1  0
 22 24  1  0
 24 25  1  0
 24  2  2  0
 17  6  2  0
 16 11  1  0
M  CHG  2   3  -1  14  -1
M  END
>  <UniqueID>  (39) 
38

>  <SMILES>  (39) 
N#Cc1ccc[n-]/c1=N\c1ccc2c[n-]nc2c1

>  <Energy>  (39) 
73.12785886388174

>  <Genealogy>  (39) 
N#Cc1ccc[n-]c1=Nc1ccc2c[n-]nc2c1 (protonated)
N#Cc1ccc[n-]/c1=N\c1ccc2c[n-]nc2c1 (cis-trans isomerization)
N#Cc1ccc[n-]/c1=N\c1ccc2c[n-]nc2c1 (3D coordinates assigned)
N#Cc1ccc[n-]/c1=N\c1ccc2c[n-]nc2c1 (optimized conformer: 73.12785886388174 kcal/mol)

>  <smiles>  (39) 
N#Cc1ccc[nH]c1=Nc1ccc2c[nH]nc2c1

>  <score_type>  (39) 
oracle

>  <origin>  (39) 
adg

>  <m_score__min__energy>  (39) 
-9.9100000000000001

>  <m_primary>  (39) 
energy

$$$$
39:0
     RDKit          3D

 43 45  0  0  0  0  0  0  0  0999 V2000
   59.7330   35.2500   46.0890 C   0  0  0  0  0  0  0  0  0  0  0  0
   59.2650   34.2590   45.0250 C   0  0  0  0  0  0  0  0  0  0  0  0
   57.7340   34.2210   44.8790 C   0  0  0  0  0  0  0  0  0  0  0  0
   57.0170   33.4120   45.9760 C   0  0  0  0  0  0  0  0  0  0  0  0
   57.7800   32.1980   46.3410 N   0  0  0  0  0  0  0  0  0  0  0  0
   57.6560   31.0620   45.5720 C   0  0  0  0  0  0  0  0  0  0  0  0
   56.8720   31.0250   44.5850 O   0  0  0  0  0  0  0  0  0  0  0  0
   58.4170   29.9520   45.9090 C   0  0  0  0  0  0  0  0  0  0  0  0
   59.2690   29.9980   46.9620 C   0  0  0  0  0  0  0  0  0  0  0  0
   59.9180   28.8240   47.1060 N   0  0  0  0  0  0  0  0  0  0  0  0
   59.4100   28.0850   46.0880 C   0  0  0  0  0  0  0  0  0  0  0  0
   59.7690   26.8970   45.8670 O   0  0  0  0  0  0  0  0  0  0  0  0
   58.4900   28.7390   45.3350 N   0  0  0  0  0  0  0  0  0  0  0  0
   57.7670   28.2410   44.1680 C   0  0  0  0  0  0  0  0  0  0  0  0
   59.4150   31.1110   47.7330 N   0  0  0  0  0  0  0  0  0  0  0  0
   60.3840   31.1460   48.8450 C   0  0  0  0  0  0  0  0  0  0  0  0
   61.5220   32.1000   48.5340 C   0  0  0  0  0  0  0  0  0  0  0  0
   62.3920   31.8040   47.4650 C   0  0  0  0  0  0  0  0  0  0  0  0
   62.2430   30.6650   46.7440 F   0  0  0  0  0  0  0  0  0  0  0  0
   63.4280   32.6800   47.1310 C   0  0  0  0  0  0  0  0  0  0  0  0
   63.6140   33.8560   47.8560 C   0  0  0  0  0  0  0  0  0  0  0  0
   62.7710   34.1590   48.9240 C   0  0  0  0  0  0  0  0  0  0  0  0
   61.7280   33.2910   49.2730 C   0  0  0  0  0  0  0  0  0  0  0  0
   60.7200   33.7430   50.6460 Cl  0  0  0  0  0  0  0  0  0  0  0  0
   58.6410   32.2120   47.4290 C   0  0  0  0  0  0  0  0  0  0  0  0
   58.7240   33.2450   48.1480 O   0  0  0  0  0  0  0  0  0  0  0  0
   59.5369   34.8347   47.0885 H   0  0  0  0  0  0  0  0  0  0  0  0
   60.8117   35.4310   45.9724 H   0  0  0  0  0  0  0  0  0  0  0  0
   59.1875   36.1980   45.9724 H   0  0  0  0  0  0  0  0  0  0  0  0
   59.7033   34.5479   44.0584 H   0  0  0  0  0  0  0  0  0  0  0  0
   59.5931   33.2569   45.3382 H   0  0  0  0  0  0  0  0  0  0  0  0
   57.3583   35.2544   44.9107 H   0  0  0  0  0  0  0  0  0  0  0  0
   57.5191   33.7196   43.9238 H   0  0  0  0  0  0  0  0  0  0  0  0
   56.9024   34.0440   46.8690 H   0  0  0  0  0  0  0  0  0  0  0  0
   56.0360   33.0995   45.5888 H   0  0  0  0  0  0  0  0  0  0  0  0
   56.9029   27.6458   44.4985 H   0  0  0  0  0  0  0  0  0  0  0  0
   57.4173   29.0907   43.5633 H   0  0  0  0  0  0  0  0  0  0  0  0
   58.4362   27.6114   43.5633 H   0  0  0  0  0  0  0  0  0  0  0  0
   59.8723   31.4801   49.7596 H   0  0  0  0  0  0  0  0  0  0  0  0
   60.7971   30.1364   48.9863 H   0  0  0  0  0  0  0  0  0  0  0  0
   64.0992   32.4408   46.2930 H   0  0  0  0  0  0  0  0  0  0  0  0
   64.4270   34.5457   47.5850 H   0  0  0  0  0  0  0  0  0  0  0  0
   62.9256   35.0855   49.4964 H   0  0  0  0  0  0  0  0  0  0  0  0
  1  2  1  0
  2  3  1  0
  3  4  1  0
  4  5  1  0
  5  6  1  0
  6  7  2  0
  6  8  1  0
  8  9  2  0
  9 10  1  0
 10 11  1  0
 11 12  2  0
 11 13  1  0
 13 14  1  0
  9 15  1  0
 15 16  1  0
 16 17  1  0
 17 18  2  0
 18 19  1  0
 18 20  1  0
 20 21  2  0
 21 22  1  0
 22 23  2  0
 23 24  1  0
 15 25  1  0
 25 26  2  0
 25  5  1  0
 13  8  1  0
 23 17  1  0
  1 27  1  0
  1 28  1  0
  1 29  1  0
  2 30  1  0
  2 31  1  0
  3 32  1  0
  3 33  1  0
  4 34  1  0
  4 35  1  0
 14 36  1  0
 14 37  1  0
 14 38  1  0
 16 39  1  0
 16 40  1  0
 20 41  1  0
 21 42  1  0
 22 43  1  0
M  CHG  1  10  -1
M  END
>  <UniqueID>  (40) 
39

>  <SMILES>  (40) 
CCCCn1c(=O)c2c([n-]c(=O)n2C)n(Cc2c(F)cccc2Cl)c1=O

>  <Energy>  (40) 
87.91638651608518

>  <Genealogy>  (40) 
CCCCn1c(=O)c2c([n-]c(=O)n2C)n(Cc2c(F)cccc2Cl)c1=O (protonated)
CCCCn1c(=O)c2c([n-]c(=O)n2C)n(Cc2c(F)cccc2Cl)c1=O (3D coordinates assigned)
CCCCn1c(=O)c2c([n-]c(=O)n2C)n(Cc2c(F)cccc2Cl)c1=O (optimized conformer: 87.91638651608518 kcal/mol)

>  <smiles>  (40) 
CCCCn1c(=O)c2c([nH]c(=O)n2C)n(Cc2c(F)cccc2Cl)c1=O

>  <score_type>  (40) 
oracle

>  <origin>  (40) 
adg

>  <m_score__min__energy>  (40) 
-8.2599999999999998

>  <m_primary>  (40) 
energy

$$$$
40:0
     RDKit          3D

 56 58  0  0  0  0  0  0  0  0999 V2000
   56.6302   33.9411   45.7169 H   0  0  0  0  0  0  0  0  0  0  0  0
   57.4760   33.4090   45.2570 C   0  0  0  0  0  0  0  0  0  0  0  0
   58.5400   34.1150   44.8560 C   0  0  0  0  0  0  0  0  0  0  0  0
   58.4788   34.6969   43.9245 H   0  0  0  0  0  0  0  0  0  0  0  0
   59.8160   34.1310   45.6490 C   0  0  0  0  0  0  0  0  0  0  0  0
   60.6120   34.5685   45.0285 H   0  0  0  0  0  0  0  0  0  0  0  0
   60.0487   33.0935   45.9308 H   0  0  0  0  0  0  0  0  0  0  0  0
   59.6920   34.9500   46.9410 C   0  0  0  0  0  0  0  0  0  0  0  0
   58.9268   35.7267   46.7954 H   0  0  0  0  0  0  0  0  0  0  0  0
   60.6765   35.3913   47.1556 H   0  0  0  0  0  0  0  0  0  0  0  0
   59.2950   34.0870   48.1390 C   0  0  0  0  0  0  0  0  0  0  0  0
   59.5394   34.6183   49.0707 H   0  0  0  0  0  0  0  0  0  0  0  0
   58.2140   33.8863   48.1041 H   0  0  0  0  0  0  0  0  0  0  0  0
   59.8459   33.1355   48.1041 H   0  0  0  0  0  0  0  0  0  0  0  0
   57.3950   31.9410   45.1050 C   0  0  0  0  0  0  0  0  0  0  0  0
   57.8090   31.1140   46.1040 N   0  0  0  0  0  0  0  0  0  0  0  0
   57.7440   29.7630   45.9790 C   0  0  0  0  0  0  0  0  0  0  0  0
   58.1530   29.0120   46.9570 N   0  0  0  0  0  0  0  0  0  0  0  0
   59.5490   28.8670   47.3810 C   0  0  2  0  0  0  0  0  0  0  0  0
   60.0707   28.1667   46.7121 H   0  0  0  0  0  0  0  0  0  0  0  0
   59.5810   28.2970   48.8130 C   0  0  0  0  0  0  0  0  0  0  0  0
   58.6976   28.6535   49.3630 H   0  0  0  0  0  0  0  0  0  0  0  0
   59.5784   27.1985   48.7556 H   0  0  0  0  0  0  0  0  0  0  0  0
   60.8480   28.7480   49.5500 C   0  0  0  0  0  0  0  0  0  0  0  0
   60.8759   28.2644   50.5376 H   0  0  0  0  0  0  0  0  0  0  0  0
   61.7173   28.4583   48.9414 H   0  0  0  0  0  0  0  0  0  0  0  0
   60.8870   30.2240   49.7360 N   0  0  1  0  0  0  0  0  0  0  0  0
   60.3320   30.4290   50.6010 H   0  0  0  0  0  0  0  0  0  0  0  0
   62.2860   30.6580   49.9750 C   0  0  0  0  0  0  0  0  0  0  0  0
   62.3874   30.9626   51.0271 H   0  0  0  0  0  0  0  0  0  0  0  0
   62.9470   29.8115   49.7373 H   0  0  0  0  0  0  0  0  0  0  0  0
   62.6840   31.8200   49.0910 C   0  0  0  0  0  0  0  0  0  0  0  0
   63.2780   31.5970   47.8370 C   0  0  0  0  0  0  0  0  0  0  0  0
   63.4591   30.5681   47.4926 H   0  0  0  0  0  0  0  0  0  0  0  0
   63.6400   32.6760   47.0250 C   0  0  0  0  0  0  0  0  0  0  0  0
   64.1033   32.4941   46.0440 H   0  0  0  0  0  0  0  0  0  0  0  0
   63.4140   33.9850   47.4580 C   0  0  0  0  0  0  0  0  0  0  0  0
   63.6979   34.8328   46.8171 H   0  0  0  0  0  0  0  0  0  0  0  0
   62.8270   34.2180   48.7060 C   0  0  0  0  0  0  0  0  0  0  0  0
   62.6501   35.2489   49.0465 H   0  0  0  0  0  0  0  0  0  0  0  0
   62.4650   33.1410   49.5210 C   0  0  0  0  0  0  0  0  0  0  0  0
   62.0067   33.3279   50.5033 H   0  0  0  0  0  0  0  0  0  0  0  0
   60.2530   30.9810   48.6150 C   0  0  0  0  0  0  0  0  0  0  0  0
   59.2020   31.1770   48.8738 H   0  0  0  0  0  0  0  0  0  0  0  0
   60.8219   31.9130   48.4821 H   0  0  0  0  0  0  0  0  0  0  0  0
   60.2960   30.2200   47.2820 C   0  0  0  0  0  0  0  0  0  0  0  0
   59.8215   30.8349   46.5031 H   0  0  0  0  0  0  0  0  0  0  0  0
   61.3479   30.0178   47.0319 H   0  0  0  0  0  0  0  0  0  0  0  0
   57.2520   29.2160   44.8330 N   0  0  0  0  0  0  0  0  0  0  0  0
   56.8230   29.9970   43.8070 C   0  0  0  0  0  0  0  0  0  0  0  0
   56.2970   29.3650   42.5580 C   0  0  0  0  0  0  0  0  0  0  0  0
   55.6139   28.5442   42.8220 H   0  0  0  0  0  0  0  0  0  0  0  0
   55.7548   30.1175   41.9666 H   0  0  0  0  0  0  0  0  0  0  0  0
   57.1354   28.9684   41.9666 H   0  0  0  0  0  0  0  0  0  0  0  0
   56.8890   31.3890   43.9230 C   0  0  0  0  0  0  0  0  0  0  0  0
   56.5499   32.0371   43.1014 H   0  0  0  0  0  0  0  0  0  0  0  0
  1  2  1  0
  2  3  2  0
  3  4  1  0
  3  5  1  0
  5  6  1  0
  5  7  1  0
  5  8  1  0
  8  9  1  0
  8 10  1  0
  8 11  1  0
 11 12  1  0
 11 13  1  0
 11 14  1  0
  2 15  1  0
 15 16  2  0
 16 17  1  0
 17 18  2  0
 18 19  1  0
 19 20  1  6
 19 21  1  0
 21 22  1  0
 21 23  1  0
 21 24  1  0
 24 25  1  0
 24 26  1  0
 24 27  1  0
 27 28  1  1
 27 29  1  0
 29 30  1  0
 29 31  1  0
 29 32  1  0
 32 33  2  0
 33 34  1  0
 33 35  1  0
 35 36  1  0
 35 37  2  0
 37 38  1  0
 37 39  1  0
 39 40  1  0
 39 41  2  0
 41 42  1  0
 27 43  1  0
 43 44  1  0
 43 45  1  0
 43 46  1  0
 46 47  1  0
 46 48  1  0
 17 49  1  0
 49 50  1  0
 50 51  1  0
 51 52  1  0
 51 53  1  0
 51 54  1  0
 50 55  2  0
 55 56  1  0
 55 15  1  0
 46 19  1  0
 41 32  1  0
M  CHG  2  27   1  49  -1
M  END
>  <UniqueID>  (41) 
40

>  <SMILES>  (41) 
CCC/C=C/c1cc(C)[n-]/c(=N\C2CC[NH+](Cc3ccccc3)CC2)n1

>  <Energy>  (41) 
58.34729121370746

>  <Genealogy>  (41) 
CCCC=Cc1cc(C)[n-]c(=NC2CC[NH+](Cc3ccccc3)CC2)n1 (protonated)
CCC/C=C/c1cc(C)[n-]/c(=N\C2CC[NH+](Cc3ccccc3)CC2)n1 (cis-trans isomerization)
CCC/C=C/c1cc(C)[n-]/c(=N\C2CC[NH+](Cc3ccccc3)CC2)n1 (3D coordinates assigned)
CCC/C=C/c1cc(C)[n-]/c(=N\C2CC[NH+](Cc3ccccc3)CC2)n1 (nonaromatic ring conformer: 58.34729121370746 kcal/mol)

>  <smiles>  (41) 
CCCC=Cc1cc(C)[nH]c(=NC2CCN(Cc3ccccc3)CC2)n1

>  <score_type>  (41) 
oracle

>  <origin>  (41) 
adg

>  <m_score__min__energy>  (41) 
-8.4100000000000001

>  <m_primary>  (41) 
energy

$$$$
41:0
     RDKit          3D

 48 52  0  0  0  0  0  0  0  0999 V2000
   61.1070   26.3590   47.0740 F   0  0  0  0  0  0  0  0  0  0  0  0
   59.9990   26.9470   46.5540 C   0  0  0  0  0  0  0  0  0  0  0  0
   58.7510   26.7280   47.1440 C   0  0  0  0  0  0  0  0  0  0  0  0
   57.6060   27.3310   46.6100 C   0  0  0  0  0  0  0  0  0  0  0  0
   57.7030   28.1570   45.4720 C   0  0  0  0  0  0  0  0  0  0  0  0
   56.5890   28.7840   44.8930 O   0  0  0  0  0  0  0  0  0  0  0  0
   56.5460   29.3670   43.5910 C   0  0  0  0  0  0  0  0  0  0  0  0
   57.2020   30.7140   43.6120 C   0  0  0  0  0  0  0  0  0  0  0  0
   57.2880   31.5420   42.5480 N   0  0  0  0  0  0  0  0  0  0  0  0
   57.8490   32.6830   42.9400 N   0  0  0  0  0  0  0  0  0  0  0  0
   58.0920   32.5300   44.2580 C   0  0  0  0  0  0  0  0  0  0  0  0
   58.6480   33.4500   45.1410 C   0  0  0  0  0  0  0  0  0  0  0  0
   59.0780   34.7200   44.7360 C   0  0  0  0  0  0  0  0  0  0  0  0
   59.6250   35.5990   45.6750 C   0  0  0  0  0  0  0  0  0  0  0  0
   59.7480   35.2160   47.0140 C   0  0  0  0  0  0  0  0  0  0  0  0
   59.3230   33.9500   47.4280 C   0  0  0  0  0  0  0  0  0  0  0  0
   58.7690   33.0520   46.5000 C   0  0  0  0  0  0  0  0  0  0  0  0
   58.3290   31.7610   46.8900 C   0  0  0  0  0  0  0  0  0  0  0  0
   58.4320   31.3550   48.2260 O   0  0  0  0  0  0  0  0  0  0  0  0
   59.5040   30.5540   48.7120 C   0  0  0  0  0  0  0  0  0  0  0  0
   60.8000   31.2750   48.4900 C   0  0  0  0  0  0  0  0  0  0  0  0
   61.5820   30.9830   47.3590 C   0  0  0  0  0  0  0  0  0  0  0  0
   62.8050   31.6330   47.1590 C   0  0  0  0  0  0  0  0  0  0  0  0
   63.2590   32.5700   48.0930 C   0  0  0  0  0  0  0  0  0  0  0  0
   62.4940   32.8550   49.2300 C   0  0  0  0  0  0  0  0  0  0  0  0
   61.2700   32.2070   49.4330 C   0  0  0  0  0  0  0  0  0  0  0  0
   57.7970   30.9200   45.9530 N   0  0  0  0  0  0  0  0  0  0  0  0
   57.7000   31.3310   44.6920 N   0  0  0  0  0  0  0  0  0  0  0  0
   58.9620   28.3800   44.8960 C   0  0  0  0  0  0  0  0  0  0  0  0
   60.1040   27.7760   45.4320 C   0  0  0  0  0  0  0  0  0  0  0  0
   58.6684   26.0807   48.0295 H   0  0  0  0  0  0  0  0  0  0  0  0
   56.6266   27.1595   47.0804 H   0  0  0  0  0  0  0  0  0  0  0  0
   57.0762   28.7144   42.8817 H   0  0  0  0  0  0  0  0  0  0  0  0
   55.4970   29.4805   43.2801 H   0  0  0  0  0  0  0  0  0  0  0  0
   56.9610   31.3450   41.5760 H   0  0  0  0  0  0  0  0  0  0  0  0
   58.9856   35.0244   43.6830 H   0  0  0  0  0  0  0  0  0  0  0  0
   59.9606   36.5977   45.3587 H   0  0  0  0  0  0  0  0  0  0  0  0
   60.1813   35.9141   47.7454 H   0  0  0  0  0  0  0  0  0  0  0  0
   59.4226   33.6561   48.4833 H   0  0  0  0  0  0  0  0  0  0  0  0
   59.3661   30.3684   49.7874 H   0  0  0  0  0  0  0  0  0  0  0  0
   59.5195   29.5936   48.1759 H   0  0  0  0  0  0  0  0  0  0  0  0
   61.2309   30.2401   46.6277 H   0  0  0  0  0  0  0  0  0  0  0  0
   63.4090   31.4072   46.2678 H   0  0  0  0  0  0  0  0  0  0  0  0
   64.2186   33.0836   47.9338 H   0  0  0  0  0  0  0  0  0  0  0  0
   62.8552   33.5893   49.9651 H   0  0  0  0  0  0  0  0  0  0  0  0
   60.6746   32.4269   50.3314 H   0  0  0  0  0  0  0  0  0  0  0  0
   59.0520   29.0345   44.0165 H   0  0  0  0  0  0  0  0  0  0  0  0
   61.0866   27.9532   44.9704 H   0  0  0  0  0  0  0  0  0  0  0  0
  1  2  1  0
  2  3  2  0
  3  4  1  0
  4  5  2  0
  5  6  1  0
  6  7  1  0
  7  8  1  0
  8  9  2  0
  9 10  1  0
 10 11  2  0
 11 12  1  0
 12 13  2  0
 13 14  1  0
 14 15  2  0
 15 16  1  0
 16 17  2  0
 17 18  1  0
 18 19  1  0
 19 20  1  0
 20 21  1  0
 21 22  2  0
 22 23  1  0
 23 24  2  0
 24 25  1  0
 25 26  2  0
 18 27  2  0
 27 28  1  0
  5 29  1  0
 29 30  2  0
 30  2  1  0
 28  8  1  0
 28 11  1  0
 17 12  1  0
 26 21  1  0
  3 31  1  0
  4 32  1  0
  7 33  1  0
  7 34  1  0
  9 35  1  0
 13 36  1  0
 14 37  1  0
 15 38  1  0
 16 39  1  0
 20 40  1  0
 20 41  1  0
 22 42  1  0
 23 43  1  0
 24 44  1  0
 25 45  1  0
 26 46  1  0
 29 47  1  0
 30 48  1  0
M  CHG  1   9   1
M  END
>  <UniqueID>  (42) 
41

>  <SMILES>  (42) 
Fc1ccc(OCc2[nH+]nc3c4ccccc4c(OCc4ccccc4)nn23)cc1

>  <Energy>  (42) 
98.94193350121328

>  <Genealogy>  (42) 
Fc1ccc(OCc2[nH+]nc3c4ccccc4c(OCc4ccccc4)nn23)cc1 (protonated)
Fc1ccc(OCc2[nH+]nc3c4ccccc4c(OCc4ccccc4)nn23)cc1 (3D coordinates assigned)
Fc1ccc(OCc2[nH+]nc3c4ccccc4c(OCc4ccccc4)nn23)cc1 (optimized conformer: 98.94193350121328 kcal/mol)

>  <smiles>  (42) 
Fc1ccc(OCc2nnc3c4ccccc4c(OCc4ccccc4)nn23)cc1

>  <score_type>  (42) 
oracle

>  <origin>  (42) 
adg

>  <m_score__min__energy>  (42) 
-7.5599999999999996

>  <m_primary>  (42) 
energy

$$$$
42:0
     RDKit          3D

 34 36  0  0  0  0  0  0  0  0999 V2000
   57.3950   31.6130   42.3200 C   0  0  0  0  0  0  0  0  0  0  0  0
   56.7240   30.5500   43.1810 C   0  0  0  0  0  0  0  0  0  0  0  0
   56.5110   31.0340   44.5060 O   0  0  0  0  0  0  0  0  0  0  0  0
   57.3460   31.9650   45.1310 C   0  0  0  0  0  0  0  0  0  0  0  0
   57.0510   33.3020   45.1460 N   0  0  0  0  0  0  0  0  0  0  0  0
   57.8810   34.2110   45.7520 C   0  0  0  0  0  0  0  0  0  0  0  0
   59.0340   33.7980   46.3620 N   0  0  0  0  0  0  0  0  0  0  0  0
   59.3180   32.4730   46.3480 C   0  0  0  0  0  0  0  0  0  0  0  0
   58.5170   31.5610   45.7530 C   0  0  0  0  0  0  0  0  0  0  0  0
   59.0480   30.3280   45.8530 N   0  0  0  0  0  0  0  0  0  0  0  0
   60.2020   30.5540   46.5390 C   0  0  0  0  0  0  0  0  0  0  0  0
   60.3880   31.8600   46.8680 N   0  0  0  0  0  0  0  0  0  0  0  0
   61.5550   32.4710   47.5090 C   0  0  2  0  0  0  0  0  0  0  0  0
   62.0440   33.6740   46.6720 C   0  0  0  0  0  0  0  0  0  0  0  0
   63.5690   33.8420   46.7630 C   0  0  0  0  0  0  0  0  0  0  0  0
   64.0800   33.4190   48.1400 C   0  0  0  0  0  0  0  0  0  0  0  0
   63.6130   31.9870   48.4890 C   0  0  0  0  0  0  0  0  0  0  0  0
   62.5840   31.5050   47.6370 O   0  0  0  0  0  0  0  0  0  0  0  0
   57.8693   32.3644   42.9684 H   0  0  0  0  0  0  0  0  0  0  0  0
   58.1596   31.1416   41.6850 H   0  0  0  0  0  0  0  0  0  0  0  0
   56.6406   32.1004   41.6850 H   0  0  0  0  0  0  0  0  0  0  0  0
   55.7550   30.2824   42.7343 H   0  0  0  0  0  0  0  0  0  0  0  0
   57.3795   29.6679   43.2281 H   0  0  0  0  0  0  0  0  0  0  0  0
   57.6177   35.2790   45.7474 H   0  0  0  0  0  0  0  0  0  0  0  0
   60.9142   29.7579   46.8014 H   0  0  0  0  0  0  0  0  0  0  0  0
   61.2779   32.8316   48.5106 H   0  0  0  0  0  0  0  0  0  0  0  0
   61.7643   33.5147   45.6202 H   0  0  0  0  0  0  0  0  0  0  0  0
   61.5725   34.5849   47.0695 H   0  0  0  0  0  0  0  0  0  0  0  0
   64.0472   33.2181   45.9935 H   0  0  0  0  0  0  0  0  0  0  0  0
   63.8172   34.9019   46.6049 H   0  0  0  0  0  0  0  0  0  0  0  0
   65.1796   33.4487   48.1403 H   0  0  0  0  0  0  0  0  0  0  0  0
   63.6753   34.1124   48.8919 H   0  0  0  0  0  0  0  0  0  0  0  0
   64.4764   31.3100   48.4102 H   0  0  0  0  0  0  0  0  0  0  0  0
   63.2012   32.0196   49.5085 H   0  0  0  0  0  0  0  0  0  0  0  0
  1  2  1  0
  2  3  1  0
  3  4  1  0
  4  5  2  0
  5  6  1  0
  6  7  2  0
  7  8  1  0
  8  9  2  0
  9 10  1  0
 10 11  2  0
 11 12  1  0
 12 13  1  0
 13 14  1  0
 14 15  1  0
 15 16  1  0
 16 17  1  0
 17 18  1  0
  9  4  1  0
 18 13  1  0
 12  8  1  0
  1 19  1  0
  1 20  1  0
  1 21  1  0
  2 22  1  0
  2 23  1  0
  6 24  1  0
 11 25  1  0
 13 26  1  1
 14 27  1  0
 14 28  1  0
 15 29  1  0
 15 30  1  0
 16 31  1  0
 16 32  1  0
 17 33  1  0
 17 34  1  0
M  END
>  <UniqueID>  (43) 
42

>  <SMILES>  (43) 
CCOc1ncnc2c1ncn2[C@@H]1CCCCO1

>  <Energy>  (43) 
77.67945229930949

>  <Genealogy>  (43) 
CCOc1ncnc2c1ncn2[C@@H]1CCCCO1 (chirality)
CCOc1ncnc2c1ncn2[C@@H]1CCCCO1 (3D coordinates assigned)
CCOc1ncnc2c1ncn2[C@@H]1CCCCO1 (nonaromatic ring conformer: 77.67945229930949 kcal/mol)

>  <smiles>  (43) 
CCOc1ncnc2c1ncn2C1CCCCO1

>  <score_type>  (43) 
oracle

>  <origin>  (43) 
adg

>  <m_score__min__energy>  (43) 
-5.9500000000000002

>  <m_primary>  (43) 
energy

$$$$
43:0
     RDKit          3D

 47 48  0  0  0  0  0  0  0  0999 V2000
   59.7380   32.9920   49.7660 C   0  0  0  0  0  0  0  0  0  0  0  0
   60.5510   34.2270   49.3560 C   0  0  0  0  0  0  0  0  0  0  0  0
   61.8870   33.9140   48.7990 N   0  0  0  0  0  0  0  0  0  0  0  0
   62.7510   33.2000   49.7620 C   0  0  0  0  0  0  0  0  0  0  0  0
   64.1670   33.0540   49.2130 C   0  0  0  0  0  0  0  0  0  0  0  0
   61.7960   33.0870   47.2540 S   0  0  0  0  0  0  0  0  0  0  0  0
   61.9320   31.6000   47.4460 O   0  0  0  0  0  0  0  0  0  0  0  0
   62.9110   33.5550   46.3630 O   0  0  0  0  0  0  0  0  0  0  0  0
   60.2720   33.4470   46.4440 C   0  0  0  0  0  0  0  0  0  0  0  0
   60.0200   34.7240   45.9240 C   0  0  0  0  0  0  0  0  0  0  0  0
   58.8350   34.9760   45.2270 C   0  0  0  0  0  0  0  0  0  0  0  0
   57.9030   33.9530   45.0360 C   0  0  0  0  0  0  0  0  0  0  0  0
   58.1460   32.6670   45.5480 C   0  0  0  0  0  0  0  0  0  0  0  0
   57.2360   31.5800   45.3030 N   0  0  0  0  0  0  0  0  0  0  0  0
   56.8110   31.1850   43.9590 C   0  0  0  0  0  0  0  0  0  0  0  0
   56.0390   29.9030   44.0190 C   0  0  0  0  0  0  0  0  0  0  0  0
   55.4180   29.4930   43.0020 O   0  0  0  0  0  0  0  0  0  0  0  0
   56.0040   29.1560   45.2400 N   0  0  0  0  0  0  0  0  0  0  0  0
   57.0290   28.2600   45.6890 C   0  0  0  0  0  0  0  0  0  0  0  0
   56.7530   26.9140   45.9970 C   0  0  0  0  0  0  0  0  0  0  0  0
   57.7880   26.0530   46.3720 C   0  0  0  0  0  0  0  0  0  0  0  0
   59.1040   26.5200   46.4290 C   0  0  0  0  0  0  0  0  0  0  0  0
   60.1070   25.6790   46.7810 F   0  0  0  0  0  0  0  0  0  0  0  0
   59.3860   27.8510   46.1080 C   0  0  0  0  0  0  0  0  0  0  0  0
   58.3540   28.7150   45.7340 C   0  0  0  0  0  0  0  0  0  0  0  0
   59.3280   32.4270   46.2670 C   0  0  0  0  0  0  0  0  0  0  0  0
   59.6961   32.9283   50.8634 H   0  0  0  0  0  0  0  0  0  0  0  0
   58.7173   33.0750   49.3643 H   0  0  0  0  0  0  0  0  0  0  0  0
   60.2177   32.0873   49.3643 H   0  0  0  0  0  0  0  0  0  0  0  0
   59.9802   34.7792   48.5949 H   0  0  0  0  0  0  0  0  0  0  0  0
   60.7185   34.8144   50.2708 H   0  0  0  0  0  0  0  0  0  0  0  0
   62.7860   33.7664   50.7043 H   0  0  0  0  0  0  0  0  0  0  0  0
   62.3339   32.1968   49.9342 H   0  0  0  0  0  0  0  0  0  0  0  0
   64.8785   32.9806   50.0487 H   0  0  0  0  0  0  0  0  0  0  0  0
   64.2296   32.1446   48.5972 H   0  0  0  0  0  0  0  0  0  0  0  0
   64.4138   33.9315   48.5972 H   0  0  0  0  0  0  0  0  0  0  0  0
   60.7561   35.5292   46.0647 H   0  0  0  0  0  0  0  0  0  0  0  0
   58.6359   35.9816   44.8281 H   0  0  0  0  0  0  0  0  0  0  0  0
   56.9744   34.1551   44.4821 H   0  0  0  0  0  0  0  0  0  0  0  0
   57.0210   30.9230   46.0870 H   0  0  0  0  0  0  0  0  0  0  0  0
   56.1738   31.9737   43.5325 H   0  0  0  0  0  0  0  0  0  0  0  0
   57.7005   31.0403   43.3282 H   0  0  0  0  0  0  0  0  0  0  0  0
   55.7202   26.5393   45.9423 H   0  0  0  0  0  0  0  0  0  0  0  0
   57.5663   25.0052   46.6229 H   0  0  0  0  0  0  0  0  0  0  0  0
   60.4219   28.2185   46.1500 H   0  0  0  0  0  0  0  0  0  0  0  0
   58.5826   29.7589   45.4732 H   0  0  0  0  0  0  0  0  0  0  0  0
   59.5142   31.4307   46.6945 H   0  0  0  0  0  0  0  0  0  0  0  0
  1  2  1  0
  2  3  1  0
  3  4  1  0
  4  5  1  0
  3  6  1  0
  6  7  2  0
  6  8  2  0
  6  9  1  0
  9 10  2  0
 10 11  1  0
 11 12  2  0
 12 13  1  0
 13 14  1  0
 14 15  1  0
 15 16  1  0
 16 17  2  0
 16 18  1  0
 18 19  1  0
 19 20  2  0
 20 21  1  0
 21 22  2  0
 22 23  1  0
 22 24  1  0
 24 25  2  0
 13 26  2  0
 26  9  1  0
 25 19  1  0
  1 27  1  0
  1 28  1  0
  1 29  1  0
  2 30  1  0
  2 31  1  0
  4 32  1  0
  4 33  1  0
  5 34  1  0
  5 35  1  0
  5 36  1  0
 10 37  1  0
 11 38  1  0
 12 39  1  0
 14 40  1  0
 15 41  1  0
 15 42  1  0
 20 43  1  0
 21 44  1  0
 24 45  1  0
 25 46  1  0
 26 47  1  0
M  CHG  1  18  -1
M  END
>  <UniqueID>  (44) 
43

>  <SMILES>  (44) 
CCN(CC)S(=O)(=O)c1cccc(NCC(=O)[N-]c2ccc(F)cc2)c1

>  <Energy>  (44) 
45.7920712498808

>  <Genealogy>  (44) 
CCN(CC)S(=O)(=O)c1cccc(NCC(=O)[N-]c2ccc(F)cc2)c1 (protonated)
CCN(CC)S(=O)(=O)c1cccc(NCC(=O)[N-]c2ccc(F)cc2)c1 (3D coordinates assigned)
CCN(CC)S(=O)(=O)c1cccc(NCC(=O)[N-]c2ccc(F)cc2)c1 (optimized conformer: 45.7920712498808 kcal/mol)

>  <smiles>  (44) 
CCN(CC)S(=O)(=O)c1cccc(NCC(=O)Nc2ccc(F)cc2)c1

>  <score_type>  (44) 
oracle

>  <origin>  (44) 
adg

>  <m_score__min__energy>  (44) 
-10.119999999999999

>  <m_primary>  (44) 
energy

$$$$
44:0
     RDKit          3D

 33 35  0  0  0  0  0  0  0  0999 V2000
   57.4500   31.9810   42.7770 C   0  0  0  0  0  0  0  0  0  0  0  0
   57.7380   31.9640   44.2140 N   0  0  0  0  0  0  0  0  0  0  0  0
   57.4130   30.9870   45.1090 C   0  0  0  0  0  0  0  0  0  0  0  0
   56.6700   29.7420   44.8070 C   0  0  0  0  0  0  0  0  0  0  0  0
   55.4100   29.7550   44.8240 O   0  0  0  0  0  0  0  0  0  0  0  0
   57.3640   28.5470   44.4350 N   0  0  0  0  0  0  0  0  0  0  0  0
   58.2120   27.7850   45.3070 C   0  0  0  0  0  0  0  0  0  0  0  0
   59.5440   28.1910   45.4600 C   0  0  0  0  0  0  0  0  0  0  0  0
   60.4080   27.4860   46.3010 C   0  0  0  0  0  0  0  0  0  0  0  0
   59.9410   26.3790   47.0130 C   0  0  0  0  0  0  0  0  0  0  0  0
   58.6060   25.9840   46.8970 C   0  0  0  0  0  0  0  0  0  0  0  0
   57.7310   26.6860   46.0550 C   0  0  0  0  0  0  0  0  0  0  0  0
   56.3400   26.3070   46.0350 C   0  0  0  0  0  0  0  0  0  0  0  0
   55.2220   26.0050   46.0190 N   0  0  0  0  0  0  0  0  0  0  0  0
   57.8690   31.3170   46.3830 C   0  0  0  0  0  0  0  0  0  0  0  0
   58.4720   32.5450   46.2490 C   0  0  0  0  0  0  0  0  0  0  0  0
   59.0850   33.3510   47.2060 C   0  0  0  0  0  0  0  0  0  0  0  0
   59.6140   34.5830   46.7860 C   0  0  0  0  0  0  0  0  0  0  0  0
   59.5160   34.9780   45.4370 C   0  0  0  0  0  0  0  0  0  0  0  0
   58.8910   34.1460   44.4910 C   0  0  0  0  0  0  0  0  0  0  0  0
   58.3750   32.9180   44.9310 C   0  0  0  0  0  0  0  0  0  0  0  0
   56.3629   32.0452   42.6216 H   0  0  0  0  0  0  0  0  0  0  0  0
   57.9384   32.8519   42.3154 H   0  0  0  0  0  0  0  0  0  0  0  0
   57.8325   31.0587   42.3154 H   0  0  0  0  0  0  0  0  0  0  0  0
   59.9123   29.0718   44.9136 H   0  0  0  0  0  0  0  0  0  0  0  0
   61.4565   27.8027   46.4026 H   0  0  0  0  0  0  0  0  0  0  0  0
   60.6252   25.8174   47.6660 H   0  0  0  0  0  0  0  0  0  0  0  0
   58.2394   25.1186   47.4685 H   0  0  0  0  0  0  0  0  0  0  0  0
   57.7680   30.7210   47.3020 H   0  0  0  0  0  0  0  0  0  0  0  0
   59.1526   33.0329   48.2568 H   0  0  0  0  0  0  0  0  0  0  0  0
   60.1075   35.2430   47.5145 H   0  0  0  0  0  0  0  0  0  0  0  0
   59.9321   35.9460   45.1209 H   0  0  0  0  0  0  0  0  0  0  0  0
   58.8091   34.4493   43.4368 H   0  0  0  0  0  0  0  0  0  0  0  0
  1  2  1  0
  2  3  1  0
  3  4  1  0
  4  5  2  0
  4  6  1  0
  6  7  1  0
  7  8  2  0
  8  9  1  0
  9 10  2  0
 10 11  1  0
 11 12  2  0
 12 13  1  0
 13 14  3  0
  3 15  2  0
 15 16  1  0
 16 17  2  0
 17 18  1  0
 18 19  2  0
 19 20  1  0
 20 21  2  0
 21  2  1  0
 12  7  1  0
 21 16  1  0
  1 22  1  0
  1 23  1  0
  1 24  1  0
  8 25  1  0
  9 26  1  0
 10 27  1  0
 11 28  1  0
 15 29  1  0
 17 30  1  0
 18 31  1  0
 19 32  1  0
 20 33  1  0
M  CHG  1   6  -1
M  END
>  <UniqueID>  (45) 
44

>  <SMILES>  (45) 
Cn1c(C(=O)[N-]c2ccccc2C#N)cc2ccccc21

>  <Energy>  (45) 
77.03971391148855

>  <Genealogy>  (45) 
Cn1c(C(=O)[N-]c2ccccc2C#N)cc2ccccc21 (protonated)
Cn1c(C(=O)[N-]c2ccccc2C#N)cc2ccccc21 (3D coordinates assigned)
Cn1c(C(=O)[N-]c2ccccc2C#N)cc2ccccc21 (optimized conformer: 77.03971391148855 kcal/mol)

>  <smiles>  (45) 
Cn1c(C(=O)Nc2ccccc2C#N)cc2ccccc21

>  <score_type>  (45) 
oracle

>  <origin>  (45) 
adg

>  <m_score__min__energy>  (45) 
-9.2899999999999991

>  <m_primary>  (45) 
energy

$$$$
45:0
     RDKit          3D

 51 54  0  0  0  0  0  0  0  0999 V2000
   57.0200   34.2160   45.1480 C   0  0  0  0  0  0  0  0  0  0  0  0
   57.7030   32.9540   45.5580 C   0  0  0  0  0  0  0  0  0  0  0  0
   57.2530   31.7170   45.2570 N   0  0  0  0  0  0  0  0  0  0  0  0
   58.1590   30.8400   45.6740 N   0  0  0  0  0  0  0  0  0  0  0  0
   58.0490   29.4340   45.4130 C   0  0  0  0  0  0  0  0  0  0  0  0
   57.7660   28.5310   46.4510 C   0  0  0  0  0  0  0  0  0  0  0  0
   57.6540   27.1640   46.1810 C   0  0  0  0  0  0  0  0  0  0  0  0
   57.8410   26.6870   44.8800 C   0  0  0  0  0  0  0  0  0  0  0  0
   57.6990   24.9720   44.5430 Cl  0  0  0  0  0  0  0  0  0  0  0  0
   58.1500   27.5810   43.8490 C   0  0  0  0  0  0  0  0  0  0  0  0
   58.2620   28.9490   44.1160 C   0  0  0  0  0  0  0  0  0  0  0  0
   59.1830   31.5070   46.2610 C   0  0  0  0  0  0  0  0  0  0  0  0
   58.9420   32.8480   46.1560 C   0  0  0  0  0  0  0  0  0  0  0  0
   59.9360   33.8860   46.5470 C   0  0  0  0  0  0  0  0  0  0  0  0
   61.3080   33.1980   46.6760 C   0  0  0  0  0  0  0  0  0  0  0  0
   61.2120   32.0310   47.4820 O   0  0  0  0  0  0  0  0  0  0  0  0
   60.4900   30.9840   46.8300 C   0  0  1  0  0  0  0  0  0  0  0  0
   60.2280   29.8740   47.8760 C   0  0  0  0  0  0  0  0  0  0  0  0
   60.1070   30.4060   49.2570 N   0  0  0  0  0  0  0  0  0  0  0  0
   60.2460   29.3240   50.2720 C   0  0  0  0  0  0  0  0  0  0  0  0
   59.4230   29.5690   51.5560 C   0  0  0  0  0  0  0  0  0  0  0  0
   59.3030   31.0010   51.8890 N   0  0  0  0  0  0  0  0  0  0  0  0
   60.5690   31.5520   52.4030 C   0  0  0  0  0  0  0  0  0  0  0  0
   58.7380   31.8100   50.7830 C   0  0  0  0  0  0  0  0  0  0  0  0
   58.8240   31.1190   49.4070 C   0  0  0  0  0  0  0  0  0  0  0  0
   56.7166   34.7766   46.0445 H   0  0  0  0  0  0  0  0  0  0  0  0
   57.7099   34.8283   44.5487 H   0  0  0  0  0  0  0  0  0  0  0  0
   56.1301   33.9733   44.5487 H   0  0  0  0  0  0  0  0  0  0  0  0
   57.6322   28.9003   47.4785 H   0  0  0  0  0  0  0  0  0  0  0  0
   57.4181   26.4617   46.9941 H   0  0  0  0  0  0  0  0  0  0  0  0
   58.3052   27.2069   42.8263 H   0  0  0  0  0  0  0  0  0  0  0  0
   58.5182   29.6466   43.3050 H   0  0  0  0  0  0  0  0  0  0  0  0
   59.9813   34.6699   45.7767 H   0  0  0  0  0  0  0  0  0  0  0  0
   59.6490   34.3534   47.5005 H   0  0  0  0  0  0  0  0  0  0  0  0
   61.6662   32.9167   45.6747 H   0  0  0  0  0  0  0  0  0  0  0  0
   62.0111   33.8983   47.1506 H   0  0  0  0  0  0  0  0  0  0  0  0
   61.0737   30.5840   45.9878 H   0  0  0  0  0  0  0  0  0  0  0  0
   59.2927   29.3575   47.6145 H   0  0  0  0  0  0  0  0  0  0  0  0
   61.0890   29.1897   47.8575 H   0  0  0  0  0  0  0  0  0  0  0  0
   60.8710   31.1080   49.4000 H   0  0  0  0  0  0  0  0  0  0  0  0
   59.9115   28.3786   49.8200 H   0  0  0  0  0  0  0  0  0  0  0  0
   61.3048   29.2952   50.5689 H   0  0  0  0  0  0  0  0  0  0  0  0
   58.4140   29.1552   51.4119 H   0  0  0  0  0  0  0  0  0  0  0  0
   59.9488   29.0768   52.3874 H   0  0  0  0  0  0  0  0  0  0  0  0
   60.5523   31.5447   53.5028 H   0  0  0  0  0  0  0  0  0  0  0  0
   61.4084   30.9378   52.0450 H   0  0  0  0  0  0  0  0  0  0  0  0
   60.6915   32.5849   52.0450 H   0  0  0  0  0  0  0  0  0  0  0  0
   57.6798   32.0121   51.0052 H   0  0  0  0  0  0  0  0  0  0  0  0
   59.3352   32.7316   50.7194 H   0  0  0  0  0  0  0  0  0  0  0  0
   57.9981   30.3985   49.3132 H   0  0  0  0  0  0  0  0  0  0  0  0
   58.7539   31.8868   48.6224 H   0  0  0  0  0  0  0  0  0  0  0  0
  1  2  1  0
  2  3  2  0
  3  4  1  0
  4  5  1  0
  5  6  2  0
  6  7  1  0
  7  8  2  0
  8  9  1  0
  8 10  1  0
 10 11  2  0
  4 12  1  0
 12 13  2  0
 13 14  1  0
 14 15  1  0
 15 16  1  0
 16 17  1  0
 17 18  1  0
 18 19  1  0
 19 20  1  0
 20 21  1  0
 21 22  1  0
 22 23  1  0
 22 24  1  0
 24 25  1  0
 13  2  1  0
 25 19  1  0
 11  5  1  0
 17 12  1  0
  1 26  1  0
  1 27  1  0
  1 28  1  0
  6 29  1  0
  7 30  1  0
 10 31  1  0
 11 32  1  0
 14 33  1  0
 14 34  1  0
 15 35  1  0
 15 36  1  0
 17 37  1  6
 18 38  1  0
 18 39  1  0
 19 40  1  0
 20 41  1  0
 20 42  1  0
 21 43  1  0
 21 44  1  0
 23 45  1  0
 23 46  1  0
 23 47  1  0
 24 48  1  0
 24 49  1  0
 25 50  1  0
 25 51  1  0
M  CHG  1  19   1
M  END
>  <UniqueID>  (46) 
45

>  <SMILES>  (46) 
Cc1nn(-c2ccc(Cl)cc2)c2c1CCO[C@H]2C[NH+]1CCN(C)CC1

>  <Energy>  (46) 
108.37861035153941

>  <Genealogy>  (46) 
Cc1nn(-c2ccc(Cl)cc2)c2c1CCOC2C[NH+]1CCN(C)CC1 (protonated)
Cc1nn(-c2ccc(Cl)cc2)c2c1CCO[C@H]2C[NH+]1CCN(C)CC1 (chirality)
Cc1nn(-c2ccc(Cl)cc2)c2c1CCO[C@H]2C[NH+]1CCN(C)CC1 (3D coordinates assigned)
Cc1nn(-c2ccc(Cl)cc2)c2c1CCO[C@H]2C[NH+]1CCN(C)CC1 (nonaromatic ring conformer: 108.37861035153941 kcal/mol)

>  <smiles>  (46) 
Cc1nn(-c2ccc(Cl)cc2)c2c1CCOC2CN1CCN(C)CC1

>  <score_type>  (46) 
oracle

>  <origin>  (46) 
adg

>  <m_score__min__energy>  (46) 
-5.5999999999999996

>  <m_primary>  (46) 
energy

$$$$
46:0
     RDKit          3D

 58 60  0  0  0  0  0  0  0  0999 V2000
   62.9750   33.8860   46.3750 C   0  0  0  0  0  0  0  0  0  0  0  0
   61.6800   33.1910   46.8050 C   0  0  0  0  0  0  0  0  0  0  0  0
   61.4610   33.3350   48.2500 N   0  0  0  0  0  0  0  0  0  0  0  0
   60.5550   34.3690   48.7650 C   0  0  0  0  0  0  0  0  0  0  0  0
   59.7050   34.9710   47.6400 C   0  0  0  0  0  0  0  0  0  0  0  0
   58.5530   34.1250   47.3530 N   0  0  0  0  0  0  0  0  0  0  0  0
   58.1800   33.7230   46.0310 C   0  0  0  0  0  0  0  0  0  0  0  0
   57.8020   34.5820   45.1920 O   0  0  0  0  0  0  0  0  0  0  0  0
   58.2470   32.2980   45.6690 C   0  0  0  0  0  0  0  0  0  0  0  0
   57.8990   31.7220   44.1200 S   0  0  0  0  0  0  0  0  0  0  0  0
   58.1710   30.1150   44.5040 C   0  0  0  0  0  0  0  0  0  0  0  0
   58.0540   29.0730   43.6510 N   0  0  0  0  0  0  0  0  0  0  0  0
   58.3070   27.8010   44.0800 C   0  0  0  0  0  0  0  0  0  0  0  0
   58.1410   26.6520   43.1210 C   0  0  0  0  0  0  0  0  0  0  0  0
   58.7480   27.5760   45.4110 C   0  0  0  0  0  0  0  0  0  0  0  0
   59.0820   25.9180   45.9450 Cl  0  0  0  0  0  0  0  0  0  0  0  0
   58.9290   28.6780   46.2950 C   0  0  0  0  0  0  0  0  0  0  0  0
   59.5100   28.4620   47.6770 C   0  0  0  0  0  0  0  0  0  0  0  0
   58.5640   29.9680   45.8300 C   0  0  0  0  0  0  0  0  0  0  0  0
   58.5820   31.2180   46.5080 C   0  0  0  0  0  0  0  0  0  0  0  0
   58.8920   31.3840   47.9000 N   0  0  0  0  0  0  0  0  0  0  0  0
   62.2910   32.6080   49.1740 C   0  0  0  0  0  0  0  0  0  0  0  0
   63.6690   32.8610   49.2220 C   0  0  0  0  0  0  0  0  0  0  0  0
   64.4970   32.1200   50.0680 C   0  0  0  0  0  0  0  0  0  0  0  0
   63.9530   31.1190   50.8970 C   0  0  0  0  0  0  0  0  0  0  0  0
   64.7470   30.3460   51.7630 O   0  0  0  0  0  0  0  0  0  0  0  0
   66.1530   30.1670   51.6180 C   0  0  0  0  0  0  0  0  0  0  0  0
   62.5700   30.8800   50.8650 C   0  0  0  0  0  0  0  0  0  0  0  0
   61.7290   31.6170   50.0030 C   0  0  0  0  0  0  0  0  0  0  0  0
   60.3410   31.3990   49.9420 O   0  0  0  0  0  0  0  0  0  0  0  0
   59.4020   31.8790   50.9030 C   0  0  0  0  0  0  0  0  0  0  0  0
   63.5417   34.1901   47.2674 H   0  0  0  0  0  0  0  0  0  0  0  0
   63.5815   33.1922   45.7744 H   0  0  0  0  0  0  0  0  0  0  0  0
   62.7321   34.7749   45.7744 H   0  0  0  0  0  0  0  0  0  0  0  0
   60.8336   33.6418   46.2661 H   0  0  0  0  0  0  0  0  0  0  0  0
   61.7612   32.1200   46.5676 H   0  0  0  0  0  0  0  0  0  0  0  0
   59.8893   33.9206   49.5172 H   0  0  0  0  0  0  0  0  0  0  0  0
   61.1602   35.1714   49.2121 H   0  0  0  0  0  0  0  0  0  0  0  0
   59.3535   35.9671   47.9470 H   0  0  0  0  0  0  0  0  0  0  0  0
   60.3225   35.0460   46.7327 H   0  0  0  0  0  0  0  0  0  0  0  0
   57.7620   29.2560   42.6640 H   0  0  0  0  0  0  0  0  0  0  0  0
   58.0061   25.7185   43.6870 H   0  0  0  0  0  0  0  0  0  0  0  0
   57.2589   26.8275   42.4877 H   0  0  0  0  0  0  0  0  0  0  0  0
   59.0367   26.5706   42.4877 H   0  0  0  0  0  0  0  0  0  0  0  0
   58.7637   28.7395   48.4360 H   0  0  0  0  0  0  0  0  0  0  0  0
   59.7811   27.4030   47.7993 H   0  0  0  0  0  0  0  0  0  0  0  0
   60.4071   29.0867   47.7993 H   0  0  0  0  0  0  0  0  0  0  0  0
   58.8950   30.5650   48.5410 H   0  0  0  0  0  0  0  0  0  0  0  0
   59.2360   32.2980   48.2730 H   0  0  0  0  0  0  0  0  0  0  0  0
   64.1015   33.6493   48.5884 H   0  0  0  0  0  0  0  0  0  0  0  0
   65.5787   32.3187   50.0872 H   0  0  0  0  0  0  0  0  0  0  0  0
   66.6195   30.1076   52.6124 H   0  0  0  0  0  0  0  0  0  0  0  0
   66.3491   29.2366   51.0648 H   0  0  0  0  0  0  0  0  0  0  0  0
   66.5759   31.0186   51.0648 H   0  0  0  0  0  0  0  0  0  0  0  0
   62.1364   30.1094   51.5193 H   0  0  0  0  0  0  0  0  0  0  0  0
   59.7827   31.6844   51.9165 H   0  0  0  0  0  0  0  0  0  0  0  0
   59.2585   32.9610   50.7667 H   0  0  0  0  0  0  0  0  0  0  0  0
   58.4409   31.3616   50.7667 H   0  0  0  0  0  0  0  0  0  0  0  0
  1  2  1  0
  2  3  1  0
  3  4  1  0
  4  5  1  0
  5  6  1  0
  6  7  1  0
  7  8  2  0
  7  9  1  0
  9 10  1  0
 10 11  1  0
 11 12  2  0
 12 13  1  0
 13 14  1  0
 13 15  2  0
 15 16  1  0
 15 17  1  0
 17 18  1  0
 17 19  2  0
 19 20  1  0
 20 21  1  0
  3 22  1  0
 22 23  2  0
 23 24  1  0
 24 25  2  0
 25 26  1  0
 26 27  1  0
 25 28  1  0
 28 29  2  0
 29 30  1  0
 30 31  1  0
 20  9  2  0
 29 22  1  0
 19 11  1  0
  1 32  1  0
  1 33  1  0
  1 34  1  0
  2 35  1  0
  2 36  1  0
  4 37  1  0
  4 38  1  0
  5 39  1  0
  5 40  1  0
 12 41  1  0
 14 42  1  0
 14 43  1  0
 14 44  1  0
 18 45  1  0
 18 46  1  0
 18 47  1  0
 21 48  1  0
 21 49  1  0
 23 50  1  0
 24 51  1  0
 27 52  1  0
 27 53  1  0
 27 54  1  0
 28 55  1  0
 31 56  1  0
 31 57  1  0
 31 58  1  0
M  CHG  2   6  -1  12   1
M  END
>  <UniqueID>  (47) 
46

>  <SMILES>  (47) 
CCN(CC[N-]C(=O)c1sc2[nH+]c(C)c(Cl)c(C)c2c1N)c1ccc(OC)cc1OC

>  <Energy>  (47) 
95.5637550989804

>  <Genealogy>  (47) 
CCN(CC[N-]C(=O)c1sc2[nH+]c(C)c(Cl)c(C)c2c1N)c1ccc(OC)cc1OC (protonated)
CCN(CC[N-]C(=O)c1sc2[nH+]c(C)c(Cl)c(C)c2c1N)c1ccc(OC)cc1OC (3D coordinates assigned)
CCN(CC[N-]C(=O)c1sc2[nH+]c(C)c(Cl)c(C)c2c1N)c1ccc(OC)cc1OC (optimized conformer: 95.5637550989804 kcal/mol)

>  <smiles>  (47) 
CCN(CCNC(=O)c1sc2nc(C)c(Cl)c(C)c2c1N)c1ccc(OC)cc1OC

>  <score_type>  (47) 
oracle

>  <origin>  (47) 
adg

>  <m_score__min__energy>  (47) 
-7.6699999999999999

>  <m_primary>  (47) 
energy

$$$$
47:0
     RDKit          2D

 44 47  0  0  0  0  0  0  0  0999 V2000
    6.7500   -3.8971    0.0000 C   0  0  0  0  0  0  0  0  0  0  0  0
    5.2500   -3.8971    0.0000 N   0  0  0  0  0  0  0  0  0  0  0  0
    4.5000   -2.5981    0.0000 C   0  0  0  0  0  0  0  0  0  0  0  0
    3.7500   -1.2990    0.0000 C   0  0  0  0  0  0  0  0  0  0  0  0
    3.0000    0.0000    0.0000 N   0  0  0  0  0  0  0  0  0  0  0  0
    3.7500    1.2990    0.0000 C   0  0  0  0  0  0  0  0  0  0  0  0
    1.5000    0.0000    0.0000 C   0  0  0  0  0  0  0  0  0  0  0  0
    0.7500   -1.2990    0.0000 C   0  0  0  0  0  0  0  0  0  0  0  0
   -0.7500   -1.2990    0.0000 C   0  0  0  0  0  0  0  0  0  0  0  0
   -1.5000    0.0000    0.0000 C   0  0  0  0  0  0  0  0  0  0  0  0
   -0.7500    1.2990    0.0000 C   0  0  0  0  0  0  0  0  0  0  0  0
   -1.5000    2.5981    0.0000 C   0  0  0  0  0  0  0  0  0  0  0  0
   -3.0000    2.5981    0.0000 C   0  0  0  0  0  0  0  0  0  0  0  0
   -3.7500    1.2990    0.0000 C   0  0  0  0  0  0  0  0  0  0  0  0
   -5.2500    1.2990    0.0000 C   0  0  0  0  0  0  0  0  0  0  0  0
   -6.0000    2.5981    0.0000 N   0  0  0  0  0  0  0  0  0  0  0  0
   -6.0000   -0.0000    0.0000 C   0  0  0  0  0  0  0  0  0  0  0  0
   -5.2500   -1.2990    0.0000 C   0  0  0  0  0  0  0  0  0  0  0  0
   -3.7500   -1.2990    0.0000 C   0  0  0  0  0  0  0  0  0  0  0  0
   -3.0000    0.0000    0.0000 C   0  0  0  0  0  0  0  0  0  0  0  0
   -2.4060   -1.1490    0.0000 C   0  0  0  0  0  0  0  0  0  0  0  0
   -0.8491   -0.4279    0.0000 C   0  0  0  0  0  0  0  0  0  0  0  0
    0.7500    1.2990    0.0000 C   0  0  0  0  0  0  0  0  0  0  0  0
    8.2500   -3.8971    0.0000 H   0  0  0  0  0  0  0  0  0  0  0  0
    6.7500   -5.3971    0.0000 H   0  0  0  0  0  0  0  0  0  0  0  0
    6.7500   -2.3971    0.0000 H   0  0  0  0  0  0  0  0  0  0  0  0
    4.5000   -5.1962    0.0000 H   0  0  0  0  0  0  0  0  0  0  0  0
    3.2010   -3.3481    0.0000 H   0  0  0  0  0  0  0  0  0  0  0  0
    5.7990   -1.8481    0.0000 H   0  0  0  0  0  0  0  0  0  0  0  0
    2.4510   -2.0490    0.0000 H   0  0  0  0  0  0  0  0  0  0  0  0
    5.0490   -0.5490    0.0000 H   0  0  0  0  0  0  0  0  0  0  0  0
    4.5000    2.5981    0.0000 H   0  0  0  0  0  0  0  0  0  0  0  0
    5.0490    0.5490    0.0000 H   0  0  0  0  0  0  0  0  0  0  0  0
    2.4510    2.0490    0.0000 H   0  0  0  0  0  0  0  0  0  0  0  0
    1.5000   -2.5981    0.0000 H   0  0  0  0  0  0  0  0  0  0  0  0
   -1.5000   -2.5981    0.0000 H   0  0  0  0  0  0  0  0  0  0  0  0
   -0.7500    3.8971    0.0000 H   0  0  0  0  0  0  0  0  0  0  0  0
   -3.7500    3.8971    0.0000 H   0  0  0  0  0  0  0  0  0  0  0  0
   -7.5000    2.5981    0.0000 H   0  0  0  0  0  0  0  0  0  0  0  0
   -5.2500    3.8971    0.0000 H   0  0  0  0  0  0  0  0  0  0  0  0
   -7.5000   -0.0000    0.0000 H   0  0  0  0  0  0  0  0  0  0  0  0
   -6.0000   -2.5981    0.0000 H   0  0  0  0  0  0  0  0  0  0  0  0
   -2.2416   -3.3429    0.0000 H   0  0  0  0  0  0  0  0  0  0  0  0
    0.1847   -1.9420    0.0000 H   0  0  0  0  0  0  0  0  0  0  0  0
  1  2  1  0
  2  3  1  0
  3  4  1  0
  4  5  1  0
  5  6  1  0
  5  7  1  0
  7  8  2  0
  8  9  1  0
  9 10  2  0
 10 11  1  0
 11 12  1  0
 12 13  2  0
 13 14  1  0
 14 15  2  0
 15 16  1  0
 15 17  1  0
 17 18  2  0
 18 19  1  0
 19 20  2  0
 19 21  1  0
 21 22  2  0
 22 23  1  0
 23  7  1  0
 20 10  1  0
 23 11  2  0
 20 14  1  0
  1 24  1  0
  1 25  1  0
  1 26  1  0
  2 27  1  0
  3 28  1  0
  3 29  1  0
  4 30  1  0
  4 31  1  0
  6 32  1  0
  6 33  1  0
  6 34  1  0
  8 35  1  0
  9 36  1  0
 12 37  1  0
 13 38  1  0
 16 39  1  0
 16 40  1  0
 17 41  1  0
 18 42  1  0
 21 43  1  0
 22 44  1  0
M  END
>  <smiles>  (48) 
CNCCN(C)c1ccc2c3ccc4c(N)ccc(c42)C=Cc13

>  <m_score__min__energy>  (48) 
nan

>  <m_primary>  (48) 
energy

$$$$
