0:0
     RDKit          3D

 42 44  0  0  0  0  0  0  0  0999 V2000
   56.8879   24.6925   46.9509 H   0  0  0  0  0  0  0  0  0  0  0  0
   57.1910   25.6750   46.5600 C   0  0  0  0  0  0  0  0  0  0  0  0
   58.5370   26.0460   46.5840 C   0  0  0  0  0  0  0  0  0  0  0  0
   59.2845   25.3604   47.0097 H   0  0  0  0  0  0  0  0  0  0  0  0
   58.9430   27.2850   46.0700 C   0  0  0  0  0  0  0  0  0  0  0  0
   60.3990   27.6800   46.1460 C   0  0  0  0  0  0  0  0  0  0  0  0
   60.9554   26.8850   46.6640 H   0  0  0  0  0  0  0  0  0  0  0  0
   60.7657   27.8200   45.1184 H   0  0  0  0  0  0  0  0  0  0  0  0
   60.5920   28.9380   46.8680 N   0  0  0  0  0  0  0  0  0  0  0  0
   59.8980   30.0450   46.9560 C   0  0  0  0  0  0  0  0  0  0  0  0
   59.5240   30.6930   48.1780 C   0  0  0  0  0  0  0  0  0  0  0  0
   59.7780   30.1630   49.5580 C   0  0  0  0  0  0  0  0  0  0  0  0
   59.4277   30.8939   50.3017 H   0  0  0  0  0  0  0  0  0  0  0  0
   59.2363   29.2151   49.6922 H   0  0  0  0  0  0  0  0  0  0  0  0
   60.8562   29.9914   49.6922 H   0  0  0  0  0  0  0  0  0  0  0  0
   58.8300   31.8630   48.1080 N   0  0  0  0  0  0  0  0  0  0  0  0
   58.4770   32.4320   46.9340 C   0  0  0  0  0  0  0  0  0  0  0  0
   57.7680   33.6390   46.9130 C   0  0  0  0  0  0  0  0  0  0  0  0
   57.4979   34.1362   47.8563 H   0  0  0  0  0  0  0  0  0  0  0  0
   57.4040   34.2110   45.6900 C   0  0  0  0  0  0  0  0  0  0  0  0
   56.8482   35.1601   45.6720 H   0  0  0  0  0  0  0  0  0  0  0  0
   57.7450   33.5790   44.4890 C   0  0  0  0  0  0  0  0  0  0  0  0
   57.4562   34.0314   43.5288 H   0  0  0  0  0  0  0  0  0  0  0  0
   58.4530   32.3720   44.5080 C   0  0  0  0  0  0  0  0  0  0  0  0
   58.7204   31.8762   43.5632 H   0  0  0  0  0  0  0  0  0  0  0  0
   58.8220   31.7940   45.7330 C   0  0  0  0  0  0  0  0  0  0  0  0
   59.5120   30.6230   45.7780 N   0  0  0  0  0  0  0  0  0  0  0  0
   59.7730   30.1540   44.8790 H   0  0  0  0  0  0  0  0  0  0  0  0
   57.9700   28.1740   45.5810 C   0  0  0  0  0  0  0  0  0  0  0  0
   58.2736   29.1670   45.2179 H   0  0  0  0  0  0  0  0  0  0  0  0
   56.6110   27.8070   45.5510 C   0  0  0  0  0  0  0  0  0  0  0  0
   55.6190   28.6630   45.0460 O   0  0  0  0  0  0  0  0  0  0  0  0
   55.8660   29.7510   44.1610 C   0  0  0  0  0  0  0  0  0  0  0  0
   56.0723   30.6596   44.7456 H   0  0  0  0  0  0  0  0  0  0  0  0
   56.7341   29.5180   43.5269 H   0  0  0  0  0  0  0  0  0  0  0  0
   54.9824   29.9157   43.5269 H   0  0  0  0  0  0  0  0  0  0  0  0
   56.2200   26.5500   46.0390 C   0  0  0  0  0  0  0  0  0  0  0  0
   54.8590   26.2110   45.9930 O   0  0  0  0  0  0  0  0  0  0  0  0
   54.3600   24.9320   45.6170 C   0  0  0  0  0  0  0  0  0  0  0  0
   54.1319   24.3473   46.5204 H   0  0  0  0  0  0  0  0  0  0  0  0
   53.4445   25.0566   45.0200 H   0  0  0  0  0  0  0  0  0  0  0  0
   55.1180   24.4037   45.0200 H   0  0  0  0  0  0  0  0  0  0  0  0
  1  2  1  0
  2  3  2  0
  3  4  1  0
  3  5  1  0
  5  6  1  0
  6  7  1  0
  6  8  1  0
  6  9  1  0
  9 10  2  0
 10 11  1  0
 11 12  1  0
 12 13  1  0
 12 14  1  0
 12 15  1  0
 11 16  2  0
 16 17  1  0
 17 18  2  0
 18 19  1  0
 18 20  1  0
 20 21  1  0
 20 22  2  0
 22 23  1  0
 22 24  1  0
 24 25  1  0
 24 26  2  0
 26 27  1  0
 27 28  1  0
  5 29  2  0
 29 30  1  0
 29 31  1  0
 31 32  1  0
 32 33  1  0
 33 34  1  0
 33 35  1  0
 33 36  1  0
 31 37  2  0
 37 38  1  0
 38 39  1  0
 39 40  1  0
 39 41  1  0
 39 42  1  0
 37  2  1  0
 27 10  1  0
 26 17  1  0
M  END
>  <UniqueID>  (1) 
1

>  <SMILES>  (1) 
COc1ccc(C/N=c2/[nH]c3ccccc3nc2C)cc1OC

>  <Energy>  (1) 
58.50800488467043

>  <Genealogy>  (1) 
COc1ccc(C/N=c2/[nH]c3ccccc3nc2C)cc1OC (cis-trans isomerization)
COc1ccc(C/N=c2/[nH]c3ccccc3nc2C)cc1OC (3D coordinates assigned)
COc1ccc(C/N=c2/[nH]c3ccccc3nc2C)cc1OC (optimized conformer: 58.50800488467043 kcal/mol)

>  <smiles>  (1) 
COc1ccc(CN=c2[nH]c3ccccc3nc2C)cc1OC

>  <score_type>  (1) 
oracle

>  <origin>  (1) 
adg

>  <m_score__min__energy>  (1) 
-7.79

>  <m_primary>  (1) 
energy

$$$$
1:0
     RDKit          3D

 28 29  0  0  0  0  0  0  0  0999 V2000
   56.0960   29.7390   43.3020 C   0  0  0  0  0  0  0  0  0  0  0  0
   56.1880   30.4360   44.5390 O   0  0  0  0  0  0  0  0  0  0  0  0
   57.3950   30.8000   45.1550 C   0  0  0  0  0  0  0  0  0  0  0  0
   58.2730   29.8520   45.7130 C   0  0  0  0  0  0  0  0  0  0  0  0
   59.4660   30.2600   46.3170 C   0  0  0  0  0  0  0  0  0  0  0  0
   59.7990   31.6210   46.3750 C   0  0  0  0  0  0  0  0  0  0  0  0
   60.9920   32.0400   46.9800 C   0  0  0  0  0  0  0  0  0  0  0  0
   61.3350   33.4040   47.0420 C   0  0  0  0  0  0  0  0  0  0  0  0
   62.6470   33.7770   47.7200 C   0  0  0  0  0  0  0  0  0  0  0  0
   62.3560   34.5480   48.8330 F   0  0  0  0  0  0  0  0  0  0  0  0
   63.3840   34.5530   46.8410 F   0  0  0  0  0  0  0  0  0  0  0  0
   63.5300   32.6030   48.1750 C   0  0  0  0  0  0  0  0  0  0  0  0
   64.7440   33.0940   48.6240 F   0  0  0  0  0  0  0  0  0  0  0  0
   62.9270   31.9160   49.2140 F   0  0  0  0  0  0  0  0  0  0  0  0
   63.7730   31.7410   47.1200 F   0  0  0  0  0  0  0  0  0  0  0  0
   60.4450   34.3470   46.4830 C   0  0  0  0  0  0  0  0  0  0  0  0
   59.2550   33.9370   45.8780 C   0  0  0  0  0  0  0  0  0  0  0  0
   58.9220   32.5780   45.8190 C   0  0  0  0  0  0  0  0  0  0  0  0
   57.7280   32.1590   45.2130 C   0  0  0  0  0  0  0  0  0  0  0  0
   55.9543   28.6655   43.4957 H   0  0  0  0  0  0  0  0  0  0  0  0
   55.2409   30.1239   42.7270 H   0  0  0  0  0  0  0  0  0  0  0  0
   57.0217   29.8888   42.7270 H   0  0  0  0  0  0  0  0  0  0  0  0
   58.0187   28.7825   45.6736 H   0  0  0  0  0  0  0  0  0  0  0  0
   60.1460   29.5106   46.7484 H   0  0  0  0  0  0  0  0  0  0  0  0
   61.6711   31.2910   47.4133 H   0  0  0  0  0  0  0  0  0  0  0  0
   60.6921   35.4181   46.5246 H   0  0  0  0  0  0  0  0  0  0  0  0
   58.5753   34.6858   45.4453 H   0  0  0  0  0  0  0  0  0  0  0  0
   57.0465   32.9055   44.7790 H   0  0  0  0  0  0  0  0  0  0  0  0
  1  2  1  0
  2  3  1  0
  3  4  2  0
  4  5  1  0
  5  6  2  0
  6  7  1  0
  7  8  2  0
  8  9  1  0
  9 10  1  0
  9 11  1  0
  9 12  1  0
 12 13  1  0
 12 14  1  0
 12 15  1  0
  8 16  1  0
 16 17  2  0
 17 18  1  0
 18 19  2  0
 19  3  1  0
 18  6  1  0
  1 20  1  0
  1 21  1  0
  1 22  1  0
  4 23  1  0
  5 24  1  0
  7 25  1  0
 16 26  1  0
 17 27  1  0
 19 28  1  0
M  END
>  <UniqueID>  (2) 
2

>  <SMILES>  (2) 
COc1ccc2cc(C(F)(F)C(F)(F)F)ccc2c1

>  <Energy>  (2) 
33.77018781419715

>  <Genealogy>  (2) 
COc1ccc2cc(C(F)(F)C(F)(F)F)ccc2c1 (3D coordinates assigned)
COc1ccc2cc(C(F)(F)C(F)(F)F)ccc2c1 (optimized conformer: 33.77018781419715 kcal/mol)

>  <smiles>  (2) 
COc1ccc2cc(C(F)(F)C(F)(F)F)ccc2c1

>  <score_type>  (2) 
oracle

>  <origin>  (2) 
adg

>  <m_score__min__energy>  (2) 
-5.5800000000000001

>  <m_primary>  (2) 
energy

$$$$
2:0
     RDKit          3D

 33 32  0  0  0  0  0  0  0  0999 V2000
   57.9170   32.3580   41.6560 C   0  0  0  0  0  0  0  0  0  0  0  0
   57.0190   31.2630   42.2220 C   0  0  0  0  0  0  0  0  0  0  0  0
   56.8170   31.4560   43.6200 O   0  0  0  0  0  0  0  0  0  0  0  0
   56.4280   30.4320   44.4880 C   0  0  0  0  0  0  0  0  0  0  0  0
   55.3310   29.8290   44.3210 O   0  0  0  0  0  0  0  0  0  0  0  0
   57.2800   30.0780   45.5390 O   0  0  0  0  0  0  0  0  0  0  0  0
   58.6980   30.2020   45.4770 C   0  0  0  0  0  0  0  0  0  0  0  0
   59.1850   31.6150   45.8740 C   0  0  0  0  0  0  0  0  0  0  0  0
   58.1670   32.7120   45.8920 N   0  0  0  0  0  0  0  0  0  0  0  0
   58.3300   33.8030   44.8920 C   0  0  0  0  0  0  0  0  0  0  0  0
   59.2860   34.9330   45.2970 C   0  0  0  0  0  0  0  0  0  0  0  0
   57.6970   33.1480   47.2370 C   0  0  0  0  0  0  0  0  0  0  0  0
   58.5280   32.6560   48.4250 C   0  0  0  0  0  0  0  0  0  0  0  0
   58.3770   32.9189   42.4829 H   0  0  0  0  0  0  0  0  0  0  0  0
   58.7053   31.9029   41.0384 H   0  0  0  0  0  0  0  0  0  0  0  0
   57.3164   33.0420   41.0384 H   0  0  0  0  0  0  0  0  0  0  0  0
   56.0466   31.2908   41.7085 H   0  0  0  0  0  0  0  0  0  0  0  0
   57.5036   30.2883   42.0638 H   0  0  0  0  0  0  0  0  0  0  0  0
   59.1469   29.4682   46.1626 H   0  0  0  0  0  0  0  0  0  0  0  0
   59.0048   30.0221   44.4361 H   0  0  0  0  0  0  0  0  0  0  0  0
   59.6133   31.5450   46.8848 H   0  0  0  0  0  0  0  0  0  0  0  0
   59.8948   31.9014   45.0840 H   0  0  0  0  0  0  0  0  0  0  0  0
   57.3130   32.2210   45.5240 H   0  0  0  0  0  0  0  0  0  0  0  0
   58.7090   33.3557   43.9612 H   0  0  0  0  0  0  0  0  0  0  0  0
   57.3387   34.2685   44.7887 H   0  0  0  0  0  0  0  0  0  0  0  0
   59.3376   34.9940   46.3941 H   0  0  0  0  0  0  0  0  0  0  0  0
   60.2885   34.7274   44.8936 H   0  0  0  0  0  0  0  0  0  0  0  0
   58.9171   35.8876   44.8936 H   0  0  0  0  0  0  0  0  0  0  0  0
   57.7001   34.2478   47.2554 H   0  0  0  0  0  0  0  0  0  0  0  0
   56.7000   32.7012   47.3644 H   0  0  0  0  0  0  0  0  0  0  0  0
   58.0345   32.9482   49.3637 H   0  0  0  0  0  0  0  0  0  0  0  0
   58.6157   31.5603   48.3824 H   0  0  0  0  0  0  0  0  0  0  0  0
   59.5308   33.1060   48.3824 H   0  0  0  0  0  0  0  0  0  0  0  0
  1  2  1  0
  2  3  1  0
  3  4  1  0
  4  5  2  0
  4  6  1  0
  6  7  1  0
  7  8  1  0
  8  9  1  0
  9 10  1  0
 10 11  1  0
  9 12  1  0
 12 13  1  0
  1 14  1  0
  1 15  1  0
  1 16  1  0
  2 17  1  0
  2 18  1  0
  7 19  1  0
  7 20  1  0
  8 21  1  0
  8 22  1  0
  9 23  1  0
 10 24  1  0
 10 25  1  0
 11 26  1  0
 11 27  1  0
 11 28  1  0
 12 29  1  0
 12 30  1  0
 13 31  1  0
 13 32  1  0
 13 33  1  0
M  CHG  1   9   1
M  END
>  <UniqueID>  (3) 
3

>  <SMILES>  (3) 
CCOC(=O)OCC[NH+](CC)CC

>  <Energy>  (3) 
39.47734532579684

>  <Genealogy>  (3) 
CCOC(=O)OCC[NH+](CC)CC (protonated)
CCOC(=O)OCC[NH+](CC)CC (3D coordinates assigned)
CCOC(=O)OCC[NH+](CC)CC (optimized conformer: 39.47734532579684 kcal/mol)

>  <smiles>  (3) 
CCOC(=O)OCCN(CC)CC

>  <score_type>  (3) 
oracle

>  <origin>  (3) 
adg

>  <m_score__min__energy>  (3) 
-1.73

>  <m_primary>  (3) 
energy

$$$$
3:0
     RDKit          3D

 28 29  0  0  0  0  0  0  0  0999 V2000
   59.6350   34.9260   46.5060 C   0  0  0  0  0  0  0  0  0  0  0  0
   59.7180   34.1270   45.3300 O   0  0  0  0  0  0  0  0  0  0  0  0
   58.8510   33.0650   45.0330 C   0  0  0  0  0  0  0  0  0  0  0  0
   58.2050   32.9430   43.7880 C   0  0  0  0  0  0  0  0  0  0  0  0
   57.3520   31.8650   43.5390 C   0  0  0  0  0  0  0  0  0  0  0  0
   57.1350   30.8840   44.5220 C   0  0  0  0  0  0  0  0  0  0  0  0
   56.2240   29.7470   44.2510 C   0  0  0  0  0  0  0  0  0  0  0  0
   55.6520   29.6680   43.1310 O   0  0  0  0  0  0  0  0  0  0  0  0
   55.9270   28.7560   45.2430 N   0  0  0  0  0  0  0  0  0  0  0  0
   56.7750   27.6650   45.6300 C   0  0  0  0  0  0  0  0  0  0  0  0
   58.1590   27.7820   45.4620 C   0  0  0  0  0  0  0  0  0  0  0  0
   59.0020   26.7390   45.8480 C   0  0  0  0  0  0  0  0  0  0  0  0
   58.4500   25.5900   46.4180 C   0  0  0  0  0  0  0  0  0  0  0  0
   57.1060   25.4980   46.6000 N   0  0  0  0  0  0  0  0  0  0  0  0
   56.2640   26.5000   46.2280 C   0  0  0  0  0  0  0  0  0  0  0  0
   57.7690   31.0180   45.7690 C   0  0  0  0  0  0  0  0  0  0  0  0
   58.6230   32.0960   46.0160 C   0  0  0  0  0  0  0  0  0  0  0  0
   59.7021   34.2799   47.3937 H   0  0  0  0  0  0  0  0  0  0  0  0
   60.4627   35.6504   46.5163 H   0  0  0  0  0  0  0  0  0  0  0  0
   58.6760   35.4648   46.5163 H   0  0  0  0  0  0  0  0  0  0  0  0
   58.3727   33.7000   43.0077 H   0  0  0  0  0  0  0  0  0  0  0  0
   56.8460   31.7832   42.5657 H   0  0  0  0  0  0  0  0  0  0  0  0
   58.5835   28.6978   45.0248 H   0  0  0  0  0  0  0  0  0  0  0  0
   60.0895   26.8211   45.7048 H   0  0  0  0  0  0  0  0  0  0  0  0
   59.1035   24.7583   46.7201 H   0  0  0  0  0  0  0  0  0  0  0  0
   55.1816   26.3982   46.3955 H   0  0  0  0  0  0  0  0  0  0  0  0
   57.5919   30.2696   46.5555 H   0  0  0  0  0  0  0  0  0  0  0  0
   59.1209   32.1836   46.9929 H   0  0  0  0  0  0  0  0  0  0  0  0
  1  2  1  0
  2  3  1  0
  3  4  2  0
  4  5  1  0
  5  6  2  0
  6  7  1  0
  7  8  2  0
  7  9  1  0
  9 10  1  0
 10 11  2  0
 11 12  1  0
 12 13  2  0
 13 14  1  0
 14 15  2  0
  6 16  1  0
 16 17  2  0
 17  3  1  0
 15 10  1  0
  1 18  1  0
  1 19  1  0
  1 20  1  0
  4 21  1  0
  5 22  1  0
 11 23  1  0
 12 24  1  0
 13 25  1  0
 15 26  1  0
 16 27  1  0
 17 28  1  0
M  CHG  1   9  -1
M  END
>  <UniqueID>  (4) 
4

>  <SMILES>  (4) 
COc1ccc(C(=O)[N-]c2cccnc2)cc1

>  <Energy>  (4) 
35.88667242394881

>  <Genealogy>  (4) 
COc1ccc(C(=O)[N-]c2cccnc2)cc1 (protonated)
COc1ccc(C(=O)[N-]c2cccnc2)cc1 (3D coordinates assigned)
COc1ccc(C(=O)[N-]c2cccnc2)cc1 (optimized conformer: 35.88667242394881 kcal/mol)

>  <smiles>  (4) 
COc1ccc(C(=O)Nc2cccnc2)cc1

>  <score_type>  (4) 
oracle

>  <origin>  (4) 
adg

>  <m_score__min__energy>  (4) 
-7.5800000000000001

>  <m_primary>  (4) 
energy

$$$$
4:0
     RDKit          3D

 45 47  0  0  0  0  0  0  0  0999 V2000
   59.6380   35.3490   45.6270 C   0  0  0  0  0  0  0  0  0  0  0  0
   58.5020   34.5820   44.9570 C   0  0  0  0  0  0  0  0  0  0  0  0
   57.7470   33.7120   45.9680 C   0  0  0  0  0  0  0  0  0  0  0  0
   58.5830   32.5810   46.3860 N   0  0  0  0  0  0  0  0  0  0  0  0
   58.4820   31.2980   45.6800 C   0  0  0  0  0  0  0  0  0  0  0  0
   57.4540   31.3890   44.5550 C   0  0  0  0  0  0  0  0  0  0  0  0
   56.3540   30.5600   44.8670 O   0  0  0  0  0  0  0  0  0  0  0  0
   56.0630   29.7330   43.7630 C   0  0  0  0  0  0  0  0  0  0  0  0
   59.3090   32.6610   47.6240 C   0  0  0  0  0  0  0  0  0  0  0  0
   58.6500   32.5950   48.8200 N   0  0  0  0  0  0  0  0  0  0  0  0
   59.3160   32.7070   50.0130 C   0  0  0  0  0  0  0  0  0  0  0  0
   60.6700   32.8960   50.0380 N   0  0  0  0  0  0  0  0  0  0  0  0
   61.3330   32.9440   48.8530 C   0  0  0  0  0  0  0  0  0  0  0  0
   60.6860   32.8560   47.6620 C   0  0  0  0  0  0  0  0  0  0  0  0
   61.6450   33.1050   46.7010 C   0  0  0  0  0  0  0  0  0  0  0  0
   62.8270   33.3240   47.3280 N   0  0  0  0  0  0  0  0  0  0  0  0
   62.6370   33.2160   48.6410 N   0  0  0  0  0  0  0  0  0  0  0  0
   63.6800   33.3900   49.6110 C   0  0  0  0  0  0  0  0  0  0  0  0
   64.8980   32.7080   49.4590 C   0  0  0  0  0  0  0  0  0  0  0  0
   65.9120   32.8510   50.4110 C   0  0  0  0  0  0  0  0  0  0  0  0
   65.7110   33.6640   51.5300 C   0  0  0  0  0  0  0  0  0  0  0  0
   64.4940   34.3290   51.7030 C   0  0  0  0  0  0  0  0  0  0  0  0
   63.4780   34.1880   50.7510 C   0  0  0  0  0  0  0  0  0  0  0  0
   59.5336   35.2785   46.7198 H   0  0  0  0  0  0  0  0  0  0  0  0
   60.6023   34.9164   45.3222 H   0  0  0  0  0  0  0  0  0  0  0  0
   59.5972   36.4051   45.3222 H   0  0  0  0  0  0  0  0  0  0  0  0
   57.8005   35.3003   44.5077 H   0  0  0  0  0  0  0  0  0  0  0  0
   58.9326   33.9256   44.1865 H   0  0  0  0  0  0  0  0  0  0  0  0
   57.4894   34.3186   46.8487 H   0  0  0  0  0  0  0  0  0  0  0  0
   56.8307   33.3267   45.4968 H   0  0  0  0  0  0  0  0  0  0  0  0
   59.4631   31.0403   45.2545 H   0  0  0  0  0  0  0  0  0  0  0  0
   58.1635   30.5228   46.3925 H   0  0  0  0  0  0  0  0  0  0  0  0
   57.1132   32.4296   44.4505 H   0  0  0  0  0  0  0  0  0  0  0  0
   57.9093   31.0607   43.6090 H   0  0  0  0  0  0  0  0  0  0  0  0
   55.7177   28.7518   44.1208 H   0  0  0  0  0  0  0  0  0  0  0  0
   55.2749   30.1991   43.1534 H   0  0  0  0  0  0  0  0  0  0  0  0
   56.9693   29.6028   43.1534 H   0  0  0  0  0  0  0  0  0  0  0  0
   58.7565   32.6443   50.9580 H   0  0  0  0  0  0  0  0  0  0  0  0
   61.1590   33.0320   50.9500 H   0  0  0  0  0  0  0  0  0  0  0  0
   61.4789   33.1227   45.6138 H   0  0  0  0  0  0  0  0  0  0  0  0
   65.0553   32.0575   48.5860 H   0  0  0  0  0  0  0  0  0  0  0  0
   66.8682   32.3235   50.2793 H   0  0  0  0  0  0  0  0  0  0  0  0
   66.5116   33.7806   52.2753 H   0  0  0  0  0  0  0  0  0  0  0  0
   64.3347   34.9633   52.5875 H   0  0  0  0  0  0  0  0  0  0  0  0
   62.5171   34.7037   50.8951 H   0  0  0  0  0  0  0  0  0  0  0  0
  1  2  1  0
  2  3  1  0
  3  4  1  0
  4  5  1  0
  5  6  1  0
  6  7  1  0
  7  8  1  0
  4  9  1  0
  9 10  2  0
 10 11  1  0
 11 12  2  0
 12 13  1  0
 13 14  2  0
 14 15  1  0
 15 16  2  0
 16 17  1  0
 17 18  1  0
 18 19  2  0
 19 20  1  0
 20 21  2  0
 21 22  1  0
 22 23  2  0
 14  9  1  0
 23 18  1  0
 17 13  1  0
  1 24  1  0
  1 25  1  0
  1 26  1  0
  2 27  1  0
  2 28  1  0
  3 29  1  0
  3 30  1  0
  5 31  1  0
  5 32  1  0
  6 33  1  0
  6 34  1  0
  8 35  1  0
  8 36  1  0
  8 37  1  0
 11 38  1  0
 12 39  1  0
 15 40  1  0
 19 41  1  0
 20 42  1  0
 21 43  1  0
 22 44  1  0
 23 45  1  0
M  CHG  1  12   1
M  END
>  <UniqueID>  (5) 
5

>  <SMILES>  (5) 
CCCN(CCOC)c1nc[nH+]c2c1cnn2-c1ccccc1

>  <Energy>  (5) 
89.40399497205932

>  <Genealogy>  (5) 
CCCN(CCOC)c1nc[nH+]c2c1cnn2-c1ccccc1 (protonated)
CCCN(CCOC)c1nc[nH+]c2c1cnn2-c1ccccc1 (3D coordinates assigned)
CCCN(CCOC)c1nc[nH+]c2c1cnn2-c1ccccc1 (optimized conformer: 89.40399497205932 kcal/mol)

>  <smiles>  (5) 
CCCN(CCOC)c1ncnc2c1cnn2-c1ccccc1

>  <score_type>  (5) 
oracle

>  <origin>  (5) 
adg

>  <m_score__min__energy>  (5) 
-5.5099999999999998

>  <m_primary>  (5) 
energy

$$$$
5:0
     RDKit          3D

 28 30  0  0  0  0  0  0  0  0999 V2000
   58.9370   32.1920   50.7210 C   0  0  0  0  0  0  0  0  0  0  0  0
   59.0240   32.8790   49.3900 C   0  0  0  0  0  0  0  0  0  0  0  0
   59.6560   34.1240   49.2820 C   0  0  0  0  0  0  0  0  0  0  0  0
   59.7720   34.7530   48.0400 C   0  0  0  0  0  0  0  0  0  0  0  0
   59.2690   34.1370   46.8860 C   0  0  0  0  0  0  0  0  0  0  0  0
   59.3880   34.7720   45.6400 C   0  0  0  0  0  0  0  0  0  0  0  0
   58.8940   34.1630   44.4860 C   0  0  0  0  0  0  0  0  0  0  0  0
   58.2740   32.9100   44.5600 C   0  0  0  0  0  0  0  0  0  0  0  0
   57.7740   32.2880   43.4090 C   0  0  0  0  0  0  0  0  0  0  0  0
   57.1600   31.0380   43.5020 C   0  0  0  0  0  0  0  0  0  0  0  0
   57.0470   30.4140   44.7520 C   0  0  0  0  0  0  0  0  0  0  0  0
   56.4040   29.0960   44.8870 C   0  0  0  0  0  0  0  0  0  0  0  0
   55.1480   29.0020   44.8780 O   0  0  0  0  0  0  0  0  0  0  0  0
   57.1700   27.9440   45.0250 O   0  0  0  0  0  0  0  0  0  0  0  0
   57.5390   31.0360   45.8600 N   0  0  0  0  0  0  0  0  0  0  0  0
   58.1450   32.2550   45.8060 C   0  0  0  0  0  0  0  0  0  0  0  0
   58.6420   32.8690   46.9770 C   0  0  0  0  0  0  0  0  0  0  0  0
   58.5330   32.2470   48.2380 C   0  0  0  0  0  0  0  0  0  0  0  0
   59.0313   32.9368   51.5249 H   0  0  0  0  0  0  0  0  0  0  0  0
   57.9669   31.6806   50.8069 H   0  0  0  0  0  0  0  0  0  0  0  0
   59.7490   31.4549   50.8069 H   0  0  0  0  0  0  0  0  0  0  0  0
   60.0637   34.6097   50.1808 H   0  0  0  0  0  0  0  0  0  0  0  0
   60.2603   35.7360   47.9675 H   0  0  0  0  0  0  0  0  0  0  0  0
   59.8740   35.7565   45.5728 H   0  0  0  0  0  0  0  0  0  0  0  0
   58.9921   34.6693   43.5144 H   0  0  0  0  0  0  0  0  0  0  0  0
   57.8652   32.7846   42.4317 H   0  0  0  0  0  0  0  0  0  0  0  0
   56.7673   30.5457   42.6001 H   0  0  0  0  0  0  0  0  0  0  0  0
   58.0589   31.2577   48.3189 H   0  0  0  0  0  0  0  0  0  0  0  0
  1  2  1  0
  2  3  2  0
  3  4  1  0
  4  5  2  0
  5  6  1  0
  6  7  2  0
  7  8  1  0
  8  9  2  0
  9 10  1  0
 10 11  2  0
 11 12  1  0
 12 13  2  0
 12 14  1  0
 11 15  1  0
 15 16  2  0
 16 17  1  0
 17 18  2  0
 18  2  1  0
 17  5  1  0
 16  8  1  0
  1 19  1  0
  1 20  1  0
  1 21  1  0
  3 22  1  0
  4 23  1  0
  6 24  1  0
  7 25  1  0
  9 26  1  0
 10 27  1  0
 18 28  1  0
M  CHG  1  14  -1
M  END
>  <UniqueID>  (6) 
6

>  <SMILES>  (6) 
Cc1ccc2ccc3ccc(C(=O)[O-])nc3c2c1

>  <Energy>  (6) 
36.992534974765604

>  <Genealogy>  (6) 
Cc1ccc2ccc3ccc(C(=O)[O-])nc3c2c1 (protonated)
Cc1ccc2ccc3ccc(C(=O)[O-])nc3c2c1 (3D coordinates assigned)
Cc1ccc2ccc3ccc(C(=O)[O-])nc3c2c1 (optimized conformer: 36.992534974765604 kcal/mol)

>  <smiles>  (6) 
Cc1ccc2ccc3ccc(C(=O)O)nc3c2c1

>  <score_type>  (6) 
oracle

>  <origin>  (6) 
adg

>  <m_score__min__energy>  (6) 
-10.210000000000001

>  <m_primary>  (6) 
energy

$$$$
6:0
     RDKit          3D

 66 69  0  0  0  0  0  0  0  0999 V2000
   59.3820   33.5290   49.6930 C   0  0  0  0  0  0  0  0  0  0  0  0
   60.0670   34.5920   48.8370 C   0  0  0  0  0  0  0  0  0  0  0  0
   60.2240   34.1370   47.4920 O   0  0  0  0  0  0  0  0  0  0  0  0
   59.2380   33.4920   46.7270 C   0  0  0  0  0  0  0  0  0  0  0  0
   59.1210   32.1010   46.8370 C   0  0  0  0  0  0  0  0  0  0  0  0
   58.1550   31.4100   46.1000 C   0  0  0  0  0  0  0  0  0  0  0  0
   57.2800   32.0990   45.2550 C   0  0  0  0  0  0  0  0  0  0  0  0
   56.3360   31.3490   44.4800 N   0  0  0  0  0  0  0  0  0  0  0  0
   56.2220   29.9230   44.4390 C   0  0  0  0  0  0  0  0  0  0  0  0
   55.1890   29.3500   44.8740 O   0  0  0  0  0  0  0  0  0  0  0  0
   57.3540   29.1010   43.8910 C   0  0  0  0  0  0  0  0  0  0  0  0
   58.1920   28.5360   44.9750 N   0  0  0  0  0  0  0  0  0  0  0  0
   59.6110   28.5500   44.5730 C   0  0  0  0  0  0  0  0  0  0  0  0
   60.5090   28.1060   45.7450 C   0  0  0  0  0  0  0  0  0  0  0  0
   59.9600   26.9580   46.5140 N   0  0  0  0  0  0  0  0  0  0  0  0
   59.5380   27.3150   47.8870 C   0  0  0  0  0  0  0  0  0  0  0  0
   60.7280   27.8550   48.7090 C   0  0  2  0  0  0  0  0  0  0  0  0
   60.9100   27.0930   49.8780 O   0  0  0  0  0  0  0  0  0  0  0  0
   60.5540   29.3390   49.0700 C   0  0  0  0  0  0  0  0  0  0  0  0
   61.4400   29.7250   50.1240 O   0  0  0  0  0  0  0  0  0  0  0  0
   61.8330   31.0510   50.3370 C   0  0  0  0  0  0  0  0  0  0  0  0
   61.6300   31.6230   51.5960 C   0  0  0  0  0  0  0  0  0  0  0  0
   62.0120   32.9490   51.8190 C   0  0  0  0  0  0  0  0  0  0  0  0
   61.8300   33.4750   52.9490 O   0  0  0  0  0  0  0  0  0  0  0  0
   62.5740   33.6600   50.8450 O   0  0  0  0  0  0  0  0  0  0  0  0
   62.8100   33.1550   49.6360 C   0  0  0  0  0  0  0  0  0  0  0  0
   63.4210   33.9550   48.6620 C   0  0  0  0  0  0  0  0  0  0  0  0
   63.7030   33.4280   47.3990 C   0  0  0  0  0  0  0  0  0  0  0  0
   63.3900   32.0990   47.1060 C   0  0  0  0  0  0  0  0  0  0  0  0
   62.7790   31.2900   48.0690 C   0  0  0  0  0  0  0  0  0  0  0  0
   62.4600   31.8150   49.3330 C   0  0  0  0  0  0  0  0  0  0  0  0
   58.9030   26.2350   45.7800 C   0  0  0  0  0  0  0  0  0  0  0  0
   57.7460   27.1640   45.3560 C   0  0  0  0  0  0  0  0  0  0  0  0
   57.4040   33.4930   45.1270 C   0  0  0  0  0  0  0  0  0  0  0  0
   58.3690   34.1860   45.8650 C   0  0  0  0  0  0  0  0  0  0  0  0
   59.5324   33.7624   50.7574 H   0  0  0  0  0  0  0  0  0  0  0  0
   58.3051   33.5159   49.4691 H   0  0  0  0  0  0  0  0  0  0  0  0
   59.8150   32.5429   49.4691 H   0  0  0  0  0  0  0  0  0  0  0  0
   59.4551   35.5061   48.8393 H   0  0  0  0  0  0  0  0  0  0  0  0
   61.0623   34.7962   49.2584 H   0  0  0  0  0  0  0  0  0  0  0  0
   59.7943   31.5479   47.5084 H   0  0  0  0  0  0  0  0  0  0  0  0
   58.0827   30.3157   46.1855 H   0  0  0  0  0  0  0  0  0  0  0  0
   56.9394   28.2759   43.2933 H   0  0  0  0  0  0  0  0  0  0  0  0
   57.9862   29.7549   43.2724 H   0  0  0  0  0  0  0  0  0  0  0  0
   58.0970   29.1650   45.8080 H   0  0  0  0  0  0  0  0  0  0  0  0
   59.7542   27.8622   43.7266 H   0  0  0  0  0  0  0  0  0  0  0  0
   59.8878   29.5738   44.2809 H   0  0  0  0  0  0  0  0  0  0  0  0
   61.4902   27.8164   45.3409 H   0  0  0  0  0  0  0  0  0  0  0  0
   60.5769   28.9564   46.4394 H   0  0  0  0  0  0  0  0  0  0  0  0
   58.7573   28.0881   47.8338 H   0  0  0  0  0  0  0  0  0  0  0  0
   59.1523   26.4111   48.3812 H   0  0  0  0  0  0  0  0  0  0  0  0
   61.6236   27.7670   48.0764 H   0  0  0  0  0  0  0  0  0  0  0  0
   61.2980   27.6930   50.5710 H   0  0  0  0  0  0  0  0  0  0  0  0
   60.7664   29.9512   48.1812 H   0  0  0  0  0  0  0  0  0  0  0  0
   59.5199   29.4942   49.4116 H   0  0  0  0  0  0  0  0  0  0  0  0
   61.1732   31.0343   52.4051 H   0  0  0  0  0  0  0  0  0  0  0  0
   63.6791   34.9993   48.8916 H   0  0  0  0  0  0  0  0  0  0  0  0
   64.1731   34.0621   46.6329 H   0  0  0  0  0  0  0  0  0  0  0  0
   63.6251   31.6869   46.1136 H   0  0  0  0  0  0  0  0  0  0  0  0
   62.5474   30.2400   47.8367 H   0  0  0  0  0  0  0  0  0  0  0  0
   59.3433   25.7839   44.8785 H   0  0  0  0  0  0  0  0  0  0  0  0
   58.4905   25.4679   46.4518 H   0  0  0  0  0  0  0  0  0  0  0  0
   57.2352   26.7120   44.4930 H   0  0  0  0  0  0  0  0  0  0  0  0
   57.0815   27.2703   46.2262 H   0  0  0  0  0  0  0  0  0  0  0  0
   56.7392   34.0414   44.4434 H   0  0  0  0  0  0  0  0  0  0  0  0
   58.4490   35.2791   45.7711 H   0  0  0  0  0  0  0  0  0  0  0  0
  1  2  1  0
  2  3  1  0
  3  4  1  0
  4  5  2  0
  5  6  1  0
  6  7  2  0
  7  8  1  0
  8  9  1  0
  9 10  2  0
  9 11  1  0
 11 12  1  0
 12 13  1  0
 13 14  1  0
 14 15  1  0
 15 16  1  0
 16 17  1  0
 17 18  1  0
 17 19  1  0
 19 20  1  0
 20 21  1  0
 21 22  2  0
 22 23  1  0
 23 24  2  0
 23 25  1  0
 25 26  1  0
 26 27  2  0
 27 28  1  0
 28 29  2  0
 29 30  1  0
 30 31  2  0
 15 32  1  0
 32 33  1  0
  7 34  1  0
 34 35  2  0
 35  4  1  0
 33 12  1  0
 31 21  1  0
 31 26  1  0
  1 36  1  0
  1 37  1  0
  1 38  1  0
  2 39  1  0
  2 40  1  0
  5 41  1  0
  6 42  1  0
 11 43  1  0
 11 44  1  0
 12 45  1  0
 13 46  1  0
 13 47  1  0
 14 48  1  0
 14 49  1  0
 16 50  1  0
 16 51  1  0
 17 52  1  6
 18 53  1  0
 19 54  1  0
 19 55  1  0
 22 56  1  0
 27 57  1  0
 28 58  1  0
 29 59  1  0
 30 60  1  0
 32 61  1  0
 32 62  1  0
 33 63  1  0
 33 64  1  0
 34 65  1  0
 35 66  1  0
M  CHG  2   8  -1  12   1
M  END
>  <UniqueID>  (7) 
7

>  <SMILES>  (7) 
CCOc1ccc([N-]C(=O)C[NH+]2CCN(C[C@H](O)COc3cc(=O)oc4ccccc34)CC2)cc1

>  <Energy>  (7) 
92.14815250551445

>  <Genealogy>  (7) 
CCOc1ccc([N-]C(=O)C[NH+]2CCN(CC(O)COc3cc(=O)oc4ccccc34)CC2)cc1 (protonated)
CCOc1ccc([N-]C(=O)C[NH+]2CCN(C[C@H](O)COc3cc(=O)oc4ccccc34)CC2)cc1 (chirality)
CCOc1ccc([N-]C(=O)C[NH+]2CCN(C[C@H](O)COc3cc(=O)oc4ccccc34)CC2)cc1 (3D coordinates assigned)
CCOc1ccc([N-]C(=O)C[NH+]2CCN(C[C@H](O)COc3cc(=O)oc4ccccc34)CC2)cc1 (nonaromatic ring conformer: 92.14815250551445 kcal/mol)

>  <smiles>  (7) 
CCOc1ccc(NC(=O)CN2CCN(CC(O)COc3cc(=O)oc4ccccc34)CC2)cc1

>  <score_type>  (7) 
oracle

>  <origin>  (7) 
adg

>  <m_score__min__energy>  (7) 
-7.75

>  <m_primary>  (7) 
energy

$$$$
7:0
     RDKit          3D

 38 39  0  0  0  0  0  0  0  0999 V2000
   59.0110   34.6070   44.8760 C   0  0  0  0  0  0  0  0  0  0  0  0
   57.7110   34.1230   45.5120 C   0  0  0  0  0  0  0  0  0  0  0  0
   57.9100   32.8290   46.1830 N   0  0  0  0  0  0  0  0  0  0  0  0
   58.1640   32.7890   47.6330 C   0  0  0  0  0  0  0  0  0  0  0  0
   59.3300   33.7110   48.0300 C   0  0  0  0  0  0  0  0  0  0  0  0
   60.5110   32.9630   48.6690 C   0  0  0  0  0  0  0  0  0  0  0  0
   61.7580   33.1750   47.9270 N   0  0  0  0  0  0  0  0  0  0  0  0
   61.8860   33.8620   46.7750 C   0  0  0  0  0  0  0  0  0  0  0  0
   63.2060   33.8200   46.3830 C   0  0  0  0  0  0  0  0  0  0  0  0
   63.8990   33.0990   47.2820 N   0  0  0  0  0  0  0  0  0  0  0  0
   62.9970   32.7020   48.2020 C   0  0  0  0  0  0  0  0  0  0  0  0
   63.3640   31.8770   49.3970 C   0  0  0  0  0  0  0  0  0  0  0  0
   57.7860   31.6020   45.4300 C   0  0  0  0  0  0  0  0  0  0  0  0
   56.6080   31.2830   44.8250 N   0  0  0  0  0  0  0  0  0  0  0  0
   56.4700   30.1330   44.1150 C   0  0  0  0  0  0  0  0  0  0  0  0
   57.5470   29.2560   43.9960 C   0  0  0  0  0  0  0  0  0  0  0  0
   58.7470   29.5930   44.6200 C   0  0  0  0  0  0  0  0  0  0  0  0
   58.8450   30.7520   45.3210 N   0  0  0  0  0  0  0  0  0  0  0  0
   59.7284   34.8741   45.6659 H   0  0  0  0  0  0  0  0  0  0  0  0
   59.4342   33.8062   44.2518 H   0  0  0  0  0  0  0  0  0  0  0  0
   58.8075   35.4896   44.2518 H   0  0  0  0  0  0  0  0  0  0  0  0
   57.3726   34.8644   46.2508 H   0  0  0  0  0  0  0  0  0  0  0  0
   56.9558   33.9990   44.7219 H   0  0  0  0  0  0  0  0  0  0  0  0
   57.2564   33.1129   48.1634 H   0  0  0  0  0  0  0  0  0  0  0  0
   58.4324   31.7580   47.9067 H   0  0  0  0  0  0  0  0  0  0  0  0
   59.6907   34.2251   47.1269 H   0  0  0  0  0  0  0  0  0  0  0  0
   58.9454   34.4138   48.7837 H   0  0  0  0  0  0  0  0  0  0  0  0
   60.6447   33.3235   49.6996 H   0  0  0  0  0  0  0  0  0  0  0  0
   60.2827   31.8871   48.6519 H   0  0  0  0  0  0  0  0  0  0  0  0
   61.0726   34.3712   46.2374 H   0  0  0  0  0  0  0  0  0  0  0  0
   63.6237   34.2969   45.4841 H   0  0  0  0  0  0  0  0  0  0  0  0
   64.9200   32.8850   47.2610 H   0  0  0  0  0  0  0  0  0  0  0  0
   63.1175   32.4311   50.3148 H   0  0  0  0  0  0  0  0  0  0  0  0
   62.8014   30.9320   49.3769 H   0  0  0  0  0  0  0  0  0  0  0  0
   64.4426   31.6621   49.3769 H   0  0  0  0  0  0  0  0  0  0  0  0
   55.5097   29.8942   43.6347 H   0  0  0  0  0  0  0  0  0  0  0  0
   57.4522   28.3213   43.4239 H   0  0  0  0  0  0  0  0  0  0  0  0
   59.6142   28.9205   44.5447 H   0  0  0  0  0  0  0  0  0  0  0  0
  1  2  1  0
  2  3  1  0
  3  4  1  0
  4  5  1  0
  5  6  1  0
  6  7  1  0
  7  8  1  0
  8  9  2  0
  9 10  1  0
 10 11  2  0
 11 12  1  0
  3 13  1  0
 13 14  2  0
 14 15  1  0
 15 16  2  0
 16 17  1  0
 17 18  2  0
 11  7  1  0
 18 13  1  0
  1 19  1  0
  1 20  1  0
  1 21  1  0
  2 22  1  0
  2 23  1  0
  4 24  1  0
  4 25  1  0
  5 26  1  0
  5 27  1  0
  6 28  1  0
  6 29  1  0
  8 30  1  0
  9 31  1  0
 10 32  1  0
 12 33  1  0
 12 34  1  0
 12 35  1  0
 15 36  1  0
 16 37  1  0
 17 38  1  0
M  CHG  1  10   1
M  END
>  <UniqueID>  (8) 
8

>  <SMILES>  (8) 
CCN(CCCn1cc[nH+]c1C)c1ncccn1

>  <Energy>  (8) 
59.609113463628134

>  <Genealogy>  (8) 
CCN(CCCn1cc[nH+]c1C)c1ncccn1 (protonated)
CCN(CCCn1cc[nH+]c1C)c1ncccn1 (3D coordinates assigned)
CCN(CCCn1cc[nH+]c1C)c1ncccn1 (optimized conformer: 59.609113463628134 kcal/mol)

>  <smiles>  (8) 
CCN(CCCn1ccnc1C)c1ncccn1

>  <score_type>  (8) 
oracle

>  <origin>  (8) 
adg

>  <m_score__min__energy>  (8) 
-5.0599999999999996

>  <m_primary>  (8) 
energy

$$$$
8:0
     RDKit          3D

 44 47  0  0  0  0  0  0  0  0999 V2000
   59.4825   35.9485   46.7503 H   0  0  0  0  0  0  0  0  0  0  0  0
   59.4430   34.8690   46.9580 C   0  0  0  0  0  0  0  0  0  0  0  0
   58.2860   34.2280   46.7460 C   0  0  0  0  0  0  0  0  0  0  0  0
   57.3942   34.5172   47.3213 H   0  0  0  0  0  0  0  0  0  0  0  0
   58.1880   33.1420   45.7550 C   0  0  0  0  0  0  0  0  0  0  0  0
   57.7700   33.4550   44.4460 C   0  0  0  0  0  0  0  0  0  0  0  0
   57.4444   34.4789   44.2100 H   0  0  0  0  0  0  0  0  0  0  0  0
   57.7640   32.4740   43.4370 C   0  0  0  0  0  0  0  0  0  0  0  0
   57.4349   32.7382   42.4212 H   0  0  0  0  0  0  0  0  0  0  0  0
   58.1740   31.1630   43.7160 C   0  0  0  0  0  0  0  0  0  0  0  0
   58.1912   30.3966   42.9272 H   0  0  0  0  0  0  0  0  0  0  0  0
   58.5590   30.8570   45.0190 C   0  0  0  0  0  0  0  0  0  0  0  0
   58.5420   31.8060   46.0330 C   0  0  0  0  0  0  0  0  0  0  0  0
   58.9210   31.1210   47.2880 C   0  0  0  0  0  0  0  0  0  0  0  0
   58.9160   31.5640   48.6130 C   0  0  0  0  0  0  0  0  0  0  0  0
   58.6215   32.5958   48.8550 H   0  0  0  0  0  0  0  0  0  0  0  0
   59.2950   30.6670   49.6390 C   0  0  0  0  0  0  0  0  0  0  0  0
   59.3480   31.0620   50.9850 O   0  0  0  0  0  0  0  0  0  0  0  0
   58.7970   32.2740   51.4910 C   0  0  0  0  0  0  0  0  0  0  0  0
   58.8076   32.2506   52.5907 H   0  0  0  0  0  0  0  0  0  0  0  0
   59.3965   33.1254   51.1365 H   0  0  0  0  0  0  0  0  0  0  0  0
   57.7613   32.3820   51.1365 H   0  0  0  0  0  0  0  0  0  0  0  0
   59.6280   29.3280   49.3210 C   0  0  0  0  0  0  0  0  0  0  0  0
   59.9990   28.4700   50.3680 O   0  0  0  0  0  0  0  0  0  0  0  0
   61.1960   28.5960   51.1280 C   0  0  0  0  0  0  0  0  0  0  0  0
   60.9537   28.5705   52.2007 H   0  0  0  0  0  0  0  0  0  0  0  0
   61.8737   27.7642   50.8853 H   0  0  0  0  0  0  0  0  0  0  0  0
   61.6856   29.5506   50.8853 H   0  0  0  0  0  0  0  0  0  0  0  0
   59.5700   28.8870   47.9800 C   0  0  0  0  0  0  0  0  0  0  0  0
   59.8030   27.8435   47.7216 H   0  0  0  0  0  0  0  0  0  0  0  0
   59.2120   29.8000   46.9930 C   0  0  0  0  0  0  0  0  0  0  0  0
   58.9960   29.5820   45.5710 C   0  0  0  0  0  0  0  0  0  0  0  0
   59.1380   28.4990   44.9440 O   0  0  0  0  0  0  0  0  0  0  0  0
   60.6730   34.2090   47.4560 C   0  0  0  0  0  0  0  0  0  0  0  0
   60.9010   34.1760   48.8430 C   0  0  0  0  0  0  0  0  0  0  0  0
   60.1693   34.6307   49.5270 H   0  0  0  0  0  0  0  0  0  0  0  0
   62.0500   33.5700   49.3600 C   0  0  0  0  0  0  0  0  0  0  0  0
   62.2228   33.5574   50.4463 H   0  0  0  0  0  0  0  0  0  0  0  0
   62.9780   32.9810   48.5000 C   0  0  0  0  0  0  0  0  0  0  0  0
   63.8839   32.5090   48.9081 H   0  0  0  0  0  0  0  0  0  0  0  0
   62.7560   32.9910   47.1200 C   0  0  0  0  0  0  0  0  0  0  0  0
   63.4841   32.5198   46.4434 H   0  0  0  0  0  0  0  0  0  0  0  0
   61.6100   33.5990   46.5980 C   0  0  0  0  0  0  0  0  0  0  0  0
   61.4389   33.6012   45.5114 H   0  0  0  0  0  0  0  0  0  0  0  0
  1  2  1  0
  2  3  2  0
  3  4  1  0
  3  5  1  0
  5  6  2  0
  6  7  1  0
  6  8  1  0
  8  9  1  0
  8 10  2  0
 10 11  1  0
 10 12  1  0
 12 13  2  0
 13 14  1  0
 14 15  2  0
 15 16  1  0
 15 17  1  0
 17 18  1  0
 18 19  1  0
 19 20  1  0
 19 21  1  0
 19 22  1  0
 17 23  2  0
 23 24  1  0
 24 25  1  0
 25 26  1  0
 25 27  1  0
 25 28  1  0
 23 29  1  0
 29 30  1  0
 29 31  2  0
 31 32  1  0
 32 33  2  0
  2 34  1  0
 34 35  2  0
 35 36  1  0
 35 37  1  0
 37 38  1  0
 37 39  2  0
 39 40  1  0
 39 41  1  0
 41 42  1  0
 41 43  2  0
 43 44  1  0
 13  5  1  0
 31 14  1  0
 43 34  1  0
 32 12  1  0
M  END
>  <UniqueID>  (9) 
9

>  <SMILES>  (9) 
COc1cc2c(cc1OC)-c1c(/C=C/c3ccccc3)cccc1C2=O

>  <Energy>  (9) 
89.39791000461278

>  <Genealogy>  (9) 
COc1cc2c(cc1OC)-c1c(/C=C/c3ccccc3)cccc1C2=O (cis-trans isomerization)
COc1cc2c(cc1OC)-c1c(/C=C/c3ccccc3)cccc1C2=O (3D coordinates assigned)
COc1cc2c(cc1OC)-c1c(/C=C/c3ccccc3)cccc1C2=O (nonaromatic ring conformer: 89.39791000461278 kcal/mol)

>  <smiles>  (9) 
COc1cc2c(cc1OC)-c1c(C=Cc3ccccc3)cccc1C2=O

>  <score_type>  (9) 
oracle

>  <origin>  (9) 
adg

>  <m_score__min__energy>  (9) 
-7.7699999999999996

>  <m_primary>  (9) 
energy

$$$$
9:0
     RDKit          3D

 37 39  0  0  0  0  0  0  0  0999 V2000
   57.4620   26.1750   45.8090 C   0  0  0  0  0  0  0  0  0  0  0  0
   56.2950   27.0980   45.7130 C   0  0  0  0  0  0  0  0  0  0  0  0
   55.1400   26.6810   45.9980 O   0  0  0  0  0  0  0  0  0  0  0  0
   56.4890   28.4350   45.2440 N   0  0  0  0  0  0  0  0  0  0  0  0
   57.2860   28.7780   44.0660 C   0  0  1  0  0  0  0  0  0  0  0  0
   57.0640   30.2420   43.6670 C   0  0  0  0  0  0  0  0  0  0  0  0
   57.5610   31.1700   44.7410 C   0  0  0  0  0  0  0  0  0  0  0  0
   56.9560   32.4260   44.9030 C   0  0  0  0  0  0  0  0  0  0  0  0
   57.4040   33.3000   45.8930 C   0  0  0  0  0  0  0  0  0  0  0  0
   58.4580   32.9280   46.7260 C   0  0  0  0  0  0  0  0  0  0  0  0
   59.0800   31.6890   46.5620 C   0  0  0  0  0  0  0  0  0  0  0  0
   58.6580   30.7970   45.5530 C   0  0  0  0  0  0  0  0  0  0  0  0
   59.3000   29.5060   45.3550 N   0  0  0  0  0  0  0  0  0  0  0  0
   60.6130   29.1980   45.9470 C   0  0  0  0  0  0  0  0  0  0  0  0
   60.4490   28.7800   47.4160 C   0  0  0  0  0  0  0  0  0  0  0  0
   59.0490   28.3830   47.8650 C   0  0  0  0  0  0  0  0  0  0  0  0
   60.0900   27.3120   47.6030 C   0  0  0  0  0  0  0  0  0  0  0  0
   58.7710   28.5480   44.3670 C   0  0  0  0  0  0  0  0  0  0  0  0
   57.6966   25.9894   46.8675 H   0  0  0  0  0  0  0  0  0  0  0  0
   57.2180   25.2229   45.3151 H   0  0  0  0  0  0  0  0  0  0  0  0
   58.3323   26.6317   45.3151 H   0  0  0  0  0  0  0  0  0  0  0  0
   56.9711   28.1355   43.2305 H   0  0  0  0  0  0  0  0  0  0  0  0
   57.6075   30.4475   42.7330 H   0  0  0  0  0  0  0  0  0  0  0  0
   55.9858   30.4096   43.5277 H   0  0  0  0  0  0  0  0  0  0  0  0
   56.1248   32.7223   44.2462 H   0  0  0  0  0  0  0  0  0  0  0  0
   56.9257   34.2828   46.0166 H   0  0  0  0  0  0  0  0  0  0  0  0
   58.8008   33.6131   47.5153 H   0  0  0  0  0  0  0  0  0  0  0  0
   59.9088   31.4046   47.2270 H   0  0  0  0  0  0  0  0  0  0  0  0
   61.0806   28.3758   45.3855 H   0  0  0  0  0  0  0  0  0  0  0  0
   61.2475   30.0953   45.8983 H   0  0  0  0  0  0  0  0  0  0  0  0
   61.2099   29.4715   47.8070 H   0  0  0  0  0  0  0  0  0  0  0  0
   58.7221   28.5916   48.8944 H   0  0  0  0  0  0  0  0  0  0  0  0
   58.0304   28.5822   47.5006 H   0  0  0  0  0  0  0  0  0  0  0  0
   60.5177   26.7442   48.4425 H   0  0  0  0  0  0  0  0  0  0  0  0
   60.1382   26.4136   46.9701 H   0  0  0  0  0  0  0  0  0  0  0  0
   59.3412   28.6537   43.4323 H   0  0  0  0  0  0  0  0  0  0  0  0
   58.8744   27.5382   44.7908 H   0  0  0  0  0  0  0  0  0  0  0  0
  1  2  1  0
  2  3  2  0
  2  4  1  0
  4  5  1  0
  5  6  1  0
  6  7  1  0
  7  8  2  0
  8  9  1  0
  9 10  2  0
 10 11  1  0
 11 12  2  0
 12 13  1  0
 13 14  1  0
 14 15  1  0
 15 16  1  0
 16 17  1  0
 13 18  1  0
 18  5  1  0
 12  7  1  0
 17 15  1  0
  1 19  1  0
  1 20  1  0
  1 21  1  0
  5 22  1  6
  6 23  1  0
  6 24  1  0
  8 25  1  0
  9 26  1  0
 10 27  1  0
 11 28  1  0
 14 29  1  0
 14 30  1  0
 15 31  1  0
 16 32  1  0
 16 33  1  0
 17 34  1  0
 17 35  1  0
 18 36  1  0
 18 37  1  0
M  CHG  1   4  -1
M  END
>  <UniqueID>  (10) 
10

>  <SMILES>  (10) 
CC(=O)[N-][C@H]1Cc2ccccc2N(CC2CC2)C1

>  <Energy>  (10) 
298.8992060882517

>  <Genealogy>  (10) 
CC(=O)[N-]C1Cc2ccccc2N(CC2CC2)C1 (protonated)
CC(=O)[N-][C@H]1Cc2ccccc2N(CC2CC2)C1 (chirality)
CC(=O)[N-][C@H]1Cc2ccccc2N(CC2CC2)C1 (3D coordinates assigned)
CC(=O)[N-][C@H]1Cc2ccccc2N(CC2CC2)C1 (nonaromatic ring conformer: 298.8992060882517 kcal/mol)

>  <smiles>  (10) 
CC(=O)NC1Cc2ccccc2N(CC2CC2)C1

>  <score_type>  (10) 
oracle

>  <origin>  (10) 
adg

>  <m_score__min__energy>  (10) 
-8.4700000000000006

>  <m_primary>  (10) 
energy

$$$$
10:0
     RDKit          3D

 34 36  0  0  0  0  0  0  0  0999 V2000
   59.9137   29.5565   50.9234 H   0  0  0  0  0  0  0  0  0  0  0  0
   59.7880   30.2610   50.0880 C   0  0  0  0  0  0  0  0  0  0  0  0
   60.7380   30.3070   49.0640 C   0  0  0  0  0  0  0  0  0  0  0  0
   61.6099   29.6370   49.0928 H   0  0  0  0  0  0  0  0  0  0  0  0
   60.5810   31.2040   48.0030 C   0  0  0  0  0  0  0  0  0  0  0  0
   61.3249   31.2300   47.1931 H   0  0  0  0  0  0  0  0  0  0  0  0
   59.4760   32.0730   47.9670 C   0  0  0  0  0  0  0  0  0  0  0  0
   59.3130   33.0310   46.8500 C   0  0  0  0  0  0  0  0  0  0  0  0
   59.9380   34.2860   46.9540 C   0  0  0  0  0  0  0  0  0  0  0  0
   60.5913   34.5001   47.8127 H   0  0  0  0  0  0  0  0  0  0  0  0
   59.7370   35.2620   45.9780 C   0  0  0  0  0  0  0  0  0  0  0  0
   60.2343   36.2390   46.0683 H   0  0  0  0  0  0  0  0  0  0  0  0
   58.9070   35.0020   44.8880 C   0  0  0  0  0  0  0  0  0  0  0  0
   58.7392   35.7789   44.1275 H   0  0  0  0  0  0  0  0  0  0  0  0
   58.2890   33.7570   44.7610 C   0  0  0  0  0  0  0  0  0  0  0  0
   57.6325   33.5611   43.9004 H   0  0  0  0  0  0  0  0  0  0  0  0
   58.4960   32.7510   45.7200 C   0  0  0  0  0  0  0  0  0  0  0  0
   57.8820   31.4240   45.4870 C   0  0  0  0  0  0  0  0  0  0  0  0
   56.6430   31.2600   44.9670 N   0  0  0  0  0  0  0  0  0  0  0  0
   56.3190   30.0020   44.8040 O   0  0  0  0  0  0  0  0  0  0  0  0
   57.2480   29.1390   45.1600 C   0  0  0  0  0  0  0  0  0  0  0  0
   57.0830   27.8530   45.0690 N   0  0  0  0  0  0  0  0  0  0  0  0
   58.0550   26.9200   44.5000 C   0  0  0  0  0  0  0  0  0  0  0  0
   57.7448   25.8903   44.7312 H   0  0  0  0  0  0  0  0  0  0  0  0
   59.0426   27.1292   44.9369 H   0  0  0  0  0  0  0  0  0  0  0  0
   58.1440   27.0880   42.9850 C   0  0  0  0  0  0  0  0  0  0  0  0
   58.6471   28.0376   42.7503 H   0  0  0  0  0  0  0  0  0  0  0  0
   58.7182   26.2532   42.5566 H   0  0  0  0  0  0  0  0  0  0  0  0
   57.1309   27.0941   42.5566 H   0  0  0  0  0  0  0  0  0  0  0  0
   58.6310   29.9280   45.7220 S   0  0  0  0  0  0  0  0  0  0  0  0
   58.5180   32.0100   48.9940 C   0  0  0  0  0  0  0  0  0  0  0  0
   57.6395   32.6714   48.9654 H   0  0  0  0  0  0  0  0  0  0  0  0
   58.6780   31.1100   50.0510 C   0  0  0  0  0  0  0  0  0  0  0  0
   57.9290   31.0695   50.8556 H   0  0  0  0  0  0  0  0  0  0  0  0
  1  2  1  0
  2  3  2  0
  3  4  1  0
  3  5  1  0
  5  6  1  0
  5  7  2  0
  7  8  1  0
  8  9  2  0
  9 10  1  0
  9 11  1  0
 11 12  1  0
 11 13  2  0
 13 14  1  0
 13 15  1  0
 15 16  1  0
 15 17  2  0
 17 18  1  0
 18 19  2  0
 19 20  1  0
 20 21  1  0
 21 22  2  0
 22 23  1  0
 23 24  1  0
 23 25  1  0
 23 26  1  0
 26 27  1  0
 26 28  1  0
 26 29  1  0
 21 30  1  0
  7 31  1  0
 31 32  1  0
 31 33  2  0
 33 34  1  0
 33  2  1  0
 17  8  1  0
 30 18  1  0
M  END
>  <UniqueID>  (11) 
11

>  <SMILES>  (11) 
CC/N=c1/onc(-c2ccccc2-c2ccccc2)s1

>  <Energy>  (11) 
80.0680768113191

>  <Genealogy>  (11) 
CC/N=c1/onc(-c2ccccc2-c2ccccc2)s1 (cis-trans isomerization)
CC/N=c1/onc(-c2ccccc2-c2ccccc2)s1 (3D coordinates assigned)
CC/N=c1/onc(-c2ccccc2-c2ccccc2)s1 (optimized conformer: 80.0680768113191 kcal/mol)

>  <smiles>  (11) 
CCN=c1onc(-c2ccccc2-c2ccccc2)s1

>  <score_type>  (11) 
oracle

>  <origin>  (11) 
adg

>  <m_score__min__energy>  (11) 
-7.5599999999999996

>  <m_primary>  (11) 
energy

$$$$
11:0
     RDKit          3D

 46 49  0  0  0  0  0  0  0  0999 V2000
   65.7400   36.2340   53.2310 C   0  0  0  0  0  0  0  0  0  0  0  0
   65.4670   34.8400   53.1330 O   0  0  0  0  0  0  0  0  0  0  0  0
   65.1250   34.2210   51.9280 C   0  0  0  0  0  0  0  0  0  0  0  0
   63.9000   34.5250   51.3230 C   0  0  0  0  0  0  0  0  0  0  0  0
   63.5600   33.9080   50.1160 C   0  0  0  0  0  0  0  0  0  0  0  0
   62.3770   34.1860   49.5090 N   0  0  0  0  0  0  0  0  0  0  0  0
   62.0290   33.5910   48.3330 C   0  0  0  0  0  0  0  0  0  0  0  0
   60.7680   33.8970   47.7020 N   0  0  0  0  0  0  0  0  0  0  0  0
   59.5000   33.7630   48.4370 C   0  0  0  0  0  0  0  0  0  0  0  0
   58.4260   33.1530   47.5300 C   0  0  0  0  0  0  0  0  0  0  0  0
   58.3860   33.8100   46.2140 N   0  0  0  0  0  0  0  0  0  0  0  0
   57.2470   33.6080   45.3570 C   0  0  0  0  0  0  0  0  0  0  0  0
   56.7570   34.5830   44.7250 O   0  0  0  0  0  0  0  0  0  0  0  0
   56.6230   32.3250   45.2390 N   0  0  0  0  0  0  0  0  0  0  0  0
   57.2850   31.1100   44.8610 C   0  0  0  0  0  0  0  0  0  0  0  0
   56.6430   30.1320   44.0790 C   0  0  0  0  0  0  0  0  0  0  0  0
   57.3130   28.9520   43.7390 C   0  0  0  0  0  0  0  0  0  0  0  0
   58.6170   28.7320   44.1900 C   0  0  0  0  0  0  0  0  0  0  0  0
   59.2650   27.5880   43.8600 F   0  0  0  0  0  0  0  0  0  0  0  0
   59.2510   29.6890   44.9880 C   0  0  0  0  0  0  0  0  0  0  0  0
   58.5840   30.8700   45.3280 C   0  0  0  0  0  0  0  0  0  0  0  0
   59.3620   34.8560   45.8830 C   0  0  0  0  0  0  0  0  0  0  0  0
   60.7650   34.4340   46.3310 C   0  0  0  0  0  0  0  0  0  0  0  0
   62.8850   32.7010   47.7540 N   0  0  0  0  0  0  0  0  0  0  0  0
   64.0800   32.3920   48.3220 C   0  0  0  0  0  0  0  0  0  0  0  0
   64.4490   32.9930   49.5280 C   0  0  0  0  0  0  0  0  0  0  0  0
   65.6650   32.7130   50.1610 C   0  0  0  0  0  0  0  0  0  0  0  0
   65.9710   33.3270   51.3370 N   0  0  0  0  0  0  0  0  0  0  0  0
   65.7966   36.5229   54.2909 H   0  0  0  0  0  0  0  0  0  0  0  0
   66.6986   36.4554   52.7389 H   0  0  0  0  0  0  0  0  0  0  0  0
   64.9358   36.8006   52.7389 H   0  0  0  0  0  0  0  0  0  0  0  0
   63.2115   35.2427   51.7930 H   0  0  0  0  0  0  0  0  0  0  0  0
   59.6526   33.1106   49.3094 H   0  0  0  0  0  0  0  0  0  0  0  0
   59.1688   34.7587   48.7669 H   0  0  0  0  0  0  0  0  0  0  0  0
   58.6445   32.0843   47.3881 H   0  0  0  0  0  0  0  0  0  0  0  0
   57.4483   33.2953   48.0136 H   0  0  0  0  0  0  0  0  0  0  0  0
   55.6114   30.2958   43.7341 H   0  0  0  0  0  0  0  0  0  0  0  0
   56.8126   28.1963   43.1157 H   0  0  0  0  0  0  0  0  0  0  0  0
   60.2752   29.5128   45.3486 H   0  0  0  0  0  0  0  0  0  0  0  0
   59.0821   31.6150   45.9659 H   0  0  0  0  0  0  0  0  0  0  0  0
   59.3625   35.0210   44.7954 H   0  0  0  0  0  0  0  0  0  0  0  0
   59.0835   35.7837   46.4044 H   0  0  0  0  0  0  0  0  0  0  0  0
   61.1387   33.6593   45.6453 H   0  0  0  0  0  0  0  0  0  0  0  0
   61.4096   35.3252   46.3137 H   0  0  0  0  0  0  0  0  0  0  0  0
   64.7538   31.6720   47.8346 H   0  0  0  0  0  0  0  0  0  0  0  0
   66.3708   31.9997   49.7104 H   0  0  0  0  0  0  0  0  0  0  0  0
  1  2  1  0
  2  3  1  0
  3  4  2  0
  4  5  1  0
  5  6  2  0
  6  7  1  0
  7  8  1  0
  8  9  1  0
  9 10  1  0
 10 11  1  0
 11 12  1  0
 12 13  2  0
 12 14  1  0
 14 15  1  0
 15 16  2  0
 16 17  1  0
 17 18  2  0
 18 19  1  0
 18 20  1  0
 20 21  2  0
 11 22  1  0
 22 23  1  0
  7 24  2  0
 24 25  1  0
 25 26  2  0
 26 27  1  0
 27 28  2  0
 28  3  1  0
 26  5  1  0
 23  8  1  0
 21 15  1  0
  1 29  1  0
  1 30  1  0
  1 31  1  0
  4 32  1  0
  9 33  1  0
  9 34  1  0
 10 35  1  0
 10 36  1  0
 16 37  1  0
 17 38  1  0
 20 39  1  0
 21 40  1  0
 22 41  1  0
 22 42  1  0
 23 43  1  0
 23 44  1  0
 25 45  1  0
 27 46  1  0
M  CHG  1  14  -1
M  END
>  <UniqueID>  (12) 
12

>  <SMILES>  (12) 
COc1cc2nc(N3CCN(C(=O)[N-]c4ccc(F)cc4)CC3)ncc2cn1

>  <Energy>  (12) 
57.259171449431506

>  <Genealogy>  (12) 
COc1cc2nc(N3CCN(C(=O)[N-]c4ccc(F)cc4)CC3)ncc2cn1 (protonated)
COc1cc2nc(N3CCN(C(=O)[N-]c4ccc(F)cc4)CC3)ncc2cn1 (3D coordinates assigned)
COc1cc2nc(N3CCN(C(=O)[N-]c4ccc(F)cc4)CC3)ncc2cn1 (nonaromatic ring conformer: 57.259171449431506 kcal/mol)

>  <smiles>  (12) 
COc1cc2nc(N3CCN(C(=O)Nc4ccc(F)cc4)CC3)ncc2cn1

>  <score_type>  (12) 
oracle

>  <origin>  (12) 
adg

>  <m_score__min__energy>  (12) 
-8.5299999999999994

>  <m_primary>  (12) 
energy

$$$$
12:0
     RDKit          3D

 60 63  0  0  0  0  0  0  0  0999 V2000
   61.0610   27.1900   50.6800 C   0  0  0  0  0  0  0  0  0  0  0  0
   60.9500   28.1840   51.8380 C   0  0  0  0  0  0  0  0  0  0  0  0
   60.3140   29.4400   51.4060 N   0  0  0  0  0  0  0  0  0  0  0  0
   59.3790   30.1480   52.2990 C   0  0  0  0  0  0  0  0  0  0  0  0
   58.2340   30.8260   51.5360 C   0  0  0  0  0  0  0  0  0  0  0  0
   56.9710   30.0780   51.7180 N   0  0  0  0  0  0  0  0  0  0  0  0
   55.8480   30.9880   51.9940 C   0  0  0  0  0  0  0  0  0  0  0  0
   57.1010   29.0900   52.8010 C   0  0  0  0  0  0  0  0  0  0  0  0
   60.9710   30.1920   50.3650 C   0  0  0  0  0  0  0  0  0  0  0  0
   62.0400   31.0170   50.7430 C   0  0  0  0  0  0  0  0  0  0  0  0
   62.8130   31.6770   49.7970 C   0  0  0  0  0  0  0  0  0  0  0  0
   62.5430   31.5280   48.4390 C   0  0  0  0  0  0  0  0  0  0  0  0
   63.3820   32.1770   47.4670 N   0  0  0  0  0  0  0  0  0  0  0  0
   63.1090   33.5280   46.9820 C   0  0  0  0  0  0  0  0  0  0  0  0
   61.6420   33.8380   47.1100 C   0  0  0  0  0  0  0  0  0  0  0  0
   60.7840   33.7000   46.0060 C   0  0  0  0  0  0  0  0  0  0  0  0
   59.4130   33.9270   46.1490 C   0  0  0  0  0  0  0  0  0  0  0  0
   58.8860   34.2820   47.3950 C   0  0  0  0  0  0  0  0  0  0  0  0
   59.7320   34.4100   48.5000 C   0  0  0  0  0  0  0  0  0  0  0  0
   61.1040   34.1850   48.3610 C   0  0  0  0  0  0  0  0  0  0  0  0
   61.4650   30.7140   48.0360 C   0  0  0  0  0  0  0  0  0  0  0  0
   61.1690   30.4760   46.3930 S   0  0  0  0  0  0  0  0  0  0  0  0
   59.8690   29.4610   46.1040 C   0  0  0  0  0  0  0  0  0  0  0  0
   59.5130   29.1350   44.7920 C   0  0  0  0  0  0  0  0  0  0  0  0
   58.4350   28.2870   44.5560 C   0  0  0  0  0  0  0  0  0  0  0  0
   57.7040   27.7740   45.6250 C   0  0  0  0  0  0  0  0  0  0  0  0
   58.0500   28.1060   46.9350 C   0  0  0  0  0  0  0  0  0  0  0  0
   59.1530   28.9530   47.2080 C   0  0  0  0  0  0  0  0  0  0  0  0
   59.4990   29.2560   48.5640 C   0  0  0  0  0  0  0  0  0  0  0  0
   58.7320   28.8040   49.4570 O   0  0  0  0  0  0  0  0  0  0  0  0
   60.6360   30.0430   48.9790 C   0  0  0  0  0  0  0  0  0  0  0  0
   61.1747   26.1718   51.0804 H   0  0  0  0  0  0  0  0  0  0  0  0
   60.1515   27.2421   50.0636 H   0  0  0  0  0  0  0  0  0  0  0  0
   61.9366   27.4415   50.0636 H   0  0  0  0  0  0  0  0  0  0  0  0
   60.3463   27.7340   52.6399 H   0  0  0  0  0  0  0  0  0  0  0  0
   61.9642   28.4139   52.1967 H   0  0  0  0  0  0  0  0  0  0  0  0
   58.9503   29.4230   53.0065 H   0  0  0  0  0  0  0  0  0  0  0  0
   59.9455   30.9351   52.8182 H   0  0  0  0  0  0  0  0  0  0  0  0
   58.1047   31.8508   51.9143 H   0  0  0  0  0  0  0  0  0  0  0  0
   58.4839   30.8439   50.4649 H   0  0  0  0  0  0  0  0  0  0  0  0
   55.7193   31.0923   53.0815 H   0  0  0  0  0  0  0  0  0  0  0  0
   56.0581   31.9738   51.5534 H   0  0  0  0  0  0  0  0  0  0  0  0
   54.9272   30.5782   51.5534 H   0  0  0  0  0  0  0  0  0  0  0  0
   57.0338   29.6005   53.7730 H   0  0  0  0  0  0  0  0  0  0  0  0
   56.2927   28.3484   52.7197 H   0  0  0  0  0  0  0  0  0  0  0  0
   58.0736   28.5827   52.7197 H   0  0  0  0  0  0  0  0  0  0  0  0
   62.2710   31.1439   51.8110 H   0  0  0  0  0  0  0  0  0  0  0  0
   63.6433   32.3212   50.1221 H   0  0  0  0  0  0  0  0  0  0  0  0
   64.2820   31.7290   47.1950 H   0  0  0  0  0  0  0  0  0  0  0  0
   63.6867   34.2513   47.5762 H   0  0  0  0  0  0  0  0  0  0  0  0
   63.3997   33.5955   45.9233 H   0  0  0  0  0  0  0  0  0  0  0  0
   61.1930   33.4124   45.0262 H   0  0  0  0  0  0  0  0  0  0  0  0
   58.7465   33.8263   45.2797 H   0  0  0  0  0  0  0  0  0  0  0  0
   57.8062   34.4604   47.5051 H   0  0  0  0  0  0  0  0  0  0  0  0
   59.3173   34.6882   49.4802 H   0  0  0  0  0  0  0  0  0  0  0  0
   61.7658   34.2799   49.2345 H   0  0  0  0  0  0  0  0  0  0  0  0
   60.0841   29.5481   43.9475 H   0  0  0  0  0  0  0  0  0  0  0  0
   58.1600   28.0217   43.5245 H   0  0  0  0  0  0  0  0  0  0  0  0
   56.8515   27.1052   45.4357 H   0  0  0  0  0  0  0  0  0  0  0  0
   57.4571   27.7038   47.7697 H   0  0  0  0  0  0  0  0  0  0  0  0
  1  2  1  0
  2  3  1  0
  3  4  1  0
  4  5  1  0
  5  6  1  0
  6  7  1  0
  6  8  1  0
  3  9  1  0
  9 10  2  0
 10 11  1  0
 11 12  2  0
 12 13  1  0
 13 14  1  0
 14 15  1  0
 15 16  2  0
 16 17  1  0
 17 18  2  0
 18 19  1  0
 19 20  2  0
 12 21  1  0
 21 22  1  0
 22 23  1  0
 23 24  2  0
 24 25  1  0
 25 26  2  0
 26 27  1  0
 27 28  2  0
 28 29  1  0
 29 30  2  0
 29 31  1  0
 31  9  1  0
 20 15  1  0
 31 21  2  0
 28 23  1  0
  1 32  1  0
  1 33  1  0
  1 34  1  0
  2 35  1  0
  2 36  1  0
  4 37  1  0
  4 38  1  0
  5 39  1  0
  5 40  1  0
  7 41  1  0
  7 42  1  0
  7 43  1  0
  8 44  1  0
  8 45  1  0
  8 46  1  0
 10 47  1  0
 11 48  1  0
 13 49  1  0
 14 50  1  0
 14 51  1  0
 16 52  1  0
 17 53  1  0
 18 54  1  0
 19 55  1  0
 20 56  1  0
 24 57  1  0
 25 58  1  0
 26 59  1  0
 27 60  1  0
M  END
>  <UniqueID>  (13) 
13

>  <SMILES>  (13) 
CCN(CCN(C)C)c1ccc(NCc2ccccc2)c2sc3ccccc3c(=O)c12

>  <Energy>  (13) 
83.17339687754215

>  <Genealogy>  (13) 
CCN(CCN(C)C)c1ccc(NCc2ccccc2)c2sc3ccccc3c(=O)c12 (3D coordinates assigned)
CCN(CCN(C)C)c1ccc(NCc2ccccc2)c2sc3ccccc3c(=O)c12 (optimized conformer: 83.17339687754215 kcal/mol)

>  <smiles>  (13) 
CCN(CCN(C)C)c1ccc(NCc2ccccc2)c2sc3ccccc3c(=O)c12

>  <score_type>  (13) 
oracle

>  <origin>  (13) 
adg

>  <m_score__min__energy>  (13) 
-8.5999999999999996

>  <m_primary>  (13) 
energy

$$$$
13:0
     RDKit          3D

 47 50  0  0  0  0  0  0  0  0999 V2000
   59.7450   28.2720   47.6810 C   0  0  0  0  0  0  0  0  0  0  0  0
   60.4410   27.4500   46.6020 C   0  0  0  0  0  0  0  0  0  0  0  0
   59.5070   27.0270   45.6090 O   0  0  0  0  0  0  0  0  0  0  0  0
   58.3060   26.3310   45.8450 C   0  0  0  0  0  0  0  0  0  0  0  0
   58.2970   24.9750   46.2320 C   0  0  0  0  0  0  0  0  0  0  0  0
   57.0930   24.3210   46.5010 C   0  0  0  0  0  0  0  0  0  0  0  0
   55.8850   25.0070   46.3890 C   0  0  0  0  0  0  0  0  0  0  0  0
   55.8740   26.3450   45.9960 C   0  0  0  0  0  0  0  0  0  0  0  0
   57.0760   27.0160   45.7040 C   0  0  0  0  0  0  0  0  0  0  0  0
   57.0250   28.4350   45.2800 C   0  0  0  0  0  0  0  0  0  0  0  0
   55.9160   29.0350   45.2530 O   0  0  0  0  0  0  0  0  0  0  0  0
   58.2130   29.1100   44.8330 N   0  0  0  0  0  0  0  0  0  0  0  0
   58.3730   30.5390   44.8290 C   0  0  0  0  0  0  0  0  0  0  0  0
   57.9270   31.3230   43.7500 C   0  0  0  0  0  0  0  0  0  0  0  0
   58.0660   32.7120   43.7780 C   0  0  0  0  0  0  0  0  0  0  0  0
   58.6340   33.3390   44.8900 C   0  0  0  0  0  0  0  0  0  0  0  0
   58.7620   34.6910   44.9120 N   0  0  0  0  0  0  0  0  0  0  0  0
   59.3040   35.3240   45.9830 C   0  0  0  0  0  0  0  0  0  0  0  0
   59.7240   34.6100   47.0580 N   0  0  0  0  0  0  0  0  0  0  0  0
   59.6190   33.2560   47.0950 C   0  0  0  0  0  0  0  0  0  0  0  0
   60.1940   32.4030   48.5690 S   0  0  0  0  0  0  0  0  0  0  0  0
   61.9090   32.4930   48.0560 C   0  0  0  0  0  0  0  0  0  0  0  0
   62.4670   31.6470   47.1700 N   0  0  0  0  0  0  0  0  0  0  0  0
   63.7430   31.9900   47.0630 N   0  0  0  0  0  0  0  0  0  0  0  0
   63.9430   33.0400   47.8850 C   0  0  0  0  0  0  0  0  0  0  0  0
   62.8050   33.3880   48.5090 N   0  0  0  0  0  0  0  0  0  0  0  0
   62.6350   34.4030   49.5420 C   0  0  0  0  0  0  0  0  0  0  0  0
   59.0680   32.5700   45.9920 C   0  0  0  0  0  0  0  0  0  0  0  0
   58.9280   31.1700   45.9530 C   0  0  0  0  0  0  0  0  0  0  0  0
   60.0519   27.9095   48.6732 H   0  0  0  0  0  0  0  0  0  0  0  0
   60.0259   29.3301   47.5742 H   0  0  0  0  0  0  0  0  0  0  0  0
   58.6550   28.1694   47.5742 H   0  0  0  0  0  0  0  0  0  0  0  0
   61.2202   28.0640   46.1266 H   0  0  0  0  0  0  0  0  0  0  0  0
   60.8883   26.5600   47.0688 H   0  0  0  0  0  0  0  0  0  0  0  0
   59.2468   24.4277   46.3228 H   0  0  0  0  0  0  0  0  0  0  0  0
   57.0979   23.2629   46.8017 H   0  0  0  0  0  0  0  0  0  0  0  0
   54.9386   24.4922   46.6110 H   0  0  0  0  0  0  0  0  0  0  0  0
   54.9169   26.8808   45.9135 H   0  0  0  0  0  0  0  0  0  0  0  0
   58.9710   28.5280   44.4080 H   0  0  0  0  0  0  0  0  0  0  0  0
   57.4651   30.8382   42.8773 H   0  0  0  0  0  0  0  0  0  0  0  0
   57.7274   33.3144   42.9222 H   0  0  0  0  0  0  0  0  0  0  0  0
   59.4033   36.4195   45.9798 H   0  0  0  0  0  0  0  0  0  0  0  0
   64.9100   33.5450   48.0261 H   0  0  0  0  0  0  0  0  0  0  0  0
   62.7136   33.9336   50.5337 H   0  0  0  0  0  0  0  0  0  0  0  0
   63.4174   35.1689   49.4358 H   0  0  0  0  0  0  0  0  0  0  0  0
   61.6458   34.8722   49.4358 H   0  0  0  0  0  0  0  0  0  0  0  0
   59.2565   30.5651   46.8111 H   0  0  0  0  0  0  0  0  0  0  0  0
  1  2  1  0
  2  3  1  0
  3  4  1  0
  4  5  2  0
  5  6  1  0
  6  7  2  0
  7  8  1  0
  8  9  2  0
  9 10  1  0
 10 11  2  0
 10 12  1  0
 12 13  1  0
 13 14  2  0
 14 15  1  0
 15 16  2  0
 16 17  1  0
 17 18  2  0
 18 19  1  0
 19 20  2  0
 20 21  1  0
 21 22  1  0
 22 23  2  0
 23 24  1  0
 24 25  2  0
 25 26  1  0
 26 27  1  0
 20 28  1  0
 28 29  2  0
  9  4  1  0
 29 13  1  0
 28 16  1  0
 26 22  1  0
  1 30  1  0
  1 31  1  0
  1 32  1  0
  2 33  1  0
  2 34  1  0
  5 35  1  0
  6 36  1  0
  7 37  1  0
  8 38  1  0
 12 39  1  0
 14 40  1  0
 15 41  1  0
 18 42  1  0
 25 43  1  0
 27 44  1  0
 27 45  1  0
 27 46  1  0
 29 47  1  0
M  END
>  <UniqueID>  (14) 
14

>  <SMILES>  (14) 
CCOc1ccccc1C(=O)Nc1ccc2ncnc(Sc3nncn3C)c2c1

>  <Energy>  (14) 
91.11078301398406

>  <Genealogy>  (14) 
CCOc1ccccc1C(=O)Nc1ccc2ncnc(Sc3nncn3C)c2c1 (3D coordinates assigned)
CCOc1ccccc1C(=O)Nc1ccc2ncnc(Sc3nncn3C)c2c1 (optimized conformer: 91.11078301398406 kcal/mol)

>  <smiles>  (14) 
CCOc1ccccc1C(=O)Nc1ccc2ncnc(Sc3nncn3C)c2c1

>  <score_type>  (14) 
oracle

>  <origin>  (14) 
adg

>  <m_score__min__energy>  (14) 
-8.1699999999999999

>  <m_primary>  (14) 
energy

$$$$
14:0
     RDKit          3D

 32 34  0  0  0  0  0  0  0  0999 V2000
   65.8170   32.3070   50.3220 C   0  0  0  0  0  0  0  0  0  0  0  0
   65.3230   33.0720   49.2270 O   0  0  0  0  0  0  0  0  0  0  0  0
   64.0610   32.8930   48.6420 C   0  0  0  0  0  0  0  0  0  0  0  0
   63.7530   33.6200   47.4880 C   0  0  0  0  0  0  0  0  0  0  0  0
   62.5100   33.4770   46.8660 C   0  0  0  0  0  0  0  0  0  0  0  0
   61.5470   32.5990   47.3930 C   0  0  0  0  0  0  0  0  0  0  0  0
   60.2230   32.4440   46.7410 C   0  0  0  0  0  0  0  0  0  0  0  0
   59.2590   33.4870   46.8020 C   0  0  0  0  0  0  0  0  0  0  0  0
   58.0090   33.3350   46.1800 C   0  0  0  0  0  0  0  0  0  0  0  0
   57.7770   32.1410   45.5150 C   0  0  0  0  0  0  0  0  0  0  0  0
   56.6560   31.7650   44.8610 N   0  0  0  0  0  0  0  0  0  0  0  0
   56.9160   30.5430   44.3990 N   0  0  0  0  0  0  0  0  0  0  0  0
   55.9580   29.7150   43.6770 C   0  0  0  0  0  0  0  0  0  0  0  0
   58.1610   30.1940   44.7880 C   0  0  0  0  0  0  0  0  0  0  0  0
   58.7150   29.0890   44.5420 O   0  0  0  0  0  0  0  0  0  0  0  0
   58.7180   31.1910   45.4840 N   0  0  0  0  0  0  0  0  0  0  0  0
   59.9120   31.2930   46.0640 N   0  0  0  0  0  0  0  0  0  0  0  0
   61.8550   31.8700   48.5540 C   0  0  0  0  0  0  0  0  0  0  0  0
   63.1000   32.0130   49.1740 C   0  0  0  0  0  0  0  0  0  0  0  0
   65.5116   32.7799   51.2670 H   0  0  0  0  0  0  0  0  0  0  0  0
   65.4060   31.2879   50.2724 H   0  0  0  0  0  0  0  0  0  0  0  0
   66.9150   32.2623   50.2724 H   0  0  0  0  0  0  0  0  0  0  0  0
   64.4968   34.3115   47.0655 H   0  0  0  0  0  0  0  0  0  0  0  0
   62.2836   34.0552   45.9581 H   0  0  0  0  0  0  0  0  0  0  0  0
   59.4933   34.4179   47.3391 H   0  0  0  0  0  0  0  0  0  0  0  0
   57.2479   34.1282   46.2188 H   0  0  0  0  0  0  0  0  0  0  0  0
   55.3284   29.1708   44.3963 H   0  0  0  0  0  0  0  0  0  0  0  0
   55.3240   30.3542   43.0449 H   0  0  0  0  0  0  0  0  0  0  0  0
   56.4986   28.9952   43.0449 H   0  0  0  0  0  0  0  0  0  0  0  0
   60.5850   30.4950   46.0160 H   0  0  0  0  0  0  0  0  0  0  0  0
   61.1102   31.1809   48.9788 H   0  0  0  0  0  0  0  0  0  0  0  0
   63.3294   31.4352   50.0815 H   0  0  0  0  0  0  0  0  0  0  0  0
  1  2  1  0
  2  3  1  0
  3  4  2  0
  4  5  1  0
  5  6  2  0
  6  7  1  0
  7  8  1  0
  8  9  2  0
  9 10  1  0
 10 11  2  0
 11 12  1  0
 12 13  1  0
 12 14  1  0
 14 15  2  0
 14 16  1  0
 16 17  1  0
  6 18  1  0
 18 19  2  0
 19  3  1  0
 17  7  2  0
 16 10  1  0
  1 20  1  0
  1 21  1  0
  1 22  1  0
  4 23  1  0
  5 24  1  0
  8 25  1  0
  9 26  1  0
 13 27  1  0
 13 28  1  0
 13 29  1  0
 17 30  1  0
 18 31  1  0
 19 32  1  0
M  CHG  1  17   1
M  END
>  <UniqueID>  (15) 
15

>  <SMILES>  (15) 
COc1ccc(-c2ccc3nn(C)c(=O)n3[nH+]2)cc1

>  <Energy>  (15) 
83.42816296940512

>  <Genealogy>  (15) 
COc1ccc(-c2ccc3nn(C)c(=O)n3[nH+]2)cc1 (protonated)
COc1ccc(-c2ccc3nn(C)c(=O)n3[nH+]2)cc1 (3D coordinates assigned)
COc1ccc(-c2ccc3nn(C)c(=O)n3[nH+]2)cc1 (optimized conformer: 83.42816296940512 kcal/mol)

>  <smiles>  (15) 
COc1ccc(-c2ccc3nn(C)c(=O)n3n2)cc1

>  <score_type>  (15) 
oracle

>  <origin>  (15) 
adg

>  <m_score__min__energy>  (15) 
-5.1100000000000003

>  <m_primary>  (15) 
energy

$$$$
15:0
     RDKit          3D

 35 36  0  0  0  0  0  0  0  0999 V2000
   55.3430   25.0920   45.6590 C   0  0  0  0  0  0  0  0  0  0  0  0
   55.4350   26.4800   45.9640 O   0  0  0  0  0  0  0  0  0  0  0  0
   56.6350   27.2070   46.0080 C   0  0  0  0  0  0  0  0  0  0  0  0
   57.8010   26.6880   46.6000 C   0  0  0  0  0  0  0  0  0  0  0  0
   58.9770   27.4380   46.6240 C   0  0  0  0  0  0  0  0  0  0  0  0
   59.0200   28.7210   46.0540 C   0  0  0  0  0  0  0  0  0  0  0  0
   60.2840   29.5050   46.0890 C   0  0  0  0  0  0  0  0  0  0  0  0
   61.1620   29.2950   45.2070 O   0  0  0  0  0  0  0  0  0  0  0  0
   60.5600   30.5070   47.1850 C   0  0  0  0  0  0  0  0  0  0  0  0
   59.9790   31.8630   46.8720 C   0  0  0  0  0  0  0  0  0  0  0  0
   60.8190   32.9800   46.7290 C   0  0  0  0  0  0  0  0  0  0  0  0
   60.2800   34.2300   46.4100 C   0  0  0  0  0  0  0  0  0  0  0  0
   58.9020   34.3720   46.2220 C   0  0  0  0  0  0  0  0  0  0  0  0
   58.0610   33.2630   46.3510 C   0  0  0  0  0  0  0  0  0  0  0  0
   58.5970   32.0110   46.6710 C   0  0  0  0  0  0  0  0  0  0  0  0
   57.8510   29.2420   45.4680 C   0  0  0  0  0  0  0  0  0  0  0  0
   56.6590   28.4890   45.4410 C   0  0  0  0  0  0  0  0  0  0  0  0
   55.4790   28.9810   44.8610 O   0  0  0  0  0  0  0  0  0  0  0  0
   55.4280   29.7720   43.6780 C   0  0  0  0  0  0  0  0  0  0  0  0
   55.3046   24.5130   46.5935 H   0  0  0  0  0  0  0  0  0  0  0  0
   54.4305   24.9048   45.0740 H   0  0  0  0  0  0  0  0  0  0  0  0
   56.2228   24.7860   45.0740 H   0  0  0  0  0  0  0  0  0  0  0  0
   57.7852   25.6832   47.0473 H   0  0  0  0  0  0  0  0  0  0  0  0
   59.8796   27.0204   47.0940 H   0  0  0  0  0  0  0  0  0  0  0  0
   60.1171   30.1389   48.1222 H   0  0  0  0  0  0  0  0  0  0  0  0
   61.6506   30.6181   47.2762 H   0  0  0  0  0  0  0  0  0  0  0  0
   61.9046   32.8707   46.8685 H   0  0  0  0  0  0  0  0  0  0  0  0
   60.9412   35.1030   46.3068 H   0  0  0  0  0  0  0  0  0  0  0  0
   58.4795   35.3565   45.9725 H   0  0  0  0  0  0  0  0  0  0  0  0
   56.9770   33.3747   46.2008 H   0  0  0  0  0  0  0  0  0  0  0  0
   57.9332   31.1389   46.7656 H   0  0  0  0  0  0  0  0  0  0  0  0
   57.8675   30.2490   45.0256 H   0  0  0  0  0  0  0  0  0  0  0  0
   55.3594   30.8355   43.9507 H   0  0  0  0  0  0  0  0  0  0  0  0
   56.3389   29.6036   43.0847 H   0  0  0  0  0  0  0  0  0  0  0  0
   54.5463   29.4880   43.0847 H   0  0  0  0  0  0  0  0  0  0  0  0
  1  2  1  0
  2  3  1  0
  3  4  2  0
  4  5  1  0
  5  6  2  0
  6  7  1  0
  7  8  2  0
  7  9  1  0
  9 10  1  0
 10 11  2  0
 11 12  1  0
 12 13  2  0
 13 14  1  0
 14 15  2  0
  6 16  1  0
 16 17  2  0
 17 18  1  0
 18 19  1  0
 17  3  1  0
 15 10  1  0
  1 20  1  0
  1 21  1  0
  1 22  1  0
  4 23  1  0
  5 24  1  0
  9 25  1  0
  9 26  1  0
 11 27  1  0
 12 28  1  0
 13 29  1  0
 14 30  1  0
 15 31  1  0
 16 32  1  0
 19 33  1  0
 19 34  1  0
 19 35  1  0
M  END
>  <UniqueID>  (16) 
16

>  <SMILES>  (16) 
COc1ccc(C(=O)Cc2ccccc2)cc1OC

>  <Energy>  (16) 
36.34894102477805

>  <Genealogy>  (16) 
COc1ccc(C(=O)Cc2ccccc2)cc1OC (3D coordinates assigned)
COc1ccc(C(=O)Cc2ccccc2)cc1OC (optimized conformer: 36.34894102477805 kcal/mol)

>  <smiles>  (16) 
COc1ccc(C(=O)Cc2ccccc2)cc1OC

>  <score_type>  (16) 
oracle

>  <origin>  (16) 
adg

>  <m_score__min__energy>  (16) 
-6.96

>  <m_primary>  (16) 
energy

$$$$
16:0
     RDKit          3D

 61 61  0  0  0  0  0  0  0  0999 V2000
   63.3650   33.8520   46.6580 C   0  0  0  0  0  0  0  0  0  0  0  0
   63.1960   32.5480   47.4490 C   0  0  0  0  0  0  0  0  0  0  0  0
   61.7740   32.2290   47.7380 N   0  0  0  0  0  0  0  0  0  0  0  0
   61.4540   30.8570   47.2620 C   0  0  0  0  0  0  0  0  0  0  0  0
   60.4190   30.1330   48.1340 C   0  0  0  0  0  0  0  0  0  0  0  0
   61.3600   32.5020   49.1480 C   0  0  0  0  0  0  0  0  0  0  0  0
   60.0310   33.2710   49.3710 C   0  0  0  0  0  0  0  0  0  0  0  0
   59.7980   34.4650   48.4310 C   0  0  0  0  0  0  0  0  0  0  0  0
   60.0010   34.0690   47.0330 N   0  0  0  0  0  0  0  0  0  0  0  0
   59.6750   35.1760   46.1280 C   0  0  0  0  0  0  0  0  0  0  0  0
   58.9300   34.6390   44.9030 C   0  0  0  0  0  0  0  0  0  0  0  0
   57.6410   33.9150   45.3090 C   0  0  0  0  0  0  0  0  0  0  0  0
   57.7110   32.4620   44.9250 C   0  0  0  0  0  0  0  0  0  0  0  0
   57.3930   32.0590   43.6180 C   0  0  0  0  0  0  0  0  0  0  0  0
   57.4150   30.7040   43.2730 C   0  0  0  0  0  0  0  0  0  0  0  0
   57.7560   29.7350   44.2290 C   0  0  0  0  0  0  0  0  0  0  0  0
   57.7350   28.2730   43.8720 C   0  0  0  0  0  0  0  0  0  0  0  0
   58.4040   27.4400   44.9690 C   0  0  0  0  0  0  0  0  0  0  0  0
   57.5610   26.2070   45.3190 C   0  0  0  0  0  0  0  0  0  0  0  0
   56.5870   26.4750   46.4730 C   0  0  0  0  0  0  0  0  0  0  0  0
   55.2140   26.5800   45.9840 N   0  0  0  0  0  0  0  0  0  0  0  0
   58.0500   30.1370   45.5420 C   0  0  0  0  0  0  0  0  0  0  0  0
   58.0270   31.4910   45.8870 C   0  0  0  0  0  0  0  0  0  0  0  0
   63.4741   34.6938   47.3577 H   0  0  0  0  0  0  0  0  0  0  0  0
   64.2617   33.7831   46.0246 H   0  0  0  0  0  0  0  0  0  0  0  0
   62.4803   34.0139   46.0246 H   0  0  0  0  0  0  0  0  0  0  0  0
   63.6290   31.7235   46.8637 H   0  0  0  0  0  0  0  0  0  0  0  0
   63.7086   32.6775   48.4136 H   0  0  0  0  0  0  0  0  0  0  0  0
   61.2070   32.8750   47.1360 H   0  0  0  0  0  0  0  0  0  0  0  0
   61.0587   30.9270   46.2379 H   0  0  0  0  0  0  0  0  0  0  0  0
   62.3844   30.2721   47.3107 H   0  0  0  0  0  0  0  0  0  0  0  0
   60.6546   30.2978   49.1958 H   0  0  0  0  0  0  0  0  0  0  0  0
   59.4155   30.5271   47.9156 H   0  0  0  0  0  0  0  0  0  0  0  0
   60.4452   29.0552   47.9156 H   0  0  0  0  0  0  0  0  0  0  0  0
   61.2680   31.5315   49.6576 H   0  0  0  0  0  0  0  0  0  0  0  0
   62.1390   33.1707   49.5431 H   0  0  0  0  0  0  0  0  0  0  0  0
   59.2010   32.5625   49.2328 H   0  0  0  0  0  0  0  0  0  0  0  0
   60.0882   33.6896   50.3866 H   0  0  0  0  0  0  0  0  0  0  0  0
   58.7678   34.8291   48.5576 H   0  0  0  0  0  0  0  0  0  0  0  0
   60.5160   35.2595   48.6823 H   0  0  0  0  0  0  0  0  0  0  0  0
   59.3460   33.2780   46.8220 H   0  0  0  0  0  0  0  0  0  0  0  0
   59.0381   35.9026   46.6537 H   0  0  0  0  0  0  0  0  0  0  0  0
   60.6044   35.6665   45.8030 H   0  0  0  0  0  0  0  0  0  0  0  0
   58.6755   35.4799   44.2411 H   0  0  0  0  0  0  0  0  0  0  0  0
   59.5836   33.9211   44.3858 H   0  0  0  0  0  0  0  0  0  0  0  0
   57.5077   33.9959   46.3979 H   0  0  0  0  0  0  0  0  0  0  0  0
   56.7915   34.3807   44.7880 H   0  0  0  0  0  0  0  0  0  0  0  0
   57.1255   32.8123   42.8624 H   0  0  0  0  0  0  0  0  0  0  0  0
   57.1638   30.3962   42.2472 H   0  0  0  0  0  0  0  0  0  0  0  0
   56.6918   27.9447   43.7544 H   0  0  0  0  0  0  0  0  0  0  0  0
   58.2876   28.1299   42.9317 H   0  0  0  0  0  0  0  0  0  0  0  0
   59.3929   27.1108   44.6172 H   0  0  0  0  0  0  0  0  0  0  0  0
   58.5015   28.0634   45.8701 H   0  0  0  0  0  0  0  0  0  0  0  0
   56.9838   25.9097   44.4310 H   0  0  0  0  0  0  0  0  0  0  0  0
   58.2483   25.4094   45.6377 H   0  0  0  0  0  0  0  0  0  0  0  0
   56.6494   25.6484   47.1960 H   0  0  0  0  0  0  0  0  0  0  0  0
   56.8629   27.4263   46.9515 H   0  0  0  0  0  0  0  0  0  0  0  0
   54.5810   26.7190   46.8050 H   0  0  0  0  0  0  0  0  0  0  0  0
   55.1440   27.4540   45.4150 H   0  0  0  0  0  0  0  0  0  0  0  0
   58.2996   29.3825   46.3026 H   0  0  0  0  0  0  0  0  0  0  0  0
   58.2578   31.7970   46.9181 H   0  0  0  0  0  0  0  0  0  0  0  0
  1  2  1  0
  2  3  1  0
  3  4  1  0
  4  5  1  0
  3  6  1  0
  6  7  1  0
  7  8  1  0
  8  9  1  0
  9 10  1  0
 10 11  1  0
 11 12  1  0
 12 13  1  0
 13 14  2  0
 14 15  1  0
 15 16  2  0
 16 17  1  0
 17 18  1  0
 18 19  1  0
 19 20  1  0
 20 21  1  0
 16 22  1  0
 22 23  2  0
 23 13  1  0
  1 24  1  0
  1 25  1  0
  1 26  1  0
  2 27  1  0
  2 28  1  0
  3 29  1  0
  4 30  1  0
  4 31  1  0
  5 32  1  0
  5 33  1  0
  5 34  1  0
  6 35  1  0
  6 36  1  0
  7 37  1  0
  7 38  1  0
  8 39  1  0
  8 40  1  0
  9 41  1  0
 10 42  1  0
 10 43  1  0
 11 44  1  0
 11 45  1  0
 12 46  1  0
 12 47  1  0
 14 48  1  0
 15 49  1  0
 17 50  1  0
 17 51  1  0
 18 52  1  0
 18 53  1  0
 19 54  1  0
 19 55  1  0
 20 56  1  0
 20 57  1  0
 21 58  1  0
 21 59  1  0
 22 60  1  0
 23 61  1  0
M  CHG  1   3   1
M  END
>  <UniqueID>  (17) 
17

>  <SMILES>  (17) 
CC[NH+](CC)CCCNCCCc1ccc(CCCCN)cc1

>  <Energy>  (17) 
49.41546816475056

>  <Genealogy>  (17) 
CC[NH+](CC)CCCNCCCc1ccc(CCCCN)cc1 (protonated)
CC[NH+](CC)CCCNCCCc1ccc(CCCCN)cc1 (3D coordinates assigned)
CC[NH+](CC)CCCNCCCc1ccc(CCCCN)cc1 (optimized conformer: 49.41546816475056 kcal/mol)

>  <smiles>  (17) 
CCN(CC)CCCNCCCc1ccc(CCCCN)cc1

>  <score_type>  (17) 
oracle

>  <origin>  (17) 
adg

>  <m_score__min__energy>  (17) 
-5.9800000000000004

>  <m_primary>  (17) 
energy

$$$$
17:0
     RDKit          3D

 60 63  0  0  0  0  0  0  0  0999 V2000
   64.6320   32.7860   52.0260 C   0  0  0  0  0  0  0  0  0  0  0  0
   64.3310   32.7680   50.5740 N   0  0  0  0  0  0  0  0  0  0  0  0
   65.6210   32.7030   49.8420 C   0  0  0  0  0  0  0  0  0  0  0  0
   63.5270   31.5460   50.2450 C   0  0  0  0  0  0  0  0  0  0  0  0
   62.0140   31.8140   50.3080 C   0  0  0  0  0  0  0  0  0  0  0  0
   61.6120   32.8110   49.2880 N   0  0  0  0  0  0  0  0  0  0  0  0
   60.3170   33.3900   49.6130 C   0  0  0  0  0  0  0  0  0  0  0  0
   60.1260   34.5770   49.3850 O   0  0  0  0  0  0  0  0  0  0  0  0
   59.2130   32.5670   50.2640 C   0  0  0  0  0  0  0  0  0  0  0  0
   58.6320   31.4700   49.3580 C   0  0  0  0  0  0  0  0  0  0  0  0
   59.2760   30.0990   49.6140 C   0  0  0  0  0  0  0  0  0  0  0  0
   59.7880   29.4870   48.3040 C   0  0  0  0  0  0  0  0  0  0  0  0
   60.2200   30.5480   47.3310 C   0  0  0  0  0  0  0  0  0  0  0  0
   61.4070   30.9720   47.3590 O   0  0  0  0  0  0  0  0  0  0  0  0
   59.2950   31.0910   46.3740 N   0  0  0  0  0  0  0  0  0  0  0  0
   58.3600   30.4310   45.6420 C   0  0  0  0  0  0  0  0  0  0  0  0
   58.0330   29.0700   45.6800 C   0  0  0  0  0  0  0  0  0  0  0  0
   57.0100   28.6090   44.8310 C   0  0  0  0  0  0  0  0  0  0  0  0
   56.3290   29.5030   43.9760 C   0  0  0  0  0  0  0  0  0  0  0  0
   56.6550   30.8700   43.9680 C   0  0  0  0  0  0  0  0  0  0  0  0
   57.6700   31.3000   44.8200 C   0  0  0  0  0  0  0  0  0  0  0  0
   58.1870   32.5520   45.0550 C   0  0  0  0  0  0  0  0  0  0  0  0
   57.8830   33.7950   44.5010 C   0  0  0  0  0  0  0  0  0  0  0  0
   58.6210   34.9060   44.9460 C   0  0  0  0  0  0  0  0  0  0  0  0
   59.6370   34.7530   45.9140 C   0  0  0  0  0  0  0  0  0  0  0  0
   59.9210   33.4870   46.4590 C   0  0  0  0  0  0  0  0  0  0  0  0
   59.1710   32.3940   46.0130 C   0  0  0  0  0  0  0  0  0  0  0  0
   62.6470   33.8480   49.0250 C   0  0  0  0  0  0  0  0  0  0  0  0
   63.6120   34.0340   50.2130 C   0  0  0  0  0  0  0  0  0  0  0  0
   63.6928   32.7298   52.5959 H   0  0  0  0  0  0  0  0  0  0  0  0
   65.2668   31.9242   52.2796 H   0  0  0  0  0  0  0  0  0  0  0  0
   65.1596   33.7173   52.2796 H   0  0  0  0  0  0  0  0  0  0  0  0
   66.4503   32.6612   50.5635 H   0  0  0  0  0  0  0  0  0  0  0  0
   65.6391   31.8028   49.2101 H   0  0  0  0  0  0  0  0  0  0  0  0
   65.7295   33.5968   49.2101 H   0  0  0  0  0  0  0  0  0  0  0  0
   63.7863   31.2139   49.2289 H   0  0  0  0  0  0  0  0  0  0  0  0
   63.7652   30.7732   50.9907 H   0  0  0  0  0  0  0  0  0  0  0  0
   61.4735   30.8735   50.1254 H   0  0  0  0  0  0  0  0  0  0  0  0
   61.7679   32.2106   51.3041 H   0  0  0  0  0  0  0  0  0  0  0  0
   61.4960   32.2820   48.3890 H   0  0  0  0  0  0  0  0  0  0  0  0
   59.6241   32.0890   51.1654 H   0  0  0  0  0  0  0  0  0  0  0  0
   58.3902   33.2614   50.4895 H   0  0  0  0  0  0  0  0  0  0  0  0
   57.5507   31.3931   49.5449 H   0  0  0  0  0  0  0  0  0  0  0  0
   58.8412   31.7500   48.3150 H   0  0  0  0  0  0  0  0  0  0  0  0
   60.1194   30.2205   50.3096 H   0  0  0  0  0  0  0  0  0  0  0  0
   58.5188   29.4278   50.0455 H   0  0  0  0  0  0  0  0  0  0  0  0
   60.6457   28.8349   48.5256 H   0  0  0  0  0  0  0  0  0  0  0  0
   58.9675   28.9141   47.8474 H   0  0  0  0  0  0  0  0  0  0  0  0
   58.5612   28.3804   46.3548 H   0  0  0  0  0  0  0  0  0  0  0  0
   56.7384   27.5431   44.8333 H   0  0  0  0  0  0  0  0  0  0  0  0
   55.5375   29.1266   43.3113 H   0  0  0  0  0  0  0  0  0  0  0  0
   56.1266   31.5767   43.3112 H   0  0  0  0  0  0  0  0  0  0  0  0
   57.0936   33.9026   43.7425 H   0  0  0  0  0  0  0  0  0  0  0  0
   58.4047   35.9036   44.5361 H   0  0  0  0  0  0  0  0  0  0  0  0
   60.2115   35.6307   46.2451 H   0  0  0  0  0  0  0  0  0  0  0  0
   60.7105   33.3607   47.2144 H   0  0  0  0  0  0  0  0  0  0  0  0
   63.2293   33.5489   48.1410 H   0  0  0  0  0  0  0  0  0  0  0  0
   62.1282   34.8044   48.8630 H   0  0  0  0  0  0  0  0  0  0  0  0
   64.3565   34.7985   49.9461 H   0  0  0  0  0  0  0  0  0  0  0  0
   63.0137   34.3382   51.0845 H   0  0  0  0  0  0  0  0  0  0  0  0
  1  2  1  0
  2  3  1  0
  2  4  1  0
  4  5  1  0
  5  6  1  0
  6  7  1  0
  7  8  2  0
  7  9  1  0
  9 10  1  0
 10 11  1  0
 11 12  1  0
 12 13  1  0
 13 14  2  0
 13 15  1  0
 15 16  1  0
 16 17  2  0
 17 18  1  0
 18 19  2  0
 19 20  1  0
 20 21  2  0
 21 22  1  0
 22 23  2  0
 23 24  1  0
 24 25  2  0
 25 26  1  0
 26 27  2  0
  6 28  1  0
 28 29  1  0
 29  2  1  0
 27 15  1  0
 21 16  1  0
 27 22  1  0
  1 30  1  0
  1 31  1  0
  1 32  1  0
  3 33  1  0
  3 34  1  0
  3 35  1  0
  4 36  1  0
  4 37  1  0
  5 38  1  0
  5 39  1  0
  6 40  1  0
  9 41  1  0
  9 42  1  0
 10 43  1  0
 10 44  1  0
 11 45  1  0
 11 46  1  0
 12 47  1  0
 12 48  1  0
 17 49  1  0
 18 50  1  0
 19 51  1  0
 20 52  1  0
 23 53  1  0
 24 54  1  0
 25 55  1  0
 26 56  1  0
 28 57  1  0
 28 58  1  0
 29 59  1  0
 29 60  1  0
M  CHG  2   2   1   6   1
M  END
>  <UniqueID>  (18) 
18

>  <SMILES>  (18) 
C[N+]1(C)CC[NH+](C(=O)CCCCC(=O)n2c3ccccc3c3ccccc32)CC1

>  <Energy>  (18) 
124.1989899523415

>  <Genealogy>  (18) 
C[N+]1(C)CC[NH+](C(=O)CCCCC(=O)n2c3ccccc3c3ccccc32)CC1 (protonated)
C[N+]1(C)CC[NH+](C(=O)CCCCC(=O)n2c3ccccc3c3ccccc32)CC1 (3D coordinates assigned)
C[N+]1(C)CC[NH+](C(=O)CCCCC(=O)n2c3ccccc3c3ccccc32)CC1 (nonaromatic ring conformer: 124.1989899523415 kcal/mol)

>  <smiles>  (18) 
C[N+]1(C)CCN(C(=O)CCCCC(=O)n2c3ccccc3c3ccccc32)CC1

>  <score_type>  (18) 
oracle

>  <origin>  (18) 
adg

>  <m_score__min__energy>  (18) 
-6.2000000000000002

>  <m_primary>  (18) 
energy

$$$$
18:0
     RDKit          3D

 39 40  0  0  0  0  0  0  0  0999 V2000
   55.7550   29.7350   43.8640 C   0  0  0  0  0  0  0  0  0  0  0  0
   55.5980   28.8270   44.9480 O   0  0  0  0  0  0  0  0  0  0  0  0
   56.6540   28.1480   45.5780 C   0  0  0  0  0  0  0  0  0  0  0  0
   57.9460   28.7010   45.6670 C   0  0  0  0  0  0  0  0  0  0  0  0
   58.9720   28.0200   46.3440 C   0  0  0  0  0  0  0  0  0  0  0  0
   60.3600   28.6040   46.4370 C   0  0  0  0  0  0  0  0  0  0  0  0
   60.7480   29.2530   48.1080 S   0  0  0  0  0  0  0  0  0  0  0  0
   59.2330   30.2580   48.3330 C   0  0  0  0  0  0  0  0  0  0  0  0
   59.2500   31.4890   47.4650 C   0  0  0  0  0  0  0  0  0  0  0  0
   60.3800   32.3240   47.4410 C   0  0  0  0  0  0  0  0  0  0  0  0
   60.3870   33.4770   46.6520 C   0  0  0  0  0  0  0  0  0  0  0  0
   59.2670   33.8100   45.8840 C   0  0  0  0  0  0  0  0  0  0  0  0
   59.2660   35.2740   44.9200 Cl  0  0  0  0  0  0  0  0  0  0  0  0
   58.1470   32.9730   45.8860 C   0  0  0  0  0  0  0  0  0  0  0  0
   58.1430   31.8100   46.6610 C   0  0  0  0  0  0  0  0  0  0  0  0
   58.7130   26.7450   46.8690 C   0  0  0  0  0  0  0  0  0  0  0  0
   57.4430   26.1790   46.7570 C   0  0  0  0  0  0  0  0  0  0  0  0
   56.3980   26.8860   46.1370 C   0  0  0  0  0  0  0  0  0  0  0  0
   55.0950   26.3070   45.9720 N   0  0  0  0  0  0  0  0  0  0  0  0
   54.7740   24.9600   45.6020 C   0  0  0  0  0  0  0  0  0  0  0  0
   55.7140   24.1010   44.8130 C   0  0  0  0  0  0  0  0  0  0  0  0
   53.6820   24.4660   45.9890 O   0  0  0  0  0  0  0  0  0  0  0  0
   55.9301   30.7476   44.2563 H   0  0  0  0  0  0  0  0  0  0  0  0
   56.6132   29.4267   43.2488 H   0  0  0  0  0  0  0  0  0  0  0  0
   54.8431   29.7327   43.2488 H   0  0  0  0  0  0  0  0  0  0  0  0
   58.1542   29.6759   45.2019 H   0  0  0  0  0  0  0  0  0  0  0  0
   61.0890   27.8191   46.1869 H   0  0  0  0  0  0  0  0  0  0  0  0
   60.4117   29.4483   45.7337 H   0  0  0  0  0  0  0  0  0  0  0  0
   58.3570   29.6472   48.0691 H   0  0  0  0  0  0  0  0  0  0  0  0
   59.1860   30.5789   49.3841 H   0  0  0  0  0  0  0  0  0  0  0  0
   61.2626   32.0688   48.0459 H   0  0  0  0  0  0  0  0  0  0  0  0
   61.2760   34.1246   46.6349 H   0  0  0  0  0  0  0  0  0  0  0  0
   57.2679   33.2302   45.2768 H   0  0  0  0  0  0  0  0  0  0  0  0
   57.2689   31.1425   46.6416 H   0  0  0  0  0  0  0  0  0  0  0  0
   59.5169   26.1879   47.3724 H   0  0  0  0  0  0  0  0  0  0  0  0
   57.2577   25.1712   47.1571 H   0  0  0  0  0  0  0  0  0  0  0  0
   56.3473   23.5223   45.5015 H   0  0  0  0  0  0  0  0  0  0  0  0
   55.1366   23.4120   44.1791 H   0  0  0  0  0  0  0  0  0  0  0  0
   56.3483   24.7380   44.1791 H   0  0  0  0  0  0  0  0  0  0  0  0
  1  2  1  0
  2  3  1  0
  3  4  2  0
  4  5  1  0
  5  6  1  0
  6  7  1  0
  7  8  1  0
  8  9  1  0
  9 10  2  0
 10 11  1  0
 11 12  2  0
 12 13  1  0
 12 14  1  0
 14 15  2  0
  5 16  2  0
 16 17  1  0
 17 18  2  0
 18 19  1  0
 19 20  1  0
 20 21  1  0
 20 22  2  0
 18  3  1  0
 15  9  1  0
  1 23  1  0
  1 24  1  0
  1 25  1  0
  4 26  1  0
  6 27  1  0
  6 28  1  0
  8 29  1  0
  8 30  1  0
 10 31  1  0
 11 32  1  0
 14 33  1  0
 15 34  1  0
 16 35  1  0
 17 36  1  0
 21 37  1  0
 21 38  1  0
 21 39  1  0
M  CHG  1  19  -1
M  END
>  <UniqueID>  (19) 
19

>  <SMILES>  (19) 
COc1cc(CSCc2ccc(Cl)cc2)ccc1[N-]C(C)=O

>  <Energy>  (19) 
34.26469547684131

>  <Genealogy>  (19) 
COc1cc(CSCc2ccc(Cl)cc2)ccc1[N-]C(C)=O (protonated)
COc1cc(CSCc2ccc(Cl)cc2)ccc1[N-]C(C)=O (3D coordinates assigned)
COc1cc(CSCc2ccc(Cl)cc2)ccc1[N-]C(C)=O (optimized conformer: 34.26469547684131 kcal/mol)

>  <smiles>  (19) 
COc1cc(CSCc2ccc(Cl)cc2)ccc1NC(C)=O

>  <score_type>  (19) 
oracle

>  <origin>  (19) 
adg

>  <m_score__min__energy>  (19) 
-9.8599999999999994

>  <m_primary>  (19) 
energy

$$$$
19:0
     RDKit          3D

 35 37  0  0  0  0  0  0  0  0999 V2000
   56.1000   30.1150   43.3710 C   0  0  0  0  0  0  0  0  0  0  0  0
   57.1800   29.4370   44.1580 C   0  0  0  0  0  0  0  0  0  0  0  0
   57.3560   28.0880   44.1060 N   0  0  0  0  0  0  0  0  0  0  0  0
   58.3620   27.6590   44.9010 C   0  0  0  0  0  0  0  0  0  0  0  0
   58.7080   26.2190   45.1050 C   0  0  0  0  0  0  0  0  0  0  0  0
   57.4830   25.3660   44.9250 C   0  0  0  0  0  0  0  0  0  0  0  0
   56.4020   25.4810   45.8160 C   0  0  0  0  0  0  0  0  0  0  0  0
   55.2480   24.7170   45.6240 C   0  0  0  0  0  0  0  0  0  0  0  0
   55.1600   23.8400   44.5390 C   0  0  0  0  0  0  0  0  0  0  0  0
   56.2260   23.7300   43.6410 C   0  0  0  0  0  0  0  0  0  0  0  0
   57.3820   24.4930   43.8290 C   0  0  0  0  0  0  0  0  0  0  0  0
   59.0720   28.9420   45.7230 S   0  0  0  0  0  0  0  0  0  0  0  0
   58.0760   30.0990   45.0070 C   0  0  0  0  0  0  0  0  0  0  0  0
   58.1480   31.5480   45.2790 C   0  0  0  0  0  0  0  0  0  0  0  0
   58.2020   32.0280   46.6010 C   0  0  0  0  0  0  0  0  0  0  0  0
   58.1540   31.1710   47.6520 F   0  0  0  0  0  0  0  0  0  0  0  0
   58.2650   33.4040   46.8470 C   0  0  0  0  0  0  0  0  0  0  0  0
   58.2670   34.3080   45.7840 C   0  0  0  0  0  0  0  0  0  0  0  0
   58.2000   33.8410   44.4690 C   0  0  0  0  0  0  0  0  0  0  0  0
   58.1360   32.4680   44.2130 C   0  0  0  0  0  0  0  0  0  0  0  0
   58.0870   32.0350   42.9270 F   0  0  0  0  0  0  0  0  0  0  0  0
   55.3744   30.5705   44.0610 H   0  0  0  0  0  0  0  0  0  0  0  0
   56.5439   30.8968   42.7372 H   0  0  0  0  0  0  0  0  0  0  0  0
   55.5889   29.3754   42.7372 H   0  0  0  0  0  0  0  0  0  0  0  0
   56.7650   27.4470   43.5310 H   0  0  0  0  0  0  0  0  0  0  0  0
   59.4712   25.9201   44.3713 H   0  0  0  0  0  0  0  0  0  0  0  0
   59.0972   26.0818   46.1246 H   0  0  0  0  0  0  0  0  0  0  0  0
   56.4647   26.1748   46.6673 H   0  0  0  0  0  0  0  0  0  0  0  0
   54.4073   24.8058   46.3278 H   0  0  0  0  0  0  0  0  0  0  0  0
   54.2522   23.2365   44.3917 H   0  0  0  0  0  0  0  0  0  0  0  0
   56.1549   23.0422   42.7855 H   0  0  0  0  0  0  0  0  0  0  0  0
   58.2156   24.4096   43.1162 H   0  0  0  0  0  0  0  0  0  0  0  0
   58.3131   33.7743   47.8817 H   0  0  0  0  0  0  0  0  0  0  0  0
   58.3213   35.3888   45.9815 H   0  0  0  0  0  0  0  0  0  0  0  0
   58.1976   34.5555   43.6327 H   0  0  0  0  0  0  0  0  0  0  0  0
  1  2  1  0
  2  3  1  0
  3  4  2  0
  4  5  1  0
  5  6  1  0
  6  7  2  0
  7  8  1  0
  8  9  2  0
  9 10  1  0
 10 11  2  0
  4 12  1  0
 12 13  1  0
 13 14  1  0
 14 15  2  0
 15 16  1  0
 15 17  1  0
 17 18  2  0
 18 19  1  0
 19 20  2  0
 20 21  1  0
 13  2  2  0
 20 14  1  0
 11  6  1  0
  1 22  1  0
  1 23  1  0
  1 24  1  0
  3 25  1  0
  5 26  1  0
  5 27  1  0
  7 28  1  0
  8 29  1  0
  9 30  1  0
 10 31  1  0
 11 32  1  0
 17 33  1  0
 18 34  1  0
 19 35  1  0
M  CHG  1   3   1
M  END
>  <UniqueID>  (20) 
20

>  <SMILES>  (20) 
Cc1[nH+]c(Cc2ccccc2)sc1-c1c(F)cccc1F

>  <Energy>  (20) 
70.11002802758172

>  <Genealogy>  (20) 
Cc1[nH+]c(Cc2ccccc2)sc1-c1c(F)cccc1F (protonated)
Cc1[nH+]c(Cc2ccccc2)sc1-c1c(F)cccc1F (3D coordinates assigned)
Cc1[nH+]c(Cc2ccccc2)sc1-c1c(F)cccc1F (optimized conformer: 70.11002802758172 kcal/mol)

>  <smiles>  (20) 
Cc1nc(Cc2ccccc2)sc1-c1c(F)cccc1F

>  <score_type>  (20) 
oracle

>  <origin>  (20) 
adg

>  <m_score__min__energy>  (20) 
-5.8099999999999996

>  <m_primary>  (20) 
energy

$$$$
20:0
     RDKit          3D

 39 41  0  0  0  0  0  0  0  0999 V2000
   61.3982   28.7942   47.0021 H   0  0  0  0  0  0  0  0  0  0  0  0
   60.4880   28.9740   47.5930 C   0  0  0  0  0  0  0  0  0  0  0  0
   60.6310   29.2470   48.9090 C   0  0  0  0  0  0  0  0  0  0  0  0
   60.2510   30.5910   49.4560 C   0  0  0  0  0  0  0  0  0  0  0  0
   60.0970   31.7850   48.5950 C   0  0  0  0  0  0  0  0  0  0  0  0
   58.8440   32.4020   48.4440 C   0  0  0  0  0  0  0  0  0  0  0  0
   57.9716   32.0101   48.9874 H   0  0  0  0  0  0  0  0  0  0  0  0
   58.7010   33.5120   47.6060 C   0  0  0  0  0  0  0  0  0  0  0  0
   57.7164   33.9894   47.4936 H   0  0  0  0  0  0  0  0  0  0  0  0
   59.8060   34.0200   46.9080 C   0  0  0  0  0  0  0  0  0  0  0  0
   59.6420   35.1860   45.9780 C   0  0  0  0  0  0  0  0  0  0  0  0
   59.5124   36.1075   46.5646 H   0  0  0  0  0  0  0  0  0  0  0  0
   60.5361   35.2778   45.3438 H   0  0  0  0  0  0  0  0  0  0  0  0
   58.7573   35.0276   45.3438 H   0  0  0  0  0  0  0  0  0  0  0  0
   61.0490   33.3810   47.0280 C   0  0  0  0  0  0  0  0  0  0  0  0
   61.9141   33.7551   46.4609 H   0  0  0  0  0  0  0  0  0  0  0  0
   61.1930   32.2710   47.8650 C   0  0  0  0  0  0  0  0  0  0  0  0
   62.1711   31.7753   47.9522 H   0  0  0  0  0  0  0  0  0  0  0  0
   60.1300   30.7540   50.7440 N   0  0  0  0  0  0  0  0  0  0  0  0
   60.3000   29.6740   51.7120 C   0  0  0  0  0  0  0  0  0  0  0  0
   60.5467   30.1002   52.6956 H   0  0  0  0  0  0  0  0  0  0  0  0
   59.3656   29.0979   51.7826 H   0  0  0  0  0  0  0  0  0  0  0  0
   61.4300   28.7510   51.2610 C   0  0  0  0  0  0  0  0  0  0  0  0
   62.3695   29.3208   51.2100 H   0  0  0  0  0  0  0  0  0  0  0  0
   61.5372   27.9267   51.9814 H   0  0  0  0  0  0  0  0  0  0  0  0
   61.1060   28.1780   49.8780 C   0  0  0  0  0  0  0  0  0  0  0  0
   62.0120   27.7069   49.4690 H   0  0  0  0  0  0  0  0  0  0  0  0
   60.2929   27.4469   49.9982 H   0  0  0  0  0  0  0  0  0  0  0  0
   59.1880   28.9020   46.8990 C   0  0  0  0  0  0  0  0  0  0  0  0
   58.7070   29.9840   46.1460 C   0  0  0  0  0  0  0  0  0  0  0  0
   59.2948   30.9117   46.0830 H   0  0  0  0  0  0  0  0  0  0  0  0
   57.4830   29.8880   45.4750 C   0  0  0  0  0  0  0  0  0  0  0  0
   56.8470   31.3840   44.4660 Br  0  0  0  0  0  0  0  0  0  0  0  0
   56.7410   28.7000   45.5370 C   0  0  0  0  0  0  0  0  0  0  0  0
   55.5240   28.6030   44.8720 O   0  0  0  0  0  0  0  0  0  0  0  0
   57.2320   27.6070   46.2660 C   0  0  0  0  0  0  0  0  0  0  0  0
   56.2450   25.9710   46.3550 Br  0  0  0  0  0  0  0  0  0  0  0  0
   58.4560   27.7070   46.9370 C   0  0  0  0  0  0  0  0  0  0  0  0
   58.8455   26.8440   47.4968 H   0  0  0  0  0  0  0  0  0  0  0  0
  1  2  1  0
  2  3  2  0
  3  4  1  0
  4  5  1  0
  5  6  2  0
  6  7  1  0
  6  8  1  0
  8  9  1  0
  8 10  2  0
 10 11  1  0
 11 12  1  0
 11 13  1  0
 11 14  1  0
 10 15  1  0
 15 16  1  0
 15 17  2  0
 17 18  1  0
  4 19  2  0
 19 20  1  0
 20 21  1  0
 20 22  1  0
 20 23  1  0
 23 24  1  0
 23 25  1  0
 23 26  1  0
 26 27  1  0
 26 28  1  0
  2 29  1  0
 29 30  2  0
 30 31  1  0
 30 32  1  0
 32 33  1  0
 32 34  2  0
 34 35  1  0
 34 36  1  0
 36 37  1  0
 36 38  2  0
 38 39  1  0
 26  3  1  0
 38 29  1  0
 17  5  1  0
M  CHG  1  35  -1
M  END
>  <UniqueID>  (21) 
21

>  <SMILES>  (21) 
Cc1ccc(C2=NCCC/C2=C\c2cc(Br)c([O-])c(Br)c2)cc1

>  <Energy>  (21) 
53.644630310183594

>  <Genealogy>  (21) 
Cc1ccc(C2=NCCCC2=Cc2cc(Br)c([O-])c(Br)c2)cc1 (protonated)
Cc1ccc(C2=NCCC/C2=C\c2cc(Br)c([O-])c(Br)c2)cc1 (cis-trans isomerization)
Cc1ccc(C2=NCCC/C2=C\c2cc(Br)c([O-])c(Br)c2)cc1 (3D coordinates assigned)
Cc1ccc(C2=NCCC/C2=C\c2cc(Br)c([O-])c(Br)c2)cc1 (nonaromatic ring conformer: 53.644630310183594 kcal/mol)

>  <smiles>  (21) 
Cc1ccc(C2=NCCCC2=Cc2cc(Br)c(O)c(Br)c2)cc1

>  <score_type>  (21) 
oracle

>  <origin>  (21) 
adg

>  <m_score__min__energy>  (21) 
-10.67

>  <m_primary>  (21) 
energy

$$$$
21:0
     RDKit          3D

 34 36  0  0  0  0  0  0  0  0999 V2000
   55.8390   25.9500   46.7430 O   0  0  0  0  0  0  0  0  0  0  0  0
   56.3680   25.8020   45.6070 C   0  0  0  0  0  0  0  0  0  0  0  0
   57.0500   26.9060   44.9890 N   0  0  0  0  0  0  0  0  0  0  0  0
   57.3380   28.1540   45.6990 C   0  0  0  0  0  0  0  0  0  0  0  0
   57.2620   29.3670   44.7840 C   0  0  0  0  0  0  0  0  0  0  0  0
   56.7190   29.2320   43.4880 C   0  0  0  0  0  0  0  0  0  0  0  0
   56.6250   30.3250   42.6300 C   0  0  0  0  0  0  0  0  0  0  0  0
   57.0920   31.5740   43.0280 C   0  0  0  0  0  0  0  0  0  0  0  0
   57.6890   31.7360   44.2830 C   0  0  0  0  0  0  0  0  0  0  0  0
   58.1920   32.9930   44.6570 C   0  0  0  0  0  0  0  0  0  0  0  0
   58.8210   33.1610   45.8910 C   0  0  0  0  0  0  0  0  0  0  0  0
   58.9610   32.0790   46.7570 C   0  0  0  0  0  0  0  0  0  0  0  0
   58.4630   30.8220   46.4040 C   0  0  0  0  0  0  0  0  0  0  0  0
   57.8010   30.6280   45.1700 C   0  0  0  0  0  0  0  0  0  0  0  0
   56.2600   24.4920   44.9210 C   0  0  0  0  0  0  0  0  0  0  0  0
   55.6540   23.3900   45.5500 C   0  0  0  0  0  0  0  0  0  0  0  0
   55.5620   22.1710   44.8740 C   0  0  0  0  0  0  0  0  0  0  0  0
   56.0500   22.0530   43.6100 N   0  0  0  0  0  0  0  0  0  0  0  0
   56.6330   23.1000   42.9720 C   0  0  0  0  0  0  0  0  0  0  0  0
   56.7450   24.3370   43.6110 C   0  0  0  0  0  0  0  0  0  0  0  0
   57.2040   26.8910   43.9570 H   0  0  0  0  0  0  0  0  0  0  0  0
   56.6061   28.2765   46.5110 H   0  0  0  0  0  0  0  0  0  0  0  0
   58.3640   28.0904   46.0906 H   0  0  0  0  0  0  0  0  0  0  0  0
   56.3642   28.2471   43.1501 H   0  0  0  0  0  0  0  0  0  0  0  0
   56.1791   30.2003   41.6322 H   0  0  0  0  0  0  0  0  0  0  0  0
   56.9914   32.4371   42.3535 H   0  0  0  0  0  0  0  0  0  0  0  0
   58.0895   33.8490   43.9738 H   0  0  0  0  0  0  0  0  0  0  0  0
   59.2070   34.1495   46.1805 H   0  0  0  0  0  0  0  0  0  0  0  0
   59.4666   32.2148   47.7245 H   0  0  0  0  0  0  0  0  0  0  0  0
   58.5874   29.9742   47.0938 H   0  0  0  0  0  0  0  0  0  0  0  0
   55.2541   23.4874   46.5701 H   0  0  0  0  0  0  0  0  0  0  0  0
   55.0940   21.3050   45.3649 H   0  0  0  0  0  0  0  0  0  0  0  0
   57.0181   22.9739   41.9494 H   0  0  0  0  0  0  0  0  0  0  0  0
   57.2111   25.1868   43.0908 H   0  0  0  0  0  0  0  0  0  0  0  0
  1  2  2  0
  2  3  1  0
  3  4  1  0
  4  5  1  0
  5  6  2  0
  6  7  1  0
  7  8  2  0
  8  9  1  0
  9 10  2  0
 10 11  1  0
 11 12  2  0
 12 13  1  0
 13 14  2  0
  2 15  1  0
 15 16  2  0
 16 17  1  0
 17 18  2  0
 18 19  1  0
 19 20  2  0
 14  5  1  0
 20 15  1  0
 14  9  1  0
  3 21  1  0
  4 22  1  0
  4 23  1  0
  6 24  1  0
  7 25  1  0
  8 26  1  0
 10 27  1  0
 11 28  1  0
 12 29  1  0
 13 30  1  0
 16 31  1  0
 17 32  1  0
 19 33  1  0
 20 34  1  0
M  END
>  <UniqueID>  (22) 
22

>  <SMILES>  (22) 
O=C(NCc1cccc2ccccc12)c1ccncc1

>  <Energy>  (22) 
47.07790097828539

>  <Genealogy>  (22) 
O=C(NCc1cccc2ccccc12)c1ccncc1 (3D coordinates assigned)
O=C(NCc1cccc2ccccc12)c1ccncc1 (optimized conformer: 47.07790097828539 kcal/mol)

>  <smiles>  (22) 
O=C(NCc1cccc2ccccc12)c1ccncc1

>  <score_type>  (22) 
oracle

>  <origin>  (22) 
adg

>  <m_score__min__energy>  (22) 
-7.46

>  <m_primary>  (22) 
energy

$$$$
22:0
     RDKit          3D

 41 43  0  0  0  0  0  0  0  0999 V2000
   60.8955   28.0143   49.3897 H   0  0  0  0  0  0  0  0  0  0  0  0
   60.3600   28.0610   48.4300 C   0  0  0  0  0  0  0  0  0  0  0  0
   60.4510   27.0010   47.5290 C   0  0  0  0  0  0  0  0  0  0  0  0
   61.0651   26.1229   47.7777 H   0  0  0  0  0  0  0  0  0  0  0  0
   59.7660   27.0480   46.3110 C   0  0  0  0  0  0  0  0  0  0  0  0
   59.8479   26.2071   45.6066 H   0  0  0  0  0  0  0  0  0  0  0  0
   58.9690   28.1670   45.9770 C   0  0  0  0  0  0  0  0  0  0  0  0
   58.2390   28.2640   44.7590 C   0  0  0  0  0  0  0  0  0  0  0  0
   58.2480   27.1340   43.7380 C   0  0  0  0  0  0  0  0  0  0  0  0
   59.2853   26.9356   43.4304 H   0  0  0  0  0  0  0  0  0  0  0  0
   57.6407   27.4389   42.8730 H   0  0  0  0  0  0  0  0  0  0  0  0
   57.6500   25.8600   44.3260 C   0  0  0  0  0  0  0  0  0  0  0  0
   57.6761   25.9157   45.4243 H   0  0  0  0  0  0  0  0  0  0  0  0
   56.6083   25.7544   43.9889 H   0  0  0  0  0  0  0  0  0  0  0  0
   58.2343   24.9911   43.9889 H   0  0  0  0  0  0  0  0  0  0  0  0
   57.5220   29.4600   44.4850 C   0  0  0  0  0  0  0  0  0  0  0  0
   56.8180   29.6400   43.2300 C   0  0  0  0  0  0  0  0  0  0  0  0
   56.2580   29.7840   42.2280 N   0  0  0  0  0  0  0  0  0  0  0  0
   57.5000   30.4960   45.4380 C   0  0  0  0  0  0  0  0  0  0  0  0
   56.8260   31.5870   45.1990 N   0  0  0  0  0  0  0  0  0  0  0  0
   57.2810   32.9730   45.3790 C   0  0  0  0  0  0  0  0  0  0  0  0
   56.5068   33.6395   44.9711 H   0  0  0  0  0  0  0  0  0  0  0  0
   58.5600   33.2520   44.5630 C   0  0  0  0  0  0  0  0  0  0  0  0
   59.3272   32.5092   44.8270 H   0  0  0  0  0  0  0  0  0  0  0  0
   58.3204   33.1849   43.4915 H   0  0  0  0  0  0  0  0  0  0  0  0
   59.0930   34.6570   44.8650 C   0  0  0  0  0  0  0  0  0  0  0  0
   60.0322   34.8021   44.3111 H   0  0  0  0  0  0  0  0  0  0  0  0
   58.3193   35.3756   44.5569 H   0  0  0  0  0  0  0  0  0  0  0  0
   59.3670   34.8890   46.3690 C   0  0  0  0  0  0  0  0  0  0  0  0
   60.4551   34.9543   46.5164 H   0  0  0  0  0  0  0  0  0  0  0  0
   58.8456   35.8164   46.6484 H   0  0  0  0  0  0  0  0  0  0  0  0
   58.8210   33.7790   47.2820 C   0  0  0  0  0  0  0  0  0  0  0  0
   59.4834   32.9035   47.2138 H   0  0  0  0  0  0  0  0  0  0  0  0
   58.7856   34.1678   48.3104 H   0  0  0  0  0  0  0  0  0  0  0  0
   57.4000   33.3600   46.8800 C   0  0  0  0  0  0  0  0  0  0  0  0
   57.1047   32.4933   47.4897 H   0  0  0  0  0  0  0  0  0  0  0  0
   56.7422   34.2253   47.0492 H   0  0  0  0  0  0  0  0  0  0  0  0
   58.1790   30.3490   46.6040 N   0  0  0  0  0  0  0  0  0  0  0  0
   58.9020   29.2420   46.8970 C   0  0  0  0  0  0  0  0  0  0  0  0
   59.5900   29.1810   48.1150 C   0  0  0  0  0  0  0  0  0  0  0  0
   59.5232   30.0183   48.8253 H   0  0  0  0  0  0  0  0  0  0  0  0
  1  2  1  0
  2  3  2  0
  3  4  1  0
  3  5  1  0
  5  6  1  0
  5  7  2  0
  7  8  1  0
  8  9  1  0
  9 10  1  0
  9 11  1  0
  9 12  1  0
 12 13  1  0
 12 14  1  0
 12 15  1  0
  8 16  2  0
 16 17  1  0
 17 18  3  0
 16 19  1  0
 19 20  2  0
 20 21  1  0
 21 22  1  0
 21 23  1  0
 23 24  1  0
 23 25  1  0
 23 26  1  0
 26 27  1  0
 26 28  1  0
 26 29  1  0
 29 30  1  0
 29 31  1  0
 29 32  1  0
 32 33  1  0
 32 34  1  0
 32 35  1  0
 35 36  1  0
 35 37  1  0
 19 38  1  0
 38 39  1  0
 39 40  2  0
 40 41  1  0
 40  2  1  0
 39  7  1  0
 35 21  1  0
M  CHG  1  38  -1
M  END
>  <UniqueID>  (23) 
23

>  <SMILES>  (23) 
CCc1c(C#N)/c(=N/C2CCCCC2)[n-]c2ccccc12

>  <Energy>  (23) 
51.35876866202088

>  <Genealogy>  (23) 
CCc1c(C#N)c(=NC2CCCCC2)[n-]c2ccccc12 (protonated)
CCc1c(C#N)/c(=N/C2CCCCC2)[n-]c2ccccc12 (cis-trans isomerization)
CCc1c(C#N)/c(=N/C2CCCCC2)[n-]c2ccccc12 (3D coordinates assigned)
CCc1c(C#N)/c(=N/C2CCCCC2)[n-]c2ccccc12 (nonaromatic ring conformer: 51.35876866202088 kcal/mol)

>  <smiles>  (23) 
CCc1c(C#N)c(=NC2CCCCC2)[nH]c2ccccc12

>  <score_type>  (23) 
oracle

>  <origin>  (23) 
adg

>  <m_score__min__energy>  (23) 
-9.0199999999999996

>  <m_primary>  (23) 
energy

$$$$
23:0
     RDKit          3D

 56 59  0  0  0  0  0  0  0  0999 V2000
   63.1230   33.8310   46.2980 C   0  0  0  0  0  0  0  0  0  0  0  0
   63.7600   33.8390   47.6890 C   0  0  0  0  0  0  0  0  0  0  0  0
   63.0040   33.0650   48.7000 N   0  0  0  0  0  0  0  0  0  0  0  0
   63.4080   33.3270   50.1050 C   0  0  0  0  0  0  0  0  0  0  0  0
   64.8980   33.1090   50.4040 C   0  0  0  0  0  0  0  0  0  0  0  0
   62.7600   31.6560   48.3140 C   0  0  0  0  0  0  0  0  0  0  0  0
   61.5690   31.0320   49.0760 C   0  0  0  0  0  0  0  0  0  0  0  0
   60.3390   31.8490   49.0280 N   0  0  0  0  0  0  0  0  0  0  0  0
   59.6160   31.7020   47.7690 C   0  0  0  0  0  0  0  0  0  0  0  0
   59.4830   32.8150   46.8890 C   0  0  0  0  0  0  0  0  0  0  0  0
   60.0150   34.0910   47.2030 C   0  0  0  0  0  0  0  0  0  0  0  0
   59.8580   35.1710   46.3380 C   0  0  0  0  0  0  0  0  0  0  0  0
   59.1670   35.0160   45.1460 C   0  0  0  0  0  0  0  0  0  0  0  0
   58.6250   33.7790   44.8130 C   0  0  0  0  0  0  0  0  0  0  0  0
   58.7650   32.6600   45.6720 C   0  0  0  0  0  0  0  0  0  0  0  0
   58.2140   31.4440   45.3410 N   0  0  0  0  0  0  0  0  0  0  0  0
   57.0600   31.4190   44.4130 C   0  0  0  0  0  0  0  0  0  0  0  0
   58.5780   30.3080   46.0310 C   0  0  0  0  0  0  0  0  0  0  0  0
   59.1090   30.4370   47.3450 C   0  0  0  0  0  0  0  0  0  0  0  0
   59.1150   29.2920   48.1790 C   0  0  0  0  0  0  0  0  0  0  0  0
   58.7280   28.0470   47.7000 C   0  0  0  0  0  0  0  0  0  0  0  0
   58.4370   27.8720   46.3510 C   0  0  0  0  0  0  0  0  0  0  0  0
   58.2210   26.5800   45.8460 C   0  0  0  0  0  0  0  0  0  0  0  0
   58.0630   26.3790   44.4760 C   0  0  0  0  0  0  0  0  0  0  0  0
   58.1530   27.4590   43.6000 C   0  0  0  0  0  0  0  0  0  0  0  0
   58.3490   28.7510   44.0940 C   0  0  0  0  0  0  0  0  0  0  0  0
   58.4170   28.9940   45.4860 C   0  0  0  0  0  0  0  0  0  0  0  0
   62.0275   33.8172   46.3965 H   0  0  0  0  0  0  0  0  0  0  0  0
   63.4305   34.7331   45.7487 H   0  0  0  0  0  0  0  0  0  0  0  0
   63.4530   32.9369   45.7487 H   0  0  0  0  0  0  0  0  0  0  0  0
   64.7703   33.4111   47.6097 H   0  0  0  0  0  0  0  0  0  0  0  0
   63.7697   34.8849   48.0296 H   0  0  0  0  0  0  0  0  0  0  0  0
   63.1622   34.3728   50.3412 H   0  0  0  0  0  0  0  0  0  0  0  0
   62.8612   32.5992   50.7225 H   0  0  0  0  0  0  0  0  0  0  0  0
   65.0540   33.0862   51.4926 H   0  0  0  0  0  0  0  0  0  0  0  0
   65.2238   32.1536   49.9668 H   0  0  0  0  0  0  0  0  0  0  0  0
   65.4838   33.9310   49.9668 H   0  0  0  0  0  0  0  0  0  0  0  0
   62.5480   31.6173   47.2353 H   0  0  0  0  0  0  0  0  0  0  0  0
   63.6604   31.0783   48.5699 H   0  0  0  0  0  0  0  0  0  0  0  0
   61.3503   30.0490   48.6334 H   0  0  0  0  0  0  0  0  0  0  0  0
   61.8659   30.9601   50.1327 H   0  0  0  0  0  0  0  0  0  0  0  0
   59.7630   31.6600   49.8710 H   0  0  0  0  0  0  0  0  0  0  0  0
   60.5920   32.8530   49.1630 H   0  0  0  0  0  0  0  0  0  0  0  0
   60.5618   34.2305   48.1472 H   0  0  0  0  0  0  0  0  0  0  0  0
   60.2837   36.1505   46.6014 H   0  0  0  0  0  0  0  0  0  0  0  0
   59.0475   35.8708   44.4640 H   0  0  0  0  0  0  0  0  0  0  0  0
   58.0776   33.6670   43.8655 H   0  0  0  0  0  0  0  0  0  0  0  0
   56.1246   31.3987   44.9915 H   0  0  0  0  0  0  0  0  0  0  0  0
   57.0797   32.3178   43.7791 H   0  0  0  0  0  0  0  0  0  0  0  0
   57.1186   30.5219   43.7791 H   0  0  0  0  0  0  0  0  0  0  0  0
   59.4327   29.3909   49.2275 H   0  0  0  0  0  0  0  0  0  0  0  0
   58.6512   27.1947   48.3912 H   0  0  0  0  0  0  0  0  0  0  0  0
   58.1763   25.7231   46.5343 H   0  0  0  0  0  0  0  0  0  0  0  0
   57.8675   25.3690   44.0866 H   0  0  0  0  0  0  0  0  0  0  0  0
   58.0694   27.2936   42.5157 H   0  0  0  0  0  0  0  0  0  0  0  0
   58.4519   29.5908   43.3910 H   0  0  0  0  0  0  0  0  0  0  0  0
  1  2  1  0
  2  3  1  0
  3  4  1  0
  4  5  1  0
  3  6  1  0
  6  7  1  0
  7  8  1  0
  8  9  1  0
  9 10  2  0
 10 11  1  0
 11 12  2  0
 12 13  1  0
 13 14  2  0
 14 15  1  0
 15 16  2  0
 16 17  1  0
 16 18  1  0
 18 19  2  0
 19 20  1  0
 20 21  2  0
 21 22  1  0
 22 23  2  0
 23 24  1  0
 24 25  2  0
 25 26  1  0
 26 27  2  0
 19  9  1  0
 27 22  1  0
 15 10  1  0
 27 18  1  0
  1 28  1  0
  1 29  1  0
  1 30  1  0
  2 31  1  0
  2 32  1  0
  4 33  1  0
  4 34  1  0
  5 35  1  0
  5 36  1  0
  5 37  1  0
  6 38  1  0
  6 39  1  0
  7 40  1  0
  7 41  1  0
  8 42  1  0
  8 43  1  0
 11 44  1  0
 12 45  1  0
 13 46  1  0
 14 47  1  0
 17 48  1  0
 17 49  1  0
 17 50  1  0
 20 51  1  0
 21 52  1  0
 23 53  1  0
 24 54  1  0
 25 55  1  0
 26 56  1  0
M  CHG  2   8   1  16   1
M  END
>  <UniqueID>  (24) 
24

>  <SMILES>  (24) 
CCN(CC)CC[NH2+]c1c2ccccc2[n+](C)c2c1ccc1ccccc12

>  <Energy>  (24) 
107.68320069082186

>  <Genealogy>  (24) 
CCN(CC)CC[NH2+]c1c2ccccc2[n+](C)c2c1ccc1ccccc12 (protonated)
CCN(CC)CC[NH2+]c1c2ccccc2[n+](C)c2c1ccc1ccccc12 (3D coordinates assigned)
CCN(CC)CC[NH2+]c1c2ccccc2[n+](C)c2c1ccc1ccccc12 (optimized conformer: 107.68320069082186 kcal/mol)

>  <smiles>  (24) 
CCN(CC)CCNc1c2ccccc2[n+](C)c2c1ccc1ccccc12

>  <score_type>  (24) 
oracle

>  <origin>  (24) 
adg

>  <m_score__min__energy>  (24) 
-5.1399999999999997

>  <m_primary>  (24) 
energy

$$$$
24:0
     RDKit          3D

 28 29  0  0  0  0  0  0  0  0999 V2000
   56.4360   30.0170   42.8250 C   0  0  0  0  0  0  0  0  0  0  0  0
   55.9850   29.3400   44.4530 S   0  0  0  0  0  0  0  0  0  0  0  0
   57.5540   29.7890   45.2080 C   0  0  0  0  0  0  0  0  0  0  0  0
   58.4830   28.7900   45.5220 C   0  0  0  0  0  0  0  0  0  0  0  0
   59.6640   29.1180   46.1070 N   0  0  0  0  0  0  0  0  0  0  0  0
   59.9430   30.4160   46.3780 C   0  0  0  0  0  0  0  0  0  0  0  0
   61.3390   30.9600   47.1220 S   0  0  0  0  0  0  0  0  0  0  0  0
   60.8460   32.5670   47.0690 C   0  0  0  0  0  0  0  0  0  0  0  0
   59.5920   32.6500   46.4430 C   0  0  0  0  0  0  0  0  0  0  0  0
   58.8630   33.9790   46.2710 C   0  0  0  0  0  0  0  0  0  0  0  0
   59.0810   34.6090   44.8860 C   0  0  0  0  0  0  0  0  0  0  0  0
   59.2880   34.9580   47.3710 C   0  0  0  0  0  0  0  0  0  0  0  0
   59.0800   31.4210   46.0800 N   0  0  0  0  0  0  0  0  0  0  0  0
   57.8660   31.1250   45.5080 C   0  0  0  0  0  0  0  0  0  0  0  0
   57.0180   32.0230   45.2550 O   0  0  0  0  0  0  0  0  0  0  0  0
   57.0412   30.9255   42.9606 H   0  0  0  0  0  0  0  0  0  0  0  0
   57.0172   29.2694   42.2652 H   0  0  0  0  0  0  0  0  0  0  0  0
   55.5222   30.2653   42.2652 H   0  0  0  0  0  0  0  0  0  0  0  0
   58.2562   27.7379   45.2946 H   0  0  0  0  0  0  0  0  0  0  0  0
   60.3490   28.3680   46.3500 H   0  0  0  0  0  0  0  0  0  0  0  0
   61.4172   33.4203   47.4634 H   0  0  0  0  0  0  0  0  0  0  0  0
   57.7871   33.7662   46.3557 H   0  0  0  0  0  0  0  0  0  0  0  0
   59.4386   35.6424   45.0054 H   0  0  0  0  0  0  0  0  0  0  0  0
   59.8290   34.0240   44.3307 H   0  0  0  0  0  0  0  0  0  0  0  0
   58.1314   34.6114   44.3307 H   0  0  0  0  0  0  0  0  0  0  0  0
   59.0933   34.5094   48.3563 H   0  0  0  0  0  0  0  0  0  0  0  0
   60.3617   35.1759   47.2731 H   0  0  0  0  0  0  0  0  0  0  0  0
   58.7140   35.8912   47.2731 H   0  0  0  0  0  0  0  0  0  0  0  0
  1  2  1  0
  2  3  1  0
  3  4  2  0
  4  5  1  0
  5  6  2  0
  6  7  1  0
  7  8  1  0
  8  9  2  0
  9 10  1  0
 10 11  1  0
 10 12  1  0
  9 13  1  0
 13 14  1  0
 14 15  2  0
 14  3  1  0
 13  6  1  0
  1 16  1  0
  1 17  1  0
  1 18  1  0
  4 19  1  0
  5 20  1  0
  8 21  1  0
 10 22  1  0
 11 23  1  0
 11 24  1  0
 11 25  1  0
 12 26  1  0
 12 27  1  0
 12 28  1  0
M  CHG  1   5   1
M  END
>  <UniqueID>  (25) 
25

>  <SMILES>  (25) 
CSc1c[nH+]c2scc(C(C)C)n2c1=O

>  <Energy>  (25) 
59.66914867645564

>  <Genealogy>  (25) 
CSc1c[nH+]c2scc(C(C)C)n2c1=O (protonated)
CSc1c[nH+]c2scc(C(C)C)n2c1=O (3D coordinates assigned)
CSc1c[nH+]c2scc(C(C)C)n2c1=O (optimized conformer: 59.66914867645564 kcal/mol)

>  <smiles>  (25) 
CSc1cnc2scc(C(C)C)n2c1=O

>  <score_type>  (25) 
oracle

>  <origin>  (25) 
adg

>  <m_score__min__energy>  (25) 
-4.3799999999999999

>  <m_primary>  (25) 
energy

$$$$
25:0
     RDKit          3D

 53 56  0  0  0  0  0  0  0  0999 V2000
   59.5070   35.2650   45.0860 O   0  0  0  0  0  0  0  0  0  0  0  0
   58.8870   34.2130   45.4170 C   0  0  0  0  0  0  0  0  0  0  0  0
   57.7940   33.6920   44.5040 C   0  0  0  0  0  0  0  0  0  0  0  0
   58.3230   33.0850   43.1940 C   0  0  0  0  0  0  0  0  0  0  0  0
   57.4130   31.9660   42.6670 C   0  0  0  0  0  0  0  0  0  0  0  0
   57.2830   30.8780   43.6840 C   0  0  0  0  0  0  0  0  0  0  0  0
   58.1570   29.8660   43.8310 N   0  0  0  0  0  0  0  0  0  0  0  0
   57.6100   29.1460   44.8300 C   0  0  0  0  0  0  0  0  0  0  0  0
   58.1540   27.8710   45.3490 C   0  0  0  0  0  0  0  0  0  0  0  0
   57.3820   26.7030   45.2060 C   0  0  0  0  0  0  0  0  0  0  0  0
   57.8670   25.4730   45.6580 C   0  0  0  0  0  0  0  0  0  0  0  0
   59.1200   25.3950   46.2670 C   0  0  0  0  0  0  0  0  0  0  0  0
   59.8870   26.5490   46.4380 C   0  0  0  0  0  0  0  0  0  0  0  0
   59.4140   27.7890   45.9880 C   0  0  0  0  0  0  0  0  0  0  0  0
   60.3910   29.2130   46.3350 Cl  0  0  0  0  0  0  0  0  0  0  0  0
   56.4490   29.6900   45.2530 N   0  0  0  0  0  0  0  0  0  0  0  0
   56.2850   30.7580   44.5260 O   0  0  0  0  0  0  0  0  0  0  0  0
   59.1730   33.5840   46.6900 N   0  0  0  0  0  0  0  0  0  0  0  0
   58.4600   32.3610   47.0990 C   0  0  0  0  0  0  0  0  0  0  0  0
   58.9250   31.8430   48.4670 C   0  0  0  0  0  0  0  0  0  0  0  0
   59.0370   32.9470   49.4330 N   0  0  0  0  0  0  0  0  0  0  0  0
   58.7420   32.7250   50.8290 C   0  0  0  0  0  0  0  0  0  0  0  0
   59.1440   33.6580   51.8050 C   0  0  0  0  0  0  0  0  0  0  0  0
   58.8460   33.4460   53.1540 C   0  0  0  0  0  0  0  0  0  0  0  0
   58.1460   32.3030   53.5460 C   0  0  0  0  0  0  0  0  0  0  0  0
   57.7420   31.3690   52.5890 C   0  0  0  0  0  0  0  0  0  0  0  0
   58.0350   31.5770   51.2380 C   0  0  0  0  0  0  0  0  0  0  0  0
   59.6310   34.2290   49.0150 C   0  0  0  0  0  0  0  0  0  0  0  0
   60.1860   34.1540   47.5910 C   0  0  0  0  0  0  0  0  0  0  0  0
   57.2303   32.9168   45.0437 H   0  0  0  0  0  0  0  0  0  0  0  0
   57.1655   34.5522   44.2301 H   0  0  0  0  0  0  0  0  0  0  0  0
   58.3851   33.8787   42.4350 H   0  0  0  0  0  0  0  0  0  0  0  0
   59.3123   32.6494   43.3978 H   0  0  0  0  0  0  0  0  0  0  0  0
   56.4174   32.3804   42.4502 H   0  0  0  0  0  0  0  0  0  0  0  0
   57.8557   31.5475   41.7511 H   0  0  0  0  0  0  0  0  0  0  0  0
   59.0120   29.6690   43.2640 H   0  0  0  0  0  0  0  0  0  0  0  0
   56.3895   26.7588   44.7350 H   0  0  0  0  0  0  0  0  0  0  0  0
   57.2598   24.5643   45.5335 H   0  0  0  0  0  0  0  0  0  0  0  0
   59.5037   24.4237   46.6126 H   0  0  0  0  0  0  0  0  0  0  0  0
   60.8691   26.4844   46.9292 H   0  0  0  0  0  0  0  0  0  0  0  0
   57.3834   32.5805   47.1516 H   0  0  0  0  0  0  0  0  0  0  0  0
   58.6762   31.5814   46.3537 H   0  0  0  0  0  0  0  0  0  0  0  0
   58.1964   31.1088   48.8413 H   0  0  0  0  0  0  0  0  0  0  0  0
   59.9138   31.3755   48.3496 H   0  0  0  0  0  0  0  0  0  0  0  0
   59.6965   34.5600   51.5032 H   0  0  0  0  0  0  0  0  0  0  0  0
   59.1635   34.1809   53.9084 H   0  0  0  0  0  0  0  0  0  0  0  0
   57.9128   32.1381   54.6083 H   0  0  0  0  0  0  0  0  0  0  0  0
   57.1922   30.4681   52.8991 H   0  0  0  0  0  0  0  0  0  0  0  0
   57.7113   30.8392   50.4891 H   0  0  0  0  0  0  0  0  0  0  0  0
   58.8584   35.0109   49.0565 H   0  0  0  0  0  0  0  0  0  0  0  0
   60.4622   34.4620   49.6968 H   0  0  0  0  0  0  0  0  0  0  0  0
   60.4512   35.1652   47.2489 H   0  0  0  0  0  0  0  0  0  0  0  0
   61.0801   33.5133   47.5833 H   0  0  0  0  0  0  0  0  0  0  0  0
  1  2  2  0
  2  3  1  0
  3  4  1  0
  4  5  1  0
  5  6  1  0
  6  7  2  0
  7  8  1  0
  8  9  1  0
  9 10  2  0
 10 11  1  0
 11 12  2  0
 12 13  1  0
 13 14  2  0
 14 15  1  0
  8 16  2  0
 16 17  1  0
  2 18  1  0
 18 19  1  0
 19 20  1  0
 20 21  1  0
 21 22  1  0
 22 23  2  0
 23 24  1  0
 24 25  2  0
 25 26  1  0
 26 27  2  0
 21 28  1  0
 28 29  1  0
 17  6  1  0
 29 18  1  0
 14  9  1  0
 27 22  1  0
  3 30  1  0
  3 31  1  0
  4 32  1  0
  4 33  1  0
  5 34  1  0
  5 35  1  0
  7 36  1  0
 10 37  1  0
 11 38  1  0
 12 39  1  0
 13 40  1  0
 19 41  1  0
 19 42  1  0
 20 43  1  0
 20 44  1  0
 23 45  1  0
 24 46  1  0
 25 47  1  0
 26 48  1  0
 27 49  1  0
 28 50  1  0
 28 51  1  0
 29 52  1  0
 29 53  1  0
M  CHG  1   7   1
M  END
>  <UniqueID>  (26) 
26

>  <SMILES>  (26) 
O=C(CCCc1[nH+]c(-c2ccccc2Cl)no1)N1CCN(c2ccccc2)CC1

>  <Energy>  (26) 
96.99313023668596

>  <Genealogy>  (26) 
O=C(CCCc1[nH+]c(-c2ccccc2Cl)no1)N1CCN(c2ccccc2)CC1 (protonated)
O=C(CCCc1[nH+]c(-c2ccccc2Cl)no1)N1CCN(c2ccccc2)CC1 (3D coordinates assigned)
O=C(CCCc1[nH+]c(-c2ccccc2Cl)no1)N1CCN(c2ccccc2)CC1 (nonaromatic ring conformer: 96.99313023668596 kcal/mol)

>  <smiles>  (26) 
O=C(CCCc1nc(-c2ccccc2Cl)no1)N1CCN(c2ccccc2)CC1

>  <score_type>  (26) 
oracle

>  <origin>  (26) 
adg

>  <m_score__min__energy>  (26) 
-7.9199999999999999

>  <m_primary>  (26) 
energy

$$$$
26:0
     RDKit          3D

 68 73  0  0  1  0  0  0  0  0999 V2000
   59.0590   29.1510   47.8960 C   0  0  0  0  0  0  0  0  0  0  0  0
   58.1470   29.6110   46.9070 O   0  0  0  0  0  0  0  0  0  0  0  0
   58.3400   30.8560   46.3710 C   0  0  0  0  0  0  0  0  0  0  0  0
   58.7850   31.9580   47.1280 C   0  0  0  0  0  0  0  0  0  0  0  0
   58.9480   33.1580   46.5020 C   0  0  0  0  0  0  0  0  0  0  0  0
   59.3800   34.2480   47.2140 C   0  0  0  0  0  0  0  0  0  0  0  0
   59.6970   34.2150   48.4030 N   0  0  0  0  0  0  0  0  0  0  0  0
   60.7790   33.7220   49.0570 C   0  0  0  0  0  0  0  0  0  0  0  0
   60.8120   33.5140   50.4610 C   0  0  0  0  0  0  0  0  0  0  0  0
   59.3330   33.7750   51.3910 Cl  0  0  0  0  0  0  0  0  0  0  0  0
   61.9780   33.1180   51.0800 C   0  0  0  0  0  0  0  0  0  0  0  0
   63.1400   32.9150   50.3430 C   0  0  0  0  0  0  0  0  0  0  0  0
   63.1290   33.1130   48.9590 C   0  0  0  0  0  0  0  0  0  0  0  0
   61.9740   33.5090   48.3190 C   0  0  0  0  0  0  0  0  0  0  0  0
   62.2760   33.6190   46.9730 O   0  0  0  0  0  0  0  0  0  0  0  0
   63.6520   33.4820   46.7450 C   0  0  0  0  0  0  0  0  0  0  0  0
   64.1170   32.9890   47.9890 O   0  0  0  0  0  0  0  0  0  0  0  0
   59.5270   35.4420   46.5570 N   0  0  0  0  0  0  0  0  0  0  0  0
   59.2730   35.5990   45.2540 C   0  0  0  0  0  0  0  0  0  0  0  0
   58.8520   34.5400   44.5430 N   0  0  0  0  0  0  0  0  0  0  0  0
   58.7000   33.3540   45.1720 C   0  0  0  0  0  0  0  0  0  0  0  0
   58.2670   32.3010   44.4180 C   0  0  0  0  0  0  0  0  0  0  0  0
   58.1080   31.0940   45.0570 C   0  0  0  0  0  0  0  0  0  0  0  0
   57.6460   29.9500   44.2220 C   0  0  0  0  0  0  0  0  0  0  0  0
   56.7380   29.1540   44.9840 N   0  0  0  0  0  0  0  0  0  0  0  0
   57.0790   27.7440   44.9940 C   0  0  0  0  0  0  0  0  0  0  0  0
   56.6780   27.1060   46.3020 C   0  0  0  0  0  0  0  0  0  0  0  0
   56.8140   25.6010   46.1450 C   0  0  0  0  0  0  0  0  0  0  0  0
   58.0690   25.3010   45.5410 N   0  0  0  0  0  0  0  0  0  0  0  0
   58.5060   23.9870   45.8660 C   0  0  0  0  0  0  0  0  0  0  0  0
   57.8700   22.9250   45.0580 C   0  0  0  0  0  0  0  0  0  0  0  0
   57.4070   23.2370   43.7740 C   0  0  0  0  0  0  0  0  0  0  0  0
   56.8060   22.2610   42.9850 C   0  0  0  0  0  0  0  0  0  0  0  0
   56.6390   20.9780   43.4100 C   0  0  0  0  0  0  0  0  0  0  0  0
   57.0940   20.6580   44.6840 C   0  0  0  0  0  0  0  0  0  0  0  0
   57.6960   21.6270   45.4780 C   0  0  0  0  0  0  0  0  0  0  0  0
   59.0500   26.3330   45.5880 C   0  0  0  0  0  0  0  0  0  0  0  0
   58.5280   27.4930   44.7460 C   0  0  0  0  0  0  0  0  0  0  0  0
   58.6501   29.3573   48.8961 H   0  0  0  0  0  0  0  0  0  0  0  0
   59.2118   28.0680   47.7785 H   0  0  0  0  0  0  0  0  0  0  0  0
   60.0207   29.6718   47.7785 H   0  0  0  0  0  0  0  0  0  0  0  0
   58.9966   31.8522   48.2023 H   0  0  0  0  0  0  0  0  0  0  0  0
   61.9898   32.9608   52.1686 H   0  0  0  0  0  0  0  0  0  0  0  0
   64.0651   32.5995   50.8476 H   0  0  0  0  0  0  0  0  0  0  0  0
   63.8520   32.7670   45.9333 H   0  0  0  0  0  0  0  0  0  0  0  0
   64.1413   34.4157   46.4308 H   0  0  0  0  0  0  0  0  0  0  0  0
   59.8540   36.3010   47.0690 H   0  0  0  0  0  0  0  0  0  0  0  0
   59.4065   36.5788   44.7722 H   0  0  0  0  0  0  0  0  0  0  0  0
   58.0544   32.4137   43.3446 H   0  0  0  0  0  0  0  0  0  0  0  0
   57.1380   30.3308   43.3237 H   0  0  0  0  0  0  0  0  0  0  0  0
   58.5093   29.3399   43.9178 H   0  0  0  0  0  0  0  0  0  0  0  0
   56.7940   29.4670   45.9770 H   0  0  0  0  0  0  0  0  0  0  0  0
   56.5164   27.2888   44.1656 H   0  0  0  0  0  0  0  0  0  0  0  0
   57.3374   27.4593   47.1084 H   0  0  0  0  0  0  0  0  0  0  0  0
   55.6424   27.3737   46.5588 H   0  0  0  0  0  0  0  0  0  0  0  0
   56.7585   25.1221   47.1337 H   0  0  0  0  0  0  0  0  0  0  0  0
   55.9999   25.2222   45.5096 H   0  0  0  0  0  0  0  0  0  0  0  0
   59.5937   23.9357   45.7101 H   0  0  0  0  0  0  0  0  0  0  0  0
   58.2191   23.8058   46.9124 H   0  0  0  0  0  0  0  0  0  0  0  0
   57.5191   24.2603   43.3864 H   0  0  0  0  0  0  0  0  0  0  0  0
   56.4525   22.5361   41.9803 H   0  0  0  0  0  0  0  0  0  0  0  0
   56.1615   20.2225   42.7687 H   0  0  0  0  0  0  0  0  0  0  0  0
   56.9770   19.6329   45.0655 H   0  0  0  0  0  0  0  0  0  0  0  0
   58.0470   21.3447   46.4815 H   0  0  0  0  0  0  0  0  0  0  0  0
   59.2024   26.6606   46.6270 H   0  0  0  0  0  0  0  0  0  0  0  0
   60.0139   25.9724   45.1996 H   0  0  0  0  0  0  0  0  0  0  0  0
   59.0957   28.4008   44.9983 H   0  0  0  0  0  0  0  0  0  0  0  0
   58.6549   27.2319   43.6850 H   0  0  0  0  0  0  0  0  0  0  0  0
  1  2  1  0
  2  3  1  0
  3  4  2  0
  4  5  1  0
  5  6  1  0
  6  7  2  0
  7  8  1  0
  8  9  2  0
  9 10  1  0
  9 11  1  0
 11 12  2  0
 12 13  1  0
 13 14  2  0
 14 15  1  0
 15 16  1  0
 16 17  1  0
  6 18  1  0
 18 19  1  0
 19 20  2  0
 20 21  1  0
 21 22  1  0
 22 23  2  0
 23 24  1  0
 24 25  1  0
 25 26  1  0
 26 27  1  0
 27 28  1  0
 28 29  1  0
 29 30  1  0
 30 31  1  0
 31 32  2  0
 32 33  1  0
 33 34  2  0
 34 35  1  0
 35 36  2  0
 29 37  1  0
 37 38  1  0
 23  3  1  0
 38 26  1  0
 21  5  2  0
 36 31  1  0
 14  8  1  0
 17 13  1  0
  1 39  1  0
  1 40  1  0
  1 41  1  0
  4 42  1  0
 11 43  1  0
 12 44  1  0
 16 45  1  0
 16 46  1  0
 18 47  1  0
 19 48  1  0
 22 49  1  0
 24 50  1  0
 24 51  1  0
 25 52  1  0
 26 53  1  0
 27 54  1  0
 27 55  1  0
 28 56  1  0
 28 57  1  0
 30 58  1  0
 30 59  1  0
 32 60  1  0
 33 61  1  0
 34 62  1  0
 35 63  1  0
 36 64  1  0
 37 65  1  0
 37 66  1  0
 38 67  1  0
 38 68  1  0
M  END
>  <smiles>  (27) 
COc1cc2c(=Nc3c(Cl)ccc4c3OCO4)[nH]cnc2cc1CNC1CCN(Cc2ccccc2)CC1

>  <score_type>  (27) 
oracle

>  <origin>  (27) 
adg

>  <m_score__min__energy>  (27) 
-11.130000000000001

>  <m_primary>  (27) 
energy

$$$$
27:0
     RDKit          3D

 70 74  0  0  0  0  0  0  0  0999 V2000
   59.8867   33.6000   51.8710 H   0  0  0  0  0  0  0  0  0  0  0  0
   60.2120   33.6400   50.8210 C   0  0  0  0  0  0  0  0  0  0  0  0
   59.2910   33.7590   49.8330 N   0  0  0  0  0  0  0  0  0  0  0  0
   59.6480   33.8060   48.5210 C   0  0  0  0  0  0  0  0  0  0  0  0
   58.6590   33.9180   47.5380 C   0  0  0  0  0  0  0  0  0  0  0  0
   57.6005   33.9827   47.8303 H   0  0  0  0  0  0  0  0  0  0  0  0
   59.0120   33.9480   46.1820 C   0  0  0  0  0  0  0  0  0  0  0  0
   57.7660   34.0680   44.9550 Cl  0  0  0  0  0  0  0  0  0  0  0  0
   60.3530   33.8830   45.8080 C   0  0  0  0  0  0  0  0  0  0  0  0
   60.6263   33.9105   44.7428 H   0  0  0  0  0  0  0  0  0  0  0  0
   61.3530   33.7830   46.7810 C   0  0  0  0  0  0  0  0  0  0  0  0
   62.4090   33.7353   46.4768 H   0  0  0  0  0  0  0  0  0  0  0  0
   61.0150   33.7430   48.1510 C   0  0  0  0  0  0  0  0  0  0  0  0
   61.9980   33.6300   49.1640 C   0  0  0  0  0  0  0  0  0  0  0  0
   63.2640   33.6040   48.8300 N   0  0  0  0  0  0  0  0  0  0  0  0
   64.2380   32.5270   49.0250 C   0  0  0  0  0  0  0  0  0  0  0  0
   64.5223   32.1130   48.0464 H   0  0  0  0  0  0  0  0  0  0  0  0
   63.7844   31.7422   49.6481 H   0  0  0  0  0  0  0  0  0  0  0  0
   65.4870   33.0630   49.7290 C   0  0  0  0  0  0  0  0  0  0  0  0
   65.4529   34.1624   49.7409 H   0  0  0  0  0  0  0  0  0  0  0  0
   66.3791   32.7189   49.1852 H   0  0  0  0  0  0  0  0  0  0  0  0
   65.5490   32.5610   51.1220 N   0  0  0  0  0  0  0  0  0  0  0  0
   66.6650   31.6060   51.3460 C   0  0  0  0  0  0  0  0  0  0  0  0
   67.0802   31.7761   52.3503 H   0  0  0  0  0  0  0  0  0  0  0  0
   67.4197   31.7806   50.5650 H   0  0  0  0  0  0  0  0  0  0  0  0
   66.2090   30.1430   51.2410 C   0  0  0  0  0  0  0  0  0  0  0  0
   67.0416   29.4855   51.5315 H   0  0  0  0  0  0  0  0  0  0  0  0
   65.9046   29.9457   50.2025 H   0  0  0  0  0  0  0  0  0  0  0  0
   65.0580   29.8810   52.1240 N   0  0  0  0  0  0  0  0  0  0  0  0
   64.6740   28.5120   52.4080 C   0  0  0  0  0  0  0  0  0  0  0  0
   65.2670   27.5660   51.8230 O   0  0  0  0  0  0  0  0  0  0  0  0
   63.5290   28.2000   53.3420 C   0  0  0  0  0  0  0  0  0  0  0  0
   63.8119   28.5225   54.3549 H   0  0  0  0  0  0  0  0  0  0  0  0
   63.3514   27.1165   53.2748 H   0  0  0  0  0  0  0  0  0  0  0  0
   62.2580   28.8630   52.9820 N   0  0  0  0  0  0  0  0  0  0  0  0
   61.5220   28.5420   53.6530 H   0  0  0  0  0  0  0  0  0  0  0  0
   62.3740   29.8930   53.1260 H   0  0  0  0  0  0  0  0  0  0  0  0
   61.7610   28.6010   51.6420 C   0  0  0  0  0  0  0  0  0  0  0  0
   61.4350   27.3010   51.2040 C   0  0  0  0  0  0  0  0  0  0  0  0
   61.6949   26.4345   51.8298 H   0  0  0  0  0  0  0  0  0  0  0  0
   60.7840   27.1020   49.9810 C   0  0  0  0  0  0  0  0  0  0  0  0
   60.5773   26.0779   49.6368 H   0  0  0  0  0  0  0  0  0  0  0  0
   60.3900   28.1950   49.1850 C   0  0  0  0  0  0  0  0  0  0  0  0
   59.6520   28.0000   47.9920 C   0  0  0  0  0  0  0  0  0  0  0  0
   59.3430   26.6750   47.6230 O   0  0  0  0  0  0  0  0  0  0  0  0
   59.6000   26.0690   46.3600 C   0  0  0  0  0  0  0  0  0  0  0  0
   60.0252   25.0663   46.5142 H   0  0  0  0  0  0  0  0  0  0  0  0
   58.6598   25.9857   45.7952 H   0  0  0  0  0  0  0  0  0  0  0  0
   60.3135   26.6870   45.7952 H   0  0  0  0  0  0  0  0  0  0  0  0
   59.2420   29.1290   47.2320 C   0  0  0  0  0  0  0  0  0  0  0  0
   58.5160   28.9510   46.0430 O   0  0  0  0  0  0  0  0  0  0  0  0
   58.6990   29.7130   44.8530 C   0  0  0  0  0  0  0  0  0  0  0  0
   58.9484   30.7513   45.1172 H   0  0  0  0  0  0  0  0  0  0  0  0
   59.5183   29.2783   44.2616 H   0  0  0  0  0  0  0  0  0  0  0  0
   57.7717   29.6977   44.2616 H   0  0  0  0  0  0  0  0  0  0  0  0
   59.5700   30.4220   47.6870 C   0  0  0  0  0  0  0  0  0  0  0  0
   59.2520   31.2994   47.1048 H   0  0  0  0  0  0  0  0  0  0  0  0
   60.2920   30.6030   48.8650 C   0  0  0  0  0  0  0  0  0  0  0  0
   60.5406   31.6201   49.2021 H   0  0  0  0  0  0  0  0  0  0  0  0
   60.7030   29.5010   49.6220 C   0  0  0  0  0  0  0  0  0  0  0  0
   61.3870   29.6920   50.8340 C   0  0  0  0  0  0  0  0  0  0  0  0
   61.6352   30.7134   51.1581 H   0  0  0  0  0  0  0  0  0  0  0  0
   64.3330   31.0270   52.6950 C   0  0  0  0  0  0  0  0  0  0  0  0
   64.8783   31.4095   53.5704 H   0  0  0  0  0  0  0  0  0  0  0  0
   63.3261   30.7123   53.0066 H   0  0  0  0  0  0  0  0  0  0  0  0
   64.2270   32.1260   51.6360 C   0  0  0  0  0  0  0  0  0  0  0  0
   63.7202   32.9949   52.0812 H   0  0  0  0  0  0  0  0  0  0  0  0
   63.6619   31.7135   50.7872 H   0  0  0  0  0  0  0  0  0  0  0  0
   61.5730   33.5680   50.5110 C   0  0  0  0  0  0  0  0  0  0  0  0
   62.3147   33.4629   51.3165 H   0  0  0  0  0  0  0  0  0  0  0  0
  1  2  1  0
  2  3  1  0
  3  4  1  0
  4  5  2  0
  5  6  1  0
  5  7  1  0
  7  8  1  0
  7  9  2  0
  9 10  1  0
  9 11  1  0
 11 12  1  0
 11 13  2  0
 13 14  1  0
 14 15  2  0
 15 16  1  0
 16 17  1  0
 16 18  1  0
 16 19  1  0
 19 20  1  0
 19 21  1  0
 19 22  1  0
 22 23  1  0
 23 24  1  0
 23 25  1  0
 23 26  1  0
 26 27  1  0
 26 28  1  0
 26 29  1  0
 29 30  1  0
 30 31  2  0
 30 32  1  0
 32 33  1  0
 32 34  1  0
 32 35  1  0
 35 36  1  0
 35 37  1  0
 35 38  1  0
 38 39  2  0
 39 40  1  0
 39 41  1  0
 41 42  1  0
 41 43  2  0
 43 44  1  0
 44 45  1  0
 45 46  1  0
 46 47  1  0
 46 48  1  0
 46 49  1  0
 44 50  2  0
 50 51  1  0
 51 52  1  0
 52 53  1  0
 52 54  1  0
 52 55  1  0
 50 56  1  0
 56 57  1  0
 56 58  2  0
 58 59  1  0
 58 60  1  0
 60 61  2  0
 61 62  1  0
 29 63  1  0
 63 64  1  0
 63 65  1  0
 63 66  1  0
 66 67  1  0
 66 68  1  0
 14 69  1  0
 69 70  1  0
 69  2  2  0
 13  4  1  0
 66 22  1  0
 61 38  1  0
 60 43  1  0
M  CHG  2   3  -1  35   1
M  END
>  <UniqueID>  (28) 
27

>  <SMILES>  (28) 
COc1ccc2cc([NH2+]CC(=O)N3CCN(CC/N=c4\cc[n-]c5cc(Cl)ccc45)CC3)ccc2c1OC

>  <Energy>  (28) 
105.00489308005486

>  <Genealogy>  (28) 
COc1ccc2cc([NH2+]CC(=O)N3CCN(CCN=c4cc[n-]c5cc(Cl)ccc45)CC3)ccc2c1OC (protonated)
COc1ccc2cc([NH2+]CC(=O)N3CCN(CC/N=c4\cc[n-]c5cc(Cl)ccc45)CC3)ccc2c1OC (cis-trans isomerization)
COc1ccc2cc([NH2+]CC(=O)N3CCN(CC/N=c4\cc[n-]c5cc(Cl)ccc45)CC3)ccc2c1OC (3D coordinates assigned)
COc1ccc2cc([NH2+]CC(=O)N3CCN(CC/N=c4\cc[n-]c5cc(Cl)ccc45)CC3)ccc2c1OC (nonaromatic ring conformer: 105.00489308005486 kcal/mol)

>  <smiles>  (28) 
COc1ccc2cc(NCC(=O)N3CCN(CCN=c4cc[nH]c5cc(Cl)ccc45)CC3)ccc2c1OC

>  <score_type>  (28) 
oracle

>  <origin>  (28) 
adg

>  <m_score__min__energy>  (28) 
-10.35

>  <m_primary>  (28) 
energy

$$$$
28:0
     RDKit          3D

 33 33  0  0  0  0  0  0  0  0999 V2000
   58.3740   32.6010   47.1560 C   0  0  0  0  0  0  0  0  0  0  0  0
   58.1580   31.2180   46.5380 C   0  0  0  0  0  0  0  0  0  0  0  0
   57.5010   31.2520   45.2140 N   0  0  0  0  0  0  0  0  0  0  0  0
   57.3960   32.5950   44.5910 C   0  0  0  0  0  0  0  0  0  0  0  0
   58.0490   32.7200   43.2070 C   0  0  0  0  0  0  0  0  0  0  0  0
   57.8560   30.1260   44.3240 C   0  0  0  0  0  0  0  0  0  0  0  0
   57.7530   28.8080   45.0570 C   0  0  0  0  0  0  0  0  0  0  0  0
   56.4920   28.2190   45.2550 C   0  0  0  0  0  0  0  0  0  0  0  0
   56.3650   27.0010   45.9480 C   0  0  0  0  0  0  0  0  0  0  0  0
   55.1170   26.3960   46.1720 O   0  0  0  0  0  0  0  0  0  0  0  0
   54.7150   25.1460   45.6210 C   0  0  0  0  0  0  0  0  0  0  0  0
   57.5170   26.3660   46.4320 C   0  0  0  0  0  0  0  0  0  0  0  0
   57.3910   24.7070   47.3790 Br  0  0  0  0  0  0  0  0  0  0  0  0
   58.7750   26.9350   46.2230 C   0  0  0  0  0  0  0  0  0  0  0  0
   58.9040   28.1460   45.5370 C   0  0  0  0  0  0  0  0  0  0  0  0
   60.6720   28.8410   45.2660 Br  0  0  0  0  0  0  0  0  0  0  0  0
   58.3611   32.5186   48.2528 H   0  0  0  0  0  0  0  0  0  0  0  0
   59.3455   33.0007   46.8297 H   0  0  0  0  0  0  0  0  0  0  0  0
   57.5707   33.2779   46.8297 H   0  0  0  0  0  0  0  0  0  0  0  0
   59.1380   30.7311   46.4264 H   0  0  0  0  0  0  0  0  0  0  0  0
   57.4882   30.6662   47.2139 H   0  0  0  0  0  0  0  0  0  0  0  0
   56.3289   32.8414   44.4885 H   0  0  0  0  0  0  0  0  0  0  0  0
   57.9413   33.2846   45.2521 H   0  0  0  0  0  0  0  0  0  0  0  0
   59.1231   32.9256   43.3256 H   0  0  0  0  0  0  0  0  0  0  0  0
   57.9147   31.7798   42.6520 H   0  0  0  0  0  0  0  0  0  0  0  0
   57.5770   33.5441   42.6520 H   0  0  0  0  0  0  0  0  0  0  0  0
   57.1692   30.1153   43.4648 H   0  0  0  0  0  0  0  0  0  0  0  0
   58.8935   30.2596   43.9838 H   0  0  0  0  0  0  0  0  0  0  0  0
   55.5928   28.7168   44.8630 H   0  0  0  0  0  0  0  0  0  0  0  0
   54.4886   24.4421   46.4354 H   0  0  0  0  0  0  0  0  0  0  0  0
   53.8179   25.2901   45.0010 H   0  0  0  0  0  0  0  0  0  0  0  0
   55.5279   24.7402   45.0010 H   0  0  0  0  0  0  0  0  0  0  0  0
   59.6731   26.4253   46.6019 H   0  0  0  0  0  0  0  0  0  0  0  0
  1  2  1  0
  2  3  1  0
  3  4  1  0
  4  5  1  0
  3  6  1  0
  6  7  1  0
  7  8  2  0
  8  9  1  0
  9 10  1  0
 10 11  1  0
  9 12  2  0
 12 13  1  0
 12 14  1  0
 14 15  2  0
 15 16  1  0
 15  7  1  0
  1 17  1  0
  1 18  1  0
  1 19  1  0
  2 20  1  0
  2 21  1  0
  4 22  1  0
  4 23  1  0
  5 24  1  0
  5 25  1  0
  5 26  1  0
  6 27  1  0
  6 28  1  0
  8 29  1  0
 11 30  1  0
 11 31  1  0
 11 32  1  0
 14 33  1  0
M  END
>  <UniqueID>  (29) 
28

>  <SMILES>  (29) 
CCN(CC)Cc1cc(OC)c(Br)cc1Br

>  <Energy>  (29) 
36.86342415902786

>  <Genealogy>  (29) 
CCN(CC)Cc1cc(OC)c(Br)cc1Br (3D coordinates assigned)
CCN(CC)Cc1cc(OC)c(Br)cc1Br (optimized conformer: 36.86342415902786 kcal/mol)

>  <smiles>  (29) 
CCN(CC)Cc1cc(OC)c(Br)cc1Br

>  <score_type>  (29) 
oracle

>  <origin>  (29) 
adg

>  <m_score__min__energy>  (29) 
-6.0800000000000001

>  <m_primary>  (29) 
energy

$$$$
29:0
     RDKit          3D

 41 43  0  0  0  0  0  0  0  0999 V2000
   57.6563   32.7518   41.6996 H   0  0  0  0  0  0  0  0  0  0  0  0
   57.5820   32.0630   42.5540 C   0  0  0  0  0  0  0  0  0  0  0  0
   56.9590   30.8250   42.3980 C   0  0  0  0  0  0  0  0  0  0  0  0
   56.5489   30.5361   41.4190 H   0  0  0  0  0  0  0  0  0  0  0  0
   56.8550   29.9520   43.4820 C   0  0  0  0  0  0  0  0  0  0  0  0
   56.3678   28.9744   43.3515 H   0  0  0  0  0  0  0  0  0  0  0  0
   57.3690   30.3140   44.7400 C   0  0  0  0  0  0  0  0  0  0  0  0
   57.2760   29.3490   45.8890 C   0  0  0  0  0  0  0  0  0  0  0  0
   58.2611   28.8931   46.0669 H   0  0  0  0  0  0  0  0  0  0  0  0
   56.9534   29.8835   46.7947 H   0  0  0  0  0  0  0  0  0  0  0  0
   56.3060   28.3050   45.5640 N   0  0  0  0  0  0  0  0  0  0  0  0
   56.5120   27.0200   45.6150 C   0  0  0  0  0  0  0  0  0  0  0  0
   55.5020   26.2130   46.0290 N   0  0  0  0  0  0  0  0  0  0  0  0
   55.6410   24.8880   46.1030 N   0  0  0  0  0  0  0  0  0  0  0  0
   56.8040   24.2660   45.7690 C   0  0  0  0  0  0  0  0  0  0  0  0
   56.9150   22.7880   45.8580 C   0  0  0  0  0  0  0  0  0  0  0  0
   55.8110   21.7830   46.6540 S   0  0  0  0  0  0  0  0  0  0  0  0
   56.6480   20.3710   46.3080 C   0  0  0  0  0  0  0  0  0  0  0  0
   56.1890   18.9980   46.6660 C   0  0  0  0  0  0  0  0  0  0  0  0
   56.1551   18.8965   47.7608 H   0  0  0  0  0  0  0  0  0  0  0  0
   55.1849   18.8271   46.2506 H   0  0  0  0  0  0  0  0  0  0  0  0
   56.8885   18.2576   46.2506 H   0  0  0  0  0  0  0  0  0  0  0  0
   57.7500   20.6330   45.5720 N   0  0  0  0  0  0  0  0  0  0  0  0
   58.3990   19.8880   45.2320 H   0  0  0  0  0  0  0  0  0  0  0  0
   57.9190   21.9620   45.3200 C   0  0  0  0  0  0  0  0  0  0  0  0
   59.0880   22.4550   44.5210 C   0  0  0  0  0  0  0  0  0  0  0  0
   59.8831   22.7903   45.2032 H   0  0  0  0  0  0  0  0  0  0  0  0
   59.4683   21.6406   43.8868 H   0  0  0  0  0  0  0  0  0  0  0  0
   58.7703   23.2957   43.8868 H   0  0  0  0  0  0  0  0  0  0  0  0
   57.8810   25.0510   45.3340 C   0  0  0  0  0  0  0  0  0  0  0  0
   58.8339   24.5770   45.0558 H   0  0  0  0  0  0  0  0  0  0  0  0
   57.7380   26.4340   45.2560 C   0  0  0  0  0  0  0  0  0  0  0  0
   58.5757   27.0612   44.9170 H   0  0  0  0  0  0  0  0  0  0  0  0
   58.0180   31.5580   44.8970 C   0  0  0  0  0  0  0  0  0  0  0  0
   58.5540   31.8900   46.1520 O   0  0  0  0  0  0  0  0  0  0  0  0
   59.8520   31.5110   46.6020 C   0  0  0  0  0  0  0  0  0  0  0  0
   59.8716   31.5053   47.7018 H   0  0  0  0  0  0  0  0  0  0  0  0
   60.0914   30.5054   46.2258 H   0  0  0  0  0  0  0  0  0  0  0  0
   60.5949   32.2297   46.2258 H   0  0  0  0  0  0  0  0  0  0  0  0
   58.1120   32.4300   43.7940 C   0  0  0  0  0  0  0  0  0  0  0  0
   58.6058   33.4061   43.9098 H   0  0  0  0  0  0  0  0  0  0  0  0
  1  2  1  0
  2  3  2  0
  3  4  1  0
  3  5  1  0
  5  6  1  0
  5  7  2  0
  7  8  1  0
  8  9  1  0
  8 10  1  0
  8 11  1  0
 11 12  2  0
 12 13  1  0
 13 14  1  0
 14 15  2  0
 15 16  1  0
 16 17  1  0
 17 18  1  0
 18 19  1  0
 19 20  1  0
 19 21  1  0
 19 22  1  0
 18 23  2  0
 23 24  1  0
 23 25  1  0
 25 26  1  0
 26 27  1  0
 26 28  1  0
 26 29  1  0
 15 30  1  0
 30 31  1  0
 30 32  2  0
 32 33  1  0
  7 34  1  0
 34 35  1  0
 35 36  1  0
 36 37  1  0
 36 38  1  0
 36 39  1  0
 34 40  2  0
 40 41  1  0
 40  2  1  0
 32 12  1  0
 25 16  2  0
M  CHG  2  13  -1  23   1
M  END
>  <UniqueID>  (30) 
29

>  <SMILES>  (30) 
COc1ccccc1C/N=c1\ccc(-c2sc(C)[nH+]c2C)n[n-]1

>  <Energy>  (30) 
73.98983213261448

>  <Genealogy>  (30) 
COc1ccccc1CN=c1ccc(-c2sc(C)[nH+]c2C)n[n-]1 (protonated)
COc1ccccc1C/N=c1\ccc(-c2sc(C)[nH+]c2C)n[n-]1 (cis-trans isomerization)
COc1ccccc1C/N=c1\ccc(-c2sc(C)[nH+]c2C)n[n-]1 (3D coordinates assigned)
COc1ccccc1C/N=c1\ccc(-c2sc(C)[nH+]c2C)n[n-]1 (optimized conformer: 73.98983213261448 kcal/mol)

>  <smiles>  (30) 
COc1ccccc1CN=c1ccc(-c2sc(C)nc2C)n[nH]1

>  <score_type>  (30) 
oracle

>  <origin>  (30) 
adg

>  <m_score__min__energy>  (30) 
-8.4499999999999993

>  <m_primary>  (30) 
energy

$$$$
30:0
     RDKit          3D

 52 55  0  0  0  0  0  0  0  0999 V2000
   64.9050   32.7970   49.7940 C   0  0  0  0  0  0  0  0  0  0  0  0
   63.6290   33.6060   49.5910 C   0  0  0  0  0  0  0  0  0  0  0  0
   62.8700   33.0610   48.4420 N   0  0  0  0  0  0  0  0  0  0  0  0
   63.0130   31.5980   48.2680 C   0  0  0  0  0  0  0  0  0  0  0  0
   61.9810   31.0550   47.2820 C   0  0  0  0  0  0  0  0  0  0  0  0
   63.0590   33.8270   47.1840 C   0  0  0  0  0  0  0  0  0  0  0  0
   61.7580   34.1850   46.4290 C   0  0  0  0  0  0  0  0  0  0  0  0
   60.6790   34.5670   47.3420 N   0  0  0  0  0  0  0  0  0  0  0  0
   59.8440   33.6040   48.0150 C   0  0  0  0  0  0  0  0  0  0  0  0
   59.9810   33.4560   49.3350 C   0  0  0  0  0  0  0  0  0  0  0  0
   59.2380   32.4940   50.1550 C   0  0  0  0  0  0  0  0  0  0  0  0
   58.8210   31.2880   49.7560 C   0  0  0  0  0  0  0  0  0  0  0  0
   58.9120   30.7110   48.3840 C   0  0  0  0  0  0  0  0  0  0  0  0
   59.1280   29.3180   48.2960 C   0  0  0  0  0  0  0  0  0  0  0  0
   59.5320   28.7570   49.3570 O   0  0  0  0  0  0  0  0  0  0  0  0
   58.9790   28.4900   47.1480 C   0  0  0  0  0  0  0  0  0  0  0  0
   59.6510   27.2370   47.1920 C   0  0  0  0  0  0  0  0  0  0  0  0
   59.4210   26.2390   46.2520 C   0  0  0  0  0  0  0  0  0  0  0  0
   58.5010   26.4430   45.2410 C   0  0  0  0  0  0  0  0  0  0  0  0
   57.8440   27.6630   45.1370 C   0  0  0  0  0  0  0  0  0  0  0  0
   58.0860   28.7300   46.0460 C   0  0  0  0  0  0  0  0  0  0  0  0
   57.4330   29.9480   45.7530 C   0  0  0  0  0  0  0  0  0  0  0  0
   56.3950   29.9420   44.8190 O   0  0  0  0  0  0  0  0  0  0  0  0
   57.8280   31.1960   46.2200 C   0  0  0  0  0  0  0  0  0  0  0  0
   57.4680   32.3870   45.6040 C   0  0  0  0  0  0  0  0  0  0  0  0
   58.1210   33.3890   46.2720 C   0  0  0  0  0  0  0  0  0  0  0  0
   58.8470   32.8720   47.2800 N   0  0  0  0  0  0  0  0  0  0  0  0
   58.6380   31.5330   47.2890 C   0  0  0  0  0  0  0  0  0  0  0  0
   65.0953   32.6764   50.8707 H   0  0  0  0  0  0  0  0  0  0  0  0
   64.7893   31.8069   49.3289 H   0  0  0  0  0  0  0  0  0  0  0  0
   65.7512   33.3240   49.3289 H   0  0  0  0  0  0  0  0  0  0  0  0
   63.0105   33.5473   50.4987 H   0  0  0  0  0  0  0  0  0  0  0  0
   63.8910   34.6552   49.3898 H   0  0  0  0  0  0  0  0  0  0  0  0
   64.0219   31.3789   47.8883 H   0  0  0  0  0  0  0  0  0  0  0  0
   62.8515   31.1142   49.2426 H   0  0  0  0  0  0  0  0  0  0  0  0
   61.1406   30.6128   47.8372 H   0  0  0  0  0  0  0  0  0  0  0  0
   61.6113   31.8754   46.6493 H   0  0  0  0  0  0  0  0  0  0  0  0
   62.4477   30.2857   46.6493 H   0  0  0  0  0  0  0  0  0  0  0  0
   63.5779   34.7649   47.4314 H   0  0  0  0  0  0  0  0  0  0  0  0
   63.6318   33.1720   46.5111 H   0  0  0  0  0  0  0  0  0  0  0  0
   61.9620   35.0256   45.7495 H   0  0  0  0  0  0  0  0  0  0  0  0
   61.4321   33.2931   45.8737 H   0  0  0  0  0  0  0  0  0  0  0  0
   60.6700   35.5600   47.6700 H   0  0  0  0  0  0  0  0  0  0  0  0
   60.7068   34.1055   49.8463 H   0  0  0  0  0  0  0  0  0  0  0  0
   59.0033   32.7902   51.1880 H   0  0  0  0  0  0  0  0  0  0  0  0
   58.3597   30.6509   50.5249 H   0  0  0  0  0  0  0  0  0  0  0  0
   60.3772   27.0515   47.9971 H   0  0  0  0  0  0  0  0  0  0  0  0
   59.9706   25.2881   46.3128 H   0  0  0  0  0  0  0  0  0  0  0  0
   58.2891   25.6403   44.5193 H   0  0  0  0  0  0  0  0  0  0  0  0
   57.1143   27.8081   44.3268 H   0  0  0  0  0  0  0  0  0  0  0  0
   56.7898   32.5035   44.7458 H   0  0  0  0  0  0  0  0  0  0  0  0
   58.0607   34.4584   46.0213 H   0  0  0  0  0  0  0  0  0  0  0  0
  1  2  1  0
  2  3  1  0
  3  4  1  0
  4  5  1  0
  3  6  1  0
  6  7  1  0
  7  8  1  0
  8  9  1  0
  9 10  2  0
 10 11  1  0
 11 12  2  0
 12 13  1  0
 13 14  1  0
 14 15  2  0
 14 16  1  0
 16 17  2  0
 17 18  1  0
 18 19  2  0
 19 20  1  0
 20 21  2  0
 21 22  1  0
 22 23  1  0
 22 24  2  0
 24 25  1  0
 25 26  2  0
 26 27  1  0
 27 28  1  0
 27  9  1  0
 28 13  2  0
 21 16  1  0
 28 24  1  0
  1 29  1  0
  1 30  1  0
  1 31  1  0
  2 32  1  0
  2 33  1  0
  4 34  1  0
  4 35  1  0
  5 36  1  0
  5 37  1  0
  5 38  1  0
  6 39  1  0
  6 40  1  0
  7 41  1  0
  7 42  1  0
  8 43  1  0
 10 44  1  0
 11 45  1  0
 12 46  1  0
 17 47  1  0
 18 48  1  0
 19 49  1  0
 20 50  1  0
 25 51  1  0
 26 52  1  0
M  CHG  1  23  -1
M  END
>  <UniqueID>  (31) 
30

>  <SMILES>  (31) 
CCN(CC)CCNC1=CC=Cc2c(=O)c3ccccc3c([O-])c3ccn1c23

>  <Energy>  (31) 
145.83365751571574

>  <Genealogy>  (31) 
CCN(CC)CCNC1=CC=Cc2c(=O)c3ccccc3c([O-])c3ccn1c23 (protonated)
CCN(CC)CCNC1=CC=Cc2c(=O)c3ccccc3c([O-])c3ccn1c23 (3D coordinates assigned)
CCN(CC)CCNC1=CC=Cc2c(=O)c3ccccc3c([O-])c3ccn1c23 (nonaromatic ring conformer: 145.83365751571574 kcal/mol)

>  <smiles>  (31) 
CCN(CC)CCNC1=CC=Cc2c(=O)c3ccccc3c(O)c3ccn1c23

>  <score_type>  (31) 
oracle

>  <origin>  (31) 
adg

>  <m_score__min__energy>  (31) 
-7.9900000000000002

>  <m_primary>  (31) 
energy

$$$$
31:0
     RDKit          3D

 48 51  0  0  0  0  0  0  0  0999 V2000
   58.9620   31.0720   47.7140 C   0  0  0  0  0  0  0  0  0  0  0  0
   59.8160   31.5080   46.5290 C   0  0  0  0  0  0  0  0  0  0  0  0
   59.6340   32.9410   46.2650 N   0  0  0  0  0  0  0  0  0  0  0  0
   60.3740   33.9650   46.7440 C   0  0  0  0  0  0  0  0  0  0  0  0
   61.4670   33.8660   47.7310 C   0  0  0  0  0  0  0  0  0  0  0  0
   62.7470   33.4660   47.3180 C   0  0  0  0  0  0  0  0  0  0  0  0
   63.7940   33.3900   48.2430 C   0  0  0  0  0  0  0  0  0  0  0  0
   63.5700   33.7230   49.5820 C   0  0  0  0  0  0  0  0  0  0  0  0
   64.5860   33.6520   50.4770 F   0  0  0  0  0  0  0  0  0  0  0  0
   62.3020   34.1390   49.9960 C   0  0  0  0  0  0  0  0  0  0  0  0
   61.2540   34.2160   49.0730 C   0  0  0  0  0  0  0  0  0  0  0  0
   59.9800   35.1240   46.1140 C   0  0  0  0  0  0  0  0  0  0  0  0
   58.9960   34.8450   45.2400 N   0  0  0  0  0  0  0  0  0  0  0  0
   58.8230   33.5080   45.3390 C   0  0  0  0  0  0  0  0  0  0  0  0
   57.8210   32.7580   44.5050 C   0  0  0  0  0  0  0  0  0  0  0  0
   58.4500   31.5520   43.9320 N   0  0  0  0  0  0  0  0  0  0  0  0
   57.5330   30.4090   43.7400 C   0  0  2  0  0  0  0  0  0  0  0  0
   56.0530   30.8380   43.8990 C   0  0  0  0  0  0  0  0  0  0  0  0
   55.1420   29.6110   43.9190 C   0  0  0  0  0  0  0  0  0  0  0  0
   55.5410   28.7250   44.9620 O   0  0  0  0  0  0  0  0  0  0  0  0
   56.8880   28.4440   45.2140 C   0  0  0  0  0  0  0  0  0  0  0  0
   57.2240   27.3780   46.0550 C   0  0  0  0  0  0  0  0  0  0  0  0
   58.5650   27.0580   46.2810 C   0  0  0  0  0  0  0  0  0  0  0  0
   59.5750   27.7960   45.6580 C   0  0  0  0  0  0  0  0  0  0  0  0
   59.2480   28.8690   44.8260 C   0  0  0  0  0  0  0  0  0  0  0  0
   57.9020   29.2300   44.6280 C   0  0  0  0  0  0  0  0  0  0  0  0
   59.4746   31.3337   48.6514 H   0  0  0  0  0  0  0  0  0  0  0  0
   57.9892   31.5838   47.6729 H   0  0  0  0  0  0  0  0  0  0  0  0
   58.8059   29.9839   47.6729 H   0  0  0  0  0  0  0  0  0  0  0  0
   60.8748   31.3128   46.7543 H   0  0  0  0  0  0  0  0  0  0  0  0
   59.5073   30.9398   45.6392 H   0  0  0  0  0  0  0  0  0  0  0  0
   62.9279   33.2113   46.2633 H   0  0  0  0  0  0  0  0  0  0  0  0
   64.7938   33.0681   47.9164 H   0  0  0  0  0  0  0  0  0  0  0  0
   62.1278   34.4062   51.0487 H   0  0  0  0  0  0  0  0  0  0  0  0
   60.2591   34.5522   49.4003 H   0  0  0  0  0  0  0  0  0  0  0  0
   60.4037   36.1225   46.2968 H   0  0  0  0  0  0  0  0  0  0  0  0
   56.9700   32.4614   45.1357 H   0  0  0  0  0  0  0  0  0  0  0  0
   57.4694   33.4067   43.6892 H   0  0  0  0  0  0  0  0  0  0  0  0
   58.8850   31.7960   43.0110 H   0  0  0  0  0  0  0  0  0  0  0  0
   57.6503   30.0593   42.7037 H   0  0  0  0  0  0  0  0  0  0  0  0
   55.9355   31.3921   44.8420 H   0  0  0  0  0  0  0  0  0  0  0  0
   55.7731   31.4765   43.0481 H   0  0  0  0  0  0  0  0  0  0  0  0
   54.1036   29.9310   44.0901 H   0  0  0  0  0  0  0  0  0  0  0  0
   55.2172   29.0894   42.9534 H   0  0  0  0  0  0  0  0  0  0  0  0
   56.4305   26.7902   46.5396 H   0  0  0  0  0  0  0  0  0  0  0  0
   58.8260   26.2246   46.9498 H   0  0  0  0  0  0  0  0  0  0  0  0
   60.6298   27.5312   45.8233 H   0  0  0  0  0  0  0  0  0  0  0  0
   60.0461   29.4347   44.3230 H   0  0  0  0  0  0  0  0  0  0  0  0
  1  2  1  0
  2  3  1  0
  3  4  1  0
  4  5  1  0
  5  6  2  0
  6  7  1  0
  7  8  2  0
  8  9  1  0
  8 10  1  0
 10 11  2  0
  4 12  2  0
 12 13  1  0
 13 14  2  0
 14 15  1  0
 15 16  1  0
 16 17  1  0
 17 18  1  0
 18 19  1  0
 19 20  1  0
 20 21  1  0
 21 22  2  0
 22 23  1  0
 23 24  2  0
 24 25  1  0
 25 26  2  0
 14  3  1  0
 26 17  1  0
 11  5  1  0
 26 21  1  0
  1 27  1  0
  1 28  1  0
  1 29  1  0
  2 30  1  0
  2 31  1  0
  6 32  1  0
  7 33  1  0
 10 34  1  0
 11 35  1  0
 12 36  1  0
 15 37  1  0
 15 38  1  0
 16 39  1  0
 17 40  1  6
 18 41  1  0
 18 42  1  0
 19 43  1  0
 19 44  1  0
 22 45  1  0
 23 46  1  0
 24 47  1  0
 25 48  1  0
M  END
>  <UniqueID>  (32) 
31

>  <SMILES>  (32) 
CCn1c(-c2ccc(F)cc2)cnc1CN[C@@H]1CCOc2ccccc21

>  <Energy>  (32) 
86.1340781788553

>  <Genealogy>  (32) 
CCn1c(-c2ccc(F)cc2)cnc1CN[C@@H]1CCOc2ccccc21 (chirality)
CCn1c(-c2ccc(F)cc2)cnc1CN[C@@H]1CCOc2ccccc21 (3D coordinates assigned)
CCn1c(-c2ccc(F)cc2)cnc1CN[C@@H]1CCOc2ccccc21 (nonaromatic ring conformer: 86.1340781788553 kcal/mol)

>  <smiles>  (32) 
CCn1c(-c2ccc(F)cc2)cnc1CNC1CCOc2ccccc21

>  <score_type>  (32) 
oracle

>  <origin>  (32) 
adg

>  <m_score__min__energy>  (32) 
-8.3399999999999999

>  <m_primary>  (32) 
energy

$$$$
32:0
     RDKit          3D

 43 44  0  0  0  0  0  0  0  0999 V2000
   56.3830   29.7190   42.6810 C   0  0  0  0  0  0  0  0  0  0  0  0
   56.5510   29.4000   44.1330 C   0  0  0  0  0  0  0  0  0  0  0  0
   55.5310   29.3870   44.8700 O   0  0  0  0  0  0  0  0  0  0  0  0
   57.8860   29.1380   44.7160 C   0  0  0  0  0  0  0  0  0  0  0  0
   58.7190   30.1360   45.2380 C   0  0  0  0  0  0  0  0  0  0  0  0
   58.4010   31.5250   45.3750 N   0  0  0  0  0  0  0  0  0  0  0  0
   58.0280   32.3510   44.2660 C   0  0  0  0  0  0  0  0  0  0  0  0
   58.2570   31.9690   43.0860 O   0  0  0  0  0  0  0  0  0  0  0  0
   57.4550   33.7180   44.4950 C   0  0  0  0  0  0  0  0  0  0  0  0
   57.2080   33.9570   45.8800 O   0  0  0  0  0  0  0  0  0  0  0  0
   58.2240   34.0960   46.8350 C   0  0  0  0  0  0  0  0  0  0  0  0
   58.2330   33.3780   47.8710 O   0  0  0  0  0  0  0  0  0  0  0  0
   59.2670   35.1570   46.6690 C   0  0  0  0  0  0  0  0  0  0  0  0
   60.5650   34.5770   46.3360 N   0  0  0  0  0  0  0  0  0  0  0  0
   61.1690   33.3780   46.8490 C   0  0  0  0  0  0  0  0  0  0  0  0
   60.7810   32.2780   46.3740 O   0  0  0  0  0  0  0  0  0  0  0  0
   62.2200   33.3560   47.8940 C   0  0  0  0  0  0  0  0  0  0  0  0
   63.4570   32.7310   47.7530 C   0  0  0  0  0  0  0  0  0  0  0  0
   64.3090   32.9110   48.8500 C   0  0  0  0  0  0  0  0  0  0  0  0
   63.7610   33.6840   49.8610 C   0  0  0  0  0  0  0  0  0  0  0  0
   62.2160   34.1430   49.3830 S   0  0  0  0  0  0  0  0  0  0  0  0
   60.0400   29.4240   45.9890 S   0  0  0  0  0  0  0  0  0  0  0  0
   59.6220   27.8410   45.6170 C   0  0  0  0  0  0  0  0  0  0  0  0
   60.4190   26.6430   46.0220 C   0  0  0  0  0  0  0  0  0  0  0  0
   58.4200   27.8400   44.9030 C   0  0  0  0  0  0  0  0  0  0  0  0
   57.7470   26.5770   44.4420 C   0  0  0  0  0  0  0  0  0  0  0  0
   55.8728   30.6878   42.5751 H   0  0  0  0  0  0  0  0  0  0  0  0
   57.3710   29.7704   42.2002 H   0  0  0  0  0  0  0  0  0  0  0  0
   55.7817   28.9334   42.2002 H   0  0  0  0  0  0  0  0  0  0  0  0
   58.6340   31.9910   46.2800 H   0  0  0  0  0  0  0  0  0  0  0  0
   58.1665   34.4704   44.1239 H   0  0  0  0  0  0  0  0  0  0  0  0
   56.4977   33.7851   43.9574 H   0  0  0  0  0  0  0  0  0  0  0  0
   58.9606   35.8375   45.8609 H   0  0  0  0  0  0  0  0  0  0  0  0
   59.3634   35.7011   47.6201 H   0  0  0  0  0  0  0  0  0  0  0  0
   63.7386   32.1499   46.8625 H   0  0  0  0  0  0  0  0  0  0  0  0
   65.3191   32.4789   48.9039 H   0  0  0  0  0  0  0  0  0  0  0  0
   64.2506   33.9504   50.8093 H   0  0  0  0  0  0  0  0  0  0  0  0
   60.4589   26.5831   47.1196 H   0  0  0  0  0  0  0  0  0  0  0  0
   59.9445   25.7347   45.6222 H   0  0  0  0  0  0  0  0  0  0  0  0
   61.4401   26.7296   45.6222 H   0  0  0  0  0  0  0  0  0  0  0  0
   57.4333   25.9884   45.3167 H   0  0  0  0  0  0  0  0  0  0  0  0
   56.8650   26.8317   43.8360 H   0  0  0  0  0  0  0  0  0  0  0  0
   58.4503   25.9869   43.8360 H   0  0  0  0  0  0  0  0  0  0  0  0
  1  2  1  0
  2  3  2  0
  2  4  1  0
  4  5  2  0
  5  6  1  0
  6  7  1  0
  7  8  2  0
  7  9  1  0
  9 10  1  0
 10 11  1  0
 11 12  2  0
 11 13  1  0
 13 14  1  0
 14 15  1  0
 15 16  2  0
 15 17  1  0
 17 18  2  0
 18 19  1  0
 19 20  2  0
 20 21  1  0
  5 22  1  0
 22 23  1  0
 23 24  1  0
 23 25  2  0
 25 26  1  0
 25  4  1  0
 21 17  1  0
  1 27  1  0
  1 28  1  0
  1 29  1  0
  6 30  1  0
  9 31  1  0
  9 32  1  0
 13 33  1  0
 13 34  1  0
 18 35  1  0
 19 36  1  0
 20 37  1  0
 24 38  1  0
 24 39  1  0
 24 40  1  0
 26 41  1  0
 26 42  1  0
 26 43  1  0
M  CHG  1  14  -1
M  END
>  <UniqueID>  (33) 
32

>  <SMILES>  (33) 
CC(=O)c1c(NC(=O)COC(=O)C[N-]C(=O)c2cccs2)sc(C)c1C

>  <Energy>  (33) 
96.38789732125582

>  <Genealogy>  (33) 
CC(=O)c1c(NC(=O)COC(=O)C[N-]C(=O)c2cccs2)sc(C)c1C (protonated)
CC(=O)c1c(NC(=O)COC(=O)C[N-]C(=O)c2cccs2)sc(C)c1C (3D coordinates assigned)
CC(=O)c1c(NC(=O)COC(=O)C[N-]C(=O)c2cccs2)sc(C)c1C (optimized conformer: 96.38789732125582 kcal/mol)

>  <smiles>  (33) 
CC(=O)c1c(NC(=O)COC(=O)CNC(=O)c2cccs2)sc(C)c1C

>  <score_type>  (33) 
oracle

>  <origin>  (33) 
adg

>  <m_score__min__energy>  (33) 
-10.029999999999999

>  <m_primary>  (33) 
energy

$$$$
33:0
     RDKit          3D

 55 57  0  0  0  0  0  0  0  0999 V2000
   67.4630   33.0890   50.4620 C   0  0  0  0  0  0  0  0  0  0  0  0
   65.9610   32.8830   50.6810 C   0  0  0  0  0  0  0  0  0  0  0  0
   65.1970   32.8540   49.4190 N   0  0  0  0  0  0  0  0  0  0  0  0
   64.1650   31.8000   49.3430 C   0  0  0  0  0  0  0  0  0  0  0  0
   63.0120   32.1250   48.3740 C   0  0  0  0  0  0  0  0  0  0  0  0
   62.9570   33.5730   48.0660 N   0  0  0  0  0  0  0  0  0  0  0  0
   62.6070   33.8470   46.6570 C   0  0  0  0  0  0  0  0  0  0  0  0
   61.1140   33.6260   46.3910 C   0  0  0  0  0  0  0  0  0  0  0  0
   60.3310   34.4920   47.2860 N   0  0  0  0  0  0  0  0  0  0  0  0
   58.8900   34.5390   46.9590 C   0  0  0  0  0  0  0  0  0  0  0  0
   58.1690   33.1750   47.0220 C   0  0  0  0  0  0  0  0  0  0  0  0
   58.2970   32.4580   45.7360 N   0  0  0  0  0  0  0  0  0  0  0  0
   57.8100   33.0840   44.5250 C   0  0  0  0  0  0  0  0  0  0  0  0
   57.4950   34.3050   44.5080 O   0  0  0  0  0  0  0  0  0  0  0  0
   57.7230   32.2970   43.2520 C   0  0  0  0  0  0  0  0  0  0  0  0
   57.3480   30.8480   43.5570 C   0  0  0  0  0  0  0  0  0  0  0  0
   58.2780   30.2660   44.5870 C   0  0  0  0  0  0  0  0  0  0  0  0
   58.6410   28.9130   44.5090 C   0  0  0  0  0  0  0  0  0  0  0  0
   59.4800   28.3550   45.4700 C   0  0  0  0  0  0  0  0  0  0  0  0
   59.9640   29.1390   46.5140 C   0  0  0  0  0  0  0  0  0  0  0  0
   59.6020   30.4850   46.6180 C   0  0  0  0  0  0  0  0  0  0  0  0
   60.1350   31.1990   47.6370 F   0  0  0  0  0  0  0  0  0  0  0  0
   58.7300   31.0680   45.6630 C   0  0  0  0  0  0  0  0  0  0  0  0
   60.5970   34.1710   48.6990 C   0  0  0  0  0  0  0  0  0  0  0  0
   62.0970   34.3380   49.0000 C   0  0  0  0  0  0  0  0  0  0  0  0
   67.9694   33.1585   51.4360 H   0  0  0  0  0  0  0  0  0  0  0  0
   67.8711   32.2384   49.8964 H   0  0  0  0  0  0  0  0  0  0  0  0
   67.6270   34.0181   49.8964 H   0  0  0  0  0  0  0  0  0  0  0  0
   65.8102   31.9277   51.2050 H   0  0  0  0  0  0  0  0  0  0  0  0
   65.5928   33.7352   51.2711 H   0  0  0  0  0  0  0  0  0  0  0  0
   65.8690   32.7350   48.6250 H   0  0  0  0  0  0  0  0  0  0  0  0
   64.7310   33.7820   49.2850 H   0  0  0  0  0  0  0  0  0  0  0  0
   64.6453   30.8682   49.0099 H   0  0  0  0  0  0  0  0  0  0  0  0
   63.7237   31.7118   50.3467 H   0  0  0  0  0  0  0  0  0  0  0  0
   63.1619   31.5656   47.4388 H   0  0  0  0  0  0  0  0  0  0  0  0
   62.0649   31.8368   48.8536 H   0  0  0  0  0  0  0  0  0  0  0  0
   62.8600   34.8917   46.4234 H   0  0  0  0  0  0  0  0  0  0  0  0
   63.1753   33.1524   46.0210 H   0  0  0  0  0  0  0  0  0  0  0  0
   60.8856   33.8759   45.3444 H   0  0  0  0  0  0  0  0  0  0  0  0
   60.8569   32.5728   46.5770 H   0  0  0  0  0  0  0  0  0  0  0  0
   58.3992   35.2191   47.6707 H   0  0  0  0  0  0  0  0  0  0  0  0
   58.8193   34.8798   45.9155 H   0  0  0  0  0  0  0  0  0  0  0  0
   58.6168   32.5662   47.8213 H   0  0  0  0  0  0  0  0  0  0  0  0
   57.1021   33.3474   47.2267 H   0  0  0  0  0  0  0  0  0  0  0  0
   56.9565   32.7420   42.6005 H   0  0  0  0  0  0  0  0  0  0  0  0
   58.7002   32.3181   42.7475 H   0  0  0  0  0  0  0  0  0  0  0  0
   56.3175   30.8142   43.9402 H   0  0  0  0  0  0  0  0  0  0  0  0
   57.4294   30.2583   42.6320 H   0  0  0  0  0  0  0  0  0  0  0  0
   58.2613   28.2906   43.6854 H   0  0  0  0  0  0  0  0  0  0  0  0
   59.7608   27.2935   45.4044 H   0  0  0  0  0  0  0  0  0  0  0  0
   60.6366   28.6955   47.2629 H   0  0  0  0  0  0  0  0  0  0  0  0
   60.0180   34.8496   49.3426 H   0  0  0  0  0  0  0  0  0  0  0  0
   60.3015   33.1299   48.8960 H   0  0  0  0  0  0  0  0  0  0  0  0
   62.3548   35.4045   48.9222 H   0  0  0  0  0  0  0  0  0  0  0  0
   62.2778   33.9483   50.0126 H   0  0  0  0  0  0  0  0  0  0  0  0
  1  2  1  0
  2  3  1  0
  3  4  1  0
  4  5  1  0
  5  6  1  0
  6  7  1  0
  7  8  1  0
  8  9  1  0
  9 10  1  0
 10 11  1  0
 11 12  1  0
 12 13  1  0
 13 14  2  0
 13 15  1  0
 15 16  1  0
 16 17  1  0
 17 18  2  0
 18 19  1  0
 19 20  2  0
 20 21  1  0
 21 22  1  0
 21 23  2  0
  9 24  1  0
 24 25  1  0
 25  6  1  0
 23 12  1  0
 23 17  1  0
  1 26  1  0
  1 27  1  0
  1 28  1  0
  2 29  1  0
  2 30  1  0
  3 31  1  0
  3 32  1  0
  4 33  1  0
  4 34  1  0
  5 35  1  0
  5 36  1  0
  7 37  1  0
  7 38  1  0
  8 39  1  0
  8 40  1  0
 10 41  1  0
 10 42  1  0
 11 43  1  0
 11 44  1  0
 15 45  1  0
 15 46  1  0
 16 47  1  0
 16 48  1  0
 18 49  1  0
 19 50  1  0
 20 51  1  0
 24 52  1  0
 24 53  1  0
 25 54  1  0
 25 55  1  0
M  CHG  1   3   1
M  END
>  <UniqueID>  (34) 
33

>  <SMILES>  (34) 
CC[NH2+]CCN1CCN(CCN2C(=O)CCc3cccc(F)c32)CC1

>  <Energy>  (34) 
66.77111511629428

>  <Genealogy>  (34) 
CC[NH2+]CCN1CCN(CCN2C(=O)CCc3cccc(F)c32)CC1 (protonated)
CC[NH2+]CCN1CCN(CCN2C(=O)CCc3cccc(F)c32)CC1 (3D coordinates assigned)
CC[NH2+]CCN1CCN(CCN2C(=O)CCc3cccc(F)c32)CC1 (nonaromatic ring conformer: 66.77111511629428 kcal/mol)

>  <smiles>  (34) 
CCNCCN1CCN(CCN2C(=O)CCc3cccc(F)c32)CC1

>  <score_type>  (34) 
oracle

>  <origin>  (34) 
adg

>  <m_score__min__energy>  (34) 
-5.8099999999999996

>  <m_primary>  (34) 
energy

$$$$
34:0
     RDKit          3D

 55 58  0  0  0  0  0  0  0  0999 V2000
   59.2680   35.2430   44.8520 C   0  0  0  0  0  0  0  0  0  0  0  0
   59.5860   35.1380   46.1460 C   0  0  0  0  0  0  0  0  0  0  0  0
   58.8410   34.2360   47.0960 C   0  0  0  0  0  0  0  0  0  0  0  0
   58.3780   32.9520   46.4190 C   0  0  0  0  0  0  0  0  0  0  0  0
   57.2340   32.9830   45.5930 C   0  0  0  0  0  0  0  0  0  0  0  0
   56.4980   34.1500   45.3680 O   0  0  0  0  0  0  0  0  0  0  0  0
   56.8130   31.8810   44.9970 O   0  0  0  0  0  0  0  0  0  0  0  0
   57.4160   30.7110   45.1000 C   0  0  0  0  0  0  0  0  0  0  0  0
   56.8990   29.7320   44.5050 O   0  0  0  0  0  0  0  0  0  0  0  0
   58.5970   30.5630   45.8690 C   0  0  0  0  0  0  0  0  0  0  0  0
   59.0560   31.7070   46.5900 C   0  0  0  0  0  0  0  0  0  0  0  0
   60.2930   31.6310   47.4800 C   0  0  2  0  0  0  0  0  0  0  0  0
   61.3890   32.1670   46.7620 O   0  0  0  0  0  0  0  0  0  0  0  0
   62.2980   33.2810   47.6840 S   0  0  0  0  0  0  0  0  0  0  0  0
   61.3390   34.2030   48.3860 O   0  0  0  0  0  0  0  0  0  0  0  0
   63.1170   34.1100   46.7330 O   0  0  0  0  0  0  0  0  0  0  0  0
   63.3900   32.5940   48.9000 C   0  0  0  0  0  0  0  0  0  0  0  0
   62.9530   31.5490   49.7270 C   0  0  0  0  0  0  0  0  0  0  0  0
   63.8110   30.9920   50.6770 C   0  0  0  0  0  0  0  0  0  0  0  0
   65.1160   31.4810   50.8210 C   0  0  0  0  0  0  0  0  0  0  0  0
   65.9890   30.9280   51.7720 C   0  0  0  0  0  0  0  0  0  0  0  0
   67.2870   31.4290   51.9080 C   0  0  0  0  0  0  0  0  0  0  0  0
   67.7230   32.4810   51.1000 C   0  0  0  0  0  0  0  0  0  0  0  0
   66.8640   33.0410   50.1490 C   0  0  0  0  0  0  0  0  0  0  0  0
   65.5580   32.5470   50.0020 C   0  0  0  0  0  0  0  0  0  0  0  0
   64.6890   33.1000   49.0500 C   0  0  0  0  0  0  0  0  0  0  0  0
   60.6000   30.1980   47.9150 C   0  0  0  0  0  0  0  0  0  0  0  0
   60.6650   29.2880   46.7020 C   0  0  0  0  0  0  0  0  0  0  0  0
   59.2970   29.1840   45.9780 C   0  0  0  0  0  0  0  0  0  0  0  0
   59.5890   28.5930   44.5750 C   0  0  0  0  0  0  0  0  0  0  0  0
   58.3870   28.2060   46.7590 C   0  0  0  0  0  0  0  0  0  0  0  0
   59.8418   35.9155   44.1974 H   0  0  0  0  0  0  0  0  0  0  0  0
   58.4325   34.6569   44.4417 H   0  0  0  0  0  0  0  0  0  0  0  0
   60.4255   35.7341   46.5332 H   0  0  0  0  0  0  0  0  0  0  0  0
   59.5051   33.9763   47.9336 H   0  0  0  0  0  0  0  0  0  0  0  0
   57.9492   34.7753   47.4478 H   0  0  0  0  0  0  0  0  0  0  0  0
   55.8900   34.5790   46.0510 H   0  0  0  0  0  0  0  0  0  0  0  0
   60.1061   32.2098   48.3966 H   0  0  0  0  0  0  0  0  0  0  0  0
   61.9269   31.1655   49.6264 H   0  0  0  0  0  0  0  0  0  0  0  0
   63.4614   30.1666   51.3145 H   0  0  0  0  0  0  0  0  0  0  0  0
   65.6508   30.0990   52.4111 H   0  0  0  0  0  0  0  0  0  0  0  0
   67.9673   30.9929   52.6543 H   0  0  0  0  0  0  0  0  0  0  0  0
   68.7456   32.8706   51.2118 H   0  0  0  0  0  0  0  0  0  0  0  0
   67.2121   33.8699   49.5151 H   0  0  0  0  0  0  0  0  0  0  0  0
   65.0281   33.9343   48.4183 H   0  0  0  0  0  0  0  0  0  0  0  0
   61.5670   30.1759   48.4388 H   0  0  0  0  0  0  0  0  0  0  0  0
   59.8028   29.8467   48.5867 H   0  0  0  0  0  0  0  0  0  0  0  0
   61.4097   29.6877   45.9979 H   0  0  0  0  0  0  0  0  0  0  0  0
   60.9433   28.2815   47.0476 H   0  0  0  0  0  0  0  0  0  0  0  0
   60.0739   27.6117   44.6842 H   0  0  0  0  0  0  0  0  0  0  0  0
   58.6450   28.4761   44.0226 H   0  0  0  0  0  0  0  0  0  0  0  0
   60.2554   29.2718   44.0226 H   0  0  0  0  0  0  0  0  0  0  0  0
   58.5279   28.3575   47.8394 H   0  0  0  0  0  0  0  0  0  0  0  0
   57.3356   28.3945   46.4964 H   0  0  0  0  0  0  0  0  0  0  0  0
   58.6506   27.1708   46.4964 H   0  0  0  0  0  0  0  0  0  0  0  0
  1  2  2  0
  2  3  1  0
  3  4  1  0
  4  5  2  0
  5  6  1  0
  5  7  1  0
  7  8  1  0
  8  9  2  0
  8 10  1  0
 10 11  2  0
 11 12  1  0
 12 13  1  0
 13 14  1  0
 14 15  2  0
 14 16  2  0
 14 17  1  0
 17 18  2  0
 18 19  1  0
 19 20  2  0
 20 21  1  0
 21 22  2  0
 22 23  1  0
 23 24  2  0
 24 25  1  0
 25 26  2  0
 12 27  1  0
 27 28  1  0
 28 29  1  0
 29 30  1  0
 29 31  1  0
 11  4  1  0
 26 17  1  0
 29 10  1  0
 25 20  1  0
  1 32  1  0
  1 33  1  0
  2 34  1  0
  3 35  1  0
  3 36  1  0
  6 37  1  0
 12 38  1  1
 18 39  1  0
 19 40  1  0
 21 41  1  0
 22 42  1  0
 23 43  1  0
 24 44  1  0
 26 45  1  0
 27 46  1  0
 27 47  1  0
 28 48  1  0
 28 49  1  0
 30 50  1  0
 30 51  1  0
 30 52  1  0
 31 53  1  0
 31 54  1  0
 31 55  1  0
M  END
>  <UniqueID>  (35) 
34

>  <SMILES>  (35) 
C=CCc1c(O)oc(=O)c2c1[C@H](OS(=O)(=O)c1ccc3ccccc3c1)CCC2(C)C

>  <Energy>  (35) 
75.35716261368096

>  <Genealogy>  (35) 
C=CCc1c(O)oc(=O)c2c1[C@H](OS(=O)(=O)c1ccc3ccccc3c1)CCC2(C)C (chirality)
C=CCc1c(O)oc(=O)c2c1[C@H](OS(=O)(=O)c1ccc3ccccc3c1)CCC2(C)C (3D coordinates assigned)
C=CCc1c(O)oc(=O)c2c1[C@H](OS(=O)(=O)c1ccc3ccccc3c1)CCC2(C)C (nonaromatic ring conformer: 75.35716261368096 kcal/mol)

>  <smiles>  (35) 
C=CCc1c(O)oc(=O)c2c1C(OS(=O)(=O)c1ccc3ccccc3c1)CCC2(C)C

>  <score_type>  (35) 
oracle

>  <origin>  (35) 
adg

>  <m_score__min__energy>  (35) 
-9.4199999999999999

>  <m_primary>  (35) 
energy

$$$$
35:0
     RDKit          3D

 65 66  0  0  0  0  0  0  0  0999 V2000
   61.0978   26.1080   49.3759 H   0  0  0  0  0  0  0  0  0  0  0  0
   60.5530   26.8630   48.7900 C   0  0  0  0  0  0  0  0  0  0  0  0
   60.3720   28.2060   49.3700 C   0  0  0  0  0  0  0  0  0  0  0  0
   59.2410   28.7630   49.3830 O   0  0  0  0  0  0  0  0  0  0  0  0
   61.4890   28.8490   49.9110 O   0  0  0  0  0  0  0  0  0  0  0  0
   61.4070   30.0250   50.7040 C   0  0  0  0  0  0  0  0  0  0  0  0
   62.2373   30.0380   51.4255 H   0  0  0  0  0  0  0  0  0  0  0  0
   60.4484   30.0343   51.2434 H   0  0  0  0  0  0  0  0  0  0  0  0
   61.4950   31.2670   49.8010 C   0  0  0  0  0  0  0  0  0  0  0  0
   62.5548   31.5371   49.6829 H   0  0  0  0  0  0  0  0  0  0  0  0
   60.9132   32.0631   50.2885 H   0  0  0  0  0  0  0  0  0  0  0  0
   60.9070   31.0610   48.4470 N   0  0  0  0  0  0  0  0  0  0  0  0
   60.6670   30.0420   48.3770 H   0  0  0  0  0  0  0  0  0  0  0  0
   61.9390   31.3170   47.4030 C   0  0  0  0  0  0  0  0  0  0  0  0
   61.4468   31.3167   46.4193 H   0  0  0  0  0  0  0  0  0  0  0  0
   62.6937   30.5217   47.4918 H   0  0  0  0  0  0  0  0  0  0  0  0
   62.6680   32.6520   47.5800 C   0  0  0  0  0  0  0  0  0  0  0  0
   62.7851   32.8664   48.6525 H   0  0  0  0  0  0  0  0  0  0  0  0
   63.6596   32.5938   47.1073 H   0  0  0  0  0  0  0  0  0  0  0  0
   62.0830   33.4547   47.1073 H   0  0  0  0  0  0  0  0  0  0  0  0
   59.6390   31.8150   48.2320 C   0  0  0  0  0  0  0  0  0  0  0  0
   59.8962   32.8066   47.8313 H   0  0  0  0  0  0  0  0  0  0  0  0
   59.0345   31.2068   47.5430 H   0  0  0  0  0  0  0  0  0  0  0  0
   58.7800   32.0180   49.4880 C   0  0  0  0  0  0  0  0  0  0  0  0
   59.4006   31.8713   50.3843 H   0  0  0  0  0  0  0  0  0  0  0  0
   58.3685   33.0381   49.4898 H   0  0  0  0  0  0  0  0  0  0  0  0
   57.9554   31.2900   49.4898 H   0  0  0  0  0  0  0  0  0  0  0  0
   60.0840   26.5180   47.5800 C   0  0  0  0  0  0  0  0  0  0  0  0
   60.5793   25.6846   47.0603 H   0  0  0  0  0  0  0  0  0  0  0  0
   58.9400   27.1820   46.8880 C   0  0  0  0  0  0  0  0  0  0  0  0
   59.0440   28.4410   46.2590 C   0  0  0  0  0  0  0  0  0  0  0  0
   59.9978   28.9883   46.2876 H   0  0  0  0  0  0  0  0  0  0  0  0
   57.9460   28.9970   45.6010 C   0  0  0  0  0  0  0  0  0  0  0  0
   58.0370   29.9863   45.1287 H   0  0  0  0  0  0  0  0  0  0  0  0
   56.7340   28.3090   45.5370 C   0  0  0  0  0  0  0  0  0  0  0  0
   55.6640   28.8910   44.8660 O   0  0  0  0  0  0  0  0  0  0  0  0
   55.8510   29.6970   43.7070 C   0  0  0  0  0  0  0  0  0  0  0  0
   56.5926   29.2233   43.0469 H   0  0  0  0  0  0  0  0  0  0  0  0
   54.8949   29.7974   43.1725 H   0  0  0  0  0  0  0  0  0  0  0  0
   56.3510   31.0850   44.1240 C   0  0  0  0  0  0  0  0  0  0  0  0
   55.6833   31.8427   43.6879 H   0  0  0  0  0  0  0  0  0  0  0  0
   56.3492   31.1164   45.2236 H   0  0  0  0  0  0  0  0  0  0  0  0
   57.7910   31.3760   43.6600 C   0  0  0  0  0  0  0  0  0  0  0  0
   58.4886   31.0029   44.4243 H   0  0  0  0  0  0  0  0  0  0  0  0
   57.9358   30.8709   42.6936 H   0  0  0  0  0  0  0  0  0  0  0  0
   58.0560   32.8740   43.4430 C   0  0  0  0  0  0  0  0  0  0  0  0
   58.8950   32.9972   42.7423 H   0  0  0  0  0  0  0  0  0  0  0  0
   57.1510   33.3433   43.0299 H   0  0  0  0  0  0  0  0  0  0  0  0
   58.3890   33.5140   44.7120 N   0  0  0  0  0  0  0  0  0  0  0  0
   59.4410   34.3270   44.9460 C   0  0  0  0  0  0  0  0  0  0  0  0
   60.2296   34.5714   44.2190 H   0  0  0  0  0  0  0  0  0  0  0  0
   59.3730   34.8040   46.2400 C   0  0  0  0  0  0  0  0  0  0  0  0
   60.0916   35.4791   46.7277 H   0  0  0  0  0  0  0  0  0  0  0  0
   58.2310   34.2720   46.8050 C   0  0  0  0  0  0  0  0  0  0  0  0
   57.8646   34.4360   47.8291 H   0  0  0  0  0  0  0  0  0  0  0  0
   57.6390   33.4920   45.8280 C   0  0  0  0  0  0  0  0  0  0  0  0
   56.6965   32.9372   45.9461 H   0  0  0  0  0  0  0  0  0  0  0  0
   56.6030   27.0600   46.1610 C   0  0  0  0  0  0  0  0  0  0  0  0
   55.3640   26.4060   46.0760 O   0  0  0  0  0  0  0  0  0  0  0  0
   55.1760   25.0680   45.6300 C   0  0  0  0  0  0  0  0  0  0  0  0
   55.0823   24.4013   46.4999 H   0  0  0  0  0  0  0  0  0  0  0  0
   54.2608   25.0091   45.0227 H   0  0  0  0  0  0  0  0  0  0  0  0
   56.0396   24.7592   45.0227 H   0  0  0  0  0  0  0  0  0  0  0  0
   57.7030   26.5070   46.8450 C   0  0  0  0  0  0  0  0  0  0  0  0
   57.5957   25.5366   47.3518 H   0  0  0  0  0  0  0  0  0  0  0  0
  1  2  1  0
  2  3  1  0
  3  4  2  0
  3  5  1  0
  5  6  1  0
  6  7  1  0
  6  8  1  0
  6  9  1  0
  9 10  1  0
  9 11  1  0
  9 12  1  0
 12 13  1  0
 12 14  1  0
 14 15  1  0
 14 16  1  0
 14 17  1  0
 17 18  1  0
 17 19  1  0
 17 20  1  0
 12 21  1  0
 21 22  1  0
 21 23  1  0
 21 24  1  0
 24 25  1  0
 24 26  1  0
 24 27  1  0
  2 28  2  0
 28 29  1  0
 28 30  1  0
 30 31  2  0
 31 32  1  0
 31 33  1  0
 33 34  1  0
 33 35  2  0
 35 36  1  0
 36 37  1  0
 37 38  1  0
 37 39  1  0
 37 40  1  0
 40 41  1  0
 40 42  1  0
 40 43  1  0
 43 44  1  0
 43 45  1  0
 43 46  1  0
 46 47  1  0
 46 48  1  0
 46 49  1  0
 49 50  1  0
 50 51  1  0
 50 52  2  0
 52 53  1  0
 52 54  1  0
 54 55  1  0
 54 56  2  0
 56 57  1  0
 35 58  1  0
 58 59  1  0
 59 60  1  0
 60 61  1  0
 60 62  1  0
 60 63  1  0
 58 64  2  0
 64 65  1  0
 64 30  1  0
 56 49  1  0
M  CHG  1  12   1
M  END
>  <UniqueID>  (36) 
35

>  <SMILES>  (36) 
CC[NH+](CC)CCOC(=O)/C=C/c1ccc(OCCCCn2cccc2)c(OC)c1

>  <Energy>  (36) 
93.55111934197171

>  <Genealogy>  (36) 
CC[NH+](CC)CCOC(=O)C=Cc1ccc(OCCCCn2cccc2)c(OC)c1 (protonated)
CC[NH+](CC)CCOC(=O)/C=C/c1ccc(OCCCCn2cccc2)c(OC)c1 (cis-trans isomerization)
CC[NH+](CC)CCOC(=O)/C=C/c1ccc(OCCCCn2cccc2)c(OC)c1 (3D coordinates assigned)
CC[NH+](CC)CCOC(=O)/C=C/c1ccc(OCCCCn2cccc2)c(OC)c1 (optimized conformer: 93.55111934197171 kcal/mol)

>  <smiles>  (36) 
CCN(CC)CCOC(=O)C=Cc1ccc(OCCCCn2cccc2)c(OC)c1

>  <score_type>  (36) 
oracle

>  <origin>  (36) 
adg

>  <m_score__min__energy>  (36) 
-5.4400000000000004

>  <m_primary>  (36) 
energy

$$$$
36:0
     RDKit          3D

 45 47  0  0  0  0  0  0  0  0999 V2000
   60.3860   28.2730   45.6020 C   0  0  0  0  0  0  0  0  0  0  0  0
   60.3830   28.5130   47.1100 C   0  0  0  0  0  0  0  0  0  0  0  0
   60.2910   29.9630   47.3980 N   0  0  0  0  0  0  0  0  0  0  0  0
   61.0600   30.2980   48.6220 C   0  0  0  0  0  0  0  0  0  0  0  0
   62.0080   31.4450   48.3840 C   0  0  0  0  0  0  0  0  0  0  0  0
   61.9290   32.6160   49.1490 C   0  0  0  0  0  0  0  0  0  0  0  0
   62.7870   33.6840   48.8820 C   0  0  0  0  0  0  0  0  0  0  0  0
   63.7290   33.5660   47.8580 C   0  0  0  0  0  0  0  0  0  0  0  0
   63.8100   32.4170   47.1340 N   0  0  0  0  0  0  0  0  0  0  0  0
   62.9830   31.3620   47.3770 C   0  0  0  0  0  0  0  0  0  0  0  0
   58.8720   30.3930   47.5040 C   0  0  0  0  0  0  0  0  0  0  0  0
   58.5000   31.2820   46.3280 C   0  0  0  0  0  0  0  0  0  0  0  0
   57.8010   30.6680   45.2730 C   0  0  0  0  0  0  0  0  0  0  0  0
   57.5070   31.3590   44.0950 C   0  0  0  0  0  0  0  0  0  0  0  0
   56.8040   30.6490   42.9750 C   0  0  0  0  0  0  0  0  0  0  0  0
   57.9100   32.6890   43.9550 C   0  0  0  0  0  0  0  0  0  0  0  0
   58.5680   33.3470   45.0010 C   0  0  0  0  0  0  0  0  0  0  0  0
   58.9510   34.6870   44.8400 C   0  0  0  0  0  0  0  0  0  0  0  0
   59.5930   35.3680   45.8730 C   0  0  0  0  0  0  0  0  0  0  0  0
   59.8530   34.7200   47.0770 C   0  0  0  0  0  0  0  0  0  0  0  0
   59.4840   33.3840   47.2570 C   0  0  0  0  0  0  0  0  0  0  0  0
   58.8510   32.6610   46.2170 C   0  0  0  0  0  0  0  0  0  0  0  0
   60.3995   27.1913   45.4029 H   0  0  0  0  0  0  0  0  0  0  0  0
   59.4822   28.7162   45.1584 H   0  0  0  0  0  0  0  0  0  0  0  0
   61.2784   28.7387   45.1584 H   0  0  0  0  0  0  0  0  0  0  0  0
   59.5202   27.9983   47.5579 H   0  0  0  0  0  0  0  0  0  0  0  0
   61.3179   28.1213   47.5372 H   0  0  0  0  0  0  0  0  0  0  0  0
   60.3566   30.5759   49.4208 H   0  0  0  0  0  0  0  0  0  0  0  0
   61.6515   29.4162   48.9092 H   0  0  0  0  0  0  0  0  0  0  0  0
   61.1904   32.6938   49.9605 H   0  0  0  0  0  0  0  0  0  0  0  0
   62.7218   34.6097   49.4725 H   0  0  0  0  0  0  0  0  0  0  0  0
   64.4068   34.4035   47.6363 H   0  0  0  0  0  0  0  0  0  0  0  0
   64.5190   32.3440   46.3700 H   0  0  0  0  0  0  0  0  0  0  0  0
   63.0794   30.4418   46.7821 H   0  0  0  0  0  0  0  0  0  0  0  0
   58.2231   29.5048   47.5068 H   0  0  0  0  0  0  0  0  0  0  0  0
   58.7391   30.9602   48.4371 H   0  0  0  0  0  0  0  0  0  0  0  0
   57.4790   29.6214   45.3778 H   0  0  0  0  0  0  0  0  0  0  0  0
   56.0878   29.9256   43.3918 H   0  0  0  0  0  0  0  0  0  0  0  0
   56.2663   31.3824   42.3562 H   0  0  0  0  0  0  0  0  0  0  0  0
   57.5427   30.1186   42.3562 H   0  0  0  0  0  0  0  0  0  0  0  0
   57.7087   33.2239   43.0151 H   0  0  0  0  0  0  0  0  0  0  0  0
   58.7431   35.2041   43.8916 H   0  0  0  0  0  0  0  0  0  0  0  0
   59.8940   36.4172   45.7367 H   0  0  0  0  0  0  0  0  0  0  0  0
   60.3525   35.2632   47.8927 H   0  0  0  0  0  0  0  0  0  0  0  0
   59.6877   32.8885   48.2177 H   0  0  0  0  0  0  0  0  0  0  0  0
  1  2  1  0
  2  3  1  0
  3  4  1  0
  4  5  1  0
  5  6  2  0
  6  7  1  0
  7  8  2  0
  8  9  1  0
  9 10  2  0
  3 11  1  0
 11 12  1  0
 12 13  2  0
 13 14  1  0
 14 15  1  0
 14 16  2  0
 16 17  1  0
 17 18  2  0
 18 19  1  0
 19 20  2  0
 20 21  1  0
 21 22  2  0
 10  5  1  0
 22 12  1  0
 22 17  1  0
  1 23  1  0
  1 24  1  0
  1 25  1  0
  2 26  1  0
  2 27  1  0
  4 28  1  0
  4 29  1  0
  6 30  1  0
  7 31  1  0
  8 32  1  0
  9 33  1  0
 10 34  1  0
 11 35  1  0
 11 36  1  0
 13 37  1  0
 15 38  1  0
 15 39  1  0
 15 40  1  0
 16 41  1  0
 18 42  1  0
 19 43  1  0
 20 44  1  0
 21 45  1  0
M  CHG  1   9   1
M  END
>  <UniqueID>  (37) 
36

>  <SMILES>  (37) 
CCN(Cc1ccc[nH+]c1)Cc1cc(C)cc2ccccc12

>  <Energy>  (37) 
51.164724051250126

>  <Genealogy>  (37) 
CCN(Cc1ccc[nH+]c1)Cc1cc(C)cc2ccccc12 (protonated)
CCN(Cc1ccc[nH+]c1)Cc1cc(C)cc2ccccc12 (3D coordinates assigned)
CCN(Cc1ccc[nH+]c1)Cc1cc(C)cc2ccccc12 (optimized conformer: 51.164724051250126 kcal/mol)

>  <smiles>  (37) 
CCN(Cc1cccnc1)Cc1cc(C)cc2ccccc12

>  <score_type>  (37) 
oracle

>  <origin>  (37) 
adg

>  <m_score__min__energy>  (37) 
-6.54

>  <m_primary>  (37) 
energy

$$$$
37:0
     RDKit          3D

 44 45  0  0  0  0  0  0  0  0999 V2000
   63.3940   33.8220   46.7670 C   0  0  0  0  0  0  0  0  0  0  0  0
   62.9910   33.0990   48.0590 C   0  0  0  0  0  0  0  0  0  0  0  0
   61.5780   32.6460   48.0850 N   0  0  0  0  0  0  0  0  0  0  0  0
   61.4130   31.1820   48.2350 C   0  0  0  0  0  0  0  0  0  0  0  0
   60.9190   30.5300   46.9430 C   0  0  0  0  0  0  0  0  0  0  0  0
   60.7680   33.3920   49.0740 C   0  0  0  0  0  0  0  0  0  0  0  0
   59.3080   33.4850   48.6180 C   0  0  0  0  0  0  0  0  0  0  0  0
   59.2320   33.9070   47.2170 N   0  0  0  0  0  0  0  0  0  0  0  0
   59.8320   35.0040   46.6930 C   0  0  0  0  0  0  0  0  0  0  0  0
   59.6410   35.0550   45.3180 C   0  0  0  0  0  0  0  0  0  0  0  0
   58.9040   33.9310   45.0110 C   0  0  0  0  0  0  0  0  0  0  0  0
   58.4480   33.4690   43.7820 C   0  0  0  0  0  0  0  0  0  0  0  0
   57.7160   32.2570   43.7530 C   0  0  0  0  0  0  0  0  0  0  0  0
   57.2210   31.7200   42.5550 O   0  0  0  0  0  0  0  0  0  0  0  0
   57.4500   32.2810   41.2670 C   0  0  0  0  0  0  0  0  0  0  0  0
   57.4690   31.5510   44.9570 C   0  0  0  0  0  0  0  0  0  0  0  0
   56.7330   30.3570   44.8860 O   0  0  0  0  0  0  0  0  0  0  0  0
   57.1170   29.2170   44.1240 C   0  0  0  0  0  0  0  0  0  0  0  0
   57.9550   32.0540   46.1880 C   0  0  0  0  0  0  0  0  0  0  0  0
   58.6720   33.2530   46.1760 C   0  0  0  0  0  0  0  0  0  0  0  0
   63.9155   34.7575   47.0177 H   0  0  0  0  0  0  0  0  0  0  0  0
   64.0622   33.1761   46.1785 H   0  0  0  0  0  0  0  0  0  0  0  0
   62.4932   34.0507   46.1785 H   0  0  0  0  0  0  0  0  0  0  0  0
   63.6384   32.2177   48.1779 H   0  0  0  0  0  0  0  0  0  0  0  0
   63.1063   33.8248   48.8775 H   0  0  0  0  0  0  0  0  0  0  0  0
   62.3829   30.7407   48.5081 H   0  0  0  0  0  0  0  0  0  0  0  0
   60.6615   31.0014   49.0177 H   0  0  0  0  0  0  0  0  0  0  0  0
   60.2714   29.6753   47.1880 H   0  0  0  0  0  0  0  0  0  0  0  0
   60.3493   31.2653   46.3558 H   0  0  0  0  0  0  0  0  0  0  0  0
   61.7810   30.1805   46.3558 H   0  0  0  0  0  0  0  0  0  0  0  0
   60.8115   32.8720   50.0424 H   0  0  0  0  0  0  0  0  0  0  0  0
   61.1746   34.4097   49.1689 H   0  0  0  0  0  0  0  0  0  0  0  0
   58.8322   32.4990   48.7250 H   0  0  0  0  0  0  0  0  0  0  0  0
   58.7881   34.2276   49.2411 H   0  0  0  0  0  0  0  0  0  0  0  0
   60.3922   35.7501   47.2757 H   0  0  0  0  0  0  0  0  0  0  0  0
   60.0010   35.8274   44.6225 H   0  0  0  0  0  0  0  0  0  0  0  0
   58.6501   34.0294   42.8573 H   0  0  0  0  0  0  0  0  0  0  0  0
   57.8636   33.2943   41.3767 H   0  0  0  0  0  0  0  0  0  0  0  0
   58.1632   31.6517   40.7145 H   0  0  0  0  0  0  0  0  0  0  0  0
   56.5001   32.3305   40.7145 H   0  0  0  0  0  0  0  0  0  0  0  0
   57.3930   28.3975   44.8039 H   0  0  0  0  0  0  0  0  0  0  0  0
   56.2761   28.8997   43.4897 H   0  0  0  0  0  0  0  0  0  0  0  0
   57.9785   29.4731   43.4897 H   0  0  0  0  0  0  0  0  0  0  0  0
   57.7728   31.5148   47.1293 H   0  0  0  0  0  0  0  0  0  0  0  0
  1  2  1  0
  2  3  1  0
  3  4  1  0
  4  5  1  0
  3  6  1  0
  6  7  1  0
  7  8  1  0
  8  9  1  0
  9 10  2  0
 10 11  1  0
 11 12  2  0
 12 13  1  0
 13 14  1  0
 14 15  1  0
 13 16  2  0
 16 17  1  0
 17 18  1  0
 16 19  1  0
 19 20  2  0
 20  8  1  0
 20 11  1  0
  1 21  1  0
  1 22  1  0
  1 23  1  0
  2 24  1  0
  2 25  1  0
  4 26  1  0
  4 27  1  0
  5 28  1  0
  5 29  1  0
  5 30  1  0
  6 31  1  0
  6 32  1  0
  7 33  1  0
  7 34  1  0
  9 35  1  0
 10 36  1  0
 12 37  1  0
 15 38  1  0
 15 39  1  0
 15 40  1  0
 18 41  1  0
 18 42  1  0
 18 43  1  0
 19 44  1  0
M  END
>  <UniqueID>  (38) 
37

>  <SMILES>  (38) 
CCN(CC)CCn1ccc2cc(OC)c(OC)cc21

>  <Energy>  (38) 
72.49052612742229

>  <Genealogy>  (38) 
CCN(CC)CCn1ccc2cc(OC)c(OC)cc21 (3D coordinates assigned)
CCN(CC)CCn1ccc2cc(OC)c(OC)cc21 (optimized conformer: 72.49052612742229 kcal/mol)

>  <smiles>  (38) 
CCN(CC)CCn1ccc2cc(OC)c(OC)cc21

>  <score_type>  (38) 
oracle

>  <origin>  (38) 
adg

>  <m_score__min__energy>  (38) 
-6.04

>  <m_primary>  (38) 
energy

$$$$
38:0
     RDKit          3D

 43 45  0  0  0  0  0  0  0  0999 V2000
   55.9640   30.0590   43.4960 C   0  0  0  0  0  0  0  0  0  0  0  0
   56.2460   29.9190   44.8710 O   0  0  0  0  0  0  0  0  0  0  0  0
   57.6080   29.5850   45.0680 C   0  0  0  0  0  0  0  0  0  0  0  0
   58.4700   30.8450   44.9850 C   0  0  0  0  0  0  0  0  0  0  0  0
   58.5590   31.4990   46.2940 N   0  0  0  0  0  0  0  0  0  0  0  0
   58.0230   32.6890   46.6770 C   0  0  0  0  0  0  0  0  0  0  0  0
   57.1310   33.7970   45.5780 S   0  0  0  0  0  0  0  0  0  0  0  0
   58.6280   34.5780   44.8740 C   0  0  0  0  0  0  0  0  0  0  0  0
   59.6390   34.9600   45.9580 C   0  0  0  0  0  0  0  0  0  0  0  0
   60.7960   34.1220   45.9260 O   0  0  0  0  0  0  0  0  0  0  0  0
   61.6360   33.8440   47.0160 C   0  0  0  0  0  0  0  0  0  0  0  0
   61.3100   34.1950   48.3420 C   0  0  0  0  0  0  0  0  0  0  0  0
   62.2050   33.9220   49.3830 C   0  0  0  0  0  0  0  0  0  0  0  0
   63.4230   33.2920   49.1130 C   0  0  0  0  0  0  0  0  0  0  0  0
   63.7430   32.9230   47.8050 C   0  0  0  0  0  0  0  0  0  0  0  0
   62.8490   33.1910   46.7640 C   0  0  0  0  0  0  0  0  0  0  0  0
   58.2100   32.9700   47.9920 N   0  0  0  0  0  0  0  0  0  0  0  0
   58.8960   31.9020   48.4330 C   0  0  0  0  0  0  0  0  0  0  0  0
   59.3610   31.6670   49.7260 C   0  0  0  0  0  0  0  0  0  0  0  0
   60.0660   30.4730   49.9620 C   0  0  0  0  0  0  0  0  0  0  0  0
   60.2810   29.5490   48.9130 C   0  0  0  0  0  0  0  0  0  0  0  0
   59.7960   29.8150   47.6190 C   0  0  0  0  0  0  0  0  0  0  0  0
   59.1090   31.0130   47.4190 C   0  0  0  0  0  0  0  0  0  0  0  0
   54.9852   30.5449   43.3701 H   0  0  0  0  0  0  0  0  0  0  0  0
   56.7428   30.6751   43.0228 H   0  0  0  0  0  0  0  0  0  0  0  0
   55.9441   29.0662   43.0228 H   0  0  0  0  0  0  0  0  0  0  0  0
   57.7308   29.1237   46.0590 H   0  0  0  0  0  0  0  0  0  0  0  0
   57.9241   28.8778   44.2870 H   0  0  0  0  0  0  0  0  0  0  0  0
   59.4807   30.5696   44.6495 H   0  0  0  0  0  0  0  0  0  0  0  0
   58.0081   31.5432   44.2715 H   0  0  0  0  0  0  0  0  0  0  0  0
   59.1035   33.8712   44.1781 H   0  0  0  0  0  0  0  0  0  0  0  0
   58.3198   35.4988   44.3571 H   0  0  0  0  0  0  0  0  0  0  0  0
   59.9509   36.0032   45.8018 H   0  0  0  0  0  0  0  0  0  0  0  0
   59.1535   34.8339   46.9370 H   0  0  0  0  0  0  0  0  0  0  0  0
   60.3493   34.6849   48.5591 H   0  0  0  0  0  0  0  0  0  0  0  0
   61.9493   34.2037   50.4151 H   0  0  0  0  0  0  0  0  0  0  0  0
   64.1294   33.0869   49.9309 H   0  0  0  0  0  0  0  0  0  0  0  0
   64.6988   32.4213   47.5935 H   0  0  0  0  0  0  0  0  0  0  0  0
   63.1007   32.8861   45.7375 H   0  0  0  0  0  0  0  0  0  0  0  0
   59.1825   32.3911   50.5346 H   0  0  0  0  0  0  0  0  0  0  0  0
   60.4526   30.2565   50.9688 H   0  0  0  0  0  0  0  0  0  0  0  0
   60.8307   28.6167   49.1098 H   0  0  0  0  0  0  0  0  0  0  0  0
   59.9529   29.1039   46.7946 H   0  0  0  0  0  0  0  0  0  0  0  0
  1  2  1  0
  2  3  1  0
  3  4  1  0
  4  5  1  0
  5  6  1  0
  6  7  1  0
  7  8  1  0
  8  9  1  0
  9 10  1  0
 10 11  1  0
 11 12  2  0
 12 13  1  0
 13 14  2  0
 14 15  1  0
 15 16  2  0
  6 17  2  0
 17 18  1  0
 18 19  2  0
 19 20  1  0
 20 21  2  0
 21 22  1  0
 22 23  2  0
 23  5  1  0
 16 11  1  0
 23 18  1  0
  1 24  1  0
  1 25  1  0
  1 26  1  0
  3 27  1  0
  3 28  1  0
  4 29  1  0
  4 30  1  0
  8 31  1  0
  8 32  1  0
  9 33  1  0
  9 34  1  0
 12 35  1  0
 13 36  1  0
 14 37  1  0
 15 38  1  0
 16 39  1  0
 19 40  1  0
 20 41  1  0
 21 42  1  0
 22 43  1  0
M  END
>  <UniqueID>  (39) 
38

>  <SMILES>  (39) 
COCCn1c(SCCOc2ccccc2)nc2ccccc21

>  <Energy>  (39) 
73.76609918417563

>  <Genealogy>  (39) 
COCCn1c(SCCOc2ccccc2)nc2ccccc21 (3D coordinates assigned)
COCCn1c(SCCOc2ccccc2)nc2ccccc21 (optimized conformer: 73.76609918417563 kcal/mol)

>  <smiles>  (39) 
COCCn1c(SCCOc2ccccc2)nc2ccccc21

>  <score_type>  (39) 
oracle

>  <origin>  (39) 
adg

>  <m_score__min__energy>  (39) 
-7.5499999999999998

>  <m_primary>  (39) 
energy

$$$$
39:0
     RDKit          3D

 39 42  0  0  0  0  0  0  0  0999 V2000
   54.7800   26.3800   46.0430 O   0  0  0  0  0  0  0  0  0  0  0  0
   55.8730   25.5040   46.0920 C   0  0  0  0  0  0  0  0  0  0  0  0
   57.1560   26.2820   46.1750 C   0  0  0  0  0  0  0  0  0  0  0  0
   58.3820   25.6120   46.2940 C   0  0  0  0  0  0  0  0  0  0  0  0
   59.5760   26.3340   46.3450 C   0  0  0  0  0  0  0  0  0  0  0  0
   59.5580   27.7270   46.2580 C   0  0  0  0  0  0  0  0  0  0  0  0
   58.3420   28.4140   46.1010 C   0  0  0  0  0  0  0  0  0  0  0  0
   58.3000   29.8900   46.0050 C   0  0  0  0  0  0  0  0  0  0  0  0
   57.6520   30.5410   45.0100 N   0  0  0  0  0  0  0  0  0  0  0  0
   57.8400   31.8440   45.3030 C   0  0  0  0  0  0  0  0  0  0  0  0
   57.3730   32.9190   44.5480 C   0  0  0  0  0  0  0  0  0  0  0  0
   57.7000   34.2120   44.9820 C   0  0  0  0  0  0  0  0  0  0  0  0
   58.4840   34.3970   46.1360 C   0  0  0  0  0  0  0  0  0  0  0  0
   58.9290   33.2790   46.8570 C   0  0  0  0  0  0  0  0  0  0  0  0
   58.5690   32.0420   46.4160 N   0  0  0  0  0  0  0  0  0  0  0  0
   58.8730   30.8160   46.8800 C   0  0  0  0  0  0  0  0  0  0  0  0
   59.7540   30.5330   48.0340 C   0  0  0  0  0  0  0  0  0  0  0  0
   59.3320   29.6590   49.0470 C   0  0  0  0  0  0  0  0  0  0  0  0
   60.1860   29.3850   50.1160 C   0  0  0  0  0  0  0  0  0  0  0  0
   61.4490   29.9760   50.1650 C   0  0  0  0  0  0  0  0  0  0  0  0
   61.8400   30.8380   49.1380 C   0  0  0  0  0  0  0  0  0  0  0  0
   60.9960   31.0960   48.1020 N   0  0  0  0  0  0  0  0  0  0  0  0
   57.1420   27.6830   46.0710 C   0  0  0  0  0  0  0  0  0  0  0  0
   53.9930   25.8710   46.3700 H   0  0  0  0  0  0  0  0  0  0  0  0
   55.7817   24.8577   46.9774 H   0  0  0  0  0  0  0  0  0  0  0  0
   55.8831   24.8900   45.1794 H   0  0  0  0  0  0  0  0  0  0  0  0
   58.4032   24.5135   46.3474 H   0  0  0  0  0  0  0  0  0  0  0  0
   60.5335   25.8036   46.4540 H   0  0  0  0  0  0  0  0  0  0  0  0
   60.5012   28.2904   46.3126 H   0  0  0  0  0  0  0  0  0  0  0  0
   56.7688   32.7586   43.6429 H   0  0  0  0  0  0  0  0  0  0  0  0
   57.3420   35.0857   44.4177 H   0  0  0  0  0  0  0  0  0  0  0  0
   58.7461   35.4116   46.4704 H   0  0  0  0  0  0  0  0  0  0  0  0
   59.5526   33.3985   47.7553 H   0  0  0  0  0  0  0  0  0  0  0  0
   58.3364   29.1937   48.9990 H   0  0  0  0  0  0  0  0  0  0  0  0
   59.8642   28.7046   50.9182 H   0  0  0  0  0  0  0  0  0  0  0  0
   62.1293   29.7653   51.0033 H   0  0  0  0  0  0  0  0  0  0  0  0
   62.8332   31.3099   49.1666 H   0  0  0  0  0  0  0  0  0  0  0  0
   61.3140   31.7500   47.3520 H   0  0  0  0  0  0  0  0  0  0  0  0
   56.1836   28.2124   45.9652 H   0  0  0  0  0  0  0  0  0  0  0  0
  1  2  1  0
  2  3  1  0
  3  4  2  0
  4  5  1  0
  5  6  2  0
  6  7  1  0
  7  8  1  0
  8  9  1  0
  9 10  2  0
 10 11  1  0
 11 12  2  0
 12 13  1  0
 13 14  2  0
 14 15  1  0
 15 16  1  0
 16 17  1  0
 17 18  2  0
 18 19  1  0
 19 20  2  0
 20 21  1  0
 21 22  2  0
  7 23  2  0
 23  3  1  0
 16  8  2  0
 22 17  1  0
 15 10  1  0
  1 24  1  0
  2 25  1  0
  2 26  1  0
  4 27  1  0
  5 28  1  0
  6 29  1  0
 11 30  1  0
 12 31  1  0
 13 32  1  0
 14 33  1  0
 18 34  1  0
 19 35  1  0
 20 36  1  0
 21 37  1  0
 22 38  1  0
 23 39  1  0
M  CHG  1  22   1
M  END
>  <UniqueID>  (40) 
39

>  <SMILES>  (40) 
OCc1cccc(-c2nc3ccccn3c2-c2cccc[nH+]2)c1

>  <Energy>  (40) 
86.83428070005151

>  <Genealogy>  (40) 
OCc1cccc(-c2nc3ccccn3c2-c2cccc[nH+]2)c1 (protonated)
OCc1cccc(-c2nc3ccccn3c2-c2cccc[nH+]2)c1 (3D coordinates assigned)
OCc1cccc(-c2nc3ccccn3c2-c2cccc[nH+]2)c1 (optimized conformer: 86.83428070005151 kcal/mol)

>  <smiles>  (40) 
OCc1cccc(-c2nc3ccccn3c2-c2ccccn2)c1

>  <score_type>  (40) 
oracle

>  <origin>  (40) 
adg

>  <m_score__min__energy>  (40) 
-6.7800000000000002

>  <m_primary>  (40) 
energy

$$$$
40:0
     RDKit          3D

 31 32  0  0  0  0  0  0  0  0999 V2000
   55.9490   28.5000   45.2390 O   0  0  0  0  0  0  0  0  0  0  0  0
   56.6870   29.3950   44.8470 C   0  0  0  0  0  0  0  0  0  0  0  0
   56.1270   30.4590   43.9430 C   0  0  0  0  0  0  0  0  0  0  0  0
   57.4640   31.3150   43.0410 S   0  0  0  0  0  0  0  0  0  0  0  0
   57.8340   32.4580   44.3710 C   0  0  0  0  0  0  0  0  0  0  0  0
   58.5880   33.6100   44.1230 C   0  0  0  0  0  0  0  0  0  0  0  0
   58.8620   34.4860   45.1760 C   0  0  0  0  0  0  0  0  0  0  0  0
   58.3860   34.2020   46.4570 C   0  0  0  0  0  0  0  0  0  0  0  0
   57.6400   33.0400   46.6670 C   0  0  0  0  0  0  0  0  0  0  0  0
   57.3850   32.1990   45.6290 N   0  0  0  0  0  0  0  0  0  0  0  0
   58.0780   29.4320   45.2590 N   0  0  0  0  0  0  0  0  0  0  0  0
   58.8870   28.5250   44.4240 C   0  0  0  0  0  0  0  0  0  0  0  0
   60.3680   28.5480   44.8680 C   0  0  0  0  0  0  0  0  0  0  0  0
   60.5600   29.2660   46.0760 O   0  0  0  0  0  0  0  0  0  0  0  0
   59.6750   28.7840   47.0650 C   0  0  0  0  0  0  0  0  0  0  0  0
   58.2080   29.0860   46.6910 C   0  0  0  0  0  0  0  0  0  0  0  0
   55.4439   29.9928   43.2177 H   0  0  0  0  0  0  0  0  0  0  0  0
   55.5891   31.1958   44.5576 H   0  0  0  0  0  0  0  0  0  0  0  0
   58.9608   33.8235   43.1104 H   0  0  0  0  0  0  0  0  0  0  0  0
   59.4513   35.3972   44.9961 H   0  0  0  0  0  0  0  0  0  0  0  0
   58.5962   34.8861   47.2924 H   0  0  0  0  0  0  0  0  0  0  0  0
   57.2588   32.8051   47.6717 H   0  0  0  0  0  0  0  0  0  0  0  0
   58.4410   30.4070   45.1230 H   0  0  0  0  0  0  0  0  0  0  0  0
   58.4969   27.5010   44.5208 H   0  0  0  0  0  0  0  0  0  0  0  0
   58.8264   28.8594   43.3778 H   0  0  0  0  0  0  0  0  0  0  0  0
   60.7088   27.5125   45.0148 H   0  0  0  0  0  0  0  0  0  0  0  0
   60.9458   29.0552   44.0813 H   0  0  0  0  0  0  0  0  0  0  0  0
   59.8042   27.6961   47.1636 H   0  0  0  0  0  0  0  0  0  0  0  0
   59.9046   29.2877   48.0156 H   0  0  0  0  0  0  0  0  0  0  0  0
   57.5944   28.1977   46.9020 H   0  0  0  0  0  0  0  0  0  0  0  0
   57.8678   29.9452   47.2877 H   0  0  0  0  0  0  0  0  0  0  0  0
  1  2  2  0
  2  3  1  0
  3  4  1  0
  4  5  1  0
  5  6  2  0
  6  7  1  0
  7  8  2  0
  8  9  1  0
  9 10  2  0
  2 11  1  0
 11 12  1  0
 12 13  1  0
 13 14  1  0
 14 15  1  0
 15 16  1  0
 10  5  1  0
 16 11  1  0
  3 17  1  0
  3 18  1  0
  6 19  1  0
  7 20  1  0
  8 21  1  0
  9 22  1  0
 11 23  1  0
 12 24  1  0
 12 25  1  0
 13 26  1  0
 13 27  1  0
 15 28  1  0
 15 29  1  0
 16 30  1  0
 16 31  1  0
M  CHG  1  11   1
M  END
>  <UniqueID>  (41) 
40

>  <SMILES>  (41) 
O=C(CSc1ccccn1)[NH+]1CCOCC1

>  <Energy>  (41) 
35.367184529101664

>  <Genealogy>  (41) 
O=C(CSc1ccccn1)[NH+]1CCOCC1 (protonated)
O=C(CSc1ccccn1)[NH+]1CCOCC1 (3D coordinates assigned)
O=C(CSc1ccccn1)[NH+]1CCOCC1 (nonaromatic ring conformer: 35.367184529101664 kcal/mol)

>  <smiles>  (41) 
O=C(CSc1ccccn1)N1CCOCC1

>  <score_type>  (41) 
oracle

>  <origin>  (41) 
adg

>  <m_score__min__energy>  (41) 
-4.7800000000000002

>  <m_primary>  (41) 
energy

$$$$
41:0
     RDKit          3D

 53 54  0  0  0  0  0  0  0  0999 V2000
   59.7410   29.0890   48.6380 C   0  0  0  0  0  0  0  0  0  0  0  0
   58.8700   29.8720   49.6210 C   0  0  0  0  0  0  0  0  0  0  0  0
   59.6740   30.8790   50.4590 C   0  0  0  0  0  0  0  0  0  0  0  0
   59.1130   32.3090   50.4180 C   0  0  0  0  0  0  0  0  0  0  0  0
   58.7260   32.6920   49.0610 N   0  0  0  0  0  0  0  0  0  0  0  0
   59.2680   33.8420   48.3960 C   0  0  0  0  0  0  0  0  0  0  0  0
   60.0930   34.5890   48.9920 O   0  0  0  0  0  0  0  0  0  0  0  0
   58.7950   34.2050   47.0140 C   0  0  1  0  0  0  0  0  0  0  0  0
   59.9310   34.0330   45.9890 C   0  0  0  0  0  0  0  0  0  0  0  0
   61.0880   33.2600   46.5690 C   0  0  0  0  0  0  0  0  0  0  0  0
   60.9590   31.8850   46.8290 C   0  0  0  0  0  0  0  0  0  0  0  0
   62.0440   31.1560   47.3250 C   0  0  0  0  0  0  0  0  0  0  0  0
   63.2670   31.7930   47.5580 C   0  0  0  0  0  0  0  0  0  0  0  0
   63.4060   33.1580   47.2940 C   0  0  0  0  0  0  0  0  0  0  0  0
   62.3220   33.8900   46.7990 C   0  0  0  0  0  0  0  0  0  0  0  0
   57.6630   33.3530   46.6570 N   0  0  0  0  0  0  0  0  0  0  0  0
   57.7940   32.0540   46.0650 C   0  0  0  0  0  0  0  0  0  0  0  0
   58.0750   31.0650   46.7970 O   0  0  0  0  0  0  0  0  0  0  0  0
   57.6070   31.8810   44.6010 C   0  0  0  0  0  0  0  0  0  0  0  0
   58.1780   32.8090   43.7100 C   0  0  0  0  0  0  0  0  0  0  0  0
   58.0090   32.6640   42.3330 C   0  0  0  0  0  0  0  0  0  0  0  0
   57.2720   31.5890   41.8450 C   0  0  0  0  0  0  0  0  0  0  0  0
   56.7220   30.6970   42.7070 N   0  0  0  0  0  0  0  0  0  0  0  0
   56.8630   30.8070   44.0590 C   0  0  0  0  0  0  0  0  0  0  0  0
   56.2750   29.8540   44.9020 O   0  0  0  0  0  0  0  0  0  0  0  0
   56.8860   28.6120   45.2450 C   0  0  0  0  0  0  0  0  0  0  0  0
   58.3300   28.5700   44.7580 C   0  0  0  0  0  0  0  0  0  0  0  0
   60.4457   28.4555   49.1967 H   0  0  0  0  0  0  0  0  0  0  0  0
   59.1015   28.4562   48.0051 H   0  0  0  0  0  0  0  0  0  0  0  0
   60.3024   29.7920   48.0051 H   0  0  0  0  0  0  0  0  0  0  0  0
   58.1044   30.4202   49.0524 H   0  0  0  0  0  0  0  0  0  0  0  0
   58.4215   29.1468   50.3159 H   0  0  0  0  0  0  0  0  0  0  0  0
   59.6754   30.5370   51.5045 H   0  0  0  0  0  0  0  0  0  0  0  0
   60.6850   30.9194   50.0274 H   0  0  0  0  0  0  0  0  0  0  0  0
   58.2299   32.3658   51.0714 H   0  0  0  0  0  0  0  0  0  0  0  0
   59.8981   32.9986   50.7616 H   0  0  0  0  0  0  0  0  0  0  0  0
   57.9740   32.1400   48.5880 H   0  0  0  0  0  0  0  0  0  0  0  0
   58.4826   35.2597   47.0048 H   0  0  0  0  0  0  0  0  0  0  0  0
   59.5431   33.4919   45.1133 H   0  0  0  0  0  0  0  0  0  0  0  0
   60.2924   35.0322   45.7043 H   0  0  0  0  0  0  0  0  0  0  0  0
   60.0000   31.3800   46.6414 H   0  0  0  0  0  0  0  0  0  0  0  0
   61.9357   30.0811   47.5320 H   0  0  0  0  0  0  0  0  0  0  0  0
   64.1200   31.2191   47.9493 H   0  0  0  0  0  0  0  0  0  0  0  0
   64.3691   33.6574   47.4757 H   0  0  0  0  0  0  0  0  0  0  0  0
   62.4364   34.9637   46.5889 H   0  0  0  0  0  0  0  0  0  0  0  0
   58.7618   33.6547   44.1024 H   0  0  0  0  0  0  0  0  0  0  0  0
   58.4541   33.3925   41.6393 H   0  0  0  0  0  0  0  0  0  0  0  0
   57.1354   31.4625   40.7609 H   0  0  0  0  0  0  0  0  0  0  0  0
   56.8698   28.4912   46.3382 H   0  0  0  0  0  0  0  0  0  0  0  0
   56.3261   27.7970   44.7630 H   0  0  0  0  0  0  0  0  0  0  0  0
   59.0085   28.5503   45.6236 H   0  0  0  0  0  0  0  0  0  0  0  0
   58.4856   27.6669   44.1495 H   0  0  0  0  0  0  0  0  0  0  0  0
   58.5378   29.4625   44.1495 H   0  0  0  0  0  0  0  0  0  0  0  0
  1  2  1  0
  2  3  1  0
  3  4  1  0
  4  5  1  0
  5  6  1  0
  6  7  2  0
  6  8  1  0
  8  9  1  0
  9 10  1  0
 10 11  2  0
 11 12  1  0
 12 13  2  0
 13 14  1  0
 14 15  2  0
  8 16  1  0
 16 17  1  0
 17 18  2  0
 17 19  1  0
 19 20  2  0
 20 21  1  0
 21 22  2  0
 22 23  1  0
 23 24  2  0
 24 25  1  0
 25 26  1  0
 26 27  1  0
 15 10  1  0
 24 19  1  0
  1 28  1  0
  1 29  1  0
  1 30  1  0
  2 31  1  0
  2 32  1  0
  3 33  1  0
  3 34  1  0
  4 35  1  0
  4 36  1  0
  5 37  1  0
  8 38  1  1
  9 39  1  0
  9 40  1  0
 11 41  1  0
 12 42  1  0
 13 43  1  0
 14 44  1  0
 15 45  1  0
 20 46  1  0
 21 47  1  0
 22 48  1  0
 26 49  1  0
 26 50  1  0
 27 51  1  0
 27 52  1  0
 27 53  1  0
M  CHG  1  16  -1
M  END
>  <UniqueID>  (42) 
41

>  <SMILES>  (42) 
CCCCNC(=O)[C@@H](Cc1ccccc1)[N-]C(=O)c1cccnc1OCC

>  <Energy>  (42) 
38.152158841277746

>  <Genealogy>  (42) 
CCCCNC(=O)C(Cc1ccccc1)[N-]C(=O)c1cccnc1OCC (protonated)
CCCCNC(=O)[C@@H](Cc1ccccc1)[N-]C(=O)c1cccnc1OCC (chirality)
CCCCNC(=O)[C@@H](Cc1ccccc1)[N-]C(=O)c1cccnc1OCC (3D coordinates assigned)
CCCCNC(=O)[C@@H](Cc1ccccc1)[N-]C(=O)c1cccnc1OCC (optimized conformer: 38.152158841277746 kcal/mol)

>  <smiles>  (42) 
CCCCNC(=O)C(Cc1ccccc1)NC(=O)c1cccnc1OCC

>  <score_type>  (42) 
oracle

>  <origin>  (42) 
adg

>  <m_score__min__energy>  (42) 
-8.5399999999999991

>  <m_primary>  (42) 
energy

$$$$
42:0
     RDKit          3D

 41 43  0  0  0  0  0  0  0  0999 V2000
   56.4070   24.3730   44.8810 C   0  0  0  0  0  0  0  0  0  0  0  0
   56.2350   25.8650   45.8360 S   0  0  0  0  0  0  0  0  0  0  0  0
   56.8260   25.6310   47.1970 O   0  0  0  0  0  0  0  0  0  0  0  0
   54.7820   26.2190   45.9850 O   0  0  0  0  0  0  0  0  0  0  0  0
   57.0850   27.1660   45.0680 N   0  0  0  0  0  0  0  0  0  0  0  0
   57.9800   28.0330   45.7830 C   0  0  0  0  0  0  0  0  0  0  0  0
   58.8910   27.4840   46.6990 C   0  0  0  0  0  0  0  0  0  0  0  0
   59.8300   28.2880   47.3420 C   0  0  0  0  0  0  0  0  0  0  0  0
   59.8900   29.6650   47.0790 C   0  0  0  0  0  0  0  0  0  0  0  0
   60.8660   30.4960   47.7390 N   0  0  0  0  0  0  0  0  0  0  0  0
   61.6360   31.4460   47.1660 C   0  0  0  0  0  0  0  0  0  0  0  0
   62.4480   32.0320   48.1140 C   0  0  0  0  0  0  0  0  0  0  0  0
   62.1610   31.4150   49.3140 C   0  0  0  0  0  0  0  0  0  0  0  0
   61.1850   30.4760   49.0520 C   0  0  0  0  0  0  0  0  0  0  0  0
   58.9780   30.2210   46.1670 C   0  0  0  0  0  0  0  0  0  0  0  0
   58.0140   29.4250   45.5200 C   0  0  0  0  0  0  0  0  0  0  0  0
   57.0310   30.0850   44.6290 C   0  0  0  0  0  0  0  0  0  0  0  0
   56.5430   29.4610   43.6490 O   0  0  0  0  0  0  0  0  0  0  0  0
   56.6480   31.4440   44.8800 N   0  0  0  0  0  0  0  0  0  0  0  0
   57.5260   32.5420   45.1690 C   0  0  0  0  0  0  0  0  0  0  0  0
   57.5010   33.1030   46.4530 C   0  0  0  0  0  0  0  0  0  0  0  0
   58.3250   34.1870   46.7700 C   0  0  0  0  0  0  0  0  0  0  0  0
   59.1690   34.7300   45.7980 C   0  0  0  0  0  0  0  0  0  0  0  0
   59.1840   34.1950   44.5070 C   0  0  0  0  0  0  0  0  0  0  0  0
   58.3610   33.1090   44.1890 C   0  0  0  0  0  0  0  0  0  0  0  0
   56.5062   23.5128   45.5594 H   0  0  0  0  0  0  0  0  0  0  0  0
   55.5183   24.2392   44.2467 H   0  0  0  0  0  0  0  0  0  0  0  0
   57.3028   24.4449   44.2467 H   0  0  0  0  0  0  0  0  0  0  0  0
   56.8710   27.3560   44.0630 H   0  0  0  0  0  0  0  0  0  0  0  0
   58.8633   26.4052   46.9120 H   0  0  0  0  0  0  0  0  0  0  0  0
   60.5303   27.8394   48.0620 H   0  0  0  0  0  0  0  0  0  0  0  0
   61.6181   31.7132   46.0991 H   0  0  0  0  0  0  0  0  0  0  0  0
   63.1813   32.8346   47.9462 H   0  0  0  0  0  0  0  0  0  0  0  0
   62.6209   31.6299   50.2898 H   0  0  0  0  0  0  0  0  0  0  0  0
   60.7331   29.8094   49.8013 H   0  0  0  0  0  0  0  0  0  0  0  0
   59.0178   31.2995   45.9542 H   0  0  0  0  0  0  0  0  0  0  0  0
   56.8279   32.6873   47.2173 H   0  0  0  0  0  0  0  0  0  0  0  0
   58.3088   34.6122   47.7844 H   0  0  0  0  0  0  0  0  0  0  0  0
   59.8219   35.5789   46.0489 H   0  0  0  0  0  0  0  0  0  0  0  0
   59.8433   34.6280   43.7403 H   0  0  0  0  0  0  0  0  0  0  0  0
   58.3669   32.6971   43.1690 H   0  0  0  0  0  0  0  0  0  0  0  0
  1  2  1  0
  2  3  2  0
  2  4  2  0
  2  5  1  0
  5  6  1  0
  6  7  2  0
  7  8  1  0
  8  9  2  0
  9 10  1  0
 10 11  1  0
 11 12  2  0
 12 13  1  0
 13 14  2  0
  9 15  1  0
 15 16  2  0
 16 17  1  0
 17 18  2  0
 17 19  1  0
 19 20  1  0
 20 21  2  0
 21 22  1  0
 22 23  2  0
 23 24  1  0
 24 25  2  0
 16  6  1  0
 25 20  1  0
 14 10  1  0
  1 26  1  0
  1 27  1  0
  1 28  1  0
  5 29  1  0
  7 30  1  0
  8 31  1  0
 11 32  1  0
 12 33  1  0
 13 34  1  0
 14 35  1  0
 15 36  1  0
 21 37  1  0
 22 38  1  0
 23 39  1  0
 24 40  1  0
 25 41  1  0
M  CHG  1  19  -1
M  END
>  <UniqueID>  (43) 
42

>  <SMILES>  (43) 
CS(=O)(=O)Nc1ccc(-n2cccc2)cc1C(=O)[N-]c1ccccc1

>  <Energy>  (43) 
80.39631036382305

>  <Genealogy>  (43) 
CS(=O)(=O)Nc1ccc(-n2cccc2)cc1C(=O)[N-]c1ccccc1 (protonated)
CS(=O)(=O)Nc1ccc(-n2cccc2)cc1C(=O)[N-]c1ccccc1 (3D coordinates assigned)
CS(=O)(=O)Nc1ccc(-n2cccc2)cc1C(=O)[N-]c1ccccc1 (optimized conformer: 80.39631036382305 kcal/mol)

>  <smiles>  (43) 
CS(=O)(=O)Nc1ccc(-n2cccc2)cc1C(=O)Nc1ccccc1

>  <score_type>  (43) 
oracle

>  <origin>  (43) 
adg

>  <m_score__min__energy>  (43) 
-10.43

>  <m_primary>  (43) 
energy

$$$$
43:0
     RDKit          3D

 38 41  0  0  0  0  0  0  0  0999 V2000
   57.4250   30.1820   44.1450 C   0  0  0  0  0  0  0  0  0  0  0  0
   57.2930   30.6000   45.5000 O   0  0  0  0  0  0  0  0  0  0  0  0
   57.7850   31.8110   46.0070 C   0  0  0  0  0  0  0  0  0  0  0  0
   57.2350   33.0570   45.6520 C   0  0  0  0  0  0  0  0  0  0  0  0
   57.7620   34.2360   46.1860 C   0  0  0  0  0  0  0  0  0  0  0  0
   58.8400   34.1860   47.0720 C   0  0  0  0  0  0  0  0  0  0  0  0
   59.4060   32.9510   47.4280 C   0  0  0  0  0  0  0  0  0  0  0  0
   60.5170   32.8930   48.3410 N   0  0  0  0  0  0  0  0  0  0  0  0
   60.5320   32.5580   49.6660 C   0  0  0  0  0  0  0  0  0  0  0  0
   59.3290   32.3330   50.4950 C   0  0  0  0  0  0  0  0  0  0  0  0
   58.9080   33.3360   51.3830 C   0  0  0  0  0  0  0  0  0  0  0  0
   57.7740   33.1430   52.1790 C   0  0  0  0  0  0  0  0  0  0  0  0
   57.0460   31.9540   52.0840 C   0  0  0  0  0  0  0  0  0  0  0  0
   57.4450   30.9600   51.1860 C   0  0  0  0  0  0  0  0  0  0  0  0
   58.5780   31.1470   50.3870 C   0  0  0  0  0  0  0  0  0  0  0  0
   58.9120   30.1910   49.4850 F   0  0  0  0  0  0  0  0  0  0  0  0
   61.7890   32.4660   50.1850 N   0  0  0  0  0  0  0  0  0  0  0  0
   62.5690   32.7690   49.1340 C   0  0  0  0  0  0  0  0  0  0  0  0
   63.9540   32.8030   49.0490 C   0  0  0  0  0  0  0  0  0  0  0  0
   64.9640   32.4690   50.4440 Cl  0  0  0  0  0  0  0  0  0  0  0  0
   64.5100   33.0940   47.8320 N   0  0  0  0  0  0  0  0  0  0  0  0
   63.7250   33.3350   46.7320 C   0  0  0  0  0  0  0  0  0  0  0  0
   62.3620   33.2930   46.8280 N   0  0  0  0  0  0  0  0  0  0  0  0
   61.8170   33.0240   48.0400 C   0  0  0  0  0  0  0  0  0  0  0  0
   58.8670   31.7690   46.8960 C   0  0  0  0  0  0  0  0  0  0  0  0
   57.7561   29.1334   44.1154 H   0  0  0  0  0  0  0  0  0  0  0  0
   56.4540   30.2744   43.6365 H   0  0  0  0  0  0  0  0  0  0  0  0
   58.1669   30.8153   43.6365 H   0  0  0  0  0  0  0  0  0  0  0  0
   56.3877   33.1029   44.9520 H   0  0  0  0  0  0  0  0  0  0  0  0
   57.3261   35.2067   45.9074 H   0  0  0  0  0  0  0  0  0  0  0  0
   59.2474   35.1172   47.4926 H   0  0  0  0  0  0  0  0  0  0  0  0
   59.4724   34.2776   51.4530 H   0  0  0  0  0  0  0  0  0  0  0  0
   57.4550   33.9280   52.8804 H   0  0  0  0  0  0  0  0  0  0  0  0
   56.1589   31.8003   52.7160 H   0  0  0  0  0  0  0  0  0  0  0  0
   56.8663   30.0278   51.1073 H   0  0  0  0  0  0  0  0  0  0  0  0
   65.5490   33.1280   47.7340 H   0  0  0  0  0  0  0  0  0  0  0  0
   64.1967   33.5639   45.7650 H   0  0  0  0  0  0  0  0  0  0  0  0
   59.2993   30.7983   47.1805 H   0  0  0  0  0  0  0  0  0  0  0  0
  1  2  1  0
  2  3  1  0
  3  4  2  0
  4  5  1  0
  5  6  2  0
  6  7  1  0
  7  8  1  0
  8  9  1  0
  9 10  1  0
 10 11  2  0
 11 12  1  0
 12 13  2  0
 13 14  1  0
 14 15  2  0
 15 16  1  0
  9 17  2  0
 17 18  1  0
 18 19  2  0
 19 20  1  0
 19 21  1  0
 21 22  2  0
 22 23  1  0
 23 24  2  0
  7 25  2  0
 25  3  1  0
 24  8  1  0
 15 10  1  0
 24 18  1  0
  1 26  1  0
  1 27  1  0
  1 28  1  0
  4 29  1  0
  5 30  1  0
  6 31  1  0
 11 32  1  0
 12 33  1  0
 13 34  1  0
 14 35  1  0
 21 36  1  0
 22 37  1  0
 25 38  1  0
M  CHG  1  21   1
M  END
>  <UniqueID>  (44) 
43

>  <SMILES>  (44) 
COc1cccc(-n2c(-c3ccccc3F)nc3c(Cl)[nH+]cnc32)c1

>  <Energy>  (44) 
92.71775290082216

>  <Genealogy>  (44) 
COc1cccc(-n2c(-c3ccccc3F)nc3c(Cl)[nH+]cnc32)c1 (protonated)
COc1cccc(-n2c(-c3ccccc3F)nc3c(Cl)[nH+]cnc32)c1 (3D coordinates assigned)
COc1cccc(-n2c(-c3ccccc3F)nc3c(Cl)[nH+]cnc32)c1 (optimized conformer: 92.71775290082216 kcal/mol)

>  <smiles>  (44) 
COc1cccc(-n2c(-c3ccccc3F)nc3c(Cl)ncnc32)c1

>  <score_type>  (44) 
oracle

>  <origin>  (44) 
adg

>  <m_score__min__energy>  (44) 
-6.4800000000000004

>  <m_primary>  (44) 
energy

$$$$
44:0
     RDKit          3D

 47 48  0  0  0  0  0  0  0  0999 V2000
   60.8230   30.0180   46.3380 C   0  0  0  0  0  0  0  0  0  0  0  0
   61.0890   30.6560   47.5820 O   0  0  0  0  0  0  0  0  0  0  0  0
   61.9590   31.7430   47.7560 C   0  0  0  0  0  0  0  0  0  0  0  0
   62.1130   32.7290   46.7610 C   0  0  0  0  0  0  0  0  0  0  0  0
   63.0110   33.7840   46.9420 C   0  0  0  0  0  0  0  0  0  0  0  0
   63.7690   33.8630   48.1100 C   0  0  0  0  0  0  0  0  0  0  0  0
   63.6240   32.8960   49.1050 C   0  0  0  0  0  0  0  0  0  0  0  0
   62.7120   31.8370   48.9480 C   0  0  0  0  0  0  0  0  0  0  0  0
   62.5590   30.8150   50.0550 C   0  0  0  0  0  0  0  0  0  0  0  0
   61.2090   30.8450   50.6420 N   0  0  0  0  0  0  0  0  0  0  0  0
   60.9120   31.7480   51.7580 C   0  0  0  0  0  0  0  0  0  0  0  0
   60.2580   29.8030   50.3540 C   0  0  0  0  0  0  0  0  0  0  0  0
   60.5920   28.5970   50.5010 O   0  0  0  0  0  0  0  0  0  0  0  0
   58.8530   30.1190   49.9300 C   0  0  0  0  0  0  0  0  0  0  0  0
   58.8420   30.9770   48.7480 N   0  0  0  0  0  0  0  0  0  0  0  0
   58.7470   32.4070   48.8300 C   0  0  0  0  0  0  0  0  0  0  0  0
   58.5170   32.9590   49.9400 O   0  0  0  0  0  0  0  0  0  0  0  0
   58.8780   33.2470   47.6180 C   0  0  0  0  0  0  0  0  0  0  0  0
   59.5190   34.4950   47.7190 C   0  0  0  0  0  0  0  0  0  0  0  0
   59.6430   35.3210   46.6010 C   0  0  0  0  0  0  0  0  0  0  0  0
   59.1370   34.9110   45.3690 C   0  0  0  0  0  0  0  0  0  0  0  0
   58.5160   33.6670   45.2460 C   0  0  0  0  0  0  0  0  0  0  0  0
   58.3910   32.8150   46.3620 C   0  0  0  0  0  0  0  0  0  0  0  0
   57.8160   31.5380   46.2500 O   0  0  0  0  0  0  0  0  0  0  0  0
   57.7890   30.7620   45.0560 C   0  0  0  0  0  0  0  0  0  0  0  0
   60.4056   29.0169   46.5212 H   0  0  0  0  0  0  0  0  0  0  0  0
   60.0999   30.6176   45.7656 H   0  0  0  0  0  0  0  0  0  0  0  0
   61.7579   29.9264   45.7656 H   0  0  0  0  0  0  0  0  0  0  0  0
   61.5220   32.6676   45.8353 H   0  0  0  0  0  0  0  0  0  0  0  0
   63.1202   34.5527   46.1628 H   0  0  0  0  0  0  0  0  0  0  0  0
   64.4823   34.6891   48.2469 H   0  0  0  0  0  0  0  0  0  0  0  0
   64.2289   32.9625   50.0213 H   0  0  0  0  0  0  0  0  0  0  0  0
   62.7462   29.8125   49.6428 H   0  0  0  0  0  0  0  0  0  0  0  0
   63.2826   31.0572   50.8473 H   0  0  0  0  0  0  0  0  0  0  0  0
   61.0844   31.2239   52.7096 H   0  0  0  0  0  0  0  0  0  0  0  0
   61.5676   32.6295   51.7009 H   0  0  0  0  0  0  0  0  0  0  0  0
   59.8612   32.0682   51.7009 H   0  0  0  0  0  0  0  0  0  0  0  0
   58.3279   29.1807   49.6980 H   0  0  0  0  0  0  0  0  0  0  0  0
   58.3504   30.6495   50.7521 H   0  0  0  0  0  0  0  0  0  0  0  0
   58.9040   30.5230   47.8100 H   0  0  0  0  0  0  0  0  0  0  0  0
   59.9258   34.8225   48.6871 H   0  0  0  0  0  0  0  0  0  0  0  0
   60.1411   36.2975   46.6924 H   0  0  0  0  0  0  0  0  0  0  0  0
   59.2271   35.5688   44.4920 H   0  0  0  0  0  0  0  0  0  0  0  0
   58.1208   33.3488   44.2700 H   0  0  0  0  0  0  0  0  0  0  0  0
   57.7518   29.6933   45.3140 H   0  0  0  0  0  0  0  0  0  0  0  0
   56.8996   31.0279   44.4659 H   0  0  0  0  0  0  0  0  0  0  0  0
   58.6948   30.9654   44.4659 H   0  0  0  0  0  0  0  0  0  0  0  0
  1  2  1  0
  2  3  1  0
  3  4  2  0
  4  5  1  0
  5  6  2  0
  6  7  1  0
  7  8  2  0
  8  9  1  0
  9 10  1  0
 10 11  1  0
 10 12  1  0
 12 13  2  0
 12 14  1  0
 14 15  1  0
 15 16  1  0
 16 17  2  0
 16 18  1  0
 18 19  2  0
 19 20  1  0
 20 21  2  0
 21 22  1  0
 22 23  2  0
 23 24  1  0
 24 25  1  0
  8  3  1  0
 23 18  1  0
  1 26  1  0
  1 27  1  0
  1 28  1  0
  4 29  1  0
  5 30  1  0
  6 31  1  0
  7 32  1  0
  9 33  1  0
  9 34  1  0
 11 35  1  0
 11 36  1  0
 11 37  1  0
 14 38  1  0
 14 39  1  0
 15 40  1  0
 19 41  1  0
 20 42  1  0
 21 43  1  0
 22 44  1  0
 25 45  1  0
 25 46  1  0
 25 47  1  0
M  END
>  <UniqueID>  (45) 
44

>  <SMILES>  (45) 
COc1ccccc1CN(C)C(=O)CNC(=O)c1ccccc1OC

>  <Energy>  (45) 
49.923158273661564

>  <Genealogy>  (45) 
COc1ccccc1CN(C)C(=O)CNC(=O)c1ccccc1OC (3D coordinates assigned)
COc1ccccc1CN(C)C(=O)CNC(=O)c1ccccc1OC (optimized conformer: 49.923158273661564 kcal/mol)

>  <smiles>  (45) 
COc1ccccc1CN(C)C(=O)CNC(=O)c1ccccc1OC

>  <score_type>  (45) 
oracle

>  <origin>  (45) 
adg

>  <m_score__min__energy>  (45) 
-7.0499999999999998

>  <m_primary>  (45) 
energy

$$$$
45:0
     RDKit          3D

 55 58  0  0  0  0  0  0  0  0999 V2000
   64.7760   31.3720   51.3550 C   0  0  0  0  0  0  0  0  0  0  0  0
   63.6570   31.0340   50.5890 C   0  0  0  0  0  0  0  0  0  0  0  0
   63.3980   31.7090   49.3920 C   0  0  0  0  0  0  0  0  0  0  0  0
   64.2630   32.7250   48.9520 C   0  0  0  0  0  0  0  0  0  0  0  0
   63.9480   33.4850   47.6930 C   0  0  0  0  0  0  0  0  0  0  0  0
   62.7120   33.0490   47.1600 O   0  0  0  0  0  0  0  0  0  0  0  0
   61.6390   33.8070   47.6890 C   0  0  0  0  0  0  0  0  0  0  0  0
   60.3540   32.9220   47.8340 C   0  0  2  0  0  0  0  0  0  0  0  0
   60.7380   31.5080   47.5700 N   0  0  0  0  0  0  0  0  0  0  0  0
   59.6220   30.7760   47.2520 O   0  0  0  0  0  0  0  0  0  0  0  0
   59.8560   30.0660   46.0520 C   0  0  0  0  0  0  0  0  0  0  0  0
   58.6060   30.1000   45.2230 C   0  0  0  0  0  0  0  0  0  0  0  0
   57.5120   29.2920   45.5730 C   0  0  0  0  0  0  0  0  0  0  0  0
   56.3330   29.3360   44.8220 C   0  0  0  0  0  0  0  0  0  0  0  0
   56.2390   30.1880   43.7190 C   0  0  0  0  0  0  0  0  0  0  0  0
   57.3180   31.0040   43.3690 C   0  0  0  0  0  0  0  0  0  0  0  0
   58.4980   30.9650   44.1200 C   0  0  0  0  0  0  0  0  0  0  0  0
   59.2950   33.3910   46.7860 C   0  0  0  0  0  0  0  0  0  0  0  0
   57.9150   33.0850   46.9130 C   0  0  0  0  0  0  0  0  0  0  0  0
   56.9850   33.5200   45.9630 C   0  0  0  0  0  0  0  0  0  0  0  0
   57.3990   34.2750   44.8700 C   0  0  0  0  0  0  0  0  0  0  0  0
   58.7430   34.6050   44.7240 C   0  0  0  0  0  0  0  0  0  0  0  0
   59.6790   34.1740   45.6670 C   0  0  0  0  0  0  0  0  0  0  0  0
   59.7850   32.9800   49.3040 C   0  0  1  0  0  0  0  0  0  0  0  0
   58.8610   31.9400   49.7740 C   0  0  0  0  0  0  0  0  0  0  0  0
   60.2720   31.9110   50.2010 N   0  0  0  0  0  0  0  0  0  0  0  0
   65.3820   33.0630   49.7310 C   0  0  0  0  0  0  0  0  0  0  0  0
   65.6370   32.3850   50.9270 C   0  0  0  0  0  0  0  0  0  0  0  0
   64.9789   30.8396   52.2960 H   0  0  0  0  0  0  0  0  0  0  0  0
   62.9795   30.2364   50.9279 H   0  0  0  0  0  0  0  0  0  0  0  0
   62.5143   31.4437   48.7931 H   0  0  0  0  0  0  0  0  0  0  0  0
   63.8872   34.5592   47.9217 H   0  0  0  0  0  0  0  0  0  0  0  0
   64.7430   33.3048   46.9544 H   0  0  0  0  0  0  0  0  0  0  0  0
   61.9240   34.1946   48.6782 H   0  0  0  0  0  0  0  0  0  0  0  0
   61.4205   34.6378   47.0019 H   0  0  0  0  0  0  0  0  0  0  0  0
   61.1920   31.1100   48.4310 H   0  0  0  0  0  0  0  0  0  0  0  0
   61.3930   31.4760   46.7510 H   0  0  0  0  0  0  0  0  0  0  0  0
   60.6810   30.5372   45.4977 H   0  0  0  0  0  0  0  0  0  0  0  0
   60.1277   29.0245   46.2789 H   0  0  0  0  0  0  0  0  0  0  0  0
   57.5827   28.6213   46.4420 H   0  0  0  0  0  0  0  0  0  0  0  0
   55.4798   28.6997   45.0999 H   0  0  0  0  0  0  0  0  0  0  0  0
   55.3137   30.2166   43.1248 H   0  0  0  0  0  0  0  0  0  0  0  0
   57.2397   31.6773   42.5027 H   0  0  0  0  0  0  0  0  0  0  0  0
   59.3437   31.6131   43.8465 H   0  0  0  0  0  0  0  0  0  0  0  0
   57.5702   32.4946   47.7747 H   0  0  0  0  0  0  0  0  0  0  0  0
   55.9217   33.2641   46.0805 H   0  0  0  0  0  0  0  0  0  0  0  0
   56.6651   34.6105   44.1225 H   0  0  0  0  0  0  0  0  0  0  0  0
   59.0693   35.2072   43.8632 H   0  0  0  0  0  0  0  0  0  0  0  0
   60.7367   34.4476   45.5392 H   0  0  0  0  0  0  0  0  0  0  0  0
   59.7394   34.0790   49.3077 H   0  0  0  0  0  0  0  0  0  0  0  0
   58.0730   32.1923   50.4988 H   0  0  0  0  0  0  0  0  0  0  0  0
   58.1835   31.2250   49.2845 H   0  0  0  0  0  0  0  0  0  0  0  0
   60.3270   32.3030   51.1700 H   0  0  0  0  0  0  0  0  0  0  0  0
   66.0597   33.8634   49.3991 H   0  0  0  0  0  0  0  0  0  0  0  0
   66.5169   32.6498   51.5316 H   0  0  0  0  0  0  0  0  0  0  0  0
  1  2  2  0
  2  3  1  0
  3  4  2  0
  4  5  1  0
  5  6  1  0
  6  7  1  0
  8  7  1  1
  8  9  1  0
  9 10  1  0
 10 11  1  0
 11 12  1  0
 12 13  2  0
 13 14  1  0
 14 15  2  0
 15 16  1  0
 16 17  2  0
  8 18  1  0
 18 19  2  0
 19 20  1  0
 20 21  2  0
 21 22  1  0
 22 23  2  0
  8 24  1  0
 24 25  1  0
 25 26  1  0
  4 27  1  0
 27 28  2  0
 28  1  1  0
 17 12  1  0
 23 18  1  0
 26 24  1  0
  1 29  1  0
  2 30  1  0
  3 31  1  0
  5 32  1  0
  5 33  1  0
  7 34  1  0
  7 35  1  0
  9 36  1  0
  9 37  1  0
 11 38  1  0
 11 39  1  0
 13 40  1  0
 14 41  1  0
 15 42  1  0
 16 43  1  0
 17 44  1  0
 19 45  1  0
 20 46  1  0
 21 47  1  0
 22 48  1  0
 23 49  1  0
 24 50  1  1
 25 51  1  0
 25 52  1  0
 26 53  1  0
 27 54  1  0
 28 55  1  0
M  CHG  1   9   1
M  END
>  <UniqueID>  (46) 
45

>  <SMILES>  (46) 
c1ccc(COC[C@]([NH2+]OCc2ccccc2)(c2ccccc2)[C@H]2CN2)cc1

>  <Energy>  (46) 
411.67380309070694

>  <Genealogy>  (46) 
c1ccc(COCC([NH2+]OCc2ccccc2)(c2ccccc2)C2CN2)cc1 (protonated)
c1ccc(COC[C@]([NH2+]OCc2ccccc2)(c2ccccc2)[C@H]2CN2)cc1 (chirality)
c1ccc(COC[C@]([NH2+]OCc2ccccc2)(c2ccccc2)[C@H]2CN2)cc1 (3D coordinates assigned)
c1ccc(COC[C@]([NH2+]OCc2ccccc2)(c2ccccc2)[C@H]2CN2)cc1 (nonaromatic ring conformer: 411.67380309070694 kcal/mol)

>  <smiles>  (46) 
c1ccc(COCC(NOCc2ccccc2)(c2ccccc2)C2CN2)cc1

>  <score_type>  (46) 
oracle

>  <origin>  (46) 
adg

>  <m_score__min__energy>  (46) 
-6.3200000000000003

>  <m_primary>  (46) 
energy

$$$$
