0:0
     RDKit          3D

 83 87  0  0  0  0  0  0  0  0999 V2000
   68.0390   33.9350   50.7650 C   0  0  0  0  0  0  0  0  0  0  0  0
   67.2830   32.9980   50.0030 O   0  0  0  0  0  0  0  0  0  0  0  0
   66.5320   31.9450   50.5530 C   0  0  0  0  0  0  0  0  0  0  0  0
   67.1480   30.8290   51.1520 C   0  0  0  0  0  0  0  0  0  0  0  0
   66.3710   29.8080   51.7080 C   0  0  0  0  0  0  0  0  0  0  0  0
   64.9780   29.8920   51.6830 C   0  0  0  0  0  0  0  0  0  0  0  0
   64.3560   30.9930   51.0920 C   0  0  0  0  0  0  0  0  0  0  0  0
   65.1240   32.0210   50.5180 C   0  0  0  0  0  0  0  0  0  0  0  0
   64.4640   33.1340   49.8860 N   0  0  0  0  0  0  0  0  0  0  0  0
   64.3050   33.1690   48.4300 C   0  0  0  0  0  0  0  0  0  0  0  0
   63.0130   33.9150   48.0510 C   0  0  0  0  0  0  0  0  0  0  0  0
   61.9180   33.6550   49.0180 N   0  0  0  0  0  0  0  0  0  0  0  0
   61.4870   32.2310   49.0580 C   0  0  0  0  0  0  0  0  0  0  0  0
   61.6540   31.5130   47.7040 C   0  0  0  0  0  0  0  0  0  0  0  0
   60.7840   30.2500   47.6340 C   0  0  0  0  0  0  0  0  0  0  0  0
   60.1070   30.1060   46.2630 C   0  0  0  0  0  0  0  0  0  0  0  0
   58.9490   29.2710   46.3450 O   0  0  0  0  0  0  0  0  0  0  0  0
   58.9340   27.8730   46.1910 C   0  0  0  0  0  0  0  0  0  0  0  0
   60.0520   27.0890   46.5270 C   0  0  0  0  0  0  0  0  0  0  0  0
   60.0360   25.7120   46.3450 C   0  0  0  0  0  0  0  0  0  0  0  0
   58.9090   25.0790   45.8140 C   0  0  0  0  0  0  0  0  0  0  0  0
   58.9210   23.6880   45.6170 C   0  0  0  0  0  0  0  0  0  0  0  0
   57.8080   23.0450   45.0770 C   0  0  0  0  0  0  0  0  0  0  0  0
   56.6750   23.7770   44.7340 C   0  0  0  0  0  0  0  0  0  0  0  0
   56.6440   25.1600   44.9280 C   0  0  0  0  0  0  0  0  0  0  0  0
   57.7590   25.8410   45.4710 C   0  0  0  0  0  0  0  0  0  0  0  0
   57.7690   27.2520   45.6780 C   0  0  0  0  0  0  0  0  0  0  0  0
   56.5660   28.1180   45.3420 C   0  0  0  0  0  0  0  0  0  0  0  0
   56.9100   29.1360   44.2550 C   0  0  0  0  0  0  0  0  0  0  0  0
   57.0230   30.4750   44.8610 N   0  0  0  0  0  0  0  0  0  0  0  0
   57.8260   31.3890   44.0370 C   0  0  0  0  0  0  0  0  0  0  0  0
   57.4050   32.8410   44.3010 C   0  0  0  0  0  0  0  0  0  0  0  0
   58.1640   33.4070   45.4710 C   0  0  0  0  0  0  0  0  0  0  0  0
   57.9360   32.9170   46.7680 C   0  0  0  0  0  0  0  0  0  0  0  0
   58.6170   33.4860   47.8480 C   0  0  0  0  0  0  0  0  0  0  0  0
   59.4900   34.5070   47.6420 N   0  0  0  0  0  0  0  0  0  0  0  0
   59.7250   35.0060   46.4000 C   0  0  0  0  0  0  0  0  0  0  0  0
   59.0610   34.4700   45.2910 C   0  0  0  0  0  0  0  0  0  0  0  0
   62.2650   34.1510   50.3820 C   0  0  0  0  0  0  0  0  0  0  0  0
   63.7770   34.1490   50.6890 C   0  0  0  0  0  0  0  0  0  0  0  0
   67.8853   33.7445   51.8374 H   0  0  0  0  0  0  0  0  0  0  0  0
   69.1067   33.8280   50.5229 H   0  0  0  0  0  0  0  0  0  0  0  0
   67.7087   34.9559   50.5229 H   0  0  0  0  0  0  0  0  0  0  0  0
   68.2454   30.7603   51.1826 H   0  0  0  0  0  0  0  0  0  0  0  0
   66.8593   28.9356   52.1667 H   0  0  0  0  0  0  0  0  0  0  0  0
   64.3705   29.0907   52.1289 H   0  0  0  0  0  0  0  0  0  0  0  0
   63.2580   31.0566   51.0753 H   0  0  0  0  0  0  0  0  0  0  0  0
   65.1669   33.6862   47.9833 H   0  0  0  0  0  0  0  0  0  0  0  0
   64.2466   32.1377   48.0517 H   0  0  0  0  0  0  0  0  0  0  0  0
   63.2195   34.9952   48.0301 H   0  0  0  0  0  0  0  0  0  0  0  0
   62.6884   33.5533   47.0642 H   0  0  0  0  0  0  0  0  0  0  0  0
   61.0910   34.2140   48.6960 H   0  0  0  0  0  0  0  0  0  0  0  0
   62.0902   31.7032   49.8114 H   0  0  0  0  0  0  0  0  0  0  0  0
   60.4157   32.2183   49.3073 H   0  0  0  0  0  0  0  0  0  0  0  0
   61.3578   32.1979   46.8958 H   0  0  0  0  0  0  0  0  0  0  0  0
   62.7076   31.2165   47.5947 H   0  0  0  0  0  0  0  0  0  0  0  0
   61.4180   29.3692   47.8135 H   0  0  0  0  0  0  0  0  0  0  0  0
   59.9981   30.3304   48.3994 H   0  0  0  0  0  0  0  0  0  0  0  0
   59.8071   31.1017   45.9042 H   0  0  0  0  0  0  0  0  0  0  0  0
   60.8225   29.6432   45.5673 H   0  0  0  0  0  0  0  0  0  0  0  0
   60.9502   27.5721   46.9390 H   0  0  0  0  0  0  0  0  0  0  0  0
   60.9177   25.1150   46.6211 H   0  0  0  0  0  0  0  0  0  0  0  0
   59.8122   23.1038   45.8899 H   0  0  0  0  0  0  0  0  0  0  0  0
   57.8254   21.9562   44.9216 H   0  0  0  0  0  0  0  0  0  0  0  0
   55.8000   23.2641   44.3082 H   0  0  0  0  0  0  0  0  0  0  0  0
   55.7415   25.7267   44.6552 H   0  0  0  0  0  0  0  0  0  0  0  0
   55.7478   27.4746   44.9862 H   0  0  0  0  0  0  0  0  0  0  0  0
   56.2622   28.6624   46.2483 H   0  0  0  0  0  0  0  0  0  0  0  0
   57.8665   28.8632   43.7853 H   0  0  0  0  0  0  0  0  0  0  0  0
   56.1181   29.1423   43.4916 H   0  0  0  0  0  0  0  0  0  0  0  0
   57.4970   30.3700   45.7900 H   0  0  0  0  0  0  0  0  0  0  0  0
   58.8898   31.2667   44.2886 H   0  0  0  0  0  0  0  0  0  0  0  0
   57.6643   31.1537   42.9747 H   0  0  0  0  0  0  0  0  0  0  0  0
   57.6144   33.4466   43.4069 H   0  0  0  0  0  0  0  0  0  0  0  0
   56.3296   32.8627   44.5313 H   0  0  0  0  0  0  0  0  0  0  0  0
   57.2271   32.0921   46.9322 H   0  0  0  0  0  0  0  0  0  0  0  0
   58.4460   33.1068   48.8663 H   0  0  0  0  0  0  0  0  0  0  0  0
   60.4383   35.8326   46.2662 H   0  0  0  0  0  0  0  0  0  0  0  0
   59.2411   34.8792   44.2859 H   0  0  0  0  0  0  0  0  0  0  0  0
   61.8945   35.1822   50.4789 H   0  0  0  0  0  0  0  0  0  0  0  0
   61.7956   33.4609   51.0986 H   0  0  0  0  0  0  0  0  0  0  0  0
   64.1949   35.1392   50.4549 H   0  0  0  0  0  0  0  0  0  0  0  0
   63.9227   33.9173   51.7544 H   0  0  0  0  0  0  0  0  0  0  0  0
  1  2  1  0
  2  3  1  0
  3  4  2  0
  4  5  1  0
  5  6  2  0
  6  7  1  0
  7  8  2  0
  8  9  1  0
  9 10  1  0
 10 11  1  0
 11 12  1  0
 12 13  1  0
 13 14  1  0
 14 15  1  0
 15 16  1  0
 16 17  1  0
 17 18  1  0
 18 19  2  0
 19 20  1  0
 20 21  2  0
 21 22  1  0
 22 23  2  0
 23 24  1  0
 24 25  2  0
 25 26  1  0
 26 27  2  0
 27 28  1  0
 28 29  1  0
 29 30  1  0
 30 31  1  0
 31 32  1  0
 32 33  1  0
 33 34  2  0
 34 35  1  0
 35 36  2  0
 36 37  1  0
 37 38  2  0
 12 39  1  0
 39 40  1  0
  8  3  1  0
 40  9  1  0
 27 18  1  0
 38 33  1  0
 26 21  1  0
  1 41  1  0
  1 42  1  0
  1 43  1  0
  4 44  1  0
  5 45  1  0
  6 46  1  0
  7 47  1  0
 10 48  1  0
 10 49  1  0
 11 50  1  0
 11 51  1  0
 12 52  1  0
 13 53  1  0
 13 54  1  0
 14 55  1  0
 14 56  1  0
 15 57  1  0
 15 58  1  0
 16 59  1  0
 16 60  1  0
 19 61  1  0
 20 62  1  0
 22 63  1  0
 23 64  1  0
 24 65  1  0
 25 66  1  0
 28 67  1  0
 28 68  1  0
 29 69  1  0
 29 70  1  0
 30 71  1  0
 31 72  1  0
 31 73  1  0
 32 74  1  0
 32 75  1  0
 34 76  1  0
 35 77  1  0
 37 78  1  0
 38 79  1  0
 39 80  1  0
 39 81  1  0
 40 82  1  0
 40 83  1  0
M  CHG  1  12   1
M  END
>  <UniqueID>  (1) 
1

>  <SMILES>  (1) 
COc1ccccc1N1CC[NH+](CCCCOc2ccc3ccccc3c2CCNCCc2ccncc2)CC1

>  <Energy>  (1) 
100.58942272540989

>  <Genealogy>  (1) 
COc1ccccc1N1CC[NH+](CCCCOc2ccc3ccccc3c2CCNCCc2ccncc2)CC1 (protonated)
COc1ccccc1N1CC[NH+](CCCCOc2ccc3ccccc3c2CCNCCc2ccncc2)CC1 (3D coordinates assigned)
COc1ccccc1N1CC[NH+](CCCCOc2ccc3ccccc3c2CCNCCc2ccncc2)CC1 (nonaromatic ring conformer: 100.58942272540989 kcal/mol)

>  <smiles>  (1) 
COc1ccccc1N1CCN(CCCCOc2ccc3ccccc3c2CCNCCc2ccncc2)CC1

>  <score_type>  (1) 
oracle

>  <origin>  (1) 
adg

>  <m_score__min__energy>  (1) 
-7.8799999999999999

>  <m_primary>  (1) 
energy

$$$$
1:0
     RDKit          3D

 45 48  0  0  0  0  0  0  0  0999 V2000
   60.7640   33.8400   49.6110 C   0  0  0  0  0  0  0  0  0  0  0  0
   59.6470   34.4380   48.9620 O   0  0  0  0  0  0  0  0  0  0  0  0
   59.3480   34.2920   47.5980 C   0  0  0  0  0  0  0  0  0  0  0  0
   59.6040   35.3710   46.7470 C   0  0  0  0  0  0  0  0  0  0  0  0
   59.3160   35.2810   45.3830 C   0  0  0  0  0  0  0  0  0  0  0  0
   58.7750   34.1080   44.8550 C   0  0  0  0  0  0  0  0  0  0  0  0
   58.5200   33.0030   45.6850 C   0  0  0  0  0  0  0  0  0  0  0  0
   57.9540   31.7600   45.1030 C   0  0  0  0  0  0  0  0  0  0  0  0
   57.0310   31.7330   44.0520 C   0  0  0  0  0  0  0  0  0  0  0  0
   56.6510   30.1260   43.7300 S   0  0  0  0  0  0  0  0  0  0  0  0
   57.6660   29.5290   44.9320 C   0  0  0  0  0  0  0  0  0  0  0  0
   57.8650   28.1350   45.2330 N   0  0  0  0  0  0  0  0  0  0  0  0
   58.6020   27.2670   44.2990 C   0  0  0  0  0  0  0  0  0  0  0  0
   57.8790   25.9230   44.1410 C   0  0  0  0  0  0  0  0  0  0  0  0
   57.4070   25.4000   45.4350 N   0  0  0  0  0  0  0  0  0  0  0  0
   56.3560   24.4160   45.4550 C   0  0  0  0  0  0  0  0  0  0  0  0
   55.3450   24.5990   46.1850 O   0  0  0  0  0  0  0  0  0  0  0  0
   56.4170   23.2010   44.6260 C   0  0  0  0  0  0  0  0  0  0  0  0
   56.6240   23.1420   43.2600 C   0  0  0  0  0  0  0  0  0  0  0  0
   56.6240   21.8010   42.9400 C   0  0  0  0  0  0  0  0  0  0  0  0
   56.4230   21.1250   44.1260 C   0  0  0  0  0  0  0  0  0  0  0  0
   56.3090   21.9850   45.1120 O   0  0  0  0  0  0  0  0  0  0  0  0
   57.7580   26.1140   46.6680 C   0  0  0  0  0  0  0  0  0  0  0  0
   57.3990   27.5950   46.5190 C   0  0  0  0  0  0  0  0  0  0  0  0
   58.2940   30.5330   45.5840 N   0  0  0  0  0  0  0  0  0  0  0  0
   58.8020   33.1060   47.0630 C   0  0  0  0  0  0  0  0  0  0  0  0
   60.6349   33.9091   50.7012 H   0  0  0  0  0  0  0  0  0  0  0  0
   60.8362   32.7826   49.3166 H   0  0  0  0  0  0  0  0  0  0  0  0
   61.6840   34.3662   49.3166 H   0  0  0  0  0  0  0  0  0  0  0  0
   60.0352   36.2974   47.1542 H   0  0  0  0  0  0  0  0  0  0  0  0
   59.5164   36.1378   44.7228 H   0  0  0  0  0  0  0  0  0  0  0  0
   58.5464   34.0478   43.7807 H   0  0  0  0  0  0  0  0  0  0  0  0
   56.6244   32.6101   43.5273 H   0  0  0  0  0  0  0  0  0  0  0  0
   58.6678   27.7615   43.3186 H   0  0  0  0  0  0  0  0  0  0  0  0
   59.6113   27.0866   44.6975 H   0  0  0  0  0  0  0  0  0  0  0  0
   57.0139   26.0602   43.4755 H   0  0  0  0  0  0  0  0  0  0  0  0
   58.5916   25.1990   43.7191 H   0  0  0  0  0  0  0  0  0  0  0  0
   56.7603   23.9891   42.5717 H   0  0  0  0  0  0  0  0  0  0  0  0
   56.7573   21.3594   41.9414 H   0  0  0  0  0  0  0  0  0  0  0  0
   56.3668   20.0314   44.2299 H   0  0  0  0  0  0  0  0  0  0  0  0
   57.1992   25.6843   47.5125 H   0  0  0  0  0  0  0  0  0  0  0  0
   58.8375   26.0150   46.8548 H   0  0  0  0  0  0  0  0  0  0  0  0
   56.3062   27.7058   46.5784 H   0  0  0  0  0  0  0  0  0  0  0  0
   57.8933   28.1533   47.3276 H   0  0  0  0  0  0  0  0  0  0  0  0
   58.5944   32.2538   47.7269 H   0  0  0  0  0  0  0  0  0  0  0  0
  1  2  1  0
  2  3  1  0
  3  4  2  0
  4  5  1  0
  5  6  2  0
  6  7  1  0
  7  8  1  0
  8  9  2  0
  9 10  1  0
 10 11  1  0
 11 12  1  0
 12 13  1  0
 13 14  1  0
 14 15  1  0
 15 16  1  0
 16 17  2  0
 16 18  1  0
 18 19  2  0
 19 20  1  0
 20 21  2  0
 21 22  1  0
 15 23  1  0
 23 24  1  0
 11 25  2  0
  7 26  2  0
 26  3  1  0
 25  8  1  0
 24 12  1  0
 22 18  1  0
  1 27  1  0
  1 28  1  0
  1 29  1  0
  4 30  1  0
  5 31  1  0
  6 32  1  0
  9 33  1  0
 13 34  1  0
 13 35  1  0
 14 36  1  0
 14 37  1  0
 19 38  1  0
 20 39  1  0
 21 40  1  0
 23 41  1  0
 23 42  1  0
 24 43  1  0
 24 44  1  0
 26 45  1  0
M  END
>  <UniqueID>  (2) 
2

>  <SMILES>  (2) 
COc1cccc(-c2csc(N3CCN(C(=O)c4ccco4)CC3)n2)c1

>  <Energy>  (2) 
109.91083539635561

>  <Genealogy>  (2) 
COc1cccc(-c2csc(N3CCN(C(=O)c4ccco4)CC3)n2)c1 (3D coordinates assigned)
COc1cccc(-c2csc(N3CCN(C(=O)c4ccco4)CC3)n2)c1 (nonaromatic ring conformer: 109.91083539635561 kcal/mol)

>  <smiles>  (2) 
COc1cccc(-c2csc(N3CCN(C(=O)c4ccco4)CC3)n2)c1

>  <score_type>  (2) 
oracle

>  <origin>  (2) 
adg

>  <m_score__min__energy>  (2) 
-7.8099999999999996

>  <m_primary>  (2) 
energy

$$$$
2:0
     RDKit          3D

 32 33  0  0  0  0  0  0  0  0999 V2000
   61.5100   30.6360   47.1400 C   0  0  0  0  0  0  0  0  0  0  0  0
   60.2810   29.9140   46.6710 C   0  0  0  0  0  0  0  0  0  0  0  0
   59.3060   29.5030   47.5930 C   0  0  0  0  0  0  0  0  0  0  0  0
   58.1430   28.8680   47.1520 C   0  0  0  0  0  0  0  0  0  0  0  0
   57.9330   28.6420   45.7830 C   0  0  0  0  0  0  0  0  0  0  0  0
   56.6610   27.9880   45.3130 C   0  0  0  0  0  0  0  0  0  0  0  0
   55.6500   28.9970   45.0210 N   0  0  0  0  0  0  0  0  0  0  0  0
   55.9130   30.1580   44.2290 C   0  0  0  0  0  0  0  0  0  0  0  0
   56.1880   30.0190   43.0080 O   0  0  0  0  0  0  0  0  0  0  0  0
   55.9130   31.4250   44.8270 O   0  0  0  0  0  0  0  0  0  0  0  0
   57.0290   32.2640   44.9560 C   0  0  0  0  0  0  0  0  0  0  0  0
   57.3810   32.7120   46.2360 C   0  0  0  0  0  0  0  0  0  0  0  0
   58.4770   33.5610   46.4130 C   0  0  0  0  0  0  0  0  0  0  0  0
   59.2240   33.9810   45.3080 C   0  0  0  0  0  0  0  0  0  0  0  0
   58.8680   33.5560   44.0250 C   0  0  0  0  0  0  0  0  0  0  0  0
   57.7730   32.7050   43.8440 C   0  0  0  0  0  0  0  0  0  0  0  0
   58.9000   29.0700   44.8590 C   0  0  0  0  0  0  0  0  0  0  0  0
   60.0640   29.7080   45.3000 C   0  0  0  0  0  0  0  0  0  0  0  0
   61.5308   30.6482   48.2397 H   0  0  0  0  0  0  0  0  0  0  0  0
   62.4050   30.1201   46.7620 H   0  0  0  0  0  0  0  0  0  0  0  0
   61.4951   31.6689   46.7620 H   0  0  0  0  0  0  0  0  0  0  0  0
   59.4585   29.6818   48.6676 H   0  0  0  0  0  0  0  0  0  0  0  0
   57.3871   28.5431   47.8821 H   0  0  0  0  0  0  0  0  0  0  0  0
   56.8671   27.4069   44.4021 H   0  0  0  0  0  0  0  0  0  0  0  0
   56.2856   27.3252   46.1066 H   0  0  0  0  0  0  0  0  0  0  0  0
   56.7906   32.3933   47.1077 H   0  0  0  0  0  0  0  0  0  0  0  0
   58.7524   33.8993   47.4228 H   0  0  0  0  0  0  0  0  0  0  0  0
   60.0901   34.6445   45.4482 H   0  0  0  0  0  0  0  0  0  0  0  0
   59.4510   33.8919   43.1548 H   0  0  0  0  0  0  0  0  0  0  0  0
   57.4922   32.3794   42.8315 H   0  0  0  0  0  0  0  0  0  0  0  0
   58.7413   28.9027   43.7834 H   0  0  0  0  0  0  0  0  0  0  0  0
   60.8121   30.0495   44.5694 H   0  0  0  0  0  0  0  0  0  0  0  0
  1  2  1  0
  2  3  2  0
  3  4  1  0
  4  5  2  0
  5  6  1  0
  6  7  1  0
  7  8  1  0
  8  9  2  0
  8 10  1  0
 10 11  1  0
 11 12  2  0
 12 13  1  0
 13 14  2  0
 14 15  1  0
 15 16  2  0
  5 17  1  0
 17 18  2  0
 18  2  1  0
 16 11  1  0
  1 19  1  0
  1 20  1  0
  1 21  1  0
  3 22  1  0
  4 23  1  0
  6 24  1  0
  6 25  1  0
 12 26  1  0
 13 27  1  0
 14 28  1  0
 15 29  1  0
 16 30  1  0
 17 31  1  0
 18 32  1  0
M  CHG  1   7  -1
M  END
>  <UniqueID>  (3) 
3

>  <SMILES>  (3) 
Cc1ccc(C[N-]C(=O)Oc2ccccc2)cc1

>  <Energy>  (3) 
32.40117781282877

>  <Genealogy>  (3) 
Cc1ccc(C[N-]C(=O)Oc2ccccc2)cc1 (protonated)
Cc1ccc(C[N-]C(=O)Oc2ccccc2)cc1 (3D coordinates assigned)
Cc1ccc(C[N-]C(=O)Oc2ccccc2)cc1 (optimized conformer: 32.40117781282877 kcal/mol)

>  <smiles>  (3) 
Cc1ccc(CNC(=O)Oc2ccccc2)cc1

>  <score_type>  (3) 
oracle

>  <origin>  (3) 
adg

>  <m_score__min__energy>  (3) 
-8.1799999999999997

>  <m_primary>  (3) 
energy

$$$$
3:0
     RDKit          3D

 52 55  0  0  0  0  0  0  0  0999 V2000
   56.5860   30.3280   44.1510 C   0  0  0  0  0  0  0  0  0  0  0  0
   57.1610   30.8880   45.3270 O   0  0  0  0  0  0  0  0  0  0  0  0
   57.8780   32.0940   45.3780 C   0  0  0  0  0  0  0  0  0  0  0  0
   57.3420   33.2740   44.8240 C   0  0  0  0  0  0  0  0  0  0  0  0
   58.0450   34.4750   44.8830 C   0  0  0  0  0  0  0  0  0  0  0  0
   59.2950   34.5260   45.4920 C   0  0  0  0  0  0  0  0  0  0  0  0
   59.8600   33.3720   46.0500 C   0  0  0  0  0  0  0  0  0  0  0  0
   61.0870   33.4410   46.6440 N   0  0  0  0  0  0  0  0  0  0  0  0
   61.6760   32.3500   47.1960 C   0  0  0  0  0  0  0  0  0  0  0  0
   61.0350   31.1170   47.1680 C   0  0  0  0  0  0  0  0  0  0  0  0
   59.7750   30.9950   46.5720 C   0  0  0  0  0  0  0  0  0  0  0  0
   59.1620   29.6980   46.5500 N   0  0  0  0  0  0  0  0  0  0  0  0
   59.4280   28.8140   45.4110 C   0  0  0  0  0  0  0  0  0  0  0  0
   58.3580   27.7240   45.3100 C   0  0  0  0  0  0  0  0  0  0  0  0
   58.1670   27.0350   46.5960 N   0  0  0  0  0  0  0  0  0  0  0  0
   57.7410   25.6570   46.6210 C   0  0  0  0  0  0  0  0  0  0  0  0
   58.1360   24.8980   47.5460 O   0  0  0  0  0  0  0  0  0  0  0  0
   56.9090   25.1020   45.5920 N   0  0  0  0  0  0  0  0  0  0  0  0
   57.1490   23.8790   44.8830 C   0  0  0  0  0  0  0  0  0  0  0  0
   58.4320   23.3200   44.9470 C   0  0  0  0  0  0  0  0  0  0  0  0
   58.7250   22.1350   44.2700 C   0  0  0  0  0  0  0  0  0  0  0  0
   57.7310   21.4840   43.5400 C   0  0  0  0  0  0  0  0  0  0  0  0
   56.4370   22.0070   43.4980 C   0  0  0  0  0  0  0  0  0  0  0  0
   56.1230   23.1950   44.1800 C   0  0  0  0  0  0  0  0  0  0  0  0
   54.7090   23.7060   44.1340 C   0  0  0  0  0  0  0  0  0  0  0  0
   58.6260   27.6550   47.8470 C   0  0  0  0  0  0  0  0  0  0  0  0
   58.5410   29.1830   47.7770 C   0  0  0  0  0  0  0  0  0  0  0  0
   59.1570   32.1350   45.9970 C   0  0  0  0  0  0  0  0  0  0  0  0
   55.8243   29.5861   44.4328 H   0  0  0  0  0  0  0  0  0  0  0  0
   56.1181   31.1260   43.5558 H   0  0  0  0  0  0  0  0  0  0  0  0
   57.3714   29.8392   43.5558 H   0  0  0  0  0  0  0  0  0  0  0  0
   56.3553   33.2461   44.3386 H   0  0  0  0  0  0  0  0  0  0  0  0
   57.6104   35.3864   44.4466 H   0  0  0  0  0  0  0  0  0  0  0  0
   59.8431   35.4787   45.5356 H   0  0  0  0  0  0  0  0  0  0  0  0
   61.6010   34.3510   46.6830 H   0  0  0  0  0  0  0  0  0  0  0  0
   62.6654   32.4420   47.6678 H   0  0  0  0  0  0  0  0  0  0  0  0
   61.5189   30.2360   47.6149 H   0  0  0  0  0  0  0  0  0  0  0  0
   59.4268   29.4079   44.4851 H   0  0  0  0  0  0  0  0  0  0  0  0
   60.4076   28.3352   45.5564 H   0  0  0  0  0  0  0  0  0  0  0  0
   57.4063   28.1845   45.0064 H   0  0  0  0  0  0  0  0  0  0  0  0
   58.6891   26.9831   44.5674 H   0  0  0  0  0  0  0  0  0  0  0  0
   59.2154   23.8193   45.5360 H   0  0  0  0  0  0  0  0  0  0  0  0
   59.7405   21.7144   44.3123 H   0  0  0  0  0  0  0  0  0  0  0  0
   57.9667   20.5571   42.9965 H   0  0  0  0  0  0  0  0  0  0  0  0
   55.6563   21.4844   42.9259 H   0  0  0  0  0  0  0  0  0  0  0  0
   54.3345   23.8413   45.1594 H   0  0  0  0  0  0  0  0  0  0  0  0
   54.6845   24.6699   43.6045 H   0  0  0  0  0  0  0  0  0  0  0  0
   54.0740   22.9805   43.6045 H   0  0  0  0  0  0  0  0  0  0  0  0
   57.9957   27.2990   48.6753 H   0  0  0  0  0  0  0  0  0  0  0  0
   59.6772   27.3735   48.0078 H   0  0  0  0  0  0  0  0  0  0  0  0
   57.4831   29.4840   47.7964 H   0  0  0  0  0  0  0  0  0  0  0  0
   59.0810   29.5999   48.6399 H   0  0  0  0  0  0  0  0  0  0  0  0
  1  2  1  0
  2  3  1  0
  3  4  2  0
  4  5  1  0
  5  6  2  0
  6  7  1  0
  7  8  2  0
  8  9  1  0
  9 10  2  0
 10 11  1  0
 11 12  1  0
 12 13  1  0
 13 14  1  0
 14 15  1  0
 15 16  1  0
 16 17  2  0
 16 18  1  0
 18 19  1  0
 19 20  2  0
 20 21  1  0
 21 22  2  0
 22 23  1  0
 23 24  2  0
 24 25  1  0
 15 26  1  0
 26 27  1  0
 11 28  2  0
 28  3  1  0
 28  7  1  0
 27 12  1  0
 24 19  1  0
  1 29  1  0
  1 30  1  0
  1 31  1  0
  4 32  1  0
  5 33  1  0
  6 34  1  0
  8 35  1  0
  9 36  1  0
 10 37  1  0
 13 38  1  0
 13 39  1  0
 14 40  1  0
 14 41  1  0
 20 42  1  0
 21 43  1  0
 22 44  1  0
 23 45  1  0
 25 46  1  0
 25 47  1  0
 25 48  1  0
 26 49  1  0
 26 50  1  0
 27 51  1  0
 27 52  1  0
M  CHG  2   8   1  18  -1
M  END
>  <UniqueID>  (4) 
4

>  <SMILES>  (4) 
COc1cccc2[nH+]ccc(N3CCN(C(=O)[N-]c4ccccc4C)CC3)c12

>  <Energy>  (4) 
72.29469220305862

>  <Genealogy>  (4) 
COc1cccc2[nH+]ccc(N3CCN(C(=O)[N-]c4ccccc4C)CC3)c12 (protonated)
COc1cccc2[nH+]ccc(N3CCN(C(=O)[N-]c4ccccc4C)CC3)c12 (3D coordinates assigned)
COc1cccc2[nH+]ccc(N3CCN(C(=O)[N-]c4ccccc4C)CC3)c12 (nonaromatic ring conformer: 72.29469220305862 kcal/mol)

>  <smiles>  (4) 
COc1cccc2nccc(N3CCN(C(=O)Nc4ccccc4C)CC3)c12

>  <score_type>  (4) 
oracle

>  <origin>  (4) 
adg

>  <m_score__min__energy>  (4) 
-8.0500000000000007

>  <m_primary>  (4) 
energy

$$$$
4:0
     RDKit          3D

 37 39  0  0  0  0  0  0  0  0999 V2000
   64.0610   31.9340   49.3190 C   0  0  0  0  0  0  0  0  0  0  0  0
   63.6500   31.7060   47.9330 N   0  0  0  0  0  0  0  0  0  0  0  0
   62.9380   32.8780   47.4150 C   0  0  0  0  0  0  0  0  0  0  0  0
   61.5730   32.4750   46.9500 C   0  0  0  0  0  0  0  0  0  0  0  0
   61.1010   31.2060   46.9540 N   0  0  0  0  0  0  0  0  0  0  0  0
   59.8370   31.2090   46.5420 N   0  0  0  0  0  0  0  0  0  0  0  0
   59.0250   30.0280   46.4420 C   0  0  0  0  0  0  0  0  0  0  0  0
   59.0240   29.0870   47.4810 C   0  0  0  0  0  0  0  0  0  0  0  0
   58.2250   27.9440   47.4020 C   0  0  0  0  0  0  0  0  0  0  0  0
   57.3990   27.7260   46.2840 C   0  0  0  0  0  0  0  0  0  0  0  0
   56.5510   26.5140   46.2010 C   0  0  0  0  0  0  0  0  0  0  0  0
   55.1440   26.6260   45.9960 N   0  0  0  0  0  0  0  0  0  0  0  0
   57.0660   25.3680   46.3090 O   0  0  0  0  0  0  0  0  0  0  0  0
   57.3880   28.6820   45.2520 C   0  0  0  0  0  0  0  0  0  0  0  0
   58.1890   29.8230   45.3330 C   0  0  0  0  0  0  0  0  0  0  0  0
   59.4900   32.4860   46.2680 C   0  0  0  0  0  0  0  0  0  0  0  0
   58.2890   32.9890   45.7580 C   0  0  0  0  0  0  0  0  0  0  0  0
   58.1970   34.3780   45.5500 C   0  0  0  0  0  0  0  0  0  0  0  0
   59.2930   35.2230   45.8400 C   0  0  0  0  0  0  0  0  0  0  0  0
   60.4960   34.6870   46.3310 C   0  0  0  0  0  0  0  0  0  0  0  0
   60.5580   33.3090   46.5230 C   0  0  0  0  0  0  0  0  0  0  0  0
   63.3051   31.5147   49.9993 H   0  0  0  0  0  0  0  0  0  0  0  0
   65.0291   31.4440   49.4997 H   0  0  0  0  0  0  0  0  0  0  0  0
   64.1577   33.0147   49.4997 H   0  0  0  0  0  0  0  0  0  0  0  0
   64.5200   31.5760   47.3630 H   0  0  0  0  0  0  0  0  0  0  0  0
   62.8453   33.6310   48.2115 H   0  0  0  0  0  0  0  0  0  0  0  0
   63.5003   33.3014   46.5697 H   0  0  0  0  0  0  0  0  0  0  0  0
   61.6290   30.3570   47.2570 H   0  0  0  0  0  0  0  0  0  0  0  0
   59.6574   29.2500   48.3655 H   0  0  0  0  0  0  0  0  0  0  0  0
   58.2417   27.2088   48.2200 H   0  0  0  0  0  0  0  0  0  0  0  0
   54.5340   27.0990   46.6990 H   0  0  0  0  0  0  0  0  0  0  0  0
   56.7431   28.5295   44.3740 H   0  0  0  0  0  0  0  0  0  0  0  0
   58.1647   30.5662   44.5224 H   0  0  0  0  0  0  0  0  0  0  0  0
   57.4452   32.3221   45.5273 H   0  0  0  0  0  0  0  0  0  0  0  0
   57.2642   34.8100   45.1584 H   0  0  0  0  0  0  0  0  0  0  0  0
   59.2035   36.3076   45.6802 H   0  0  0  0  0  0  0  0  0  0  0  0
   61.3577   35.3328   46.5556 H   0  0  0  0  0  0  0  0  0  0  0  0
  1  2  1  0
  2  3  1  0
  3  4  1  0
  4  5  2  0
  5  6  1  0
  6  7  1  0
  7  8  2  0
  8  9  1  0
  9 10  2  0
 10 11  1  0
 11 12  1  0
 11 13  2  0
 10 14  1  0
 14 15  2  0
  6 16  1  0
 16 17  2  0
 17 18  1  0
 18 19  2  0
 19 20  1  0
 20 21  2  0
 21  4  1  0
 15  7  1  0
 21 16  1  0
  1 22  1  0
  1 23  1  0
  1 24  1  0
  2 25  1  0
  3 26  1  0
  3 27  1  0
  5 28  1  0
  8 29  1  0
  9 30  1  0
 12 31  1  0
 14 32  1  0
 15 33  1  0
 17 34  1  0
 18 35  1  0
 19 36  1  0
 20 37  1  0
M  CHG  2   5   1  12  -1
M  END
>  <UniqueID>  (5) 
5

>  <SMILES>  (5) 
CNCc1[nH+]n(-c2ccc(C([NH-])=O)cc2)c2ccccc12

>  <Energy>  (5) 
81.40668795693408

>  <Genealogy>  (5) 
CNCc1[nH+]n(-c2ccc(C([NH-])=O)cc2)c2ccccc12 (protonated)
CNCc1[nH+]n(-c2ccc(C([NH-])=O)cc2)c2ccccc12 (3D coordinates assigned)
CNCc1[nH+]n(-c2ccc(C([NH-])=O)cc2)c2ccccc12 (optimized conformer: 81.40668795693408 kcal/mol)

>  <smiles>  (5) 
CNCc1nn(-c2ccc(C(N)=O)cc2)c2ccccc12

>  <score_type>  (5) 
oracle

>  <origin>  (5) 
adg

>  <m_score__min__energy>  (5) 
-9.5

>  <m_primary>  (5) 
energy

$$$$
5:0
     RDKit          3D

 29 30  0  0  0  0  0  0  0  0999 V2000
   58.2040   33.0690   43.6840 C   0  0  0  0  0  0  0  0  0  0  0  0
   58.6210   33.1820   45.1290 C   0  0  0  0  0  0  0  0  0  0  0  0
   59.0670   34.4380   45.5820 C   0  0  0  0  0  0  0  0  0  0  0  0
   59.4430   34.6280   46.9120 C   0  0  0  0  0  0  0  0  0  0  0  0
   59.3720   33.5700   47.8140 C   0  0  0  0  0  0  0  0  0  0  0  0
   58.9160   32.3210   47.3940 C   0  0  0  0  0  0  0  0  0  0  0  0
   58.5120   32.1060   46.0600 C   0  0  0  0  0  0  0  0  0  0  0  0
   58.0500   30.7040   45.6840 C   0  0  2  0  0  0  0  0  0  0  0  0
   59.1600   29.9470   44.9340 C   0  0  0  0  0  0  0  0  0  0  0  0
   58.6130   28.7120   44.2840 C   0  0  0  0  0  0  0  0  0  0  0  0
   59.3690   27.7250   44.0840 O   0  0  0  0  0  0  0  0  0  0  0  0
   57.2590   28.6770   43.8130 N   0  0  0  0  0  0  0  0  0  0  0  0
   56.4130   29.6280   44.0860 C   0  0  0  0  0  0  0  0  0  0  0  0
   55.0820   29.5730   43.5650 N   0  0  0  0  0  0  0  0  0  0  0  0
   56.8000   30.7300   44.9200 N   0  0  0  0  0  0  0  0  0  0  0  0
   57.1436   32.7816   43.6298 H   0  0  0  0  0  0  0  0  0  0  0  0
   58.3472   34.0384   43.1842 H   0  0  0  0  0  0  0  0  0  0  0  0
   58.8170   32.3046   43.1842 H   0  0  0  0  0  0  0  0  0  0  0  0
   59.1198   35.2813   44.8776 H   0  0  0  0  0  0  0  0  0  0  0  0
   59.7957   35.6142   47.2481 H   0  0  0  0  0  0  0  0  0  0  0  0
   59.6763   33.7197   48.8604 H   0  0  0  0  0  0  0  0  0  0  0  0
   58.8707   31.4907   48.1141 H   0  0  0  0  0  0  0  0  0  0  0  0
   57.8402   30.1584   46.6158 H   0  0  0  0  0  0  0  0  0  0  0  0
   59.5859   30.6035   44.1610 H   0  0  0  0  0  0  0  0  0  0  0  0
   59.9368   29.6527   45.6551 H   0  0  0  0  0  0  0  0  0  0  0  0
   56.9560   27.8610   43.2340 H   0  0  0  0  0  0  0  0  0  0  0  0
   54.3990   30.3320   43.7810 H   0  0  0  0  0  0  0  0  0  0  0  0
   54.7740   28.7800   42.9600 H   0  0  0  0  0  0  0  0  0  0  0  0
   56.0710   31.4310   45.1820 H   0  0  0  0  0  0  0  0  0  0  0  0
  1  2  1  0
  2  3  2  0
  3  4  1  0
  4  5  2  0
  5  6  1  0
  6  7  2  0
  7  8  1  0
  8  9  1  0
  9 10  1  0
 10 11  2  0
 10 12  1  0
 12 13  2  0
 13 14  1  0
 13 15  1  0
  7  2  1  0
 15  8  1  0
  1 16  1  0
  1 17  1  0
  1 18  1  0
  3 19  1  0
  4 20  1  0
  5 21  1  0
  6 22  1  0
  8 23  1  1
  9 24  1  0
  9 25  1  0
 12 26  1  0
 14 27  1  0
 14 28  1  0
 15 29  1  0
M  CHG  1  12   1
M  END
>  <UniqueID>  (6) 
6

>  <SMILES>  (6) 
Cc1ccccc1[C@@H]1CC(=O)[NH+]=C(N)N1

>  <Energy>  (6) 
29.58906345412959

>  <Genealogy>  (6) 
Cc1ccccc1C1CC(=O)[NH+]=C(N)N1 (protonated)
Cc1ccccc1[C@@H]1CC(=O)[NH+]=C(N)N1 (chirality)
Cc1ccccc1[C@@H]1CC(=O)[NH+]=C(N)N1 (3D coordinates assigned)
Cc1ccccc1[C@@H]1CC(=O)[NH+]=C(N)N1 (nonaromatic ring conformer: 29.58906345412959 kcal/mol)

>  <smiles>  (6) 
Cc1ccccc1C1CC(=O)N=C(N)N1

>  <score_type>  (6) 
oracle

>  <origin>  (6) 
adg

>  <m_score__min__energy>  (6) 
-5.0099999999999998

>  <m_primary>  (6) 
energy

$$$$
6:0
     RDKit          3D

 44 46  0  0  0  0  0  0  0  0999 V2000
   57.7302   34.9618   45.3853 H   0  0  0  0  0  0  0  0  0  0  0  0
   58.5950   34.2860   45.3120 C   0  0  0  0  0  0  0  0  0  0  0  0
   58.8030   33.6760   44.1370 C   0  0  0  0  0  0  0  0  0  0  0  0
   59.5962   34.0783   43.4897 H   0  0  0  0  0  0  0  0  0  0  0  0
   58.0480   32.5030   43.6430 C   0  0  0  0  0  0  0  0  0  0  0  0
   57.8490   31.3710   44.3410 N   0  0  0  0  0  0  0  0  0  0  0  0
   58.1720   31.0130   45.6090 C   0  0  0  0  0  0  0  0  0  0  0  0
   58.7038   31.7069   46.2766 H   0  0  0  0  0  0  0  0  0  0  0  0
   57.8060   29.7290   46.0420 C   0  0  0  0  0  0  0  0  0  0  0  0
   58.0508   29.4025   47.0635 H   0  0  0  0  0  0  0  0  0  0  0  0
   57.1240   28.8570   45.1670 C   0  0  0  0  0  0  0  0  0  0  0  0
   56.7770   27.5820   45.6410 O   0  0  0  0  0  0  0  0  0  0  0  0
   57.5050   26.3910   45.3520 C   0  0  0  0  0  0  0  0  0  0  0  0
   58.1458   26.1398   46.2100 H   0  0  0  0  0  0  0  0  0  0  0  0
   58.1229   26.5566   44.4571 H   0  0  0  0  0  0  0  0  0  0  0  0
   56.5400   25.2320   45.0850 C   0  0  0  0  0  0  0  0  0  0  0  0
   57.1142   24.2957   45.0258 H   0  0  0  0  0  0  0  0  0  0  0  0
   56.0158   25.4315   44.1388 H   0  0  0  0  0  0  0  0  0  0  0  0
   55.5280   25.1080   46.1580 N   0  0  0  0  0  0  0  0  0  0  0  0
   54.2990   24.5020   45.6220 C   0  0  0  0  0  0  0  0  0  0  0  0
   53.6539   24.1839   46.4543 H   0  0  0  0  0  0  0  0  0  0  0  0
   53.7650   25.2401   45.0055 H   0  0  0  0  0  0  0  0  0  0  0  0
   54.5594   23.6290   45.0055 H   0  0  0  0  0  0  0  0  0  0  0  0
   56.0300   24.2870   47.2750 C   0  0  0  0  0  0  0  0  0  0  0  0
   55.7450   24.7532   48.2297 H   0  0  0  0  0  0  0  0  0  0  0  0
   55.5935   23.2791   47.2143 H   0  0  0  0  0  0  0  0  0  0  0  0
   57.1260   24.2162   47.2143 H   0  0  0  0  0  0  0  0  0  0  0  0
   56.8130   29.2840   43.8540 C   0  0  0  0  0  0  0  0  0  0  0  0
   56.2834   28.6243   43.1510 H   0  0  0  0  0  0  0  0  0  0  0  0
   57.2010   30.5680   43.4840 C   0  0  0  0  0  0  0  0  0  0  0  0
   57.0100   31.1530   42.2860 N   0  0  0  0  0  0  0  0  0  0  0  0
   57.5490   32.3630   42.3940 N   0  0  0  0  0  0  0  0  0  0  0  0
   57.6000   33.0510   41.6110 H   0  0  0  0  0  0  0  0  0  0  0  0
   59.4360   34.1230   46.5190 C   0  0  0  0  0  0  0  0  0  0  0  0
   60.8260   34.0050   46.3740 C   0  0  0  0  0  0  0  0  0  0  0  0
   61.2789   34.0605   45.3731 H   0  0  0  0  0  0  0  0  0  0  0  0
   61.6390   33.8170   47.4970 C   0  0  0  0  0  0  0  0  0  0  0  0
   62.7300   33.7408   47.3788 H   0  0  0  0  0  0  0  0  0  0  0  0
   61.0670   33.7260   48.7680 C   0  0  0  0  0  0  0  0  0  0  0  0
   61.7084   33.5865   49.6507 H   0  0  0  0  0  0  0  0  0  0  0  0
   59.6810   33.8120   48.9190 C   0  0  0  0  0  0  0  0  0  0  0  0
   59.2311   33.7318   49.9196 H   0  0  0  0  0  0  0  0  0  0  0  0
   58.8650   34.0000   47.7990 C   0  0  0  0  0  0  0  0  0  0  0  0
   57.7728   34.0519   47.9192 H   0  0  0  0  0  0  0  0  0  0  0  0
  1  2  1  0
  2  3  2  0
  3  4  1  0
  3  5  1  0
  5  6  1  0
  6  7  1  0
  7  8  1  0
  7  9  2  0
  9 10  1  0
  9 11  1  0
 11 12  1  0
 12 13  1  0
 13 14  1  0
 13 15  1  0
 13 16  1  0
 16 17  1  0
 16 18  1  0
 16 19  1  0
 19 20  1  0
 20 21  1  0
 20 22  1  0
 20 23  1  0
 19 24  1  0
 24 25  1  0
 24 26  1  0
 24 27  1  0
 11 28  2  0
 28 29  1  0
 28 30  1  0
 30 31  2  0
 31 32  1  0
 32 33  1  0
  2 34  1  0
 34 35  2  0
 35 36  1  0
 35 37  1  0
 37 38  1  0
 37 39  2  0
 39 40  1  0
 39 41  1  0
 41 42  1  0
 41 43  2  0
 43 44  1  0
 32  5  2  0
 43 34  1  0
 30  6  1  0
M  CHG  1  32   1
M  END
>  <UniqueID>  (7) 
7

>  <SMILES>  (7) 
CN(C)CCOc1ccn2c(/C=C\c3ccccc3)[nH+]nc2c1

>  <Energy>  (7) 
94.73448441975182

>  <Genealogy>  (7) 
CN(C)CCOc1ccn2c(C=Cc3ccccc3)[nH+]nc2c1 (protonated)
CN(C)CCOc1ccn2c(/C=C\c3ccccc3)[nH+]nc2c1 (cis-trans isomerization)
CN(C)CCOc1ccn2c(/C=C\c3ccccc3)[nH+]nc2c1 (3D coordinates assigned)
CN(C)CCOc1ccn2c(/C=C\c3ccccc3)[nH+]nc2c1 (optimized conformer: 94.73448441975182 kcal/mol)

>  <smiles>  (7) 
CN(C)CCOc1ccn2c(C=Cc3ccccc3)nnc2c1

>  <score_type>  (7) 
oracle

>  <origin>  (7) 
adg

>  <m_score__min__energy>  (7) 
-5.9500000000000002

>  <m_primary>  (7) 
energy

$$$$
7:0
     RDKit          3D

 40 42  0  0  0  0  0  0  0  0999 V2000
   57.9950   26.5950   43.4530 C   0  0  0  0  0  0  0  0  0  0  0  0
   58.5510   27.9930   43.7190 C   0  0  0  0  0  0  0  0  0  0  0  0
   58.8100   28.2250   45.1690 N   0  0  0  0  0  0  0  0  0  0  0  0
   60.2220   27.8500   45.4900 C   0  0  0  0  0  0  0  0  0  0  0  0
   61.2160   28.7540   44.7590 C   0  0  0  0  0  0  0  0  0  0  0  0
   58.5580   29.6580   45.5200 C   0  0  1  0  0  0  0  0  0  0  0  0
   57.1580   30.1330   45.2370 C   0  0  0  0  0  0  0  0  0  0  0  0
   56.1890   29.3280   45.2270 O   0  0  0  0  0  0  0  0  0  0  0  0
   56.9070   31.5380   45.1290 N   0  0  0  0  0  0  0  0  0  0  0  0
   57.8800   32.5640   45.3960 C   0  0  0  0  0  0  0  0  0  0  0  0
   57.8270   33.7230   44.6110 C   0  0  0  0  0  0  0  0  0  0  0  0
   58.7710   34.7370   44.7720 C   0  0  0  0  0  0  0  0  0  0  0  0
   59.7800   34.6070   45.7230 C   0  0  0  0  0  0  0  0  0  0  0  0
   59.8340   33.4770   46.5420 C   0  0  0  0  0  0  0  0  0  0  0  0
   60.8380   33.3790   47.4510 F   0  0  0  0  0  0  0  0  0  0  0  0
   58.8760   32.4490   46.4130 C   0  0  0  0  0  0  0  0  0  0  0  0
   58.8850   31.3250   47.4000 C   0  0  0  0  0  0  0  0  0  0  0  0
   58.9660   31.6130   48.7350 N   0  0  0  0  0  0  0  0  0  0  0  0
   58.8610   30.6500   49.6890 C   0  0  0  0  0  0  0  0  0  0  0  0
   58.6170   29.3290   49.3260 C   0  0  0  0  0  0  0  0  0  0  0  0
   58.5190   29.0000   47.9780 C   0  0  0  0  0  0  0  0  0  0  0  0
   58.7320   29.9770   46.9910 C   0  0  0  0  0  0  0  0  0  0  0  0
   57.7948   26.0917   44.4104 H   0  0  0  0  0  0  0  0  0  0  0  0
   57.0604   26.6753   42.8785 H   0  0  0  0  0  0  0  0  0  0  0  0
   58.7295   26.0115   42.8785 H   0  0  0  0  0  0  0  0  0  0  0  0
   59.4948   28.1108   43.1664 H   0  0  0  0  0  0  0  0  0  0  0  0
   57.8009   28.7257   43.3865 H   0  0  0  0  0  0  0  0  0  0  0  0
   60.3807   27.9457   46.5743 H   0  0  0  0  0  0  0  0  0  0  0  0
   60.3893   26.8132   45.1627 H   0  0  0  0  0  0  0  0  0  0  0  0
   61.8210   29.3042   45.4948 H   0  0  0  0  0  0  0  0  0  0  0  0
   61.8752   28.1395   44.1283 H   0  0  0  0  0  0  0  0  0  0  0  0
   60.6667   29.4684   44.1283 H   0  0  0  0  0  0  0  0  0  0  0  0
   59.3059   30.1567   44.8861 H   0  0  0  0  0  0  0  0  0  0  0  0
   57.0319   33.8346   43.8591 H   0  0  0  0  0  0  0  0  0  0  0  0
   58.7185   35.6406   44.1470 H   0  0  0  0  0  0  0  0  0  0  0  0
   60.5375   35.3975   45.8295 H   0  0  0  0  0  0  0  0  0  0  0  0
   59.0650   32.6030   49.0540 H   0  0  0  0  0  0  0  0  0  0  0  0
   58.9692   30.9159   50.7509 H   0  0  0  0  0  0  0  0  0  0  0  0
   58.5028   28.5529   50.0971 H   0  0  0  0  0  0  0  0  0  0  0  0
   58.2734   27.9691   47.6831 H   0  0  0  0  0  0  0  0  0  0  0  0
  1  2  1  0
  2  3  1  0
  3  4  1  0
  4  5  1  0
  3  6  1  0
  6  7  1  0
  7  8  2  0
  7  9  1  0
  9 10  1  0
 10 11  2  0
 11 12  1  0
 12 13  2  0
 13 14  1  0
 14 15  1  0
 14 16  2  0
 16 17  1  0
 17 18  2  0
 18 19  1  0
 19 20  2  0
 20 21  1  0
 21 22  2  0
 22  6  1  0
 16 10  1  0
 22 17  1  0
  1 23  1  0
  1 24  1  0
  1 25  1  0
  2 26  1  0
  2 27  1  0
  4 28  1  0
  4 29  1  0
  5 30  1  0
  5 31  1  0
  5 32  1  0
  6 33  1  6
 11 34  1  0
 12 35  1  0
 13 36  1  0
 18 37  1  0
 19 38  1  0
 20 39  1  0
 21 40  1  0
M  CHG  2   9  -1  18   1
M  END
>  <UniqueID>  (8) 
8

>  <SMILES>  (8) 
CCN(CC)[C@H]1C(=O)[N-]c2cccc(F)c2-c2[nH+]cccc21

>  <Energy>  (8) 
67.6943890353932

>  <Genealogy>  (8) 
CCN(CC)C1C(=O)[N-]c2cccc(F)c2-c2[nH+]cccc21 (protonated)
CCN(CC)[C@H]1C(=O)[N-]c2cccc(F)c2-c2[nH+]cccc21 (chirality)
CCN(CC)[C@H]1C(=O)[N-]c2cccc(F)c2-c2[nH+]cccc21 (3D coordinates assigned)
CCN(CC)[C@H]1C(=O)[N-]c2cccc(F)c2-c2[nH+]cccc21 (nonaromatic ring conformer: 67.6943890353932 kcal/mol)

>  <smiles>  (8) 
CCN(CC)C1C(=O)Nc2cccc(F)c2-c2ncccc21

>  <score_type>  (8) 
oracle

>  <origin>  (8) 
adg

>  <m_score__min__energy>  (8) 
-5.4900000000000002

>  <m_primary>  (8) 
energy

$$$$
8:0
     RDKit          3D

 53 55  0  0  0  0  0  0  0  0999 V2000
   59.6880   29.0260   48.4180 C   0  0  0  0  0  0  0  0  0  0  0  0
   58.8970   28.4330   47.2480 C   0  0  0  0  0  0  0  0  0  0  0  0
   58.7510   29.3840   46.1150 N   0  0  0  0  0  0  0  0  0  0  0  0
   59.3640   28.8730   44.8520 C   0  0  0  0  0  0  0  0  0  0  0  0
   60.8950   28.8980   44.8990 C   0  0  0  0  0  0  0  0  0  0  0  0
   59.2750   30.7270   46.4750 C   0  0  0  0  0  0  0  0  0  0  0  0
   58.1840   31.8050   46.6520 C   0  0  0  0  0  0  0  0  0  0  0  0
   58.3540   32.8650   45.6460 N   0  0  0  0  0  0  0  0  0  0  0  0
   57.4260   32.9670   44.5150 C   0  0  0  0  0  0  0  0  0  0  0  0
   57.0100   31.5990   44.0780 C   0  0  0  0  0  0  0  0  0  0  0  0
   57.2080   31.0620   42.8220 C   0  0  0  0  0  0  0  0  0  0  0  0
   56.6370   29.8080   42.8640 C   0  0  0  0  0  0  0  0  0  0  0  0
   56.1270   29.6610   44.1380 C   0  0  0  0  0  0  0  0  0  0  0  0
   56.3630   30.7470   44.8380 O   0  0  0  0  0  0  0  0  0  0  0  0
   59.3770   33.8670   45.8110 C   0  0  0  0  0  0  0  0  0  0  0  0
   59.5270   34.7500   44.9250 O   0  0  0  0  0  0  0  0  0  0  0  0
   60.2610   33.8730   46.9960 C   0  0  0  0  0  0  0  0  0  0  0  0
   59.7580   34.2350   48.2560 C   0  0  0  0  0  0  0  0  0  0  0  0
   60.5880   34.2340   49.3800 C   0  0  0  0  0  0  0  0  0  0  0  0
   61.9340   33.8580   49.2620 C   0  0  0  0  0  0  0  0  0  0  0  0
   62.7780   33.8550   50.3830 C   0  0  0  0  0  0  0  0  0  0  0  0
   64.1170   33.4770   50.2520 C   0  0  0  0  0  0  0  0  0  0  0  0
   64.6220   33.0990   49.0060 C   0  0  0  0  0  0  0  0  0  0  0  0
   63.7920   33.0970   47.8800 C   0  0  0  0  0  0  0  0  0  0  0  0
   62.4450   33.4750   47.9990 C   0  0  0  0  0  0  0  0  0  0  0  0
   61.6030   33.4790   46.8770 C   0  0  0  0  0  0  0  0  0  0  0  0
   59.2435   28.6928   49.3674 H   0  0  0  0  0  0  0  0  0  0  0  0
   60.7330   28.6869   48.3634 H   0  0  0  0  0  0  0  0  0  0  0  0
   59.6555   30.1242   48.3634 H   0  0  0  0  0  0  0  0  0  0  0  0
   59.4203   27.5347   46.8885 H   0  0  0  0  0  0  0  0  0  0  0  0
   57.8877   28.1955   47.6152 H   0  0  0  0  0  0  0  0  0  0  0  0
   57.7230   29.5300   45.9670 H   0  0  0  0  0  0  0  0  0  0  0  0
   59.0316   27.8368   44.6911 H   0  0  0  0  0  0  0  0  0  0  0  0
   59.0411   29.5297   44.0308 H   0  0  0  0  0  0  0  0  0  0  0  0
   61.2296   28.9035   45.9469 H   0  0  0  0  0  0  0  0  0  0  0  0
   61.2920   28.0062   44.3919 H   0  0  0  0  0  0  0  0  0  0  0  0
   61.2627   29.8023   44.3919 H   0  0  0  0  0  0  0  0  0  0  0  0
   59.8296   30.6388   47.4209 H   0  0  0  0  0  0  0  0  0  0  0  0
   59.9096   31.0537   45.6380 H   0  0  0  0  0  0  0  0  0  0  0  0
   57.1930   31.3433   46.5304 H   0  0  0  0  0  0  0  0  0  0  0  0
   58.2710   32.2443   47.6567 H   0  0  0  0  0  0  0  0  0  0  0  0
   56.5376   33.5386   44.8216 H   0  0  0  0  0  0  0  0  0  0  0  0
   57.9255   33.4795   43.6797 H   0  0  0  0  0  0  0  0  0  0  0  0
   57.7146   31.5349   41.9677 H   0  0  0  0  0  0  0  0  0  0  0  0
   56.5961   29.0728   42.0468 H   0  0  0  0  0  0  0  0  0  0  0  0
   55.6022   28.7691   44.5108 H   0  0  0  0  0  0  0  0  0  0  0  0
   58.7011   34.5219   48.3591 H   0  0  0  0  0  0  0  0  0  0  0  0
   60.1847   34.5289   50.3600 H   0  0  0  0  0  0  0  0  0  0  0  0
   62.3849   34.1508   51.3669 H   0  0  0  0  0  0  0  0  0  0  0  0
   64.7754   33.4772   51.1332 H   0  0  0  0  0  0  0  0  0  0  0  0
   65.6767   32.8017   48.9097 H   0  0  0  0  0  0  0  0  0  0  0  0
   64.1948   32.7991   46.9007 H   0  0  0  0  0  0  0  0  0  0  0  0
   61.9971   33.1713   45.8972 H   0  0  0  0  0  0  0  0  0  0  0  0
  1  2  1  0
  2  3  1  0
  3  4  1  0
  4  5  1  0
  3  6  1  0
  6  7  1  0
  7  8  1  0
  8  9  1  0
  9 10  1  0
 10 11  2  0
 11 12  1  0
 12 13  2  0
 13 14  1  0
  8 15  1  0
 15 16  2  0
 15 17  1  0
 17 18  2  0
 18 19  1  0
 19 20  2  0
 20 21  1  0
 21 22  2  0
 22 23  1  0
 23 24  2  0
 24 25  1  0
 25 26  2  0
 14 10  1  0
 26 17  1  0
 25 20  1  0
  1 27  1  0
  1 28  1  0
  1 29  1  0
  2 30  1  0
  2 31  1  0
  3 32  1  0
  4 33  1  0
  4 34  1  0
  5 35  1  0
  5 36  1  0
  5 37  1  0
  6 38  1  0
  6 39  1  0
  7 40  1  0
  7 41  1  0
  9 42  1  0
  9 43  1  0
 11 44  1  0
 12 45  1  0
 13 46  1  0
 18 47  1  0
 19 48  1  0
 21 49  1  0
 22 50  1  0
 23 51  1  0
 24 52  1  0
 26 53  1  0
M  CHG  1   3   1
M  END
>  <UniqueID>  (9) 
9

>  <SMILES>  (9) 
CC[NH+](CC)CCN(Cc1ccco1)C(=O)c1ccc2ccccc2c1

>  <Energy>  (9) 
87.55898414538478

>  <Genealogy>  (9) 
CC[NH+](CC)CCN(Cc1ccco1)C(=O)c1ccc2ccccc2c1 (protonated)
CC[NH+](CC)CCN(Cc1ccco1)C(=O)c1ccc2ccccc2c1 (3D coordinates assigned)
CC[NH+](CC)CCN(Cc1ccco1)C(=O)c1ccc2ccccc2c1 (optimized conformer: 87.55898414538478 kcal/mol)

>  <smiles>  (9) 
CCN(CC)CCN(Cc1ccco1)C(=O)c1ccc2ccccc2c1

>  <score_type>  (9) 
oracle

>  <origin>  (9) 
adg

>  <m_score__min__energy>  (9) 
-6.8899999999999997

>  <m_primary>  (9) 
energy

$$$$
9:0
     RDKit          3D

 46 48  0  0  0  0  0  0  0  0999 V2000
   63.3940   32.5670   47.1670 C   0  0  0  0  0  0  0  0  0  0  0  0
   62.5960   33.8370   46.8560 C   0  0  0  0  0  0  0  0  0  0  0  0
   61.1510   33.5360   46.4350 C   0  0  0  0  0  0  0  0  0  0  0  0
   60.2180   34.4970   47.0710 N   0  0  0  0  0  0  0  0  0  0  0  0
   60.0370   34.2460   48.5120 C   0  0  0  0  0  0  0  0  0  0  0  0
   58.9390   34.6810   46.3390 C   0  0  0  0  0  0  0  0  0  0  0  0
   57.9830   33.4690   46.3910 C   0  0  0  0  0  0  0  0  0  0  0  0
   58.3630   32.4870   45.4260 O   0  0  0  0  0  0  0  0  0  0  0  0
   57.9660   31.1400   45.4140 C   0  0  0  0  0  0  0  0  0  0  0  0
   57.0180   30.6230   44.5080 C   0  0  0  0  0  0  0  0  0  0  0  0
   56.6430   29.2770   44.5680 C   0  0  0  0  0  0  0  0  0  0  0  0
   57.2170   28.4180   45.5260 C   0  0  0  0  0  0  0  0  0  0  0  0
   56.8190   26.9930   45.6260 C   0  0  0  0  0  0  0  0  0  0  0  0
   57.6660   25.8790   45.5540 C   0  0  0  0  0  0  0  0  0  0  0  0
   56.8230   24.8000   45.6830 C   0  0  0  0  0  0  0  0  0  0  0  0
   57.0840   23.4310   45.6830 C   0  0  0  0  0  0  0  0  0  0  0  0
   55.9950   22.5560   45.8400 C   0  0  0  0  0  0  0  0  0  0  0  0
   54.6800   23.0680   45.9900 C   0  0  0  0  0  0  0  0  0  0  0  0
   54.4500   24.4570   45.9850 C   0  0  0  0  0  0  0  0  0  0  0  0
   55.5540   25.2950   45.8270 C   0  0  0  0  0  0  0  0  0  0  0  0
   55.5660   26.6040   45.7920 O   0  0  0  0  0  0  0  0  0  0  0  0
   58.1840   28.9330   46.4120 C   0  0  0  0  0  0  0  0  0  0  0  0
   58.5560   30.2770   46.3480 C   0  0  0  0  0  0  0  0  0  0  0  0
   63.4730   32.4413   48.2569 H   0  0  0  0  0  0  0  0  0  0  0  0
   62.8806   31.6960   46.7337 H   0  0  0  0  0  0  0  0  0  0  0  0
   64.4015   32.6517   46.7337 H   0  0  0  0  0  0  0  0  0  0  0  0
   62.5766   34.4703   47.7552 H   0  0  0  0  0  0  0  0  0  0  0  0
   63.0902   34.3441   46.0142 H   0  0  0  0  0  0  0  0  0  0  0  0
   61.0671   33.6187   45.3413 H   0  0  0  0  0  0  0  0  0  0  0  0
   60.8896   32.5173   46.7574 H   0  0  0  0  0  0  0  0  0  0  0  0
   60.5850   35.0060   49.0882 H   0  0  0  0  0  0  0  0  0  0  0  0
   58.9669   34.2977   48.7616 H   0  0  0  0  0  0  0  0  0  0  0  0
   60.4239   33.2470   48.7616 H   0  0  0  0  0  0  0  0  0  0  0  0
   58.4177   35.5469   46.7731 H   0  0  0  0  0  0  0  0  0  0  0  0
   59.2050   34.8205   45.2808 H   0  0  0  0  0  0  0  0  0  0  0  0
   58.0202   33.0221   47.3954 H   0  0  0  0  0  0  0  0  0  0  0  0
   56.9627   33.8122   46.1647 H   0  0  0  0  0  0  0  0  0  0  0  0
   56.5706   31.2820   43.7494 H   0  0  0  0  0  0  0  0  0  0  0  0
   55.8949   28.8864   43.8625 H   0  0  0  0  0  0  0  0  0  0  0  0
   58.7582   25.8696   45.4238 H   0  0  0  0  0  0  0  0  0  0  0  0
   58.1082   23.0478   45.5641 H   0  0  0  0  0  0  0  0  0  0  0  0
   56.1630   21.4689   45.8466 H   0  0  0  0  0  0  0  0  0  0  0  0
   53.8345   22.3748   46.1110 H   0  0  0  0  0  0  0  0  0  0  0  0
   53.4359   24.8668   46.1015 H   0  0  0  0  0  0  0  0  0  0  0  0
   58.6486   28.2721   47.1586 H   0  0  0  0  0  0  0  0  0  0  0  0
   59.3206   30.6632   47.0381 H   0  0  0  0  0  0  0  0  0  0  0  0
  1  2  1  0
  2  3  1  0
  3  4  1  0
  4  5  1  0
  4  6  1  0
  6  7  1  0
  7  8  1  0
  8  9  1  0
  9 10  2  0
 10 11  1  0
 11 12  2  0
 12 13  1  0
 13 14  2  0
 14 15  1  0
 15 16  2  0
 16 17  1  0
 17 18  2  0
 18 19  1  0
 19 20  2  0
 20 21  1  0
 12 22  1  0
 22 23  2  0
 23  9  1  0
 21 13  1  0
 20 15  1  0
  1 24  1  0
  1 25  1  0
  1 26  1  0
  2 27  1  0
  2 28  1  0
  3 29  1  0
  3 30  1  0
  5 31  1  0
  5 32  1  0
  5 33  1  0
  6 34  1  0
  6 35  1  0
  7 36  1  0
  7 37  1  0
 10 38  1  0
 11 39  1  0
 14 40  1  0
 16 41  1  0
 17 42  1  0
 18 43  1  0
 19 44  1  0
 22 45  1  0
 23 46  1  0
M  END
>  <UniqueID>  (10) 
10

>  <SMILES>  (10) 
CCCN(C)CCOc1ccc(-c2cc3ccccc3o2)cc1

>  <Energy>  (10) 
86.7562322670215

>  <Genealogy>  (10) 
CCCN(C)CCOc1ccc(-c2cc3ccccc3o2)cc1 (3D coordinates assigned)
CCCN(C)CCOc1ccc(-c2cc3ccccc3o2)cc1 (optimized conformer: 86.7562322670215 kcal/mol)

>  <smiles>  (10) 
CCCN(C)CCOc1ccc(-c2cc3ccccc3o2)cc1

>  <score_type>  (10) 
oracle

>  <origin>  (10) 
adg

>  <m_score__min__energy>  (10) 
-6.8399999999999999

>  <m_primary>  (10) 
energy

$$$$
10:0
     RDKit          3D

 61 65  0  0  0  0  0  0  0  0999 V2000
   56.9740   33.5020   45.8630 C   0  0  0  0  0  0  0  0  0  0  0  0
   58.3880   33.7910   46.0580 N   0  0  0  0  0  0  0  0  0  0  0  0
   59.0660   34.8170   45.5100 C   0  0  0  0  0  0  0  0  0  0  0  0
   60.3610   34.7830   45.9840 C   0  0  0  0  0  0  0  0  0  0  0  0
   60.3860   33.6980   46.8440 C   0  0  0  0  0  0  0  0  0  0  0  0
   61.5650   33.2250   47.5940 C   0  0  0  0  0  0  0  0  0  0  0  0
   62.7770   33.0560   47.0240 N   0  0  0  0  0  0  0  0  0  0  0  0
   63.5680   32.5690   47.9680 N   0  0  0  0  0  0  0  0  0  0  0  0
   62.8450   32.4430   49.0920 C   0  0  0  0  0  0  0  0  0  0  0  0
   63.5160   31.8690   50.6570 S   0  0  0  0  0  0  0  0  0  0  0  0
   62.7090   30.2320   50.5830 C   0  0  0  0  0  0  0  0  0  0  0  0
   61.3770   30.2490   51.3350 C   0  0  0  0  0  0  0  0  0  0  0  0
   60.5110   29.1480   50.8850 N   0  0  0  0  0  0  0  0  0  0  0  0
   61.0070   28.4830   49.6680 C   0  0  0  0  0  0  0  0  0  0  0  0
   60.2460   28.9020   48.4320 C   0  0  0  0  0  0  0  0  0  0  0  0
   59.0040   28.3230   48.1370 C   0  0  0  0  0  0  0  0  0  0  0  0
   58.3010   28.7020   46.9900 C   0  0  0  0  0  0  0  0  0  0  0  0
   58.8290   29.6680   46.1140 C   0  0  0  0  0  0  0  0  0  0  0  0
   58.0830   30.0700   44.8940 C   0  0  0  0  0  0  0  0  0  0  0  0
   56.9540   29.3430   44.4740 C   0  0  0  0  0  0  0  0  0  0  0  0
   56.2520   29.7250   43.3260 C   0  0  0  0  0  0  0  0  0  0  0  0
   56.6690   30.8330   42.5860 C   0  0  0  0  0  0  0  0  0  0  0  0
   57.7890   31.5630   42.9930 C   0  0  0  0  0  0  0  0  0  0  0  0
   58.4940   31.1850   44.1400 C   0  0  0  0  0  0  0  0  0  0  0  0
   60.0760   30.2460   46.4140 C   0  0  0  0  0  0  0  0  0  0  0  0
   60.7760   29.8670   47.5620 C   0  0  0  0  0  0  0  0  0  0  0  0
   61.5740   32.8430   48.8930 N   0  0  0  0  0  0  0  0  0  0  0  0
   60.5310   32.9410   49.8740 C   0  0  0  0  0  0  0  0  0  0  0  0
   59.3520   32.1940   49.7260 C   0  0  0  0  0  0  0  0  0  0  0  0
   58.3440   32.2720   50.6930 C   0  0  0  0  0  0  0  0  0  0  0  0
   58.5110   33.0920   51.8130 C   0  0  0  0  0  0  0  0  0  0  0  0
   59.6860   33.8310   51.9690 C   0  0  0  0  0  0  0  0  0  0  0  0
   60.6960   33.7550   51.0060 C   0  0  0  0  0  0  0  0  0  0  0  0
   59.1740   33.1100   46.8750 N   0  0  0  0  0  0  0  0  0  0  0  0
   56.4819   33.4014   46.8417 H   0  0  0  0  0  0  0  0  0  0  0  0
   56.5062   34.3231   45.3000 H   0  0  0  0  0  0  0  0  0  0  0  0
   56.8659   32.5632   45.3000 H   0  0  0  0  0  0  0  0  0  0  0  0
   58.6573   35.5559   44.8050 H   0  0  0  0  0  0  0  0  0  0  0  0
   61.1878   35.4645   45.7349 H   0  0  0  0  0  0  0  0  0  0  0  0
   64.5770   32.3380   47.8390 H   0  0  0  0  0  0  0  0  0  0  0  0
   62.5260   29.9673   49.5311 H   0  0  0  0  0  0  0  0  0  0  0  0
   63.3709   29.4907   51.0546 H   0  0  0  0  0  0  0  0  0  0  0  0
   61.5694   30.1397   52.4125 H   0  0  0  0  0  0  0  0  0  0  0  0
   60.8691   31.2035   51.1326 H   0  0  0  0  0  0  0  0  0  0  0  0
   60.4350   28.4410   51.6540 H   0  0  0  0  0  0  0  0  0  0  0  0
   62.0683   28.7389   49.5331 H   0  0  0  0  0  0  0  0  0  0  0  0
   60.8669   27.3996   49.7970 H   0  0  0  0  0  0  0  0  0  0  0  0
   58.5799   27.5655   48.8125 H   0  0  0  0  0  0  0  0  0  0  0  0
   57.3267   28.2411   46.7703 H   0  0  0  0  0  0  0  0  0  0  0  0
   56.6212   28.4684   45.0522 H   0  0  0  0  0  0  0  0  0  0  0  0
   55.3698   29.1514   43.0057 H   0  0  0  0  0  0  0  0  0  0  0  0
   56.1162   31.1313   41.6830 H   0  0  0  0  0  0  0  0  0  0  0  0
   58.1166   32.4365   42.4101 H   0  0  0  0  0  0  0  0  0  0  0  0
   59.3754   31.7628   44.4549 H   0  0  0  0  0  0  0  0  0  0  0  0
   60.5033   31.0024   45.7392 H   0  0  0  0  0  0  0  0  0  0  0  0
   61.7493   30.3282   47.7855 H   0  0  0  0  0  0  0  0  0  0  0  0
   59.2202   31.5455   48.8473 H   0  0  0  0  0  0  0  0  0  0  0  0
   57.4197   31.6880   50.5721 H   0  0  0  0  0  0  0  0  0  0  0  0
   57.7169   33.1552   52.5715 H   0  0  0  0  0  0  0  0  0  0  0  0
   59.8167   34.4742   52.8517 H   0  0  0  0  0  0  0  0  0  0  0  0
   61.6222   34.3342   51.1352 H   0  0  0  0  0  0  0  0  0  0  0  0
  1  2  1  0
  2  3  1  0
  3  4  2  0
  4  5  1  0
  5  6  1  0
  6  7  2  0
  7  8  1  0
  8  9  2  0
  9 10  1  0
 10 11  1  0
 11 12  1  0
 12 13  1  0
 13 14  1  0
 14 15  1  0
 15 16  2  0
 16 17  1  0
 17 18  2  0
 18 19  1  0
 19 20  2  0
 20 21  1  0
 21 22  2  0
 22 23  1  0
 23 24  2  0
 18 25  1  0
 25 26  2  0
  9 27  1  0
 27 28  1  0
 28 29  2  0
 29 30  1  0
 30 31  2  0
 31 32  1  0
 32 33  2  0
  5 34  2  0
 34  2  1  0
 27  6  1  0
 33 28  1  0
 26 15  1  0
 24 19  1  0
  1 35  1  0
  1 36  1  0
  1 37  1  0
  3 38  1  0
  4 39  1  0
  8 40  1  0
 11 41  1  0
 11 42  1  0
 12 43  1  0
 12 44  1  0
 13 45  1  0
 14 46  1  0
 14 47  1  0
 16 48  1  0
 17 49  1  0
 20 50  1  0
 21 51  1  0
 22 52  1  0
 23 53  1  0
 24 54  1  0
 25 55  1  0
 26 56  1  0
 29 57  1  0
 30 58  1  0
 31 59  1  0
 32 60  1  0
 33 61  1  0
M  CHG  1   8   1
M  END
>  <UniqueID>  (11) 
11

>  <SMILES>  (11) 
Cn1ccc(-c2n[nH+]c(SCCNCc3ccc(-c4ccccc4)cc3)n2-c2ccccc2)n1

>  <Energy>  (11) 
137.67435158461686

>  <Genealogy>  (11) 
Cn1ccc(-c2n[nH+]c(SCCNCc3ccc(-c4ccccc4)cc3)n2-c2ccccc2)n1 (protonated)
Cn1ccc(-c2n[nH+]c(SCCNCc3ccc(-c4ccccc4)cc3)n2-c2ccccc2)n1 (3D coordinates assigned)
Cn1ccc(-c2n[nH+]c(SCCNCc3ccc(-c4ccccc4)cc3)n2-c2ccccc2)n1 (optimized conformer: 137.67435158461686 kcal/mol)

>  <smiles>  (11) 
Cn1ccc(-c2nnc(SCCNCc3ccc(-c4ccccc4)cc3)n2-c2ccccc2)n1

>  <score_type>  (11) 
oracle

>  <origin>  (11) 
adg

>  <m_score__min__energy>  (11) 
-8.5700000000000003

>  <m_primary>  (11) 
energy

$$$$
11:0
     RDKit          3D

 36 38  0  0  0  0  0  0  0  0999 V2000
   67.1960   33.3760   51.4090 C   0  0  0  0  0  0  0  0  0  0  0  0
   65.8770   33.7580   51.7800 O   0  0  0  0  0  0  0  0  0  0  0  0
   64.8130   33.7770   50.8750 C   0  0  0  0  0  0  0  0  0  0  0  0
   63.7340   34.5790   51.0830 N   0  0  0  0  0  0  0  0  0  0  0  0
   62.6980   34.6050   50.2090 C   0  0  0  0  0  0  0  0  0  0  0  0
   62.7210   33.7920   49.0630 C   0  0  0  0  0  0  0  0  0  0  0  0
   63.8450   32.9620   48.8700 C   0  0  0  0  0  0  0  0  0  0  0  0
   64.8620   32.9880   49.7730 N   0  0  0  0  0  0  0  0  0  0  0  0
   63.9830   32.1590   47.6790 N   0  0  0  0  0  0  0  0  0  0  0  0
   62.6810   31.7640   47.1230 C   0  0  0  0  0  0  0  0  0  0  0  0
   61.8130   32.9980   46.8640 C   0  0  0  0  0  0  0  0  0  0  0  0
   61.6280   33.7520   48.1110 N   0  0  0  0  0  0  0  0  0  0  0  0
   60.3440   34.4300   48.3520 C   0  0  0  0  0  0  0  0  0  0  0  0
   59.4340   34.2960   47.1580 C   0  0  0  0  0  0  0  0  0  0  0  0
   59.6610   35.0660   46.0040 C   0  0  0  0  0  0  0  0  0  0  0  0
   58.8110   34.9490   44.8990 C   0  0  0  0  0  0  0  0  0  0  0  0
   57.7230   34.0740   44.9430 C   0  0  0  0  0  0  0  0  0  0  0  0
   57.4810   33.3170   46.0910 C   0  0  0  0  0  0  0  0  0  0  0  0
   58.3280   33.4310   47.1970 C   0  0  0  0  0  0  0  0  0  0  0  0
   67.7958   33.2023   52.3146 H   0  0  0  0  0  0  0  0  0  0  0  0
   67.1562   32.4525   50.8128 H   0  0  0  0  0  0  0  0  0  0  0  0
   67.6559   34.1778   50.8128 H   0  0  0  0  0  0  0  0  0  0  0  0
   61.8375   35.2639   50.3973 H   0  0  0  0  0  0  0  0  0  0  0  0
   64.5230   31.2920   47.9080 H   0  0  0  0  0  0  0  0  0  0  0  0
   64.5190   32.7080   46.9660 H   0  0  0  0  0  0  0  0  0  0  0  0
   62.8394   31.2274   46.1759 H   0  0  0  0  0  0  0  0  0  0  0  0
   62.1677   31.1129   47.8460 H   0  0  0  0  0  0  0  0  0  0  0  0
   62.3058   33.6404   46.1194 H   0  0  0  0  0  0  0  0  0  0  0  0
   60.8309   32.6764   46.4871 H   0  0  0  0  0  0  0  0  0  0  0  0
   59.8570   33.9783   49.2288 H   0  0  0  0  0  0  0  0  0  0  0  0
   60.5378   35.4983   48.5287 H   0  0  0  0  0  0  0  0  0  0  0  0
   60.5108   35.7636   45.9697 H   0  0  0  0  0  0  0  0  0  0  0  0
   58.9996   35.5465   43.9949 H   0  0  0  0  0  0  0  0  0  0  0  0
   57.0566   33.9813   44.0728 H   0  0  0  0  0  0  0  0  0  0  0  0
   56.6226   32.6300   46.1251 H   0  0  0  0  0  0  0  0  0  0  0  0
   58.1274   32.8401   48.1029 H   0  0  0  0  0  0  0  0  0  0  0  0
  1  2  1  0
  2  3  1  0
  3  4  2  0
  4  5  1  0
  5  6  2  0
  6  7  1  0
  7  8  2  0
  7  9  1  0
  9 10  1  0
 10 11  1  0
 11 12  1  0
 12 13  1  0
 13 14  1  0
 14 15  2  0
 15 16  1  0
 16 17  2  0
 17 18  1  0
 18 19  2  0
  8  3  1  0
 19 14  1  0
 12  6  1  0
  1 20  1  0
  1 21  1  0
  1 22  1  0
  5 23  1  0
  9 24  1  0
  9 25  1  0
 10 26  1  0
 10 27  1  0
 11 28  1  0
 11 29  1  0
 13 30  1  0
 13 31  1  0
 15 32  1  0
 16 33  1  0
 17 34  1  0
 18 35  1  0
 19 36  1  0
M  CHG  1   9   1
M  END
>  <UniqueID>  (12) 
12

>  <SMILES>  (12) 
COc1ncc2c(n1)[NH2+]CCN2Cc1ccccc1

>  <Energy>  (12) 
39.0340716389337

>  <Genealogy>  (12) 
COc1ncc2c(n1)[NH2+]CCN2Cc1ccccc1 (protonated)
COc1ncc2c(n1)[NH2+]CCN2Cc1ccccc1 (3D coordinates assigned)
COc1ncc2c(n1)[NH2+]CCN2Cc1ccccc1 (nonaromatic ring conformer: 39.0340716389337 kcal/mol)

>  <smiles>  (12) 
COc1ncc2c(n1)NCCN2Cc1ccccc1

>  <score_type>  (12) 
oracle

>  <origin>  (12) 
adg

>  <m_score__min__energy>  (12) 
-5.1900000000000004

>  <m_primary>  (12) 
energy

$$$$
12:0
     RDKit          3D

 50 53  0  0  0  0  0  0  0  0999 V2000
   56.9960   30.6130   43.8930 C   0  0  0  0  0  0  0  0  0  0  0  0
   57.1160   31.0030   45.2550 O   0  0  0  0  0  0  0  0  0  0  0  0
   58.3060   31.4990   45.7970 C   0  0  0  0  0  0  0  0  0  0  0  0
   59.3770   30.8600   45.6420 O   0  0  0  0  0  0  0  0  0  0  0  0
   58.2580   32.7840   46.5910 C   0  0  2  0  0  0  0  0  0  0  0  0
   59.0120   33.9970   46.0040 C   0  0  1  0  0  0  0  0  0  0  0  0
   58.9080   34.9710   47.1610 C   0  0  0  0  0  0  0  0  0  0  0  0
   59.5810   34.0530   48.1650 C   0  0  2  0  0  0  0  0  0  0  0  0
   60.9150   33.7800   47.4750 C   0  0  2  0  0  0  0  0  0  0  0  0
   60.5300   33.7500   45.9770 C   0  0  0  0  0  0  0  0  0  0  0  0
   61.6650   32.5280   48.0000 C   0  0  1  0  0  0  0  0  0  0  0  0
   62.7890   32.3200   47.1300 O   0  0  0  0  0  0  0  0  0  0  0  0
   63.7430   33.3620   47.0540 C   0  0  0  0  0  0  0  0  0  0  0  0
   62.2690   32.8210   49.3720 C   0  0  0  0  0  0  0  0  0  0  0  0
   62.5670   31.4490   49.9270 C   0  0  0  0  0  0  0  0  0  0  0  0
   61.6190   30.5110   49.1840 C   0  0  0  0  0  0  0  0  0  0  0  0
   60.8220   31.3060   48.2040 N   0  0  0  0  0  0  0  0  0  0  0  0
   59.4030   31.5180   48.7010 C   0  0  0  0  0  0  0  0  0  0  0  0
   58.5230   30.4320   48.3480 O   0  0  0  0  0  0  0  0  0  0  0  0
   59.1160   29.1670   48.1430 C   0  0  0  0  0  0  0  0  0  0  0  0
   59.4320   31.7400   50.1180 O   0  0  0  0  0  0  0  0  0  0  0  0
   58.1610   31.9650   50.6980 C   0  0  0  0  0  0  0  0  0  0  0  0
   58.7240   32.7840   48.0810 C   0  0  2  0  0  0  0  0  0  0  0  0
   56.6729   29.5629   43.8394 H   0  0  0  0  0  0  0  0  0  0  0  0
   56.2527   31.2513   43.3929 H   0  0  0  0  0  0  0  0  0  0  0  0
   57.9696   30.7231   43.3929 H   0  0  0  0  0  0  0  0  0  0  0  0
   57.1634   32.8706   46.5256 H   0  0  0  0  0  0  0  0  0  0  0  0
   58.6314   34.2657   45.0075 H   0  0  0  0  0  0  0  0  0  0  0  0
   59.4668   35.9028   46.9894 H   0  0  0  0  0  0  0  0  0  0  0  0
   57.9112   35.3621   47.4129 H   0  0  0  0  0  0  0  0  0  0  0  0
   59.6947   34.4086   49.1997 H   0  0  0  0  0  0  0  0  0  0  0  0
   61.6733   34.5484   47.6860 H   0  0  0  0  0  0  0  0  0  0  0  0
   61.0496   34.5432   45.4194 H   0  0  0  0  0  0  0  0  0  0  0  0
   60.8071   32.8100   45.4773 H   0  0  0  0  0  0  0  0  0  0  0  0
   64.0279   33.6731   48.0699 H   0  0  0  0  0  0  0  0  0  0  0  0
   64.6339   33.0050   46.5165 H   0  0  0  0  0  0  0  0  0  0  0  0
   63.3090   34.2180   46.5165 H   0  0  0  0  0  0  0  0  0  0  0  0
   61.5514   33.3562   50.0112 H   0  0  0  0  0  0  0  0  0  0  0  0
   63.1598   33.4642   49.3191 H   0  0  0  0  0  0  0  0  0  0  0  0
   62.3724   31.4185   51.0092 H   0  0  0  0  0  0  0  0  0  0  0  0
   63.6212   31.1666   49.7898 H   0  0  0  0  0  0  0  0  0  0  0  0
   60.9424   30.0249   49.9023 H   0  0  0  0  0  0  0  0  0  0  0  0
   62.1972   29.7390   48.6551 H   0  0  0  0  0  0  0  0  0  0  0  0
   59.3339   28.7022   49.1159 H   0  0  0  0  0  0  0  0  0  0  0  0
   58.4248   28.5255   47.5767 H   0  0  0  0  0  0  0  0  0  0  0  0
   60.0513   29.2879   47.5767 H   0  0  0  0  0  0  0  0  0  0  0  0
   58.2502   31.9492   51.7943 H   0  0  0  0  0  0  0  0  0  0  0  0
   57.7789   32.9447   50.3753 H   0  0  0  0  0  0  0  0  0  0  0  0
   57.4658   31.1760   50.3753 H   0  0  0  0  0  0  0  0  0  0  0  0
   57.8337   32.7605   48.7265 H   0  0  0  0  0  0  0  0  0  0  0  0
  1  2  1  0
  2  3  1  0
  3  4  2  0
  3  5  1  0
  5  6  1  0
  6  7  1  0
  7  8  1  0
  8  9  1  0
  9 10  1  0
  9 11  1  0
 11 12  1  6
 12 13  1  0
 11 14  1  0
 14 15  1  0
 15 16  1  0
 16 17  1  0
 17 18  1  0
 18 19  1  0
 19 20  1  0
 18 21  1  0
 21 22  1  0
 18 23  1  0
 23  5  1  0
 10  6  1  0
 17 11  1  0
 23  8  1  0
  1 24  1  0
  1 25  1  0
  1 26  1  0
  5 27  1  1
  6 28  1  6
  7 29  1  0
  7 30  1  0
  8 31  1  1
  9 32  1  6
 10 33  1  0
 10 34  1  0
 13 35  1  0
 13 36  1  0
 13 37  1  0
 14 38  1  0
 14 39  1  0
 15 40  1  0
 15 41  1  0
 16 42  1  0
 16 43  1  0
 20 44  1  0
 20 45  1  0
 20 46  1  0
 22 47  1  0
 22 48  1  0
 22 49  1  0
 23 50  1  1
M  END
>  <UniqueID>  (13) 
13

>  <SMILES>  (13) 
COC(=O)[C@H]1C2C3C[C@H]1CC3C1(OC)CCCN1C2(OC)OC

>  <Energy>  (13) 
135.58670264930115

>  <Genealogy>  (13) 
COC(=O)[C@H]1C2C3C[C@H]1CC3C1(OC)CCCN1C2(OC)OC (chirality)
COC(=O)[C@H]1C2C3C[C@H]1CC3C1(OC)CCCN1C2(OC)OC (3D coordinates assigned)
COC(=O)[C@H]1C2C3C[C@H]1CC3C1(OC)CCCN1C2(OC)OC (nonaromatic ring conformer: 135.58670264930115 kcal/mol)

>  <smiles>  (13) 
COC(=O)C1C2CC3C(C2)C2(OC)CCCN2C(OC)(OC)C31

>  <score_type>  (13) 
oracle

>  <origin>  (13) 
adg

>  <m_score__min__energy>  (13) 
-6.4400000000000004

>  <m_primary>  (13) 
energy

$$$$
13:0
     RDKit          3D

 43 45  0  0  0  0  0  0  0  0999 V2000
   56.9830   21.7370   46.8160 C   0  0  0  0  0  0  0  0  0  0  0  0
   56.7420   22.1070   45.3780 C   0  0  0  0  0  0  0  0  0  0  0  0
   57.1430   21.2350   44.3520 C   0  0  0  0  0  0  0  0  0  0  0  0
   56.9140   21.5650   43.0140 C   0  0  0  0  0  0  0  0  0  0  0  0
   56.2910   22.7700   42.6870 C   0  0  0  0  0  0  0  0  0  0  0  0
   55.8860   23.6440   43.6970 C   0  0  0  0  0  0  0  0  0  0  0  0
   56.0880   23.3130   45.0500 C   0  0  0  0  0  0  0  0  0  0  0  0
   55.6800   24.2100   46.0960 N   0  0  0  0  0  0  0  0  0  0  0  0
   55.7970   25.6370   46.0540 C   0  0  0  0  0  0  0  0  0  0  0  0
   54.7510   26.3350   45.9950 O   0  0  0  0  0  0  0  0  0  0  0  0
   57.1180   26.3010   46.0470 C   0  0  0  0  0  0  0  0  0  0  0  0
   58.3020   25.5500   46.0890 C   0  0  0  0  0  0  0  0  0  0  0  0
   59.5080   26.1740   46.0960 N   0  0  0  0  0  0  0  0  0  0  0  0
   59.6130   27.5290   46.0840 C   0  0  0  0  0  0  0  0  0  0  0  0
   58.4630   28.3240   46.0770 C   0  0  0  0  0  0  0  0  0  0  0  0
   58.5940   29.7500   46.1380 N   0  0  0  0  0  0  0  0  0  0  0  0
   57.7710   30.6920   45.4380 C   0  0  0  0  0  0  0  0  0  0  0  0
   56.6540   30.3150   45.0000 O   0  0  0  0  0  0  0  0  0  0  0  0
   58.2040   32.0870   45.2010 C   0  0  0  0  0  0  0  0  0  0  0  0
   58.6590   32.9620   46.1680 C   0  0  0  0  0  0  0  0  0  0  0  0
   58.8790   32.6490   47.8830 Cl  0  0  0  0  0  0  0  0  0  0  0  0
   58.9900   34.1110   45.4770 C   0  0  0  0  0  0  0  0  0  0  0  0
   59.6180   35.3360   46.0520 C   0  0  0  0  0  0  0  0  0  0  0  0
   58.7450   33.9380   44.1640 N   0  0  0  0  0  0  0  0  0  0  0  0
   58.2530   32.7180   44.0040 N   0  0  0  0  0  0  0  0  0  0  0  0
   57.8480   32.1990   42.7010 C   0  0  0  0  0  0  0  0  0  0  0  0
   57.2080   27.6980   46.0140 C   0  0  0  0  0  0  0  0  0  0  0  0
   56.5007   22.4775   47.4709 H   0  0  0  0  0  0  0  0  0  0  0  0
   56.5597   20.7413   47.0143 H   0  0  0  0  0  0  0  0  0  0  0  0
   58.0649   21.7216   47.0143 H   0  0  0  0  0  0  0  0  0  0  0  0
   57.6403   20.2867   44.6038 H   0  0  0  0  0  0  0  0  0  0  0  0
   57.2253   20.8738   42.2169 H   0  0  0  0  0  0  0  0  0  0  0  0
   56.1189   23.0313   41.6324 H   0  0  0  0  0  0  0  0  0  0  0  0
   55.4057   24.5980   43.4338 H   0  0  0  0  0  0  0  0  0  0  0  0
   58.2533   24.4514   46.1164 H   0  0  0  0  0  0  0  0  0  0  0  0
   60.6062   28.0018   46.0798 H   0  0  0  0  0  0  0  0  0  0  0  0
   59.5900   35.2814   47.1503 H   0  0  0  0  0  0  0  0  0  0  0  0
   60.6628   35.4052   45.7148 H   0  0  0  0  0  0  0  0  0  0  0  0
   59.0643   36.2247   45.7148 H   0  0  0  0  0  0  0  0  0  0  0  0
   57.1768   31.3389   42.8414 H   0  0  0  0  0  0  0  0  0  0  0  0
   57.3229   32.9861   42.1399 H   0  0  0  0  0  0  0  0  0  0  0  0
   58.7391   31.8810   42.1399 H   0  0  0  0  0  0  0  0  0  0  0  0
   56.2942   28.3057   45.9386 H   0  0  0  0  0  0  0  0  0  0  0  0
  1  2  1  0
  2  3  2  0
  3  4  1  0
  4  5  2  0
  5  6  1  0
  6  7  2  0
  7  8  1  0
  8  9  1  0
  9 10  2  0
  9 11  1  0
 11 12  2  0
 12 13  1  0
 13 14  2  0
 14 15  1  0
 15 16  1  0
 16 17  1  0
 17 18  2  0
 17 19  1  0
 19 20  2  0
 20 21  1  0
 20 22  1  0
 22 23  1  0
 22 24  2  0
 24 25  1  0
 25 26  1  0
 15 27  2  0
  7  2  1  0
 27 11  1  0
 25 19  1  0
  1 28  1  0
  1 29  1  0
  1 30  1  0
  3 31  1  0
  4 32  1  0
  5 33  1  0
  6 34  1  0
 12 35  1  0
 14 36  1  0
 23 37  1  0
 23 38  1  0
 23 39  1  0
 26 40  1  0
 26 41  1  0
 26 42  1  0
 27 43  1  0
M  CHG  2   8  -1  16  -1
M  END
>  <UniqueID>  (14) 
14

>  <SMILES>  (14) 
Cc1ccccc1[N-]C(=O)c1cncc([N-]C(=O)c2c(Cl)c(C)nn2C)c1

>  <Energy>  (14) 
88.16904910903699

>  <Genealogy>  (14) 
Cc1ccccc1[N-]C(=O)c1cncc([N-]C(=O)c2c(Cl)c(C)nn2C)c1 (protonated)
Cc1ccccc1[N-]C(=O)c1cncc([N-]C(=O)c2c(Cl)c(C)nn2C)c1 (3D coordinates assigned)
Cc1ccccc1[N-]C(=O)c1cncc([N-]C(=O)c2c(Cl)c(C)nn2C)c1 (optimized conformer: 88.16904910903699 kcal/mol)

>  <smiles>  (14) 
Cc1ccccc1NC(=O)c1cncc(NC(=O)c2c(Cl)c(C)nn2C)c1

>  <score_type>  (14) 
oracle

>  <origin>  (14) 
adg

>  <m_score__min__energy>  (14) 
-11.98

>  <m_primary>  (14) 
energy

$$$$
14:0
     RDKit          3D

 33 35  0  0  1  0  0  0  0  0999 V2000
   62.4520   33.4190   47.2960 C   0  0  0  0  0  0  0  0  0  0  0  0
   61.5780   34.0960   48.1750 O   0  0  0  0  0  0  0  0  0  0  0  0
   60.2080   33.9670   48.1490 C   0  0  0  0  0  0  0  0  0  0  0  0
   59.5820   34.0530   49.2460 O   0  0  0  0  0  0  0  0  0  0  0  0
   59.4980   33.7340   46.8850 C   0  0  0  0  0  0  0  0  0  0  0  0
   59.2650   34.7910   46.0010 C   0  0  0  0  0  0  0  0  0  0  0  0
   58.5940   34.5670   44.8110 C   0  0  0  0  0  0  0  0  0  0  0  0
   58.1790   33.2810   44.5470 C   0  0  0  0  0  0  0  0  0  0  0  0
   58.4000   32.2260   45.4100 C   0  0  0  0  0  0  0  0  0  0  0  0
   57.9400   30.9200   45.0690 N   0  0  0  0  0  0  0  0  0  0  0  0
   58.0230   29.7690   45.9550 C   0  0  0  0  0  0  0  0  0  0  0  0
   57.1620   28.7640   45.2020 C   0  0  2  0  0  0  0  0  0  0  0  0
   57.7190   29.0280   43.7940 C   0  0  0  0  0  0  0  0  0  0  0  0
   57.3320   30.5110   43.8310 C   0  0  1  0  0  0  0  0  0  0  0  0
   55.8660   30.3420   44.0930 C   0  0  0  0  0  0  0  0  0  0  0  0
   55.8330   29.2720   45.0920 N   0  0  0  0  0  0  0  0  0  0  0  0
   59.0690   32.4470   46.5970 C   0  0  0  0  0  0  0  0  0  0  0  0
   63.1892   32.8480   47.8796 H   0  0  0  0  0  0  0  0  0  0  0  0
   61.8738   32.7308   46.6619 H   0  0  0  0  0  0  0  0  0  0  0  0
   62.9738   34.1509   46.6619 H   0  0  0  0  0  0  0  0  0  0  0  0
   59.6155   35.8032   46.2513 H   0  0  0  0  0  0  0  0  0  0  0  0
   58.3996   35.3859   44.1028 H   0  0  0  0  0  0  0  0  0  0  0  0
   57.6466   33.0849   43.6046 H   0  0  0  0  0  0  0  0  0  0  0  0
   59.0588   29.4145   46.0616 H   0  0  0  0  0  0  0  0  0  0  0  0
   57.6959   29.9650   46.9868 H   0  0  0  0  0  0  0  0  0  0  0  0
   57.1649   27.7497   45.6278 H   0  0  0  0  0  0  0  0  0  0  0  0
   58.8034   28.8611   43.7145 H   0  0  0  0  0  0  0  0  0  0  0  0
   57.3619   28.4082   42.9584 H   0  0  0  0  0  0  0  0  0  0  0  0
   57.5842   31.1731   42.9896 H   0  0  0  0  0  0  0  0  0  0  0  0
   55.4258   31.2683   44.4907 H   0  0  0  0  0  0  0  0  0  0  0  0
   55.2871   30.1084   43.1873 H   0  0  0  0  0  0  0  0  0  0  0  0
   55.5290   29.7150   46.0010 H   0  0  0  0  0  0  0  0  0  0  0  0
   59.2576   31.6210   47.2986 H   0  0  0  0  0  0  0  0  0  0  0  0
  1  2  1  0
  2  3  1  0
  3  4  2  0
  3  5  1  0
  5  6  2  0
  6  7  1  0
  7  8  2  0
  8  9  1  0
  9 10  1  0
 10 11  1  0
 11 12  1  0
 12 13  1  0
 13 14  1  0
 14 15  1  0
 15 16  1  0
  9 17  2  0
 17  5  1  0
 14 10  1  0
 16 12  1  0
  1 18  1  0
  1 19  1  0
  1 20  1  0
  6 21  1  0
  7 22  1  0
  8 23  1  0
 11 24  1  0
 11 25  1  0
 12 26  1  1
 13 27  1  0
 13 28  1  0
 14 29  1  6
 15 30  1  0
 15 31  1  0
 16 32  1  0
 17 33  1  0
M  END
>  <smiles>  (15) 
COC(=O)c1cccc(N2CC3CC2CN3)c1

>  <score_type>  (15) 
oracle

>  <origin>  (15) 
adg

>  <m_score__min__energy>  (15) 
-7

>  <m_primary>  (15) 
energy

$$$$
15:0
     RDKit          3D

 46 49  0  0  0  0  0  0  0  0999 V2000
   60.5087   34.6598   49.2902 H   0  0  0  0  0  0  0  0  0  0  0  0
   61.3320   34.1740   48.7460 C   0  0  0  0  0  0  0  0  0  0  0  0
   62.5880   34.0590   49.3480 C   0  0  0  0  0  0  0  0  0  0  0  0
   62.7410   34.4387   50.3690 H   0  0  0  0  0  0  0  0  0  0  0  0
   63.6530   33.4640   48.6610 C   0  0  0  0  0  0  0  0  0  0  0  0
   64.8940   33.3700   49.3080 O   0  0  0  0  0  0  0  0  0  0  0  0
   65.3060   32.2570   50.0960 C   0  0  0  0  0  0  0  0  0  0  0  0
   65.2129   32.5085   51.1628 H   0  0  0  0  0  0  0  0  0  0  0  0
   64.6693   31.3897   49.8668 H   0  0  0  0  0  0  0  0  0  0  0  0
   66.3539   32.0133   49.8668 H   0  0  0  0  0  0  0  0  0  0  0  0
   63.4450   32.9910   47.3510 C   0  0  0  0  0  0  0  0  0  0  0  0
   64.2760   32.5296   46.7973 H   0  0  0  0  0  0  0  0  0  0  0  0
   62.1880   33.1050   46.7510 C   0  0  0  0  0  0  0  0  0  0  0  0
   62.0384   32.7463   45.7219 H   0  0  0  0  0  0  0  0  0  0  0  0
   61.1130   33.6760   47.4560 C   0  0  0  0  0  0  0  0  0  0  0  0
   59.8150   33.8460   46.8630 N   0  0  0  0  0  0  0  0  0  0  0  0
   59.1040   32.9400   46.2550 C   0  0  0  0  0  0  0  0  0  0  0  0
   58.7590   33.0850   44.9440 N   0  0  0  0  0  0  0  0  0  0  0  0
   58.0740   32.1220   44.2770 C   0  0  0  0  0  0  0  0  0  0  0  0
   57.7250   32.2950   42.9330 C   0  0  0  0  0  0  0  0  0  0  0  0
   58.0001   33.2209   42.4067 H   0  0  0  0  0  0  0  0  0  0  0  0
   57.0250   31.2870   42.2600 C   0  0  0  0  0  0  0  0  0  0  0  0
   56.7485   31.4218   41.2039 H   0  0  0  0  0  0  0  0  0  0  0  0
   56.6760   30.1070   42.9290 C   0  0  0  0  0  0  0  0  0  0  0  0
   56.1249   29.3176   42.3969 H   0  0  0  0  0  0  0  0  0  0  0  0
   57.0260   29.9290   44.2720 C   0  0  0  0  0  0  0  0  0  0  0  0
   56.7539   29.0001   44.7946 H   0  0  0  0  0  0  0  0  0  0  0  0
   57.7230   30.9360   44.9480 C   0  0  0  0  0  0  0  0  0  0  0  0
   58.0700   30.7830   46.2520 N   0  0  0  0  0  0  0  0  0  0  0  0
   58.7440   31.7540   46.9290 C   0  0  0  0  0  0  0  0  0  0  0  0
   59.0870   31.5400   48.3090 N   0  0  0  0  0  0  0  0  0  0  0  0
   58.4280   32.3500   49.3440 C   0  0  0  0  0  0  0  0  0  0  0  0
   58.7198   33.4030   49.2174 H   0  0  0  0  0  0  0  0  0  0  0  0
   57.3389   32.2378   49.2378 H   0  0  0  0  0  0  0  0  0  0  0  0
   58.8340   31.8820   50.7450 C   0  0  0  0  0  0  0  0  0  0  0  0
   58.5891   32.6659   51.4768 H   0  0  0  0  0  0  0  0  0  0  0  0
   58.2875   30.9598   50.9916 H   0  0  0  0  0  0  0  0  0  0  0  0
   60.2770   31.6140   50.7830 N   0  0  0  0  0  0  0  0  0  0  0  0
   60.5530   31.4000   51.7700 H   0  0  0  0  0  0  0  0  0  0  0  0
   60.7950   32.4760   50.4880 H   0  0  0  0  0  0  0  0  0  0  0  0
   60.6690   30.4830   49.9170 C   0  0  0  0  0  0  0  0  0  0  0  0
   61.6960   30.6574   49.5636 H   0  0  0  0  0  0  0  0  0  0  0  0
   60.5801   29.5704   50.5247 H   0  0  0  0  0  0  0  0  0  0  0  0
   59.7570   30.2910   48.6850 C   0  0  0  0  0  0  0  0  0  0  0  0
   60.3686   29.9453   47.8386 H   0  0  0  0  0  0  0  0  0  0  0  0
   58.9851   29.5502   48.9407 H   0  0  0  0  0  0  0  0  0  0  0  0
  1  2  1  0
  2  3  2  0
  3  4  1  0
  3  5  1  0
  5  6  1  0
  6  7  1  0
  7  8  1  0
  7  9  1  0
  7 10  1  0
  5 11  2  0
 11 12  1  0
 11 13  1  0
 13 14  1  0
 13 15  2  0
 15 16  1  0
 16 17  2  0
 17 18  1  0
 18 19  1  0
 19 20  2  0
 20 21  1  0
 20 22  1  0
 22 23  1  0
 22 24  2  0
 24 25  1  0
 24 26  1  0
 26 27  1  0
 26 28  2  0
 28 29  1  0
 29 30  2  0
 30 31  1  0
 31 32  1  0
 32 33  1  0
 32 34  1  0
 32 35  1  0
 35 36  1  0
 35 37  1  0
 35 38  1  0
 38 39  1  0
 38 40  1  0
 38 41  1  0
 41 42  1  0
 41 43  1  0
 41 44  1  0
 44 45  1  0
 44 46  1  0
 15  2  1  0
 30 17  1  0
 44 31  1  0
 28 19  1  0
M  CHG  2  18  -1  38   1
M  END
>  <UniqueID>  (16) 
15

>  <SMILES>  (16) 
COc1ccc(/N=c2\[n-]c3ccccc3nc2N2CC[NH2+]CC2)cc1

>  <Energy>  (16) 
67.22921095881226

>  <Genealogy>  (16) 
COc1ccc(N=c2[n-]c3ccccc3nc2N2CC[NH2+]CC2)cc1 (protonated)
COc1ccc(/N=c2\[n-]c3ccccc3nc2N2CC[NH2+]CC2)cc1 (cis-trans isomerization)
COc1ccc(/N=c2\[n-]c3ccccc3nc2N2CC[NH2+]CC2)cc1 (3D coordinates assigned)
COc1ccc(/N=c2\[n-]c3ccccc3nc2N2CC[NH2+]CC2)cc1 (nonaromatic ring conformer: 67.22921095881226 kcal/mol)

>  <smiles>  (16) 
COc1ccc(N=c2[nH]c3ccccc3nc2N2CCNCC2)cc1

>  <score_type>  (16) 
oracle

>  <origin>  (16) 
adg

>  <m_score__min__energy>  (16) 
-6.9400000000000004

>  <m_primary>  (16) 
energy

$$$$
16:0
     RDKit          3D

 35 36  0  0  0  0  0  0  0  0999 V2000
   59.1120   34.3790   45.1430 C   0  0  0  0  0  0  0  0  0  0  0  0
   59.8990   34.2470   46.4120 C   0  0  0  0  0  0  0  0  0  0  0  0
   59.2570   34.3480   47.6550 C   0  0  0  0  0  0  0  0  0  0  0  0
   59.9830   34.1880   48.8370 C   0  0  0  0  0  0  0  0  0  0  0  0
   61.3520   33.9110   48.7880 C   0  0  0  0  0  0  0  0  0  0  0  0
   62.0100   33.7850   47.5520 C   0  0  0  0  0  0  0  0  0  0  0  0
   63.4960   33.4770   47.5070 C   0  0  2  0  0  0  0  0  0  0  0  0
   63.7120   32.2630   46.8280 O   0  0  0  0  0  0  0  0  0  0  0  0
   64.1120   33.4600   48.9390 C   0  0  0  0  0  0  0  0  0  0  0  0
   64.6860   32.1580   49.3720 N   0  0  0  0  0  0  0  0  0  0  0  0
   65.9420   32.2810   50.1300 C   0  0  0  0  0  0  0  0  0  0  0  0
   65.6170   32.0600   51.5970 C   0  0  0  0  0  0  0  0  0  0  0  0
   64.3340   31.2530   51.6050 C   0  0  0  0  0  0  0  0  0  0  0  0
   63.7620   31.3510   50.1930 C   0  0  0  0  0  0  0  0  0  0  0  0
   61.2710   33.9510   46.3650 C   0  0  0  0  0  0  0  0  0  0  0  0
   58.0537   34.5565   45.3847 H   0  0  0  0  0  0  0  0  0  0  0  0
   59.5010   35.2244   44.5566 H   0  0  0  0  0  0  0  0  0  0  0  0
   59.2039   33.4529   44.5566 H   0  0  0  0  0  0  0  0  0  0  0  0
   58.1774   34.5541   47.6988 H   0  0  0  0  0  0  0  0  0  0  0  0
   59.4763   34.2802   49.8090 H   0  0  0  0  0  0  0  0  0  0  0  0
   61.9187   33.7907   49.7231 H   0  0  0  0  0  0  0  0  0  0  0  0
   64.0088   34.2762   46.9517 H   0  0  0  0  0  0  0  0  0  0  0  0
   64.6050   32.3030   46.3980 H   0  0  0  0  0  0  0  0  0  0  0  0
   64.9140   34.2121   48.9722 H   0  0  0  0  0  0  0  0  0  0  0  0
   63.2808   33.6687   49.6286 H   0  0  0  0  0  0  0  0  0  0  0  0
   64.8940   31.6230   48.4940 H   0  0  0  0  0  0  0  0  0  0  0  0
   66.6625   31.5238   49.7873 H   0  0  0  0  0  0  0  0  0  0  0  0
   66.3885   33.2749   49.9789 H   0  0  0  0  0  0  0  0  0  0  0  0
   66.4261   31.5022   52.0912 H   0  0  0  0  0  0  0  0  0  0  0  0
   65.5074   33.0101   52.1405 H   0  0  0  0  0  0  0  0  0  0  0  0
   64.5448   30.2038   51.8593 H   0  0  0  0  0  0  0  0  0  0  0  0
   63.6240   31.6353   52.3531 H   0  0  0  0  0  0  0  0  0  0  0  0
   63.6638   30.3441   49.7611 H   0  0  0  0  0  0  0  0  0  0  0  0
   62.7687   31.8228   50.2191 H   0  0  0  0  0  0  0  0  0  0  0  0
   61.7731   33.8479   45.3917 H   0  0  0  0  0  0  0  0  0  0  0  0
  1  2  1  0
  2  3  2  0
  3  4  1  0
  4  5  2  0
  5  6  1  0
  6  7  1  0
  7  8  1  0
  7  9  1  0
  9 10  1  0
 10 11  1  0
 11 12  1  0
 12 13  1  0
 13 14  1  0
  6 15  2  0
 15  2  1  0
 14 10  1  0
  1 16  1  0
  1 17  1  0
  1 18  1  0
  3 19  1  0
  4 20  1  0
  5 21  1  0
  7 22  1  6
  8 23  1  0
  9 24  1  0
  9 25  1  0
 10 26  1  0
 11 27  1  0
 11 28  1  0
 12 29  1  0
 12 30  1  0
 13 31  1  0
 13 32  1  0
 14 33  1  0
 14 34  1  0
 15 35  1  0
M  CHG  1  10   1
M  END
>  <UniqueID>  (17) 
16

>  <SMILES>  (17) 
Cc1cccc([C@H](O)C[NH+]2CCCC2)c1

>  <Energy>  (17) 
41.810652530271575

>  <Genealogy>  (17) 
Cc1cccc(C(O)C[NH+]2CCCC2)c1 (protonated)
Cc1cccc([C@H](O)C[NH+]2CCCC2)c1 (chirality)
Cc1cccc([C@H](O)C[NH+]2CCCC2)c1 (3D coordinates assigned)
Cc1cccc([C@H](O)C[NH+]2CCCC2)c1 (nonaromatic ring conformer: 41.810652530271575 kcal/mol)

>  <smiles>  (17) 
Cc1cccc(C(O)CN2CCCC2)c1

>  <score_type>  (17) 
oracle

>  <origin>  (17) 
adg

>  <m_score__min__energy>  (17) 
-4.5599999999999996

>  <m_primary>  (17) 
energy

$$$$
17:0
     RDKit          3D

 40 42  0  0  0  0  0  0  0  0999 V2000
   59.1830   30.0720   48.1050 C   0  0  0  0  0  0  0  0  0  0  0  0
   58.9280   31.5470   48.3910 C   0  0  0  0  0  0  0  0  0  0  0  0
   59.7640   32.3850   47.5250 N   0  0  0  0  0  0  0  0  0  0  0  0
   59.3540   33.2250   46.5330 C   0  0  0  0  0  0  0  0  0  0  0  0
   57.9280   33.4140   46.0730 C   0  0  0  0  0  0  0  0  0  0  0  0
   57.3100   32.1480   45.6460 N   0  0  0  0  0  0  0  0  0  0  0  0
   57.6410   31.7930   44.2570 C   0  0  0  0  0  0  0  0  0  0  0  0
   57.9760   30.3280   44.1320 C   0  0  0  0  0  0  0  0  0  0  0  0
   59.1300   29.8010   44.7310 C   0  0  0  0  0  0  0  0  0  0  0  0
   59.4090   28.4370   44.6290 C   0  0  0  0  0  0  0  0  0  0  0  0
   58.5230   27.6070   43.9430 C   0  0  0  0  0  0  0  0  0  0  0  0
   57.3940   28.1240   43.3860 N   0  0  0  0  0  0  0  0  0  0  0  0
   57.1010   29.4500   43.4730 C   0  0  0  0  0  0  0  0  0  0  0  0
   60.4370   33.9120   45.9890 C   0  0  0  0  0  0  0  0  0  0  0  0
   61.5340   33.4780   46.6960 C   0  0  0  0  0  0  0  0  0  0  0  0
   62.8730   33.8490   46.5920 C   0  0  0  0  0  0  0  0  0  0  0  0
   63.7890   33.2540   47.4760 C   0  0  0  0  0  0  0  0  0  0  0  0
   63.3500   32.3180   48.4370 C   0  0  0  0  0  0  0  0  0  0  0  0
   61.9920   31.9640   48.5210 C   0  0  0  0  0  0  0  0  0  0  0  0
   61.1000   32.5630   47.6230 C   0  0  0  0  0  0  0  0  0  0  0  0
   59.2775   29.5253   49.0549 H   0  0  0  0  0  0  0  0  0  0  0  0
   58.3428   29.6600   47.5269 H   0  0  0  0  0  0  0  0  0  0  0  0
   60.1128   29.9660   47.5269 H   0  0  0  0  0  0  0  0  0  0  0  0
   57.8684   31.7751   48.2035 H   0  0  0  0  0  0  0  0  0  0  0  0
   59.1782   31.7564   49.4415 H   0  0  0  0  0  0  0  0  0  0  0  0
   57.3404   33.8330   46.9032 H   0  0  0  0  0  0  0  0  0  0  0  0
   57.9390   34.0935   45.2080 H   0  0  0  0  0  0  0  0  0  0  0  0
   56.2700   32.2230   45.7350 H   0  0  0  0  0  0  0  0  0  0  0  0
   56.7780   32.0196   43.6137 H   0  0  0  0  0  0  0  0  0  0  0  0
   58.5199   32.3782   43.9486 H   0  0  0  0  0  0  0  0  0  0  0  0
   59.8151   30.4628   45.2812 H   0  0  0  0  0  0  0  0  0  0  0  0
   60.3192   28.0208   45.0855 H   0  0  0  0  0  0  0  0  0  0  0  0
   58.7371   26.5319   43.8518 H   0  0  0  0  0  0  0  0  0  0  0  0
   56.7360   27.4870   42.8840 H   0  0  0  0  0  0  0  0  0  0  0  0
   56.1737   29.8360   43.0246 H   0  0  0  0  0  0  0  0  0  0  0  0
   60.4187   34.6451   45.1691 H   0  0  0  0  0  0  0  0  0  0  0  0
   63.2023   34.5836   45.8424 H   0  0  0  0  0  0  0  0  0  0  0  0
   64.8550   33.5194   47.4187 H   0  0  0  0  0  0  0  0  0  0  0  0
   64.0763   31.8618   49.1258 H   0  0  0  0  0  0  0  0  0  0  0  0
   61.6408   31.2384   49.2695 H   0  0  0  0  0  0  0  0  0  0  0  0
  1  2  1  0
  2  3  1  0
  3  4  1  0
  4  5  1  0
  5  6  1  0
  6  7  1  0
  7  8  1  0
  8  9  2  0
  9 10  1  0
 10 11  2  0
 11 12  1  0
 12 13  2  0
  4 14  2  0
 14 15  1  0
 15 16  2  0
 16 17  1  0
 17 18  2  0
 18 19  1  0
 19 20  2  0
 20  3  1  0
 13  8  1  0
 20 15  1  0
  1 21  1  0
  1 22  1  0
  1 23  1  0
  2 24  1  0
  2 25  1  0
  5 26  1  0
  5 27  1  0
  6 28  1  0
  7 29  1  0
  7 30  1  0
  9 31  1  0
 10 32  1  0
 11 33  1  0
 12 34  1  0
 13 35  1  0
 14 36  1  0
 16 37  1  0
 17 38  1  0
 18 39  1  0
 19 40  1  0
M  CHG  1  12   1
M  END
>  <UniqueID>  (18) 
17

>  <SMILES>  (18) 
CCn1c(CNCc2ccc[nH+]c2)cc2ccccc21

>  <Energy>  (18) 
72.17456062168904

>  <Genealogy>  (18) 
CCn1c(CNCc2ccc[nH+]c2)cc2ccccc21 (protonated)
CCn1c(CNCc2ccc[nH+]c2)cc2ccccc21 (3D coordinates assigned)
CCn1c(CNCc2ccc[nH+]c2)cc2ccccc21 (optimized conformer: 72.17456062168904 kcal/mol)

>  <smiles>  (18) 
CCn1c(CNCc2cccnc2)cc2ccccc21

>  <score_type>  (18) 
oracle

>  <origin>  (18) 
adg

>  <m_score__min__energy>  (18) 
-5.8300000000000001

>  <m_primary>  (18) 
energy

$$$$
18:0
     RDKit          3D

 44 47  0  0  0  0  0  0  0  0999 V2000
   56.2660   20.1510   44.0190 C   0  0  0  0  0  0  0  0  0  0  0  0
   55.9800   21.3820   43.3630 O   0  0  0  0  0  0  0  0  0  0  0  0
   56.2540   22.6490   43.9000 C   0  0  0  0  0  0  0  0  0  0  0  0
   55.9210   22.9960   45.2240 C   0  0  0  0  0  0  0  0  0  0  0  0
   56.2140   24.2690   45.7170 C   0  0  0  0  0  0  0  0  0  0  0  0
   56.8460   25.2190   44.8960 C   0  0  0  0  0  0  0  0  0  0  0  0
   57.1570   26.5130   45.3470 C   0  0  0  0  0  0  0  0  0  0  0  0
   56.8480   26.8710   46.5180 O   0  0  0  0  0  0  0  0  0  0  0  0
   57.7970   27.4150   44.4750 C   0  0  0  0  0  0  0  0  0  0  0  0
   58.1620   28.7910   44.8970 C   0  0  0  0  0  0  0  0  0  0  0  0
   59.0930   29.0010   45.9230 C   0  0  0  0  0  0  0  0  0  0  0  0
   59.4420   30.2980   46.3130 C   0  0  0  0  0  0  0  0  0  0  0  0
   58.8750   31.4290   45.6820 C   0  0  0  0  0  0  0  0  0  0  0  0
   59.2380   32.7850   46.0880 N   0  0  0  0  0  0  0  0  0  0  0  0
   59.1310   33.8870   45.1080 C   0  0  0  0  0  0  0  0  0  0  0  0
   59.6180   35.2360   45.6460 C   0  0  0  0  0  0  0  0  0  0  0  0
   59.2510   35.4040   46.9940 O   0  0  0  0  0  0  0  0  0  0  0  0
   59.9980   34.4990   47.7720 C   0  0  0  0  0  0  0  0  0  0  0  0
   59.5610   33.0550   47.5060 C   0  0  0  0  0  0  0  0  0  0  0  0
   57.9370   31.1990   44.6480 C   0  0  0  0  0  0  0  0  0  0  0  0
   57.5930   29.9010   44.2600 C   0  0  0  0  0  0  0  0  0  0  0  0
   58.0860   26.9830   43.1700 C   0  0  0  0  0  0  0  0  0  0  0  0
   57.7740   25.7550   42.7730 O   0  0  0  0  0  0  0  0  0  0  0  0
   57.1790   24.8730   43.5680 C   0  0  0  0  0  0  0  0  0  0  0  0
   56.8820   23.5950   43.0820 C   0  0  0  0  0  0  0  0  0  0  0  0
   56.2315   20.2994   45.1084 H   0  0  0  0  0  0  0  0  0  0  0  0
   55.5189   19.3981   43.7277 H   0  0  0  0  0  0  0  0  0  0  0  0
   57.2686   19.8046   43.7277 H   0  0  0  0  0  0  0  0  0  0  0  0
   55.4267   22.2590   45.8740 H   0  0  0  0  0  0  0  0  0  0  0  0
   55.9491   24.5296   46.7523 H   0  0  0  0  0  0  0  0  0  0  0  0
   59.5535   28.1380   46.4262 H   0  0  0  0  0  0  0  0  0  0  0  0
   60.1704   30.4406   47.1249 H   0  0  0  0  0  0  0  0  0  0  0  0
   59.7334   33.6269   44.2251 H   0  0  0  0  0  0  0  0  0  0  0  0
   58.0638   34.0021   44.8675 H   0  0  0  0  0  0  0  0  0  0  0  0
   60.7139   35.2817   45.5633 H   0  0  0  0  0  0  0  0  0  0  0  0
   59.1528   36.0378   45.0538 H   0  0  0  0  0  0  0  0  0  0  0  0
   61.0640   34.6041   47.5216 H   0  0  0  0  0  0  0  0  0  0  0  0
   59.8273   34.7266   48.8346 H   0  0  0  0  0  0  0  0  0  0  0  0
   60.3770   32.3831   47.8107 H   0  0  0  0  0  0  0  0  0  0  0  0
   58.6407   32.8851   48.0841 H   0  0  0  0  0  0  0  0  0  0  0  0
   57.4705   32.0564   44.1408 H   0  0  0  0  0  0  0  0  0  0  0  0
   56.8683   29.7498   43.4464 H   0  0  0  0  0  0  0  0  0  0  0  0
   58.5777   27.6717   42.4672 H   0  0  0  0  0  0  0  0  0  0  0  0
   57.1447   23.3313   42.0469 H   0  0  0  0  0  0  0  0  0  0  0  0
  1  2  1  0
  2  3  1  0
  3  4  2  0
  4  5  1  0
  5  6  2  0
  6  7  1  0
  7  8  2  0
  7  9  1  0
  9 10  1  0
 10 11  2  0
 11 12  1  0
 12 13  2  0
 13 14  1  0
 14 15  1  0
 15 16  1  0
 16 17  1  0
 17 18  1  0
 18 19  1  0
 13 20  1  0
 20 21  2  0
  9 22  2  0
 22 23  1  0
 23 24  1  0
 24 25  2  0
 25  3  1  0
 24  6  1  0
 21 10  1  0
 19 14  1  0
  1 26  1  0
  1 27  1  0
  1 28  1  0
  4 29  1  0
  5 30  1  0
 11 31  1  0
 12 32  1  0
 15 33  1  0
 15 34  1  0
 16 35  1  0
 16 36  1  0
 18 37  1  0
 18 38  1  0
 19 39  1  0
 19 40  1  0
 20 41  1  0
 21 42  1  0
 22 43  1  0
 25 44  1  0
M  END
>  <UniqueID>  (19) 
18

>  <SMILES>  (19) 
COc1ccc2c(=O)c(-c3ccc(N4CCOCC4)cc3)coc2c1

>  <Energy>  (19) 
67.06066826322395

>  <Genealogy>  (19) 
COc1ccc2c(=O)c(-c3ccc(N4CCOCC4)cc3)coc2c1 (3D coordinates assigned)
COc1ccc2c(=O)c(-c3ccc(N4CCOCC4)cc3)coc2c1 (nonaromatic ring conformer: 67.06066826322395 kcal/mol)

>  <smiles>  (19) 
COc1ccc2c(=O)c(-c3ccc(N4CCOCC4)cc3)coc2c1

>  <score_type>  (19) 
oracle

>  <origin>  (19) 
adg

>  <m_score__min__energy>  (19) 
-7.5999999999999996

>  <m_primary>  (19) 
energy

$$$$
19:0
     RDKit          3D

 50 52  0  0  0  0  0  0  0  0999 V2000
   58.8800   32.7340   49.2430 C   0  0  0  0  0  0  0  0  0  0  0  0
   58.5420   33.4020   47.9060 C   0  0  0  0  0  0  0  0  0  0  0  0
   59.5170   34.4310   47.4550 N   0  0  0  0  0  0  0  0  0  0  0  0
   59.2620   34.9210   46.0680 C   0  0  0  0  0  0  0  0  0  0  0  0
   58.0950   34.2480   45.3220 C   0  0  0  0  0  0  0  0  0  0  0  0
   60.9230   34.0470   47.7530 C   0  0  0  0  0  0  0  0  0  0  0  0
   61.4740   32.9830   46.7830 C   0  0  0  0  0  0  0  0  0  0  0  0
   61.6570   31.6990   47.4630 N   0  0  0  0  0  0  0  0  0  0  0  0
   60.6890   30.6400   47.3930 C   0  0  0  0  0  0  0  0  0  0  0  0
   60.7500   29.5990   48.3220 C   0  0  0  0  0  0  0  0  0  0  0  0
   61.7120   29.5900   49.2790 F   0  0  0  0  0  0  0  0  0  0  0  0
   59.8620   28.5320   48.2410 C   0  0  0  0  0  0  0  0  0  0  0  0
   58.8630   28.5010   47.2510 C   0  0  0  0  0  0  0  0  0  0  0  0
   58.0080   27.3890   47.1380 C   0  0  0  0  0  0  0  0  0  0  0  0
   58.1260   26.4200   47.9380 O   0  0  0  0  0  0  0  0  0  0  0  0
   57.0370   27.3510   46.1230 C   0  0  0  0  0  0  0  0  0  0  0  0
   56.1420   26.1790   45.9240 C   0  0  0  0  0  0  0  0  0  0  0  0
   56.6120   25.0340   45.6910 O   0  0  0  0  0  0  0  0  0  0  0  0
   54.7610   26.3300   45.9900 O   0  0  0  0  0  0  0  0  0  0  0  0
   56.9090   28.4620   45.2820 C   0  0  0  0  0  0  0  0  0  0  0  0
   57.6770   29.5840   45.4410 N   0  0  0  0  0  0  0  0  0  0  0  0
   57.3840   30.7290   44.5580 C   0  0  0  0  0  0  0  0  0  0  0  0
   56.9710   30.3660   43.1300 C   0  0  0  0  0  0  0  0  0  0  0  0
   55.9240   30.8220   44.1210 C   0  0  0  0  0  0  0  0  0  0  0  0
   58.7170   29.5940   46.3540 C   0  0  0  0  0  0  0  0  0  0  0  0
   59.6690   30.6520   46.4230 C   0  0  0  0  0  0  0  0  0  0  0  0
   59.6310   31.6970   45.5610 F   0  0  0  0  0  0  0  0  0  0  0  0
   58.5523   33.3816   50.0696 H   0  0  0  0  0  0  0  0  0  0  0  0
   58.3638   31.7650   49.3096 H   0  0  0  0  0  0  0  0  0  0  0  0
   59.9665   32.5759   49.3096 H   0  0  0  0  0  0  0  0  0  0  0  0
   58.4917   32.6183   47.1357 H   0  0  0  0  0  0  0  0  0  0  0  0
   57.5872   33.9271   48.0565 H   0  0  0  0  0  0  0  0  0  0  0  0
   59.3030   35.2460   48.0750 H   0  0  0  0  0  0  0  0  0  0  0  0
   59.0491   35.9987   46.1249 H   0  0  0  0  0  0  0  0  0  0  0  0
   60.1663   34.6725   45.4930 H   0  0  0  0  0  0  0  0  0  0  0  0
   57.3819   33.8368   46.0516 H   0  0  0  0  0  0  0  0  0  0  0  0
   57.5861   34.9913   44.6907 H   0  0  0  0  0  0  0  0  0  0  0  0
   58.4834   33.4352   44.6907 H   0  0  0  0  0  0  0  0  0  0  0  0
   61.5541   34.9452   47.6837 H   0  0  0  0  0  0  0  0  0  0  0  0
   60.9388   33.6118   48.7631 H   0  0  0  0  0  0  0  0  0  0  0  0
   60.7654   32.8523   45.9518 H   0  0  0  0  0  0  0  0  0  0  0  0
   62.4501   33.3231   46.4067 H   0  0  0  0  0  0  0  0  0  0  0  0
   62.6160   31.4720   47.8120 H   0  0  0  0  0  0  0  0  0  0  0  0
   59.9416   27.7027   48.9593 H   0  0  0  0  0  0  0  0  0  0  0  0
   56.1690   28.4329   44.4686 H   0  0  0  0  0  0  0  0  0  0  0  0
   58.1216   31.4126   45.0037 H   0  0  0  0  0  0  0  0  0  0  0  0
   57.2564   31.0197   42.2926 H   0  0  0  0  0  0  0  0  0  0  0  0
   57.0980   29.4836   42.4857 H   0  0  0  0  0  0  0  0  0  0  0  0
   55.4484   31.8068   44.0025 H   0  0  0  0  0  0  0  0  0  0  0  0
   54.9757   30.4066   44.4928 H   0  0  0  0  0  0  0  0  0  0  0  0
  1  2  1  0
  2  3  1  0
  3  4  1  0
  4  5  1  0
  3  6  1  0
  6  7  1  0
  7  8  1  0
  8  9  1  0
  9 10  2  0
 10 11  1  0
 10 12  1  0
 12 13  2  0
 13 14  1  0
 14 15  2  0
 14 16  1  0
 16 17  1  0
 17 18  2  0
 17 19  1  0
 16 20  2  0
 20 21  1  0
 21 22  1  0
 22 23  1  0
 23 24  1  0
 21 25  1  0
 25 26  2  0
 26 27  1  0
 26  9  1  0
 25 13  1  0
 24 22  1  0
  1 28  1  0
  1 29  1  0
  1 30  1  0
  2 31  1  0
  2 32  1  0
  3 33  1  0
  4 34  1  0
  4 35  1  0
  5 36  1  0
  5 37  1  0
  5 38  1  0
  6 39  1  0
  6 40  1  0
  7 41  1  0
  7 42  1  0
  8 43  1  0
 12 44  1  0
 20 45  1  0
 22 46  1  0
 23 47  1  0
 23 48  1  0
 24 49  1  0
 24 50  1  0
M  CHG  2   3   1  19  -1
M  END
>  <UniqueID>  (20) 
19

>  <SMILES>  (20) 
CC[NH+](CC)CCNc1c(F)cc2c(=O)c(C(=O)[O-])cn(C3CC3)c2c1F

>  <Energy>  (20) 
340.8311640049313

>  <Genealogy>  (20) 
CC[NH+](CC)CCNc1c(F)cc2c(=O)c(C(=O)[O-])cn(C3CC3)c2c1F (protonated)
CC[NH+](CC)CCNc1c(F)cc2c(=O)c(C(=O)[O-])cn(C3CC3)c2c1F (3D coordinates assigned)
CC[NH+](CC)CCNc1c(F)cc2c(=O)c(C(=O)[O-])cn(C3CC3)c2c1F (nonaromatic ring conformer: 340.8311640049313 kcal/mol)

>  <smiles>  (20) 
CCN(CC)CCNc1c(F)cc2c(=O)c(C(=O)O)cn(C3CC3)c2c1F

>  <score_type>  (20) 
oracle

>  <origin>  (20) 
adg

>  <m_score__min__energy>  (20) 
-7.8099999999999996

>  <m_primary>  (20) 
energy

$$$$
20:0
     RDKit          3D

 62 65  0  0  0  0  0  0  0  0999 V2000
   50.9450   24.0430   44.0080 C   0  0  0  0  0  0  0  0  0  0  0  0
   51.5510   22.8890   44.5740 O   0  0  0  0  0  0  0  0  0  0  0  0
   52.5560   22.9130   45.5560 C   0  0  0  0  0  0  0  0  0  0  0  0
   53.7630   23.6150   45.3680 C   0  0  0  0  0  0  0  0  0  0  0  0
   54.7490   23.6340   46.3690 C   0  0  0  0  0  0  0  0  0  0  0  0
   56.0140   24.3810   46.1770 C   0  0  0  0  0  0  0  0  0  0  0  0
   57.2920   23.8430   46.1960 C   0  0  0  0  0  0  0  0  0  0  0  0
   58.1540   24.9050   46.0170 C   0  0  0  0  0  0  0  0  0  0  0  0
   59.5410   24.8050   45.9950 O   0  0  0  0  0  0  0  0  0  0  0  0
   57.4800   26.0640   45.8830 N   0  0  0  0  0  0  0  0  0  0  0  0
   58.0710   27.3990   45.7830 C   0  0  0  0  0  0  0  0  0  0  0  0
   59.3480   27.4730   46.6280 C   0  0  0  0  0  0  0  0  0  0  0  0
   59.4500   28.7800   47.3090 N   0  0  0  0  0  0  0  0  0  0  0  0
   60.2590   28.6540   48.5420 C   0  0  0  0  0  0  0  0  0  0  0  0
   60.5040   30.0180   49.1900 C   0  0  0  0  0  0  0  0  0  0  0  0
   61.1210   30.9330   48.2260 N   0  0  0  0  0  0  0  0  0  0  0  0
   61.7780   32.1210   48.6890 C   0  0  0  0  0  0  0  0  0  0  0  0
   63.1250   32.3340   48.3670 C   0  0  0  0  0  0  0  0  0  0  0  0
   63.7840   33.4790   48.8190 C   0  0  0  0  0  0  0  0  0  0  0  0
   63.1020   34.4140   49.5990 C   0  0  0  0  0  0  0  0  0  0  0  0
   61.7610   34.2060   49.9330 C   0  0  0  0  0  0  0  0  0  0  0  0
   61.0870   33.0530   49.4850 C   0  0  0  0  0  0  0  0  0  0  0  0
   59.7480   32.7960   49.8190 O   0  0  0  0  0  0  0  0  0  0  0  0
   59.2650   32.6240   51.1460 C   0  0  0  0  0  0  0  0  0  0  0  0
   61.1930   30.5670   46.8120 C   0  0  0  0  0  0  0  0  0  0  0  0
   59.8950   29.8650   46.3850 C   0  0  0  0  0  0  0  0  0  0  0  0
   56.1720   25.7480   46.0000 C   0  0  0  0  0  0  0  0  0  0  0  0
   55.1320   26.6770   45.9950 O   0  0  0  0  0  0  0  0  0  0  0  0
   54.5240   22.9260   47.5600 C   0  0  0  0  0  0  0  0  0  0  0  0
   53.3330   22.2250   47.7540 C   0  0  0  0  0  0  0  0  0  0  0  0
   52.3460   22.2120   46.7580 C   0  0  0  0  0  0  0  0  0  0  0  0
   51.0600   21.4660   46.9810 C   0  0  0  0  0  0  0  0  0  0  0  0
   50.5966   24.7065   44.8132 H   0  0  0  0  0  0  0  0  0  0  0  0
   51.6798   24.5755   43.3863 H   0  0  0  0  0  0  0  0  0  0  0  0
   50.0895   23.7403   43.3863 H   0  0  0  0  0  0  0  0  0  0  0  0
   53.9357   24.1552   44.4255 H   0  0  0  0  0  0  0  0  0  0  0  0
   57.5631   22.7850   46.3271 H   0  0  0  0  0  0  0  0  0  0  0  0
   58.3172   27.6104   44.7319 H   0  0  0  0  0  0  0  0  0  0  0  0
   57.3494   28.1415   46.1543 H   0  0  0  0  0  0  0  0  0  0  0  0
   59.3279   26.6733   47.3830 H   0  0  0  0  0  0  0  0  0  0  0  0
   60.2175   27.3513   45.9653 H   0  0  0  0  0  0  0  0  0  0  0  0
   59.7255   28.0092   49.2559 H   0  0  0  0  0  0  0  0  0  0  0  0
   61.2327   28.2177   48.2744 H   0  0  0  0  0  0  0  0  0  0  0  0
   59.5446   30.4378   49.5267 H   0  0  0  0  0  0  0  0  0  0  0  0
   61.1805   29.8913   50.0481 H   0  0  0  0  0  0  0  0  0  0  0  0
   63.6654   31.5962   47.7557 H   0  0  0  0  0  0  0  0  0  0  0  0
   64.8404   33.6440   48.5604 H   0  0  0  0  0  0  0  0  0  0  0  0
   63.6214   35.3172   49.9519 H   0  0  0  0  0  0  0  0  0  0  0  0
   61.2292   34.9463   50.5488 H   0  0  0  0  0  0  0  0  0  0  0  0
   60.0518   32.9042   51.8618 H   0  0  0  0  0  0  0  0  0  0  0  0
   58.3835   33.2635   51.3011 H   0  0  0  0  0  0  0  0  0  0  0  0
   58.9861   31.5713   51.3011 H   0  0  0  0  0  0  0  0  0  0  0  0
   61.3321   31.4752   46.2071 H   0  0  0  0  0  0  0  0  0  0  0  0
   62.0410   29.8834   46.6584 H   0  0  0  0  0  0  0  0  0  0  0  0
   59.0969   30.6200   46.3308 H   0  0  0  0  0  0  0  0  0  0  0  0
   60.0995   29.3882   45.4150 H   0  0  0  0  0  0  0  0  0  0  0  0
   55.1430   27.4930   45.3960 H   0  0  0  0  0  0  0  0  0  0  0  0
   55.2927   22.9237   48.3468 H   0  0  0  0  0  0  0  0  0  0  0  0
   53.1674   21.6790   48.6945 H   0  0  0  0  0  0  0  0  0  0  0  0
   50.8794   21.3612   48.0610 H   0  0  0  0  0  0  0  0  0  0  0  0
   50.2291   22.0223   46.5226 H   0  0  0  0  0  0  0  0  0  0  0  0
   51.1305   20.4686   46.5226 H   0  0  0  0  0  0  0  0  0  0  0  0
  1  2  1  0
  2  3  1  0
  3  4  2  0
  4  5  1  0
  5  6  1  0
  6  7  1  0
  7  8  2  0
  8  9  1  0
  8 10  1  0
 10 11  1  0
 11 12  1  0
 12 13  1  0
 13 14  1  0
 14 15  1  0
 15 16  1  0
 16 17  1  0
 17 18  2  0
 18 19  1  0
 19 20  2  0
 20 21  1  0
 21 22  2  0
 22 23  1  0
 23 24  1  0
 16 25  1  0
 25 26  1  0
 10 27  1  0
 27 28  1  0
  5 29  2  0
 29 30  1  0
 30 31  2  0
 31 32  1  0
 31  3  1  0
 27  6  2  0
 26 13  1  0
 22 17  1  0
  1 33  1  0
  1 34  1  0
  1 35  1  0
  4 36  1  0
  7 37  1  0
 11 38  1  0
 11 39  1  0
 12 40  1  0
 12 41  1  0
 14 42  1  0
 14 43  1  0
 15 44  1  0
 15 45  1  0
 18 46  1  0
 19 47  1  0
 20 48  1  0
 21 49  1  0
 24 50  1  0
 24 51  1  0
 24 52  1  0
 25 53  1  0
 25 54  1  0
 26 55  1  0
 26 56  1  0
 28 57  1  0
 29 58  1  0
 30 59  1  0
 32 60  1  0
 32 61  1  0
 32 62  1  0
M  CHG  1   9  -1
M  END
>  <UniqueID>  (21) 
20

>  <SMILES>  (21) 
COc1cc(-c2cc([O-])n(CCN3CCN(c4ccccc4OC)CC3)c2O)ccc1C

>  <Energy>  (21) 
105.89042806251354

>  <Genealogy>  (21) 
COc1cc(-c2cc([O-])n(CCN3CCN(c4ccccc4OC)CC3)c2O)ccc1C (protonated)
COc1cc(-c2cc([O-])n(CCN3CCN(c4ccccc4OC)CC3)c2O)ccc1C (3D coordinates assigned)
COc1cc(-c2cc([O-])n(CCN3CCN(c4ccccc4OC)CC3)c2O)ccc1C (nonaromatic ring conformer: 105.89042806251354 kcal/mol)

>  <smiles>  (21) 
COc1cc(-c2cc(O)n(CCN3CCN(c4ccccc4OC)CC3)c2O)ccc1C

>  <score_type>  (21) 
oracle

>  <origin>  (21) 
adg

>  <m_score__min__energy>  (21) 
-9.0299999999999994

>  <m_primary>  (21) 
energy

$$$$
21:0
     RDKit          3D

 31 33  0  0  0  0  0  0  0  0999 V2000
   57.0071   31.3177   41.3040 H   0  0  0  0  0  0  0  0  0  0  0  0
   57.0300   31.2270   42.4000 C   0  0  0  0  0  0  0  0  0  0  0  0
   56.4490   30.1590   43.0040 N   0  0  0  0  0  0  0  0  0  0  0  0
   56.4660   30.0260   44.3580 C   0  0  0  0  0  0  0  0  0  0  0  0
   55.9120   29.0030   44.9380 N   0  0  0  0  0  0  0  0  0  0  0  0
   56.6410   27.8980   45.5580 C   0  0  0  0  0  0  0  0  0  0  0  0
   56.2376   27.7190   46.5656 H   0  0  0  0  0  0  0  0  0  0  0  0
   56.5205   26.9997   44.9347 H   0  0  0  0  0  0  0  0  0  0  0  0
   58.0980   28.2210   45.6620 C   0  0  0  0  0  0  0  0  0  0  0  0
   58.8520   28.9160   46.9940 S   0  0  0  0  0  0  0  0  0  0  0  0
   60.3920   28.9740   46.3210 C   0  0  0  0  0  0  0  0  0  0  0  0
   61.2958   29.3620   46.8136 H   0  0  0  0  0  0  0  0  0  0  0  0
   60.3280   28.4480   45.0360 C   0  0  0  0  0  0  0  0  0  0  0  0
   61.2025   28.3700   44.3733 H   0  0  0  0  0  0  0  0  0  0  0  0
   59.0460   28.0270   44.6650 C   0  0  0  0  0  0  0  0  0  0  0  0
   58.8127   27.5873   43.6841 H   0  0  0  0  0  0  0  0  0  0  0  0
   57.0720   30.9750   45.1190 N   0  0  0  0  0  0  0  0  0  0  0  0
   57.6630   32.0690   44.5630 C   0  0  0  0  0  0  0  0  0  0  0  0
   58.3150   33.0730   45.4420 C   0  0  0  0  0  0  0  0  0  0  0  0
   58.9360   34.2000   44.8750 C   0  0  0  0  0  0  0  0  0  0  0  0
   58.9381   34.3393   43.7839 H   0  0  0  0  0  0  0  0  0  0  0  0
   59.5490   35.1400   45.7020 C   0  0  0  0  0  0  0  0  0  0  0  0
   60.0311   36.0270   45.2652 H   0  0  0  0  0  0  0  0  0  0  0  0
   59.5500   34.9540   47.0830 C   0  0  0  0  0  0  0  0  0  0  0  0
   60.0277   35.6925   47.7436 H   0  0  0  0  0  0  0  0  0  0  0  0
   58.9380   33.8200   47.6180 C   0  0  0  0  0  0  0  0  0  0  0  0
   58.9363   33.6613   48.7065 H   0  0  0  0  0  0  0  0  0  0  0  0
   58.3430   32.9090   46.8000 N   0  0  0  0  0  0  0  0  0  0  0  0
   57.9270   32.0600   47.2430 H   0  0  0  0  0  0  0  0  0  0  0  0
   57.6550   32.2080   43.1660 C   0  0  0  0  0  0  0  0  0  0  0  0
   58.1329   33.0746   42.6859 H   0  0  0  0  0  0  0  0  0  0  0  0
  1  2  1  0
  2  3  1  0
  3  4  1  0
  4  5  2  0
  5  6  1  0
  6  7  1  0
  6  8  1  0
  6  9  1  0
  9 10  1  0
 10 11  1  0
 11 12  1  0
 11 13  2  0
 13 14  1  0
 13 15  1  0
 15 16  1  0
  4 17  1  0
 17 18  2  0
 18 19  1  0
 19 20  2  0
 20 21  1  0
 20 22  1  0
 22 23  1  0
 22 24  2  0
 24 25  1  0
 24 26  1  0
 26 27  1  0
 26 28  2  0
 28 29  1  0
 18 30  1  0
 30 31  1  0
 30  2  2  0
 15  9  2  0
 28 19  1  0
M  CHG  2   3  -1  28   1
M  END
>  <UniqueID>  (22) 
21

>  <SMILES>  (22) 
c1ccc(-c2cc[n-]/c(=N\Cc3cccs3)n2)[nH+]c1

>  <Energy>  (22) 
62.67885932969574

>  <Genealogy>  (22) 
c1ccc(-c2cc[n-]c(=NCc3cccs3)n2)[nH+]c1 (protonated)
c1ccc(-c2cc[n-]/c(=N\Cc3cccs3)n2)[nH+]c1 (cis-trans isomerization)
c1ccc(-c2cc[n-]/c(=N\Cc3cccs3)n2)[nH+]c1 (3D coordinates assigned)
c1ccc(-c2cc[n-]/c(=N\Cc3cccs3)n2)[nH+]c1 (optimized conformer: 62.67885932969574 kcal/mol)

>  <smiles>  (22) 
c1ccc(-c2cc[nH]c(=NCc3cccs3)n2)nc1

>  <score_type>  (22) 
oracle

>  <origin>  (22) 
adg

>  <m_score__min__energy>  (22) 
-7.1399999999999997

>  <m_primary>  (22) 
energy

$$$$
22:0
     RDKit          3D

 52 55  0  0  0  0  0  0  0  0999 V2000
   60.0070   35.1850   46.6330 C   0  0  0  0  0  0  0  0  0  0  0  0
   59.1840   34.0790   46.0410 C   0  0  0  0  0  0  0  0  0  0  0  0
   58.5930   34.2320   44.7850 C   0  0  0  0  0  0  0  0  0  0  0  0
   57.8670   33.1860   44.2190 C   0  0  0  0  0  0  0  0  0  0  0  0
   57.7180   31.9600   44.8910 C   0  0  0  0  0  0  0  0  0  0  0  0
   56.8930   30.9230   44.2320 C   0  0  0  0  0  0  0  0  0  0  0  0
   55.8600   30.2740   44.8070 N   0  0  0  0  0  0  0  0  0  0  0  0
   55.3570   29.5120   43.8510 N   0  0  0  0  0  0  0  0  0  0  0  0
   56.0450   29.7040   42.7390 N   0  0  0  0  0  0  0  0  0  0  0  0
   57.0060   30.5890   42.9310 N   0  0  0  0  0  0  0  0  0  0  0  0
   58.3500   31.7830   46.1540 C   0  0  0  0  0  0  0  0  0  0  0  0
   58.3310   30.4800   46.9300 C   0  0  0  0  0  0  0  0  0  0  0  0
   59.3810   29.5540   46.4670 N   0  0  0  0  0  0  0  0  0  0  0  0
   60.7900   29.9660   46.6040 C   0  0  0  0  0  0  0  0  0  0  0  0
   61.1340   30.4220   48.0300 C   0  0  0  0  0  0  0  0  0  0  0  0
   61.9510   31.6860   48.0510 C   0  0  0  0  0  0  0  0  0  0  0  0
   61.6530   32.7050   48.9720 C   0  0  0  0  0  0  0  0  0  0  0  0
   62.3840   33.8960   48.9650 C   0  0  0  0  0  0  0  0  0  0  0  0
   63.4140   34.0810   48.0390 C   0  0  0  0  0  0  0  0  0  0  0  0
   63.7220   33.0680   47.1260 C   0  0  0  0  0  0  0  0  0  0  0  0
   62.9970   31.8720   47.1340 C   0  0  0  0  0  0  0  0  0  0  0  0
   59.0590   28.4120   45.6350 C   0  0  0  0  0  0  0  0  0  0  0  0
   59.6080   28.2780   44.5070 O   0  0  0  0  0  0  0  0  0  0  0  0
   58.1120   27.3700   46.0640 C   0  0  0  0  0  0  0  0  0  0  0  0
   56.7920   27.3710   45.5940 C   0  0  0  0  0  0  0  0  0  0  0  0
   55.9190   26.3600   45.9990 C   0  0  0  0  0  0  0  0  0  0  0  0
   56.3550   25.3730   46.8260 N   0  0  0  0  0  0  0  0  0  0  0  0
   57.6380   25.3360   47.2760 C   0  0  0  0  0  0  0  0  0  0  0  0
   58.5430   26.3280   46.8940 C   0  0  0  0  0  0  0  0  0  0  0  0
   59.0700   32.8550   46.7100 C   0  0  0  0  0  0  0  0  0  0  0  0
   59.9638   35.1270   47.7306 H   0  0  0  0  0  0  0  0  0  0  0  0
   61.0508   35.0833   46.3012 H   0  0  0  0  0  0  0  0  0  0  0  0
   59.6097   36.1556   46.3012 H   0  0  0  0  0  0  0  0  0  0  0  0
   58.7010   35.1817   44.2405 H   0  0  0  0  0  0  0  0  0  0  0  0
   57.4031   33.3216   43.2309 H   0  0  0  0  0  0  0  0  0  0  0  0
   55.8500   29.2290   41.8310 H   0  0  0  0  0  0  0  0  0  0  0  0
   58.4924   30.6976   47.9961 H   0  0  0  0  0  0  0  0  0  0  0  0
   57.3547   29.9994   46.7692 H   0  0  0  0  0  0  0  0  0  0  0  0
   61.4338   29.1137   46.3413 H   0  0  0  0  0  0  0  0  0  0  0  0
   60.9552   30.8204   45.9311 H   0  0  0  0  0  0  0  0  0  0  0  0
   60.1974   30.5985   48.5793 H   0  0  0  0  0  0  0  0  0  0  0  0
   61.7349   29.6285   48.4982 H   0  0  0  0  0  0  0  0  0  0  0  0
   60.8414   32.5645   49.7010 H   0  0  0  0  0  0  0  0  0  0  0  0
   62.1482   34.6892   49.6897 H   0  0  0  0  0  0  0  0  0  0  0  0
   63.9820   35.0229   48.0284 H   0  0  0  0  0  0  0  0  0  0  0  0
   64.5359   33.2119   46.4001 H   0  0  0  0  0  0  0  0  0  0  0  0
   63.2475   31.0744   46.4191 H   0  0  0  0  0  0  0  0  0  0  0  0
   56.4467   28.1617   44.9117 H   0  0  0  0  0  0  0  0  0  0  0  0
   54.8764   26.3619   45.6484 H   0  0  0  0  0  0  0  0  0  0  0  0
   57.9631   24.5231   47.9420 H   0  0  0  0  0  0  0  0  0  0  0  0
   59.5858   26.2913   47.2421 H   0  0  0  0  0  0  0  0  0  0  0  0
   59.5532   32.7292   47.6901 H   0  0  0  0  0  0  0  0  0  0  0  0
  1  2  1  0
  2  3  2  0
  3  4  1  0
  4  5  2  0
  5  6  1  0
  6  7  2  0
  7  8  1  0
  8  9  1  0
  9 10  2  0
  5 11  1  0
 11 12  1  0
 12 13  1  0
 13 14  1  0
 14 15  1  0
 15 16  1  0
 16 17  2  0
 17 18  1  0
 18 19  2  0
 19 20  1  0
 20 21  2  0
 13 22  1  0
 22 23  2  0
 22 24  1  0
 24 25  2  0
 25 26  1  0
 26 27  2  0
 27 28  1  0
 28 29  2  0
 11 30  2  0
 30  2  1  0
 10  6  1  0
 21 16  1  0
 29 24  1  0
  1 31  1  0
  1 32  1  0
  1 33  1  0
  3 34  1  0
  4 35  1  0
  9 36  1  0
 12 37  1  0
 12 38  1  0
 14 39  1  0
 14 40  1  0
 15 41  1  0
 15 42  1  0
 17 43  1  0
 18 44  1  0
 19 45  1  0
 20 46  1  0
 21 47  1  0
 25 48  1  0
 26 49  1  0
 28 50  1  0
 29 51  1  0
 30 52  1  0
M  CHG  2   8  -1   9   1
M  END
>  <UniqueID>  (23) 
22

>  <SMILES>  (23) 
Cc1ccc(-c2n[n-][nH+]n2)c(CN(CCc2ccccc2)C(=O)c2ccncc2)c1

>  <Energy>  (23) 
100.49094415929254

>  <Genealogy>  (23) 
Cc1ccc(-c2n[n-][nH+]n2)c(CN(CCc2ccccc2)C(=O)c2ccncc2)c1 (protonated)
Cc1ccc(-c2n[n-][nH+]n2)c(CN(CCc2ccccc2)C(=O)c2ccncc2)c1 (3D coordinates assigned)
Cc1ccc(-c2n[n-][nH+]n2)c(CN(CCc2ccccc2)C(=O)c2ccncc2)c1 (optimized conformer: 100.49094415929254 kcal/mol)

>  <smiles>  (23) 
Cc1ccc(-c2nn[nH]n2)c(CN(CCc2ccccc2)C(=O)c2ccncc2)c1

>  <score_type>  (23) 
oracle

>  <origin>  (23) 
adg

>  <m_score__min__energy>  (23) 
-9.8800000000000008

>  <m_primary>  (23) 
energy

$$$$
23:0
     RDKit          3D

 41 45  0  0  0  0  0  0  0  0999 V2000
   69.1710   34.5750   52.1760 C   0  0  0  0  0  0  0  0  0  0  0  0
   67.7970   34.6980   52.8250 C   0  0  0  0  0  0  0  0  0  0  0  0
   66.7150   34.2840   51.8650 C   0  0  0  0  0  0  0  0  0  0  0  0
   67.0060   33.4580   50.7730 C   0  0  0  0  0  0  0  0  0  0  0  0
   65.9890   33.0540   49.9070 C   0  0  0  0  0  0  0  0  0  0  0  0
   64.6690   33.4780   50.1410 C   0  0  0  0  0  0  0  0  0  0  0  0
   63.5490   33.0730   49.2540 C   0  0  0  0  0  0  0  0  0  0  0  0
   63.4510   31.7470   48.7500 C   0  0  0  0  0  0  0  0  0  0  0  0
   62.3940   31.3720   47.9070 C   0  0  0  0  0  0  0  0  0  0  0  0
   61.4500   32.3360   47.5730 C   0  0  0  0  0  0  0  0  0  0  0  0
   61.5290   33.6390   48.0420 C   0  0  0  0  0  0  0  0  0  0  0  0
   62.5740   34.0270   48.8810 C   0  0  0  0  0  0  0  0  0  0  0  0
   60.3900   34.4920   47.5310 C   0  0  0  0  0  0  0  0  0  0  0  0
   59.6800   33.4620   46.7140 C   0  0  0  0  0  0  0  0  0  0  0  0
   58.3110   33.4150   45.7510 S   0  0  0  0  0  0  0  0  0  0  0  0
   58.5080   31.7630   45.3580 C   0  0  0  0  0  0  0  0  0  0  0  0
   57.6020   31.0000   44.4860 C   0  0  0  0  0  0  0  0  0  0  0  0
   56.7660   29.9540   44.8670 C   0  0  0  0  0  0  0  0  0  0  0  0
   56.0270   29.4190   43.8590 N   0  0  0  0  0  0  0  0  0  0  0  0
   56.2610   30.0220   42.6730 C   0  0  0  0  0  0  0  0  0  0  0  0
   57.3990   31.2490   42.8330 S   0  0  0  0  0  0  0  0  0  0  0  0
   59.6560   31.2570   45.9890 C   0  0  0  0  0  0  0  0  0  0  0  0
   60.2780   32.2480   46.7380 C   0  0  0  0  0  0  0  0  0  0  0  0
   64.4080   34.2630   51.2250 N   0  0  0  0  0  0  0  0  0  0  0  0
   65.3840   34.6680   52.0810 C   0  0  0  0  0  0  0  0  0  0  0  0
   69.9412   34.5061   52.9583 H   0  0  0  0  0  0  0  0  0  0  0  0
   69.2015   33.6705   51.5507 H   0  0  0  0  0  0  0  0  0  0  0  0
   69.3617   35.4597   51.5507 H   0  0  0  0  0  0  0  0  0  0  0  0
   67.7583   34.0505   53.7134 H   0  0  0  0  0  0  0  0  0  0  0  0
   67.6337   35.7479   53.1097 H   0  0  0  0  0  0  0  0  0  0  0  0
   68.0399   33.1262   50.5969 H   0  0  0  0  0  0  0  0  0  0  0  0
   66.2186   32.4080   49.0468 H   0  0  0  0  0  0  0  0  0  0  0  0
   64.2148   31.0047   49.0249 H   0  0  0  0  0  0  0  0  0  0  0  0
   62.3147   30.3448   47.5216 H   0  0  0  0  0  0  0  0  0  0  0  0
   62.6387   35.0620   49.2478 H   0  0  0  0  0  0  0  0  0  0  0  0
   59.7620   34.8755   48.3487 H   0  0  0  0  0  0  0  0  0  0  0  0
   60.6852   35.4044   46.9921 H   0  0  0  0  0  0  0  0  0  0  0  0
   56.7079   29.5888   45.9030 H   0  0  0  0  0  0  0  0  0  0  0  0
   55.7715   29.7465   41.7273 H   0  0  0  0  0  0  0  0  0  0  0  0
   60.0131   30.2202   45.9023 H   0  0  0  0  0  0  0  0  0  0  0  0
   65.1285   35.2986   52.9453 H   0  0  0  0  0  0  0  0  0  0  0  0
  1  2  1  0
  2  3  1  0
  3  4  2  0
  4  5  1  0
  5  6  2  0
  6  7  1  0
  7  8  2  0
  8  9  1  0
  9 10  2  0
 10 11  1  0
 11 12  2  0
 11 13  1  0
 13 14  1  0
 14 15  1  0
 15 16  1  0
 16 17  1  0
 17 18  2  0
 18 19  1  0
 19 20  2  0
 20 21  1  0
 16 22  2  0
 22 23  1  0
  6 24  1  0
 24 25  2  0
 25  3  1  0
 12  7  1  0
 23 14  2  0
 23 10  1  0
 21 17  1  0
  1 26  1  0
  1 27  1  0
  1 28  1  0
  2 29  1  0
  2 30  1  0
  4 31  1  0
  5 32  1  0
  8 33  1  0
  9 34  1  0
 12 35  1  0
 13 36  1  0
 13 37  1  0
 18 38  1  0
 20 39  1  0
 22 40  1  0
 25 41  1  0
M  END
>  <UniqueID>  (24) 
23

>  <SMILES>  (24) 
CCc1ccc(-c2ccc3c(c2)Cc2sc(-c4cncs4)cc2-3)nc1

>  <Energy>  (24) 
137.54651748062756

>  <Genealogy>  (24) 
CCc1ccc(-c2ccc3c(c2)Cc2sc(-c4cncs4)cc2-3)nc1 (3D coordinates assigned)
CCc1ccc(-c2ccc3c(c2)Cc2sc(-c4cncs4)cc2-3)nc1 (nonaromatic ring conformer: 137.54651748062756 kcal/mol)

>  <smiles>  (24) 
CCc1ccc(-c2ccc3c(c2)Cc2sc(-c4cncs4)cc2-3)nc1

>  <score_type>  (24) 
oracle

>  <origin>  (24) 
adg

>  <m_score__min__energy>  (24) 
-7.7699999999999996

>  <m_primary>  (24) 
energy

$$$$
24:0
     RDKit          3D

 44 46  0  0  0  0  0  0  0  0999 V2000
   57.2600   26.9020   45.2650 O   0  0  0  0  0  0  0  0  0  0  0  0
   57.1550   28.1400   45.4910 C   0  0  0  0  0  0  0  0  0  0  0  0
   55.9950   28.8270   45.1110 O   0  0  0  0  0  0  0  0  0  0  0  0
   55.8820   29.5610   43.8930 C   0  0  0  0  0  0  0  0  0  0  0  0
   56.6990   30.8180   43.9590 C   0  0  0  0  0  0  0  0  0  0  0  0
   57.4000   31.2710   42.8320 C   0  0  0  0  0  0  0  0  0  0  0  0
   58.1400   32.4520   42.9170 C   0  0  0  0  0  0  0  0  0  0  0  0
   58.1740   33.1660   44.1150 C   0  0  0  0  0  0  0  0  0  0  0  0
   57.4620   32.6860   45.2170 C   0  0  0  0  0  0  0  0  0  0  0  0
   56.7450   31.5350   45.1160 N   0  0  0  0  0  0  0  0  0  0  0  0
   58.2570   28.8690   46.1550 C   0  0  0  0  0  0  0  0  0  0  0  0
   58.3830   28.8420   47.5540 C   0  0  0  0  0  0  0  0  0  0  0  0
   59.4200   29.5350   48.1880 C   0  0  0  0  0  0  0  0  0  0  0  0
   60.3500   30.2730   47.4330 C   0  0  0  0  0  0  0  0  0  0  0  0
   61.4280   31.0020   48.0530 N   0  0  0  0  0  0  0  0  0  0  0  0
   62.7280   31.2610   47.4280 C   0  0  0  0  0  0  0  0  0  0  0  0
   62.9340   32.7570   47.1620 C   0  0  0  0  0  0  0  0  0  0  0  0
   61.6660   33.5310   47.3820 C   0  0  0  0  0  0  0  0  0  0  0  0
   61.0250   34.1780   46.3150 C   0  0  0  0  0  0  0  0  0  0  0  0
   59.8270   34.8580   46.5460 C   0  0  0  0  0  0  0  0  0  0  0  0
   59.2770   34.8800   47.8290 C   0  0  0  0  0  0  0  0  0  0  0  0
   59.9360   34.2170   48.8660 C   0  0  0  0  0  0  0  0  0  0  0  0
   61.1030   33.5610   48.6230 N   0  0  0  0  0  0  0  0  0  0  0  0
   60.2290   30.2900   46.0370 C   0  0  0  0  0  0  0  0  0  0  0  0
   59.1930   29.5990   45.4020 C   0  0  0  0  0  0  0  0  0  0  0  0
   56.2420   28.9386   43.0606 H   0  0  0  0  0  0  0  0  0  0  0  0
   54.8270   29.8303   43.7366 H   0  0  0  0  0  0  0  0  0  0  0  0
   57.3672   30.7020   41.8912 H   0  0  0  0  0  0  0  0  0  0  0  0
   58.6951   32.8187   42.0410 H   0  0  0  0  0  0  0  0  0  0  0  0
   58.7551   34.0969   44.1911 H   0  0  0  0  0  0  0  0  0  0  0  0
   57.4814   33.2397   46.1673 H   0  0  0  0  0  0  0  0  0  0  0  0
   57.6604   28.2713   48.1559 H   0  0  0  0  0  0  0  0  0  0  0  0
   59.5088   29.5026   49.2839 H   0  0  0  0  0  0  0  0  0  0  0  0
   61.2980   31.3420   49.0330 H   0  0  0  0  0  0  0  0  0  0  0  0
   63.5243   30.9038   48.0976 H   0  0  0  0  0  0  0  0  0  0  0  0
   62.7602   30.7309   46.4647 H   0  0  0  0  0  0  0  0  0  0  0  0
   63.7091   33.1384   47.8429 H   0  0  0  0  0  0  0  0  0  0  0  0
   63.2401   32.8838   46.1131 H   0  0  0  0  0  0  0  0  0  0  0  0
   61.4618   34.1501   45.3058 H   0  0  0  0  0  0  0  0  0  0  0  0
   59.3181   35.3749   45.7191 H   0  0  0  0  0  0  0  0  0  0  0  0
   58.3346   35.4139   48.0208 H   0  0  0  0  0  0  0  0  0  0  0  0
   59.5113   34.2250   49.8807 H   0  0  0  0  0  0  0  0  0  0  0  0
   60.9570   30.8531   45.4345 H   0  0  0  0  0  0  0  0  0  0  0  0
   59.1096   29.6267   44.3055 H   0  0  0  0  0  0  0  0  0  0  0  0
  1  2  2  0
  2  3  1  0
  3  4  1  0
  4  5  1  0
  5  6  2  0
  6  7  1  0
  7  8  2  0
  8  9  1  0
  9 10  2  0
  2 11  1  0
 11 12  2  0
 12 13  1  0
 13 14  2  0
 14 15  1  0
 15 16  1  0
 16 17  1  0
 17 18  1  0
 18 19  2  0
 19 20  1  0
 20 21  2  0
 21 22  1  0
 22 23  2  0
 14 24  1  0
 24 25  2  0
 10  5  1  0
 25 11  1  0
 23 18  1  0
  4 26  1  0
  4 27  1  0
  6 28  1  0
  7 29  1  0
  8 30  1  0
  9 31  1  0
 12 32  1  0
 13 33  1  0
 15 34  1  0
 16 35  1  0
 16 36  1  0
 17 37  1  0
 17 38  1  0
 19 39  1  0
 20 40  1  0
 21 41  1  0
 22 42  1  0
 24 43  1  0
 25 44  1  0
M  END
>  <UniqueID>  (25) 
24

>  <SMILES>  (25) 
O=C(OCc1ccccn1)c1ccc(NCCc2ccccn2)cc1

>  <Energy>  (25) 
42.88061652037177

>  <Genealogy>  (25) 
O=C(OCc1ccccn1)c1ccc(NCCc2ccccn2)cc1 (3D coordinates assigned)
O=C(OCc1ccccn1)c1ccc(NCCc2ccccn2)cc1 (optimized conformer: 42.88061652037177 kcal/mol)

>  <smiles>  (25) 
O=C(OCc1ccccn1)c1ccc(NCCc2ccccn2)cc1

>  <score_type>  (25) 
oracle

>  <origin>  (25) 
adg

>  <m_score__min__energy>  (25) 
-7.6500000000000004

>  <m_primary>  (25) 
energy

$$$$
25:0
     RDKit          3D

 16 16  0  0  0  0  0  0  0  0999 V2000
   57.9190   32.3830   41.5520 N   0  0  0  0  0  0  0  0  0  0  0  0
   57.7940   31.9930   42.6350 C   0  0  0  0  0  0  0  0  0  0  0  0
   57.6420   31.5000   43.9800 C   0  0  0  0  0  0  0  0  0  0  0  0
   56.4680   30.7220   44.2730 C   0  0  0  0  0  0  0  0  0  0  0  0
   55.5230   30.0950   44.5100 N   0  0  0  0  0  0  0  0  0  0  0  0
   58.4980   31.7970   44.9710 C   0  0  0  0  0  0  0  0  0  0  0  0
   58.7860   33.1560   45.4820 C   0  0  0  0  0  0  0  0  0  0  0  0
   59.2580   34.2000   44.7090 C   0  0  0  0  0  0  0  0  0  0  0  0
   59.3170   35.3020   45.5370 C   0  0  0  0  0  0  0  0  0  0  0  0
   58.8870   34.9760   46.7690 N   0  0  0  0  0  0  0  0  0  0  0  0
   58.5520   33.6740   46.7450 C   0  0  0  0  0  0  0  0  0  0  0  0
   59.0308   30.9586   45.4435 H   0  0  0  0  0  0  0  0  0  0  0  0
   59.5323   34.1602   43.6445 H   0  0  0  0  0  0  0  0  0  0  0  0
   59.6647   36.3007   45.2340 H   0  0  0  0  0  0  0  0  0  0  0  0
   58.8050   35.6220   47.5870 H   0  0  0  0  0  0  0  0  0  0  0  0
   58.1528   33.1066   47.5986 H   0  0  0  0  0  0  0  0  0  0  0  0
  1  2  3  0
  2  3  1  0
  3  4  1  0
  4  5  3  0
  3  6  2  3
  6  7  1  0
  7  8  1  0
  8  9  2  0
  9 10  1  0
 10 11  1  0
 11  7  2  0
  6 12  1  0
  8 13  1  0
  9 14  1  0
 10 15  1  0
 11 16  1  0
M  END
>  <UniqueID>  (26) 
25

>  <SMILES>  (26) 
N#CC(C#N)=Cc1cc[nH]c1

>  <Energy>  (26) 
41.33852149355577

>  <Genealogy>  (26) 
N#CC(C#N)=Cc1cc[nH]c1 (3D coordinates assigned)
N#CC(C#N)=Cc1cc[nH]c1 (optimized conformer: 41.33852149355577 kcal/mol)

>  <smiles>  (26) 
N#CC(C#N)=Cc1cc[nH]c1

>  <score_type>  (26) 
oracle

>  <origin>  (26) 
adg

>  <m_score__min__energy>  (26) 
-4.5300000000000002

>  <m_primary>  (26) 
energy

$$$$
26:0
     RDKit          3D

 53 56  0  0  0  0  0  0  0  0999 V2000
   57.0090   28.3260   44.9700 C   0  0  0  0  0  0  0  0  0  0  0  0
   58.3650   28.6110   44.7910 C   0  0  0  0  0  0  0  0  0  0  0  0
   58.7640   29.9070   44.4590 C   0  0  0  0  0  0  0  0  0  0  0  0
   57.7920   30.9090   44.3040 C   0  0  0  0  0  0  0  0  0  0  0  0
   58.1870   32.3200   43.9380 C   0  0  0  0  0  0  0  0  0  0  0  0
   58.6110   33.1370   45.0970 N   0  0  0  0  0  0  0  0  0  0  0  0
   57.5150   33.4460   46.0260 C   0  0  0  0  0  0  0  0  0  0  0  0
   58.1010   33.8170   47.3930 C   0  0  0  0  0  0  0  0  0  0  0  0
   59.4200   34.6430   47.3080 C   0  0  0  0  0  0  0  0  0  0  0  0
   60.6560   33.8680   47.8700 C   0  0  0  0  0  0  0  0  0  0  0  0
   61.8230   33.7430   46.8640 C   0  0  0  0  0  0  0  0  0  0  0  0
   62.9550   32.8890   47.4550 C   0  0  0  0  0  0  0  0  0  0  0  0
   63.2570   33.2750   48.8420 N   0  0  0  0  0  0  0  0  0  0  0  0
   64.2100   32.4990   49.5910 C   0  0  0  0  0  0  0  0  0  0  0  0
   63.7690   31.6030   50.5170 N   0  0  0  0  0  0  0  0  0  0  0  0
   64.6390   30.8640   51.2520 C   0  0  0  0  0  0  0  0  0  0  0  0
   66.0110   31.0210   51.0700 C   0  0  0  0  0  0  0  0  0  0  0  0
   66.4520   31.9520   50.1320 C   0  0  0  0  0  0  0  0  0  0  0  0
   65.5520   32.6780   49.4150 N   0  0  0  0  0  0  0  0  0  0  0  0
   62.6450   34.4850   49.4040 C   0  0  0  0  0  0  0  0  0  0  0  0
   61.1200   34.4260   49.2530 C   0  0  0  0  0  0  0  0  0  0  0  0
   59.6440   35.2810   45.9060 C   0  0  0  0  0  0  0  0  0  0  0  0
   59.3380   34.3590   44.7030 C   0  0  0  0  0  0  0  0  0  0  0  0
   56.4780   30.6030   44.4890 N   0  0  0  0  0  0  0  0  0  0  0  0
   56.0700   29.3480   44.8140 C   0  0  0  0  0  0  0  0  0  0  0  0
   56.6845   27.3079   45.2309 H   0  0  0  0  0  0  0  0  0  0  0  0
   59.1161   27.8165   44.9113 H   0  0  0  0  0  0  0  0  0  0  0  0
   59.8298   30.1413   44.3201 H   0  0  0  0  0  0  0  0  0  0  0  0
   59.0209   32.2729   43.2222 H   0  0  0  0  0  0  0  0  0  0  0  0
   57.2958   32.8037   43.5116 H   0  0  0  0  0  0  0  0  0  0  0  0
   56.9292   34.2911   45.6354 H   0  0  0  0  0  0  0  0  0  0  0  0
   56.8612   32.5676   46.1308 H   0  0  0  0  0  0  0  0  0  0  0  0
   57.3545   34.4108   47.9409 H   0  0  0  0  0  0  0  0  0  0  0  0
   58.3456   32.8739   47.9037 H   0  0  0  0  0  0  0  0  0  0  0  0
   59.2971   35.5006   47.9858 H   0  0  0  0  0  0  0  0  0  0  0  0
   60.3073   32.8381   48.0364 H   0  0  0  0  0  0  0  0  0  0  0  0
   61.4563   33.2693   45.9415 H   0  0  0  0  0  0  0  0  0  0  0  0
   62.2130   34.7481   46.6456 H   0  0  0  0  0  0  0  0  0  0  0  0
   62.6515   31.8319   47.4367 H   0  0  0  0  0  0  0  0  0  0  0  0
   63.8589   33.0488   46.8488 H   0  0  0  0  0  0  0  0  0  0  0  0
   64.2607   30.1419   51.9906 H   0  0  0  0  0  0  0  0  0  0  0  0
   66.7286   30.4246   51.6525 H   0  0  0  0  0  0  0  0  0  0  0  0
   67.5300   32.1004   49.9708 H   0  0  0  0  0  0  0  0  0  0  0  0
   65.9120   33.3980   48.7500 H   0  0  0  0  0  0  0  0  0  0  0  0
   62.9019   34.5602   50.4709 H   0  0  0  0  0  0  0  0  0  0  0  0
   63.0256   35.3641   48.8633 H   0  0  0  0  0  0  0  0  0  0  0  0
   60.7159   33.7775   50.0443 H   0  0  0  0  0  0  0  0  0  0  0  0
   60.7454   35.4574   49.3299 H   0  0  0  0  0  0  0  0  0  0  0  0
   58.9964   36.1667   45.8285 H   0  0  0  0  0  0  0  0  0  0  0  0
   60.7176   35.5128   45.8457 H   0  0  0  0  0  0  0  0  0  0  0  0
   58.7251   34.9159   43.9789 H   0  0  0  0  0  0  0  0  0  0  0  0
   60.2992   34.0495   44.2666 H   0  0  0  0  0  0  0  0  0  0  0  0
   54.9996   29.1371   44.9543 H   0  0  0  0  0  0  0  0  0  0  0  0
  1  2  2  0
  2  3  1  0
  3  4  2  0
  4  5  1  0
  5  6  1  0
  6  7  1  0
  7  8  1  0
  8  9  1  0
  9 10  1  0
 10 11  1  0
 11 12  1  0
 12 13  1  0
 13 14  1  0
 14 15  2  0
 15 16  1  0
 16 17  2  0
 17 18  1  0
 18 19  2  0
 13 20  1  0
 20 21  1  0
  9 22  1  0
 22 23  1  0
  4 24  1  0
 24 25  2  0
 25  1  1  0
 23  6  1  0
 21 10  1  0
 19 14  1  0
  1 26  1  0
  2 27  1  0
  3 28  1  0
  5 29  1  0
  5 30  1  0
  7 31  1  0
  7 32  1  0
  8 33  1  0
  8 34  1  0
  9 35  1  0
 10 36  1  0
 11 37  1  0
 11 38  1  0
 12 39  1  0
 12 40  1  0
 16 41  1  0
 17 42  1  0
 18 43  1  0
 19 44  1  0
 20 45  1  0
 20 46  1  0
 21 47  1  0
 21 48  1  0
 22 49  1  0
 22 50  1  0
 23 51  1  0
 23 52  1  0
 25 53  1  0
M  CHG  1  19   1
M  END
>  <UniqueID>  (27) 
26

>  <SMILES>  (27) 
c1ccc(CN2CCC(C3CCN(c4nccc[nH+]4)CC3)CC2)nc1

>  <Energy>  (27) 
74.458065705134

>  <Genealogy>  (27) 
c1ccc(CN2CCC(C3CCN(c4nccc[nH+]4)CC3)CC2)nc1 (protonated)
c1ccc(CN2CCC(C3CCN(c4nccc[nH+]4)CC3)CC2)nc1 (3D coordinates assigned)
c1ccc(CN2CCC(C3CCN(c4nccc[nH+]4)CC3)CC2)nc1 (nonaromatic ring conformer: 74.458065705134 kcal/mol)

>  <smiles>  (27) 
c1ccc(CN2CCC(C3CCN(c4ncccn4)CC3)CC2)nc1

>  <score_type>  (27) 
oracle

>  <origin>  (27) 
adg

>  <m_score__min__energy>  (27) 
-7.8899999999999997

>  <m_primary>  (27) 
energy

$$$$
27:0
     RDKit          3D

 44 47  0  0  0  0  0  0  0  0999 V2000
   61.4600   30.3220   49.2830 O   0  0  0  0  0  0  0  0  0  0  0  0
   61.4360   30.4770   48.0450 N   0  0  0  0  0  0  0  0  0  0  0  0
   62.3300   31.3380   47.4530 O   0  0  0  0  0  0  0  0  0  0  0  0
   60.4860   29.7630   47.2470 C   0  0  0  0  0  0  0  0  0  0  0  0
   59.4930   28.9260   47.7280 C   0  0  0  0  0  0  0  0  0  0  0  0
   58.8230   28.4590   46.6600 N   0  0  0  0  0  0  0  0  0  0  0  0
   59.4230   28.9870   45.5830 C   0  0  0  0  0  0  0  0  0  0  0  0
   60.4430   29.8050   45.8970 N   0  0  0  0  0  0  0  0  0  0  0  0
   58.9900   28.7030   44.2910 O   0  0  0  0  0  0  0  0  0  0  0  0
   58.0180   27.6720   44.0850 C   0  0  0  0  0  0  0  0  0  0  0  0
   56.9900   27.6260   45.2400 C   0  0  2  0  0  0  0  0  0  0  0  0
   56.2360   28.8290   45.2140 O   0  0  0  0  0  0  0  0  0  0  0  0
   56.1120   29.3350   43.8990 C   0  0  0  0  0  0  0  0  0  0  0  0
   56.8630   30.6340   43.7600 C   0  0  0  0  0  0  0  0  0  0  0  0
   57.0470   31.2210   42.5000 C   0  0  0  0  0  0  0  0  0  0  0  0
   57.7550   32.4180   42.3790 C   0  0  0  0  0  0  0  0  0  0  0  0
   58.2860   33.0380   43.5130 C   0  0  0  0  0  0  0  0  0  0  0  0
   58.1140   32.4640   44.7850 C   0  0  0  0  0  0  0  0  0  0  0  0
   58.6880   33.1160   45.9900 C   0  0  0  0  0  0  0  0  0  0  0  0
   59.4280   34.3090   45.8750 C   0  0  0  0  0  0  0  0  0  0  0  0
   59.9650   34.9200   47.0110 C   0  0  0  0  0  0  0  0  0  0  0  0
   59.7740   34.3500   48.2720 C   0  0  0  0  0  0  0  0  0  0  0  0
   60.2980   34.9450   49.3720 F   0  0  0  0  0  0  0  0  0  0  0  0
   59.0430   33.1670   48.3980 C   0  0  0  0  0  0  0  0  0  0  0  0
   58.5010   32.5510   47.2670 C   0  0  0  0  0  0  0  0  0  0  0  0
   57.3960   31.2590   44.8980 C   0  0  0  0  0  0  0  0  0  0  0  0
   57.7200   27.5050   46.5990 C   0  0  0  0  0  0  0  0  0  0  0  0
   59.2909   28.6885   48.7829 H   0  0  0  0  0  0  0  0  0  0  0  0
   61.0600   30.3380   45.2450 H   0  0  0  0  0  0  0  0  0  0  0  0
   57.4871   27.8642   43.1409 H   0  0  0  0  0  0  0  0  0  0  0  0
   58.5414   26.7052   44.0489 H   0  0  0  0  0  0  0  0  0  0  0  0
   56.3298   26.7549   45.1164 H   0  0  0  0  0  0  0  0  0  0  0  0
   56.5224   28.6019   43.1889 H   0  0  0  0  0  0  0  0  0  0  0  0
   55.0479   29.5149   43.6861 H   0  0  0  0  0  0  0  0  0  0  0  0
   56.6320   30.7366   41.6038 H   0  0  0  0  0  0  0  0  0  0  0  0
   57.8953   32.8744   41.3880 H   0  0  0  0  0  0  0  0  0  0  0  0
   58.8423   33.9814   43.4100 H   0  0  0  0  0  0  0  0  0  0  0  0
   59.5840   34.7623   44.8850 H   0  0  0  0  0  0  0  0  0  0  0  0
   60.5399   35.8526   46.9121 H   0  0  0  0  0  0  0  0  0  0  0  0
   58.8933   32.7184   49.3912 H   0  0  0  0  0  0  0  0  0  0  0  0
   57.9252   31.6199   47.3742 H   0  0  0  0  0  0  0  0  0  0  0  0
   57.2511   30.8024   45.8882 H   0  0  0  0  0  0  0  0  0  0  0  0
   57.0110   27.7153   47.4133 H   0  0  0  0  0  0  0  0  0  0  0  0
   58.1184   26.4852   46.7053 H   0  0  0  0  0  0  0  0  0  0  0  0
  1  2  2  0
  2  3  1  0
  2  4  1  0
  4  5  2  0
  5  6  1  0
  6  7  1  0
  7  8  2  0
  7  9  1  0
  9 10  1  0
 10 11  1  0
 11 12  1  0
 12 13  1  0
 13 14  1  0
 14 15  2  0
 15 16  1  0
 16 17  2  0
 17 18  1  0
 18 19  1  0
 19 20  2  0
 20 21  1  0
 21 22  2  0
 22 23  1  0
 22 24  1  0
 24 25  2  0
 18 26  2  0
 11 27  1  0
  8  4  1  0
 26 14  1  0
 27  6  1  0
 25 19  1  0
  5 28  1  0
  8 29  1  0
 10 30  1  0
 10 31  1  0
 11 32  1  6
 13 33  1  0
 13 34  1  0
 15 35  1  0
 16 36  1  0
 17 37  1  0
 20 38  1  0
 21 39  1  0
 24 40  1  0
 25 41  1  0
 26 42  1  0
 27 43  1  0
 27 44  1  0
M  CHG  3   2   1   3  -1   8   1
M  END
>  <UniqueID>  (28) 
27

>  <SMILES>  (28) 
O=[N+]([O-])c1cn2c([nH+]1)OC[C@H](OCc1cccc(-c3ccc(F)cc3)c1)C2

>  <Energy>  (28) 
88.16810014135709

>  <Genealogy>  (28) 
O=[N+]([O-])c1cn2c([nH+]1)OCC(OCc1cccc(-c3ccc(F)cc3)c1)C2 (protonated)
O=[N+]([O-])c1cn2c([nH+]1)OC[C@H](OCc1cccc(-c3ccc(F)cc3)c1)C2 (chirality)
O=[N+]([O-])c1cn2c([nH+]1)OC[C@H](OCc1cccc(-c3ccc(F)cc3)c1)C2 (3D coordinates assigned)
O=[N+]([O-])c1cn2c([nH+]1)OC[C@H](OCc1cccc(-c3ccc(F)cc3)c1)C2 (nonaromatic ring conformer: 88.16810014135709 kcal/mol)

>  <smiles>  (28) 
O=[N+]([O-])c1cn2c(n1)OCC(OCc1cccc(-c3ccc(F)cc3)c1)C2

>  <score_type>  (28) 
oracle

>  <origin>  (28) 
adg

>  <m_score__min__energy>  (28) 
-6.9100000000000001

>  <m_primary>  (28) 
energy

$$$$
28:0
     RDKit          3D

 55 56  0  0  0  0  0  0  0  0999 V2000
   61.6680   33.3970   50.3470 C   0  0  0  0  0  0  0  0  0  0  0  0
   60.9720   34.1290   49.2040 C   0  0  0  0  0  0  0  0  0  0  0  0
   61.8640   34.2010   48.0240 N   0  0  0  0  0  0  0  0  0  0  0  0
   62.9370   33.1810   48.1040 C   0  0  0  0  0  0  0  0  0  0  0  0
   63.7120   33.1260   46.7900 C   0  0  0  0  0  0  0  0  0  0  0  0
   61.0940   34.0680   46.7640 C   0  0  0  0  0  0  0  0  0  0  0  0
   59.9810   35.1270   46.7080 C   0  0  0  0  0  0  0  0  0  0  0  0
   58.6110   34.5320   47.0590 C   0  0  0  0  0  0  0  0  0  0  0  0
   58.3760   33.2770   46.3430 N   0  0  0  0  0  0  0  0  0  0  0  0
   57.6000   33.2330   45.1390 C   0  0  0  0  0  0  0  0  0  0  0  0
   57.3550   34.2930   44.5020 O   0  0  0  0  0  0  0  0  0  0  0  0
   57.0850   31.9240   44.6150 C   0  0  0  0  0  0  0  0  0  0  0  0
   57.2660   30.8790   45.5710 O   0  0  0  0  0  0  0  0  0  0  0  0
   57.9170   29.6550   45.3300 C   0  0  0  0  0  0  0  0  0  0  0  0
   57.3460   28.6660   44.5040 C   0  0  0  0  0  0  0  0  0  0  0  0
   58.0000   27.4510   44.2970 C   0  0  0  0  0  0  0  0  0  0  0  0
   59.2280   27.2050   44.9070 C   0  0  0  0  0  0  0  0  0  0  0  0
   59.8100   28.1750   45.7230 C   0  0  0  0  0  0  0  0  0  0  0  0
   59.1710   29.4110   45.9370 C   0  0  0  0  0  0  0  0  0  0  0  0
   59.7810   30.4070   46.8560 C   0  0  0  0  0  0  0  0  0  0  0  0
   60.5620   31.2810   46.3870 O   0  0  0  0  0  0  0  0  0  0  0  0
   59.4750   30.4330   48.3050 C   0  0  0  0  0  0  0  0  0  0  0  0
   58.8620   31.5540   48.8950 C   0  0  0  0  0  0  0  0  0  0  0  0
   58.5710   31.5620   50.2640 C   0  0  0  0  0  0  0  0  0  0  0  0
   58.8800   30.4510   51.0520 C   0  0  0  0  0  0  0  0  0  0  0  0
   59.4770   29.3280   50.4740 C   0  0  0  0  0  0  0  0  0  0  0  0
   59.7690   29.3150   49.1060 C   0  0  0  0  0  0  0  0  0  0  0  0
   61.2998   33.7842   51.3085 H   0  0  0  0  0  0  0  0  0  0  0  0
   61.4522   32.3206   50.2784 H   0  0  0  0  0  0  0  0  0  0  0  0
   62.7539   33.5583   50.2784 H   0  0  0  0  0  0  0  0  0  0  0  0
   60.0533   33.5885   48.9325 H   0  0  0  0  0  0  0  0  0  0  0  0
   60.7248   35.1502   49.5297 H   0  0  0  0  0  0  0  0  0  0  0  0
   63.6256   33.4416   48.9212 H   0  0  0  0  0  0  0  0  0  0  0  0
   62.4832   32.1972   48.2942 H   0  0  0  0  0  0  0  0  0  0  0  0
   64.7886   33.0496   47.0022 H   0  0  0  0  0  0  0  0  0  0  0  0
   63.3893   32.2485   46.2105 H   0  0  0  0  0  0  0  0  0  0  0  0
   63.5165   34.0403   46.2105 H   0  0  0  0  0  0  0  0  0  0  0  0
   61.7709   34.2066   45.9081 H   0  0  0  0  0  0  0  0  0  0  0  0
   60.6395   33.0670   46.7249 H   0  0  0  0  0  0  0  0  0  0  0  0
   60.2154   35.9283   47.4243 H   0  0  0  0  0  0  0  0  0  0  0  0
   59.9315   35.5174   45.6808 H   0  0  0  0  0  0  0  0  0  0  0  0
   58.5706   34.3398   48.1413 H   0  0  0  0  0  0  0  0  0  0  0  0
   57.8339   35.2516   46.7618 H   0  0  0  0  0  0  0  0  0  0  0  0
   58.7250   32.3790   46.7500 H   0  0  0  0  0  0  0  0  0  0  0  0
   56.0127   32.0239   44.3910 H   0  0  0  0  0  0  0  0  0  0  0  0
   57.6483   31.6664   43.7059 H   0  0  0  0  0  0  0  0  0  0  0  0
   56.3769   28.8535   44.0186 H   0  0  0  0  0  0  0  0  0  0  0  0
   57.5450   26.6858   43.6508 H   0  0  0  0  0  0  0  0  0  0  0  0
   59.7393   26.2446   44.7450 H   0  0  0  0  0  0  0  0  0  0  0  0
   60.7781   27.9721   46.2042 H   0  0  0  0  0  0  0  0  0  0  0  0
   58.6103   32.4285   48.2770 H   0  0  0  0  0  0  0  0  0  0  0  0
   58.0983   32.4444   50.7199 H   0  0  0  0  0  0  0  0  0  0  0  0
   58.6532   30.4603   52.1283 H   0  0  0  0  0  0  0  0  0  0  0  0
   59.7178   28.4528   51.0954 H   0  0  0  0  0  0  0  0  0  0  0  0
   60.2313   28.4250   48.6541 H   0  0  0  0  0  0  0  0  0  0  0  0
  1  2  1  0
  2  3  1  0
  3  4  1  0
  4  5  1  0
  3  6  1  0
  6  7  1  0
  7  8  1  0
  8  9  1  0
  9 10  1  0
 10 11  2  0
 10 12  1  0
 12 13  1  0
 13 14  1  0
 14 15  2  0
 15 16  1  0
 16 17  2  0
 17 18  1  0
 18 19  2  0
 19 20  1  0
 20 21  2  0
 20 22  1  0
 22 23  2  0
 23 24  1  0
 24 25  2  0
 25 26  1  0
 26 27  2  0
 19 14  1  0
 27 22  1  0
  1 28  1  0
  1 29  1  0
  1 30  1  0
  2 31  1  0
  2 32  1  0
  4 33  1  0
  4 34  1  0
  5 35  1  0
  5 36  1  0
  5 37  1  0
  6 38  1  0
  6 39  1  0
  7 40  1  0
  7 41  1  0
  8 42  1  0
  8 43  1  0
  9 44  1  0
 12 45  1  0
 12 46  1  0
 15 47  1  0
 16 48  1  0
 17 49  1  0
 18 50  1  0
 23 51  1  0
 24 52  1  0
 25 53  1  0
 26 54  1  0
 27 55  1  0
M  END
>  <UniqueID>  (29) 
28

>  <SMILES>  (29) 
CCN(CC)CCCNC(=O)COc1ccccc1C(=O)c1ccccc1

>  <Energy>  (29) 
50.12506639485349

>  <Genealogy>  (29) 
CCN(CC)CCCNC(=O)COc1ccccc1C(=O)c1ccccc1 (3D coordinates assigned)
CCN(CC)CCCNC(=O)COc1ccccc1C(=O)c1ccccc1 (optimized conformer: 50.12506639485349 kcal/mol)

>  <smiles>  (29) 
CCN(CC)CCCNC(=O)COc1ccccc1C(=O)c1ccccc1

>  <score_type>  (29) 
oracle

>  <origin>  (29) 
adg

>  <m_score__min__energy>  (29) 
-8.5099999999999998

>  <m_primary>  (29) 
energy

$$$$
29:0
     RDKit          3D

 45 48  0  0  0  0  0  0  0  0999 V2000
   66.2920   32.2440   50.4650 C   0  0  0  0  0  0  0  0  0  0  0  0
   65.6980   33.4240   49.9330 O   0  0  0  0  0  0  0  0  0  0  0  0
   64.3770   33.5060   49.4700 C   0  0  0  0  0  0  0  0  0  0  0  0
   63.3180   33.9500   50.2840 C   0  0  0  0  0  0  0  0  0  0  0  0
   62.0160   34.0150   49.7750 C   0  0  0  0  0  0  0  0  0  0  0  0
   61.7510   33.6430   48.4460 C   0  0  0  0  0  0  0  0  0  0  0  0
   60.4090   33.6970   47.9250 N   0  0  0  0  0  0  0  0  0  0  0  0
   59.5110   32.5440   48.0810 C   0  0  0  0  0  0  0  0  0  0  0  0
   58.3230   32.6470   47.1210 C   0  0  0  0  0  0  0  0  0  0  0  0
   58.7970   33.1740   45.8280 N   0  0  0  0  0  0  0  0  0  0  0  0
   57.8410   32.9530   44.7230 C   0  0  0  0  0  0  0  0  0  0  0  0
   57.2700   31.5620   44.7010 C   0  0  0  0  0  0  0  0  0  0  0  0
   58.0020   30.4440   44.8670 N   0  0  0  0  0  0  0  0  0  0  0  0
   57.0540   29.4910   44.7490 C   0  0  0  0  0  0  0  0  0  0  0  0
   57.3280   28.0530   44.8470 C   0  0  0  0  0  0  0  0  0  0  0  0
   56.9600   27.2220   45.8980 C   0  0  0  0  0  0  0  0  0  0  0  0
   57.3610   25.8920   45.7150 C   0  0  0  0  0  0  0  0  0  0  0  0
   58.0430   25.6740   44.5250 C   0  0  0  0  0  0  0  0  0  0  0  0
   58.1470   27.1360   43.6990 S   0  0  0  0  0  0  0  0  0  0  0  0
   55.8270   30.0030   44.5260 N   0  0  0  0  0  0  0  0  0  0  0  0
   56.0050   31.2880   44.5030 O   0  0  0  0  0  0  0  0  0  0  0  0
   59.2570   34.5810   45.9170 C   0  0  0  0  0  0  0  0  0  0  0  0
   59.8990   34.9130   47.2770 C   0  0  0  0  0  0  0  0  0  0  0  0
   62.8090   33.1930   47.6400 C   0  0  0  0  0  0  0  0  0  0  0  0
   64.1100   33.1280   48.1500 C   0  0  0  0  0  0  0  0  0  0  0  0
   66.2707   32.2862   51.5640 H   0  0  0  0  0  0  0  0  0  0  0  0
   65.7298   31.3633   50.1210 H   0  0  0  0  0  0  0  0  0  0  0  0
   67.3343   32.1710   50.1210 H   0  0  0  0  0  0  0  0  0  0  0  0
   63.5146   34.2472   51.3247 H   0  0  0  0  0  0  0  0  0  0  0  0
   61.1942   34.3597   50.4198 H   0  0  0  0  0  0  0  0  0  0  0  0
   60.0690   31.6206   47.8666 H   0  0  0  0  0  0  0  0  0  0  0  0
   59.1305   32.5303   49.1130 H   0  0  0  0  0  0  0  0  0  0  0  0
   57.8801   31.6509   46.9736 H   0  0  0  0  0  0  0  0  0  0  0  0
   57.5620   33.3209   47.5413 H   0  0  0  0  0  0  0  0  0  0  0  0
   57.0127   33.6690   44.8292 H   0  0  0  0  0  0  0  0  0  0  0  0
   58.3922   33.0943   43.7816 H   0  0  0  0  0  0  0  0  0  0  0  0
   56.4098   27.5726   46.7836 H   0  0  0  0  0  0  0  0  0  0  0  0
   57.1550   25.0955   46.4452 H   0  0  0  0  0  0  0  0  0  0  0  0
   58.4463   24.7101   44.1812 H   0  0  0  0  0  0  0  0  0  0  0  0
   59.9992   34.7591   45.1249 H   0  0  0  0  0  0  0  0  0  0  0  0
   58.3740   35.2266   45.8007 H   0  0  0  0  0  0  0  0  0  0  0  0
   60.7317   35.6146   47.1208 H   0  0  0  0  0  0  0  0  0  0  0  0
   59.1344   35.3640   47.9266 H   0  0  0  0  0  0  0  0  0  0  0  0
   62.6136   32.8896   46.6009 H   0  0  0  0  0  0  0  0  0  0  0  0
   64.9305   32.7764   47.5072 H   0  0  0  0  0  0  0  0  0  0  0  0
  1  2  1  0
  2  3  1  0
  3  4  2  0
  4  5  1  0
  5  6  2  0
  6  7  1  0
  7  8  1  0
  8  9  1  0
  9 10  1  0
 10 11  1  0
 11 12  1  0
 12 13  2  0
 13 14  1  0
 14 15  1  0
 15 16  2  0
 16 17  1  0
 17 18  2  0
 18 19  1  0
 14 20  2  0
 20 21  1  0
 10 22  1  0
 22 23  1  0
  6 24  1  0
 24 25  2  0
 25  3  1  0
 23  7  1  0
 21 12  1  0
 19 15  1  0
  1 26  1  0
  1 27  1  0
  1 28  1  0
  4 29  1  0
  5 30  1  0
  8 31  1  0
  8 32  1  0
  9 33  1  0
  9 34  1  0
 11 35  1  0
 11 36  1  0
 16 37  1  0
 17 38  1  0
 18 39  1  0
 22 40  1  0
 22 41  1  0
 23 42  1  0
 23 43  1  0
 24 44  1  0
 25 45  1  0
M  END
>  <UniqueID>  (30) 
29

>  <SMILES>  (30) 
COc1ccc(N2CCN(Cc3nc(-c4cccs4)no3)CC2)cc1

>  <Energy>  (30) 
116.76354187360747

>  <Genealogy>  (30) 
COc1ccc(N2CCN(Cc3nc(-c4cccs4)no3)CC2)cc1 (3D coordinates assigned)
COc1ccc(N2CCN(Cc3nc(-c4cccs4)no3)CC2)cc1 (nonaromatic ring conformer: 116.76354187360747 kcal/mol)

>  <smiles>  (30) 
COc1ccc(N2CCN(Cc3nc(-c4cccs4)no3)CC2)cc1

>  <score_type>  (30) 
oracle

>  <origin>  (30) 
adg

>  <m_score__min__energy>  (30) 
-8.6300000000000008

>  <m_primary>  (30) 
energy

$$$$
30:0
     RDKit          3D

 66 69  0  0  0  0  0  0  0  0999 V2000
   57.7420   28.2870   43.7240 C   0  0  0  0  0  0  0  0  0  0  0  0
   58.5050   28.3640   45.0190 C   0  0  0  0  0  0  0  0  0  0  0  0
   59.5700   27.4760   45.2480 C   0  0  0  0  0  0  0  0  0  0  0  0
   60.3020   27.5410   46.4370 C   0  0  0  0  0  0  0  0  0  0  0  0
   59.9800   28.4920   47.4070 C   0  0  0  0  0  0  0  0  0  0  0  0
   58.9130   29.3680   47.2000 C   0  0  0  0  0  0  0  0  0  0  0  0
   58.1520   29.2920   46.0280 C   0  0  0  0  0  0  0  0  0  0  0  0
   57.0730   30.2170   45.8490 N   0  0  0  0  0  0  0  0  0  0  0  0
   56.9930   31.2480   44.8560 C   0  0  0  0  0  0  0  0  0  0  0  0
   56.2660   31.0410   43.8500 O   0  0  0  0  0  0  0  0  0  0  0  0
   57.7960   32.4990   44.9270 C   0  0  0  0  0  0  0  0  0  0  0  0
   58.4990   33.0780   43.8800 C   0  0  0  0  0  0  0  0  0  0  0  0
   59.1620   34.1680   44.3950 C   0  0  0  0  0  0  0  0  0  0  0  0
   58.8400   34.2330   45.7340 C   0  0  0  0  0  0  0  0  0  0  0  0
   59.4120   35.2610   46.6780 C   0  0  0  0  0  0  0  0  0  0  0  0
   60.5350   34.6870   47.4450 N   0  0  0  0  0  0  0  0  0  0  0  0
   61.0330   33.4230   46.8370 C   0  0  0  0  0  0  0  0  0  0  0  0
   60.4390   32.1680   47.4930 C   0  0  0  0  0  0  0  0  0  0  0  0
   60.6620   32.1900   48.9440 N   0  0  0  0  0  0  0  0  0  0  0  0
   60.5240   30.9800   49.7170 C   0  0  0  0  0  0  0  0  0  0  0  0
   61.6260   30.1210   49.8690 C   0  0  0  0  0  0  0  0  0  0  0  0
   61.5120   28.9410   50.6050 C   0  0  0  0  0  0  0  0  0  0  0  0
   60.2980   28.6040   51.1990 C   0  0  0  0  0  0  0  0  0  0  0  0
   59.1930   29.4470   51.0640 C   0  0  0  0  0  0  0  0  0  0  0  0
   59.2930   30.6460   50.3270 C   0  0  0  0  0  0  0  0  0  0  0  0
   58.2150   31.5380   50.2010 O   0  0  0  0  0  0  0  0  0  0  0  0
   57.6520   32.3320   51.2470 C   0  0  0  0  0  0  0  0  0  0  0  0
   56.6940   31.4580   52.0570 C   0  0  0  0  0  0  0  0  0  0  0  0
   58.7590   32.8800   52.1520 C   0  0  0  0  0  0  0  0  0  0  0  0
   60.9580   33.4700   49.5980 C   0  0  0  0  0  0  0  0  0  0  0  0
   60.1920   34.5870   48.8860 C   0  0  0  0  0  0  0  0  0  0  0  0
   57.9860   33.2320   46.0580 N   0  0  0  0  0  0  0  0  0  0  0  0
   57.3960   32.9780   47.3760 C   0  0  0  0  0  0  0  0  0  0  0  0
   56.6683   28.1786   43.9369 H   0  0  0  0  0  0  0  0  0  0  0  0
   57.9099   29.2066   43.1443 H   0  0  0  0  0  0  0  0  0  0  0  0
   58.0902   27.4194   43.1443 H   0  0  0  0  0  0  0  0  0  0  0  0
   59.8291   26.7253   44.4869 H   0  0  0  0  0  0  0  0  0  0  0  0
   61.1334   26.8415   46.6087 H   0  0  0  0  0  0  0  0  0  0  0  0
   60.5675   28.5511   48.3351 H   0  0  0  0  0  0  0  0  0  0  0  0
   58.6690   30.1224   47.9625 H   0  0  0  0  0  0  0  0  0  0  0  0
   58.5218   32.7313   42.8363 H   0  0  0  0  0  0  0  0  0  0  0  0
   59.8217   34.8550   43.8447 H   0  0  0  0  0  0  0  0  0  0  0  0
   59.7723   36.1241   46.0989 H   0  0  0  0  0  0  0  0  0  0  0  0
   58.6260   35.5778   47.3793 H   0  0  0  0  0  0  0  0  0  0  0  0
   60.7683   33.4193   45.7693 H   0  0  0  0  0  0  0  0  0  0  0  0
   62.1219   33.3906   46.9897 H   0  0  0  0  0  0  0  0  0  0  0  0
   59.3578   32.1330   47.2937 H   0  0  0  0  0  0  0  0  0  0  0  0
   60.9320   31.2797   47.0713 H   0  0  0  0  0  0  0  0  0  0  0  0
   62.5878   30.3815   49.4032 H   0  0  0  0  0  0  0  0  0  0  0  0
   62.3815   28.2764   50.7162 H   0  0  0  0  0  0  0  0  0  0  0  0
   60.2095   27.6716   51.7758 H   0  0  0  0  0  0  0  0  0  0  0  0
   58.2375   29.1743   51.5357 H   0  0  0  0  0  0  0  0  0  0  0  0
   57.1081   33.1854   50.8159 H   0  0  0  0  0  0  0  0  0  0  0  0
   56.8701   31.6187   53.1308 H   0  0  0  0  0  0  0  0  0  0  0  0
   55.6560   31.7268   51.8114 H   0  0  0  0  0  0  0  0  0  0  0  0
   56.8666   30.3997   51.8114 H   0  0  0  0  0  0  0  0  0  0  0  0
   58.4748   32.7393   53.2053 H   0  0  0  0  0  0  0  0  0  0  0  0
   59.6972   32.3423   51.9504 H   0  0  0  0  0  0  0  0  0  0  0  0
   58.9003   33.9521   51.9504 H   0  0  0  0  0  0  0  0  0  0  0  0
   60.6476   33.4250   50.6523 H   0  0  0  0  0  0  0  0  0  0  0  0
   62.0382   33.6709   49.5458 H   0  0  0  0  0  0  0  0  0  0  0  0
   59.1139   34.3890   48.9784 H   0  0  0  0  0  0  0  0  0  0  0  0
   60.4725   35.5384   49.3616 H   0  0  0  0  0  0  0  0  0  0  0  0
   58.1047   33.2831   48.1600 H   0  0  0  0  0  0  0  0  0  0  0  0
   56.4652   33.5551   47.4784 H   0  0  0  0  0  0  0  0  0  0  0  0
   57.1755   31.9052   47.4784 H   0  0  0  0  0  0  0  0  0  0  0  0
  1  2  1  0
  2  3  2  0
  3  4  1  0
  4  5  2  0
  5  6  1  0
  6  7  2  0
  7  8  1  0
  8  9  1  0
  9 10  2  0
  9 11  1  0
 11 12  2  0
 12 13  1  0
 13 14  2  0
 14 15  1  0
 15 16  1  0
 16 17  1  0
 17 18  1  0
 18 19  1  0
 19 20  1  0
 20 21  2  0
 21 22  1  0
 22 23  2  0
 23 24  1  0
 24 25  2  0
 25 26  1  0
 26 27  1  0
 27 28  1  0
 27 29  1  0
 19 30  1  0
 30 31  1  0
 14 32  1  0
 32 33  1  0
  7  2  1  0
 32 11  1  0
 31 16  1  0
 25 20  1  0
  1 34  1  0
  1 35  1  0
  1 36  1  0
  3 37  1  0
  4 38  1  0
  5 39  1  0
  6 40  1  0
 12 41  1  0
 13 42  1  0
 15 43  1  0
 15 44  1  0
 17 45  1  0
 17 46  1  0
 18 47  1  0
 18 48  1  0
 21 49  1  0
 22 50  1  0
 23 51  1  0
 24 52  1  0
 27 53  1  0
 28 54  1  0
 28 55  1  0
 28 56  1  0
 29 57  1  0
 29 58  1  0
 29 59  1  0
 30 60  1  0
 30 61  1  0
 31 62  1  0
 31 63  1  0
 33 64  1  0
 33 65  1  0
 33 66  1  0
M  CHG  1   8  -1
M  END
>  <UniqueID>  (31) 
30

>  <SMILES>  (31) 
Cc1ccccc1[N-]C(=O)c1ccc(CN2CCN(c3ccccc3OC(C)C)CC2)n1C

>  <Energy>  (31) 
116.1776685256513

>  <Genealogy>  (31) 
Cc1ccccc1[N-]C(=O)c1ccc(CN2CCN(c3ccccc3OC(C)C)CC2)n1C (protonated)
Cc1ccccc1[N-]C(=O)c1ccc(CN2CCN(c3ccccc3OC(C)C)CC2)n1C (3D coordinates assigned)
Cc1ccccc1[N-]C(=O)c1ccc(CN2CCN(c3ccccc3OC(C)C)CC2)n1C (nonaromatic ring conformer: 116.1776685256513 kcal/mol)

>  <smiles>  (31) 
Cc1ccccc1NC(=O)c1ccc(CN2CCN(c3ccccc3OC(C)C)CC2)n1C

>  <score_type>  (31) 
oracle

>  <origin>  (31) 
adg

>  <m_score__min__energy>  (31) 
-10.34

>  <m_primary>  (31) 
energy

$$$$
31:0
     RDKit          3D

 49 54  0  0  0  0  0  0  0  0999 V2000
   57.9030   19.6760   52.9820 C   0  0  0  0  0  0  0  0  0  0  0  0
   56.9670   19.3950   51.9470 O   0  0  0  0  0  0  0  0  0  0  0  0
   57.1250   19.7800   50.6080 C   0  0  0  0  0  0  0  0  0  0  0  0
   56.9830   21.1340   50.2850 C   0  0  0  0  0  0  0  0  0  0  0  0
   57.1170   21.5670   48.9630 C   0  0  0  0  0  0  0  0  0  0  0  0
   57.3930   20.6480   47.9420 C   0  0  0  0  0  0  0  0  0  0  0  0
   57.5630   21.1200   46.5250 C   0  0  0  0  0  0  0  0  0  0  0  0
   56.5420   22.1090   46.1990 N   0  0  0  0  0  0  0  0  0  0  0  0
   55.2200   21.8370   45.7130 C   0  0  0  0  0  0  0  0  0  0  0  0
   54.8510   20.7320   45.2380 O   0  0  0  0  0  0  0  0  0  0  0  0
   54.3930   23.0670   45.8150 C   0  0  1  0  0  0  0  0  0  0  0  0
   53.5440   23.4280   44.7610 C   0  0  0  0  0  0  0  0  0  0  0  0
   52.7840   23.7820   43.7030 C   0  0  0  0  0  0  0  0  0  0  0  0
   51.3830   23.7360   44.0470 C   0  0  0  0  0  0  0  0  0  0  0  0
   50.9090   23.3620   45.3210 N   0  0  0  0  0  0  0  0  0  0  0  0
   51.7090   22.9960   46.3950 C   0  0  0  0  0  0  0  0  0  0  0  0
   53.0230   23.0410   46.0800 C   0  0  0  0  0  0  0  0  0  0  0  0
   55.2770   24.0650   46.4640 C   0  0  0  0  0  0  0  0  0  0  0  0
   56.4910   23.4640   46.6650 C   0  0  0  0  0  0  0  0  0  0  0  0
   57.4520   24.4470   46.5270 C   0  0  0  0  0  0  0  0  0  0  0  0
   58.8260   24.2370   46.5530 O   0  0  0  0  0  0  0  0  0  0  0  0
   56.8610   25.6450   46.2880 N   0  0  0  0  0  0  0  0  0  0  0  0
   57.5060   26.9000   46.0030 C   0  0  0  0  0  0  0  0  0  0  0  0
   58.1380   27.6170   47.0350 C   0  0  0  0  0  0  0  0  0  0  0  0
   58.7430   28.8490   46.7730 C   0  0  0  0  0  0  0  0  0  0  0  0
   58.7210   29.3790   45.4800 C   0  0  0  0  0  0  0  0  0  0  0  0
   58.0950   28.6770   44.4470 C   0  0  0  0  0  0  0  0  0  0  0  0
   57.4890   27.4420   44.7050 C   0  0  0  0  0  0  0  0  0  0  0  0
   55.5330   25.3920   46.1860 C   0  0  0  0  0  0  0  0  0  0  0  0
   54.5910   26.3110   45.7370 O   0  0  0  0  0  0  0  0  0  0  0  0
   57.5590   19.2920   48.2640 C   0  0  0  0  0  0  0  0  0  0  0  0
   57.4180   18.8590   49.5850 C   0  0  0  0  0  0  0  0  0  0  0  0
   57.4219   19.5316   53.9606 H   0  0  0  0  0  0  0  0  0  0  0  0
   58.7635   18.9966   52.8926 H   0  0  0  0  0  0  0  0  0  0  0  0
   58.2470   20.7170   52.8926 H   0  0  0  0  0  0  0  0  0  0  0  0
   56.7640   21.8638   51.0783 H   0  0  0  0  0  0  0  0  0  0  0  0
   57.0052   22.6346   48.7228 H   0  0  0  0  0  0  0  0  0  0  0  0
   58.5585   21.5736   46.4098 H   0  0  0  0  0  0  0  0  0  0  0  0
   57.4615   20.2611   45.8454 H   0  0  0  0  0  0  0  0  0  0  0  0
   53.1777   24.0660   42.7159 H   0  0  0  0  0  0  0  0  0  0  0  0
   50.6472   24.0067   43.2754 H   0  0  0  0  0  0  0  0  0  0  0  0
   51.3209   22.7048   47.3822 H   0  0  0  0  0  0  0  0  0  0  0  0
   58.1561   27.2052   48.0549 H   0  0  0  0  0  0  0  0  0  0  0  0
   59.2371   29.4023   47.5853 H   0  0  0  0  0  0  0  0  0  0  0  0
   59.1969   30.3494   45.2755 H   0  0  0  0  0  0  0  0  0  0  0  0
   58.0784   29.0953   43.4298 H   0  0  0  0  0  0  0  0  0  0  0  0
   56.9971   26.8926   43.8888 H   0  0  0  0  0  0  0  0  0  0  0  0
   57.8011   18.5670   47.4730 H   0  0  0  0  0  0  0  0  0  0  0  0
   57.5367   17.7925   49.8267 H   0  0  0  0  0  0  0  0  0  0  0  0
  1  2  1  0
  2  3  1  0
  3  4  2  0
  4  5  1  0
  5  6  2  0
  6  7  1  0
  7  8  1  0
  8  9  1  0
  9 10  2  0
 11  9  1  6
 11 12  1  0
 12 13  2  0
 13 14  1  0
 14 15  2  0
 15 16  1  0
 16 17  2  0
 11 18  1  0
 18 19  1  0
 19 20  2  0
 20 21  1  0
 20 22  1  0
 22 23  1  0
 23 24  2  0
 24 25  1  0
 25 26  2  0
 26 27  1  0
 27 28  2  0
 22 29  1  0
 29 30  1  0
  6 31  1  0
 31 32  2  0
 32  3  1  0
 19  8  1  0
 28 23  1  0
 17 11  1  0
 29 18  2  0
 17 12  1  0
  1 33  1  0
  1 34  1  0
  1 35  1  0
  4 36  1  0
  5 37  1  0
  7 38  1  0
  7 39  1  0
 13 40  1  0
 14 41  1  0
 16 42  1  0
 24 43  1  0
 25 44  1  0
 26 45  1  0
 27 46  1  0
 28 47  1  0
 31 48  1  0
 32 49  1  0
M  CHG  2  21  -1  30  -1
M  END
>  <UniqueID>  (32) 
31

>  <SMILES>  (32) 
COc1ccc(CN2C(=O)[C@]3(c4ccncc43)c3c2c([O-])n(-c2ccccc2)c3[O-])cc1

>  <Energy>  (32) 
307.8798148189933

>  <Genealogy>  (32) 
COc1ccc(CN2C(=O)C3(c4ccncc43)c3c2c([O-])n(-c2ccccc2)c3[O-])cc1 (protonated)
COc1ccc(CN2C(=O)[C@]3(c4ccncc43)c3c2c([O-])n(-c2ccccc2)c3[O-])cc1 (chirality)
COc1ccc(CN2C(=O)[C@]3(c4ccncc43)c3c2c([O-])n(-c2ccccc2)c3[O-])cc1 (3D coordinates assigned)
COc1ccc(CN2C(=O)[C@]3(c4ccncc43)c3c2c([O-])n(-c2ccccc2)c3[O-])cc1 (nonaromatic ring conformer: 307.8798148189933 kcal/mol)

>  <smiles>  (32) 
COc1ccc(CN2C(=O)C3(c4ccncc43)c3c2c(O)n(-c2ccccc2)c3O)cc1

>  <score_type>  (32) 
oracle

>  <origin>  (32) 
adg

>  <m_score__min__energy>  (32) 
-9.75

>  <m_primary>  (32) 
energy

$$$$
32:0
     RDKit          3D

 44 45  0  0  0  0  0  0  0  0999 V2000
   58.5835   35.6301   45.6824 H   0  0  0  0  0  0  0  0  0  0  0  0
   58.9500   34.5950   45.7480 C   0  0  0  0  0  0  0  0  0  0  0  0
   58.3920   33.6910   44.9950 N   0  0  0  0  0  0  0  0  0  0  0  0
   57.3860   32.7110   45.4140 C   0  0  0  0  0  0  0  0  0  0  0  0
   56.6348   32.6056   44.6173 H   0  0  0  0  0  0  0  0  0  0  0  0
   56.9195   33.0682   46.3439 H   0  0  0  0  0  0  0  0  0  0  0  0
   58.0120   31.3620   45.6820 C   0  0  0  0  0  0  0  0  0  0  0  0
   59.2260   31.2850   46.3860 C   0  0  0  0  0  0  0  0  0  0  0  0
   59.6806   32.2039   46.7846 H   0  0  0  0  0  0  0  0  0  0  0  0
   59.8640   30.0580   46.5870 C   0  0  0  0  0  0  0  0  0  0  0  0
   61.0930   30.0490   47.2660 O   0  0  0  0  0  0  0  0  0  0  0  0
   61.2710   30.4820   48.6110 C   0  0  0  0  0  0  0  0  0  0  0  0
   60.9444   29.6876   49.2982 H   0  0  0  0  0  0  0  0  0  0  0  0
   62.3337   30.7049   48.7868 H   0  0  0  0  0  0  0  0  0  0  0  0
   60.6723   31.3879   48.7868 H   0  0  0  0  0  0  0  0  0  0  0  0
   59.2620   28.8850   46.1040 C   0  0  0  0  0  0  0  0  0  0  0  0
   59.7525   27.9133   46.2626 H   0  0  0  0  0  0  0  0  0  0  0  0
   58.0450   28.9450   45.4240 C   0  0  0  0  0  0  0  0  0  0  0  0
   57.5780   28.0181   45.0596 H   0  0  0  0  0  0  0  0  0  0  0  0
   57.4090   30.1820   45.2000 C   0  0  0  0  0  0  0  0  0  0  0  0
   56.1920   30.2750   44.5050 O   0  0  0  0  0  0  0  0  0  0  0  0
   55.9540   29.7200   43.2150 C   0  0  0  0  0  0  0  0  0  0  0  0
   55.5225   28.7139   43.3226 H   0  0  0  0  0  0  0  0  0  0  0  0
   55.2524   30.3627   42.6631 H   0  0  0  0  0  0  0  0  0  0  0  0
   56.9033   29.6548   42.6631 H   0  0  0  0  0  0  0  0  0  0  0  0
   60.0490   34.2980   46.6840 C   0  0  0  0  0  0  0  0  0  0  0  0
   59.8440   34.4480   48.0590 C   0  0  0  0  0  0  0  0  0  0  0  0
   58.8568   34.7549   48.4349 H   0  0  0  0  0  0  0  0  0  0  0  0
   60.8870   34.2100   48.9580 C   0  0  0  0  0  0  0  0  0  0  0  0
   60.7182   34.3455   50.0365 H   0  0  0  0  0  0  0  0  0  0  0  0
   62.1530   33.7980   48.4960 C   0  0  0  0  0  0  0  0  0  0  0  0
   63.2350   33.5560   49.4260 N   0  0  0  0  0  0  0  0  0  0  0  0
   64.3460   32.6730   49.0540 C   0  0  0  0  0  0  0  0  0  0  0  0
   64.8295   32.2887   49.9642 H   0  0  0  0  0  0  0  0  0  0  0  0
   63.9619   31.8310   48.4594 H   0  0  0  0  0  0  0  0  0  0  0  0
   65.0796   33.2372   48.4594 H   0  0  0  0  0  0  0  0  0  0  0  0
   63.2280   34.1810   50.7520 C   0  0  0  0  0  0  0  0  0  0  0  0
   63.2368   33.3993   51.5259 H   0  0  0  0  0  0  0  0  0  0  0  0
   64.1191   34.8164   50.8626 H   0  0  0  0  0  0  0  0  0  0  0  0
   62.3229   34.7963   50.8626 H   0  0  0  0  0  0  0  0  0  0  0  0
   62.3370   33.6140   47.1100 C   0  0  0  0  0  0  0  0  0  0  0  0
   63.3110   33.2709   46.7311 H   0  0  0  0  0  0  0  0  0  0  0  0
   61.2950   33.8630   46.2130 C   0  0  0  0  0  0  0  0  0  0  0  0
   61.4532   33.7172   45.1343 H   0  0  0  0  0  0  0  0  0  0  0  0
  1  2  1  0
  2  3  2  0
  3  4  1  0
  4  5  1  0
  4  6  1  0
  4  7  1  0
  7  8  2  0
  8  9  1  0
  8 10  1  0
 10 11  1  0
 11 12  1  0
 12 13  1  0
 12 14  1  0
 12 15  1  0
 10 16  2  0
 16 17  1  0
 16 18  1  0
 18 19  1  0
 18 20  2  0
 20 21  1  0
 21 22  1  0
 22 23  1  0
 22 24  1  0
 22 25  1  0
  2 26  1  0
 26 27  2  0
 27 28  1  0
 27 29  1  0
 29 30  1  0
 29 31  2  0
 31 32  1  0
 32 33  1  0
 33 34  1  0
 33 35  1  0
 33 36  1  0
 32 37  1  0
 37 38  1  0
 37 39  1  0
 37 40  1  0
 31 41  1  0
 41 42  1  0
 41 43  2  0
 43 44  1  0
 20  7  1  0
 43 26  1  0
M  END
>  <UniqueID>  (33) 
32

>  <SMILES>  (33) 
COc1ccc(OC)c(C/N=C\c2ccc(N(C)C)cc2)c1

>  <Energy>  (33) 
47.718589725210784

>  <Genealogy>  (33) 
COc1ccc(OC)c(C/N=C\c2ccc(N(C)C)cc2)c1 (cis-trans isomerization)
COc1ccc(OC)c(C/N=C\c2ccc(N(C)C)cc2)c1 (3D coordinates assigned)
COc1ccc(OC)c(C/N=C\c2ccc(N(C)C)cc2)c1 (optimized conformer: 47.718589725210784 kcal/mol)

>  <smiles>  (33) 
COc1ccc(OC)c(CN=Cc2ccc(N(C)C)cc2)c1

>  <score_type>  (33) 
oracle

>  <origin>  (33) 
adg

>  <m_score__min__energy>  (33) 
-6.8300000000000001

>  <m_primary>  (33) 
energy

$$$$
33:0
     RDKit          3D

 42 43  0  0  0  0  0  0  0  0999 V2000
   60.3830   34.8850   46.7210 C   0  0  0  0  0  0  0  0  0  0  0  0
   59.3360   33.9590   46.1790 C   0  0  0  0  0  0  0  0  0  0  0  0
   58.4850   34.3890   45.1500 C   0  0  0  0  0  0  0  0  0  0  0  0
   57.4840   33.5420   44.6630 C   0  0  0  0  0  0  0  0  0  0  0  0
   57.3030   32.2650   45.2220 C   0  0  0  0  0  0  0  0  0  0  0  0
   56.3010   31.3680   44.7290 N   0  0  0  0  0  0  0  0  0  0  0  0
   56.4240   29.9440   44.6180 C   0  0  0  0  0  0  0  0  0  0  0  0
   55.3870   29.2340   44.7140 O   0  0  0  0  0  0  0  0  0  0  0  0
   57.7340   29.2790   44.2900 C   0  0  0  0  0  0  0  0  0  0  0  0
   57.6160   27.8130   44.4510 N   0  0  0  0  0  0  0  0  0  0  0  0
   57.9510   27.1310   43.1870 C   0  0  0  0  0  0  0  0  0  0  0  0
   58.5020   27.3290   45.5290 C   0  0  0  0  0  0  0  0  0  0  0  0
   57.6930   26.9010   46.7160 C   0  0  0  0  0  0  0  0  0  0  0  0
   58.2010   26.9610   47.8690 O   0  0  0  0  0  0  0  0  0  0  0  0
   56.3860   26.3480   46.5160 N   0  0  0  0  0  0  0  0  0  0  0  0
   56.0530   25.2430   45.6650 C   0  0  0  0  0  0  0  0  0  0  0  0
   57.0350   24.5260   44.9540 C   0  0  0  0  0  0  0  0  0  0  0  0
   56.6700   23.4380   44.1530 C   0  0  0  0  0  0  0  0  0  0  0  0
   55.3310   23.0520   44.0650 C   0  0  0  0  0  0  0  0  0  0  0  0
   54.3540   23.7460   44.7850 C   0  0  0  0  0  0  0  0  0  0  0  0
   53.0550   23.3650   44.7040 F   0  0  0  0  0  0  0  0  0  0  0  0
   54.7160   24.8310   45.5890 C   0  0  0  0  0  0  0  0  0  0  0  0
   58.1620   31.8320   46.2390 C   0  0  0  0  0  0  0  0  0  0  0  0
   59.1630   32.6780   46.7260 C   0  0  0  0  0  0  0  0  0  0  0  0
   60.3582   34.8631   47.8205 H   0  0  0  0  0  0  0  0  0  0  0  0
   61.3745   34.5629   46.3701 H   0  0  0  0  0  0  0  0  0  0  0  0
   60.1845   35.9085   46.3701 H   0  0  0  0  0  0  0  0  0  0  0  0
   58.6054   35.3962   44.7245 H   0  0  0  0  0  0  0  0  0  0  0  0
   56.8360   33.8765   43.8395 H   0  0  0  0  0  0  0  0  0  0  0  0
   58.0084   29.5096   43.2500 H   0  0  0  0  0  0  0  0  0  0  0  0
   58.5090   29.6545   44.9744 H   0  0  0  0  0  0  0  0  0  0  0  0
   58.4262   26.1636   43.4071 H   0  0  0  0  0  0  0  0  0  0  0  0
   57.0322   26.9644   42.6056 H   0  0  0  0  0  0  0  0  0  0  0  0
   58.6445   27.7563   42.6056 H   0  0  0  0  0  0  0  0  0  0  0  0
   59.0868   26.4731   45.1610 H   0  0  0  0  0  0  0  0  0  0  0  0
   59.1757   28.1444   45.8310 H   0  0  0  0  0  0  0  0  0  0  0  0
   58.0918   24.8221   45.0285 H   0  0  0  0  0  0  0  0  0  0  0  0
   57.4388   22.8863   43.5921 H   0  0  0  0  0  0  0  0  0  0  0  0
   55.0447   22.2015   43.4289 H   0  0  0  0  0  0  0  0  0  0  0  0
   53.9461   25.3647   46.1657 H   0  0  0  0  0  0  0  0  0  0  0  0
   58.0489   30.8209   46.6572 H   0  0  0  0  0  0  0  0  0  0  0  0
   59.8180   32.3381   47.5417 H   0  0  0  0  0  0  0  0  0  0  0  0
  1  2  1  0
  2  3  2  0
  3  4  1  0
  4  5  2  0
  5  6  1  0
  6  7  1  0
  7  8  2  0
  7  9  1  0
  9 10  1  0
 10 11  1  0
 10 12  1  0
 12 13  1  0
 13 14  2  0
 13 15  1  0
 15 16  1  0
 16 17  2  0
 17 18  1  0
 18 19  2  0
 19 20  1  0
 20 21  1  0
 20 22  2  0
  5 23  1  0
 23 24  2  0
 24  2  1  0
 22 16  1  0
  1 25  1  0
  1 26  1  0
  1 27  1  0
  3 28  1  0
  4 29  1  0
  9 30  1  0
  9 31  1  0
 11 32  1  0
 11 33  1  0
 11 34  1  0
 12 35  1  0
 12 36  1  0
 17 37  1  0
 18 38  1  0
 19 39  1  0
 22 40  1  0
 23 41  1  0
 24 42  1  0
M  CHG  2   6  -1  15  -1
M  END
>  <UniqueID>  (34) 
33

>  <SMILES>  (34) 
Cc1ccc([N-]C(=O)CN(C)CC(=O)[N-]c2cccc(F)c2)cc1

>  <Energy>  (34) 
49.22433907621174

>  <Genealogy>  (34) 
Cc1ccc([N-]C(=O)CN(C)CC(=O)[N-]c2cccc(F)c2)cc1 (protonated)
Cc1ccc([N-]C(=O)CN(C)CC(=O)[N-]c2cccc(F)c2)cc1 (3D coordinates assigned)
Cc1ccc([N-]C(=O)CN(C)CC(=O)[N-]c2cccc(F)c2)cc1 (optimized conformer: 49.22433907621174 kcal/mol)

>  <smiles>  (34) 
Cc1ccc(NC(=O)CN(C)CC(=O)Nc2cccc(F)c2)cc1

>  <score_type>  (34) 
oracle

>  <origin>  (34) 
adg

>  <m_score__min__energy>  (34) 
-11.630000000000001

>  <m_primary>  (34) 
energy

$$$$
34:0
     RDKit          3D

 56 58  0  0  0  0  0  0  0  0999 V2000
   63.6420   33.8490   48.0310 C   0  0  0  0  0  0  0  0  0  0  0  0
   63.6580   32.7010   47.0230 C   0  0  0  0  0  0  0  0  0  0  0  0
   62.8500   31.4880   47.5020 C   0  0  0  0  0  0  0  0  0  0  0  0
   61.5670   31.9060   48.1750 C   0  0  0  0  0  0  0  0  0  0  0  0
   61.5380   32.3480   49.4490 N   0  0  0  0  0  0  0  0  0  0  0  0
   60.2640   32.7100   49.6790 C   0  0  0  0  0  0  0  0  0  0  0  0
   59.7710   33.2550   50.9820 C   0  0  0  0  0  0  0  0  0  0  0  0
   59.5160   32.4620   48.5410 C   0  0  0  0  0  0  0  0  0  0  0  0
   58.0540   32.7820   48.3600 C   0  0  0  0  0  0  0  0  0  0  0  0
   57.8420   33.5300   47.1640 O   0  0  0  0  0  0  0  0  0  0  0  0
   58.7290   34.5110   46.7080 C   0  0  0  0  0  0  0  0  0  0  0  0
   59.0120   34.6290   45.2500 C   0  0  0  0  0  0  0  0  0  0  0  0
   59.2810   35.3060   47.5150 O   0  0  0  0  0  0  0  0  0  0  0  0
   60.3450   31.9740   47.5840 N   0  0  0  0  0  0  0  0  0  0  0  0
   59.9780   31.5880   46.2140 C   0  0  0  0  0  0  0  0  0  0  0  0
   59.5930   30.1310   46.1520 C   0  0  0  0  0  0  0  0  0  0  0  0
   58.9900   29.5070   47.2570 C   0  0  0  0  0  0  0  0  0  0  0  0
   58.6080   28.1640   47.1900 C   0  0  0  0  0  0  0  0  0  0  0  0
   58.8160   27.4230   46.0150 C   0  0  0  0  0  0  0  0  0  0  0  0
   58.3410   26.0210   45.9220 C   0  0  0  0  0  0  0  0  0  0  0  0
   59.3060   24.9970   45.9030 C   0  0  0  0  0  0  0  0  0  0  0  0
   58.9240   23.6550   45.9100 C   0  0  0  0  0  0  0  0  0  0  0  0
   57.5740   23.3150   45.9440 C   0  0  0  0  0  0  0  0  0  0  0  0
   56.5990   24.3130   45.9510 C   0  0  0  0  0  0  0  0  0  0  0  0
   56.9610   25.6730   45.9260 C   0  0  0  0  0  0  0  0  0  0  0  0
   55.8810   26.6880   45.8480 C   0  0  0  0  0  0  0  0  0  0  0  0
   54.6770   26.3450   45.9940 O   0  0  0  0  0  0  0  0  0  0  0  0
   56.1700   28.0160   45.5640 O   0  0  0  0  0  0  0  0  0  0  0  0
   59.4020   28.0520   44.9050 C   0  0  0  0  0  0  0  0  0  0  0  0
   59.7940   29.3910   44.9750 C   0  0  0  0  0  0  0  0  0  0  0  0
   63.6477   33.4403   49.0523 H   0  0  0  0  0  0  0  0  0  0  0  0
   64.5314   34.4791   47.8832 H   0  0  0  0  0  0  0  0  0  0  0  0
   62.7353   34.4541   47.8832 H   0  0  0  0  0  0  0  0  0  0  0  0
   63.2298   33.0580   46.0747 H   0  0  0  0  0  0  0  0  0  0  0  0
   64.7026   32.3793   46.8990 H   0  0  0  0  0  0  0  0  0  0  0  0
   62.6087   30.8551   46.6353 H   0  0  0  0  0  0  0  0  0  0  0  0
   63.4585   30.9367   48.2339 H   0  0  0  0  0  0  0  0  0  0  0  0
   62.3430   32.4170   50.1110 H   0  0  0  0  0  0  0  0  0  0  0  0
   60.2561   32.7187   51.8108 H   0  0  0  0  0  0  0  0  0  0  0  0
   60.0132   34.3260   51.0466 H   0  0  0  0  0  0  0  0  0  0  0  0
   58.6811   33.1210   51.0466 H   0  0  0  0  0  0  0  0  0  0  0  0
   57.4839   31.8430   48.3036 H   0  0  0  0  0  0  0  0  0  0  0  0
   57.7170   33.3846   49.2163 H   0  0  0  0  0  0  0  0  0  0  0  0
   60.0184   35.0486   45.1046 H   0  0  0  0  0  0  0  0  0  0  0  0
   58.9589   33.6338   44.7845 H   0  0  0  0  0  0  0  0  0  0  0  0
   58.2676   35.2917   44.7845 H   0  0  0  0  0  0  0  0  0  0  0  0
   59.1263   32.2003   45.8829 H   0  0  0  0  0  0  0  0  0  0  0  0
   60.8456   31.7513   45.5577 H   0  0  0  0  0  0  0  0  0  0  0  0
   58.8174   30.0789   48.1807 H   0  0  0  0  0  0  0  0  0  0  0  0
   58.1415   27.6844   48.0631 H   0  0  0  0  0  0  0  0  0  0  0  0
   60.3745   25.2577   45.8824 H   0  0  0  0  0  0  0  0  0  0  0  0
   59.6895   22.8653   45.8887 H   0  0  0  0  0  0  0  0  0  0  0  0
   57.2754   22.2565   45.9654 H   0  0  0  0  0  0  0  0  0  0  0  0
   55.5353   24.0338   45.9763 H   0  0  0  0  0  0  0  0  0  0  0  0
   59.5535   27.4865   43.9737 H   0  0  0  0  0  0  0  0  0  0  0  0
   60.2632   29.8691   44.1025 H   0  0  0  0  0  0  0  0  0  0  0  0
  1  2  1  0
  2  3  1  0
  3  4  1  0
  4  5  2  0
  5  6  1  0
  6  7  1  0
  6  8  2  0
  8  9  1  0
  9 10  1  0
 10 11  1  0
 11 12  1  0
 11 13  2  0
  8 14  1  0
 14 15  1  0
 15 16  1  0
 16 17  2  0
 17 18  1  0
 18 19  2  0
 19 20  1  0
 20 21  2  0
 21 22  1  0
 22 23  2  0
 23 24  1  0
 24 25  2  0
 25 26  1  0
 26 27  2  0
 26 28  1  0
 19 29  1  0
 29 30  2  0
 14  4  1  0
 30 16  1  0
 25 20  1  0
  1 31  1  0
  1 32  1  0
  1 33  1  0
  2 34  1  0
  2 35  1  0
  3 36  1  0
  3 37  1  0
  5 38  1  0
  7 39  1  0
  7 40  1  0
  7 41  1  0
  9 42  1  0
  9 43  1  0
 12 44  1  0
 12 45  1  0
 12 46  1  0
 15 47  1  0
 15 48  1  0
 17 49  1  0
 18 50  1  0
 21 51  1  0
 22 52  1  0
 23 53  1  0
 24 54  1  0
 29 55  1  0
 30 56  1  0
M  CHG  2   5   1  28  -1
M  END
>  <UniqueID>  (35) 
34

>  <SMILES>  (35) 
CCCc1[nH+]c(C)c(COC(C)=O)n1Cc1ccc(-c2ccccc2C(=O)[O-])cc1

>  <Energy>  (35) 
87.52033958809125

>  <Genealogy>  (35) 
CCCc1[nH+]c(C)c(COC(C)=O)n1Cc1ccc(-c2ccccc2C(=O)[O-])cc1 (protonated)
CCCc1[nH+]c(C)c(COC(C)=O)n1Cc1ccc(-c2ccccc2C(=O)[O-])cc1 (3D coordinates assigned)
CCCc1[nH+]c(C)c(COC(C)=O)n1Cc1ccc(-c2ccccc2C(=O)[O-])cc1 (optimized conformer: 87.52033958809125 kcal/mol)

>  <smiles>  (35) 
CCCc1nc(C)c(COC(C)=O)n1Cc1ccc(-c2ccccc2C(=O)O)cc1

>  <score_type>  (35) 
oracle

>  <origin>  (35) 
adg

>  <m_score__min__energy>  (35) 
-10.85

>  <m_primary>  (35) 
energy

$$$$
35:0
     RDKit          3D

 40 42  0  0  0  0  0  0  0  0999 V2000
   56.2460   30.3360   44.8310 O   0  0  0  0  0  0  0  0  0  0  0  0
   57.4640   30.6330   44.6850 C   0  0  0  0  0  0  0  0  0  0  0  0
   58.3680   29.6720   44.1220 N   0  0  0  0  0  0  0  0  0  0  0  0
   58.0890   28.2360   44.1120 C   0  0  0  0  0  0  0  0  0  0  0  0
   57.6150   27.7680   45.5060 C   0  0  2  0  0  0  0  0  0  0  0  0
   58.7090   27.8080   46.5620 C   0  0  0  0  0  0  0  0  0  0  0  0
   59.5950   26.7280   46.7670 C   0  0  0  0  0  0  0  0  0  0  0  0
   60.5620   26.7860   47.7740 C   0  0  0  0  0  0  0  0  0  0  0  0
   60.6510   27.9100   48.5980 C   0  0  0  0  0  0  0  0  0  0  0  0
   59.7700   28.9770   48.4190 C   0  0  0  0  0  0  0  0  0  0  0  0
   58.8000   28.9250   47.4120 C   0  0  0  0  0  0  0  0  0  0  0  0
   56.9750   26.3930   45.4550 C   0  0  0  0  0  0  0  0  0  0  0  0
   55.9420   26.0260   46.3330 C   0  0  0  0  0  0  0  0  0  0  0  0
   55.4070   24.7800   46.2720 N   0  0  0  0  0  0  0  0  0  0  0  0
   55.8530   23.8710   45.3690 C   0  0  0  0  0  0  0  0  0  0  0  0
   56.8520   24.1990   44.5090 N   0  0  0  0  0  0  0  0  0  0  0  0
   57.4170   25.4340   44.5330 C   0  0  0  0  0  0  0  0  0  0  0  0
   57.9320   31.9830   45.0730 C   0  0  0  0  0  0  0  0  0  0  0  0
   58.1260   32.2890   46.4320 C   0  0  0  0  0  0  0  0  0  0  0  0
   58.5710   33.5560   46.8180 C   0  0  0  0  0  0  0  0  0  0  0  0
   58.8390   34.5290   45.8520 C   0  0  0  0  0  0  0  0  0  0  0  0
   58.6680   34.2330   44.4980 C   0  0  0  0  0  0  0  0  0  0  0  0
   58.2200   32.9660   44.1030 C   0  0  0  0  0  0  0  0  0  0  0  0
   58.1180   32.6960   42.7770 F   0  0  0  0  0  0  0  0  0  0  0  0
   59.2620   30.0020   43.6930 H   0  0  0  0  0  0  0  0  0  0  0  0
   57.3026   28.0250   43.3724 H   0  0  0  0  0  0  0  0  0  0  0  0
   59.0107   27.6960   43.8494 H   0  0  0  0  0  0  0  0  0  0  0  0
   56.8507   28.4976   45.8116 H   0  0  0  0  0  0  0  0  0  0  0  0
   59.5235   25.8345   46.1294 H   0  0  0  0  0  0  0  0  0  0  0  0
   61.2550   25.9440   47.9181 H   0  0  0  0  0  0  0  0  0  0  0  0
   61.4154   27.9541   49.3878 H   0  0  0  0  0  0  0  0  0  0  0  0
   59.8381   29.8606   49.0707 H   0  0  0  0  0  0  0  0  0  0  0  0
   58.1020   29.7655   47.2838 H   0  0  0  0  0  0  0  0  0  0  0  0
   55.5659   26.7495   47.0713 H   0  0  0  0  0  0  0  0  0  0  0  0
   55.4050   22.8670   45.3332 H   0  0  0  0  0  0  0  0  0  0  0  0
   58.2234   25.6822   43.8272 H   0  0  0  0  0  0  0  0  0  0  0  0
   57.9258   31.5246   47.1973 H   0  0  0  0  0  0  0  0  0  0  0  0
   58.7105   33.7877   47.8842 H   0  0  0  0  0  0  0  0  0  0  0  0
   59.1845   35.5276   46.1577 H   0  0  0  0  0  0  0  0  0  0  0  0
   58.8861   34.9981   43.7384 H   0  0  0  0  0  0  0  0  0  0  0  0
  1  2  2  0
  2  3  1  0
  3  4  1  0
  4  5  1  0
  5  6  1  0
  6  7  2  0
  7  8  1  0
  8  9  2  0
  9 10  1  0
 10 11  2  0
  5 12  1  0
 12 13  2  0
 13 14  1  0
 14 15  2  0
 15 16  1  0
 16 17  2  0
  2 18  1  0
 18 19  2  0
 19 20  1  0
 20 21  2  0
 21 22  1  0
 22 23  2  0
 23 24  1  0
 11  6  1  0
 17 12  1  0
 23 18  1  0
  3 25  1  0
  4 26  1  0
  4 27  1  0
  5 28  1  1
  7 29  1  0
  8 30  1  0
  9 31  1  0
 10 32  1  0
 11 33  1  0
 13 34  1  0
 15 35  1  0
 17 36  1  0
 19 37  1  0
 20 38  1  0
 21 39  1  0
 22 40  1  0
M  END
>  <UniqueID>  (36) 
35

>  <SMILES>  (36) 
O=C(NC[C@H](c1ccccc1)c1cncnc1)c1ccccc1F

>  <Energy>  (36) 
46.68917486901303

>  <Genealogy>  (36) 
O=C(NC[C@H](c1ccccc1)c1cncnc1)c1ccccc1F (chirality)
O=C(NC[C@H](c1ccccc1)c1cncnc1)c1ccccc1F (3D coordinates assigned)
O=C(NC[C@H](c1ccccc1)c1cncnc1)c1ccccc1F (optimized conformer: 46.68917486901303 kcal/mol)

>  <smiles>  (36) 
O=C(NCC(c1ccccc1)c1cncnc1)c1ccccc1F

>  <score_type>  (36) 
oracle

>  <origin>  (36) 
adg

>  <m_score__min__energy>  (36) 
-7.6399999999999997

>  <m_primary>  (36) 
energy

$$$$
36:0
     RDKit          3D

 37 40  0  0  0  0  0  0  0  0999 V2000
   59.6450   35.7080   45.9700 C   0  0  0  0  0  0  0  0  0  0  0  0
   59.6380   34.2130   46.1040 C   0  0  0  0  0  0  0  0  0  0  0  0
   58.7740   33.4150   45.3320 C   0  0  0  0  0  0  0  0  0  0  0  0
   58.7940   32.0040   45.4420 C   0  0  0  0  0  0  0  0  0  0  0  0
   57.8190   31.2100   44.6560 C   0  0  0  0  0  0  0  0  0  0  0  0
   57.5610   31.5350   43.3130 C   0  0  0  0  0  0  0  0  0  0  0  0
   56.6430   30.7860   42.5700 C   0  0  0  0  0  0  0  0  0  0  0  0
   55.9720   29.7120   43.1620 C   0  0  0  0  0  0  0  0  0  0  0  0
   56.2140   29.3900   44.5000 C   0  0  0  0  0  0  0  0  0  0  0  0
   57.1300   30.1370   45.2480 C   0  0  0  0  0  0  0  0  0  0  0  0
   59.7270   31.3960   46.3260 C   0  0  0  0  0  0  0  0  0  0  0  0
   59.8640   29.9250   46.4480 C   0  0  0  0  0  0  0  0  0  0  0  0
   60.3800   29.1660   45.3840 C   0  0  0  0  0  0  0  0  0  0  0  0
   60.5000   27.7780   45.5030 C   0  0  0  0  0  0  0  0  0  0  0  0
   60.1130   27.1410   46.6840 C   0  0  0  0  0  0  0  0  0  0  0  0
   59.6080   27.8900   47.7500 C   0  0  0  0  0  0  0  0  0  0  0  0
   59.4850   29.2780   47.6350 C   0  0  0  0  0  0  0  0  0  0  0  0
   60.5410   32.2190   47.0450 N   0  0  0  0  0  0  0  0  0  0  0  0
   61.4900   31.8670   47.8920 N   0  0  0  0  0  0  0  0  0  0  0  0
   62.0290   33.0340   48.3100 C   0  0  0  0  0  0  0  0  0  0  0  0
   63.4610   33.1360   49.5630 Br  0  0  0  0  0  0  0  0  0  0  0  0
   61.4540   34.1250   47.7440 N   0  0  0  0  0  0  0  0  0  0  0  0
   60.5250   33.5550   46.9550 C   0  0  0  0  0  0  0  0  0  0  0  0
   59.6471   36.1658   46.9702 H   0  0  0  0  0  0  0  0  0  0  0  0
   60.5446   36.0227   45.4208 H   0  0  0  0  0  0  0  0  0  0  0  0
   58.7484   36.0311   45.4208 H   0  0  0  0  0  0  0  0  0  0  0  0
   58.0729   33.8944   44.6330 H   0  0  0  0  0  0  0  0  0  0  0  0
   58.0834   32.3821   42.8444 H   0  0  0  0  0  0  0  0  0  0  0  0
   56.4486   31.0424   41.5181 H   0  0  0  0  0  0  0  0  0  0  0  0
   55.2539   29.1207   42.5749 H   0  0  0  0  0  0  0  0  0  0  0  0
   55.6829   28.5470   44.9662 H   0  0  0  0  0  0  0  0  0  0  0  0
   57.3119   29.8841   46.3030 H   0  0  0  0  0  0  0  0  0  0  0  0
   60.6906   29.6654   44.4544 H   0  0  0  0  0  0  0  0  0  0  0  0
   60.8996   27.1872   44.6656 H   0  0  0  0  0  0  0  0  0  0  0  0
   60.2058   26.0487   46.7751 H   0  0  0  0  0  0  0  0  0  0  0  0
   59.3069   27.3871   48.6808 H   0  0  0  0  0  0  0  0  0  0  0  0
   59.0900   29.8650   48.4773 H   0  0  0  0  0  0  0  0  0  0  0  0
  1  2  1  0
  2  3  2  0
  3  4  1  0
  4  5  1  0
  5  6  2  0
  6  7  1  0
  7  8  2  0
  8  9  1  0
  9 10  2  0
  4 11  2  0
 11 12  1  0
 12 13  2  0
 13 14  1  0
 14 15  2  0
 15 16  1  0
 16 17  2  0
 11 18  1  0
 18 19  1  0
 19 20  2  0
 20 21  1  0
 20 22  1  0
 22 23  2  0
 23  2  1  0
 10  5  1  0
 17 12  1  0
 23 18  1  0
  1 24  1  0
  1 25  1  0
  1 26  1  0
  3 27  1  0
  6 28  1  0
  7 29  1  0
  8 30  1  0
  9 31  1  0
 10 32  1  0
 13 33  1  0
 14 34  1  0
 15 35  1  0
 16 36  1  0
 17 37  1  0
M  END
>  <UniqueID>  (37) 
36

>  <SMILES>  (37) 
Cc1cc(-c2ccccc2)c(-c2ccccc2)n2nc(Br)nc12

>  <Energy>  (37) 
91.38022561359142

>  <Genealogy>  (37) 
Cc1cc(-c2ccccc2)c(-c2ccccc2)n2nc(Br)nc12 (3D coordinates assigned)
Cc1cc(-c2ccccc2)c(-c2ccccc2)n2nc(Br)nc12 (optimized conformer: 91.38022561359142 kcal/mol)

>  <smiles>  (37) 
Cc1cc(-c2ccccc2)c(-c2ccccc2)n2nc(Br)nc12

>  <score_type>  (37) 
oracle

>  <origin>  (37) 
adg

>  <m_score__min__energy>  (37) 
-8.2599999999999998

>  <m_primary>  (37) 
energy

$$$$
37:0
     RDKit          3D

 53 55  0  0  0  0  0  0  0  0999 V2000
   58.5820   32.3460   49.1370 C   0  0  0  0  0  0  0  0  0  0  0  0
   58.7190   33.4600   48.2650 O   0  0  0  0  0  0  0  0  0  0  0  0
   58.4970   33.4280   46.8770 C   0  0  0  0  0  0  0  0  0  0  0  0
   57.3930   32.7560   46.3200 C   0  0  0  0  0  0  0  0  0  0  0  0
   57.2020   32.7380   44.9330 C   0  0  0  0  0  0  0  0  0  0  0  0
   58.1040   33.3940   44.0920 C   0  0  0  0  0  0  0  0  0  0  0  0
   59.2020   34.0670   44.6320 C   0  0  0  0  0  0  0  0  0  0  0  0
   59.4070   34.0910   46.0250 C   0  0  0  0  0  0  0  0  0  0  0  0
   60.6020   34.8160   46.5910 C   0  0  0  0  0  0  0  0  0  0  0  0
   61.4950   33.8800   47.3010 N   0  0  0  0  0  0  0  0  0  0  0  0
   61.5720   34.2040   48.7430 C   0  0  0  0  0  0  0  0  0  0  0  0
   62.4360   33.1650   49.5040 C   0  0  0  0  0  0  0  0  0  0  0  0
   63.2450   32.3130   48.5950 N   0  0  0  0  0  0  0  0  0  0  0  0
   62.4870   31.2130   48.0060 C   0  0  0  0  0  0  0  0  0  0  0  0
   62.6610   30.8860   46.8380 O   0  0  0  0  0  0  0  0  0  0  0  0
   61.3980   30.5180   48.7780 C   0  0  0  0  0  0  0  0  0  0  0  0
   60.9770   29.3650   48.0550 O   0  0  0  0  0  0  0  0  0  0  0  0
   60.0280   29.3800   47.0240 C   0  0  0  0  0  0  0  0  0  0  0  0
   60.4790   29.3230   45.6990 C   0  0  0  0  0  0  0  0  0  0  0  0
   59.5700   29.3160   44.6390 C   0  0  0  0  0  0  0  0  0  0  0  0
   58.1900   29.3750   44.8880 C   0  0  0  0  0  0  0  0  0  0  0  0
   57.2200   29.4060   43.7440 C   0  0  0  0  0  0  0  0  0  0  0  0
   57.7350   29.4590   46.2120 C   0  0  0  0  0  0  0  0  0  0  0  0
   58.6450   29.4610   47.2720 C   0  0  0  0  0  0  0  0  0  0  0  0
   63.8820   33.1660   47.5700 C   0  0  0  0  0  0  0  0  0  0  0  0
   62.8410   33.9000   46.6950 C   0  0  0  0  0  0  0  0  0  0  0  0
   58.6243   32.6901   50.1809 H   0  0  0  0  0  0  0  0  0  0  0  0
   57.6164   31.8525   48.9525 H   0  0  0  0  0  0  0  0  0  0  0  0
   59.3993   31.6332   48.9525 H   0  0  0  0  0  0  0  0  0  0  0  0
   56.6764   32.2422   46.9777 H   0  0  0  0  0  0  0  0  0  0  0  0
   56.3397   32.2061   44.5047 H   0  0  0  0  0  0  0  0  0  0  0  0
   57.9492   33.3805   43.0030 H   0  0  0  0  0  0  0  0  0  0  0  0
   59.9104   34.5811   43.9658 H   0  0  0  0  0  0  0  0  0  0  0  0
   61.1577   35.2915   45.7694 H   0  0  0  0  0  0  0  0  0  0  0  0
   60.2485   35.5754   47.3040 H   0  0  0  0  0  0  0  0  0  0  0  0
   62.0203   35.2012   48.8636 H   0  0  0  0  0  0  0  0  0  0  0  0
   60.5543   34.1843   49.1601 H   0  0  0  0  0  0  0  0  0  0  0  0
   63.1168   33.7022   50.1808 H   0  0  0  0  0  0  0  0  0  0  0  0
   61.7506   32.5041   50.0549 H   0  0  0  0  0  0  0  0  0  0  0  0
   64.0100   31.8810   49.1680 H   0  0  0  0  0  0  0  0  0  0  0  0
   61.7810   30.2151   49.7637 H   0  0  0  0  0  0  0  0  0  0  0  0
   60.5467   31.2011   48.9144 H   0  0  0  0  0  0  0  0  0  0  0  0
   61.5586   29.2834   45.4917 H   0  0  0  0  0  0  0  0  0  0  0  0
   59.9374   29.2640   43.6035 H   0  0  0  0  0  0  0  0  0  0  0  0
   56.1925   29.4388   44.1353 H   0  0  0  0  0  0  0  0  0  0  0  0
   57.4068   30.2986   43.1289 H   0  0  0  0  0  0  0  0  0  0  0  0
   57.3495   28.5033   43.1289 H   0  0  0  0  0  0  0  0  0  0  0  0
   56.6562   29.5236   46.4168 H   0  0  0  0  0  0  0  0  0  0  0  0
   58.2783   29.5263   48.3070 H   0  0  0  0  0  0  0  0  0  0  0  0
   64.5128   33.9137   48.0730 H   0  0  0  0  0  0  0  0  0  0  0  0
   64.4792   32.5168   46.9128 H   0  0  0  0  0  0  0  0  0  0  0  0
   63.1578   34.9458   46.5685 H   0  0  0  0  0  0  0  0  0  0  0  0
   62.7850   33.3808   45.7269 H   0  0  0  0  0  0  0  0  0  0  0  0
  1  2  1  0
  2  3  1  0
  3  4  2  0
  4  5  1  0
  5  6  2  0
  6  7  1  0
  7  8  2  0
  8  9  1  0
  9 10  1  0
 10 11  1  0
 11 12  1  0
 12 13  1  0
 13 14  1  0
 14 15  2  0
 14 16  1  0
 16 17  1  0
 17 18  1  0
 18 19  2  0
 19 20  1  0
 20 21  2  0
 21 22  1  0
 21 23  1  0
 23 24  2  0
 13 25  1  0
 25 26  1  0
  8  3  1  0
 26 10  1  0
 24 18  1  0
  1 27  1  0
  1 28  1  0
  1 29  1  0
  4 30  1  0
  5 31  1  0
  6 32  1  0
  7 33  1  0
  9 34  1  0
  9 35  1  0
 11 36  1  0
 11 37  1  0
 12 38  1  0
 12 39  1  0
 13 40  1  0
 16 41  1  0
 16 42  1  0
 19 43  1  0
 20 44  1  0
 22 45  1  0
 22 46  1  0
 22 47  1  0
 23 48  1  0
 24 49  1  0
 25 50  1  0
 25 51  1  0
 26 52  1  0
 26 53  1  0
M  CHG  1  13   1
M  END
>  <UniqueID>  (38) 
37

>  <SMILES>  (38) 
COc1ccccc1CN1CC[NH+](C(=O)COc2ccc(C)cc2)CC1

>  <Energy>  (38) 
65.97116078126881

>  <Genealogy>  (38) 
COc1ccccc1CN1CC[NH+](C(=O)COc2ccc(C)cc2)CC1 (protonated)
COc1ccccc1CN1CC[NH+](C(=O)COc2ccc(C)cc2)CC1 (3D coordinates assigned)
COc1ccccc1CN1CC[NH+](C(=O)COc2ccc(C)cc2)CC1 (nonaromatic ring conformer: 65.97116078126881 kcal/mol)

>  <smiles>  (38) 
COc1ccccc1CN1CCN(C(=O)COc2ccc(C)cc2)CC1

>  <score_type>  (38) 
oracle

>  <origin>  (38) 
adg

>  <m_score__min__energy>  (38) 
-6.4800000000000004

>  <m_primary>  (38) 
energy

$$$$
38:0
     RDKit          3D

 46 48  0  0  0  0  0  0  0  0999 V2000
   60.7139   35.1735   46.8777 H   0  0  0  0  0  0  0  0  0  0  0  0
   60.6680   34.2710   47.5050 C   0  0  0  0  0  0  0  0  0  0  0  0
   59.4980   33.6240   47.5910 C   0  0  0  0  0  0  0  0  0  0  0  0
   58.9631   33.6087   48.5521 H   0  0  0  0  0  0  0  0  0  0  0  0
   58.9060   32.9280   46.4230 C   0  0  0  0  0  0  0  0  0  0  0  0
   58.2950   33.7260   45.4520 C   0  0  0  0  0  0  0  0  0  0  0  0
   58.2764   34.8195   45.5701 H   0  0  0  0  0  0  0  0  0  0  0  0
   57.7130   33.1390   44.3410 C   0  0  0  0  0  0  0  0  0  0  0  0
   57.3033   33.7679   43.5369 H   0  0  0  0  0  0  0  0  0  0  0  0
   57.6470   31.7500   44.2430 C   0  0  0  0  0  0  0  0  0  0  0  0
   57.0200   31.1650   43.1350 C   0  0  0  0  0  0  0  0  0  0  0  0
   56.6178   31.8023   42.3337 H   0  0  0  0  0  0  0  0  0  0  0  0
   56.9040   29.7830   43.0440 C   0  0  0  0  0  0  0  0  0  0  0  0
   56.4628   29.3259   42.1460 H   0  0  0  0  0  0  0  0  0  0  0  0
   57.3460   28.9780   44.0890 C   0  0  0  0  0  0  0  0  0  0  0  0
   57.2224   27.8871   44.0206 H   0  0  0  0  0  0  0  0  0  0  0  0
   57.9480   29.5350   45.2310 C   0  0  0  0  0  0  0  0  0  0  0  0
   58.1370   28.6160   46.4130 C   0  0  0  0  0  0  0  0  0  0  0  0
   58.0193   29.1884   47.3450 H   0  0  0  0  0  0  0  0  0  0  0  0
   57.3850   27.8140   46.3778 H   0  0  0  0  0  0  0  0  0  0  0  0
   59.1445   28.1758   46.3778 H   0  0  0  0  0  0  0  0  0  0  0  0
   58.2140   30.9440   45.2690 C   0  0  0  0  0  0  0  0  0  0  0  0
   58.9780   31.5590   46.2520 N   0  0  0  0  0  0  0  0  0  0  0  0
   60.0490   30.8210   46.9520 C   0  0  0  0  0  0  0  0  0  0  0  0
   59.9101   30.9167   48.0390 H   0  0  0  0  0  0  0  0  0  0  0  0
   60.0076   29.7588   46.6692 H   0  0  0  0  0  0  0  0  0  0  0  0
   61.0268   31.2379   46.6692 H   0  0  0  0  0  0  0  0  0  0  0  0
   61.9060   33.8450   48.2040 C   0  0  0  0  0  0  0  0  0  0  0  0
   62.9410   33.1430   47.5590 C   0  0  0  0  0  0  0  0  0  0  0  0
   62.8445   32.8843   46.4942 H   0  0  0  0  0  0  0  0  0  0  0  0
   64.0910   32.7720   48.2620 C   0  0  0  0  0  0  0  0  0  0  0  0
   64.8876   32.2180   47.7438 H   0  0  0  0  0  0  0  0  0  0  0  0
   64.2450   33.0970   49.6240 C   0  0  0  0  0  0  0  0  0  0  0  0
   65.4410   32.7100   50.3530 N   0  0  0  0  0  0  0  0  0  0  0  0
   65.7150   31.2960   50.6380 C   0  0  0  0  0  0  0  0  0  0  0  0
   65.7451   31.1405   51.7265 H   0  0  0  0  0  0  0  0  0  0  0  0
   64.9208   30.6732   50.2005 H   0  0  0  0  0  0  0  0  0  0  0  0
   66.6843   31.0149   50.2005 H   0  0  0  0  0  0  0  0  0  0  0  0
   66.3950   33.7250   50.8150 C   0  0  0  0  0  0  0  0  0  0  0  0
   66.4097   33.7407   51.9148 H   0  0  0  0  0  0  0  0  0  0  0  0
   67.3996   33.4824   50.4382 H   0  0  0  0  0  0  0  0  0  0  0  0
   66.0907   34.7127   50.4382 H   0  0  0  0  0  0  0  0  0  0  0  0
   63.2110   33.8130   50.2580 C   0  0  0  0  0  0  0  0  0  0  0  0
   63.3091   34.0828   51.3199 H   0  0  0  0  0  0  0  0  0  0  0  0
   62.0620   34.1850   49.5550 C   0  0  0  0  0  0  0  0  0  0  0  0
   61.2706   34.7513   50.0678 H   0  0  0  0  0  0  0  0  0  0  0  0
  1  2  1  0
  2  3  2  0
  3  4  1  0
  3  5  1  0
  5  6  2  0
  6  7  1  0
  6  8  1  0
  8  9  1  0
  8 10  2  0
 10 11  1  0
 11 12  1  0
 11 13  2  0
 13 14  1  0
 13 15  1  0
 15 16  1  0
 15 17  2  0
 17 18  1  0
 18 19  1  0
 18 20  1  0
 18 21  1  0
 17 22  1  0
 22 23  2  0
 23 24  1  0
 24 25  1  0
 24 26  1  0
 24 27  1  0
  2 28  1  0
 28 29  2  0
 29 30  1  0
 29 31  1  0
 31 32  1  0
 31 33  2  0
 33 34  1  0
 34 35  1  0
 35 36  1  0
 35 37  1  0
 35 38  1  0
 34 39  1  0
 39 40  1  0
 39 41  1  0
 39 42  1  0
 33 43  1  0
 43 44  1  0
 43 45  2  0
 45 46  1  0
 23  5  1  0
 45 28  1  0
 22 10  1  0
M  CHG  1  23   1
M  END
>  <UniqueID>  (39) 
38

>  <SMILES>  (39) 
Cc1cccc2ccc(/C=C/c3ccc(N(C)C)cc3)[n+](C)c12

>  <Energy>  (39) 
78.4428421702706

>  <Genealogy>  (39) 
Cc1cccc2ccc(/C=C/c3ccc(N(C)C)cc3)[n+](C)c12 (cis-trans isomerization)
Cc1cccc2ccc(/C=C/c3ccc(N(C)C)cc3)[n+](C)c12 (3D coordinates assigned)
Cc1cccc2ccc(/C=C/c3ccc(N(C)C)cc3)[n+](C)c12 (optimized conformer: 78.4428421702706 kcal/mol)

>  <smiles>  (39) 
Cc1cccc2ccc(C=Cc3ccc(N(C)C)cc3)[n+](C)c12

>  <score_type>  (39) 
oracle

>  <origin>  (39) 
adg

>  <m_score__min__energy>  (39) 
-6.5800000000000001

>  <m_primary>  (39) 
energy

$$$$
39:0
     RDKit          3D

 31 31  0  0  0  0  0  0  0  0999 V2000
   64.1050   33.4640   48.8990 C   0  0  0  0  0  0  0  0  0  0  0  0
   63.0000   33.2550   47.9160 C   0  0  0  0  0  0  0  0  0  0  0  0
   63.2490   32.6990   46.8120 O   0  0  0  0  0  0  0  0  0  0  0  0
   61.6530   33.6050   48.2670 N   0  0  0  0  0  0  0  0  0  0  0  0
   60.5540   33.5490   47.3440 C   0  0  0  0  0  0  0  0  0  0  0  0
   59.9710   34.7440   46.9010 C   0  0  0  0  0  0  0  0  0  0  0  0
   58.9040   34.7190   46.0020 C   0  0  0  0  0  0  0  0  0  0  0  0
   58.4170   33.5010   45.5250 C   0  0  0  0  0  0  0  0  0  0  0  0
   59.0090   32.2950   45.9310 C   0  0  0  0  0  0  0  0  0  0  0  0
   58.4840   30.9810   45.4100 C   0  0  0  0  0  0  0  0  0  0  0  0
   57.0230   31.0250   45.2750 N   0  0  0  0  0  0  0  0  0  0  0  0
   56.6130   30.8730   43.8710 C   0  0  0  0  0  0  0  0  0  0  0  0
   55.5250   29.8060   43.7520 C   0  0  0  0  0  0  0  0  0  0  0  0
   55.1650   29.3220   45.0170 O   0  0  0  0  0  0  0  0  0  0  0  0
   60.0840   32.3220   46.8380 C   0  0  0  0  0  0  0  0  0  0  0  0
   60.6950   31.1600   47.1880 F   0  0  0  0  0  0  0  0  0  0  0  0
   63.7056   33.3885   49.9211 H   0  0  0  0  0  0  0  0  0  0  0  0
   64.8785   32.6962   48.7499 H   0  0  0  0  0  0  0  0  0  0  0  0
   64.5447   34.4612   48.7499 H   0  0  0  0  0  0  0  0  0  0  0  0
   61.4400   33.7750   49.2770 H   0  0  0  0  0  0  0  0  0  0  0  0
   60.3570   35.7079   47.2643 H   0  0  0  0  0  0  0  0  0  0  0  0
   58.4455   35.6616   45.6684 H   0  0  0  0  0  0  0  0  0  0  0  0
   57.5660   33.4863   44.8282 H   0  0  0  0  0  0  0  0  0  0  0  0
   58.9319   30.7774   44.4262 H   0  0  0  0  0  0  0  0  0  0  0  0
   58.7504   30.1856   46.1216 H   0  0  0  0  0  0  0  0  0  0  0  0
   56.6310   30.2130   45.8090 H   0  0  0  0  0  0  0  0  0  0  0  0
   56.2232   31.8325   43.5003 H   0  0  0  0  0  0  0  0  0  0  0  0
   57.4841   30.5659   43.2737 H   0  0  0  0  0  0  0  0  0  0  0  0
   54.6401   30.2451   43.2682 H   0  0  0  0  0  0  0  0  0  0  0  0
   55.9135   28.9705   43.1512 H   0  0  0  0  0  0  0  0  0  0  0  0
   55.1420   30.1080   45.6260 H   0  0  0  0  0  0  0  0  0  0  0  0
  1  2  1  0
  2  3  2  0
  2  4  1  0
  4  5  1  0
  5  6  2  0
  6  7  1  0
  7  8  2  0
  8  9  1  0
  9 10  1  0
 10 11  1  0
 11 12  1  0
 12 13  1  0
 13 14  1  0
  9 15  2  0
 15 16  1  0
 15  5  1  0
  1 17  1  0
  1 18  1  0
  1 19  1  0
  4 20  1  0
  6 21  1  0
  7 22  1  0
  8 23  1  0
 10 24  1  0
 10 25  1  0
 11 26  1  0
 12 27  1  0
 12 28  1  0
 13 29  1  0
 13 30  1  0
 14 31  1  0
M  END
>  <UniqueID>  (40) 
39

>  <SMILES>  (40) 
CC(=O)Nc1cccc(CNCCO)c1F

>  <Energy>  (40) 
28.023095820898586

>  <Genealogy>  (40) 
CC(=O)Nc1cccc(CNCCO)c1F (3D coordinates assigned)
CC(=O)Nc1cccc(CNCCO)c1F (optimized conformer: 28.023095820898586 kcal/mol)

>  <smiles>  (40) 
CC(=O)Nc1cccc(CNCCO)c1F

>  <score_type>  (40) 
oracle

>  <origin>  (40) 
adg

>  <m_score__min__energy>  (40) 
-6.4699999999999998

>  <m_primary>  (40) 
energy

$$$$
40:0
     RDKit          3D

 14 14  0  0  0  0  0  0  0  0999 V2000
   57.4020   33.9840   45.0760 C   0  0  0  0  0  0  0  0  0  0  0  0
   57.7930   32.5560   45.4340 C   0  0  0  0  0  0  0  0  0  0  0  0
   57.1810   31.6170   44.4990 N   0  0  0  0  0  0  0  0  0  0  0  0
   56.3820   30.6500   44.8210 O   0  0  0  0  0  0  0  0  0  0  0  0
   56.0860   29.9650   43.7380 C   0  0  0  0  0  0  0  0  0  0  0  0
   56.7100   30.4650   42.6450 N   0  0  0  0  0  0  0  0  0  0  0  0
   57.3910   31.4970   43.1780 C   0  0  0  0  0  0  0  0  0  0  0  0
   58.1430   32.2550   42.5090 O   0  0  0  0  0  0  0  0  0  0  0  0
   57.2435   34.5628   45.9979 H   0  0  0  0  0  0  0  0  0  0  0  0
   58.2063   34.4474   44.4858 H   0  0  0  0  0  0  0  0  0  0  0  0
   56.4738   33.9730   44.4858 H   0  0  0  0  0  0  0  0  0  0  0  0
   58.8874   32.4558   45.3857 H   0  0  0  0  0  0  0  0  0  0  0  0
   57.4402   32.3313   46.4514 H   0  0  0  0  0  0  0  0  0  0  0  0
   55.4147   29.0938   43.7220 H   0  0  0  0  0  0  0  0  0  0  0  0
  1  2  1  0
  2  3  1  0
  3  4  1  0
  4  5  1  0
  5  6  2  0
  6  7  1  0
  7  8  2  0
  7  3  1  0
  1  9  1  0
  1 10  1  0
  1 11  1  0
  2 12  1  0
  2 13  1  0
  5 14  1  0
M  END
>  <UniqueID>  (41) 
40

>  <SMILES>  (41) 
CCn1ocnc1=O

>  <Energy>  (41) 
44.24623173467834

>  <Genealogy>  (41) 
CCn1ocnc1=O (3D coordinates assigned)
CCn1ocnc1=O (optimized conformer: 44.24623173467834 kcal/mol)

>  <smiles>  (41) 
CCn1ocnc1=O

>  <score_type>  (41) 
oracle

>  <origin>  (41) 
adg

>  <m_score__min__energy>  (41) 
-4.0099999999999998

>  <m_primary>  (41) 
energy

$$$$
41:0
     RDKit          3D

 47 49  0  0  0  0  0  0  0  0999 V2000
   57.8990   31.7690   43.2940 O   0  0  0  0  0  0  0  0  0  0  0  0
   57.3890   31.3720   44.6510 S   0  0  0  0  0  0  0  0  0  0  0  0
   55.8940   31.2180   44.5750 O   0  0  0  0  0  0  0  0  0  0  0  0
   58.1290   29.8370   45.1000 C   0  0  0  0  0  0  0  0  0  0  0  0
   59.5060   29.6510   44.9230 C   0  0  0  0  0  0  0  0  0  0  0  0
   60.1030   28.4390   45.2830 C   0  0  0  0  0  0  0  0  0  0  0  0
   59.3290   27.4120   45.8310 C   0  0  0  0  0  0  0  0  0  0  0  0
   60.0750   25.8930   46.2890 Cl  0  0  0  0  0  0  0  0  0  0  0  0
   57.9540   27.5950   46.0170 C   0  0  0  0  0  0  0  0  0  0  0  0
   57.3550   28.8050   45.6530 C   0  0  0  0  0  0  0  0  0  0  0  0
   57.8010   32.6010   45.8230 N   0  0  0  0  0  0  0  0  0  0  0  0
   58.6960   33.6230   45.2340 C   0  0  0  0  0  0  0  0  0  0  0  0
   60.1690   33.4410   45.6250 C   0  0  0  0  0  0  0  0  0  0  0  0
   60.3040   33.4190   47.0900 N   0  0  0  0  0  0  0  0  0  0  0  0
   61.5100   33.8880   47.7390 C   0  0  0  0  0  0  0  0  0  0  0  0
   62.8860   34.1820   46.8890 S   0  0  0  0  0  0  0  0  0  0  0  0
   61.5370   34.2330   49.5030 S   0  0  0  0  0  0  0  0  0  0  0  0
   62.8720   33.0340   49.8580 C   0  0  0  0  0  0  0  0  0  0  0  0
   62.7880   31.8320   48.9170 C   0  0  0  0  0  0  0  0  0  0  0  0
   61.5500   31.0150   49.1830 C   0  0  0  0  0  0  0  0  0  0  0  0
   61.0710   30.1170   48.2160 C   0  0  0  0  0  0  0  0  0  0  0  0
   59.9220   29.4350   48.4490 N   0  0  0  0  0  0  0  0  0  0  0  0
   59.2330   29.5900   49.6080 C   0  0  0  0  0  0  0  0  0  0  0  0
   59.7040   30.4790   50.5740 C   0  0  0  0  0  0  0  0  0  0  0  0
   60.8490   31.1750   50.3420 N   0  0  0  0  0  0  0  0  0  0  0  0
   59.1750   32.9180   47.8910 C   0  0  0  0  0  0  0  0  0  0  0  0
   58.3130   31.9640   47.0560 C   0  0  0  0  0  0  0  0  0  0  0  0
   60.1191   30.4603   44.4998 H   0  0  0  0  0  0  0  0  0  0  0  0
   61.1832   28.2934   45.1348 H   0  0  0  0  0  0  0  0  0  0  0  0
   57.3448   26.7875   46.4493 H   0  0  0  0  0  0  0  0  0  0  0  0
   56.2744   28.9484   45.8005 H   0  0  0  0  0  0  0  0  0  0  0  0
   58.6165   33.5665   44.1383 H   0  0  0  0  0  0  0  0  0  0  0  0
   58.3746   34.6000   45.6242 H   0  0  0  0  0  0  0  0  0  0  0  0
   60.5408   32.4921   45.2110 H   0  0  0  0  0  0  0  0  0  0  0  0
   60.7549   34.2802   45.2219 H   0  0  0  0  0  0  0  0  0  0  0  0
   63.8455   33.5286   49.7249 H   0  0  0  0  0  0  0  0  0  0  0  0
   62.7605   32.6792   50.8932 H   0  0  0  0  0  0  0  0  0  0  0  0
   62.7639   32.1914   47.8776 H   0  0  0  0  0  0  0  0  0  0  0  0
   63.6683   31.1948   49.0876 H   0  0  0  0  0  0  0  0  0  0  0  0
   61.6233   29.9676   47.2765 H   0  0  0  0  0  0  0  0  0  0  0  0
   58.3097   29.0186   49.7842 H   0  0  0  0  0  0  0  0  0  0  0  0
   59.1534   30.6161   51.5164 H   0  0  0  0  0  0  0  0  0  0  0  0
   61.1750   31.8540   51.0670 H   0  0  0  0  0  0  0  0  0  0  0  0
   59.5630   32.3818   48.7696 H   0  0  0  0  0  0  0  0  0  0  0  0
   58.5578   33.7700   48.2122 H   0  0  0  0  0  0  0  0  0  0  0  0
   58.9212   31.0911   46.7765 H   0  0  0  0  0  0  0  0  0  0  0  0
   57.4467   31.6718   47.6676 H   0  0  0  0  0  0  0  0  0  0  0  0
  1  2  2  0
  2  3  2  0
  2  4  1  0
  4  5  2  0
  5  6  1  0
  6  7  2  0
  7  8  1  0
  7  9  1  0
  9 10  2  0
  2 11  1  0
 11 12  1  0
 12 13  1  0
 13 14  1  0
 14 15  1  0
 15 16  2  0
 15 17  1  0
 17 18  1  0
 18 19  1  0
 19 20  1  0
 20 21  2  0
 21 22  1  0
 22 23  2  0
 23 24  1  0
 24 25  2  0
 14 26  1  0
 26 27  1  0
 10  4  1  0
 27 11  1  0
 25 20  1  0
  5 28  1  0
  6 29  1  0
  9 30  1  0
 10 31  1  0
 12 32  1  0
 12 33  1  0
 13 34  1  0
 13 35  1  0
 18 36  1  0
 18 37  1  0
 19 38  1  0
 19 39  1  0
 21 40  1  0
 23 41  1  0
 24 42  1  0
 25 43  1  0
 26 44  1  0
 26 45  1  0
 27 46  1  0
 27 47  1  0
M  CHG  1  25   1
M  END
>  <UniqueID>  (42) 
41

>  <SMILES>  (42) 
O=S(=O)(c1ccc(Cl)cc1)N1CCN(C(=S)SCCc2cncc[nH+]2)CC1

>  <Energy>  (42) 
49.38827268717343

>  <Genealogy>  (42) 
O=S(=O)(c1ccc(Cl)cc1)N1CCN(C(=S)SCCc2cncc[nH+]2)CC1 (protonated)
O=S(=O)(c1ccc(Cl)cc1)N1CCN(C(=S)SCCc2cncc[nH+]2)CC1 (3D coordinates assigned)
O=S(=O)(c1ccc(Cl)cc1)N1CCN(C(=S)SCCc2cncc[nH+]2)CC1 (nonaromatic ring conformer: 49.38827268717343 kcal/mol)

>  <smiles>  (42) 
O=S(=O)(c1ccc(Cl)cc1)N1CCN(C(=S)SCCc2cnccn2)CC1

>  <score_type>  (42) 
oracle

>  <origin>  (42) 
adg

>  <m_score__min__energy>  (42) 
-7.4699999999999998

>  <m_primary>  (42) 
energy

$$$$
42:0
     RDKit          3D

 41 42  0  0  0  0  0  0  0  0999 V2000
   61.5220   30.2450   49.7480 C   0  0  0  0  0  0  0  0  0  0  0  0
   62.3590   31.3180   49.2020 N   0  0  0  0  0  0  0  0  0  0  0  0
   63.1180   32.1860   50.1100 C   0  0  0  0  0  0  0  0  0  0  0  0
   62.3960   31.5160   47.7720 C   0  0  0  0  0  0  0  0  0  0  0  0
   61.5750   30.8960   47.0400 O   0  0  0  0  0  0  0  0  0  0  0  0
   63.3430   32.5000   47.1230 C   0  0  0  0  0  0  0  0  0  0  0  0
   62.6630   33.8260   46.7410 C   0  0  0  0  0  0  0  0  0  0  0  0
   61.2860   34.0230   47.3980 C   0  0  0  0  0  0  0  0  0  0  0  0
   60.1950   33.8350   46.4260 N   0  0  0  0  0  0  0  0  0  0  0  0
   59.7620   32.5890   46.1810 N   0  0  0  0  0  0  0  0  0  0  0  0
   58.7330   32.3350   45.3180 C   0  0  0  0  0  0  0  0  0  0  0  0
   58.2680   30.9440   45.0900 C   0  0  0  0  0  0  0  0  0  0  0  0
   59.0110   29.8560   45.5850 C   0  0  0  0  0  0  0  0  0  0  0  0
   58.5740   28.5450   45.3700 C   0  0  0  0  0  0  0  0  0  0  0  0
   57.3950   28.3060   44.6610 C   0  0  0  0  0  0  0  0  0  0  0  0
   56.6490   29.3770   44.1650 C   0  0  0  0  0  0  0  0  0  0  0  0
   57.0810   30.6910   44.3770 C   0  0  0  0  0  0  0  0  0  0  0  0
   58.1190   33.4070   44.6640 C   0  0  0  0  0  0  0  0  0  0  0  0
   58.5650   34.6990   44.9040 C   0  0  0  0  0  0  0  0  0  0  0  0
   59.6140   34.9060   45.7950 C   0  0  0  0  0  0  0  0  0  0  0  0
   60.0140   36.0830   46.0070 O   0  0  0  0  0  0  0  0  0  0  0  0
   61.5502   30.2812   50.8470 H   0  0  0  0  0  0  0  0  0  0  0  0
   60.4858   30.3768   49.4033 H   0  0  0  0  0  0  0  0  0  0  0  0
   61.9021   29.2720   49.4033 H   0  0  0  0  0  0  0  0  0  0  0  0
   62.8853   31.9198   51.1516 H   0  0  0  0  0  0  0  0  0  0  0  0
   64.1949   32.0532   49.9295 H   0  0  0  0  0  0  0  0  0  0  0  0
   62.8427   33.2356   49.9295 H   0  0  0  0  0  0  0  0  0  0  0  0
   64.1609   32.7154   47.8263 H   0  0  0  0  0  0  0  0  0  0  0  0
   63.7107   32.0392   46.1943 H   0  0  0  0  0  0  0  0  0  0  0  0
   63.3176   34.6543   47.0500 H   0  0  0  0  0  0  0  0  0  0  0  0
   62.5015   33.8043   45.6531 H   0  0  0  0  0  0  0  0  0  0  0  0
   61.1700   33.2923   48.2120 H   0  0  0  0  0  0  0  0  0  0  0  0
   61.2311   35.0510   47.7856 H   0  0  0  0  0  0  0  0  0  0  0  0
   60.2350   31.7840   46.6500 H   0  0  0  0  0  0  0  0  0  0  0  0
   59.9407   30.0378   46.1441 H   0  0  0  0  0  0  0  0  0  0  0  0
   59.1604   27.7002   45.7603 H   0  0  0  0  0  0  0  0  0  0  0  0
   57.0539   27.2738   44.4932 H   0  0  0  0  0  0  0  0  0  0  0  0
   55.7203   29.1876   43.6068 H   0  0  0  0  0  0  0  0  0  0  0  0
   56.4895   31.5311   43.9842 H   0  0  0  0  0  0  0  0  0  0  0  0
   57.2890   33.2279   43.9647 H   0  0  0  0  0  0  0  0  0  0  0  0
   58.0935   35.5522   44.3944 H   0  0  0  0  0  0  0  0  0  0  0  0
  1  2  1  0
  2  3  1  0
  2  4  1  0
  4  5  2  0
  4  6  1  0
  6  7  1  0
  7  8  1  0
  8  9  1  0
  9 10  1  0
 10 11  2  0
 11 12  1  0
 12 13  2  0
 13 14  1  0
 14 15  2  0
 15 16  1  0
 16 17  2  0
 11 18  1  0
 18 19  2  0
 19 20  1  0
 20 21  2  0
 20  9  1  0
 17 12  1  0
  1 22  1  0
  1 23  1  0
  1 24  1  0
  3 25  1  0
  3 26  1  0
  3 27  1  0
  6 28  1  0
  6 29  1  0
  7 30  1  0
  7 31  1  0
  8 32  1  0
  8 33  1  0
 10 34  1  0
 13 35  1  0
 14 36  1  0
 15 37  1  0
 16 38  1  0
 17 39  1  0
 18 40  1  0
 19 41  1  0
M  CHG  1  10   1
M  END
>  <UniqueID>  (43) 
42

>  <SMILES>  (43) 
CN(C)C(=O)CCCn1[nH+]c(-c2ccccc2)ccc1=O

>  <Energy>  (43) 
41.49856403597995

>  <Genealogy>  (43) 
CN(C)C(=O)CCCn1[nH+]c(-c2ccccc2)ccc1=O (protonated)
CN(C)C(=O)CCCn1[nH+]c(-c2ccccc2)ccc1=O (3D coordinates assigned)
CN(C)C(=O)CCCn1[nH+]c(-c2ccccc2)ccc1=O (optimized conformer: 41.49856403597995 kcal/mol)

>  <smiles>  (43) 
CN(C)C(=O)CCCn1nc(-c2ccccc2)ccc1=O

>  <score_type>  (43) 
oracle

>  <origin>  (43) 
adg

>  <m_score__min__energy>  (43) 
-6.3399999999999999

>  <m_primary>  (43) 
energy

$$$$
43:0
     RDKit          3D

 49 53  0  0  0  0  0  0  0  0999 V2000
   56.7509   28.8347   41.9317 H   0  0  0  0  0  0  0  0  0  0  0  0
   56.8690   28.9920   43.0140 C   0  0  0  0  0  0  0  0  0  0  0  0
   57.7400   28.2290   43.6990 C   0  0  0  0  0  0  0  0  0  0  0  0
   58.4350   27.0950   42.9940 C   0  0  0  0  0  0  0  0  0  0  0  0
   58.8581   26.4047   43.7386 H   0  0  0  0  0  0  0  0  0  0  0  0
   57.7116   26.5565   42.3641 H   0  0  0  0  0  0  0  0  0  0  0  0
   59.2432   27.4952   42.3641 H   0  0  0  0  0  0  0  0  0  0  0  0
   58.0740   28.5420   45.0760 N   0  0  0  0  0  0  0  0  0  0  0  0
   58.0170   29.9190   45.5280 C   0  0  0  0  0  0  0  0  0  0  0  0
   58.5280   30.2650   46.6770 N   0  0  0  0  0  0  0  0  0  0  0  0
   58.4600   31.2570   47.0020 H   0  0  0  0  0  0  0  0  0  0  0  0
   59.1790   29.3160   47.5310 C   0  0  0  0  0  0  0  0  0  0  0  0
   59.8530   29.7520   48.6820 C   0  0  0  0  0  0  0  0  0  0  0  0
   59.8841   30.8242   48.9257 H   0  0  0  0  0  0  0  0  0  0  0  0
   60.4850   28.8290   49.5200 C   0  0  0  0  0  0  0  0  0  0  0  0
   61.0148   29.1767   50.4191 H   0  0  0  0  0  0  0  0  0  0  0  0
   60.4450   27.4670   49.2180 C   0  0  0  0  0  0  0  0  0  0  0  0
   60.9447   26.7426   49.8779 H   0  0  0  0  0  0  0  0  0  0  0  0
   59.7700   27.0230   48.0770 C   0  0  0  0  0  0  0  0  0  0  0  0
   59.7294   25.9479   47.8478 H   0  0  0  0  0  0  0  0  0  0  0  0
   59.1440   27.9440   47.2230 C   0  0  0  0  0  0  0  0  0  0  0  0
   58.3700   27.4590   46.0290 C   0  0  0  0  0  0  0  0  0  0  0  0
   58.9609   26.6870   45.5144 H   0  0  0  0  0  0  0  0  0  0  0  0
   57.4115   27.0579   46.3901 H   0  0  0  0  0  0  0  0  0  0  0  0
   57.3420   30.9040   44.6610 C   0  0  0  0  0  0  0  0  0  0  0  0
   57.8170   32.1500   44.4850 C   0  0  0  0  0  0  0  0  0  0  0  0
   57.6275   32.6366   43.5168 H   0  0  0  0  0  0  0  0  0  0  0  0
   58.5730   32.9100   45.4960 C   0  0  0  0  0  0  0  0  0  0  0  0
   57.9430   34.2060   46.3560 S   0  0  0  0  0  0  0  0  0  0  0  0
   59.2780   34.4520   47.3440 C   0  0  0  0  0  0  0  0  0  0  0  0
   59.3770   35.2391   48.1060 H   0  0  0  0  0  0  0  0  0  0  0  0
   60.2410   33.4900   47.0360 C   0  0  0  0  0  0  0  0  0  0  0  0
   61.5460   33.3860   47.7360 C   0  0  0  0  0  0  0  0  0  0  0  0
   62.7370   33.1860   47.0130 C   0  0  0  0  0  0  0  0  0  0  0  0
   62.7023   33.1038   45.9166 H   0  0  0  0  0  0  0  0  0  0  0  0
   63.9640   33.0910   47.6770 C   0  0  0  0  0  0  0  0  0  0  0  0
   64.8887   32.9456   47.0993 H   0  0  0  0  0  0  0  0  0  0  0  0
   64.0220   33.1800   49.0750 C   0  0  0  0  0  0  0  0  0  0  0  0
   65.3440   33.1180   49.7810 C   0  0  0  0  0  0  0  0  0  0  0  0
   65.1796   33.1257   50.8686 H   0  0  0  0  0  0  0  0  0  0  0  0
   65.8689   32.1943   49.4961 H   0  0  0  0  0  0  0  0  0  0  0  0
   65.9530   33.9886   49.4961 H   0  0  0  0  0  0  0  0  0  0  0  0
   62.8420   33.3960   49.7990 C   0  0  0  0  0  0  0  0  0  0  0  0
   62.8820   33.4913   50.8941 H   0  0  0  0  0  0  0  0  0  0  0  0
   61.6150   33.4910   49.1380 C   0  0  0  0  0  0  0  0  0  0  0  0
   60.6942   33.6493   49.7185 H   0  0  0  0  0  0  0  0  0  0  0  0
   59.8350   32.6190   46.0070 C   0  0  0  0  0  0  0  0  0  0  0  0
   60.4558   31.7877   45.6416 H   0  0  0  0  0  0  0  0  0  0  0  0
   55.8950   30.2620   43.8290 S   0  0  0  0  0  0  0  0  0  0  0  0
  1  2  1  0
  2  3  2  0
  3  4  1  0
  4  5  1  0
  4  6  1  0
  4  7  1  0
  3  8  1  0
  8  9  1  0
  9 10  2  0
 10 11  1  0
 10 12  1  0
 12 13  2  0
 13 14  1  0
 13 15  1  0
 15 16  1  0
 15 17  2  0
 17 18  1  0
 17 19  1  0
 19 20  1  0
 19 21  2  0
 21 22  1  0
 22 23  1  0
 22 24  1  0
  9 25  1  0
 25 26  2  0
 26 27  1  0
 26 28  1  0
 28 29  1  0
 29 30  1  0
 30 31  1  0
 30 32  2  0
 32 33  1  0
 33 34  2  0
 34 35  1  0
 34 36  1  0
 36 37  1  0
 36 38  2  0
 38 39  1  0
 39 40  1  0
 39 41  1  0
 39 42  1  0
 38 43  1  0
 43 44  1  0
 43 45  2  0
 45 46  1  0
 32 47  1  0
 47 48  1  0
 25 49  1  0
 49  2  1  0
 22  8  1  0
 47 28  2  0
 21 12  1  0
 45 33  1  0
M  CHG  1  10   1
M  END
>  <UniqueID>  (44) 
43

>  <SMILES>  (44) 
CC1=CS/C(=C\c2cc(-c3ccc(C)cc3)cs2)C2=[NH+]c3ccccc3CN12

>  <Energy>  (44) 
103.26991771043328

>  <Genealogy>  (44) 
CC1=CSC(=Cc2cc(-c3ccc(C)cc3)cs2)C2=[NH+]c3ccccc3CN12 (protonated)
CC1=CS/C(=C\c2cc(-c3ccc(C)cc3)cs2)C2=[NH+]c3ccccc3CN12 (cis-trans isomerization)
CC1=CS/C(=C\c2cc(-c3ccc(C)cc3)cs2)C2=[NH+]c3ccccc3CN12 (3D coordinates assigned)
CC1=CS/C(=C\c2cc(-c3ccc(C)cc3)cs2)C2=[NH+]c3ccccc3CN12 (nonaromatic ring conformer: 103.26991771043328 kcal/mol)

>  <smiles>  (44) 
CC1=CSC(=Cc2cc(-c3ccc(C)cc3)cs2)C2=Nc3ccccc3CN12

>  <score_type>  (44) 
oracle

>  <origin>  (44) 
adg

>  <m_score__min__energy>  (44) 
-8.5099999999999998

>  <m_primary>  (44) 
energy

$$$$
44:0
     RDKit          3D

 47 49  0  0  0  0  0  0  0  0999 V2000
   62.2140   31.3410   50.3770 C   0  0  0  0  0  0  0  0  0  0  0  0
   60.9650   30.7390   50.0500 O   0  0  0  0  0  0  0  0  0  0  0  0
   60.6430   30.2210   48.7870 C   0  0  0  0  0  0  0  0  0  0  0  0
   59.6580   29.2330   48.6040 C   0  0  0  0  0  0  0  0  0  0  0  0
   59.3760   28.7480   47.3220 C   0  0  0  0  0  0  0  0  0  0  0  0
   60.0630   29.2500   46.2070 C   0  0  0  0  0  0  0  0  0  0  0  0
   59.8020   28.6860   44.8340 C   0  0  0  0  0  0  0  0  0  0  0  0
   58.7950   29.5000   44.1330 N   0  0  0  0  0  0  0  0  0  0  0  0
   57.4520   28.8730   44.1480 C   0  0  1  0  0  0  0  0  0  0  0  0
   57.4350   27.5630   44.9560 C   0  0  0  0  0  0  0  0  0  0  0  0
   56.3830   29.8290   44.6550 C   0  0  0  0  0  0  0  0  0  0  0  0
   55.3470   29.3470   45.1850 O   0  0  0  0  0  0  0  0  0  0  0  0
   56.4600   31.2510   44.4800 N   0  0  0  0  0  0  0  0  0  0  0  0
   57.4300   32.1110   45.0840 C   0  0  0  0  0  0  0  0  0  0  0  0
   58.0700   33.1130   44.3370 C   0  0  0  0  0  0  0  0  0  0  0  0
   59.0080   33.9540   44.9450 C   0  0  0  0  0  0  0  0  0  0  0  0
   59.3220   33.7830   46.2960 C   0  0  0  0  0  0  0  0  0  0  0  0
   58.6870   32.7820   47.0430 C   0  0  0  0  0  0  0  0  0  0  0  0
   57.7640   31.9290   46.4320 C   0  0  0  0  0  0  0  0  0  0  0  0
   58.9860   32.6560   48.4040 O   0  0  0  0  0  0  0  0  0  0  0  0
   59.6970   33.6830   49.1000 C   0  0  0  0  0  0  0  0  0  0  0  0
   60.8000   34.2650   48.2070 C   0  0  0  0  0  0  0  0  0  0  0  0
   60.2720   34.5990   46.9200 O   0  0  0  0  0  0  0  0  0  0  0  0
   61.0550   30.2240   46.3930 C   0  0  0  0  0  0  0  0  0  0  0  0
   61.3370   30.7080   47.6730 C   0  0  0  0  0  0  0  0  0  0  0  0
   62.3210   31.3926   51.4706 H   0  0  0  0  0  0  0  0  0  0  0  0
   63.0327   30.7386   49.9565 H   0  0  0  0  0  0  0  0  0  0  0  0
   62.2528   32.3567   49.9565 H   0  0  0  0  0  0  0  0  0  0  0  0
   59.1077   28.8405   49.4718 H   0  0  0  0  0  0  0  0  0  0  0  0
   58.6113   27.9687   47.1880 H   0  0  0  0  0  0  0  0  0  0  0  0
   60.7379   28.6888   44.2561 H   0  0  0  0  0  0  0  0  0  0  0  0
   59.4256   27.6573   44.9341 H   0  0  0  0  0  0  0  0  0  0  0  0
   58.7580   30.4440   44.5850 H   0  0  0  0  0  0  0  0  0  0  0  0
   59.1110   29.6150   43.1410 H   0  0  0  0  0  0  0  0  0  0  0  0
   57.2150   28.6259   43.1026 H   0  0  0  0  0  0  0  0  0  0  0  0
   57.4380   27.7953   46.0312 H   0  0  0  0  0  0  0  0  0  0  0  0
   56.5294   26.9904   44.7071 H   0  0  0  0  0  0  0  0  0  0  0  0
   58.3255   26.9671   44.7071 H   0  0  0  0  0  0  0  0  0  0  0  0
   57.8330   33.2371   43.2700 H   0  0  0  0  0  0  0  0  0  0  0  0
   59.4971   34.7478   44.3613 H   0  0  0  0  0  0  0  0  0  0  0  0
   57.3002   31.1155   47.0091 H   0  0  0  0  0  0  0  0  0  0  0  0
   58.9965   34.4836   49.3800 H   0  0  0  0  0  0  0  0  0  0  0  0
   60.1565   33.2522   50.0018 H   0  0  0  0  0  0  0  0  0  0  0  0
   61.2080   35.1714   48.6783 H   0  0  0  0  0  0  0  0  0  0  0  0
   61.5944   33.5141   48.0841 H   0  0  0  0  0  0  0  0  0  0  0  0
   61.6136   30.6087   45.5270 H   0  0  0  0  0  0  0  0  0  0  0  0
   62.1109   31.4782   47.8065 H   0  0  0  0  0  0  0  0  0  0  0  0
  1  2  1  0
  2  3  1  0
  3  4  2  0
  4  5  1  0
  5  6  2  0
  6  7  1  0
  7  8  1  0
  8  9  1  0
  9 10  1  0
  9 11  1  0
 11 12  2  0
 11 13  1  0
 13 14  1  0
 14 15  2  0
 15 16  1  0
 16 17  2  0
 17 18  1  0
 18 19  2  0
 18 20  1  0
 20 21  1  0
 21 22  1  0
 22 23  1  0
  6 24  1  0
 24 25  2  0
 25  3  1  0
 19 14  1  0
 23 17  1  0
  1 26  1  0
  1 27  1  0
  1 28  1  0
  4 29  1  0
  5 30  1  0
  7 31  1  0
  7 32  1  0
  8 33  1  0
  8 34  1  0
  9 35  1  6
 10 36  1  0
 10 37  1  0
 10 38  1  0
 15 39  1  0
 16 40  1  0
 19 41  1  0
 21 42  1  0
 21 43  1  0
 22 44  1  0
 22 45  1  0
 24 46  1  0
 25 47  1  0
M  CHG  2   8   1  13  -1
M  END
>  <UniqueID>  (45) 
44

>  <SMILES>  (45) 
COc1ccc(C[NH2+][C@@H](C)C(=O)[N-]c2ccc3c(c2)OCCO3)cc1

>  <Energy>  (45) 
55.55218460755451

>  <Genealogy>  (45) 
COc1ccc(C[NH2+]C(C)C(=O)[N-]c2ccc3c(c2)OCCO3)cc1 (protonated)
COc1ccc(C[NH2+][C@@H](C)C(=O)[N-]c2ccc3c(c2)OCCO3)cc1 (chirality)
COc1ccc(C[NH2+][C@@H](C)C(=O)[N-]c2ccc3c(c2)OCCO3)cc1 (3D coordinates assigned)
COc1ccc(C[NH2+][C@@H](C)C(=O)[N-]c2ccc3c(c2)OCCO3)cc1 (nonaromatic ring conformer: 55.55218460755451 kcal/mol)

>  <smiles>  (45) 
COc1ccc(CNC(C)C(=O)Nc2ccc3c(c2)OCCO3)cc1

>  <score_type>  (45) 
oracle

>  <origin>  (45) 
adg

>  <m_score__min__energy>  (45) 
-7.9800000000000004

>  <m_primary>  (45) 
energy

$$$$
45:0
     RDKit          3D

 39 41  0  0  1  0  0  0  0  0999 V2000
   57.7880   26.4850   44.4260 C   0  0  0  0  0  0  0  0  0  0  0  0
   57.6030   27.9570   44.5970 C   0  0  0  0  0  0  0  0  0  0  0  0
   58.6320   28.8360   44.2570 C   0  0  0  0  0  0  0  0  0  0  0  0
   58.4450   30.1910   44.4210 C   0  0  0  0  0  0  0  0  0  0  0  0
   57.2270   30.5960   44.9230 C   0  0  0  0  0  0  0  0  0  0  0  0
   57.0300   31.8390   45.0830 N   0  0  0  0  0  0  0  0  0  0  0  0
   57.8940   32.8130   45.6580 C   0  0  0  0  0  0  0  0  0  0  0  0
   57.7360   33.1990   47.0700 C   0  0  0  0  0  0  0  0  0  0  0  0
   59.1520   33.3020   47.6760 C   0  0  0  0  0  0  0  0  0  0  0  0
   60.0240   33.8350   46.6560 N   0  0  0  0  0  0  0  0  0  0  0  0
   61.4440   33.6900   46.8790 C   0  0  0  0  0  0  0  0  0  0  0  0
   62.2880   34.1240   46.0450 O   0  0  0  0  0  0  0  0  0  0  0  0
   61.9870   33.0280   48.0900 C   0  0  0  0  0  0  0  0  0  0  0  0
   63.3980   33.2580   48.4840 C   0  0  0  0  0  0  0  0  0  0  0  0
   63.0230   31.9300   47.8840 C   0  0  0  0  0  0  0  0  0  0  0  0
   59.5950   34.4880   45.4610 C   0  0  0  0  0  0  0  0  0  0  0  0
   58.3050   33.9860   44.8560 C   0  0  0  0  0  0  0  0  0  0  0  0
   56.2390   29.7450   45.2490 N   0  0  0  0  0  0  0  0  0  0  0  0
   56.4470   28.4440   45.0790 N   0  0  0  0  0  0  0  0  0  0  0  0
   57.8482   26.0058   45.4143 H   0  0  0  0  0  0  0  0  0  0  0  0
   56.9349   26.0705   43.8689 H   0  0  0  0  0  0  0  0  0  0  0  0
   58.7172   26.2945   43.8689 H   0  0  0  0  0  0  0  0  0  0  0  0
   59.5835   28.4507   43.8618 H   0  0  0  0  0  0  0  0  0  0  0  0
   59.2312   30.9159   44.1633 H   0  0  0  0  0  0  0  0  0  0  0  0
   58.7321   32.1010   45.6333 H   0  0  0  0  0  0  0  0  0  0  0  0
   57.2244   34.1702   47.1403 H   0  0  0  0  0  0  0  0  0  0  0  0
   57.1320   32.4568   47.6126 H   0  0  0  0  0  0  0  0  0  0  0  0
   59.1395   33.9732   48.5474 H   0  0  0  0  0  0  0  0  0  0  0  0
   59.5036   32.3140   48.0081 H   0  0  0  0  0  0  0  0  0  0  0  0
   61.0233   33.1188   48.6125 H   0  0  0  0  0  0  0  0  0  0  0  0
   64.0180   33.9617   47.9091 H   0  0  0  0  0  0  0  0  0  0  0  0
   63.8969   33.5696   49.4135 H   0  0  0  0  0  0  0  0  0  0  0  0
   63.3566   31.6668   46.8694 H   0  0  0  0  0  0  0  0  0  0  0  0
   63.1215   30.8763   48.1841 H   0  0  0  0  0  0  0  0  0  0  0  0
   59.4657   35.5562   45.6895 H   0  0  0  0  0  0  0  0  0  0  0  0
   60.3738   34.2774   44.7132 H   0  0  0  0  0  0  0  0  0  0  0  0
   57.5331   34.7683   44.9036 H   0  0  0  0  0  0  0  0  0  0  0  0
   58.4398   33.7172   43.7979 H   0  0  0  0  0  0  0  0  0  0  0  0
   55.3300   30.0900   45.6260 H   0  0  0  0  0  0  0  0  0  0  0  0
  1  2  1  0
  2  3  1  0
  3  4  2  0
  4  5  1  0
  5  6  2  0
  6  7  1  0
  7  8  1  0
  8  9  1  0
  9 10  1  0
 10 11  1  0
 11 12  2  0
 11 13  1  0
 13 14  1  0
 14 15  1  0
 10 16  1  0
 16 17  1  0
  5 18  1  0
 18 19  1  0
 19  2  2  0
 17  7  1  0
 15 13  1  0
  1 20  1  0
  1 21  1  0
  1 22  1  0
  3 23  1  0
  4 24  1  0
  7 25  1  0
  8 26  1  0
  8 27  1  0
  9 28  1  0
  9 29  1  0
 13 30  1  0
 14 31  1  0
 14 32  1  0
 15 33  1  0
 15 34  1  0
 16 35  1  0
 16 36  1  0
 17 37  1  0
 17 38  1  0
 18 39  1  0
M  END
>  <smiles>  (46) 
Cc1ccc(=NC2CCN(C(=O)C3CC3)CC2)[nH]n1

>  <score_type>  (46) 
oracle

>  <origin>  (46) 
adg

>  <m_score__min__energy>  (46) 
-7.71

>  <m_primary>  (46) 
energy

$$$$
46:0
     RDKit          3D

 54 57  0  0  0  0  0  0  0  0999 V2000
   59.5240   28.6720   44.5100 C   0  0  0  0  0  0  0  0  0  0  0  0
   58.4660   27.6840   44.5880 N   0  0  0  0  0  0  0  0  0  0  0  0
   58.1510   27.2750   43.2210 C   0  0  0  0  0  0  0  0  0  0  0  0
   57.2500   28.2950   45.1740 C   0  0  0  0  0  0  0  0  0  0  0  0
   56.6770   29.2940   44.2360 C   0  0  0  0  0  0  0  0  0  0  0  0
   56.2380   30.5210   44.7200 N   0  0  0  0  0  0  0  0  0  0  0  0
   56.9570   31.7060   44.6570 C   0  0  0  0  0  0  0  0  0  0  0  0
   58.1110   31.9430   45.5100 C   0  0  0  0  0  0  0  0  0  0  0  0
   58.8210   33.1370   45.3320 C   0  0  0  0  0  0  0  0  0  0  0  0
   59.9260   33.4550   46.0890 C   0  0  0  0  0  0  0  0  0  0  0  0
   60.3750   32.5920   47.0630 C   0  0  0  0  0  0  0  0  0  0  0  0
   61.5330   32.8750   47.9030 C   0  0  0  0  0  0  0  0  0  0  0  0
   61.6140   33.9310   48.7720 C   0  0  0  0  0  0  0  0  0  0  0  0
   62.7740   34.1110   49.5130 C   0  0  0  0  0  0  0  0  0  0  0  0
   63.8170   33.2290   49.3610 C   0  0  0  0  0  0  0  0  0  0  0  0
   65.0420   33.4550   50.1450 C   0  0  0  0  0  0  0  0  0  0  0  0
   65.1580   34.0010   51.3740 N   0  0  0  0  0  0  0  0  0  0  0  0
   66.4780   34.0060   51.7260 C   0  0  0  0  0  0  0  0  0  0  0  0
   67.0900   34.4580   52.8890 C   0  0  0  0  0  0  0  0  0  0  0  0
   68.4780   34.3050   52.9250 C   0  0  0  0  0  0  0  0  0  0  0  0
   69.1730   33.7450   51.8770 C   0  0  0  0  0  0  0  0  0  0  0  0
   68.5250   33.3050   50.7330 C   0  0  0  0  0  0  0  0  0  0  0  0
   67.1450   33.4500   50.6790 C   0  0  0  0  0  0  0  0  0  0  0  0
   66.2610   33.1140   49.7110 N   0  0  0  0  0  0  0  0  0  0  0  0
   63.7710   32.1500   48.4920 C   0  0  0  0  0  0  0  0  0  0  0  0
   62.6090   31.9920   47.7680 C   0  0  0  0  0  0  0  0  0  0  0  0
   59.6910   31.4120   47.2550 C   0  0  0  0  0  0  0  0  0  0  0  0
   58.5760   31.0930   46.4910 C   0  0  0  0  0  0  0  0  0  0  0  0
   59.8324   28.9600   45.5259 H   0  0  0  0  0  0  0  0  0  0  0  0
   60.3842   28.2464   43.9725 H   0  0  0  0  0  0  0  0  0  0  0  0
   59.1582   29.5593   43.9725 H   0  0  0  0  0  0  0  0  0  0  0  0
   57.4800   26.4037   43.2444 H   0  0  0  0  0  0  0  0  0  0  0  0
   57.6564   28.1047   42.6948 H   0  0  0  0  0  0  0  0  0  0  0  0
   59.0795   27.0087   42.6948 H   0  0  0  0  0  0  0  0  0  0  0  0
   56.5053   27.5090   45.3677 H   0  0  0  0  0  0  0  0  0  0  0  0
   57.5178   28.7975   46.1151 H   0  0  0  0  0  0  0  0  0  0  0  0
   57.4513   29.5063   43.4841 H   0  0  0  0  0  0  0  0  0  0  0  0
   55.7531   28.8128   43.8825 H   0  0  0  0  0  0  0  0  0  0  0  0
   55.2930   30.5450   45.1600 H   0  0  0  0  0  0  0  0  0  0  0  0
   57.3138   31.7973   43.6205 H   0  0  0  0  0  0  0  0  0  0  0  0
   56.2312   32.4422   45.0328 H   0  0  0  0  0  0  0  0  0  0  0  0
   58.4841   33.8452   44.5607 H   0  0  0  0  0  0  0  0  0  0  0  0
   60.4534   34.4045   45.9145 H   0  0  0  0  0  0  0  0  0  0  0  0
   60.7700   34.6279   48.8813 H   0  0  0  0  0  0  0  0  0  0  0  0
   62.8577   34.9528   50.2162 H   0  0  0  0  0  0  0  0  0  0  0  0
   66.5232   34.9034   53.7199 H   0  0  0  0  0  0  0  0  0  0  0  0
   69.0305   34.6411   53.8148 H   0  0  0  0  0  0  0  0  0  0  0  0
   70.2660   33.6444   51.9487 H   0  0  0  0  0  0  0  0  0  0  0  0
   69.0839   32.8571   49.8981 H   0  0  0  0  0  0  0  0  0  0  0  0
   66.5560   32.6690   48.8100 H   0  0  0  0  0  0  0  0  0  0  0  0
   64.6178   31.4560   48.3858 H   0  0  0  0  0  0  0  0  0  0  0  0
   62.5257   31.1495   47.0657 H   0  0  0  0  0  0  0  0  0  0  0  0
   60.0344   30.7089   48.0282 H   0  0  0  0  0  0  0  0  0  0  0  0
   58.0529   30.1424   46.6723 H   0  0  0  0  0  0  0  0  0  0  0  0
  1  2  1  0
  2  3  1  0
  2  4  1  0
  4  5  1  0
  5  6  1  0
  6  7  1  0
  7  8  1  0
  8  9  2  0
  9 10  1  0
 10 11  2  0
 11 12  1  0
 12 13  2  0
 13 14  1  0
 14 15  2  0
 15 16  1  0
 16 17  2  0
 17 18  1  0
 18 19  2  0
 19 20  1  0
 20 21  2  0
 21 22  1  0
 22 23  2  0
 23 24  1  0
 15 25  1  0
 25 26  2  0
 11 27  1  0
 27 28  2  0
 28  8  1  0
 26 12  1  0
 24 16  1  0
 23 18  1  0
  1 29  1  0
  1 30  1  0
  1 31  1  0
  3 32  1  0
  3 33  1  0
  3 34  1  0
  4 35  1  0
  4 36  1  0
  5 37  1  0
  5 38  1  0
  6 39  1  0
  7 40  1  0
  7 41  1  0
  9 42  1  0
 10 43  1  0
 13 44  1  0
 14 45  1  0
 19 46  1  0
 20 47  1  0
 21 48  1  0
 22 49  1  0
 24 50  1  0
 25 51  1  0
 26 52  1  0
 27 53  1  0
 28 54  1  0
M  END
>  <smiles>  (47) 
CN(C)CCNCc1ccc(-c2ccc(-c3nc4ccccc4[nH]3)cc2)cc1

>  <score_type>  (47) 
oracle

>  <origin>  (47) 
adg

>  <m_score__min__energy>  (47) 
-8

>  <m_primary>  (47) 
energy

$$$$
47:0
     RDKit          3D

 58 60  0  0  0  0  0  0  0  0999 V2000
   63.3310   32.1400   47.3870 C   0  0  0  0  0  0  0  0  0  0  0  0
   63.0760   33.4430   46.6370 C   0  0  0  0  0  0  0  0  0  0  0  0
   61.9670   34.1750   47.2580 N   0  0  0  0  0  0  0  0  0  0  0  0
   62.0830   34.1270   48.7200 C   0  0  0  0  0  0  0  0  0  0  0  0
   60.6960   34.2220   49.3600 C   0  0  0  0  0  0  0  0  0  0  0  0
   59.6790   33.6640   48.4680 N   0  0  0  0  0  0  0  0  0  0  0  0
   59.4590   32.2510   48.3240 C   0  0  0  0  0  0  0  0  0  0  0  0
   59.6990   31.4180   49.4180 C   0  0  0  0  0  0  0  0  0  0  0  0
   59.4760   30.0510   49.3370 C   0  0  0  0  0  0  0  0  0  0  0  0
   58.9800   29.4610   48.1560 C   0  0  0  0  0  0  0  0  0  0  0  0
   58.8110   28.0160   48.0530 N   0  0  0  0  0  0  0  0  0  0  0  0
   59.7420   27.3480   47.1210 C   0  0  0  0  0  0  0  0  0  0  0  0
   59.0180   26.3120   46.2470 C   0  0  0  0  0  0  0  0  0  0  0  0
   57.5890   26.2600   46.5800 N   0  0  0  0  0  0  0  0  0  0  0  0
   56.9560   25.1010   45.9390 C   0  0  0  0  0  0  0  0  0  0  0  0
   55.4820   25.3920   45.6460 C   0  0  0  0  0  0  0  0  0  0  0  0
   55.1550   26.7100   45.9930 O   0  0  0  0  0  0  0  0  0  0  0  0
   58.5950   30.3210   47.0810 C   0  0  0  0  0  0  0  0  0  0  0  0
   58.9340   31.7020   47.1260 C   0  0  0  0  0  0  0  0  0  0  0  0
   58.7820   32.5280   45.8880 C   0  0  0  0  0  0  0  0  0  0  0  0
   59.2360   33.7030   45.8430 O   0  0  0  0  0  0  0  0  0  0  0  0
   58.1610   31.9570   44.6740 C   0  0  0  0  0  0  0  0  0  0  0  0
   58.0350   32.7270   43.5000 C   0  0  0  0  0  0  0  0  0  0  0  0
   57.4470   32.1820   42.3570 C   0  0  0  0  0  0  0  0  0  0  0  0
   56.9800   30.8690   42.3690 C   0  0  0  0  0  0  0  0  0  0  0  0
   57.0960   30.0960   43.5270 C   0  0  0  0  0  0  0  0  0  0  0  0
   57.6890   30.6320   44.6850 C   0  0  0  0  0  0  0  0  0  0  0  0
   57.8020   29.8230   45.9160 C   0  0  0  0  0  0  0  0  0  0  0  0
   57.1480   28.7490   45.9970 O   0  0  0  0  0  0  0  0  0  0  0  0
   63.2944   32.3273   48.4703 H   0  0  0  0  0  0  0  0  0  0  0  0
   62.5599   31.4039   47.1158 H   0  0  0  0  0  0  0  0  0  0  0  0
   64.3227   31.7489   47.1158 H   0  0  0  0  0  0  0  0  0  0  0  0
   63.9836   34.0637   46.6676 H   0  0  0  0  0  0  0  0  0  0  0  0
   62.8146   33.2120   45.5938 H   0  0  0  0  0  0  0  0  0  0  0  0
   61.0760   33.6900   46.9920 H   0  0  0  0  0  0  0  0  0  0  0  0
   62.5567   33.1796   49.0167 H   0  0  0  0  0  0  0  0  0  0  0  0
   62.6961   34.9742   49.0610 H   0  0  0  0  0  0  0  0  0  0  0  0
   60.6949   33.6605   50.3059 H   0  0  0  0  0  0  0  0  0  0  0  0
   60.4627   35.2807   49.5463 H   0  0  0  0  0  0  0  0  0  0  0  0
   59.0920   34.3270   47.9130 H   0  0  0  0  0  0  0  0  0  0  0  0
   60.0704   31.8517   50.3582 H   0  0  0  0  0  0  0  0  0  0  0  0
   59.6899   29.4161   50.2095 H   0  0  0  0  0  0  0  0  0  0  0  0
   57.8480   27.8280   47.6960 H   0  0  0  0  0  0  0  0  0  0  0  0
   58.9230   27.5970   49.0050 H   0  0  0  0  0  0  0  0  0  0  0  0
   60.2013   28.1064   46.4699 H   0  0  0  0  0  0  0  0  0  0  0  0
   60.5071   26.8250   47.7135 H   0  0  0  0  0  0  0  0  0  0  0  0
   59.1323   26.5893   45.1887 H   0  0  0  0  0  0  0  0  0  0  0  0
   59.4605   25.3221   46.4320 H   0  0  0  0  0  0  0  0  0  0  0  0
   57.1410   27.1260   46.1950 H   0  0  0  0  0  0  0  0  0  0  0  0
   57.4762   24.8797   44.9954 H   0  0  0  0  0  0  0  0  0  0  0  0
   57.0211   24.2381   46.6180 H   0  0  0  0  0  0  0  0  0  0  0  0
   55.2919   25.2442   44.5727 H   0  0  0  0  0  0  0  0  0  0  0  0
   54.8625   24.7068   46.2432 H   0  0  0  0  0  0  0  0  0  0  0  0
   55.8990   27.0470   46.5570 H   0  0  0  0  0  0  0  0  0  0  0  0
   58.4023   33.7638   43.4843 H   0  0  0  0  0  0  0  0  0  0  0  0
   57.3522   32.7901   41.4453 H   0  0  0  0  0  0  0  0  0  0  0  0
   56.5198   30.4410   41.4662 H   0  0  0  0  0  0  0  0  0  0  0  0
   56.7214   29.0618   43.5335 H   0  0  0  0  0  0  0  0  0  0  0  0
  1  2  1  0
  2  3  1  0
  3  4  1  0
  4  5  1  0
  5  6  1  0
  6  7  1  0
  7  8  2  0
  8  9  1  0
  9 10  2  0
 10 11  1  0
 11 12  1  0
 12 13  1  0
 13 14  1  0
 14 15  1  0
 15 16  1  0
 16 17  1  0
 10 18  1  0
 18 19  2  0
 19 20  1  0
 20 21  2  0
 20 22  1  0
 22 23  2  0
 23 24  1  0
 24 25  2  0
 25 26  1  0
 26 27  2  0
 27 28  1  0
 28 29  2  0
 19  7  1  0
 27 22  1  0
 28 18  1  0
  1 30  1  0
  1 31  1  0
  1 32  1  0
  2 33  1  0
  2 34  1  0
  3 35  1  0
  4 36  1  0
  4 37  1  0
  5 38  1  0
  5 39  1  0
  6 40  1  0
  8 41  1  0
  9 42  1  0
 11 43  1  0
 11 44  1  0
 12 45  1  0
 12 46  1  0
 13 47  1  0
 13 48  1  0
 14 49  1  0
 15 50  1  0
 15 51  1  0
 16 52  1  0
 16 53  1  0
 17 54  1  0
 23 55  1  0
 24 56  1  0
 25 57  1  0
 26 58  1  0
M  CHG  1  11   1
M  END
>  <UniqueID>  (48) 
45

>  <SMILES>  (48) 
CCNCCNc1ccc([NH2+]CCNCCO)c2c1C(=O)c1ccccc1C2=O

>  <Energy>  (48) 
70.01419278698215

>  <Genealogy>  (48) 
CCNCCNc1ccc([NH2+]CCNCCO)c2c1C(=O)c1ccccc1C2=O (protonated)
CCNCCNc1ccc([NH2+]CCNCCO)c2c1C(=O)c1ccccc1C2=O (3D coordinates assigned)
CCNCCNc1ccc([NH2+]CCNCCO)c2c1C(=O)c1ccccc1C2=O (nonaromatic ring conformer: 70.01419278698215 kcal/mol)

>  <smiles>  (48) 
CCNCCNc1ccc(NCCNCCO)c2c1C(=O)c1ccccc1C2=O

>  <score_type>  (48) 
oracle

>  <origin>  (48) 
adg

>  <m_score__min__energy>  (48) 
-5.6399999999999997

>  <m_primary>  (48) 
energy

$$$$
48:0
     RDKit          3D

 56 60  0  0  0  0  0  0  0  0999 V2000
   55.8560   29.7270   43.1260 C   0  0  0  0  0  0  0  0  0  0  0  0
   55.9750   30.2410   44.4480 O   0  0  0  0  0  0  0  0  0  0  0  0
   57.0450   31.0260   44.8980 C   0  0  0  0  0  0  0  0  0  0  0  0
   57.0180   32.4400   44.8610 C   0  0  0  0  0  0  0  0  0  0  0  0
   58.1150   33.1910   45.3300 C   0  0  0  0  0  0  0  0  0  0  0  0
   59.2510   32.5480   45.8400 C   0  0  0  0  0  0  0  0  0  0  0  0
   59.2710   31.1520   45.8750 C   0  0  0  0  0  0  0  0  0  0  0  0
   58.1950   30.4110   45.4130 C   0  0  0  0  0  0  0  0  0  0  0  0
   58.5230   29.0020   45.5750 C   0  0  0  0  0  0  0  0  0  0  0  0
   57.7870   27.8560   45.2560 C   0  0  0  0  0  0  0  0  0  0  0  0
   58.3630   26.6020   45.5130 C   0  0  0  0  0  0  0  0  0  0  0  0
   59.6510   26.5100   46.0760 C   0  0  0  0  0  0  0  0  0  0  0  0
   60.3730   27.6720   46.3880 C   0  0  0  0  0  0  0  0  0  0  0  0
   59.7890   28.9150   46.1320 C   0  0  0  0  0  0  0  0  0  0  0  0
   60.3790   30.2720   46.3830 C   0  0  2  0  0  0  0  0  0  0  0  0
   60.5970   30.4840   47.8130 N   0  0  0  0  0  0  0  0  0  0  0  0
   59.5960   30.1760   48.7930 C   0  0  0  0  0  0  0  0  0  0  0  0
   58.5270   29.5980   48.4580 O   0  0  0  0  0  0  0  0  0  0  0  0
   59.8390   30.5000   50.2360 C   0  0  0  0  0  0  0  0  0  0  0  0
   61.3410   30.4980   50.5390 C   0  0  0  0  0  0  0  0  0  0  0  0
   61.7610   31.8250   51.0460 N   0  0  0  0  0  0  0  0  0  0  0  0
   63.2300   31.9790   51.0970 C   0  0  0  0  0  0  0  0  0  0  0  0
   63.8690   31.9210   49.7000 C   0  0  0  0  0  0  0  0  0  0  0  0
   63.1150   32.7530   48.6980 C   0  0  0  0  0  0  0  0  0  0  0  0
   63.7030   33.0270   47.4510 C   0  0  0  0  0  0  0  0  0  0  0  0
   63.0000   33.7490   46.4820 C   0  0  0  0  0  0  0  0  0  0  0  0
   61.7040   34.1970   46.7460 C   0  0  0  0  0  0  0  0  0  0  0  0
   61.1030   33.9190   47.9770 C   0  0  0  0  0  0  0  0  0  0  0  0
   61.7940   33.1830   48.9520 C   0  0  0  0  0  0  0  0  0  0  0  0
   61.1440   32.9410   50.2970 C   0  0  0  0  0  0  0  0  0  0  0  0
   55.6081   28.6562   43.1699 H   0  0  0  0  0  0  0  0  0  0  0  0
   55.0590   30.2664   42.5932 H   0  0  0  0  0  0  0  0  0  0  0  0
   56.8090   29.8612   42.5932 H   0  0  0  0  0  0  0  0  0  0  0  0
   56.1331   32.9581   44.4627 H   0  0  0  0  0  0  0  0  0  0  0  0
   58.0791   34.2899   45.2954 H   0  0  0  0  0  0  0  0  0  0  0  0
   60.1094   33.1309   46.2053 H   0  0  0  0  0  0  0  0  0  0  0  0
   56.7824   27.9355   44.8150 H   0  0  0  0  0  0  0  0  0  0  0  0
   57.8049   25.6850   45.2732 H   0  0  0  0  0  0  0  0  0  0  0  0
   60.0931   25.5220   46.2721 H   0  0  0  0  0  0  0  0  0  0  0  0
   61.3799   27.6055   46.8259 H   0  0  0  0  0  0  0  0  0  0  0  0
   61.3575   30.4453   45.9112 H   0  0  0  0  0  0  0  0  0  0  0  0
   61.4620   30.9830   48.1240 H   0  0  0  0  0  0  0  0  0  0  0  0
   59.4258   31.4949   50.4585 H   0  0  0  0  0  0  0  0  0  0  0  0
   59.3484   29.7384   50.8599 H   0  0  0  0  0  0  0  0  0  0  0  0
   61.5575   29.7331   51.2993 H   0  0  0  0  0  0  0  0  0  0  0  0
   61.8939   30.2748   49.6146 H   0  0  0  0  0  0  0  0  0  0  0  0
   63.4687   32.9499   51.5556 H   0  0  0  0  0  0  0  0  0  0  0  0
   63.6365   31.1458   51.6890 H   0  0  0  0  0  0  0  0  0  0  0  0
   64.9014   32.2948   49.7663 H   0  0  0  0  0  0  0  0  0  0  0  0
   63.8444   30.8754   49.3593 H   0  0  0  0  0  0  0  0  0  0  0  0
   64.7216   32.6715   47.2365 H   0  0  0  0  0  0  0  0  0  0  0  0
   63.4684   33.9645   45.5103 H   0  0  0  0  0  0  0  0  0  0  0  0
   61.1551   34.7697   45.9839 H   0  0  0  0  0  0  0  0  0  0  0  0
   60.0840   34.2787   48.1825 H   0  0  0  0  0  0  0  0  0  0  0  0
   61.2321   33.8577   50.8986 H   0  0  0  0  0  0  0  0  0  0  0  0
   60.0942   32.6707   50.1106 H   0  0  0  0  0  0  0  0  0  0  0  0
  1  2  1  0
  2  3  1  0
  3  4  2  0
  4  5  1  0
  5  6  2  0
  6  7  1  0
  7  8  2  0
  8  9  1  0
  9 10  2  0
 10 11  1  0
 11 12  2  0
 12 13  1  0
 13 14  2  0
 14 15  1  0
 15 16  1  0
 16 17  1  0
 17 18  2  0
 17 19  1  0
 19 20  1  0
 20 21  1  0
 21 22  1  0
 22 23  1  0
 23 24  1  0
 24 25  2  0
 25 26  1  0
 26 27  2  0
 27 28  1  0
 28 29  2  0
 29 30  1  0
  8  3  1  0
 14  9  1  0
 30 21  1  0
 15  7  1  0
 29 24  1  0
  1 31  1  0
  1 32  1  0
  1 33  1  0
  4 34  1  0
  5 35  1  0
  6 36  1  0
 10 37  1  0
 11 38  1  0
 12 39  1  0
 13 40  1  0
 15 41  1  6
 16 42  1  0
 19 43  1  0
 19 44  1  0
 20 45  1  0
 20 46  1  0
 22 47  1  0
 22 48  1  0
 23 49  1  0
 23 50  1  0
 25 51  1  0
 26 52  1  0
 27 53  1  0
 28 54  1  0
 30 55  1  0
 30 56  1  0
M  END
>  <UniqueID>  (49) 
46

>  <SMILES>  (49) 
COc1cccc2c1-c1ccccc1[C@@H]2NC(=O)CCN1CCc2ccccc2C1

>  <Energy>  (49) 
84.47705549686376

>  <Genealogy>  (49) 
COc1cccc2c1-c1ccccc1[C@@H]2NC(=O)CCN1CCc2ccccc2C1 (chirality)
COc1cccc2c1-c1ccccc1[C@@H]2NC(=O)CCN1CCc2ccccc2C1 (3D coordinates assigned)
COc1cccc2c1-c1ccccc1[C@@H]2NC(=O)CCN1CCc2ccccc2C1 (nonaromatic ring conformer: 84.47705549686376 kcal/mol)

>  <smiles>  (49) 
COc1cccc2c1-c1ccccc1C2NC(=O)CCN1CCc2ccccc2C1

>  <score_type>  (49) 
oracle

>  <origin>  (49) 
adg

>  <m_score__min__energy>  (49) 
-8.9499999999999993

>  <m_primary>  (49) 
energy

$$$$
49:0
     RDKit          3D

 41 43  0  0  0  0  0  0  0  0999 V2000
   58.2400   34.5960   44.8600 C   0  0  0  0  0  0  0  0  0  0  0  0
   56.9230   34.2250   45.3870 N   0  0  0  0  0  0  0  0  0  0  0  0
   57.0220   33.4340   46.6240 C   0  0  0  0  0  0  0  0  0  0  0  0
   58.3800   32.7920   46.7810 C   0  0  0  0  0  0  0  0  0  0  0  0
   59.4090   33.3740   47.5400 C   0  0  0  0  0  0  0  0  0  0  0  0
   60.5510   32.5740   47.6520 C   0  0  0  0  0  0  0  0  0  0  0  0
   61.7950   32.9010   48.3950 C   0  0  0  0  0  0  0  0  0  0  0  0
   63.0360   32.3980   47.9580 C   0  0  0  0  0  0  0  0  0  0  0  0
   64.2110   32.7020   48.6530 C   0  0  0  0  0  0  0  0  0  0  0  0
   64.1640   33.5070   49.7910 C   0  0  0  0  0  0  0  0  0  0  0  0
   62.9420   34.0100   50.2400 C   0  0  0  0  0  0  0  0  0  0  0  0
   61.7630   33.7100   49.5500 C   0  0  0  0  0  0  0  0  0  0  0  0
   60.2670   31.1370   46.8110 S   0  0  0  0  0  0  0  0  0  0  0  0
   58.7200   31.5330   46.2930 C   0  0  0  0  0  0  0  0  0  0  0  0
   57.8670   30.6620   45.5430 N   0  0  0  0  0  0  0  0  0  0  0  0
   57.7590   29.2550   45.9350 C   0  0  0  0  0  0  0  0  0  0  0  0
   56.6710   28.5630   45.1080 C   0  0  0  0  0  0  0  0  0  0  0  0
   55.5910   29.4520   44.9160 O   0  0  0  0  0  0  0  0  0  0  0  0
   55.9450   30.4670   43.9880 C   0  0  0  0  0  0  0  0  0  0  0  0
   57.3360   31.0920   44.2470 C   0  0  0  0  0  0  0  0  0  0  0  0
   58.9281   34.7898   45.6960 H   0  0  0  0  0  0  0  0  0  0  0  0
   58.6335   33.7737   44.2443 H   0  0  0  0  0  0  0  0  0  0  0  0
   58.1464   35.5027   44.2443 H   0  0  0  0  0  0  0  0  0  0  0  0
   56.3570   35.0890   45.5520 H   0  0  0  0  0  0  0  0  0  0  0  0
   56.4310   33.6480   44.6650 H   0  0  0  0  0  0  0  0  0  0  0  0
   56.8412   34.0960   47.4837 H   0  0  0  0  0  0  0  0  0  0  0  0
   56.2717   32.6312   46.5735 H   0  0  0  0  0  0  0  0  0  0  0  0
   59.3244   34.3679   48.0038 H   0  0  0  0  0  0  0  0  0  0  0  0
   63.0814   31.7607   47.0626 H   0  0  0  0  0  0  0  0  0  0  0  0
   65.1747   32.3052   48.3012 H   0  0  0  0  0  0  0  0  0  0  0  0
   65.0901   33.7455   50.3346 H   0  0  0  0  0  0  0  0  0  0  0  0
   62.9061   34.6437   51.1384 H   0  0  0  0  0  0  0  0  0  0  0  0
   60.8032   34.1081   49.9109 H   0  0  0  0  0  0  0  0  0  0  0  0
   58.7226   28.7535   45.7617 H   0  0  0  0  0  0  0  0  0  0  0  0
   57.4944   29.1964   47.0011 H   0  0  0  0  0  0  0  0  0  0  0  0
   57.0832   28.2700   44.1312 H   0  0  0  0  0  0  0  0  0  0  0  0
   56.3191   27.6670   45.6403 H   0  0  0  0  0  0  0  0  0  0  0  0
   55.9437   30.0298   42.9786 H   0  0  0  0  0  0  0  0  0  0  0  0
   55.2056   31.2739   44.0982 H   0  0  0  0  0  0  0  0  0  0  0  0
   58.0270   30.7761   43.4515 H   0  0  0  0  0  0  0  0  0  0  0  0
   57.2344   32.1873   44.2537 H   0  0  0  0  0  0  0  0  0  0  0  0
  1  2  1  0
  2  3  1  0
  3  4  1  0
  4  5  1  0
  5  6  2  0
  6  7  1  0
  7  8  2  0
  8  9  1  0
  9 10  2  0
 10 11  1  0
 11 12  2  0
  6 13  1  0
 13 14  1  0
 14 15  1  0
 15 16  1  0
 16 17  1  0
 17 18  1  0
 18 19  1  0
 19 20  1  0
 14  4  2  0
 20 15  1  0
 12  7  1  0
  1 21  1  0
  1 22  1  0
  1 23  1  0
  2 24  1  0
  2 25  1  0
  3 26  1  0
  3 27  1  0
  5 28  1  0
  8 29  1  0
  9 30  1  0
 10 31  1  0
 11 32  1  0
 12 33  1  0
 16 34  1  0
 16 35  1  0
 17 36  1  0
 17 37  1  0
 19 38  1  0
 19 39  1  0
 20 40  1  0
 20 41  1  0
M  CHG  1   2   1
M  END
>  <UniqueID>  (50) 
47

>  <SMILES>  (50) 
C[NH2+]Cc1cc(-c2ccccc2)sc1N1CCOCC1

>  <Energy>  (50) 
79.65540604360713

>  <Genealogy>  (50) 
C[NH2+]Cc1cc(-c2ccccc2)sc1N1CCOCC1 (protonated)
C[NH2+]Cc1cc(-c2ccccc2)sc1N1CCOCC1 (3D coordinates assigned)
C[NH2+]Cc1cc(-c2ccccc2)sc1N1CCOCC1 (nonaromatic ring conformer: 79.65540604360713 kcal/mol)

>  <smiles>  (50) 
CNCc1cc(-c2ccccc2)sc1N1CCOCC1

>  <score_type>  (50) 
oracle

>  <origin>  (50) 
adg

>  <m_score__min__energy>  (50) 
-5.3099999999999996

>  <m_primary>  (50) 
energy

$$$$
