0:0
     RDKit          3D

 70 71  0  0  0  0  0  0  0  0999 V2000
   60.7260   27.4160   49.5970 C   0  0  0  0  0  0  0  0  0  0  0  0
   60.2630   28.1430   48.3410 C   0  0  0  0  0  0  0  0  0  0  0  0
   59.5010   29.3010   48.6800 O   0  0  0  0  0  0  0  0  0  0  0  0
   58.7430   30.0260   47.7520 C   0  0  0  0  0  0  0  0  0  0  0  0
   57.8120   29.4640   47.1120 O   0  0  0  0  0  0  0  0  0  0  0  0
   59.0990   31.4390   47.4730 C   0  0  0  0  0  0  0  0  0  0  0  0
   58.9240   31.9950   46.2450 C   0  0  0  0  0  0  0  0  0  0  0  0
   58.4850   31.2180   45.0240 C   0  0  0  0  0  0  0  0  0  0  0  0
   57.1490   31.5280   44.6830 O   0  0  0  0  0  0  0  0  0  0  0  0
   56.7160   30.7960   43.5490 C   0  0  0  0  0  0  0  0  0  0  0  0
   56.3440   29.3400   43.9010 C   0  0  2  0  0  0  0  0  0  0  0  0
   55.8940   29.2920   45.2300 O   0  0  0  0  0  0  0  0  0  0  0  0
   57.5530   28.3940   43.7130 C   0  0  0  0  0  0  0  0  0  0  0  0
   58.0560   27.8290   44.9980 N   0  0  0  0  0  0  0  0  0  0  0  0
   57.2410   26.6760   45.4640 C   0  0  0  0  0  0  0  0  0  0  0  0
   57.6650   26.1020   46.8220 C   0  0  0  0  0  0  0  0  0  0  0  0
   59.5270   27.5660   45.0680 C   0  0  0  0  0  0  0  0  0  0  0  0
   60.4420   28.7950   44.9360 C   0  0  0  0  0  0  0  0  0  0  0  0
   59.0610   33.4160   46.0690 N   0  0  0  0  0  0  0  0  0  0  0  0
   59.5300   34.2230   46.9720 C   0  0  0  0  0  0  0  0  0  0  0  0
   59.6150   35.6860   46.6610 C   0  0  0  0  0  0  0  0  0  0  0  0
   60.0930   33.6780   48.2610 C   0  0  2  0  0  0  0  0  0  0  0  0
   61.5890   33.5350   48.1450 C   0  0  0  0  0  0  0  0  0  0  0  0
   62.3550   34.1300   48.9540 O   0  0  0  0  0  0  0  0  0  0  0  0
   62.1170   32.7580   47.1100 O   0  0  0  0  0  0  0  0  0  0  0  0
   63.5080   32.7090   46.8210 C   0  0  0  0  0  0  0  0  0  0  0  0
   59.3710   32.3590   48.6560 C   0  0  2  0  0  0  0  0  0  0  0  0
   60.0260   31.6880   49.8700 C   0  0  0  0  0  0  0  0  0  0  0  0
   61.3080   31.1300   49.6920 C   0  0  0  0  0  0  0  0  0  0  0  0
   61.9630   30.4800   50.7400 C   0  0  0  0  0  0  0  0  0  0  0  0
   61.3480   30.3630   51.9840 C   0  0  0  0  0  0  0  0  0  0  0  0
   60.0710   30.8870   52.1830 C   0  0  0  0  0  0  0  0  0  0  0  0
   59.3970   31.5400   51.1420 C   0  0  0  0  0  0  0  0  0  0  0  0
   57.7720   32.1190   51.5040 Cl  0  0  0  0  0  0  0  0  0  0  0  0
   60.3781   27.9623   50.4861 H   0  0  0  0  0  0  0  0  0  0  0  0
   60.3096   26.3979   49.6059 H   0  0  0  0  0  0  0  0  0  0  0  0
   61.8247   27.3628   49.6059 H   0  0  0  0  0  0  0  0  0  0  0  0
   61.1428   28.4484   47.7556 H   0  0  0  0  0  0  0  0  0  0  0  0
   59.6298   27.4631   47.7521 H   0  0  0  0  0  0  0  0  0  0  0  0
   59.1411   31.4739   44.1790 H   0  0  0  0  0  0  0  0  0  0  0  0
   58.5502   30.1432   45.2489 H   0  0  0  0  0  0  0  0  0  0  0  0
   55.8328   31.2938   43.1223 H   0  0  0  0  0  0  0  0  0  0  0  0
   57.5469   30.7671   42.8287 H   0  0  0  0  0  0  0  0  0  0  0  0
   55.5465   29.0021   43.2229 H   0  0  0  0  0  0  0  0  0  0  0  0
   56.2720   30.0880   45.6910 H   0  0  0  0  0  0  0  0  0  0  0  0
   57.2494   27.5628   43.0596 H   0  0  0  0  0  0  0  0  0  0  0  0
   58.3686   28.9860   43.2722 H   0  0  0  0  0  0  0  0  0  0  0  0
   57.8740   28.5590   45.7300 H   0  0  0  0  0  0  0  0  0  0  0  0
   56.1943   27.0050   45.5422 H   0  0  0  0  0  0  0  0  0  0  0  0
   57.3867   25.8728   44.7267 H   0  0  0  0  0  0  0  0  0  0  0  0
   57.2209   26.7032   47.6290 H   0  0  0  0  0  0  0  0  0  0  0  0
   57.3167   25.0620   46.9054 H   0  0  0  0  0  0  0  0  0  0  0  0
   58.7615   26.1292   46.9054 H   0  0  0  0  0  0  0  0  0  0  0  0
   59.7378   27.0929   46.0384 H   0  0  0  0  0  0  0  0  0  0  0  0
   59.7554   26.9333   44.1976 H   0  0  0  0  0  0  0  0  0  0  0  0
   60.7133   29.1594   45.9378 H   0  0  0  0  0  0  0  0  0  0  0  0
   61.3540   28.5160   44.3879 H   0  0  0  0  0  0  0  0  0  0  0  0
   59.9132   29.5887   44.3879 H   0  0  0  0  0  0  0  0  0  0  0  0
   59.6483   36.2590   47.5994 H   0  0  0  0  0  0  0  0  0  0  0  0
   60.5262   35.8845   46.0776 H   0  0  0  0  0  0  0  0  0  0  0  0
   58.7329   35.9887   46.0776 H   0  0  0  0  0  0  0  0  0  0  0  0
   59.9050   34.3843   49.0831 H   0  0  0  0  0  0  0  0  0  0  0  0
   64.0775   32.6889   47.7619 H   0  0  0  0  0  0  0  0  0  0  0  0
   63.7298   31.8025   46.2387 H   0  0  0  0  0  0  0  0  0  0  0  0
   63.7931   33.5977   46.2387 H   0  0  0  0  0  0  0  0  0  0  0  0
   58.3610   32.6326   48.9952 H   0  0  0  0  0  0  0  0  0  0  0  0
   61.8006   31.2078   48.7115 H   0  0  0  0  0  0  0  0  0  0  0  0
   62.9671   30.0594   50.5826 H   0  0  0  0  0  0  0  0  0  0  0  0
   61.8696   29.8571   52.8099 H   0  0  0  0  0  0  0  0  0  0  0  0
   59.5882   30.7869   53.1663 H   0  0  0  0  0  0  0  0  0  0  0  0
  1  2  1  0
  2  3  1  0
  3  4  1  0
  4  5  2  0
  4  6  1  0
  6  7  2  0
  7  8  1  0
  8  9  1  0
  9 10  1  0
 10 11  1  0
 11 12  1  0
 11 13  1  0
 13 14  1  0
 14 15  1  0
 15 16  1  0
 14 17  1  0
 17 18  1  0
  7 19  1  0
 19 20  2  0
 20 21  1  0
 20 22  1  0
 22 23  1  0
 23 24  2  0
 23 25  1  0
 25 26  1  0
 22 27  1  0
 27 28  1  0
 28 29  2  0
 29 30  1  0
 30 31  2  0
 31 32  1  0
 32 33  2  0
 33 34  1  0
 27  6  1  0
 33 28  1  0
  1 35  1  0
  1 36  1  0
  1 37  1  0
  2 38  1  0
  2 39  1  0
  8 40  1  0
  8 41  1  0
 10 42  1  0
 10 43  1  0
 11 44  1  6
 12 45  1  0
 13 46  1  0
 13 47  1  0
 14 48  1  0
 15 49  1  0
 15 50  1  0
 16 51  1  0
 16 52  1  0
 16 53  1  0
 17 54  1  0
 17 55  1  0
 18 56  1  0
 18 57  1  0
 18 58  1  0
 21 59  1  0
 21 60  1  0
 21 61  1  0
 22 62  1  1
 26 63  1  0
 26 64  1  0
 26 65  1  0
 27 66  1  1
 29 67  1  0
 30 68  1  0
 31 69  1  0
 32 70  1  0
M  CHG  1  14   1
M  END
>  <UniqueID>  (1) 
1

>  <SMILES>  (1) 
CCOC(=O)C1=C(COC[C@H](O)C[NH+](CC)CC)N=C(C)[C@H](C(=O)OC)C1c1ccccc1Cl

>  <Energy>  (1) 
85.5546635870269

>  <Genealogy>  (1) 
CCOC(=O)C1=C(COCC(O)C[NH+](CC)CC)N=C(C)C(C(=O)OC)C1c1ccccc1Cl (protonated)
CCOC(=O)C1=C(COC[C@H](O)C[NH+](CC)CC)N=C(C)[C@H](C(=O)OC)C1c1ccccc1Cl (chirality)
CCOC(=O)C1=C(COC[C@H](O)C[NH+](CC)CC)N=C(C)[C@H](C(=O)OC)C1c1ccccc1Cl (3D coordinates assigned)
CCOC(=O)C1=C(COC[C@H](O)C[NH+](CC)CC)N=C(C)[C@H](C(=O)OC)C1c1ccccc1Cl (nonaromatic ring conformer: 85.5546635870269 kcal/mol)

>  <smiles>  (1) 
CCOC(=O)C1=C(COCC(O)CN(CC)CC)N=C(C)C(C(=O)OC)C1c1ccccc1Cl

>  <score_type>  (1) 
oracle

>  <origin>  (1) 
adg

>  <m_score__min__energy>  (1) 
-6.0099999999999998

>  <m_primary>  (1) 
energy

$$$$
1:0
     RDKit          3D

 35 37  0  0  0  0  0  0  0  0999 V2000
   57.3850   30.6390   43.9530 C   0  0  0  0  0  0  0  0  0  0  0  0
   57.9510   29.3790   44.5450 C   0  0  0  0  0  0  0  0  0  0  0  0
   59.2770   29.2970   44.8380 C   0  0  0  0  0  0  0  0  0  0  0  0
   59.8610   28.0830   45.4670 C   0  0  0  0  0  0  0  0  0  0  0  0
   61.1050   27.9760   45.6350 O   0  0  0  0  0  0  0  0  0  0  0  0
   58.9070   27.0450   45.9870 C   0  0  2  0  0  0  0  0  0  0  0  0
   58.4320   27.4760   47.3970 C   0  0  0  0  0  0  0  0  0  0  0  0
   59.3680   25.6210   46.0510 C   0  0  0  0  0  0  0  0  0  0  0  0
   58.3610   24.8130   45.6920 C   0  0  0  0  0  0  0  0  0  0  0  0
   58.5080   23.4390   45.1530 C   0  0  0  0  0  0  0  0  0  0  0  0
   57.2890   23.2890   44.2370 C   0  0  0  0  0  0  0  0  0  0  0  0
   56.7450   24.7040   43.9740 C   0  0  0  0  0  0  0  0  0  0  0  0
   57.1600   25.5400   45.1950 C   0  0  1  0  0  0  0  0  0  0  0  0
   56.0860   25.5730   46.2010 N   0  0  0  0  0  0  0  0  0  0  0  0
   56.3050   25.1410   47.3510 O   0  0  0  0  0  0  0  0  0  0  0  0
   54.9660   26.3460   45.9920 O   0  0  0  0  0  0  0  0  0  0  0  0
   57.7950   26.9200   44.9260 C   0  0  1  0  0  0  0  0  0  0  0  0
   56.9890   28.2190   44.8090 C   0  0  0  0  0  0  0  0  0  0  0  0
   57.0795   31.3191   44.7618 H   0  0  0  0  0  0  0  0  0  0  0  0
   58.1499   31.1281   43.3319 H   0  0  0  0  0  0  0  0  0  0  0  0
   56.5113   30.3921   43.3319 H   0  0  0  0  0  0  0  0  0  0  0  0
   59.9324   30.1489   44.6041 H   0  0  0  0  0  0  0  0  0  0  0  0
   59.0187   26.9437   48.1602 H   0  0  0  0  0  0  0  0  0  0  0  0
   58.5735   28.5603   47.5160 H   0  0  0  0  0  0  0  0  0  0  0  0
   57.3665   27.2301   47.5160 H   0  0  0  0  0  0  0  0  0  0  0  0
   60.3748   25.2906   46.3463 H   0  0  0  0  0  0  0  0  0  0  0  0
   59.4438   23.3367   44.5839 H   0  0  0  0  0  0  0  0  0  0  0  0
   58.5540   22.6704   45.9386 H   0  0  0  0  0  0  0  0  0  0  0  0
   57.5851   22.8162   43.2890 H   0  0  0  0  0  0  0  0  0  0  0  0
   56.5220   22.6552   44.7060 H   0  0  0  0  0  0  0  0  0  0  0  0
   57.1855   25.1202   43.0560 H   0  0  0  0  0  0  0  0  0  0  0  0
   55.6539   24.7011   43.8346 H   0  0  0  0  0  0  0  0  0  0  0  0
   58.0864   26.8745   43.8663 H   0  0  0  0  0  0  0  0  0  0  0  0
   56.2741   28.1360   43.9771 H   0  0  0  0  0  0  0  0  0  0  0  0
   56.4363   28.3992   45.7428 H   0  0  0  0  0  0  0  0  0  0  0  0
  1  2  1  0
  2  3  2  0
  3  4  1  0
  4  5  2  0
  4  6  1  0
  6  7  1  1
  6  8  1  0
  8  9  2  0
  9 10  1  0
 10 11  1  0
 11 12  1  0
 12 13  1  0
 13 14  1  1
 14 15  2  0
 14 16  1  0
 13 17  1  0
 17 18  1  0
 18  2  1  0
 17  6  1  0
 13  9  1  0
  1 19  1  0
  1 20  1  0
  1 21  1  0
  3 22  1  0
  7 23  1  0
  7 24  1  0
  7 25  1  0
  8 26  1  0
 10 27  1  0
 10 28  1  0
 11 29  1  0
 11 30  1  0
 12 31  1  0
 12 32  1  0
 17 33  1  6
 18 34  1  0
 18 35  1  0
M  CHG  2  14   1  16  -1
M  END
>  <UniqueID>  (2) 
2

>  <SMILES>  (2) 
CC1=CC(=O)[C@]2(C)C=C3CCC[C@]3([N+](=O)[O-])C2C1

>  <Energy>  (2) 
68.67619680383325

>  <Genealogy>  (2) 
CC1=CC(=O)[C@]2(C)C=C3CCC[C@]3([N+](=O)[O-])C2C1 (chirality)
CC1=CC(=O)[C@]2(C)C=C3CCC[C@]3([N+](=O)[O-])C2C1 (3D coordinates assigned)
CC1=CC(=O)[C@]2(C)C=C3CCC[C@]3([N+](=O)[O-])C2C1 (nonaromatic ring conformer: 68.67619680383325 kcal/mol)

>  <smiles>  (2) 
CC1=CC(=O)C2(C)C=C3CCCC3([N+](=O)[O-])C2C1

>  <score_type>  (2) 
oracle

>  <origin>  (2) 
adg

>  <m_score__min__energy>  (2) 
-7.7199999999999998

>  <m_primary>  (2) 
energy

$$$$
2:0
     RDKit          3D

 63 66  0  0  0  0  0  0  0  0999 V2000
   63.7040   33.4460   49.6520 C   0  0  0  0  0  0  0  0  0  0  0  0
   62.7440   34.2140   48.7320 C   0  0  0  0  0  0  0  0  0  0  0  0
   62.6540   33.6770   47.3530 N   0  0  0  0  0  0  0  0  0  0  0  0
   63.3160   32.3720   47.1330 C   0  0  0  0  0  0  0  0  0  0  0  0
   62.3160   31.2170   47.1290 C   0  0  0  0  0  0  0  0  0  0  0  0
   61.3540   33.8920   46.6730 C   0  0  0  0  0  0  0  0  0  0  0  0
   60.3890   34.8480   47.3920 C   0  0  0  0  0  0  0  0  0  0  0  0
   59.5620   35.4990   46.4480 O   0  0  0  0  0  0  0  0  0  0  0  0
   59.2520   34.6520   45.3570 C   0  0  0  0  0  0  0  0  0  0  0  0
   57.7970   34.1570   45.4050 C   0  0  0  0  0  0  0  0  0  0  0  0
   57.5710   33.2350   46.5200 N   0  0  0  0  0  0  0  0  0  0  0  0
   58.0650   31.8920   46.4440 C   0  0  0  0  0  0  0  0  0  0  0  0
   57.8180   31.0840   45.3090 C   0  0  0  0  0  0  0  0  0  0  0  0
   58.2300   29.7070   45.3170 C   0  0  0  0  0  0  0  0  0  0  0  0
   58.9370   29.2000   46.3950 N   0  0  0  0  0  0  0  0  0  0  0  0
   59.4090   27.8080   46.4250 C   0  0  0  0  0  0  0  0  0  0  0  0
   59.1730   30.0110   47.4660 C   0  0  0  0  0  0  0  0  0  0  0  0
   59.8100   29.6750   48.5720 O   0  0  0  0  0  0  0  0  0  0  0  0
   59.8340   30.7470   49.3330 C   0  0  0  0  0  0  0  0  0  0  0  0
   60.4120   30.8750   50.5940 C   0  0  0  0  0  0  0  0  0  0  0  0
   60.3460   32.1300   51.2260 C   0  0  0  0  0  0  0  0  0  0  0  0
   59.7150   33.2210   50.5870 C   0  0  0  0  0  0  0  0  0  0  0  0
   59.1370   33.0650   49.3140 C   0  0  0  0  0  0  0  0  0  0  0  0
   59.2020   31.8070   48.7190 C   0  0  0  0  0  0  0  0  0  0  0  0
   58.7620   31.3220   47.5030 C   0  0  0  0  0  0  0  0  0  0  0  0
   57.9720   28.8300   44.1000 C   0  0  0  0  0  0  0  0  0  0  0  0
   56.8840   29.3730   43.1740 C   0  0  0  0  0  0  0  0  0  0  0  0
   57.1350   30.8450   42.8750 C   0  0  0  0  0  0  0  0  0  0  0  0
   57.0160   31.6630   44.1590 C   0  0  0  0  0  0  0  0  0  0  0  0
   63.4480   33.6508   50.7020 H   0  0  0  0  0  0  0  0  0  0  0  0
   63.6148   32.3672   49.4565 H   0  0  0  0  0  0  0  0  0  0  0  0
   64.7369   33.7699   49.4565 H   0  0  0  0  0  0  0  0  0  0  0  0
   61.7397   34.1820   49.1796 H   0  0  0  0  0  0  0  0  0  0  0  0
   63.1433   35.2353   48.6450 H   0  0  0  0  0  0  0  0  0  0  0  0
   63.8350   32.3959   46.1634 H   0  0  0  0  0  0  0  0  0  0  0  0
   64.0236   32.2062   47.9587 H   0  0  0  0  0  0  0  0  0  0  0  0
   62.0742   30.9377   48.1651 H   0  0  0  0  0  0  0  0  0  0  0  0
   61.3979   31.5287   46.6095 H   0  0  0  0  0  0  0  0  0  0  0  0
   62.7559   30.3529   46.6095 H   0  0  0  0  0  0  0  0  0  0  0  0
   61.5570   34.3023   45.6728 H   0  0  0  0  0  0  0  0  0  0  0  0
   60.8544   32.9122   46.6533 H   0  0  0  0  0  0  0  0  0  0  0  0
   59.7626   34.2753   48.0917 H   0  0  0  0  0  0  0  0  0  0  0  0
   60.9705   35.6014   47.9435 H   0  0  0  0  0  0  0  0  0  0  0  0
   59.4068   35.2083   44.4208 H   0  0  0  0  0  0  0  0  0  0  0  0
   59.9111   33.7731   45.4123 H   0  0  0  0  0  0  0  0  0  0  0  0
   57.1299   35.0241   45.5196 H   0  0  0  0  0  0  0  0  0  0  0  0
   57.5890   33.6179   44.4690 H   0  0  0  0  0  0  0  0  0  0  0  0
   57.3080   33.6000   47.4630 H   0  0  0  0  0  0  0  0  0  0  0  0
   59.5199   27.4809   47.4694 H   0  0  0  0  0  0  0  0  0  0  0  0
   58.6795   27.1624   45.9140 H   0  0  0  0  0  0  0  0  0  0  0  0
   60.3807   27.7392   45.9140 H   0  0  0  0  0  0  0  0  0  0  0  0
   60.9051   30.0206   51.0808 H   0  0  0  0  0  0  0  0  0  0  0  0
   60.7885   32.2630   52.2242 H   0  0  0  0  0  0  0  0  0  0  0  0
   59.6755   34.1992   51.0885 H   0  0  0  0  0  0  0  0  0  0  0  0
   58.6493   33.9093   48.8047 H   0  0  0  0  0  0  0  0  0  0  0  0
   58.9071   28.7470   43.5266 H   0  0  0  0  0  0  0  0  0  0  0  0
   57.6219   27.8561   44.4727 H   0  0  0  0  0  0  0  0  0  0  0  0
   56.8912   28.8045   42.2323 H   0  0  0  0  0  0  0  0  0  0  0  0
   55.9068   29.2684   43.6681 H   0  0  0  0  0  0  0  0  0  0  0  0
   58.1457   30.9654   42.4580 H   0  0  0  0  0  0  0  0  0  0  0  0
   56.3888   31.1997   42.1488 H   0  0  0  0  0  0  0  0  0  0  0  0
   57.3764   32.6829   43.9592 H   0  0  0  0  0  0  0  0  0  0  0  0
   55.9576   31.6519   44.4585 H   0  0  0  0  0  0  0  0  0  0  0  0
  1  2  1  0
  2  3  1  0
  3  4  1  0
  4  5  1  0
  3  6  1  0
  6  7  1  0
  7  8  1  0
  8  9  1  0
  9 10  1  0
 10 11  1  0
 11 12  1  0
 12 13  2  0
 13 14  1  0
 14 15  2  0
 15 16  1  0
 15 17  1  0
 17 18  1  0
 18 19  1  0
 19 20  2  0
 20 21  1  0
 21 22  2  0
 22 23  1  0
 23 24  2  0
 24 25  1  0
 14 26  1  0
 26 27  1  0
 27 28  1  0
 28 29  1  0
 25 12  1  0
 29 13  1  0
 25 17  2  0
 24 19  1  0
  1 30  1  0
  1 31  1  0
  1 32  1  0
  2 33  1  0
  2 34  1  0
  4 35  1  0
  4 36  1  0
  5 37  1  0
  5 38  1  0
  5 39  1  0
  6 40  1  0
  6 41  1  0
  7 42  1  0
  7 43  1  0
  9 44  1  0
  9 45  1  0
 10 46  1  0
 10 47  1  0
 11 48  1  0
 16 49  1  0
 16 50  1  0
 16 51  1  0
 20 52  1  0
 21 53  1  0
 22 54  1  0
 23 55  1  0
 26 56  1  0
 26 57  1  0
 27 58  1  0
 27 59  1  0
 28 60  1  0
 28 61  1  0
 29 62  1  0
 29 63  1  0
M  CHG  1  15   1
M  END
>  <UniqueID>  (3) 
3

>  <SMILES>  (3) 
CCN(CC)CCOCCNc1c2c([n+](C)c3oc4ccccc4c13)CCCC2

>  <Energy>  (3) 
122.51158776395465

>  <Genealogy>  (3) 
CCN(CC)CCOCCNc1c2c([n+](C)c3oc4ccccc4c13)CCCC2 (3D coordinates assigned)
CCN(CC)CCOCCNc1c2c([n+](C)c3oc4ccccc4c13)CCCC2 (nonaromatic ring conformer: 122.51158776395465 kcal/mol)

>  <smiles>  (3) 
CCN(CC)CCOCCNc1c2c([n+](C)c3oc4ccccc4c13)CCCC2

>  <score_type>  (3) 
oracle

>  <origin>  (3) 
adg

>  <m_score__min__energy>  (3) 
-6.4100000000000001

>  <m_primary>  (3) 
energy

$$$$
3:0
     RDKit          3D

 43 45  0  0  0  0  0  0  0  0999 V2000
   65.9320   32.7040   50.1400 C   0  0  0  0  0  0  0  0  0  0  0  0
   64.4380   33.6480   50.5710 S   0  0  0  0  0  0  0  0  0  0  0  0
   63.5530   33.1280   49.0980 C   0  0  0  0  0  0  0  0  0  0  0  0
   64.1340   32.9490   47.9010 N   0  0  0  0  0  0  0  0  0  0  0  0
   63.1990   32.5760   47.0420 N   0  0  0  0  0  0  0  0  0  0  0  0
   62.0400   32.5380   47.7340 C   0  0  0  0  0  0  0  0  0  0  0  0
   60.7490   32.1700   47.1130 C   0  0  0  0  0  0  0  0  0  0  0  0
   60.6480   30.9790   46.3780 C   0  0  0  0  0  0  0  0  0  0  0  0
   59.4420   30.6210   45.7690 C   0  0  0  0  0  0  0  0  0  0  0  0
   58.3200   31.4610   45.8740 C   0  0  0  0  0  0  0  0  0  0  0  0
   57.0630   31.1350   45.2660 N   0  0  0  0  0  0  0  0  0  0  0  0
   56.6560   29.6000   44.5660 S   0  0  0  0  0  0  0  0  0  0  0  0
   55.1900   29.3400   44.7710 O   0  0  0  0  0  0  0  0  0  0  0  0
   56.9780   29.6350   43.0990 O   0  0  0  0  0  0  0  0  0  0  0  0
   57.5890   28.3100   45.3420 C   0  0  0  0  0  0  0  0  0  0  0  0
   57.7570   28.3350   46.7370 C   0  0  0  0  0  0  0  0  0  0  0  0
   58.4890   27.3380   47.3840 C   0  0  0  0  0  0  0  0  0  0  0  0
   59.0620   26.3030   46.6480 C   0  0  0  0  0  0  0  0  0  0  0  0
   58.9050   26.2600   45.2620 C   0  0  0  0  0  0  0  0  0  0  0  0
   58.1650   27.2520   44.5940 C   0  0  0  0  0  0  0  0  0  0  0  0
   58.0280   27.1740   43.0970 C   0  0  0  0  0  0  0  0  0  0  0  0
   58.4270   32.6590   46.5860 C   0  0  0  0  0  0  0  0  0  0  0  0
   59.6330   33.0180   47.1970 C   0  0  0  0  0  0  0  0  0  0  0  0
   62.2330   32.8620   49.0370 N   0  0  0  0  0  0  0  0  0  0  0  0
   61.2670   32.9080   50.1340 C   0  0  0  0  0  0  0  0  0  0  0  0
   66.4409   32.3825   51.0607 H   0  0  0  0  0  0  0  0  0  0  0  0
   65.6495   31.8201   49.5493 H   0  0  0  0  0  0  0  0  0  0  0  0
   66.6090   33.3386   49.5493 H   0  0  0  0  0  0  0  0  0  0  0  0
   65.1420   33.0800   47.6650 H   0  0  0  0  0  0  0  0  0  0  0  0
   61.5248   30.3220   46.2803 H   0  0  0  0  0  0  0  0  0  0  0  0
   59.3707   29.6788   45.2057 H   0  0  0  0  0  0  0  0  0  0  0  0
   57.3071   29.1485   47.3250 H   0  0  0  0  0  0  0  0  0  0  0  0
   58.6136   27.3695   48.4765 H   0  0  0  0  0  0  0  0  0  0  0  0
   59.6389   25.5188   47.1601 H   0  0  0  0  0  0  0  0  0  0  0  0
   59.3643   25.4427   44.6867 H   0  0  0  0  0  0  0  0  0  0  0  0
   57.0983   26.6447   42.8410 H   0  0  0  0  0  0  0  0  0  0  0  0
   57.9984   28.1907   42.6780 H   0  0  0  0  0  0  0  0  0  0  0  0
   58.8872   26.6296   42.6780 H   0  0  0  0  0  0  0  0  0  0  0  0
   57.5554   33.3252   46.6665 H   0  0  0  0  0  0  0  0  0  0  0  0
   59.7074   33.9686   47.7455 H   0  0  0  0  0  0  0  0  0  0  0  0
   61.8019   32.8825   51.0949 H   0  0  0  0  0  0  0  0  0  0  0  0
   60.6790   33.8352   50.0661 H   0  0  0  0  0  0  0  0  0  0  0  0
   60.5935   32.0409   50.0661 H   0  0  0  0  0  0  0  0  0  0  0  0
  1  2  1  0
  2  3  1  0
  3  4  2  0
  4  5  1  0
  5  6  2  0
  6  7  1  0
  7  8  2  0
  8  9  1  0
  9 10  2  0
 10 11  1  0
 11 12  1  0
 12 13  2  0
 12 14  2  0
 12 15  1  0
 15 16  2  0
 16 17  1  0
 17 18  2  0
 18 19  1  0
 19 20  2  0
 20 21  1  0
 10 22  1  0
 22 23  2  0
  6 24  1  0
 24 25  1  0
 24  3  1  0
 23  7  1  0
 20 15  1  0
  1 26  1  0
  1 27  1  0
  1 28  1  0
  4 29  1  0
  8 30  1  0
  9 31  1  0
 16 32  1  0
 17 33  1  0
 18 34  1  0
 19 35  1  0
 21 36  1  0
 21 37  1  0
 21 38  1  0
 22 39  1  0
 23 40  1  0
 25 41  1  0
 25 42  1  0
 25 43  1  0
M  CHG  2   4   1  11  -1
M  END
>  <UniqueID>  (4) 
4

>  <SMILES>  (4) 
CSc1[nH+]nc(-c2ccc([N-]S(=O)(=O)c3ccccc3C)cc2)n1C

>  <Energy>  (4) 
86.2954392868626

>  <Genealogy>  (4) 
CSc1[nH+]nc(-c2ccc([N-]S(=O)(=O)c3ccccc3C)cc2)n1C (protonated)
CSc1[nH+]nc(-c2ccc([N-]S(=O)(=O)c3ccccc3C)cc2)n1C (3D coordinates assigned)
CSc1[nH+]nc(-c2ccc([N-]S(=O)(=O)c3ccccc3C)cc2)n1C (optimized conformer: 86.2954392868626 kcal/mol)

>  <smiles>  (4) 
CSc1nnc(-c2ccc(NS(=O)(=O)c3ccccc3C)cc2)n1C

>  <score_type>  (4) 
oracle

>  <origin>  (4) 
adg

>  <m_score__min__energy>  (4) 
-8.8300000000000001

>  <m_primary>  (4) 
energy

$$$$
4:0
     RDKit          3D

 74 77  0  0  0  0  0  0  0  0999 V2000
   55.5390   30.6160   52.0070 C   0  0  0  0  0  0  0  0  0  0  0  0
   57.0270   30.6580   51.6830 C   0  0  0  0  0  0  0  0  0  0  0  0
   57.4030   32.0000   51.2240 N   0  0  0  0  0  0  0  0  0  0  0  0
   57.4750   32.9290   52.3580 C   0  0  0  0  0  0  0  0  0  0  0  0
   58.8170   33.6650   52.3620 C   0  0  0  0  0  0  0  0  0  0  0  0
   59.7550   32.9860   51.5460 O   0  0  0  0  0  0  0  0  0  0  0  0
   60.3570   33.8730   50.6250 C   0  0  0  0  0  0  0  0  0  0  0  0
   59.7960   33.6200   49.2230 C   0  0  0  0  0  0  0  0  0  0  0  0
   58.7800   32.5450   49.1920 N   0  0  0  0  0  0  0  0  0  0  0  0
   58.9190   31.6830   48.0210 C   0  0  0  0  0  0  0  0  0  0  0  0
   58.4760   32.1390   46.7380 C   0  0  0  0  0  0  0  0  0  0  0  0
   57.8620   33.4090   46.5460 C   0  0  0  0  0  0  0  0  0  0  0  0
   57.4160   33.8220   45.2930 C   0  0  0  0  0  0  0  0  0  0  0  0
   57.5560   32.9910   44.1960 C   0  0  0  0  0  0  0  0  0  0  0  0
   58.1500   31.7440   44.3430 C   0  0  0  0  0  0  0  0  0  0  0  0
   58.6390   31.3000   45.5990 C   0  0  0  0  0  0  0  0  0  0  0  0
   59.2300   30.0660   45.7250 N   0  0  0  0  0  0  0  0  0  0  0  0
   59.6910   29.3390   44.5210 C   0  0  0  0  0  0  0  0  0  0  0  0
   59.4160   29.5110   46.9700 C   0  0  0  0  0  0  0  0  0  0  0  0
   59.6210   28.1150   47.1010 C   0  0  0  0  0  0  0  0  0  0  0  0
   59.9070   27.5400   48.3260 C   0  0  0  0  0  0  0  0  0  0  0  0
   60.0370   28.3370   49.4470 C   0  0  0  0  0  0  0  0  0  0  0  0
   59.8180   29.7160   49.3770 C   0  0  0  0  0  0  0  0  0  0  0  0
   60.1370   30.4610   50.5570 N   0  0  0  0  0  0  0  0  0  0  0  0
   61.2850   30.1060   51.3970 C   0  0  0  0  0  0  0  0  0  0  0  0
   62.6220   30.2810   50.6530 C   0  0  0  0  0  0  0  0  0  0  0  0
   63.0280   31.7550   50.4730 C   0  0  0  0  0  0  0  0  0  0  0  0
   63.4580   32.0420   49.0870 N   0  0  0  0  0  0  0  0  0  0  0  0
   63.7350   33.4650   48.8540 C   0  0  0  0  0  0  0  0  0  0  0  0
   63.3860   33.7490   47.4100 C   0  0  0  0  0  0  0  0  0  0  0  0
   62.2670   32.7830   47.1030 C   0  0  0  0  0  0  0  0  0  0  0  0
   62.4340   31.6460   48.1040 C   0  0  0  0  0  0  0  0  0  0  0  0
   59.3920   30.3270   48.1430 C   0  0  0  0  0  0  0  0  0  0  0  0
   55.4013   30.6121   53.0983 H   0  0  0  0  0  0  0  0  0  0  0  0
   55.0453   31.5006   51.5783 H   0  0  0  0  0  0  0  0  0  0  0  0
   55.0960   29.7050   51.5783 H   0  0  0  0  0  0  0  0  0  0  0  0
   57.6035   30.4069   52.5855 H   0  0  0  0  0  0  0  0  0  0  0  0
   57.2439   29.9302   50.8872 H   0  0  0  0  0  0  0  0  0  0  0  0
   56.6490   32.3410   50.5780 H   0  0  0  0  0  0  0  0  0  0  0  0
   56.6596   33.6629   52.2773 H   0  0  0  0  0  0  0  0  0  0  0  0
   57.3791   32.3578   53.2932 H   0  0  0  0  0  0  0  0  0  0  0  0
   58.6722   34.6849   51.9761 H   0  0  0  0  0  0  0  0  0  0  0  0
   59.2008   33.7016   53.3922 H   0  0  0  0  0  0  0  0  0  0  0  0
   60.1431   34.9101   50.9228 H   0  0  0  0  0  0  0  0  0  0  0  0
   61.4445   33.7078   50.6176 H   0  0  0  0  0  0  0  0  0  0  0  0
   59.3345   34.5491   48.8572 H   0  0  0  0  0  0  0  0  0  0  0  0
   60.6338   33.2993   48.5864 H   0  0  0  0  0  0  0  0  0  0  0  0
   58.7760   32.0260   50.0900 H   0  0  0  0  0  0  0  0  0  0  0  0
   57.8260   32.9490   49.2310 H   0  0  0  0  0  0  0  0  0  0  0  0
   57.7368   34.0804   47.4083 H   0  0  0  0  0  0  0  0  0  0  0  0
   56.9510   34.8119   45.1753 H   0  0  0  0  0  0  0  0  0  0  0  0
   57.1974   33.3173   43.2086 H   0  0  0  0  0  0  0  0  0  0  0  0
   58.2434   31.0861   43.4664 H   0  0  0  0  0  0  0  0  0  0  0  0
   60.2570   28.4464   44.8259 H   0  0  0  0  0  0  0  0  0  0  0  0
   58.8208   29.0342   43.9211 H   0  0  0  0  0  0  0  0  0  0  0  0
   60.3378   29.9961   43.9211 H   0  0  0  0  0  0  0  0  0  0  0  0
   59.5512   27.4748   46.2092 H   0  0  0  0  0  0  0  0  0  0  0  0
   60.0307   26.4500   48.4076 H   0  0  0  0  0  0  0  0  0  0  0  0
   60.3167   27.8803   50.4078 H   0  0  0  0  0  0  0  0  0  0  0  0
   59.3350   30.9120   51.0530 H   0  0  0  0  0  0  0  0  0  0  0  0
   61.2869   30.7524   52.2870 H   0  0  0  0  0  0  0  0  0  0  0  0
   61.1874   29.0460   51.6744 H   0  0  0  0  0  0  0  0  0  0  0  0
   63.4098   29.7688   51.2248 H   0  0  0  0  0  0  0  0  0  0  0  0
   62.4952   29.8520   49.6481 H   0  0  0  0  0  0  0  0  0  0  0  0
   62.1667   32.3938   50.7179 H   0  0  0  0  0  0  0  0  0  0  0  0
   63.8760   31.9599   51.1430 H   0  0  0  0  0  0  0  0  0  0  0  0
   63.1182   34.0848   49.5213 H   0  0  0  0  0  0  0  0  0  0  0  0
   64.7902   33.6996   49.0579 H   0  0  0  0  0  0  0  0  0  0  0  0
   63.0486   34.7888   47.2873 H   0  0  0  0  0  0  0  0  0  0  0  0
   64.2466   33.6251   46.7361 H   0  0  0  0  0  0  0  0  0  0  0  0
   61.2898   33.2709   47.2331 H   0  0  0  0  0  0  0  0  0  0  0  0
   62.3070   32.4247   46.0638 H   0  0  0  0  0  0  0  0  0  0  0  0
   61.4790   31.4585   48.6167 H   0  0  0  0  0  0  0  0  0  0  0  0
   62.7421   30.7263   47.5851 H   0  0  0  0  0  0  0  0  0  0  0  0
  1  2  1  0
  2  3  1  0
  3  4  1  0
  4  5  1  0
  5  6  1  0
  6  7  1  0
  7  8  1  0
  8  9  1  0
  9 10  1  0
 10 11  2  0
 11 12  1  0
 12 13  2  0
 13 14  1  0
 14 15  2  0
 15 16  1  0
 16 17  2  0
 17 18  1  0
 17 19  1  0
 19 20  2  0
 20 21  1  0
 21 22  2  0
 22 23  1  0
 23 24  1  0
 24 25  1  0
 25 26  1  0
 26 27  1  0
 27 28  1  0
 28 29  1  0
 29 30  1  0
 30 31  1  0
 31 32  1  0
 23 33  2  0
 33 10  1  0
 16 11  1  0
 33 19  1  0
 32 28  1  0
  1 34  1  0
  1 35  1  0
  1 36  1  0
  2 37  1  0
  2 38  1  0
  3 39  1  0
  4 40  1  0
  4 41  1  0
  5 42  1  0
  5 43  1  0
  7 44  1  0
  7 45  1  0
  8 46  1  0
  8 47  1  0
  9 48  1  0
  9 49  1  0
 12 50  1  0
 13 51  1  0
 14 52  1  0
 15 53  1  0
 18 54  1  0
 18 55  1  0
 18 56  1  0
 20 57  1  0
 21 58  1  0
 22 59  1  0
 24 60  1  0
 25 61  1  0
 25 62  1  0
 26 63  1  0
 26 64  1  0
 27 65  1  0
 27 66  1  0
 29 67  1  0
 29 68  1  0
 30 69  1  0
 30 70  1  0
 31 71  1  0
 31 72  1  0
 32 73  1  0
 32 74  1  0
M  CHG  2   9   1  17   1
M  END
>  <UniqueID>  (5) 
5

>  <SMILES>  (5) 
CCNCCOCC[NH2+]c1c2ccccc2[n+](C)c2cccc(NCCCN3CCCC3)c12

>  <Energy>  (5) 
117.62118271806189

>  <Genealogy>  (5) 
CCNCCOCC[NH2+]c1c2ccccc2[n+](C)c2cccc(NCCCN3CCCC3)c12 (protonated)
CCNCCOCC[NH2+]c1c2ccccc2[n+](C)c2cccc(NCCCN3CCCC3)c12 (3D coordinates assigned)
CCNCCOCC[NH2+]c1c2ccccc2[n+](C)c2cccc(NCCCN3CCCC3)c12 (nonaromatic ring conformer: 117.62118271806189 kcal/mol)

>  <smiles>  (5) 
CCNCCOCCNc1c2ccccc2[n+](C)c2cccc(NCCCN3CCCC3)c12

>  <score_type>  (5) 
oracle

>  <origin>  (5) 
adg

>  <m_score__min__energy>  (5) 
-3.8300000000000001

>  <m_primary>  (5) 
energy

$$$$
5:0
     RDKit          3D

 70 72  0  0  0  0  0  0  0  0999 V2000
   63.5150   33.8610   50.7840 C   0  0  0  0  0  0  0  0  0  0  0  0
   62.6880   34.3770   49.5960 C   0  0  0  0  0  0  0  0  0  0  0  0
   62.2360   33.3170   48.6640 N   0  0  0  0  0  0  0  0  0  0  0  0
   63.1320   32.1400   48.6440 C   0  0  0  0  0  0  0  0  0  0  0  0
   63.3740   31.6700   47.2110 C   0  0  0  0  0  0  0  0  0  0  0  0
   61.9200   33.8330   47.3120 C   0  0  0  0  0  0  0  0  0  0  0  0
   60.4170   34.1200   47.1790 C   0  0  0  0  0  0  0  0  0  0  0  0
   59.6110   33.1710   47.9710 N   0  0  0  0  0  0  0  0  0  0  0  0
   59.3660   31.9460   47.2310 C   0  0  0  0  0  0  0  0  0  0  0  0
   58.7620   32.0530   45.9400 C   0  0  0  0  0  0  0  0  0  0  0  0
   58.3190   33.2980   45.4130 C   0  0  0  0  0  0  0  0  0  0  0  0
   57.8120   33.4020   44.1210 C   0  0  0  0  0  0  0  0  0  0  0  0
   57.7290   32.2810   43.3150 C   0  0  0  0  0  0  0  0  0  0  0  0
   58.1110   31.0410   43.8130 C   0  0  0  0  0  0  0  0  0  0  0  0
   58.5870   30.8940   45.1450 C   0  0  0  0  0  0  0  0  0  0  0  0
   58.8840   29.6560   45.6550 N   0  0  0  0  0  0  0  0  0  0  0  0
   58.3710   28.4450   44.9710 C   0  0  0  0  0  0  0  0  0  0  0  0
   59.6060   29.5340   46.8250 C   0  0  0  0  0  0  0  0  0  0  0  0
   60.1880   28.2920   47.1510 C   0  0  0  0  0  0  0  0  0  0  0  0
   60.7330   28.0550   48.3910 C   0  0  0  0  0  0  0  0  0  0  0  0
   60.7610   29.0530   49.3530 C   0  0  0  0  0  0  0  0  0  0  0  0
   61.1290   28.6960   50.7010 N   0  0  0  0  0  0  0  0  0  0  0  0
   62.2720   29.3630   51.3320 C   0  0  0  0  0  0  0  0  0  0  0  0
   60.7830   27.3570   51.1820 C   0  0  0  0  0  0  0  0  0  0  0  0
   60.3700   30.3740   49.0190 C   0  0  0  0  0  0  0  0  0  0  0  0
   60.4820   31.3590   50.0680 N   0  0  0  0  0  0  0  0  0  0  0  0
   59.4770   31.6060   51.1270 C   0  0  2  0  0  0  0  0  0  0  0  0
   58.1970   30.7750   50.9550 C   0  0  0  0  0  0  0  0  0  0  0  0
   59.1920   33.1090   51.3020 C   0  0  0  0  0  0  0  0  0  0  0  0
   59.7820   33.8650   50.2860 O   0  0  0  0  0  0  0  0  0  0  0  0
   59.7850   30.6490   47.7140 C   0  0  0  0  0  0  0  0  0  0  0  0
   63.0321   34.1623   51.7253 H   0  0  0  0  0  0  0  0  0  0  0  0
   63.5770   32.7637   50.7385 H   0  0  0  0  0  0  0  0  0  0  0  0
   64.5279   34.2877   50.7385 H   0  0  0  0  0  0  0  0  0  0  0  0
   61.7992   34.8904   49.9916 H   0  0  0  0  0  0  0  0  0  0  0  0
   63.3452   35.0450   49.0199 H   0  0  0  0  0  0  0  0  0  0  0  0
   64.0944   32.4110   49.1025 H   0  0  0  0  0  0  0  0  0  0  0  0
   62.6567   31.3241   49.2083 H   0  0  0  0  0  0  0  0  0  0  0  0
   63.8775   30.6921   47.2259 H   0  0  0  0  0  0  0  0  0  0  0  0
   62.4109   31.5786   46.6875 H   0  0  0  0  0  0  0  0  0  0  0  0
   64.0079   32.4009   46.6875 H   0  0  0  0  0  0  0  0  0  0  0  0
   62.4819   34.7628   47.1397 H   0  0  0  0  0  0  0  0  0  0  0  0
   62.2026   33.0734   46.5682 H   0  0  0  0  0  0  0  0  0  0  0  0
   60.2159   35.1417   47.5334 H   0  0  0  0  0  0  0  0  0  0  0  0
   60.1377   34.0093   46.1208 H   0  0  0  0  0  0  0  0  0  0  0  0
   58.7360   33.5920   48.3100 H   0  0  0  0  0  0  0  0  0  0  0  0
   60.0810   32.9600   48.8770 H   0  0  0  0  0  0  0  0  0  0  0  0
   58.3785   34.1991   46.0411 H   0  0  0  0  0  0  0  0  0  0  0  0
   57.4766   34.3779   43.7400 H   0  0  0  0  0  0  0  0  0  0  0  0
   57.3615   32.3707   42.2821 H   0  0  0  0  0  0  0  0  0  0  0  0
   58.0438   30.1555   43.1638 H   0  0  0  0  0  0  0  0  0  0  0  0
   58.0575   27.7048   45.7219 H   0  0  0  0  0  0  0  0  0  0  0  0
   57.5104   28.7161   44.3418 H   0  0  0  0  0  0  0  0  0  0  0  0
   59.1644   28.0154   44.3418 H   0  0  0  0  0  0  0  0  0  0  0  0
   60.2066   27.4931   46.3951 H   0  0  0  0  0  0  0  0  0  0  0  0
   61.1508   27.0640   48.6219 H   0  0  0  0  0  0  0  0  0  0  0  0
   62.1723   29.3048   52.4259 H   0  0  0  0  0  0  0  0  0  0  0  0
   63.2033   28.8666   51.0217 H   0  0  0  0  0  0  0  0  0  0  0  0
   62.2979   30.4180   51.0217 H   0  0  0  0  0  0  0  0  0  0  0  0
   60.7816   27.3515   52.2820 H   0  0  0  0  0  0  0  0  0  0  0  0
   59.7842   27.0815   50.8127 H   0  0  0  0  0  0  0  0  0  0  0  0
   61.5233   26.6321   50.8127 H   0  0  0  0  0  0  0  0  0  0  0  0
   61.3150   31.9850   50.0450 H   0  0  0  0  0  0  0  0  0  0  0  0
   59.9249   31.2525   52.0674 H   0  0  0  0  0  0  0  0  0  0  0  0
   57.7940   30.5134   51.9445 H   0  0  0  0  0  0  0  0  0  0  0  0
   57.4510   31.3615   50.3987 H   0  0  0  0  0  0  0  0  0  0  0  0
   58.4292   29.8549   50.3987 H   0  0  0  0  0  0  0  0  0  0  0  0
   58.1042   33.2710   51.2820 H   0  0  0  0  0  0  0  0  0  0  0  0
   59.6189   33.4310   52.2633 H   0  0  0  0  0  0  0  0  0  0  0  0
   60.7310   33.5790   50.2450 H   0  0  0  0  0  0  0  0  0  0  0  0
  1  2  1  0
  2  3  1  0
  3  4  1  0
  4  5  1  0
  3  6  1  0
  6  7  1  0
  7  8  1  0
  8  9  1  0
  9 10  2  0
 10 11  1  0
 11 12  2  0
 12 13  1  0
 13 14  2  0
 14 15  1  0
 15 16  2  0
 16 17  1  0
 16 18  1  0
 18 19  2  0
 19 20  1  0
 20 21  2  0
 21 22  1  0
 22 23  1  0
 22 24  1  0
 21 25  1  0
 25 26  1  0
 26 27  1  0
 27 28  1  0
 27 29  1  0
 29 30  1  0
 25 31  2  0
 31  9  1  0
 15 10  1  0
 31 18  1  0
  1 32  1  0
  1 33  1  0
  1 34  1  0
  2 35  1  0
  2 36  1  0
  4 37  1  0
  4 38  1  0
  5 39  1  0
  5 40  1  0
  5 41  1  0
  6 42  1  0
  6 43  1  0
  7 44  1  0
  7 45  1  0
  8 46  1  0
  8 47  1  0
 11 48  1  0
 12 49  1  0
 13 50  1  0
 14 51  1  0
 17 52  1  0
 17 53  1  0
 17 54  1  0
 19 55  1  0
 20 56  1  0
 23 57  1  0
 23 58  1  0
 23 59  1  0
 24 60  1  0
 24 61  1  0
 24 62  1  0
 26 63  1  0
 27 64  1  1
 28 65  1  0
 28 66  1  0
 28 67  1  0
 29 68  1  0
 29 69  1  0
 30 70  1  0
M  CHG  2   8   1  16   1
M  END
>  <UniqueID>  (6) 
6

>  <SMILES>  (6) 
CCN(CC)CC[NH2+]c1c2ccccc2[n+](C)c2ccc(N(C)C)c(N[C@H](C)CO)c12

>  <Energy>  (6) 
119.70876119712271

>  <Genealogy>  (6) 
CCN(CC)CC[NH2+]c1c2ccccc2[n+](C)c2ccc(N(C)C)c(NC(C)CO)c12 (protonated)
CCN(CC)CC[NH2+]c1c2ccccc2[n+](C)c2ccc(N(C)C)c(N[C@H](C)CO)c12 (chirality)
CCN(CC)CC[NH2+]c1c2ccccc2[n+](C)c2ccc(N(C)C)c(N[C@H](C)CO)c12 (3D coordinates assigned)
CCN(CC)CC[NH2+]c1c2ccccc2[n+](C)c2ccc(N(C)C)c(N[C@H](C)CO)c12 (optimized conformer: 119.70876119712271 kcal/mol)

>  <smiles>  (6) 
CCN(CC)CCNc1c2ccccc2[n+](C)c2ccc(N(C)C)c(NC(C)CO)c12

>  <score_type>  (6) 
oracle

>  <origin>  (6) 
adg

>  <m_score__min__energy>  (6) 
-2.8399999999999999

>  <m_primary>  (6) 
energy

$$$$
6:0
     RDKit          3D

 57 59  0  0  0  0  0  0  0  0999 V2000
   63.3890   33.5420   46.5870 C   0  0  0  0  0  0  0  0  0  0  0  0
   63.3540   32.2030   47.3220 C   0  0  0  0  0  0  0  0  0  0  0  0
   62.5150   32.2890   48.5280 N   0  0  0  0  0  0  0  0  0  0  0  0
   62.7930   33.5180   49.2920 C   0  0  0  0  0  0  0  0  0  0  0  0
   61.6850   33.8260   50.3120 C   0  0  0  0  0  0  0  0  0  0  0  0
   61.5240   32.7280   51.3740 C   0  0  0  0  0  0  0  0  0  0  0  0
   61.2940   31.4150   50.7550 N   0  0  0  0  0  0  0  0  0  0  0  0
   59.8940   30.9910   50.9010 C   0  0  0  0  0  0  0  0  0  0  0  0
   59.1360   31.1710   49.5810 C   0  0  0  0  0  0  0  0  0  0  0  0
   60.0570   31.4920   48.4800 N   0  0  0  0  0  0  0  0  0  0  0  0
   59.3690   31.4260   47.1990 C   0  0  0  0  0  0  0  0  0  0  0  0
   59.2280   32.5860   46.3920 C   0  0  0  0  0  0  0  0  0  0  0  0
   59.8590   33.8100   46.7290 C   0  0  0  0  0  0  0  0  0  0  0  0
   59.6320   34.9650   45.9870 C   0  0  0  0  0  0  0  0  0  0  0  0
   58.7750   34.9340   44.8970 C   0  0  0  0  0  0  0  0  0  0  0  0
   58.1810   33.7360   44.5100 C   0  0  0  0  0  0  0  0  0  0  0  0
   58.4380   32.5270   45.2100 C   0  0  0  0  0  0  0  0  0  0  0  0
   57.9290   31.3220   44.7700 N   0  0  0  0  0  0  0  0  0  0  0  0
   57.3830   31.2130   43.3960 C   0  0  0  0  0  0  0  0  0  0  0  0
   57.9820   30.2040   45.5790 C   0  0  0  0  0  0  0  0  0  0  0  0
   57.2530   29.0290   45.2610 C   0  0  0  0  0  0  0  0  0  0  0  0
   57.3830   27.8540   46.0160 C   0  0  0  0  0  0  0  0  0  0  0  0
   56.6470   26.6660   45.6680 N   0  0  0  0  0  0  0  0  0  0  0  0
   57.2030   25.7240   45.0670 O   0  0  0  0  0  0  0  0  0  0  0  0
   55.3140   26.5490   45.9910 O   0  0  0  0  0  0  0  0  0  0  0  0
   58.2480   27.8500   47.1100 C   0  0  0  0  0  0  0  0  0  0  0  0
   58.9250   29.0060   47.4840 C   0  0  0  0  0  0  0  0  0  0  0  0
   58.7650   30.2140   46.7660 C   0  0  0  0  0  0  0  0  0  0  0  0
   63.4104   34.3621   47.3198 H   0  0  0  0  0  0  0  0  0  0  0  0
   64.2887   33.5905   45.9560 H   0  0  0  0  0  0  0  0  0  0  0  0
   62.4930   33.6374   45.9560 H   0  0  0  0  0  0  0  0  0  0  0  0
   62.9429   31.4343   46.6511 H   0  0  0  0  0  0  0  0  0  0  0  0
   64.3786   31.9404   47.6241 H   0  0  0  0  0  0  0  0  0  0  0  0
   62.7640   31.4840   49.1490 H   0  0  0  0  0  0  0  0  0  0  0  0
   63.7452   33.3946   49.8287 H   0  0  0  0  0  0  0  0  0  0  0  0
   62.8422   34.3558   48.5809 H   0  0  0  0  0  0  0  0  0  0  0  0
   61.9286   34.7712   50.8193 H   0  0  0  0  0  0  0  0  0  0  0  0
   60.7367   33.8894   49.7582 H   0  0  0  0  0  0  0  0  0  0  0  0
   62.4390   32.6816   51.9828 H   0  0  0  0  0  0  0  0  0  0  0  0
   60.6526   32.9745   51.9985 H   0  0  0  0  0  0  0  0  0  0  0  0
   61.8890   30.7150   51.2600 H   0  0  0  0  0  0  0  0  0  0  0  0
   59.8658   29.9307   51.1925 H   0  0  0  0  0  0  0  0  0  0  0  0
   59.4142   31.6105   51.6731 H   0  0  0  0  0  0  0  0  0  0  0  0
   58.6029   30.2387   49.3430 H   0  0  0  0  0  0  0  0  0  0  0  0
   58.4267   32.0037   49.6967 H   0  0  0  0  0  0  0  0  0  0  0  0
   60.8780   30.8510   48.4940 H   0  0  0  0  0  0  0  0  0  0  0  0
   60.4910   32.4310   48.6270 H   0  0  0  0  0  0  0  0  0  0  0  0
   60.5399   33.8473   47.5921 H   0  0  0  0  0  0  0  0  0  0  0  0
   60.1329   35.9039   46.2653 H   0  0  0  0  0  0  0  0  0  0  0  0
   58.5644   35.8574   44.3375 H   0  0  0  0  0  0  0  0  0  0  0  0
   57.5000   33.7254   43.6462 H   0  0  0  0  0  0  0  0  0  0  0  0
   56.3054   30.9979   43.4457 H   0  0  0  0  0  0  0  0  0  0  0  0
   57.5434   32.1609   42.8614 H   0  0  0  0  0  0  0  0  0  0  0  0
   57.8951   30.3994   42.8614 H   0  0  0  0  0  0  0  0  0  0  0  0
   56.5682   29.0398   44.4002 H   0  0  0  0  0  0  0  0  0  0  0  0
   58.3964   26.9229   47.6831 H   0  0  0  0  0  0  0  0  0  0  0  0
   59.5973   28.9803   48.3543 H   0  0  0  0  0  0  0  0  0  0  0  0
  1  2  1  0
  2  3  1  0
  3  4  1  0
  4  5  1  0
  5  6  1  0
  6  7  1  0
  7  8  1  0
  8  9  1  0
  9 10  1  0
 10 11  1  0
 11 12  2  0
 12 13  1  0
 13 14  2  0
 14 15  1  0
 15 16  2  0
 16 17  1  0
 17 18  2  0
 18 19  1  0
 18 20  1  0
 20 21  2  0
 21 22  1  0
 22 23  1  0
 23 24  2  0
 23 25  1  0
 22 26  2  0
 26 27  1  0
 27 28  2  0
 28 11  1  0
 17 12  1  0
 28 20  1  0
  1 29  1  0
  1 30  1  0
  1 31  1  0
  2 32  1  0
  2 33  1  0
  3 34  1  0
  4 35  1  0
  4 36  1  0
  5 37  1  0
  5 38  1  0
  6 39  1  0
  6 40  1  0
  7 41  1  0
  8 42  1  0
  8 43  1  0
  9 44  1  0
  9 45  1  0
 10 46  1  0
 10 47  1  0
 13 48  1  0
 14 49  1  0
 15 50  1  0
 16 51  1  0
 19 52  1  0
 19 53  1  0
 19 54  1  0
 21 55  1  0
 26 56  1  0
 27 57  1  0
M  CHG  4  10   1  18   1  23   1  25  -1
M  END
>  <UniqueID>  (7) 
7

>  <SMILES>  (7) 
CCNCCCNCC[NH2+]c1c2ccccc2[n+](C)c2cc([N+](=O)[O-])ccc12

>  <Energy>  (7) 
78.35378697828456

>  <Genealogy>  (7) 
CCNCCCNCC[NH2+]c1c2ccccc2[n+](C)c2cc([N+](=O)[O-])ccc12 (protonated)
CCNCCCNCC[NH2+]c1c2ccccc2[n+](C)c2cc([N+](=O)[O-])ccc12 (3D coordinates assigned)
CCNCCCNCC[NH2+]c1c2ccccc2[n+](C)c2cc([N+](=O)[O-])ccc12 (optimized conformer: 78.35378697828456 kcal/mol)

>  <smiles>  (7) 
CCNCCCNCCNc1c2ccccc2[n+](C)c2cc([N+](=O)[O-])ccc12

>  <score_type>  (7) 
oracle

>  <origin>  (7) 
adg

>  <m_score__min__energy>  (7) 
-4.2400000000000002

>  <m_primary>  (7) 
energy

$$$$
7:0
     RDKit          3D

 60 63  0  0  0  0  0  0  0  0999 V2000
   63.6750   33.2690   46.9060 C   0  0  0  0  0  0  0  0  0  0  0  0
   63.2220   32.3210   47.9770 C   0  0  0  0  0  0  0  0  0  0  0  0
   62.1590   31.4380   47.8990 C   0  0  0  0  0  0  0  0  0  0  0  0
   61.2170   31.2230   46.7550 C   0  0  0  0  0  0  0  0  0  0  0  0
   59.9860   30.5990   47.2620 N   0  0  0  0  0  0  0  0  0  0  0  0
   59.9440   29.1450   47.0130 C   0  0  0  0  0  0  0  0  0  0  0  0
   60.4360   28.8290   45.5870 C   0  0  0  0  0  0  0  0  0  0  0  0
   59.4850   29.3980   44.5120 C   0  0  0  0  0  0  0  0  0  0  0  0
   58.0440   29.3060   44.8700 N   0  0  0  0  0  0  0  0  0  0  0  0
   57.4220   30.6170   45.1610 C   0  0  0  0  0  0  0  0  0  0  0  0
   58.1750   31.7700   44.4650 C   0  0  0  0  0  0  0  0  0  0  0  0
   58.2040   33.0430   45.2200 N   0  0  0  0  0  0  0  0  0  0  0  0
   59.4410   33.8460   45.0380 C   0  0  0  0  0  0  0  0  0  0  0  0
   59.6210   34.9130   46.1220 C   0  0  0  0  0  0  0  0  0  0  0  0
   59.5710   34.2450   47.4620 C   0  0  0  0  0  0  0  0  0  0  0  0
   60.4690   34.5760   48.4880 C   0  0  0  0  0  0  0  0  0  0  0  0
   60.3910   33.9190   49.7210 C   0  0  0  0  0  0  0  0  0  0  0  0
   59.4140   32.9410   49.9350 C   0  0  0  0  0  0  0  0  0  0  0  0
   58.5080   32.6210   48.9190 C   0  0  0  0  0  0  0  0  0  0  0  0
   58.5940   33.2640   47.6740 C   0  0  0  0  0  0  0  0  0  0  0  0
   57.5990   32.9840   46.5770 C   0  0  0  0  0  0  0  0  0  0  0  0
   57.7640   28.2940   45.9080 C   0  0  0  0  0  0  0  0  0  0  0  0
   58.5070   28.5940   47.2250 C   0  0  0  0  0  0  0  0  0  0  0  0
   62.0350   30.9120   49.1720 C   0  0  0  0  0  0  0  0  0  0  0  0
   62.9820   31.4460   49.9690 N   0  0  0  0  0  0  0  0  0  0  0  0
   63.6910   32.2980   49.2430 N   0  0  0  0  0  0  0  0  0  0  0  0
   64.7840   33.0990   49.7840 C   0  0  0  0  0  0  0  0  0  0  0  0
   64.1049   34.1687   47.3705 H   0  0  0  0  0  0  0  0  0  0  0  0
   64.4365   32.7795   46.2811 H   0  0  0  0  0  0  0  0  0  0  0  0
   62.8157   33.5539   46.2811 H   0  0  0  0  0  0  0  0  0  0  0  0
   60.9759   32.1896   46.2886 H   0  0  0  0  0  0  0  0  0  0  0  0
   61.6850   30.5683   46.0051 H   0  0  0  0  0  0  0  0  0  0  0  0
   59.1790   31.0630   46.7820 H   0  0  0  0  0  0  0  0  0  0  0  0
   60.6138   28.6513   47.7324 H   0  0  0  0  0  0  0  0  0  0  0  0
   61.4340   29.2705   45.4489 H   0  0  0  0  0  0  0  0  0  0  0  0
   60.4673   27.7356   45.4710 H   0  0  0  0  0  0  0  0  0  0  0  0
   59.7354   30.4574   44.3543 H   0  0  0  0  0  0  0  0  0  0  0  0
   59.6277   28.7900   43.6065 H   0  0  0  0  0  0  0  0  0  0  0  0
   56.3809   30.6049   44.8059 H   0  0  0  0  0  0  0  0  0  0  0  0
   57.4647   30.7845   46.2473 H   0  0  0  0  0  0  0  0  0  0  0  0
   59.2136   31.4481   44.2985 H   0  0  0  0  0  0  0  0  0  0  0  0
   57.6277   31.9770   43.5335 H   0  0  0  0  0  0  0  0  0  0  0  0
   60.3070   33.1683   45.0647 H   0  0  0  0  0  0  0  0  0  0  0  0
   59.3592   34.3658   44.0720 H   0  0  0  0  0  0  0  0  0  0  0  0
   60.5925   35.4125   45.9928 H   0  0  0  0  0  0  0  0  0  0  0  0
   58.8214   35.6647   46.0464 H   0  0  0  0  0  0  0  0  0  0  0  0
   61.2327   35.3504   48.3234 H   0  0  0  0  0  0  0  0  0  0  0  0
   61.0994   34.1721   50.5236 H   0  0  0  0  0  0  0  0  0  0  0  0
   59.3583   32.4230   50.9038 H   0  0  0  0  0  0  0  0  0  0  0  0
   57.7281   31.8656   49.0953 H   0  0  0  0  0  0  0  0  0  0  0  0
   57.1797   31.9788   46.7312 H   0  0  0  0  0  0  0  0  0  0  0  0
   56.8234   33.7624   46.6274 H   0  0  0  0  0  0  0  0  0  0  0  0
   56.6821   28.2792   46.1064 H   0  0  0  0  0  0  0  0  0  0  0  0
   58.1145   27.3202   45.5353 H   0  0  0  0  0  0  0  0  0  0  0  0
   57.9279   29.3395   47.7897 H   0  0  0  0  0  0  0  0  0  0  0  0
   58.6019   27.6419   47.7676 H   0  0  0  0  0  0  0  0  0  0  0  0
   61.2819   30.1738   49.4850 H   0  0  0  0  0  0  0  0  0  0  0  0
   64.7485   33.0730   50.8831 H   0  0  0  0  0  0  0  0  0  0  0  0
   65.7446   32.6895   49.4384 H   0  0  0  0  0  0  0  0  0  0  0  0
   64.6828   34.1384   49.4384 H   0  0  0  0  0  0  0  0  0  0  0  0
  1  2  1  0
  2  3  2  0
  3  4  1  0
  4  5  1  0
  5  6  1  0
  6  7  1  0
  7  8  1  0
  8  9  1  0
  9 10  1  0
 10 11  1  0
 11 12  1  0
 12 13  1  0
 13 14  1  0
 14 15  1  0
 15 16  2  0
 16 17  1  0
 17 18  2  0
 18 19  1  0
 19 20  2  0
 20 21  1  0
  9 22  1  0
 22 23  1  0
  3 24  1  0
 24 25  2  0
 25 26  1  0
 26 27  1  0
 26  2  1  0
 23  6  1  0
 21 12  1  0
 20 15  1  0
  1 28  1  0
  1 29  1  0
  1 30  1  0
  4 31  1  0
  4 32  1  0
  5 33  1  0
  6 34  1  0
  7 35  1  0
  7 36  1  0
  8 37  1  0
  8 38  1  0
 10 39  1  0
 10 40  1  0
 11 41  1  0
 11 42  1  0
 13 43  1  0
 13 44  1  0
 14 45  1  0
 14 46  1  0
 16 47  1  0
 17 48  1  0
 18 49  1  0
 19 50  1  0
 21 51  1  0
 21 52  1  0
 22 53  1  0
 22 54  1  0
 23 55  1  0
 23 56  1  0
 24 57  1  0
 27 58  1  0
 27 59  1  0
 27 60  1  0
M  END
>  <UniqueID>  (8) 
8

>  <SMILES>  (8) 
Cc1c(CNC2CCN(CCN3CCc4ccccc4C3)CC2)cnn1C

>  <Energy>  (8) 
112.15136354608502

>  <Genealogy>  (8) 
Cc1c(CNC2CCN(CCN3CCc4ccccc4C3)CC2)cnn1C (3D coordinates assigned)
Cc1c(CNC2CCN(CCN3CCc4ccccc4C3)CC2)cnn1C (nonaromatic ring conformer: 112.15136354608502 kcal/mol)

>  <smiles>  (8) 
Cc1c(CNC2CCN(CCN3CCc4ccccc4C3)CC2)cnn1C

>  <score_type>  (8) 
oracle

>  <origin>  (8) 
adg

>  <m_score__min__energy>  (8) 
-8.4000000000000004

>  <m_primary>  (8) 
energy

$$$$
8:0
     RDKit          3D

 60 62  0  0  0  0  0  0  0  0999 V2000
   56.0220   25.1980   46.0940 C   0  0  0  0  0  0  0  0  0  0  0  0
   57.3820   25.5320   46.7000 C   0  0  0  0  0  0  0  0  0  0  0  0
   58.0580   26.6160   45.9500 N   0  0  0  0  0  0  0  0  0  0  0  0
   58.0460   26.3390   44.5000 C   0  0  0  0  0  0  0  0  0  0  0  0
   59.4520   26.7880   46.4250 C   0  0  0  0  0  0  0  0  0  0  0  0
   59.6680   28.2220   46.9150 C   0  0  0  0  0  0  0  0  0  0  0  0
   58.4170   28.9780   46.8810 N   0  0  0  0  0  0  0  0  0  0  0  0
   58.3860   30.3480   46.4350 C   0  0  0  0  0  0  0  0  0  0  0  0
   57.9650   30.6360   45.1260 C   0  0  0  0  0  0  0  0  0  0  0  0
   57.4400   29.6230   44.2960 C   0  0  0  0  0  0  0  0  0  0  0  0
   57.0080   29.9120   43.0450 N   0  0  0  0  0  0  0  0  0  0  0  0
   57.0590   31.1720   42.5520 C   0  0  0  0  0  0  0  0  0  0  0  0
   57.5650   32.2130   43.3300 C   0  0  0  0  0  0  0  0  0  0  0  0
   58.0380   31.9620   44.6420 C   0  0  0  0  0  0  0  0  0  0  0  0
   58.6170   32.9670   45.4670 C   0  0  0  0  0  0  0  0  0  0  0  0
   58.8040   34.2900   45.0100 C   0  0  0  0  0  0  0  0  0  0  0  0
   59.4330   35.2400   45.7980 C   0  0  0  0  0  0  0  0  0  0  0  0
   59.9310   34.8970   47.0420 C   0  0  0  0  0  0  0  0  0  0  0  0
   59.7750   33.5990   47.5470 C   0  0  0  0  0  0  0  0  0  0  0  0
   60.3660   33.2490   48.7740 O   0  0  0  0  0  0  0  0  0  0  0  0
   61.6480   32.6420   48.9540 C   0  0  0  0  0  0  0  0  0  0  0  0
   62.1720   32.1030   47.6190 C   0  0  0  0  0  0  0  0  0  0  0  0
   63.5070   32.6630   47.3180 N   0  0  0  0  0  0  0  0  0  0  0  0
   63.3930   33.7830   46.3710 C   0  0  0  0  0  0  0  0  0  0  0  0
   64.1680   33.1290   48.5470 C   0  0  0  0  0  0  0  0  0  0  0  0
   59.0430   32.6250   46.7910 C   0  0  0  0  0  0  0  0  0  0  0  0
   58.7810   31.3550   47.2810 N   0  0  0  0  0  0  0  0  0  0  0  0
   58.8750   31.0430   48.7220 C   0  0  0  0  0  0  0  0  0  0  0  0
   55.2952   25.0195   46.9002 H   0  0  0  0  0  0  0  0  0  0  0  0
   55.6810   26.0391   45.4725 H   0  0  0  0  0  0  0  0  0  0  0  0
   56.1094   24.2946   45.4725 H   0  0  0  0  0  0  0  0  0  0  0  0
   57.2399   25.8531   47.7424 H   0  0  0  0  0  0  0  0  0  0  0  0
   58.0128   24.6322   46.6505 H   0  0  0  0  0  0  0  0  0  0  0  0
   57.9989   25.2525   44.3346 H   0  0  0  0  0  0  0  0  0  0  0  0
   57.1678   26.8179   44.0425 H   0  0  0  0  0  0  0  0  0  0  0  0
   58.9624   26.7402   44.0425 H   0  0  0  0  0  0  0  0  0  0  0  0
   59.6435   26.0883   47.2519 H   0  0  0  0  0  0  0  0  0  0  0  0
   60.1431   26.5837   45.5940 H   0  0  0  0  0  0  0  0  0  0  0  0
   60.0458   28.1968   47.9478 H   0  0  0  0  0  0  0  0  0  0  0  0
   60.3949   28.7145   46.2524 H   0  0  0  0  0  0  0  0  0  0  0  0
   57.5160   28.4770   47.0390 H   0  0  0  0  0  0  0  0  0  0  0  0
   57.3810   28.5895   44.6680 H   0  0  0  0  0  0  0  0  0  0  0  0
   56.6995   31.3756   41.5326 H   0  0  0  0  0  0  0  0  0  0  0  0
   57.5971   33.2344   42.9230 H   0  0  0  0  0  0  0  0  0  0  0  0
   58.4435   34.5715   44.0096 H   0  0  0  0  0  0  0  0  0  0  0  0
   59.5369   36.2723   45.4326 H   0  0  0  0  0  0  0  0  0  0  0  0
   60.4567   35.6534   47.6432 H   0  0  0  0  0  0  0  0  0  0  0  0
   62.3526   33.3908   49.3449 H   0  0  0  0  0  0  0  0  0  0  0  0
   61.5528   31.8078   49.6647 H   0  0  0  0  0  0  0  0  0  0  0  0
   62.2444   31.0068   47.6754 H   0  0  0  0  0  0  0  0  0  0  0  0
   61.4759   32.3985   46.8202 H   0  0  0  0  0  0  0  0  0  0  0  0
   63.2970   34.7263   46.9286 H   0  0  0  0  0  0  0  0  0  0  0  0
   64.2919   33.8210   45.7381 H   0  0  0  0  0  0  0  0  0  0  0  0
   62.5049   33.6391   45.7381 H   0  0  0  0  0  0  0  0  0  0  0  0
   63.6247   32.7460   49.4234 H   0  0  0  0  0  0  0  0  0  0  0  0
   65.2043   32.7607   48.5682 H   0  0  0  0  0  0  0  0  0  0  0  0
   64.1693   34.2288   48.5682 H   0  0  0  0  0  0  0  0  0  0  0  0
   58.6065   31.9341   49.3084 H   0  0  0  0  0  0  0  0  0  0  0  0
   58.1843   30.2222   48.9653 H   0  0  0  0  0  0  0  0  0  0  0  0
   59.9042   30.7404   48.9653 H   0  0  0  0  0  0  0  0  0  0  0  0
  1  2  1  0
  2  3  1  0
  3  4  1  0
  3  5  1  0
  5  6  1  0
  6  7  1  0
  7  8  1  0
  8  9  2  0
  9 10  1  0
 10 11  2  0
 11 12  1  0
 12 13  2  0
 13 14  1  0
 14 15  2  0
 15 16  1  0
 16 17  2  0
 17 18  1  0
 18 19  2  0
 19 20  1  0
 20 21  1  0
 21 22  1  0
 22 23  1  0
 23 24  1  0
 23 25  1  0
 19 26  1  0
 26 27  2  0
 27 28  1  0
 27  8  1  0
 14  9  1  0
 26 15  1  0
  1 29  1  0
  1 30  1  0
  1 31  1  0
  2 32  1  0
  2 33  1  0
  4 34  1  0
  4 35  1  0
  4 36  1  0
  5 37  1  0
  5 38  1  0
  6 39  1  0
  6 40  1  0
  7 41  1  0
 10 42  1  0
 12 43  1  0
 13 44  1  0
 16 45  1  0
 17 46  1  0
 18 47  1  0
 21 48  1  0
 21 49  1  0
 22 50  1  0
 22 51  1  0
 24 52  1  0
 24 53  1  0
 24 54  1  0
 25 55  1  0
 25 56  1  0
 25 57  1  0
 28 58  1  0
 28 59  1  0
 28 60  1  0
M  CHG  1  27   1
M  END
>  <UniqueID>  (9) 
9

>  <SMILES>  (9) 
CCN(C)CCNc1c2cnccc2c2cccc(OCCN(C)C)c2[n+]1C

>  <Energy>  (9) 
92.00017462158249

>  <Genealogy>  (9) 
CCN(C)CCNc1c2cnccc2c2cccc(OCCN(C)C)c2[n+]1C (3D coordinates assigned)
CCN(C)CCNc1c2cnccc2c2cccc(OCCN(C)C)c2[n+]1C (optimized conformer: 92.00017462158249 kcal/mol)

>  <smiles>  (9) 
CCN(C)CCNc1c2cnccc2c2cccc(OCCN(C)C)c2[n+]1C

>  <score_type>  (9) 
oracle

>  <origin>  (9) 
adg

>  <m_score__min__energy>  (9) 
-6.2599999999999998

>  <m_primary>  (9) 
energy

$$$$
9:0
     RDKit          3D

111117  0  0  0  0  0  0  0  0999 V2000
   63.6110   33.6860   46.4410 C   0  0  0  0  0  0  0  0  0  0  0  0
   62.6970   33.0260   47.3850 N   0  0  0  0  0  0  0  0  0  0  0  0
   61.3670   32.8790   46.7500 C   0  0  0  0  0  0  0  0  0  0  0  0
   62.5980   33.8420   48.6200 C   0  0  0  0  0  0  0  0  0  0  0  0
   63.8750   33.7650   49.4700 C   0  0  0  0  0  0  0  0  0  0  0  0
   64.7430   32.6300   49.1110 N   0  0  0  0  0  0  0  0  0  0  0  0
   65.2410   31.9400   50.3050 C   0  0  0  0  0  0  0  0  0  0  0  0
   66.5460   32.2210   50.7960 C   0  0  0  0  0  0  0  0  0  0  0  0
   67.3850   33.1800   50.1800 C   0  0  0  0  0  0  0  0  0  0  0  0
   68.6230   33.5150   50.7240 C   0  0  0  0  0  0  0  0  0  0  0  0
   69.0570   32.9080   51.8810 C   0  0  0  0  0  0  0  0  0  0  0  0
   68.2650   31.9400   52.4950 C   0  0  0  0  0  0  0  0  0  0  0  0
   67.0200   31.5430   51.9560 C   0  0  0  0  0  0  0  0  0  0  0  0
   66.2760   30.5380   52.5390 N   0  0  0  0  0  0  0  0  0  0  0  0
   66.8940   29.6440   53.5420 C   0  0  0  0  0  0  0  0  0  0  0  0
   64.9440   30.3990   52.2120 C   0  0  0  0  0  0  0  0  0  0  0  0
   64.0710   29.6300   53.0280 C   0  0  0  0  0  0  0  0  0  0  0  0
   62.7210   29.4830   52.7130 C   0  0  0  0  0  0  0  0  0  0  0  0
   61.8790   28.8120   53.6090 O   0  0  0  0  0  0  0  0  0  0  0  0
   60.6570   28.2260   53.1730 C   0  0  0  0  0  0  0  0  0  0  0  0
   59.4400   29.1380   53.4150 C   0  0  0  0  0  0  0  0  0  0  0  0
   59.5990   30.2840   54.3860 N   0  0  1  0  0  0  0  0  0  0  0  0
   60.2410   29.8520   55.6690 C   0  0  0  0  0  0  0  0  0  0  0  0
   60.4100   31.3490   53.7370 C   0  0  0  0  0  0  0  0  0  0  0  0
   60.4610   32.6710   54.5340 C   0  0  0  0  0  0  0  0  0  0  0  0
   59.0960   33.2350   54.8030 N   0  0  1  0  0  0  0  0  0  0  0  0
   59.2700   34.3190   55.8120 C   0  0  0  0  0  0  0  0  0  0  0  0
   58.5290   33.8910   53.5520 C   0  0  0  0  0  0  0  0  0  0  0  0
   58.7060   33.1670   52.2310 C   0  0  0  0  0  0  0  0  0  0  0  0
   59.7360   33.5290   51.3380 C   0  0  0  0  0  0  0  0  0  0  0  0
   59.8970   32.8450   50.1310 C   0  0  0  0  0  0  0  0  0  0  0  0
   59.0770   31.7470   49.8250 C   0  0  0  0  0  0  0  0  0  0  0  0
   59.2390   31.0110   48.5480 C   0  0  0  0  0  0  0  0  0  0  0  0
   60.0490   29.8640   48.4860 C   0  0  0  0  0  0  0  0  0  0  0  0
   60.2690   29.2210   47.2640 C   0  0  0  0  0  0  0  0  0  0  0  0
   59.6560   29.6960   46.0940 C   0  0  0  0  0  0  0  0  0  0  0  0
   59.9160   29.0260   44.7720 C   0  0  0  0  0  0  0  0  0  0  0  0
   59.1050   27.8100   44.6540 N   0  0  0  0  0  0  0  0  0  0  0  0
   58.9200   27.0020   45.7430 C   0  0  0  0  0  0  0  0  0  0  0  0
   58.1560   25.8370   45.6410 C   0  0  0  0  0  0  0  0  0  0  0  0
   57.5680   25.5060   44.4240 C   0  0  0  0  0  0  0  0  0  0  0  0
   56.7260   24.3570   44.3270 N   0  0  0  0  0  0  0  0  0  0  0  0
   57.7690   26.3300   43.3140 C   0  0  0  0  0  0  0  0  0  0  0  0
   58.5730   27.4660   43.4400 C   0  0  0  0  0  0  0  0  0  0  0  0
   58.8290   30.8280   46.1580 C   0  0  0  0  0  0  0  0  0  0  0  0
   58.6180   31.4750   47.3780 C   0  0  0  0  0  0  0  0  0  0  0  0
   58.0950   31.3460   50.7430 C   0  0  0  0  0  0  0  0  0  0  0  0
   57.9150   32.0400   51.9430 C   0  0  0  0  0  0  0  0  0  0  0  0
   58.2460   32.1790   55.4380 C   0  0  0  0  0  0  0  0  0  0  0  0
   58.2400   30.8330   54.6770 C   0  0  0  0  0  0  0  0  0  0  0  0
   62.2270   30.0380   51.5350 C   0  0  0  0  0  0  0  0  0  0  0  0
   63.0470   30.8240   50.7280 C   0  0  0  0  0  0  0  0  0  0  0  0
   64.4100   31.0520   51.0600 C   0  0  0  0  0  0  0  0  0  0  0  0
   64.3787   34.2404   47.0008 H   0  0  0  0  0  0  0  0  0  0  0  0
   64.0948   32.9275   45.8080 H   0  0  0  0  0  0  0  0  0  0  0  0
   63.0432   34.3838   45.8080 H   0  0  0  0  0  0  0  0  0  0  0  0
   60.5958   32.7938   47.5297 H   0  0  0  0  0  0  0  0  0  0  0  0
   61.1600   33.7597   46.1243 H   0  0  0  0  0  0  0  0  0  0  0  0
   61.3574   31.9743   46.1243 H   0  0  0  0  0  0  0  0  0  0  0  0
   62.4225   34.8908   48.3385 H   0  0  0  0  0  0  0  0  0  0  0  0
   61.7673   33.4446   49.2217 H   0  0  0  0  0  0  0  0  0  0  0  0
   64.4432   34.6968   49.3327 H   0  0  0  0  0  0  0  0  0  0  0  0
   63.5640   33.6211   50.5153 H   0  0  0  0  0  0  0  0  0  0  0  0
   65.4860   32.9560   48.4560 H   0  0  0  0  0  0  0  0  0  0  0  0
   64.2080   31.9640   48.5130 H   0  0  0  0  0  0  0  0  0  0  0  0
   67.0529   33.6706   49.2532 H   0  0  0  0  0  0  0  0  0  0  0  0
   69.2552   34.2662   50.2280 H   0  0  0  0  0  0  0  0  0  0  0  0
   70.0266   33.1865   52.3196 H   0  0  0  0  0  0  0  0  0  0  0  0
   68.6185   31.4715   53.4254 H   0  0  0  0  0  0  0  0  0  0  0  0
   66.6473   30.0009   54.5528 H   0  0  0  0  0  0  0  0  0  0  0  0
   66.5084   28.6223   53.4096 H   0  0  0  0  0  0  0  0  0  0  0  0
   67.9860   29.6438   53.4096 H   0  0  0  0  0  0  0  0  0  0  0  0
   64.4694   29.1397   53.9285 H   0  0  0  0  0  0  0  0  0  0  0  0
   60.7316   28.0175   52.0955 H   0  0  0  0  0  0  0  0  0  0  0  0
   60.5035   27.3060   53.7561 H   0  0  0  0  0  0  0  0  0  0  0  0
   59.1547   29.5685   52.4438 H   0  0  0  0  0  0  0  0  0  0  0  0
   58.6913   28.4815   53.8825 H   0  0  0  0  0  0  0  0  0  0  0  0
   59.6613   30.2421   56.5186 H   0  0  0  0  0  0  0  0  0  0  0  0
   60.2651   28.7532   55.7152 H   0  0  0  0  0  0  0  0  0  0  0  0
   61.2679   30.2435   55.7152 H   0  0  0  0  0  0  0  0  0  0  0  0
   61.4382   30.9768   53.6176 H   0  0  0  0  0  0  0  0  0  0  0  0
   59.9279   31.5752   52.7745 H   0  0  0  0  0  0  0  0  0  0  0  0
   60.9608   32.4836   55.4958 H   0  0  0  0  0  0  0  0  0  0  0  0
   61.0116   33.4051   53.9274 H   0  0  0  0  0  0  0  0  0  0  0  0
   59.2016   33.8926   56.8237 H   0  0  0  0  0  0  0  0  0  0  0  0
   60.2552   34.7897   55.6783 H   0  0  0  0  0  0  0  0  0  0  0  0
   58.4816   35.0744   55.6783 H   0  0  0  0  0  0  0  0  0  0  0  0
   57.4486   34.0227   53.7117 H   0  0  0  0  0  0  0  0  0  0  0  0
   59.1090   34.8188   53.4390 H   0  0  0  0  0  0  0  0  0  0  0  0
   60.4163   34.3547   51.5936 H   0  0  0  0  0  0  0  0  0  0  0  0
   60.6693   33.1677   49.4172 H   0  0  0  0  0  0  0  0  0  0  0  0
   60.5119   29.4704   49.4029 H   0  0  0  0  0  0  0  0  0  0  0  0
   60.9252   28.3393   47.2194 H   0  0  0  0  0  0  0  0  0  0  0  0
   59.6559   29.7171   43.9567 H   0  0  0  0  0  0  0  0  0  0  0  0
   60.9804   28.7558   44.7090 H   0  0  0  0  0  0  0  0  0  0  0  0
   59.3767   27.2722   46.7066 H   0  0  0  0  0  0  0  0  0  0  0  0
   58.0201   25.1856   46.5169 H   0  0  0  0  0  0  0  0  0  0  0  0
   56.9390   23.4940   44.8790 H   0  0  0  0  0  0  0  0  0  0  0  0
   55.9220   24.3420   43.6620 H   0  0  0  0  0  0  0  0  0  0  0  0
   57.2988   26.0869   42.3497 H   0  0  0  0  0  0  0  0  0  0  0  0
   58.7801   28.0887   42.5572 H   0  0  0  0  0  0  0  0  0  0  0  0
   58.3457   31.2067   45.2453 H   0  0  0  0  0  0  0  0  0  0  0  0
   57.9598   32.3553   47.4220 H   0  0  0  0  0  0  0  0  0  0  0  0
   57.4602   30.4767   50.5163 H   0  0  0  0  0  0  0  0  0  0  0  0
   57.1540   31.7045   52.6629 H   0  0  0  0  0  0  0  0  0  0  0  0
   58.6216   31.9988   56.4561 H   0  0  0  0  0  0  0  0  0  0  0  0
   57.2121   32.5545   55.4275 H   0  0  0  0  0  0  0  0  0  0  0  0
   57.6939   30.0964   55.2846 H   0  0  0  0  0  0  0  0  0  0  0  0
   57.7628   31.0236   53.7044 H   0  0  0  0  0  0  0  0  0  0  0  0
   61.1833   29.8547   51.2399 H   0  0  0  0  0  0  0  0  0  0  0  0
   62.6312   31.2770   49.8159 H   0  0  0  0  0  0  0  0  0  0  0  0
  1  2  1  0
  2  3  1  0
  2  4  1  0
  4  5  1  0
  5  6  1  0
  6  7  1  0
  7  8  2  0
  8  9  1  0
  9 10  2  0
 10 11  1  0
 11 12  2  0
 12 13  1  0
 13 14  2  0
 14 15  1  0
 14 16  1  0
 16 17  2  0
 17 18  1  0
 18 19  1  0
 19 20  1  0
 20 21  1  0
 22 21  1  6
 22 23  1  0
 22 24  1  0
 24 25  1  0
 25 26  1  0
 26 27  1  1
 26 28  1  0
 28 29  1  0
 29 30  2  0
 30 31  1  0
 31 32  2  0
 32 33  1  0
 33 34  2  0
 34 35  1  0
 35 36  2  0
 36 37  1  0
 37 38  1  0
 38 39  2  0
 39 40  1  0
 40 41  2  0
 41 42  1  0
 41 43  1  0
 43 44  2  0
 36 45  1  0
 45 46  2  0
 32 47  1  0
 47 48  2  0
 26 49  1  0
 49 50  1  0
 18 51  2  0
 51 52  1  0
 52 53  2  0
 53  7  1  0
 13  8  1  0
 53 16  1  0
 50 22  1  0
 48 29  1  0
 46 33  1  0
 44 38  1  0
  1 54  1  0
  1 55  1  0
  1 56  1  0
  3 57  1  0
  3 58  1  0
  3 59  1  0
  4 60  1  0
  4 61  1  0
  5 62  1  0
  5 63  1  0
  6 64  1  0
  6 65  1  0
  9 66  1  0
 10 67  1  0
 11 68  1  0
 12 69  1  0
 15 70  1  0
 15 71  1  0
 15 72  1  0
 17 73  1  0
 20 74  1  0
 20 75  1  0
 21 76  1  0
 21 77  1  0
 23 78  1  0
 23 79  1  0
 23 80  1  0
 24 81  1  0
 24 82  1  0
 25 83  1  0
 25 84  1  0
 27 85  1  0
 27 86  1  0
 27 87  1  0
 28 88  1  0
 28 89  1  0
 30 90  1  0
 31 91  1  0
 34 92  1  0
 35 93  1  0
 37 94  1  0
 37 95  1  0
 39 96  1  0
 40 97  1  0
 42 98  1  0
 42 99  1  0
 43100  1  0
 44101  1  0
 45102  1  0
 46103  1  0
 47104  1  0
 48105  1  0
 49106  1  0
 49107  1  0
 50108  1  0
 50109  1  0
 51110  1  0
 52111  1  0
M  CHG  5   6   1  14   1  22   1  26   1  38   1
M  END
>  <UniqueID>  (10) 
10

>  <SMILES>  (10) 
CN(C)CC[NH2+]c1c2ccccc2[n+](C)c2cc(OCC[N+]3(C)CC[N+](C)(Cc4ccc(-c5ccc(C[n+]6ccc(N)cc6)cc5)cc4)CC3)ccc12

>  <Energy>  (10) 
199.97362730005935

>  <Genealogy>  (10) 
CN(C)CC[NH2+]c1c2ccccc2[n+](C)c2cc(OCC[N+]3(C)CC[N+](C)(Cc4ccc(-c5ccc(C[n+]6ccc(N)cc6)cc5)cc4)CC3)ccc12 (protonated)
CN(C)CC[NH2+]c1c2ccccc2[n+](C)c2cc(OCC[N+]3(C)CC[N+](C)(Cc4ccc(-c5ccc(C[n+]6ccc(N)cc6)cc5)cc4)CC3)ccc12 (3D coordinates assigned)
CN(C)CC[NH2+]c1c2ccccc2[n+](C)c2cc(OCC[N+]3(C)CC[N+](C)(Cc4ccc(-c5ccc(C[n+]6ccc(N)cc6)cc5)cc4)CC3)ccc12 (nonaromatic ring conformer: 199.97362730005935 kcal/mol)

>  <smiles>  (10) 
CN(C)CCNc1c2ccccc2[n+](C)c2cc(OCC[N+]3(C)CC[N+](C)(Cc4ccc(-c5ccc(C[n+]6ccc(N)cc6)cc5)cc4)CC3)ccc12

>  <score_type>  (10) 
oracle

>  <origin>  (10) 
adg

>  <m_score__min__energy>  (10) 
-3.1800000000000002

>  <m_primary>  (10) 
energy

$$$$
10:0
     RDKit          3D

 70 72  0  0  0  0  0  0  0  0999 V2000
   64.7690   31.6320   50.6120 C   0  0  0  0  0  0  0  0  0  0  0  0
   63.2970   31.4120   50.9430 C   0  0  0  0  0  0  0  0  0  0  0  0
   62.4850   32.4730   50.3350 N   0  0  0  0  0  0  0  0  0  0  0  0
   63.2450   33.7260   50.2680 C   0  0  0  0  0  0  0  0  0  0  0  0
   63.3150   34.2270   48.8270 C   0  0  0  0  0  0  0  0  0  0  0  0
   62.4800   33.4350   48.0040 O   0  0  0  0  0  0  0  0  0  0  0  0
   63.2810   32.6970   47.1030 C   0  0  0  0  0  0  0  0  0  0  0  0
   62.8720   31.2240   47.1250 C   0  0  0  0  0  0  0  0  0  0  0  0
   61.5970   31.0260   47.8230 N   0  0  0  0  0  0  0  0  0  0  0  0
   60.3730   31.0420   47.0710 C   0  0  0  0  0  0  0  0  0  0  0  0
   60.0140   29.8910   46.3480 C   0  0  0  0  0  0  0  0  0  0  0  0
   60.6050   28.6420   46.6380 C   0  0  0  0  0  0  0  0  0  0  0  0
   60.2130   27.4950   45.9510 C   0  0  0  0  0  0  0  0  0  0  0  0
   59.2280   27.5720   44.9740 C   0  0  0  0  0  0  0  0  0  0  0  0
   58.6500   28.8020   44.6550 C   0  0  0  0  0  0  0  0  0  0  0  0
   59.0580   29.9910   45.3110 C   0  0  0  0  0  0  0  0  0  0  0  0
   58.5640   31.2260   44.9530 N   0  0  0  0  0  0  0  0  0  0  0  0
   57.8790   31.3950   43.6500 C   0  0  0  0  0  0  0  0  0  0  0  0
   58.7170   32.3050   45.8060 C   0  0  0  0  0  0  0  0  0  0  0  0
   57.9890   33.5020   45.5950 C   0  0  0  0  0  0  0  0  0  0  0  0
   58.1350   34.5910   46.4390 C   0  0  0  0  0  0  0  0  0  0  0  0
   58.9440   34.5010   47.5570 C   0  0  0  0  0  0  0  0  0  0  0  0
   59.6460   33.3220   47.8570 C   0  0  0  0  0  0  0  0  0  0  0  0
   60.2570   33.2390   49.1680 N   0  0  0  0  0  0  0  0  0  0  0  0
   59.2830   33.5660   50.2200 C   0  0  0  0  0  0  0  0  0  0  0  0
   58.5450   32.3080   50.6960 C   0  0  0  0  0  0  0  0  0  0  0  0
   59.5130   31.2370   51.2280 C   0  0  0  0  0  0  0  0  0  0  0  0
   59.9900   30.3350   50.1550 N   0  0  0  0  0  0  0  0  0  0  0  0
   60.9030   29.3070   50.6850 C   0  0  0  0  0  0  0  0  0  0  0  0
   58.8450   29.6810   49.5000 C   0  0  0  0  0  0  0  0  0  0  0  0
   59.6010   32.2250   46.9290 C   0  0  0  0  0  0  0  0  0  0  0  0
   65.3457   31.7182   51.5448 H   0  0  0  0  0  0  0  0  0  0  0  0
   65.1444   30.7800   50.0262 H   0  0  0  0  0  0  0  0  0  0  0  0
   64.8789   32.5565   50.0262 H   0  0  0  0  0  0  0  0  0  0  0  0
   62.9764   30.4362   50.5493 H   0  0  0  0  0  0  0  0  0  0  0  0
   63.1637   31.4341   52.0347 H   0  0  0  0  0  0  0  0  0  0  0  0
   62.2570   32.1800   49.3560 H   0  0  0  0  0  0  0  0  0  0  0  0
   62.7500   34.4845   50.8923 H   0  0  0  0  0  0  0  0  0  0  0  0
   64.2664   33.5450   50.6339 H   0  0  0  0  0  0  0  0  0  0  0  0
   62.9799   35.2740   48.7875 H   0  0  0  0  0  0  0  0  0  0  0  0
   64.3522   34.1565   48.4675 H   0  0  0  0  0  0  0  0  0  0  0  0
   63.1487   33.0966   46.0867 H   0  0  0  0  0  0  0  0  0  0  0  0
   64.3356   32.7833   47.4036 H   0  0  0  0  0  0  0  0  0  0  0  0
   62.7710   30.8664   46.0897 H   0  0  0  0  0  0  0  0  0  0  0  0
   63.6487   30.6601   47.6624 H   0  0  0  0  0  0  0  0  0  0  0  0
   61.5960   30.5130   48.7350 H   0  0  0  0  0  0  0  0  0  0  0  0
   61.3821   28.5738   47.4135 H   0  0  0  0  0  0  0  0  0  0  0  0
   60.6835   26.5280   46.1822 H   0  0  0  0  0  0  0  0  0  0  0  0
   58.9027   26.6610   44.4503 H   0  0  0  0  0  0  0  0  0  0  0  0
   57.8670   28.8495   43.8839 H   0  0  0  0  0  0  0  0  0  0  0  0
   56.8241   31.6553   43.8214 H   0  0  0  0  0  0  0  0  0  0  0  0
   58.3673   32.1996   43.0807 H   0  0  0  0  0  0  0  0  0  0  0  0
   57.9371   30.4556   43.0807 H   0  0  0  0  0  0  0  0  0  0  0  0
   57.2944   33.5680   44.7446 H   0  0  0  0  0  0  0  0  0  0  0  0
   57.6059   35.5300   46.2192 H   0  0  0  0  0  0  0  0  0  0  0  0
   59.0396   35.3700   48.2246 H   0  0  0  0  0  0  0  0  0  0  0  0
   61.1210   33.8140   49.2380 H   0  0  0  0  0  0  0  0  0  0  0  0
   60.5820   32.2540   49.3190 H   0  0  0  0  0  0  0  0  0  0  0  0
   59.8120   34.0169   51.0725 H   0  0  0  0  0  0  0  0  0  0  0  0
   58.5453   34.2704   49.8081 H   0  0  0  0  0  0  0  0  0  0  0  0
   57.8487   32.5880   51.5002 H   0  0  0  0  0  0  0  0  0  0  0  0
   58.0089   31.8829   49.8347 H   0  0  0  0  0  0  0  0  0  0  0  0
   60.3807   31.7375   51.6825 H   0  0  0  0  0  0  0  0  0  0  0  0
   58.9715   30.6279   51.9667 H   0  0  0  0  0  0  0  0  0  0  0  0
   60.8825   29.3301   51.7846 H   0  0  0  0  0  0  0  0  0  0  0  0
   60.5825   28.3153   50.3330 H   0  0  0  0  0  0  0  0  0  0  0  0
   61.9256   29.5081   50.3330 H   0  0  0  0  0  0  0  0  0  0  0  0
   58.1592   29.2893   50.2657 H   0  0  0  0  0  0  0  0  0  0  0  0
   58.3147   30.4124   48.8725 H   0  0  0  0  0  0  0  0  0  0  0  0
   59.2056   28.8527   48.8725 H   0  0  0  0  0  0  0  0  0  0  0  0
  1  2  1  0
  2  3  1  0
  3  4  1  0
  4  5  1  0
  5  6  1  0
  6  7  1  0
  7  8  1  0
  8  9  1  0
  9 10  1  0
 10 11  2  0
 11 12  1  0
 12 13  2  0
 13 14  1  0
 14 15  2  0
 15 16  1  0
 16 17  2  0
 17 18  1  0
 17 19  1  0
 19 20  2  0
 20 21  1  0
 21 22  2  0
 22 23  1  0
 23 24  1  0
 24 25  1  0
 25 26  1  0
 26 27  1  0
 27 28  1  0
 28 29  1  0
 28 30  1  0
 23 31  2  0
 31 10  1  0
 16 11  1  0
 31 19  1  0
  1 32  1  0
  1 33  1  0
  1 34  1  0
  2 35  1  0
  2 36  1  0
  3 37  1  0
  4 38  1  0
  4 39  1  0
  5 40  1  0
  5 41  1  0
  7 42  1  0
  7 43  1  0
  8 44  1  0
  8 45  1  0
  9 46  1  0
 12 47  1  0
 13 48  1  0
 14 49  1  0
 15 50  1  0
 18 51  1  0
 18 52  1  0
 18 53  1  0
 20 54  1  0
 21 55  1  0
 22 56  1  0
 24 57  1  0
 24 58  1  0
 25 59  1  0
 25 60  1  0
 26 61  1  0
 26 62  1  0
 27 63  1  0
 27 64  1  0
 29 65  1  0
 29 66  1  0
 29 67  1  0
 30 68  1  0
 30 69  1  0
 30 70  1  0
M  CHG  2  17   1  24   1
M  END
>  <UniqueID>  (11) 
11

>  <SMILES>  (11) 
CCNCCOCCNc1c2ccccc2[n+](C)c2cccc([NH2+]CCCN(C)C)c12

>  <Energy>  (11) 
95.70201519653276

>  <Genealogy>  (11) 
CCNCCOCCNc1c2ccccc2[n+](C)c2cccc([NH2+]CCCN(C)C)c12 (protonated)
CCNCCOCCNc1c2ccccc2[n+](C)c2cccc([NH2+]CCCN(C)C)c12 (3D coordinates assigned)
CCNCCOCCNc1c2ccccc2[n+](C)c2cccc([NH2+]CCCN(C)C)c12 (optimized conformer: 95.70201519653276 kcal/mol)

>  <smiles>  (11) 
CCNCCOCCNc1c2ccccc2[n+](C)c2cccc(NCCCN(C)C)c12

>  <score_type>  (11) 
oracle

>  <origin>  (11) 
adg

>  <m_score__min__energy>  (11) 
-3.1000000000000001

>  <m_primary>  (11) 
energy

$$$$
11:0
     RDKit          3D

 59 62  0  0  0  0  0  0  0  0999 V2000
   55.5620   23.2890   43.3190 C   0  0  0  0  0  0  0  0  0  0  0  0
   57.0430   23.2470   43.7010 C   0  0  0  0  0  0  0  0  0  0  0  0
   57.2820   23.7310   45.0820 N   0  0  0  0  0  0  0  0  0  0  0  0
   58.7210   23.6190   45.4200 C   0  0  0  0  0  0  0  0  0  0  0  0
   59.3510   22.3270   44.8930 C   0  0  0  0  0  0  0  0  0  0  0  0
   56.6920   25.0690   45.3590 C   0  0  0  0  0  0  0  0  0  0  0  0
   57.7140   26.1550   45.7550 C   0  0  0  0  0  0  0  0  0  0  0  0
   58.3150   26.8190   44.5100 C   0  0  0  0  0  0  0  0  0  0  0  0
   59.5240   27.5680   44.8540 N   0  0  0  0  0  0  0  0  0  0  0  0
   59.5170   28.5830   45.8690 C   0  0  0  0  0  0  0  0  0  0  0  0
   59.1170   29.8860   45.5430 C   0  0  0  0  0  0  0  0  0  0  0  0
   59.2700   30.9210   46.5000 C   0  0  0  0  0  0  0  0  0  0  0  0
   59.4960   30.5870   47.8220 N   0  0  0  0  0  0  0  0  0  0  0  0
   59.1570   31.5450   48.8950 C   0  0  0  0  0  0  0  0  0  0  0  0
   59.9200   29.3160   48.1570 C   0  0  0  0  0  0  0  0  0  0  0  0
   60.3490   28.9990   49.4710 C   0  0  0  0  0  0  0  0  0  0  0  0
   60.7510   27.7050   49.8020 C   0  0  0  0  0  0  0  0  0  0  0  0
   60.7310   26.6990   48.8440 C   0  0  0  0  0  0  0  0  0  0  0  0
   60.3250   26.9820   47.5420 C   0  0  0  0  0  0  0  0  0  0  0  0
   59.9390   28.2900   47.1770 C   0  0  0  0  0  0  0  0  0  0  0  0
   59.2480   32.3610   46.0480 C   0  0  0  0  0  0  0  0  0  0  0  0
   60.1190   33.3040   46.6320 C   0  0  0  0  0  0  0  0  0  0  0  0
   60.0850   34.6460   46.2460 C   0  0  0  0  0  0  0  0  0  0  0  0
   59.2110   35.0650   45.2420 C   0  0  0  0  0  0  0  0  0  0  0  0
   58.4000   34.1340   44.5940 C   0  0  0  0  0  0  0  0  0  0  0  0
   58.4370   32.7850   44.9750 C   0  0  0  0  0  0  0  0  0  0  0  0
   57.6120   31.5890   44.0200 S   0  0  0  0  0  0  0  0  0  0  0  0
   57.6430   31.9620   42.5640 O   0  0  0  0  0  0  0  0  0  0  0  0
   56.1950   31.4100   44.4880 O   0  0  0  0  0  0  0  0  0  0  0  0
   58.5130   30.1450   44.2630 N   0  0  0  0  0  0  0  0  0  0  0  0
   54.9483   23.3064   44.2317 H   0  0  0  0  0  0  0  0  0  0  0  0
   55.3620   24.1932   42.7253 H   0  0  0  0  0  0  0  0  0  0  0  0
   55.3110   22.3976   42.7253 H   0  0  0  0  0  0  0  0  0  0  0  0
   57.3990   22.2091   43.6234 H   0  0  0  0  0  0  0  0  0  0  0  0
   57.5869   23.9109   43.0129 H   0  0  0  0  0  0  0  0  0  0  0  0
   59.2537   24.4753   44.9807 H   0  0  0  0  0  0  0  0  0  0  0  0
   58.8056   23.6076   46.5167 H   0  0  0  0  0  0  0  0  0  0  0  0
   59.6583   21.6967   45.7405 H   0  0  0  0  0  0  0  0  0  0  0  0
   58.6164   21.7844   44.2799 H   0  0  0  0  0  0  0  0  0  0  0  0
   60.2309   22.5716   44.2799 H   0  0  0  0  0  0  0  0  0  0  0  0
   56.1674   25.4063   44.4529 H   0  0  0  0  0  0  0  0  0  0  0  0
   56.0241   24.9410   46.2236 H   0  0  0  0  0  0  0  0  0  0  0  0
   57.2094   26.9200   46.3634 H   0  0  0  0  0  0  0  0  0  0  0  0
   58.5253   25.6826   46.3283 H   0  0  0  0  0  0  0  0  0  0  0  0
   58.5691   26.0421   43.7739 H   0  0  0  0  0  0  0  0  0  0  0  0
   57.5752   27.5165   44.0901 H   0  0  0  0  0  0  0  0  0  0  0  0
   60.4240   27.3400   44.3730 H   0  0  0  0  0  0  0  0  0  0  0  0
   59.3241   31.0728   49.8744 H   0  0  0  0  0  0  0  0  0  0  0  0
   59.7940   32.4372   48.8047 H   0  0  0  0  0  0  0  0  0  0  0  0
   58.1006   31.8380   48.8047 H   0  0  0  0  0  0  0  0  0  0  0  0
   60.3650   29.7850   50.2404 H   0  0  0  0  0  0  0  0  0  0  0  0
   61.0852   27.4801   50.8256 H   0  0  0  0  0  0  0  0  0  0  0  0
   61.0363   25.6773   49.1142 H   0  0  0  0  0  0  0  0  0  0  0  0
   60.3049   26.1786   46.7909 H   0  0  0  0  0  0  0  0  0  0  0  0
   60.8345   32.9785   47.4015 H   0  0  0  0  0  0  0  0  0  0  0  0
   60.7488   35.3744   46.7346 H   0  0  0  0  0  0  0  0  0  0  0  0
   59.1619   36.1277   44.9623 H   0  0  0  0  0  0  0  0  0  0  0  0
   57.7307   34.4580   43.7834 H   0  0  0  0  0  0  0  0  0  0  0  0
   58.4580   29.4110   43.5230 H   0  0  0  0  0  0  0  0  0  0  0  0
  1  2  1  0
  2  3  1  0
  3  4  1  0
  4  5  1  0
  3  6  1  0
  6  7  1  0
  7  8  1  0
  8  9  1  0
  9 10  1  0
 10 11  2  0
 11 12  1  0
 12 13  2  0
 13 14  1  0
 13 15  1  0
 15 16  2  0
 16 17  1  0
 17 18  2  0
 18 19  1  0
 19 20  2  0
 12 21  1  0
 21 22  2  0
 22 23  1  0
 23 24  2  0
 24 25  1  0
 25 26  2  0
 26 27  1  0
 27 28  2  0
 27 29  2  0
 27 30  1  0
 20 10  1  0
 26 21  1  0
 30 11  1  0
 20 15  1  0
  1 31  1  0
  1 32  1  0
  1 33  1  0
  2 34  1  0
  2 35  1  0
  4 36  1  0
  4 37  1  0
  5 38  1  0
  5 39  1  0
  5 40  1  0
  6 41  1  0
  6 42  1  0
  7 43  1  0
  7 44  1  0
  8 45  1  0
  8 46  1  0
  9 47  1  0
 14 48  1  0
 14 49  1  0
 14 50  1  0
 16 51  1  0
 17 52  1  0
 18 53  1  0
 19 54  1  0
 22 55  1  0
 23 56  1  0
 24 57  1  0
 25 58  1  0
 30 59  1  0
M  CHG  1  13   1
M  END
>  <UniqueID>  (12) 
12

>  <SMILES>  (12) 
CCN(CC)CCCNc1c2c([n+](C)c3ccccc13)-c1ccccc1S(=O)(=O)N2

>  <Energy>  (12) 
98.19254109423599

>  <Genealogy>  (12) 
CCN(CC)CCCNc1c2c([n+](C)c3ccccc13)-c1ccccc1S(=O)(=O)N2 (3D coordinates assigned)
CCN(CC)CCCNc1c2c([n+](C)c3ccccc13)-c1ccccc1S(=O)(=O)N2 (nonaromatic ring conformer: 98.19254109423599 kcal/mol)

>  <smiles>  (12) 
CCN(CC)CCCNc1c2c([n+](C)c3ccccc13)-c1ccccc1S(=O)(=O)N2

>  <score_type>  (12) 
oracle

>  <origin>  (12) 
adg

>  <m_score__min__energy>  (12) 
-7.5499999999999998

>  <m_primary>  (12) 
energy

$$$$
12:0
     RDKit          3D

 47 49  0  0  0  0  0  0  0  0999 V2000
   61.2600   34.2250   49.2390 C   0  0  0  0  0  0  0  0  0  0  0  0
   62.5600   34.3060   48.9410 C   0  0  0  0  0  0  0  0  0  0  0  0
   63.0850   33.9200   47.5880 C   0  0  0  0  0  0  0  0  0  0  0  0
   64.0820   32.8500   47.7160 N   0  0  0  0  0  0  0  0  0  0  0  0
   63.4410   31.6020   48.1500 C   0  0  0  0  0  0  0  0  0  0  0  0
   62.0480   31.4620   47.5180 C   0  0  0  0  0  0  0  0  0  0  0  0
   61.1440   30.4700   48.2640 C   0  0  0  0  0  0  0  0  0  0  0  0
   59.7290   30.8130   48.1060 N   0  0  0  0  0  0  0  0  0  0  0  0
   59.1090   30.8740   46.8090 C   0  0  0  0  0  0  0  0  0  0  0  0
   58.8570   32.1180   46.2050 C   0  0  0  0  0  0  0  0  0  0  0  0
   59.1920   33.3220   46.8620 C   0  0  0  0  0  0  0  0  0  0  0  0
   59.0090   34.5510   46.2350 C   0  0  0  0  0  0  0  0  0  0  0  0
   58.5070   34.6040   44.9410 C   0  0  0  0  0  0  0  0  0  0  0  0
   58.1520   33.4300   44.2770 C   0  0  0  0  0  0  0  0  0  0  0  0
   58.2800   32.1640   44.9060 C   0  0  0  0  0  0  0  0  0  0  0  0
   57.8790   30.9980   44.2820 N   0  0  0  0  0  0  0  0  0  0  0  0
   57.0330   31.0640   43.0680 C   0  0  0  0  0  0  0  0  0  0  0  0
   58.2310   29.7700   44.8120 C   0  0  0  0  0  0  0  0  0  0  0  0
   58.0450   28.5630   44.0900 C   0  0  0  0  0  0  0  0  0  0  0  0
   58.3250   27.3270   44.6690 C   0  0  0  0  0  0  0  0  0  0  0  0
   58.8010   27.2570   45.9720 C   0  0  0  0  0  0  0  0  0  0  0  0
   59.0420   28.4260   46.6900 C   0  0  0  0  0  0  0  0  0  0  0  0
   58.8030   29.6910   46.1110 C   0  0  0  0  0  0  0  0  0  0  0  0
   60.9059   34.5151   50.2392 H   0  0  0  0  0  0  0  0  0  0  0  0
   60.5439   33.8682   48.4841 H   0  0  0  0  0  0  0  0  0  0  0  0
   63.2638   34.6647   49.7065 H   0  0  0  0  0  0  0  0  0  0  0  0
   62.2519   33.5671   46.9624 H   0  0  0  0  0  0  0  0  0  0  0  0
   63.5587   34.7975   47.1237 H   0  0  0  0  0  0  0  0  0  0  0  0
   64.4980   32.6800   46.7700 H   0  0  0  0  0  0  0  0  0  0  0  0
   64.0647   30.7494   47.8431 H   0  0  0  0  0  0  0  0  0  0  0  0
   63.3338   31.6202   49.2446 H   0  0  0  0  0  0  0  0  0  0  0  0
   61.5618   32.4487   47.5207 H   0  0  0  0  0  0  0  0  0  0  0  0
   62.1884   31.0742   46.4982 H   0  0  0  0  0  0  0  0  0  0  0  0
   61.3142   29.4598   47.8634 H   0  0  0  0  0  0  0  0  0  0  0  0
   61.3929   30.5126   49.3346 H   0  0  0  0  0  0  0  0  0  0  0  0
   59.2060   31.1880   48.9280 H   0  0  0  0  0  0  0  0  0  0  0  0
   59.6027   33.2883   47.8819 H   0  0  0  0  0  0  0  0  0  0  0  0
   59.2622   35.4812   46.7647 H   0  0  0  0  0  0  0  0  0  0  0  0
   58.3890   35.5752   44.4382 H   0  0  0  0  0  0  0  0  0  0  0  0
   57.7663   33.4861   43.2484 H   0  0  0  0  0  0  0  0  0  0  0  0
   55.9761   31.1465   43.3616 H   0  0  0  0  0  0  0  0  0  0  0  0
   57.3172   31.9427   42.4704 H   0  0  0  0  0  0  0  0  0  0  0  0
   57.1774   30.1519   42.4704 H   0  0  0  0  0  0  0  0  0  0  0  0
   57.6734   28.6036   43.0555 H   0  0  0  0  0  0  0  0  0  0  0  0
   58.1686   26.4035   44.0922 H   0  0  0  0  0  0  0  0  0  0  0  0
   58.9877   26.2778   46.4371 H   0  0  0  0  0  0  0  0  0  0  0  0
   59.4229   28.3627   47.7200 H   0  0  0  0  0  0  0  0  0  0  0  0
  1  2  2  0
  2  3  1  0
  3  4  1  0
  4  5  1  0
  5  6  1  0
  6  7  1  0
  7  8  1  0
  8  9  1  0
  9 10  2  0
 10 11  1  0
 11 12  2  0
 12 13  1  0
 13 14  2  0
 14 15  1  0
 15 16  2  0
 16 17  1  0
 16 18  1  0
 18 19  2  0
 19 20  1  0
 20 21  2  0
 21 22  1  0
 22 23  2  0
 23  9  1  0
 15 10  1  0
 23 18  1  0
  1 24  1  0
  1 25  1  0
  2 26  1  0
  3 27  1  0
  3 28  1  0
  4 29  1  0
  5 30  1  0
  5 31  1  0
  6 32  1  0
  6 33  1  0
  7 34  1  0
  7 35  1  0
  8 36  1  0
 11 37  1  0
 12 38  1  0
 13 39  1  0
 14 40  1  0
 17 41  1  0
 17 42  1  0
 17 43  1  0
 19 44  1  0
 20 45  1  0
 21 46  1  0
 22 47  1  0
M  CHG  1  16   1
M  END
>  <UniqueID>  (13) 
13

>  <SMILES>  (13) 
C=CCNCCCNc1c2ccccc2[n+](C)c2ccccc12

>  <Energy>  (13) 
67.18622109213474

>  <Genealogy>  (13) 
C=CCNCCCNc1c2ccccc2[n+](C)c2ccccc12 (3D coordinates assigned)
C=CCNCCCNc1c2ccccc2[n+](C)c2ccccc12 (optimized conformer: 67.18622109213474 kcal/mol)

>  <smiles>  (13) 
C=CCNCCCNc1c2ccccc2[n+](C)c2ccccc12

>  <score_type>  (13) 
oracle

>  <origin>  (13) 
adg

>  <m_score__min__energy>  (13) 
-5.7000000000000002

>  <m_primary>  (13) 
energy

$$$$
13:0
     RDKit          3D

 57 59  0  0  0  0  0  0  0  0999 V2000
   65.1390   31.9100   50.5170 C   0  0  0  0  0  0  0  0  0  0  0  0
   64.8940   32.8740   49.3470 C   0  0  0  0  0  0  0  0  0  0  0  0
   63.4820   32.9330   48.8810 N   0  0  0  0  0  0  0  0  0  0  0  0
   63.3810   32.6090   47.4340 C   0  0  0  0  0  0  0  0  0  0  0  0
   63.0460   33.8370   46.5750 C   0  0  0  0  0  0  0  0  0  0  0  0
   62.8140   34.2280   49.1860 C   0  0  0  0  0  0  0  0  0  0  0  0
   61.5030   34.0500   49.9730 C   0  0  0  0  0  0  0  0  0  0  0  0
   61.1850   32.6770   50.0850 O   0  0  0  0  0  0  0  0  0  0  0  0
   59.8420   32.5020   50.4770 C   0  0  0  0  0  0  0  0  0  0  0  0
   59.2210   31.4160   49.6030 C   0  0  0  0  0  0  0  0  0  0  0  0
   59.9650   31.2470   48.3560 N   0  0  0  0  0  0  0  0  0  0  0  0
   59.2560   31.1020   47.1170 C   0  0  0  0  0  0  0  0  0  0  0  0
   58.9570   32.2330   46.3410 C   0  0  0  0  0  0  0  0  0  0  0  0
   59.3940   33.5130   46.7430 C   0  0  0  0  0  0  0  0  0  0  0  0
   59.0410   34.6440   46.0130 C   0  0  0  0  0  0  0  0  0  0  0  0
   58.2350   34.5220   44.8870 C   0  0  0  0  0  0  0  0  0  0  0  0
   57.8030   33.2660   44.4640 C   0  0  0  0  0  0  0  0  0  0  0  0
   58.1890   32.0880   45.1560 C   0  0  0  0  0  0  0  0  0  0  0  0
   57.8140   30.8300   44.7200 N   0  0  0  0  0  0  0  0  0  0  0  0
   57.2490   30.6510   43.3640 C   0  0  0  0  0  0  0  0  0  0  0  0
   57.9910   29.7320   45.5430 C   0  0  0  0  0  0  0  0  0  0  0  0
   57.4030   28.4750   45.2490 C   0  0  0  0  0  0  0  0  0  0  0  0
   57.6350   27.3620   46.0580 C   0  0  0  0  0  0  0  0  0  0  0  0
   56.8230   25.6850   45.6360 Br  0  0  0  0  0  0  0  0  0  0  0  0
   58.4470   27.4740   47.1820 C   0  0  0  0  0  0  0  0  0  0  0  0
   59.0030   28.7050   47.5210 C   0  0  0  0  0  0  0  0  0  0  0  0
   58.7590   29.8470   46.7320 C   0  0  0  0  0  0  0  0  0  0  0  0
   65.0029   32.4456   51.4681 H   0  0  0  0  0  0  0  0  0  0  0  0
   64.4243   31.0757   50.4605 H   0  0  0  0  0  0  0  0  0  0  0  0
   66.1653   31.5182   50.4605 H   0  0  0  0  0  0  0  0  0  0  0  0
   65.1932   33.8836   49.6653 H   0  0  0  0  0  0  0  0  0  0  0  0
   65.4870   32.4962   48.5011 H   0  0  0  0  0  0  0  0  0  0  0  0
   62.9730   32.1840   49.4090 H   0  0  0  0  0  0  0  0  0  0  0  0
   64.3434   32.1959   47.0976 H   0  0  0  0  0  0  0  0  0  0  0  0
   62.5628   31.8840   47.3116 H   0  0  0  0  0  0  0  0  0  0  0  0
   62.8133   34.6899   47.2295 H   0  0  0  0  0  0  0  0  0  0  0  0
   63.9088   34.0868   45.9401 H   0  0  0  0  0  0  0  0  0  0  0  0
   62.1759   33.6140   45.9401 H   0  0  0  0  0  0  0  0  0  0  0  0
   63.5011   34.8464   49.7823 H   0  0  0  0  0  0  0  0  0  0  0  0
   62.5636   34.7062   48.2276 H   0  0  0  0  0  0  0  0  0  0  0  0
   61.6216   34.4790   50.9789 H   0  0  0  0  0  0  0  0  0  0  0  0
   60.6905   34.5649   49.4394 H   0  0  0  0  0  0  0  0  0  0  0  0
   59.8002   32.1975   51.5332 H   0  0  0  0  0  0  0  0  0  0  0  0
   59.2882   33.4449   50.3576 H   0  0  0  0  0  0  0  0  0  0  0  0
   59.2268   30.4648   50.1554 H   0  0  0  0  0  0  0  0  0  0  0  0
   58.1922   31.7162   49.3552 H   0  0  0  0  0  0  0  0  0  0  0  0
   61.0030   31.3700   48.3260 H   0  0  0  0  0  0  0  0  0  0  0  0
   60.0195   33.6179   47.6417 H   0  0  0  0  0  0  0  0  0  0  0  0
   59.4000   35.6352   46.3272 H   0  0  0  0  0  0  0  0  0  0  0  0
   57.9367   35.4207   44.3272 H   0  0  0  0  0  0  0  0  0  0  0  0
   57.1529   33.1863   43.5803 H   0  0  0  0  0  0  0  0  0  0  0  0
   56.2031   30.3196   43.4434 H   0  0  0  0  0  0  0  0  0  0  0  0
   57.2907   31.6064   42.8203 H   0  0  0  0  0  0  0  0  0  0  0  0
   57.8332   29.8939   42.8203 H   0  0  0  0  0  0  0  0  0  0  0  0
   56.7525   28.3759   44.3675 H   0  0  0  0  0  0  0  0  0  0  0  0
   58.6501   26.5894   47.8036 H   0  0  0  0  0  0  0  0  0  0  0  0
   59.6396   28.7869   48.4144 H   0  0  0  0  0  0  0  0  0  0  0  0
  1  2  1  0
  2  3  1  0
  3  4  1  0
  4  5  1  0
  3  6  1  0
  6  7  1  0
  7  8  1  0
  8  9  1  0
  9 10  1  0
 10 11  1  0
 11 12  1  0
 12 13  2  0
 13 14  1  0
 14 15  2  0
 15 16  1  0
 16 17  2  0
 17 18  1  0
 18 19  2  0
 19 20  1  0
 19 21  1  0
 21 22  2  0
 22 23  1  0
 23 24  1  0
 23 25  2  0
 25 26  1  0
 26 27  2  0
 27 12  1  0
 18 13  1  0
 27 21  1  0
  1 28  1  0
  1 29  1  0
  1 30  1  0
  2 31  1  0
  2 32  1  0
  3 33  1  0
  4 34  1  0
  4 35  1  0
  5 36  1  0
  5 37  1  0
  5 38  1  0
  6 39  1  0
  6 40  1  0
  7 41  1  0
  7 42  1  0
  9 43  1  0
  9 44  1  0
 10 45  1  0
 10 46  1  0
 11 47  1  0
 14 48  1  0
 15 49  1  0
 16 50  1  0
 17 51  1  0
 20 52  1  0
 20 53  1  0
 20 54  1  0
 22 55  1  0
 25 56  1  0
 26 57  1  0
M  CHG  2   3   1  19   1
M  END
>  <UniqueID>  (14) 
14

>  <SMILES>  (14) 
CC[NH+](CC)CCOCCNc1c2ccccc2[n+](C)c2cc(Br)ccc12

>  <Energy>  (14) 
87.0544845675632

>  <Genealogy>  (14) 
CC[NH+](CC)CCOCCNc1c2ccccc2[n+](C)c2cc(Br)ccc12 (protonated)
CC[NH+](CC)CCOCCNc1c2ccccc2[n+](C)c2cc(Br)ccc12 (3D coordinates assigned)
CC[NH+](CC)CCOCCNc1c2ccccc2[n+](C)c2cc(Br)ccc12 (optimized conformer: 87.0544845675632 kcal/mol)

>  <smiles>  (14) 
CCN(CC)CCOCCNc1c2ccccc2[n+](C)c2cc(Br)ccc12

>  <score_type>  (14) 
oracle

>  <origin>  (14) 
adg

>  <m_score__min__energy>  (14) 
-4.1100000000000003

>  <m_primary>  (14) 
energy

$$$$
14:0
     RDKit          3D

 55 59  0  0  0  0  0  0  0  0999 V2000
   62.4500   33.8400   46.3520 C   0  0  0  0  0  0  0  0  0  0  0  0
   63.7640   33.3670   46.9660 C   0  0  0  0  0  0  0  0  0  0  0  0
   63.5310   32.1930   47.8400 N   0  0  0  0  0  0  0  0  0  0  0  0
   63.4990   32.6020   49.2560 C   0  0  0  0  0  0  0  0  0  0  0  0
   62.2780   31.4940   47.4840 C   0  0  0  0  0  0  0  0  0  0  0  0
   61.6280   30.8990   48.7360 C   0  0  0  0  0  0  0  0  0  0  0  0
   60.1820   31.1080   48.7010 N   0  0  0  0  0  0  0  0  0  0  0  0
   59.4410   31.0160   47.4760 C   0  0  0  0  0  0  0  0  0  0  0  0
   59.0900   29.7690   46.9630 C   0  0  0  0  0  0  0  0  0  0  0  0
   58.4010   29.6740   45.7670 C   0  0  0  0  0  0  0  0  0  0  0  0
   58.0770   30.7660   45.0060 N   0  0  0  0  0  0  0  0  0  0  0  0
   57.4890   30.5800   43.6690 C   0  0  0  0  0  0  0  0  0  0  0  0
   58.3430   32.0260   45.5170 C   0  0  0  0  0  0  0  0  0  0  0  0
   57.9160   33.1990   44.8500 C   0  0  0  0  0  0  0  0  0  0  0  0
   58.2140   34.4630   45.3610 C   0  0  0  0  0  0  0  0  0  0  0  0
   58.9330   34.5920   46.5450 C   0  0  0  0  0  0  0  0  0  0  0  0
   59.3490   33.4590   47.2400 C   0  0  0  0  0  0  0  0  0  0  0  0
   59.0580   32.1690   46.7520 C   0  0  0  0  0  0  0  0  0  0  0  0
   58.1930   28.2600   45.4960 C   0  0  0  0  0  0  0  0  0  0  0  0
   57.1000   27.6420   44.9930 N   0  0  0  0  0  0  0  0  0  0  0  0
   57.0300   26.4760   45.6700 C   0  0  0  0  0  0  0  0  0  0  0  0
   55.9990   25.5380   45.6150 C   0  0  0  0  0  0  0  0  0  0  0  0
   56.0120   24.4830   46.5470 C   0  0  0  0  0  0  0  0  0  0  0  0
   54.6320   23.1650   46.5070 Br  0  0  0  0  0  0  0  0  0  0  0  0
   57.0240   24.4120   47.5330 C   0  0  0  0  0  0  0  0  0  0  0  0
   58.0320   25.3910   47.5920 C   0  0  0  0  0  0  0  0  0  0  0  0
   58.0240   26.3900   46.6210 C   0  0  0  0  0  0  0  0  0  0  0  0
   58.7780   27.5350   46.4970 C   0  0  0  0  0  0  0  0  0  0  0  0
   59.4040   28.4070   47.5380 C   0  0  0  0  0  0  0  0  0  0  0  0
   61.7415   34.0951   47.1538 H   0  0  0  0  0  0  0  0  0  0  0  0
   62.6347   34.7281   45.7297 H   0  0  0  0  0  0  0  0  0  0  0  0
   62.0264   33.0379   45.7297 H   0  0  0  0  0  0  0  0  0  0  0  0
   64.4605   33.0879   46.1617 H   0  0  0  0  0  0  0  0  0  0  0  0
   64.1909   34.1822   47.5686 H   0  0  0  0  0  0  0  0  0  0  0  0
   63.5687   31.7106   49.8968 H   0  0  0  0  0  0  0  0  0  0  0  0
   64.3476   33.2703   49.4639 H   0  0  0  0  0  0  0  0  0  0  0  0
   62.5568   33.1302   49.4639 H   0  0  0  0  0  0  0  0  0  0  0  0
   61.5831   32.2088   47.0191 H   0  0  0  0  0  0  0  0  0  0  0  0
   62.5091   30.6811   46.7798 H   0  0  0  0  0  0  0  0  0  0  0  0
   61.8384   29.8201   48.7770 H   0  0  0  0  0  0  0  0  0  0  0  0
   62.0413   31.3960   49.6260 H   0  0  0  0  0  0  0  0  0  0  0  0
   59.6590   31.0700   49.6050 H   0  0  0  0  0  0  0  0  0  0  0  0
   56.4447   30.2497   43.7704 H   0  0  0  0  0  0  0  0  0  0  0  0
   57.5206   31.5320   43.1188 H   0  0  0  0  0  0  0  0  0  0  0  0
   58.0624   29.8194   43.1188 H   0  0  0  0  0  0  0  0  0  0  0  0
   57.3413   33.1132   43.9160 H   0  0  0  0  0  0  0  0  0  0  0  0
   57.8784   35.3627   44.8244 H   0  0  0  0  0  0  0  0  0  0  0  0
   59.1738   35.5925   46.9337 H   0  0  0  0  0  0  0  0  0  0  0  0
   59.9103   33.5720   48.1792 H   0  0  0  0  0  0  0  0  0  0  0  0
   56.3530   28.0500   44.3880 H   0  0  0  0  0  0  0  0  0  0  0  0
   55.1987   25.6203   44.8648 H   0  0  0  0  0  0  0  0  0  0  0  0
   57.0225   23.5853   48.2586 H   0  0  0  0  0  0  0  0  0  0  0  0
   58.8009   25.3687   48.3784 H   0  0  0  0  0  0  0  0  0  0  0  0
   58.9390   28.2632   48.5244 H   0  0  0  0  0  0  0  0  0  0  0  0
   60.4718   28.2164   47.7210 H   0  0  0  0  0  0  0  0  0  0  0  0
  1  2  1  0
  2  3  1  0
  3  4  1  0
  3  5  1  0
  5  6  1  0
  6  7  1  0
  7  8  1  0
  8  9  2  0
  9 10  1  0
 10 11  2  0
 11 12  1  0
 11 13  1  0
 13 14  2  0
 14 15  1  0
 15 16  2  0
 16 17  1  0
 17 18  2  0
 10 19  1  0
 19 20  1  0
 20 21  1  0
 21 22  2  0
 22 23  1  0
 23 24  1  0
 23 25  2  0
 25 26  1  0
 26 27  2  0
 27 28  1  0
 28 29  1  0
 18  8  1  0
 28 19  2  0
 29  9  1  0
 18 13  1  0
 27 21  1  0
  1 30  1  0
  1 31  1  0
  1 32  1  0
  2 33  1  0
  2 34  1  0
  4 35  1  0
  4 36  1  0
  4 37  1  0
  5 38  1  0
  5 39  1  0
  6 40  1  0
  6 41  1  0
  7 42  1  0
 12 43  1  0
 12 44  1  0
 12 45  1  0
 14 46  1  0
 15 47  1  0
 16 48  1  0
 17 49  1  0
 20 50  1  0
 22 51  1  0
 25 52  1  0
 26 53  1  0
 29 54  1  0
 29 55  1  0
M  CHG  1  11   1
M  END
>  <UniqueID>  (15) 
15

>  <SMILES>  (15) 
CCN(C)CCNc1c2c([n+](C)c3ccccc13)-c1[nH]c3cc(Br)ccc3c1C2

>  <Energy>  (15) 
145.9018773890406

>  <Genealogy>  (15) 
CCN(C)CCNc1c2c([n+](C)c3ccccc13)-c1[nH]c3cc(Br)ccc3c1C2 (3D coordinates assigned)
CCN(C)CCNc1c2c([n+](C)c3ccccc13)-c1[nH]c3cc(Br)ccc3c1C2 (nonaromatic ring conformer: 145.9018773890406 kcal/mol)

>  <smiles>  (15) 
CCN(C)CCNc1c2c([n+](C)c3ccccc13)-c1[nH]c3cc(Br)ccc3c1C2

>  <score_type>  (15) 
oracle

>  <origin>  (15) 
adg

>  <m_score__min__energy>  (15) 
-7.3600000000000003

>  <m_primary>  (15) 
energy

$$$$
15:0
     RDKit          3D

 34 35  0  0  0  0  0  0  0  0999 V2000
   63.3900   33.8510   46.2250 C   0  0  0  0  0  0  0  0  0  0  0  0
   63.7510   33.0410   47.4650 C   0  0  0  0  0  0  0  0  0  0  0  0
   62.6800   33.1330   48.4650 N   0  0  0  0  0  0  0  0  0  0  0  0
   62.8830   32.6540   49.7230 C   0  0  0  0  0  0  0  0  0  0  0  0
   61.8890   32.7710   50.6860 C   0  0  0  0  0  0  0  0  0  0  0  0
   60.6820   33.3950   50.3500 C   0  0  0  0  0  0  0  0  0  0  0  0
   59.6170   33.5210   51.4120 C   0  0  0  0  0  0  0  0  0  0  0  0
   60.5040   33.8850   49.0750 N   0  0  0  0  0  0  0  0  0  0  0  0
   59.2700   34.5880   48.6730 C   0  0  0  0  0  0  0  0  0  0  0  0
   58.9280   34.3080   47.2310 C   0  0  0  0  0  0  0  0  0  0  0  0
   59.4770   35.0980   46.2050 C   0  0  0  0  0  0  0  0  0  0  0  0
   59.1690   34.8300   44.8670 C   0  0  0  0  0  0  0  0  0  0  0  0
   58.3200   33.7690   44.5430 C   0  0  0  0  0  0  0  0  0  0  0  0
   57.7810   32.9700   45.5550 C   0  0  0  0  0  0  0  0  0  0  0  0
   56.9610   31.9370   45.2380 F   0  0  0  0  0  0  0  0  0  0  0  0
   58.0870   33.2340   46.8940 C   0  0  0  0  0  0  0  0  0  0  0  0
   61.5050   33.7520   48.1500 C   0  0  0  0  0  0  0  0  0  0  0  0
   62.9598   34.8163   46.5300 H   0  0  0  0  0  0  0  0  0  0  0  0
   64.2952   34.0262   45.6251 H   0  0  0  0  0  0  0  0  0  0  0  0
   62.6545   33.2950   45.6251 H   0  0  0  0  0  0  0  0  0  0  0  0
   63.8929   31.9877   47.1815 H   0  0  0  0  0  0  0  0  0  0  0  0
   64.6788   33.4439   47.8972 H   0  0  0  0  0  0  0  0  0  0  0  0
   63.8384   32.1722   49.9779 H   0  0  0  0  0  0  0  0  0  0  0  0
   62.0485   32.3779   51.7009 H   0  0  0  0  0  0  0  0  0  0  0  0
   60.0830   33.4659   52.4069 H   0  0  0  0  0  0  0  0  0  0  0  0
   59.1014   34.4864   51.3015 H   0  0  0  0  0  0  0  0  0  0  0  0
   58.8904   32.7026   51.3015 H   0  0  0  0  0  0  0  0  0  0  0  0
   58.4402   34.2495   49.3108 H   0  0  0  0  0  0  0  0  0  0  0  0
   59.4319   35.6698   48.7889 H   0  0  0  0  0  0  0  0  0  0  0  0
   60.1514   35.9301   46.4557 H   0  0  0  0  0  0  0  0  0  0  0  0
   59.5958   35.4554   44.0691 H   0  0  0  0  0  0  0  0  0  0  0  0
   58.0756   33.5623   43.4906 H   0  0  0  0  0  0  0  0  0  0  0  0
   57.6672   32.5978   47.6871 H   0  0  0  0  0  0  0  0  0  0  0  0
   61.3596   34.1510   47.1353 H   0  0  0  0  0  0  0  0  0  0  0  0
  1  2  1  0
  2  3  1  0
  3  4  2  0
  4  5  1  0
  5  6  2  0
  6  7  1  0
  6  8  1  0
  8  9  1  0
  9 10  1  0
 10 11  2  0
 11 12  1  0
 12 13  2  0
 13 14  1  0
 14 15  1  0
 14 16  2  0
  8 17  2  0
 17  3  1  0
 16 10  1  0
  1 18  1  0
  1 19  1  0
  1 20  1  0
  2 21  1  0
  2 22  1  0
  4 23  1  0
  5 24  1  0
  7 25  1  0
  7 26  1  0
  7 27  1  0
  9 28  1  0
  9 29  1  0
 11 30  1  0
 12 31  1  0
 13 32  1  0
 16 33  1  0
 17 34  1  0
M  CHG  2   3   1   8   1
M  END
>  <UniqueID>  (16) 
16

>  <SMILES>  (16) 
CC[n+]1ccc(C)[n+](Cc2cccc(F)c2)c1

>  <Energy>  (16) 
33.27837317233539

>  <Genealogy>  (16) 
CC[n+]1ccc(C)[n+](Cc2cccc(F)c2)c1 (3D coordinates assigned)
CC[n+]1ccc(C)[n+](Cc2cccc(F)c2)c1 (optimized conformer: 33.27837317233539 kcal/mol)

>  <smiles>  (16) 
CC[n+]1ccc(C)[n+](Cc2cccc(F)c2)c1

>  <score_type>  (16) 
oracle

>  <origin>  (16) 
adg

>  <m_score__min__energy>  (16) 
-3.1200000000000001

>  <m_primary>  (16) 
energy

$$$$
16:0
     RDKit          3D

 73 76  0  0  0  0  0  0  0  0999 V2000
   63.6810   33.7840   50.1600 C   0  0  0  0  0  0  0  0  0  0  0  0
   64.5010   32.9120   49.2170 C   0  0  0  0  0  0  0  0  0  0  0  0
   64.1970   33.2620   47.8240 N   0  0  0  0  0  0  0  0  0  0  0  0
   62.7560   33.2310   47.5320 C   0  0  0  0  0  0  0  0  0  0  0  0
   62.2200   31.8470   47.0990 C   0  0  0  0  0  0  0  0  0  0  0  0
   61.7800   30.9270   48.2510 C   0  0  0  0  0  0  0  0  0  0  0  0
   60.6240   29.9990   47.8590 C   0  0  0  0  0  0  0  0  0  0  0  0
   59.3450   30.6950   47.9730 N   0  0  0  0  0  0  0  0  0  0  0  0
   58.7780   31.3260   46.8190 C   0  0  0  0  0  0  0  0  0  0  0  0
   58.1090   30.5290   45.8750 C   0  0  0  0  0  0  0  0  0  0  0  0
   57.7350   29.2020   46.1820 C   0  0  0  0  0  0  0  0  0  0  0  0
   57.0170   28.4350   45.2660 C   0  0  0  0  0  0  0  0  0  0  0  0
   56.6630   28.9730   44.0350 C   0  0  0  0  0  0  0  0  0  0  0  0
   57.0490   30.2710   43.7010 C   0  0  0  0  0  0  0  0  0  0  0  0
   57.8130   31.0610   44.5990 C   0  0  0  0  0  0  0  0  0  0  0  0
   58.2820   32.3100   44.2500 N   0  0  0  0  0  0  0  0  0  0  0  0
   58.3050   32.7120   42.8240 C   0  0  0  0  0  0  0  0  0  0  0  0
   58.7470   33.1720   45.2280 C   0  0  0  0  0  0  0  0  0  0  0  0
   58.9910   34.5360   44.9370 C   0  0  0  0  0  0  0  0  0  0  0  0
   59.4940   35.3980   45.8990 C   0  0  0  0  0  0  0  0  0  0  0  0
   59.6970   34.9560   47.1950 C   0  0  0  0  0  0  0  0  0  0  0  0
   59.3970   33.6350   47.5720 C   0  0  0  0  0  0  0  0  0  0  0  0
   59.3710   33.2940   48.9820 N   0  0  0  0  0  0  0  0  0  0  0  0
   60.3940   33.6880   49.9610 C   0  0  0  0  0  0  0  0  0  0  0  0
   60.1610   33.0380   51.3380 C   0  0  0  0  0  0  0  0  0  0  0  0
   58.7430   33.2820   51.8880 C   0  0  0  0  0  0  0  0  0  0  0  0
   57.7450   32.3330   51.3400 N   0  0  0  0  0  0  0  0  0  0  0  0
   58.3910   31.0840   50.8610 C   0  0  0  0  0  0  0  0  0  0  0  0
   58.1870   29.9140   51.8400 C   0  0  0  0  0  0  0  0  0  0  0  0
   56.8200   29.6040   52.0750 O   0  0  0  0  0  0  0  0  0  0  0  0
   55.9580   30.7300   52.0000 C   0  0  0  0  0  0  0  0  0  0  0  0
   56.6530   32.0680   52.3060 C   0  0  0  0  0  0  0  0  0  0  0  0
   58.9780   32.7050   46.5610 C   0  0  0  0  0  0  0  0  0  0  0  0
   63.9234   33.5263   51.2016 H   0  0  0  0  0  0  0  0  0  0  0  0
   63.9182   34.8429   49.9796 H   0  0  0  0  0  0  0  0  0  0  0  0
   62.6096   33.6123   49.9796 H   0  0  0  0  0  0  0  0  0  0  0  0
   65.5720   33.0740   49.4087 H   0  0  0  0  0  0  0  0  0  0  0  0
   64.2490   31.8551   49.3888 H   0  0  0  0  0  0  0  0  0  0  0  0
   64.7090   32.6220   47.1750 H   0  0  0  0  0  0  0  0  0  0  0  0
   62.2149   33.5410   48.4382 H   0  0  0  0  0  0  0  0  0  0  0  0
   62.5941   33.9096   46.6815 H   0  0  0  0  0  0  0  0  0  0  0  0
   61.3529   32.0080   46.4415 H   0  0  0  0  0  0  0  0  0  0  0  0
   63.0580   31.3360   46.6024 H   0  0  0  0  0  0  0  0  0  0  0  0
   62.6382   30.3104   48.5563 H   0  0  0  0  0  0  0  0  0  0  0  0
   61.4272   31.5684   49.0721 H   0  0  0  0  0  0  0  0  0  0  0  0
   60.7635   29.6669   46.8197 H   0  0  0  0  0  0  0  0  0  0  0  0
   60.6184   29.1332   48.5375 H   0  0  0  0  0  0  0  0  0  0  0  0
   58.7230   30.5100   48.7930 H   0  0  0  0  0  0  0  0  0  0  0  0
   58.0133   28.7693   47.1543 H   0  0  0  0  0  0  0  0  0  0  0  0
   56.7305   27.4033   45.5179 H   0  0  0  0  0  0  0  0  0  0  0  0
   56.0771   28.3741   43.3223 H   0  0  0  0  0  0  0  0  0  0  0  0
   56.7567   30.6889   42.7264 H   0  0  0  0  0  0  0  0  0  0  0  0
   58.3677   33.8079   42.7530 H   0  0  0  0  0  0  0  0  0  0  0  0
   59.1789   32.2620   42.3302 H   0  0  0  0  0  0  0  0  0  0  0  0
   57.3855   32.3646   42.3302 H   0  0  0  0  0  0  0  0  0  0  0  0
   58.7773   34.9190   43.9282 H   0  0  0  0  0  0  0  0  0  0  0  0
   59.7329   36.4379   45.6313 H   0  0  0  0  0  0  0  0  0  0  0  0
   60.1010   35.6520   47.9449 H   0  0  0  0  0  0  0  0  0  0  0  0
   58.4640   33.0050   49.4020 H   0  0  0  0  0  0  0  0  0  0  0  0
   61.3810   33.3796   49.5859 H   0  0  0  0  0  0  0  0  0  0  0  0
   60.3378   34.7792   50.0883 H   0  0  0  0  0  0  0  0  0  0  0  0
   60.3186   31.9534   51.2445 H   0  0  0  0  0  0  0  0  0  0  0  0
   60.8701   33.4975   52.0423 H   0  0  0  0  0  0  0  0  0  0  0  0
   58.7669   33.1743   52.9825 H   0  0  0  0  0  0  0  0  0  0  0  0
   58.4392   34.2949   51.5850 H   0  0  0  0  0  0  0  0  0  0  0  0
   57.9576   30.8114   49.8874 H   0  0  0  0  0  0  0  0  0  0  0  0
   59.4717   31.2719   50.7785 H   0  0  0  0  0  0  0  0  0  0  0  0
   58.6799   29.0225   51.4249 H   0  0  0  0  0  0  0  0  0  0  0  0
   58.6202   30.2190   52.8040 H   0  0  0  0  0  0  0  0  0  0  0  0
   55.5417   30.7805   50.9831 H   0  0  0  0  0  0  0  0  0  0  0  0
   55.1822   30.5901   52.7672 H   0  0  0  0  0  0  0  0  0  0  0  0
   55.9133   32.8798   52.2442 H   0  0  0  0  0  0  0  0  0  0  0  0
   57.0844   32.0155   53.3165 H   0  0  0  0  0  0  0  0  0  0  0  0
  1  2  1  0
  2  3  1  0
  3  4  1  0
  4  5  1  0
  5  6  1  0
  6  7  1  0
  7  8  1  0
  8  9  1  0
  9 10  2  0
 10 11  1  0
 11 12  2  0
 12 13  1  0
 13 14  2  0
 14 15  1  0
 15 16  2  0
 16 17  1  0
 16 18  1  0
 18 19  2  0
 19 20  1  0
 20 21  2  0
 21 22  1  0
 22 23  1  0
 23 24  1  0
 24 25  1  0
 25 26  1  0
 26 27  1  0
 27 28  1  0
 28 29  1  0
 29 30  1  0
 30 31  1  0
 31 32  1  0
 22 33  2  0
 33  9  1  0
 15 10  1  0
 33 18  1  0
 32 27  1  0
  1 34  1  0
  1 35  1  0
  1 36  1  0
  2 37  1  0
  2 38  1  0
  3 39  1  0
  4 40  1  0
  4 41  1  0
  5 42  1  0
  5 43  1  0
  6 44  1  0
  6 45  1  0
  7 46  1  0
  7 47  1  0
  8 48  1  0
 11 49  1  0
 12 50  1  0
 13 51  1  0
 14 52  1  0
 17 53  1  0
 17 54  1  0
 17 55  1  0
 19 56  1  0
 20 57  1  0
 21 58  1  0
 23 59  1  0
 24 60  1  0
 24 61  1  0
 25 62  1  0
 25 63  1  0
 26 64  1  0
 26 65  1  0
 28 66  1  0
 28 67  1  0
 29 68  1  0
 29 69  1  0
 31 70  1  0
 31 71  1  0
 32 72  1  0
 32 73  1  0
M  CHG  1  16   1
M  END
>  <UniqueID>  (17) 
17

>  <SMILES>  (17) 
CCNCCCCNc1c2ccccc2[n+](C)c2cccc(NCCCN3CCOCC3)c12

>  <Energy>  (17) 
115.02950759117132

>  <Genealogy>  (17) 
CCNCCCCNc1c2ccccc2[n+](C)c2cccc(NCCCN3CCOCC3)c12 (3D coordinates assigned)
CCNCCCCNc1c2ccccc2[n+](C)c2cccc(NCCCN3CCOCC3)c12 (nonaromatic ring conformer: 115.02950759117132 kcal/mol)

>  <smiles>  (17) 
CCNCCCCNc1c2ccccc2[n+](C)c2cccc(NCCCN3CCOCC3)c12

>  <score_type>  (17) 
oracle

>  <origin>  (17) 
adg

>  <m_score__min__energy>  (17) 
-6.9500000000000002

>  <m_primary>  (17) 
energy

$$$$
17:0
     RDKit          3D

 75 78  0  0  0  0  0  0  0  0999 V2000
   53.3830   30.7320   51.3070 C   0  0  0  0  0  0  0  0  0  0  0  0
   53.6200   29.4200   52.0640 C   0  0  0  0  0  0  0  0  0  0  0  0
   55.0320   29.2620   52.4660 N   0  0  0  0  0  0  0  0  0  0  0  0
   55.5760   30.5000   53.0520 C   0  0  0  0  0  0  0  0  0  0  0  0
   56.9790   30.8090   52.5060 C   0  0  0  0  0  0  0  0  0  0  0  0
   57.3730   29.8540   51.5370 O   0  0  0  0  0  0  0  0  0  0  0  0
   58.7560   29.5720   51.6430 C   0  0  0  0  0  0  0  0  0  0  0  0
   59.4160   29.7370   50.2710 C   0  0  0  0  0  0  0  0  0  0  0  0
   58.6640   30.6850   49.4450 N   0  0  0  0  0  0  0  0  0  0  0  0
   58.9540   30.8180   48.0510 C   0  0  0  0  0  0  0  0  0  0  0  0
   59.1900   29.6610   47.2920 C   0  0  0  0  0  0  0  0  0  0  0  0
   59.4220   28.4170   47.9160 C   0  0  0  0  0  0  0  0  0  0  0  0
   59.7000   27.2820   47.1590 C   0  0  0  0  0  0  0  0  0  0  0  0
   59.7580   27.3670   45.7730 C   0  0  0  0  0  0  0  0  0  0  0  0
   59.5050   28.5800   45.1360 C   0  0  0  0  0  0  0  0  0  0  0  0
   59.1820   29.7430   45.8790 C   0  0  0  0  0  0  0  0  0  0  0  0
   58.8560   30.9320   45.2620 N   0  0  0  0  0  0  0  0  0  0  0  0
   58.4880   30.9380   43.8290 C   0  0  0  0  0  0  0  0  0  0  0  0
   58.8540   32.1100   45.9900 C   0  0  0  0  0  0  0  0  0  0  0  0
   58.8100   33.3650   45.3400 C   0  0  0  0  0  0  0  0  0  0  0  0
   58.7800   34.5470   46.0620 C   0  0  0  0  0  0  0  0  0  0  0  0
   58.8510   34.5240   47.4450 C   0  0  0  0  0  0  0  0  0  0  0  0
   58.9660   33.3090   48.1520 C   0  0  0  0  0  0  0  0  0  0  0  0
   59.1900   33.3300   49.5540 O   0  0  0  0  0  0  0  0  0  0  0  0
   60.4800   33.6090   50.1210 C   0  0  0  0  0  0  0  0  0  0  0  0
   61.5280   32.4760   49.9540 C   0  0  0  0  0  0  0  0  0  0  0  0
   62.5990   32.6740   48.9130 N   0  0  0  0  0  0  0  0  0  0  0  0
   63.9190   32.7690   49.5980 C   0  0  0  0  0  0  0  0  0  0  0  0
   62.3450   33.8810   48.0670 C   0  0  0  0  0  0  0  0  0  0  0  0
   63.0460   33.8210   46.6860 C   0  0  0  0  0  0  0  0  0  0  0  0
   64.1220   32.9070   46.6890 O   0  0  0  0  0  0  0  0  0  0  0  0
   63.6420   31.5870   46.8780 C   0  0  0  0  0  0  0  0  0  0  0  0
   62.5970   31.4770   48.0200 C   0  0  0  0  0  0  0  0  0  0  0  0
   58.9160   32.0800   47.4180 C   0  0  0  0  0  0  0  0  0  0  0  0
   53.2353   31.5497   52.0278 H   0  0  0  0  0  0  0  0  0  0  0  0
   54.2557   30.9535   50.6750 H   0  0  0  0  0  0  0  0  0  0  0  0
   52.4880   30.6342   50.6750 H   0  0  0  0  0  0  0  0  0  0  0  0
   52.9906   29.4115   52.9661 H   0  0  0  0  0  0  0  0  0  0  0  0
   53.3624   28.5881   51.3920 H   0  0  0  0  0  0  0  0  0  0  0  0
   55.6110   28.9730   51.6440 H   0  0  0  0  0  0  0  0  0  0  0  0
   55.0870   28.4990   53.1790 H   0  0  0  0  0  0  0  0  0  0  0  0
   54.9047   31.3366   52.8081 H   0  0  0  0  0  0  0  0  0  0  0  0
   55.6503   30.3642   54.1410 H   0  0  0  0  0  0  0  0  0  0  0  0
   56.9725   31.8073   52.0440 H   0  0  0  0  0  0  0  0  0  0  0  0
   57.6937   30.7730   53.3414 H   0  0  0  0  0  0  0  0  0  0  0  0
   59.2185   30.2677   52.3587 H   0  0  0  0  0  0  0  0  0  0  0  0
   58.8942   28.5391   51.9951 H   0  0  0  0  0  0  0  0  0  0  0  0
   60.4417   30.1106   50.4064 H   0  0  0  0  0  0  0  0  0  0  0  0
   59.4291   28.7603   49.7652 H   0  0  0  0  0  0  0  0  0  0  0  0
   58.0230   31.3850   49.8860 H   0  0  0  0  0  0  0  0  0  0  0  0
   59.3828   28.3430   49.0128 H   0  0  0  0  0  0  0  0  0  0  0  0
   59.8738   26.3174   47.6583 H   0  0  0  0  0  0  0  0  0  0  0  0
   60.0040   26.4751   45.1780 H   0  0  0  0  0  0  0  0  0  0  0  0
   59.5568   28.6360   44.0386 H   0  0  0  0  0  0  0  0  0  0  0  0
   57.3924   30.9559   43.7319 H   0  0  0  0  0  0  0  0  0  0  0  0
   58.9136   31.8293   43.3449 H   0  0  0  0  0  0  0  0  0  0  0  0
   58.8843   30.0333   43.3449 H   0  0  0  0  0  0  0  0  0  0  0  0
   58.7994   33.4035   44.2407 H   0  0  0  0  0  0  0  0  0  0  0  0
   58.6994   35.5087   45.5342 H   0  0  0  0  0  0  0  0  0  0  0  0
   58.8171   35.4715   48.0027 H   0  0  0  0  0  0  0  0  0  0  0  0
   60.8764   34.5146   49.6385 H   0  0  0  0  0  0  0  0  0  0  0  0
   60.3219   33.7250   51.2034 H   0  0  0  0  0  0  0  0  0  0  0  0
   62.0301   32.3446   50.9239 H   0  0  0  0  0  0  0  0  0  0  0  0
   60.9514   31.6069   49.6045 H   0  0  0  0  0  0  0  0  0  0  0  0
   63.7683   32.7582   50.6876 H   0  0  0  0  0  0  0  0  0  0  0  0
   64.5460   31.9137   49.3060 H   0  0  0  0  0  0  0  0  0  0  0  0
   64.4171   33.7053   49.3060 H   0  0  0  0  0  0  0  0  0  0  0  0
   61.2608   33.9714   47.9045 H   0  0  0  0  0  0  0  0  0  0  0  0
   62.7576   34.7477   48.6041 H   0  0  0  0  0  0  0  0  0  0  0  0
   62.3137   33.5080   45.9272 H   0  0  0  0  0  0  0  0  0  0  0  0
   63.4443   34.8208   46.4584 H   0  0  0  0  0  0  0  0  0  0  0  0
   63.1748   31.2470   45.9420 H   0  0  0  0  0  0  0  0  0  0  0  0
   64.5025   30.9622   47.1594 H   0  0  0  0  0  0  0  0  0  0  0  0
   61.5970   31.3708   47.5743 H   0  0  0  0  0  0  0  0  0  0  0  0
   62.8613   30.6022   48.6323 H   0  0  0  0  0  0  0  0  0  0  0  0
  1  2  1  0
  2  3  1  0
  3  4  1  0
  4  5  1  0
  5  6  1  0
  6  7  1  0
  7  8  1  0
  8  9  1  0
  9 10  1  0
 10 11  2  0
 11 12  1  0
 12 13  2  0
 13 14  1  0
 14 15  2  0
 15 16  1  0
 16 17  2  0
 17 18  1  0
 17 19  1  0
 19 20  2  0
 20 21  1  0
 21 22  2  0
 22 23  1  0
 23 24  1  0
 24 25  1  0
 25 26  1  0
 26 27  1  0
 27 28  1  0
 27 29  1  0
 29 30  1  0
 30 31  1  0
 31 32  1  0
 32 33  1  0
 23 34  2  0
 34 10  1  0
 16 11  1  0
 34 19  1  0
 33 27  1  0
  1 35  1  0
  1 36  1  0
  1 37  1  0
  2 38  1  0
  2 39  1  0
  3 40  1  0
  3 41  1  0
  4 42  1  0
  4 43  1  0
  5 44  1  0
  5 45  1  0
  7 46  1  0
  7 47  1  0
  8 48  1  0
  8 49  1  0
  9 50  1  0
 12 51  1  0
 13 52  1  0
 14 53  1  0
 15 54  1  0
 18 55  1  0
 18 56  1  0
 18 57  1  0
 20 58  1  0
 21 59  1  0
 22 60  1  0
 25 61  1  0
 25 62  1  0
 26 63  1  0
 26 64  1  0
 28 65  1  0
 28 66  1  0
 28 67  1  0
 29 68  1  0
 29 69  1  0
 30 70  1  0
 30 71  1  0
 32 72  1  0
 32 73  1  0
 33 74  1  0
 33 75  1  0
M  CHG  3   3   1  17   1  27   1
M  END
>  <UniqueID>  (18) 
18

>  <SMILES>  (18) 
CC[NH2+]CCOCCNc1c2ccccc2[n+](C)c2cccc(OCC[N+]3(C)CCOCC3)c12

>  <Energy>  (18) 
130.91789120717493

>  <Genealogy>  (18) 
CC[NH2+]CCOCCNc1c2ccccc2[n+](C)c2cccc(OCC[N+]3(C)CCOCC3)c12 (protonated)
CC[NH2+]CCOCCNc1c2ccccc2[n+](C)c2cccc(OCC[N+]3(C)CCOCC3)c12 (3D coordinates assigned)
CC[NH2+]CCOCCNc1c2ccccc2[n+](C)c2cccc(OCC[N+]3(C)CCOCC3)c12 (nonaromatic ring conformer: 130.91789120717493 kcal/mol)

>  <smiles>  (18) 
CCNCCOCCNc1c2ccccc2[n+](C)c2cccc(OCC[N+]3(C)CCOCC3)c12

>  <score_type>  (18) 
oracle

>  <origin>  (18) 
adg

>  <m_score__min__energy>  (18) 
-3.9300000000000002

>  <m_primary>  (18) 
energy

$$$$
18:0
     RDKit          3D

 37 39  0  0  0  0  0  0  0  0999 V2000
   63.3560   33.8340   46.5340 C   0  0  0  0  0  0  0  0  0  0  0  0
   62.5890   32.9340   47.5100 C   0  0  0  0  0  0  0  0  0  0  0  0
   61.2400   33.4700   47.8100 N   0  0  0  0  0  0  0  0  0  0  0  0
   61.1090   34.1810   49.1040 C   0  0  0  0  0  0  0  0  0  0  0  0
   59.7820   33.8360   49.7750 C   0  0  0  0  0  0  0  0  0  0  0  0
   60.2880   33.5930   46.8930 C   0  0  0  0  0  0  0  0  0  0  0  0
   60.0700   34.8280   46.3550 N   0  0  0  0  0  0  0  0  0  0  0  0
   59.2610   35.0500   45.2970 C   0  0  0  0  0  0  0  0  0  0  0  0
   58.6260   33.9890   44.6690 C   0  0  0  0  0  0  0  0  0  0  0  0
   58.7300   32.6880   45.2010 C   0  0  0  0  0  0  0  0  0  0  0  0
   59.4970   32.5040   46.3940 C   0  0  0  0  0  0  0  0  0  0  0  0
   59.3160   31.3100   47.1170 C   0  0  0  0  0  0  0  0  0  0  0  0
   58.5760   30.2530   46.6000 C   0  0  0  0  0  0  0  0  0  0  0  0
   57.9630   30.3610   45.3530 C   0  0  0  0  0  0  0  0  0  0  0  0
   57.2590   29.2630   44.8310 C   0  0  0  0  0  0  0  0  0  0  0  0
   56.6320   29.3540   43.5890 C   0  0  0  0  0  0  0  0  0  0  0  0
   56.7060   30.5360   42.8570 C   0  0  0  0  0  0  0  0  0  0  0  0
   57.3960   31.6390   43.3650 C   0  0  0  0  0  0  0  0  0  0  0  0
   58.0290   31.5820   44.6320 C   0  0  0  0  0  0  0  0  0  0  0  0
   63.9676   34.5517   47.1004 H   0  0  0  0  0  0  0  0  0  0  0  0
   64.0089   33.2154   45.9007 H   0  0  0  0  0  0  0  0  0  0  0  0
   62.6417   34.3806   45.9007 H   0  0  0  0  0  0  0  0  0  0  0  0
   62.4836   31.9340   47.0641 H   0  0  0  0  0  0  0  0  0  0  0  0
   63.1561   32.8897   48.4515 H   0  0  0  0  0  0  0  0  0  0  0  0
   61.9364   33.8838   49.7651 H   0  0  0  0  0  0  0  0  0  0  0  0
   61.1409   35.2647   48.9179 H   0  0  0  0  0  0  0  0  0  0  0  0
   59.9045   33.8678   50.8677 H   0  0  0  0  0  0  0  0  0  0  0  0
   59.0167   34.5650   49.4704 H   0  0  0  0  0  0  0  0  0  0  0  0
   59.4686   32.8265   49.4704 H   0  0  0  0  0  0  0  0  0  0  0  0
   59.1051   36.0759   44.9320 H   0  0  0  0  0  0  0  0  0  0  0  0
   58.0403   34.1631   43.7543 H   0  0  0  0  0  0  0  0  0  0  0  0
   59.7705   31.2111   48.1138 H   0  0  0  0  0  0  0  0  0  0  0  0
   58.4734   29.3238   47.1797 H   0  0  0  0  0  0  0  0  0  0  0  0
   57.2021   28.3265   45.4052 H   0  0  0  0  0  0  0  0  0  0  0  0
   56.0789   28.4921   43.1875 H   0  0  0  0  0  0  0  0  0  0  0  0
   56.2184   30.6015   41.8732 H   0  0  0  0  0  0  0  0  0  0  0  0
   57.4489   32.5649   42.7735 H   0  0  0  0  0  0  0  0  0  0  0  0
  1  2  1  0
  2  3  1  0
  3  4  1  0
  4  5  1  0
  3  6  2  3
  6  7  1  0
  7  8  1  0
  8  9  2  0
  9 10  1  0
 10 11  2  0
 11 12  1  0
 12 13  2  0
 13 14  1  0
 14 15  2  0
 15 16  1  0
 16 17  2  0
 17 18  1  0
 18 19  2  0
 11  6  1  0
 19 14  1  0
 19 10  1  0
  1 20  1  0
  1 21  1  0
  1 22  1  0
  2 23  1  0
  2 24  1  0
  4 25  1  0
  4 26  1  0
  5 27  1  0
  5 28  1  0
  5 29  1  0
  8 30  1  0
  9 31  1  0
 12 32  1  0
 13 33  1  0
 15 34  1  0
 16 35  1  0
 17 36  1  0
 18 37  1  0
M  CHG  2   3   1   7  -1
M  END
>  <UniqueID>  (19) 
19

>  <SMILES>  (19) 
CC[N+](CC)=c1[n-]ccc2c1ccc1ccccc12

>  <Energy>  (19) 
70.85412257848277

>  <Genealogy>  (19) 
CC[N+](CC)=c1[n-]ccc2c1ccc1ccccc12 (protonated)
CC[N+](CC)=c1[n-]ccc2c1ccc1ccccc12 (3D coordinates assigned)
CC[N+](CC)=c1[n-]ccc2c1ccc1ccccc12 (optimized conformer: 70.85412257848277 kcal/mol)

>  <smiles>  (19) 
CC[N+](CC)=c1[nH]ccc2c1ccc1ccccc12

>  <score_type>  (19) 
oracle

>  <origin>  (19) 
adg

>  <m_score__min__energy>  (19) 
-7.0199999999999996

>  <m_primary>  (19) 
energy

$$$$
19:0
     RDKit          3D

 87 90  0  0  0  0  0  0  0  0999 V2000
   63.2550   33.8540   46.4250 C   0  0  0  0  0  0  0  0  0  0  0  0
   63.2660   32.5780   47.2610 C   0  0  0  0  0  0  0  0  0  0  0  0
   62.6200   32.8000   48.5670 N   0  0  0  0  0  0  0  0  0  0  0  0
   63.6050   32.7240   49.6580 C   0  0  0  0  0  0  0  0  0  0  0  0
   63.5770   31.3580   50.3700 C   0  0  0  0  0  0  0  0  0  0  0  0
   62.3170   31.1280   51.2160 C   0  0  0  0  0  0  0  0  0  0  0  0
   61.1650   30.8410   50.3510 N   0  0  0  0  0  0  0  0  0  0  0  0
   61.3710   29.6430   49.5170 C   0  0  0  0  0  0  0  0  0  0  0  0
   60.5510   29.6810   48.2230 C   0  0  0  0  0  0  0  0  0  0  0  0
   59.6450   30.8280   48.2170 N   0  0  0  0  0  0  0  0  0  0  0  0
   59.0760   31.2880   46.9860 C   0  0  0  0  0  0  0  0  0  0  0  0
   58.3920   30.3780   46.1610 C   0  0  0  0  0  0  0  0  0  0  0  0
   58.1310   29.0610   46.6010 C   0  0  0  0  0  0  0  0  0  0  0  0
   57.4120   28.1770   45.8030 C   0  0  0  0  0  0  0  0  0  0  0  0
   56.9310   28.5870   44.5640 C   0  0  0  0  0  0  0  0  0  0  0  0
   57.1800   29.8800   44.1100 C   0  0  0  0  0  0  0  0  0  0  0  0
   57.9440   30.7930   44.8830 C   0  0  0  0  0  0  0  0  0  0  0  0
   58.2430   32.0590   44.4240 N   0  0  0  0  0  0  0  0  0  0  0  0
   58.0600   32.3940   42.9920 C   0  0  0  0  0  0  0  0  0  0  0  0
   58.7180   33.0160   45.3030 C   0  0  0  0  0  0  0  0  0  0  0  0
   58.7560   34.3870   44.9420 C   0  0  0  0  0  0  0  0  0  0  0  0
   59.2610   35.3460   45.8140 C   0  0  0  0  0  0  0  0  0  0  0  0
   59.7120   34.9800   47.0710 C   0  0  0  0  0  0  0  0  0  0  0  0
   59.6490   33.6450   47.4950 C   0  0  0  0  0  0  0  0  0  0  0  0
   60.0730   33.3240   48.7910 O   0  0  0  0  0  0  0  0  0  0  0  0
   59.9050   34.1970   49.9050 C   0  0  0  0  0  0  0  0  0  0  0  0
   60.0790   33.4470   51.2470 C   0  0  0  0  0  0  0  0  0  0  0  0
   58.8330   33.1220   52.0250 N   0  0  0  0  0  0  0  0  0  0  0  0
   58.1880   34.3760   52.4990 C   0  0  0  0  0  0  0  0  0  0  0  0
   57.8420   32.3560   51.1960 C   0  0  0  0  0  0  0  0  0  0  0  0
   58.0940   30.8320   51.2360 C   0  0  0  0  0  0  0  0  0  0  0  0
   57.9180   30.2680   52.6130 N   0  0  0  0  0  0  0  0  0  0  0  0
   58.8270   29.1040   52.7790 C   0  0  0  0  0  0  0  0  0  0  0  0
   56.5250   29.7850   52.7750 C   0  0  0  0  0  0  0  0  0  0  0  0
   58.2010   31.2860   53.6750 C   0  0  0  0  0  0  0  0  0  0  0  0
   59.2580   32.3200   53.2290 C   0  0  0  0  0  0  0  0  0  0  0  0
   59.1660   32.6440   46.6070 C   0  0  0  0  0  0  0  0  0  0  0  0
   63.2475   34.7290   47.0916 H   0  0  0  0  0  0  0  0  0  0  0  0
   64.1529   33.8843   45.7903 H   0  0  0  0  0  0  0  0  0  0  0  0
   62.3567   33.8688   45.7903 H   0  0  0  0  0  0  0  0  0  0  0  0
   62.7236   31.7884   46.7204 H   0  0  0  0  0  0  0  0  0  0  0  0
   64.3105   32.2784   47.4317 H   0  0  0  0  0  0  0  0  0  0  0  0
   61.8770   32.0740   48.7100 H   0  0  0  0  0  0  0  0  0  0  0  0
   62.1810   33.7520   48.5640 H   0  0  0  0  0  0  0  0  0  0  0  0
   64.6098   32.8859   49.2406 H   0  0  0  0  0  0  0  0  0  0  0  0
   63.3510   33.4970   50.3982 H   0  0  0  0  0  0  0  0  0  0  0  0
   63.6318   30.5676   49.6069 H   0  0  0  0  0  0  0  0  0  0  0  0
   64.4345   31.3372   51.0587 H   0  0  0  0  0  0  0  0  0  0  0  0
   62.4844   30.2760   51.8913 H   0  0  0  0  0  0  0  0  0  0  0  0
   62.1078   32.0370   51.7991 H   0  0  0  0  0  0  0  0  0  0  0  0
   60.9910   31.6650   49.7290 H   0  0  0  0  0  0  0  0  0  0  0  0
   62.4375   29.5733   49.2569 H   0  0  0  0  0  0  0  0  0  0  0  0
   61.0386   28.7700   50.0979 H   0  0  0  0  0  0  0  0  0  0  0  0
   61.2348   29.7569   47.3647 H   0  0  0  0  0  0  0  0  0  0  0  0
   59.9541   28.7594   48.1563 H   0  0  0  0  0  0  0  0  0  0  0  0
   59.3070   31.2520   49.1110 H   0  0  0  0  0  0  0  0  0  0  0  0
   58.4997   28.7316   47.5836 H   0  0  0  0  0  0  0  0  0  0  0  0
   57.2234   27.1513   46.1527 H   0  0  0  0  0  0  0  0  0  0  0  0
   56.3527   27.8886   43.9413 H   0  0  0  0  0  0  0  0  0  0  0  0
   56.7782   30.1987   43.1369 H   0  0  0  0  0  0  0  0  0  0  0  0
   57.5343   33.3563   42.9048 H   0  0  0  0  0  0  0  0  0  0  0  0
   59.0431   32.4677   42.5041 H   0  0  0  0  0  0  0  0  0  0  0  0
   57.4667   31.6066   42.5041 H   0  0  0  0  0  0  0  0  0  0  0  0
   58.3798   34.6972   43.9560 H   0  0  0  0  0  0  0  0  0  0  0  0
   59.3023   36.4004   45.5034 H   0  0  0  0  0  0  0  0  0  0  0  0
   60.1245   35.7455   47.7447 H   0  0  0  0  0  0  0  0  0  0  0  0
   60.6540   35.0004   49.8452 H   0  0  0  0  0  0  0  0  0  0  0  0
   58.8851   34.6077   49.8698 H   0  0  0  0  0  0  0  0  0  0  0  0
   60.5899   32.4972   51.0304 H   0  0  0  0  0  0  0  0  0  0  0  0
   60.6375   34.1444   51.8887 H   0  0  0  0  0  0  0  0  0  0  0  0
   58.1802   34.3912   53.5989 H   0  0  0  0  0  0  0  0  0  0  0  0
   58.7521   35.2428   52.1243 H   0  0  0  0  0  0  0  0  0  0  0  0
   57.1548   34.4212   52.1243 H   0  0  0  0  0  0  0  0  0  0  0  0
   56.8307   32.5570   51.5791 H   0  0  0  0  0  0  0  0  0  0  0  0
   57.9508   32.6867   50.1526 H   0  0  0  0  0  0  0  0  0  0  0  0
   57.3845   30.3371   50.5566 H   0  0  0  0  0  0  0  0  0  0  0  0
   59.1341   30.6522   50.9265 H   0  0  0  0  0  0  0  0  0  0  0  0
   58.9800   28.9081   53.8506 H   0  0  0  0  0  0  0  0  0  0  0  0
   58.3790   28.2184   52.3047 H   0  0  0  0  0  0  0  0  0  0  0  0
   59.7948   29.3240   52.3047 H   0  0  0  0  0  0  0  0  0  0  0  0
   56.2877   29.7027   53.8459 H   0  0  0  0  0  0  0  0  0  0  0  0
   55.8329   30.4956   52.2996 H   0  0  0  0  0  0  0  0  0  0  0  0
   56.4214   28.7985   52.2996 H   0  0  0  0  0  0  0  0  0  0  0  0
   57.2673   31.8157   53.9151 H   0  0  0  0  0  0  0  0  0  0  0  0
   58.5988   30.7552   54.5525 H   0  0  0  0  0  0  0  0  0  0  0  0
   59.4430   33.0129   54.0631 H   0  0  0  0  0  0  0  0  0  0  0  0
   60.1630   31.7618   52.9472 H   0  0  0  0  0  0  0  0  0  0  0  0
  1  2  1  0
  2  3  1  0
  3  4  1  0
  4  5  1  0
  5  6  1  0
  6  7  1  0
  7  8  1  0
  8  9  1  0
  9 10  1  0
 10 11  1  0
 11 12  2  0
 12 13  1  0
 13 14  2  0
 14 15  1  0
 15 16  2  0
 16 17  1  0
 17 18  2  0
 18 19  1  0
 18 20  1  0
 20 21  2  0
 21 22  1  0
 22 23  2  0
 23 24  1  0
 24 25  1  0
 25 26  1  0
 26 27  1  0
 27 28  1  0
 28 29  1  0
 28 30  1  0
 30 31  1  0
 31 32  1  0
 32 33  1  0
 32 34  1  0
 32 35  1  0
 35 36  1  0
 24 37  2  0
 37 11  1  0
 17 12  1  0
 37 20  1  0
 36 28  1  0
  1 38  1  0
  1 39  1  0
  1 40  1  0
  2 41  1  0
  2 42  1  0
  3 43  1  0
  3 44  1  0
  4 45  1  0
  4 46  1  0
  5 47  1  0
  5 48  1  0
  6 49  1  0
  6 50  1  0
  7 51  1  0
  8 52  1  0
  8 53  1  0
  9 54  1  0
  9 55  1  0
 10 56  1  0
 13 57  1  0
 14 58  1  0
 15 59  1  0
 16 60  1  0
 19 61  1  0
 19 62  1  0
 19 63  1  0
 21 64  1  0
 22 65  1  0
 23 66  1  0
 26 67  1  0
 26 68  1  0
 27 69  1  0
 27 70  1  0
 29 71  1  0
 29 72  1  0
 29 73  1  0
 30 74  1  0
 30 75  1  0
 31 76  1  0
 31 77  1  0
 33 78  1  0
 33 79  1  0
 33 80  1  0
 34 81  1  0
 34 82  1  0
 34 83  1  0
 35 84  1  0
 35 85  1  0
 36 86  1  0
 36 87  1  0
M  CHG  4   3   1  18   1  28   1  32   1
M  END
>  <UniqueID>  (20) 
20

>  <SMILES>  (20) 
CC[NH2+]CCCNCCNc1c2ccccc2[n+](C)c2cccc(OCC[N+]3(C)CC[N+](C)(C)CC3)c12

>  <Energy>  (20) 
140.94302637813956

>  <Genealogy>  (20) 
CC[NH2+]CCCNCCNc1c2ccccc2[n+](C)c2cccc(OCC[N+]3(C)CC[N+](C)(C)CC3)c12 (protonated)
CC[NH2+]CCCNCCNc1c2ccccc2[n+](C)c2cccc(OCC[N+]3(C)CC[N+](C)(C)CC3)c12 (3D coordinates assigned)
CC[NH2+]CCCNCCNc1c2ccccc2[n+](C)c2cccc(OCC[N+]3(C)CC[N+](C)(C)CC3)c12 (nonaromatic ring conformer: 140.94302637813956 kcal/mol)

>  <smiles>  (20) 
CCNCCCNCCNc1c2ccccc2[n+](C)c2cccc(OCC[N+]3(C)CC[N+](C)(C)CC3)c12

>  <score_type>  (20) 
oracle

>  <origin>  (20) 
adg

>  <m_score__min__energy>  (20) 
-2.7400000000000002

>  <m_primary>  (20) 
energy

$$$$
20:0
     RDKit          3D

 38 40  0  0  0  0  0  0  0  0999 V2000
   59.6870   35.3450   45.7870 C   0  0  0  0  0  0  0  0  0  0  0  0
   58.8670   34.4760   44.8460 C   0  0  0  0  0  0  0  0  0  0  0  0
   57.2110   34.1850   45.5520 S   0  0  0  0  0  0  0  0  0  0  0  0
   57.4160   32.4040   45.6110 C   0  0  0  0  0  0  0  0  0  0  0  0
   56.7190   31.5570   44.8310 N   0  0  0  0  0  0  0  0  0  0  0  0
   57.1850   30.3400   45.0720 N   0  0  0  0  0  0  0  0  0  0  0  0
   58.1630   30.4610   45.9920 C   0  0  0  0  0  0  0  0  0  0  0  0
   58.9190   29.3030   46.5170 C   0  0  0  0  0  0  0  0  0  0  0  0
   59.6600   28.4650   45.6680 C   0  0  0  0  0  0  0  0  0  0  0  0
   60.3710   27.3860   46.1940 C   0  0  0  0  0  0  0  0  0  0  0  0
   60.3480   27.1580   47.5710 C   0  0  0  0  0  0  0  0  0  0  0  0
   59.6440   27.9870   48.3850 N   0  0  0  0  0  0  0  0  0  0  0  0
   58.9430   29.0450   47.8970 C   0  0  0  0  0  0  0  0  0  0  0  0
   58.3350   31.7530   46.3560 N   0  0  0  0  0  0  0  0  0  0  0  0
   59.4020   32.3360   47.1220 C   0  0  0  0  0  0  0  0  0  0  0  0
   60.7390   32.0960   46.7670 C   0  0  0  0  0  0  0  0  0  0  0  0
   61.7780   32.6580   47.5120 C   0  0  0  0  0  0  0  0  0  0  0  0
   61.5020   33.4680   48.6200 C   0  0  0  0  0  0  0  0  0  0  0  0
   62.5810   34.0090   49.3360 O   0  0  0  0  0  0  0  0  0  0  0  0
   63.8730   33.4150   49.4120 C   0  0  0  0  0  0  0  0  0  0  0  0
   60.1610   33.7100   48.9760 C   0  0  0  0  0  0  0  0  0  0  0  0
   59.1220   33.1470   48.2300 C   0  0  0  0  0  0  0  0  0  0  0  0
   59.4443   35.0878   46.8286 H   0  0  0  0  0  0  0  0  0  0  0  0
   60.7581   35.1715   45.6065 H   0  0  0  0  0  0  0  0  0  0  0  0
   59.4517   36.4043   45.6065 H   0  0  0  0  0  0  0  0  0  0  0  0
   58.7654   34.9845   43.8759 H   0  0  0  0  0  0  0  0  0  0  0  0
   59.3764   33.5107   44.7091 H   0  0  0  0  0  0  0  0  0  0  0  0
   59.6799   28.6598   44.5856 H   0  0  0  0  0  0  0  0  0  0  0  0
   60.9439   26.7217   45.5304 H   0  0  0  0  0  0  0  0  0  0  0  0
   60.8999   26.3071   47.9969 H   0  0  0  0  0  0  0  0  0  0  0  0
   58.3922   29.7017   48.5864 H   0  0  0  0  0  0  0  0  0  0  0  0
   60.9693   31.4623   45.8979 H   0  0  0  0  0  0  0  0  0  0  0  0
   62.8220   32.4626   47.2258 H   0  0  0  0  0  0  0  0  0  0  0  0
   64.1554   33.2852   50.4672 H   0  0  0  0  0  0  0  0  0  0  0  0
   63.8556   32.4345   48.9138 H   0  0  0  0  0  0  0  0  0  0  0  0
   64.6060   34.0665   48.9138 H   0  0  0  0  0  0  0  0  0  0  0  0
   59.9306   34.3445   49.8445 H   0  0  0  0  0  0  0  0  0  0  0  0
   58.0774   33.3418   48.5144 H   0  0  0  0  0  0  0  0  0  0  0  0
  1  2  1  0
  2  3  1  0
  3  4  1  0
  4  5  2  0
  5  6  1  0
  6  7  2  0
  7  8  1  0
  8  9  2  0
  9 10  1  0
 10 11  2  0
 11 12  1  0
 12 13  2  0
  7 14  1  0
 14 15  1  0
 15 16  2  0
 16 17  1  0
 17 18  2  0
 18 19  1  0
 19 20  1  0
 18 21  1  0
 21 22  2  0
 14  4  1  0
 22 15  1  0
 13  8  1  0
  1 23  1  0
  1 24  1  0
  1 25  1  0
  2 26  1  0
  2 27  1  0
  9 28  1  0
 10 29  1  0
 11 30  1  0
 13 31  1  0
 16 32  1  0
 17 33  1  0
 20 34  1  0
 20 35  1  0
 20 36  1  0
 21 37  1  0
 22 38  1  0
M  END
>  <UniqueID>  (21) 
21

>  <SMILES>  (21) 
CCSc1nnc(-c2cccnc2)n1-c1ccc(OC)cc1

>  <Energy>  (21) 
78.20370530900175

>  <Genealogy>  (21) 
CCSc1nnc(-c2cccnc2)n1-c1ccc(OC)cc1 (3D coordinates assigned)
CCSc1nnc(-c2cccnc2)n1-c1ccc(OC)cc1 (optimized conformer: 78.20370530900175 kcal/mol)

>  <smiles>  (21) 
CCSc1nnc(-c2cccnc2)n1-c1ccc(OC)cc1

>  <score_type>  (21) 
oracle

>  <origin>  (21) 
adg

>  <m_score__min__energy>  (21) 
-6.96

>  <m_primary>  (21) 
energy

$$$$
21:0
     RDKit          3D

121127  0  0  0  0  0  0  0  0999 V2000
   58.0940   26.7500   42.5900 C   0  0  0  0  0  0  0  0  0  0  0  0
   58.4640   26.7080   44.0860 C   0  0  0  0  0  0  0  0  0  0  0  0
   57.3470   26.2460   44.9690 N   0  0  0  0  0  0  0  0  0  0  0  0
   57.5690   24.8170   45.3010 C   0  0  0  0  0  0  0  0  0  0  0  0
   57.1400   23.8570   44.1900 C   0  0  0  0  0  0  0  0  0  0  0  0
   57.2580   27.0460   46.2290 C   0  0  0  0  0  0  0  0  0  0  0  0
   58.5230   27.8340   46.5880 C   0  0  0  0  0  0  0  0  0  0  0  0
   58.1950   29.1650   47.1500 N   0  0  0  0  0  0  0  0  0  0  0  0
   58.6030   30.3900   46.5110 C   0  0  0  0  0  0  0  0  0  0  0  0
   58.1810   30.6400   45.1930 C   0  0  0  0  0  0  0  0  0  0  0  0
   57.7220   29.5970   44.3640 C   0  0  0  0  0  0  0  0  0  0  0  0
   57.1220   29.8630   43.1350 C   0  0  0  0  0  0  0  0  0  0  0  0
   56.9240   31.1710   42.7430 C   0  0  0  0  0  0  0  0  0  0  0  0
   57.4060   32.2190   43.5220 C   0  0  0  0  0  0  0  0  0  0  0  0
   58.1300   31.9760   44.7210 C   0  0  0  0  0  0  0  0  0  0  0  0
   58.7660   32.9820   45.4250 N   0  0  0  0  0  0  0  0  0  0  0  0
   58.8840   34.3500   44.8550 C   0  0  0  0  0  0  0  0  0  0  0  0
   59.3350   32.7100   46.6680 C   0  0  0  0  0  0  0  0  0  0  0  0
   59.9650   33.7340   47.4250 C   0  0  0  0  0  0  0  0  0  0  0  0
   60.6400   33.4550   48.6100 C   0  0  0  0  0  0  0  0  0  0  0  0
   61.3760   34.5440   49.3390 C   0  0  0  0  0  0  0  0  0  0  0  0
   60.6090   32.1660   49.1380 C   0  0  0  0  0  0  0  0  0  0  0  0
   59.9100   31.1400   48.4810 C   0  0  0  0  0  0  0  0  0  0  0  0
   59.8630   29.8610   49.0590 O   0  0  0  0  0  0  0  0  0  0  0  0
   59.7870   29.5680   50.4560 C   0  0  0  0  0  0  0  0  0  0  0  0
   58.4810   30.1430   51.0100 C   0  0  0  0  0  0  0  0  0  0  0  0
   58.7010   31.2940   51.9170 N   0  0  2  0  0  0  0  0  0  0  0  0
   58.3240   31.0930   53.3340 C   0  0  0  0  0  0  0  0  0  0  0  0
   59.1790   32.1430   54.0640 C   0  0  0  0  0  0  0  0  0  0  0  0
   59.9890   32.7630   52.9840 N   0  0  2  0  0  0  0  0  0  0  0  0
   61.3040   33.3090   53.4230 C   0  0  0  0  0  0  0  0  0  0  0  0
   62.5560   32.6110   52.8630 C   0  0  0  0  0  0  0  0  0  0  0  0
   63.0350   32.9460   51.4210 C   0  0  0  0  0  0  0  0  0  0  0  0
   64.2410   32.2220   50.8190 N   0  0  0  0  0  0  0  0  0  0  0  0
   65.5370   32.9470   51.0450 C   0  0  0  0  0  0  0  0  0  0  0  0
   66.7410   32.4350   50.2230 C   0  0  0  0  0  0  0  0  0  0  0  0
   63.9480   32.0430   49.3390 C   0  0  0  0  0  0  0  0  0  0  0  0
   64.1190   33.2730   48.4180 C   0  0  0  0  0  0  0  0  0  0  0  0
   64.2670   30.8590   51.4640 C   0  0  0  0  0  0  0  0  0  0  0  0
   65.2590   30.6520   52.6260 C   0  0  0  0  0  0  0  0  0  0  0  0
   66.0740   29.4730   52.3670 N   0  0  0  0  0  0  0  0  0  0  0  0
   65.6140   28.2160   51.8750 C   0  0  0  0  0  0  0  0  0  0  0  0
   64.4100   27.8400   51.8920 O   0  0  0  0  0  0  0  0  0  0  0  0
   66.7210   27.4700   51.2810 C   0  0  0  0  0  0  0  0  0  0  0  0
   66.7460   26.2200   50.6650 C   0  0  0  0  0  0  0  0  0  0  0  0
   67.9650   25.7630   50.1340 C   0  0  0  0  0  0  0  0  0  0  0  0
   69.1270   26.5660   50.2350 C   0  0  0  0  0  0  0  0  0  0  0  0
   69.0740   27.8230   50.8610 C   0  0  0  0  0  0  0  0  0  0  0  0
   67.8570   28.2430   51.3830 C   0  0  0  0  0  0  0  0  0  0  0  0
   67.4740   29.4820   52.0510 C   0  0  0  0  0  0  0  0  0  0  0  0
   68.2410   30.4550   52.2680 O   0  0  0  0  0  0  0  0  0  0  0  0
   59.0950   33.6220   52.1600 C   0  0  0  0  0  0  0  0  0  0  0  0
   58.1660   32.6040   51.4430 C   0  0  0  0  0  0  0  0  0  0  0  0
   60.1070   31.6320   52.0830 C   0  0  0  0  0  0  0  0  0  0  0  0
   59.2730   31.3970   47.2310 C   0  0  0  0  0  0  0  0  0  0  0  0
   57.0060   26.8735   42.4847 H   0  0  0  0  0  0  0  0  0  0  0  0
   58.6073   27.5956   42.1089 H   0  0  0  0  0  0  0  0  0  0  0  0
   58.4047   25.8108   42.1089 H   0  0  0  0  0  0  0  0  0  0  0  0
   59.3145   26.0224   44.2143 H   0  0  0  0  0  0  0  0  0  0  0  0
   58.7065   27.7380   44.3864 H   0  0  0  0  0  0  0  0  0  0  0  0
   56.4400   26.3160   44.4300 H   0  0  0  0  0  0  0  0  0  0  0  0
   58.6414   24.6675   45.4951 H   0  0  0  0  0  0  0  0  0  0  0  0
   56.9493   24.5900   46.1810 H   0  0  0  0  0  0  0  0  0  0  0  0
   56.7299   22.9392   44.6366 H   0  0  0  0  0  0  0  0  0  0  0  0
   56.3708   24.3372   43.5672 H   0  0  0  0  0  0  0  0  0  0  0  0
   58.0108   23.6043   43.5672 H   0  0  0  0  0  0  0  0  0  0  0  0
   56.4296   27.7616   46.1208 H   0  0  0  0  0  0  0  0  0  0  0  0
   57.1065   26.3214   47.0426 H   0  0  0  0  0  0  0  0  0  0  0  0
   59.0993   27.2645   47.3320 H   0  0  0  0  0  0  0  0  0  0  0  0
   59.1080   27.9833   45.6685 H   0  0  0  0  0  0  0  0  0  0  0  0
   57.7610   29.1970   48.0940 H   0  0  0  0  0  0  0  0  0  0  0  0
   57.8395   28.5540   44.6931 H   0  0  0  0  0  0  0  0  0  0  0  0
   56.8082   29.0357   42.4815 H   0  0  0  0  0  0  0  0  0  0  0  0
   56.3825   31.3867   41.8101 H   0  0  0  0  0  0  0  0  0  0  0  0
   57.2230   33.2559   43.2035 H   0  0  0  0  0  0  0  0  0  0  0  0
   58.9473   35.0835   45.6723 H   0  0  0  0  0  0  0  0  0  0  0  0
   59.7908   34.4121   44.2355 H   0  0  0  0  0  0  0  0  0  0  0  0
   58.0012   34.5665   44.2355 H   0  0  0  0  0  0  0  0  0  0  0  0
   59.9182   34.7727   47.0659 H   0  0  0  0  0  0  0  0  0  0  0  0
   61.2739   34.3929   50.4238 H   0  0  0  0  0  0  0  0  0  0  0  0
   62.4405   34.5151   49.0634 H   0  0  0  0  0  0  0  0  0  0  0  0
   60.9523   35.5210   49.0634 H   0  0  0  0  0  0  0  0  0  0  0  0
   61.1370   31.9498   50.0784 H   0  0  0  0  0  0  0  0  0  0  0  0
   59.8047   28.4785   50.6068 H   0  0  0  0  0  0  0  0  0  0  0  0
   60.6445   30.0163   50.9792 H   0  0  0  0  0  0  0  0  0  0  0  0
   57.8568   30.4739   50.1669 H   0  0  0  0  0  0  0  0  0  0  0  0
   57.9904   29.3499   51.5934 H   0  0  0  0  0  0  0  0  0  0  0  0
   58.5729   30.0756   53.6701 H   0  0  0  0  0  0  0  0  0  0  0  0
   57.2453   31.2038   53.5185 H   0  0  0  0  0  0  0  0  0  0  0  0
   59.8273   31.6662   54.8139 H   0  0  0  0  0  0  0  0  0  0  0  0
   58.5701   32.8780   54.6108 H   0  0  0  0  0  0  0  0  0  0  0  0
   61.3459   34.3655   53.1195 H   0  0  0  0  0  0  0  0  0  0  0  0
   61.3400   33.1456   54.5102 H   0  0  0  0  0  0  0  0  0  0  0  0
   63.3878   32.8518   53.5413 H   0  0  0  0  0  0  0  0  0  0  0  0
   62.2578   31.5541   52.7990 H   0  0  0  0  0  0  0  0  0  0  0  0
   62.1836   32.7514   50.7522 H   0  0  0  0  0  0  0  0  0  0  0  0
   63.3872   33.9842   51.5106 H   0  0  0  0  0  0  0  0  0  0  0  0
   65.3807   34.0061   50.7924 H   0  0  0  0  0  0  0  0  0  0  0  0
   65.7979   32.7749   52.0997 H   0  0  0  0  0  0  0  0  0  0  0  0
   67.5344   32.0976   50.9061 H   0  0  0  0  0  0  0  0  0  0  0  0
   66.4214   31.5949   49.5889 H   0  0  0  0  0  0  0  0  0  0  0  0
   67.1243   33.2480   49.5889 H   0  0  0  0  0  0  0  0  0  0  0  0
   64.6192   31.2562   48.9642 H   0  0  0  0  0  0  0  0  0  0  0  0
   62.8739   31.8101   49.2947 H   0  0  0  0  0  0  0  0  0  0  0  0
   64.2446   34.1766   49.0326 H   0  0  0  0  0  0  0  0  0  0  0  0
   65.0066   33.1351   47.7831 H   0  0  0  0  0  0  0  0  0  0  0  0
   63.2274   33.3824   47.7831 H   0  0  0  0  0  0  0  0  0  0  0  0
   63.2572   30.6554   51.8498 H   0  0  0  0  0  0  0  0  0  0  0  0
   64.6083   30.1755   50.6726 H   0  0  0  0  0  0  0  0  0  0  0  0
   65.9094   31.5348   52.7140 H   0  0  0  0  0  0  0  0  0  0  0  0
   64.7005   30.5119   53.5632 H   0  0  0  0  0  0  0  0  0  0  0  0
   65.8354   25.6068   50.5961 H   0  0  0  0  0  0  0  0  0  0  0  0
   68.0161   24.7815   49.6400 H   0  0  0  0  0  0  0  0  0  0  0  0
   70.0788   26.2029   49.8201 H   0  0  0  0  0  0  0  0  0  0  0  0
   69.9704   28.4562   50.9356 H   0  0  0  0  0  0  0  0  0  0  0  0
   59.6751   34.2056   51.4300 H   0  0  0  0  0  0  0  0  0  0  0  0
   58.5392   34.3580   52.7595 H   0  0  0  0  0  0  0  0  0  0  0  0
   58.2453   32.6942   50.3496 H   0  0  0  0  0  0  0  0  0  0  0  0
   57.0987   32.7498   51.6659 H   0  0  0  0  0  0  0  0  0  0  0  0
   60.5738   31.9172   51.1287 H   0  0  0  0  0  0  0  0  0  0  0  0
   60.7408   30.8112   52.4499 H   0  0  0  0  0  0  0  0  0  0  0  0
  1  2  1  0
  2  3  1  0
  3  4  1  0
  4  5  1  0
  3  6  1  0
  6  7  1  0
  7  8  1  0
  8  9  1  0
  9 10  2  0
 10 11  1  0
 11 12  2  0
 12 13  1  0
 13 14  2  0
 14 15  1  0
 15 16  2  0
 16 17  1  0
 16 18  1  0
 18 19  2  0
 19 20  1  0
 20 21  1  0
 20 22  2  0
 22 23  1  0
 23 24  1  0
 24 25  1  0
 25 26  1  0
 27 26  1  6
 27 28  1  0
 28 29  1  0
 29 30  1  0
 30 31  1  1
 31 32  1  0
 32 33  1  0
 33 34  1  0
 34 35  1  0
 35 36  1  0
 34 37  1  0
 37 38  1  0
 34 39  1  0
 39 40  1  0
 40 41  1  0
 41 42  1  0
 42 43  2  0
 42 44  1  0
 44 45  2  0
 45 46  1  0
 46 47  2  0
 47 48  1  0
 48 49  2  0
 49 50  1  0
 50 51  2  0
 30 52  1  0
 52 53  1  0
 30 54  1  0
 23 55  2  0
 55  9  1  0
 15 10  1  0
 55 18  1  0
 53 27  1  0
 54 27  1  0
 50 41  1  0
 49 44  1  0
  1 56  1  0
  1 57  1  0
  1 58  1  0
  2 59  1  0
  2 60  1  0
  3 61  1  0
  4 62  1  0
  4 63  1  0
  5 64  1  0
  5 65  1  0
  5 66  1  0
  6 67  1  0
  6 68  1  0
  7 69  1  0
  7 70  1  0
  8 71  1  0
 11 72  1  0
 12 73  1  0
 13 74  1  0
 14 75  1  0
 17 76  1  0
 17 77  1  0
 17 78  1  0
 19 79  1  0
 21 80  1  0
 21 81  1  0
 21 82  1  0
 22 83  1  0
 25 84  1  0
 25 85  1  0
 26 86  1  0
 26 87  1  0
 28 88  1  0
 28 89  1  0
 29 90  1  0
 29 91  1  0
 31 92  1  0
 31 93  1  0
 32 94  1  0
 32 95  1  0
 33 96  1  0
 33 97  1  0
 35 98  1  0
 35 99  1  0
 36100  1  0
 36101  1  0
 36102  1  0
 37103  1  0
 37104  1  0
 38105  1  0
 38106  1  0
 38107  1  0
 39108  1  0
 39109  1  0
 40110  1  0
 40111  1  0
 45112  1  0
 46113  1  0
 47114  1  0
 48115  1  0
 52116  1  0
 52117  1  0
 53118  1  0
 53119  1  0
 54120  1  0
 54121  1  0
M  CHG  5   3   1  16   1  27   1  30   1  34   1
M  END
>  <UniqueID>  (22) 
22

>  <SMILES>  (22) 
CC[NH+](CC)CCNc1c2ccccc2[n+](C)c2cc(C)cc(OCC[N+]34CC[N+](CCC[N+](CC)(CC)CCN5C(=O)c6ccccc6C5=O)(CC3)C4)c12

>  <Energy>  (22) 
282.45931682804286

>  <Genealogy>  (22) 
CC[NH+](CC)CCNc1c2ccccc2[n+](C)c2cc(C)cc(OCC[N+]34CC[N+](CCC[N+](CC)(CC)CCN5C(=O)c6ccccc6C5=O)(CC3)C4)c12 (protonated)
CC[NH+](CC)CCNc1c2ccccc2[n+](C)c2cc(C)cc(OCC[N+]34CC[N+](CCC[N+](CC)(CC)CCN5C(=O)c6ccccc6C5=O)(CC3)C4)c12 (3D coordinates assigned)
CC[NH+](CC)CCNc1c2ccccc2[n+](C)c2cc(C)cc(OCC[N+]34CC[N+](CCC[N+](CC)(CC)CCN5C(=O)c6ccccc6C5=O)(CC3)C4)c12 (nonaromatic ring conformer: 282.45931682804286 kcal/mol)

>  <smiles>  (22) 
CCN(CC)CCNc1c2ccccc2[n+](C)c2cc(C)cc(OCC[N+]34CC[N+](CCC[N+](CC)(CC)CCN5C(=O)c6ccccc6C5=O)(CC3)C4)c12

>  <score_type>  (22) 
oracle

>  <origin>  (22) 
adg

>  <m_score__min__energy>  (22) 
-3.9500000000000002

>  <m_primary>  (22) 
energy

$$$$
22:0
     RDKit          3D

 63 66  0  0  0  0  0  0  0  0999 V2000
   62.7980   33.8050   46.4790 C   0  0  0  0  0  0  0  0  0  0  0  0
   63.4820   32.6280   47.1730 C   0  0  0  0  0  0  0  0  0  0  0  0
   63.5610   32.8590   48.6340 N   0  0  0  0  0  0  0  0  0  0  0  0
   62.9290   34.1470   48.9810 C   0  0  0  0  0  0  0  0  0  0  0  0
   62.9230   31.7430   49.3740 C   0  0  0  0  0  0  0  0  0  0  0  0
   62.0330   32.2480   50.5260 C   0  0  0  0  0  0  0  0  0  0  0  0
   60.6490   31.7890   50.3930 N   0  0  0  0  0  0  0  0  0  0  0  0
   60.3250   30.7360   49.4720 C   0  0  0  0  0  0  0  0  0  0  0  0
   60.5890   29.4000   49.8140 C   0  0  0  0  0  0  0  0  0  0  0  0
   61.2120   29.0720   51.0360 C   0  0  0  0  0  0  0  0  0  0  0  0
   61.4690   27.7430   51.3680 C   0  0  0  0  0  0  0  0  0  0  0  0
   61.1120   26.7240   50.4910 C   0  0  0  0  0  0  0  0  0  0  0  0
   60.4800   27.0260   49.2850 C   0  0  0  0  0  0  0  0  0  0  0  0
   60.1910   28.3670   48.9290 C   0  0  0  0  0  0  0  0  0  0  0  0
   59.5320   28.6770   47.7560 N   0  0  0  0  0  0  0  0  0  0  0  0
   58.7450   27.6290   47.0750 C   0  0  0  0  0  0  0  0  0  0  0  0
   59.4790   29.9860   47.3080 C   0  0  0  0  0  0  0  0  0  0  0  0
   59.7900   31.0330   48.2050 C   0  0  0  0  0  0  0  0  0  0  0  0
   59.5980   32.3550   47.7950 C   0  0  0  0  0  0  0  0  0  0  0  0
   59.0320   32.6330   46.5540 C   0  0  0  0  0  0  0  0  0  0  0  0
   58.7670   33.9620   46.2020 C   0  0  0  0  0  0  0  0  0  0  0  0
   58.1770   34.2580   44.9810 C   0  0  0  0  0  0  0  0  0  0  0  0
   57.8030   33.2330   44.1210 C   0  0  0  0  0  0  0  0  0  0  0  0
   58.0480   31.8830   44.4410 C   0  0  0  0  0  0  0  0  0  0  0  0
   57.3680   30.8490   43.5560 C   0  0  0  0  0  0  0  0  0  0  0  0
   56.0130   30.4090   44.1240 C   0  0  0  0  0  0  0  0  0  0  0  0
   56.1960   29.4400   45.2020 N   0  0  0  0  0  0  0  0  0  0  0  0
   58.7510   31.5710   45.6580 C   0  0  0  0  0  0  0  0  0  0  0  0
   59.1800   30.2970   45.9920 N   0  0  0  0  0  0  0  0  0  0  0  0
   59.7250   29.4210   44.9350 C   0  0  0  0  0  0  0  0  0  0  0  0
   62.3972   34.4947   47.2364 H   0  0  0  0  0  0  0  0  0  0  0  0
   63.5287   34.3351   45.8505 H   0  0  0  0  0  0  0  0  0  0  0  0
   61.9757   33.4325   45.8505 H   0  0  0  0  0  0  0  0  0  0  0  0
   62.9050   31.7110   46.9826 H   0  0  0  0  0  0  0  0  0  0  0  0
   64.5021   32.5252   46.7744 H   0  0  0  0  0  0  0  0  0  0  0  0
   62.8794   34.2481   50.0752 H   0  0  0  0  0  0  0  0  0  0  0  0
   63.5246   34.9720   48.5632 H   0  0  0  0  0  0  0  0  0  0  0  0
   61.9120   34.1807   48.5632 H   0  0  0  0  0  0  0  0  0  0  0  0
   62.3034   31.1619   48.6751 H   0  0  0  0  0  0  0  0  0  0  0  0
   63.7213   31.1232   49.8082 H   0  0  0  0  0  0  0  0  0  0  0  0
   62.4401   31.8767   51.4780 H   0  0  0  0  0  0  0  0  0  0  0  0
   62.0302   33.3476   50.4956 H   0  0  0  0  0  0  0  0  0  0  0  0
   59.8630   32.3560   50.7820 H   0  0  0  0  0  0  0  0  0  0  0  0
   61.4979   29.8728   51.7338 H   0  0  0  0  0  0  0  0  0  0  0  0
   61.9546   27.4997   52.3245 H   0  0  0  0  0  0  0  0  0  0  0  0
   61.3288   25.6770   50.7494 H   0  0  0  0  0  0  0  0  0  0  0  0
   60.2018   26.2114   48.6001 H   0  0  0  0  0  0  0  0  0  0  0  0
   58.2625   26.9865   47.8262 H   0  0  0  0  0  0  0  0  0  0  0  0
   57.9750   28.0993   46.4458 H   0  0  0  0  0  0  0  0  0  0  0  0
   59.4114   27.0207   46.4458 H   0  0  0  0  0  0  0  0  0  0  0  0
   59.8960   33.1813   48.4571 H   0  0  0  0  0  0  0  0  0  0  0  0
   59.0274   34.7748   46.8959 H   0  0  0  0  0  0  0  0  0  0  0  0
   58.0053   35.3059   44.6938 H   0  0  0  0  0  0  0  0  0  0  0  0
   57.3058   33.4803   43.1715 H   0  0  0  0  0  0  0  0  0  0  0  0
   57.2104   31.2841   42.5581 H   0  0  0  0  0  0  0  0  0  0  0  0
   58.0191   29.9638   43.5057 H   0  0  0  0  0  0  0  0  0  0  0  0
   55.4825   31.2894   44.5158 H   0  0  0  0  0  0  0  0  0  0  0  0
   55.4282   29.9380   43.3201 H   0  0  0  0  0  0  0  0  0  0  0  0
   55.8640   28.5120   44.8540 H   0  0  0  0  0  0  0  0  0  0  0  0
   55.5640   29.7060   45.9920 H   0  0  0  0  0  0  0  0  0  0  0  0
   60.2523   28.5734   45.3970 H   0  0  0  0  0  0  0  0  0  0  0  0
   58.9017   29.0442   44.3104 H   0  0  0  0  0  0  0  0  0  0  0  0
   60.4269   29.9931   44.3104 H   0  0  0  0  0  0  0  0  0  0  0  0
  1  2  1  0
  2  3  1  0
  3  4  1  0
  3  5  1  0
  5  6  1  0
  6  7  1  0
  7  8  1  0
  8  9  2  0
  9 10  1  0
 10 11  2  0
 11 12  1  0
 12 13  2  0
 13 14  1  0
 14 15  2  0
 15 16  1  0
 15 17  1  0
 17 18  2  0
 18 19  1  0
 19 20  2  0
 20 21  1  0
 21 22  2  0
 22 23  1  0
 23 24  2  0
 24 25  1  0
 25 26  1  0
 26 27  1  0
 24 28  1  0
 28 29  2  0
 29 30  1  0
 18  8  1  0
 28 20  1  0
 14  9  1  0
 29 17  1  0
  1 31  1  0
  1 32  1  0
  1 33  1  0
  2 34  1  0
  2 35  1  0
  4 36  1  0
  4 37  1  0
  4 38  1  0
  5 39  1  0
  5 40  1  0
  6 41  1  0
  6 42  1  0
  7 43  1  0
 10 44  1  0
 11 45  1  0
 12 46  1  0
 13 47  1  0
 16 48  1  0
 16 49  1  0
 16 50  1  0
 19 51  1  0
 21 52  1  0
 22 53  1  0
 23 54  1  0
 25 55  1  0
 25 56  1  0
 26 57  1  0
 26 58  1  0
 27 59  1  0
 27 60  1  0
 30 61  1  0
 30 62  1  0
 30 63  1  0
M  CHG  2  15   1  29   1
M  END
>  <UniqueID>  (23) 
23

>  <SMILES>  (23) 
CCN(C)CCNc1c2ccccc2[n+](C)c2c1cc1cccc(CCN)c1[n+]2C

>  <Energy>  (23) 
118.76702872711415

>  <Genealogy>  (23) 
CCN(C)CCNc1c2ccccc2[n+](C)c2c1cc1cccc(CCN)c1[n+]2C (3D coordinates assigned)
CCN(C)CCNc1c2ccccc2[n+](C)c2c1cc1cccc(CCN)c1[n+]2C (optimized conformer: 118.76702872711415 kcal/mol)

>  <smiles>  (23) 
CCN(C)CCNc1c2ccccc2[n+](C)c2c1cc1cccc(CCN)c1[n+]2C

>  <score_type>  (23) 
oracle

>  <origin>  (23) 
adg

>  <m_score__min__energy>  (23) 
-6.1399999999999997

>  <m_primary>  (23) 
energy

$$$$
23:0
     RDKit          3D

 62 64  0  0  0  0  0  0  0  0999 V2000
   63.4190   32.7280   47.1890 C   0  0  0  0  0  0  0  0  0  0  0  0
   62.6770   32.5070   48.4400 N   0  0  0  0  0  0  0  0  0  0  0  0
   63.5690   31.8730   49.4300 C   0  0  0  0  0  0  0  0  0  0  0  0
   62.1450   33.7900   48.9490 C   0  0  0  0  0  0  0  0  0  0  0  0
   60.9430   34.2470   48.1210 C   0  0  0  0  0  0  0  0  0  0  0  0
   60.2300   33.1050   47.6520 O   0  0  0  0  0  0  0  0  0  0  0  0
   59.3180   33.0990   46.5830 C   0  0  0  0  0  0  0  0  0  0  0  0
   58.6510   34.2810   46.2180 C   0  0  0  0  0  0  0  0  0  0  0  0
   57.6940   34.2740   45.2160 C   0  0  0  0  0  0  0  0  0  0  0  0
   57.3970   33.0990   44.5390 C   0  0  0  0  0  0  0  0  0  0  0  0
   58.0820   31.8940   44.8250 C   0  0  0  0  0  0  0  0  0  0  0  0
   59.0410   31.8900   45.8800 C   0  0  0  0  0  0  0  0  0  0  0  0
   59.7000   30.6760   46.1860 C   0  0  0  0  0  0  0  0  0  0  0  0
   60.8230   30.6490   47.0820 N   0  0  0  0  0  0  0  0  0  0  0  0
   60.8780   29.7390   48.2310 C   0  0  0  0  0  0  0  0  0  0  0  0
   59.5170   29.6350   48.9340 C   0  0  0  0  0  0  0  0  0  0  0  0
   58.9900   31.0010   49.4200 C   0  0  0  0  0  0  0  0  0  0  0  0
   60.0250   31.7750   50.1470 N   0  0  0  0  0  0  0  0  0  0  0  0
   59.4580   32.9850   50.7710 C   0  0  0  0  0  0  0  0  0  0  0  0
   60.6520   30.9300   51.1780 C   0  0  0  0  0  0  0  0  0  0  0  0
   59.2480   29.4770   45.6060 C   0  0  0  0  0  0  0  0  0  0  0  0
   59.7340   28.2280   46.0520 C   0  0  0  0  0  0  0  0  0  0  0  0
   59.2620   27.0400   45.4990 C   0  0  0  0  0  0  0  0  0  0  0  0
   58.2880   27.0730   44.5100 C   0  0  0  0  0  0  0  0  0  0  0  0
   57.7900   28.2940   44.0550 C   0  0  0  0  0  0  0  0  0  0  0  0
   58.2770   29.5220   44.5750 C   0  0  0  0  0  0  0  0  0  0  0  0
   57.8240   30.7390   44.1080 N   0  0  0  0  0  0  0  0  0  0  0  0
   57.0760   30.8060   42.8330 C   0  0  0  0  0  0  0  0  0  0  0  0
   64.4491   33.0348   47.4230 H   0  0  0  0  0  0  0  0  0  0  0  0
   63.4377   31.7964   46.6043 H   0  0  0  0  0  0  0  0  0  0  0  0
   62.9250   33.5180   46.6043 H   0  0  0  0  0  0  0  0  0  0  0  0
   63.2235   32.1185   50.4451 H   0  0  0  0  0  0  0  0  0  0  0  0
   63.5539   30.7819   49.2914 H   0  0  0  0  0  0  0  0  0  0  0  0
   64.5945   32.2460   49.2914 H   0  0  0  0  0  0  0  0  0  0  0  0
   61.8335   33.6611   49.9961 H   0  0  0  0  0  0  0  0  0  0  0  0
   62.9342   34.5527   48.8751 H   0  0  0  0  0  0  0  0  0  0  0  0
   60.2795   34.8628   48.7460 H   0  0  0  0  0  0  0  0  0  0  0  0
   61.2918   34.8405   47.2631 H   0  0  0  0  0  0  0  0  0  0  0  0
   58.8914   35.2224   46.7337 H   0  0  0  0  0  0  0  0  0  0  0  0
   57.1671   35.2039   44.9557 H   0  0  0  0  0  0  0  0  0  0  0  0
   56.6146   33.1046   43.7658 H   0  0  0  0  0  0  0  0  0  0  0  0
   61.5150   31.4300   47.0280 H   0  0  0  0  0  0  0  0  0  0  0  0
   61.1766   28.7398   47.8812 H   0  0  0  0  0  0  0  0  0  0  0  0
   61.6081   30.1371   48.9510 H   0  0  0  0  0  0  0  0  0  0  0  0
   58.7888   29.2079   48.2288 H   0  0  0  0  0  0  0  0  0  0  0  0
   59.6494   28.9966   49.8199 H   0  0  0  0  0  0  0  0  0  0  0  0
   58.6596   31.5838   48.5476 H   0  0  0  0  0  0  0  0  0  0  0  0
   58.1583   30.8138   50.1152 H   0  0  0  0  0  0  0  0  0  0  0  0
   60.7780   32.0640   49.4770 H   0  0  0  0  0  0  0  0  0  0  0  0
   59.5032   32.8885   51.8658 H   0  0  0  0  0  0  0  0  0  0  0  0
   60.0372   33.8656   50.4563 H   0  0  0  0  0  0  0  0  0  0  0  0
   58.4106   33.1034   50.4563 H   0  0  0  0  0  0  0  0  0  0  0  0
   60.3755   31.3026   52.1754 H   0  0  0  0  0  0  0  0  0  0  0  0
   60.3030   29.8930   51.0642 H   0  0  0  0  0  0  0  0  0  0  0  0
   61.7456   30.9634   51.0642 H   0  0  0  0  0  0  0  0  0  0  0  0
   60.4946   28.1931   46.8459 H   0  0  0  0  0  0  0  0  0  0  0  0
   59.6610   26.0754   45.8459 H   0  0  0  0  0  0  0  0  0  0  0  0
   57.9077   26.1329   44.0838 H   0  0  0  0  0  0  0  0  0  0  0  0
   57.0080   28.3055   43.2815 H   0  0  0  0  0  0  0  0  0  0  0  0
   56.0006   30.9023   43.0434 H   0  0  0  0  0  0  0  0  0  0  0  0
   57.4158   31.6773   42.2539 H   0  0  0  0  0  0  0  0  0  0  0  0
   57.2555   29.8882   42.2539 H   0  0  0  0  0  0  0  0  0  0  0  0
  1  2  1  0
  2  3  1  0
  2  4  1  0
  4  5  1  0
  5  6  1  0
  6  7  1  0
  7  8  2  0
  8  9  1  0
  9 10  2  0
 10 11  1  0
 11 12  2  0
 12 13  1  0
 13 14  1  0
 14 15  1  0
 15 16  1  0
 16 17  1  0
 17 18  1  0
 18 19  1  0
 18 20  1  0
 13 21  2  0
 21 22  1  0
 22 23  2  0
 23 24  1  0
 24 25  2  0
 25 26  1  0
 26 27  2  0
 27 28  1  0
 12  7  1  0
 26 21  1  0
 27 11  1  0
  1 29  1  0
  1 30  1  0
  1 31  1  0
  3 32  1  0
  3 33  1  0
  3 34  1  0
  4 35  1  0
  4 36  1  0
  5 37  1  0
  5 38  1  0
  8 39  1  0
  9 40  1  0
 10 41  1  0
 14 42  1  0
 15 43  1  0
 15 44  1  0
 16 45  1  0
 16 46  1  0
 17 47  1  0
 17 48  1  0
 18 49  1  0
 19 50  1  0
 19 51  1  0
 19 52  1  0
 20 53  1  0
 20 54  1  0
 20 55  1  0
 22 56  1  0
 23 57  1  0
 24 58  1  0
 25 59  1  0
 28 60  1  0
 28 61  1  0
 28 62  1  0
M  CHG  2  18   1  27   1
M  END
>  <UniqueID>  (24) 
24

>  <SMILES>  (24) 
CN(C)CCOc1cccc2c1c(NCCC[NH+](C)C)c1ccccc1[n+]2C

>  <Energy>  (24) 
86.94538566410228

>  <Genealogy>  (24) 
CN(C)CCOc1cccc2c1c(NCCC[NH+](C)C)c1ccccc1[n+]2C (protonated)
CN(C)CCOc1cccc2c1c(NCCC[NH+](C)C)c1ccccc1[n+]2C (3D coordinates assigned)
CN(C)CCOc1cccc2c1c(NCCC[NH+](C)C)c1ccccc1[n+]2C (optimized conformer: 86.94538566410228 kcal/mol)

>  <smiles>  (24) 
CN(C)CCCNc1c2ccccc2[n+](C)c2cccc(OCCN(C)C)c12

>  <score_type>  (24) 
oracle

>  <origin>  (24) 
adg

>  <m_score__min__energy>  (24) 
-3.4500000000000002

>  <m_primary>  (24) 
energy

$$$$
24:0
     RDKit          3D

 79 81  0  0  0  0  0  0  0  0999 V2000
   65.6700   33.0930   50.1210 C   0  0  0  0  0  0  0  0  0  0  0  0
   64.2670   33.4630   49.6280 C   0  0  0  0  0  0  0  0  0  0  0  0
   63.4270   32.3030   49.2550 N   0  0  0  0  0  0  0  0  0  0  0  0
   63.1820   32.0880   47.8140 C   0  0  0  0  0  0  0  0  0  0  0  0
   63.1890   33.3750   46.9760 C   0  0  0  0  0  0  0  0  0  0  0  0
   63.5950   31.0840   50.0760 C   0  0  0  0  0  0  0  0  0  0  0  0
   62.7430   31.1810   51.3380 C   0  0  0  0  0  0  0  0  0  0  0  0
   61.4270   30.7690   51.0430 O   0  0  0  0  0  0  0  0  0  0  0  0
   61.1710   29.5110   51.6290 C   0  0  0  0  0  0  0  0  0  0  0  0
   59.8800   28.9390   51.0400 C   0  0  0  0  0  0  0  0  0  0  0  0
   59.8570   29.0720   49.5110 C   0  0  0  0  0  0  0  0  0  0  0  0
   59.0580   30.2320   49.1010 N   0  0  0  0  0  0  0  0  0  0  0  0
   59.1010   30.7940   47.7720 C   0  0  0  0  0  0  0  0  0  0  0  0
   58.8220   29.9600   46.6620 C   0  0  0  0  0  0  0  0  0  0  0  0
   58.7360   28.5520   46.7830 C   0  0  0  0  0  0  0  0  0  0  0  0
   58.5800   27.7390   45.6640 C   0  0  0  0  0  0  0  0  0  0  0  0
   58.4890   28.3060   44.4020 C   0  0  0  0  0  0  0  0  0  0  0  0
   58.4830   29.6910   44.2620 C   0  0  0  0  0  0  0  0  0  0  0  0
   58.5830   30.5420   45.3940 C   0  0  0  0  0  0  0  0  0  0  0  0
   58.4070   31.9020   45.2860 N   0  0  0  0  0  0  0  0  0  0  0  0
   57.7370   32.4600   44.0890 C   0  0  0  0  0  0  0  0  0  0  0  0
   58.8220   32.7380   46.3050 C   0  0  0  0  0  0  0  0  0  0  0  0
   58.8660   34.1390   46.1050 C   0  0  0  0  0  0  0  0  0  0  0  0
   59.2670   35.0010   47.1090 C   0  0  0  0  0  0  0  0  0  0  0  0
   59.7240   34.4990   48.3100 C   0  0  0  0  0  0  0  0  0  0  0  0
   59.7760   33.1150   48.5560 C   0  0  0  0  0  0  0  0  0  0  0  0
   60.5760   32.6960   49.6920 N   0  0  0  0  0  0  0  0  0  0  0  0
   60.8650   33.8480   50.5630 C   0  0  0  0  0  0  0  0  0  0  0  0
   60.1130   33.7350   51.9010 C   0  0  0  0  0  0  0  0  0  0  0  0
   58.6350   33.3930   51.6770 C   0  0  0  0  0  0  0  0  0  0  0  0
   58.4340   31.9280   51.7030 N   0  0  0  0  0  0  0  0  0  0  0  0
   58.7820   31.3720   53.0240 C   0  0  0  0  0  0  0  0  0  0  0  0
   57.0340   31.5970   51.3900 C   0  0  0  0  0  0  0  0  0  0  0  0
   59.2360   32.2030   47.5710 C   0  0  0  0  0  0  0  0  0  0  0  0
   65.6831   33.0895   51.2209 H   0  0  0  0  0  0  0  0  0  0  0  0
   65.9380   32.0935   49.7480 H   0  0  0  0  0  0  0  0  0  0  0  0
   66.3960   33.8304   49.7480 H   0  0  0  0  0  0  0  0  0  0  0  0
   63.7549   34.0157   50.4294 H   0  0  0  0  0  0  0  0  0  0  0  0
   64.4016   34.0611   48.7147 H   0  0  0  0  0  0  0  0  0  0  0  0
   63.9653   31.4198   47.4267 H   0  0  0  0  0  0  0  0  0  0  0  0
   62.1734   31.6582   47.7253 H   0  0  0  0  0  0  0  0  0  0  0  0
   63.1937   34.2481   47.6450 H   0  0  0  0  0  0  0  0  0  0  0  0
   64.0873   33.3944   46.3414 H   0  0  0  0  0  0  0  0  0  0  0  0
   62.2910   33.4042   46.3414 H   0  0  0  0  0  0  0  0  0  0  0  0
   63.2819   30.2059   49.4921 H   0  0  0  0  0  0  0  0  0  0  0  0
   64.6526   30.9852   50.3620 H   0  0  0  0  0  0  0  0  0  0  0  0
   63.1658   30.5307   52.1180 H   0  0  0  0  0  0  0  0  0  0  0  0
   62.7325   32.2206   51.6973 H   0  0  0  0  0  0  0  0  0  0  0  0
   62.0071   28.8285   51.4166 H   0  0  0  0  0  0  0  0  0  0  0  0
   61.0639   29.6238   52.7180 H   0  0  0  0  0  0  0  0  0  0  0  0
   59.8046   27.8749   51.3082 H   0  0  0  0  0  0  0  0  0  0  0  0
   59.0308   29.5051   51.4503 H   0  0  0  0  0  0  0  0  0  0  0  0
   60.8867   29.1955   49.1442 H   0  0  0  0  0  0  0  0  0  0  0  0
   59.4051   28.1642   49.0849 H   0  0  0  0  0  0  0  0  0  0  0  0
   58.5840   30.7930   49.8450 H   0  0  0  0  0  0  0  0  0  0  0  0
   58.7936   28.0917   47.7804 H   0  0  0  0  0  0  0  0  0  0  0  0
   58.5289   26.6464   45.7809 H   0  0  0  0  0  0  0  0  0  0  0  0
   58.4216   27.6623   43.5126 H   0  0  0  0  0  0  0  0  0  0  0  0
   58.3994   30.1331   43.2582 H   0  0  0  0  0  0  0  0  0  0  0  0
   56.9270   33.1346   44.4033 H   0  0  0  0  0  0  0  0  0  0  0  0
   58.4680   33.0201   43.4873 H   0  0  0  0  0  0  0  0  0  0  0  0
   57.3184   31.6398   43.4873 H   0  0  0  0  0  0  0  0  0  0  0  0
   58.5743   34.5514   45.1278 H   0  0  0  0  0  0  0  0  0  0  0  0
   59.2216   36.0885   46.9499 H   0  0  0  0  0  0  0  0  0  0  0  0
   60.0553   35.1969   49.0931 H   0  0  0  0  0  0  0  0  0  0  0  0
   60.0510   31.9900   50.2620 H   0  0  0  0  0  0  0  0  0  0  0  0
   61.4340   32.1940   49.4010 H   0  0  0  0  0  0  0  0  0  0  0  0
   61.9464   33.8860   50.7610 H   0  0  0  0  0  0  0  0  0  0  0  0
   60.5324   34.7637   50.0522 H   0  0  0  0  0  0  0  0  0  0  0  0
   60.5768   32.9435   52.5080 H   0  0  0  0  0  0  0  0  0  0  0  0
   60.1727   34.7041   52.4180 H   0  0  0  0  0  0  0  0  0  0  0  0
   58.0316   33.8556   52.4720 H   0  0  0  0  0  0  0  0  0  0  0  0
   58.3252   33.7778   50.6942 H   0  0  0  0  0  0  0  0  0  0  0  0
   58.3757   32.0211   53.8136 H   0  0  0  0  0  0  0  0  0  0  0  0
   58.3536   30.3636   53.1218 H   0  0  0  0  0  0  0  0  0  0  0  0
   59.8762   31.3166   53.1218 H   0  0  0  0  0  0  0  0  0  0  0  0
   56.4708   31.4638   52.3254 H   0  0  0  0  0  0  0  0  0  0  0  0
   56.5860   32.4140   50.8054 H   0  0  0  0  0  0  0  0  0  0  0  0
   56.9993   30.6659   50.8054 H   0  0  0  0  0  0  0  0  0  0  0  0
  1  2  1  0
  2  3  1  0
  3  4  1  0
  4  5  1  0
  3  6  1  0
  6  7  1  0
  7  8  1  0
  8  9  1  0
  9 10  1  0
 10 11  1  0
 11 12  1  0
 12 13  1  0
 13 14  2  0
 14 15  1  0
 15 16  2  0
 16 17  1  0
 17 18  2  0
 18 19  1  0
 19 20  2  0
 20 21  1  0
 20 22  1  0
 22 23  2  0
 23 24  1  0
 24 25  2  0
 25 26  1  0
 26 27  1  0
 27 28  1  0
 28 29  1  0
 29 30  1  0
 30 31  1  0
 31 32  1  0
 31 33  1  0
 26 34  2  0
 34 13  1  0
 19 14  1  0
 34 22  1  0
  1 35  1  0
  1 36  1  0
  1 37  1  0
  2 38  1  0
  2 39  1  0
  4 40  1  0
  4 41  1  0
  5 42  1  0
  5 43  1  0
  5 44  1  0
  6 45  1  0
  6 46  1  0
  7 47  1  0
  7 48  1  0
  9 49  1  0
  9 50  1  0
 10 51  1  0
 10 52  1  0
 11 53  1  0
 11 54  1  0
 12 55  1  0
 15 56  1  0
 16 57  1  0
 17 58  1  0
 18 59  1  0
 21 60  1  0
 21 61  1  0
 21 62  1  0
 23 63  1  0
 24 64  1  0
 25 65  1  0
 27 66  1  0
 27 67  1  0
 28 68  1  0
 28 69  1  0
 29 70  1  0
 29 71  1  0
 30 72  1  0
 30 73  1  0
 32 74  1  0
 32 75  1  0
 32 76  1  0
 33 77  1  0
 33 78  1  0
 33 79  1  0
M  CHG  2  20   1  27   1
M  END
>  <UniqueID>  (25) 
25

>  <SMILES>  (25) 
CCN(CC)CCOCCCNc1c2ccccc2[n+](C)c2cccc([NH2+]CCCN(C)C)c12

>  <Energy>  (25) 
120.04883406055752

>  <Genealogy>  (25) 
CCN(CC)CCOCCCNc1c2ccccc2[n+](C)c2cccc([NH2+]CCCN(C)C)c12 (protonated)
CCN(CC)CCOCCCNc1c2ccccc2[n+](C)c2cccc([NH2+]CCCN(C)C)c12 (3D coordinates assigned)
CCN(CC)CCOCCCNc1c2ccccc2[n+](C)c2cccc([NH2+]CCCN(C)C)c12 (optimized conformer: 120.04883406055752 kcal/mol)

>  <smiles>  (25) 
CCN(CC)CCOCCCNc1c2ccccc2[n+](C)c2cccc(NCCCN(C)C)c12

>  <score_type>  (25) 
oracle

>  <origin>  (25) 
adg

>  <m_score__min__energy>  (25) 
-3.1499999999999999

>  <m_primary>  (25) 
energy

$$$$
25:0
     RDKit          3D

 47 48  0  0  0  0  0  0  0  0999 V2000
   65.1010   32.4950   49.7790 C   0  0  0  0  0  0  0  0  0  0  0  0
   63.8040   31.7750   49.4250 C   0  0  0  0  0  0  0  0  0  0  0  0
   62.9710   32.6230   48.5410 N   0  0  0  0  0  0  0  0  0  0  0  0
   63.4190   32.5250   47.1320 C   0  0  0  0  0  0  0  0  0  0  0  0
   63.1700   33.8450   46.4060 C   0  0  0  0  0  0  0  0  0  0  0  0
   62.9600   34.0300   49.0030 C   0  0  0  0  0  0  0  0  0  0  0  0
   61.9860   34.1920   50.1740 C   0  0  0  0  0  0  0  0  0  0  0  0
   60.6550   34.0230   49.7250 O   0  0  0  0  0  0  0  0  0  0  0  0
   59.9790   33.0690   50.5170 C   0  0  0  0  0  0  0  0  0  0  0  0
   59.8070   31.7710   49.7230 C   0  0  0  0  0  0  0  0  0  0  0  0
   60.5080   31.8360   48.4310 N   0  0  0  0  0  0  0  0  0  0  0  0
   59.5970   31.5060   47.3540 C   0  0  0  0  0  0  0  0  0  0  0  0
   59.2350   30.1640   47.1000 C   0  0  0  0  0  0  0  0  0  0  0  0
   59.8570   28.8320   48.0720 Cl  0  0  0  0  0  0  0  0  0  0  0  0
   58.3720   29.8540   46.0470 C   0  0  0  0  0  0  0  0  0  0  0  0
   57.8600   30.8530   45.2180 C   0  0  0  0  0  0  0  0  0  0  0  0
   56.6830   30.3130   43.7990 Br  0  0  0  0  0  0  0  0  0  0  0  0
   58.2240   32.1970   45.4360 C   0  0  0  0  0  0  0  0  0  0  0  0
   57.7490   33.2390   44.6190 C   0  0  0  0  0  0  0  0  0  0  0  0
   58.1420   34.5550   44.8610 C   0  0  0  0  0  0  0  0  0  0  0  0
   59.0070   34.8280   45.9180 C   0  0  0  0  0  0  0  0  0  0  0  0
   59.4590   33.8190   46.7050 N   0  0  0  0  0  0  0  0  0  0  0  0
   59.0980   32.5210   46.5050 C   0  0  0  0  0  0  0  0  0  0  0  0
   65.2024   32.5513   50.8729 H   0  0  0  0  0  0  0  0  0  0  0  0
   65.9540   31.9413   49.3597 H   0  0  0  0  0  0  0  0  0  0  0  0
   65.0821   33.5118   49.3597 H   0  0  0  0  0  0  0  0  0  0  0  0
   64.0409   30.8338   48.9073 H   0  0  0  0  0  0  0  0  0  0  0  0
   63.2465   31.5658   50.3499 H   0  0  0  0  0  0  0  0  0  0  0  0
   64.4943   32.2944   47.1079 H   0  0  0  0  0  0  0  0  0  0  0  0
   62.8522   31.7270   46.6300 H   0  0  0  0  0  0  0  0  0  0  0  0
   63.0188   34.6465   47.1440 H   0  0  0  0  0  0  0  0  0  0  0  0
   64.0385   34.0862   45.7755 H   0  0  0  0  0  0  0  0  0  0  0  0
   62.2733   33.7532   45.7755 H   0  0  0  0  0  0  0  0  0  0  0  0
   63.9715   34.3137   49.3292 H   0  0  0  0  0  0  0  0  0  0  0  0
   62.6382   34.6784   48.1747 H   0  0  0  0  0  0  0  0  0  0  0  0
   62.2101   33.4362   50.9411 H   0  0  0  0  0  0  0  0  0  0  0  0
   62.0978   35.2004   50.5990 H   0  0  0  0  0  0  0  0  0  0  0  0
   60.5644   32.8671   51.4262 H   0  0  0  0  0  0  0  0  0  0  0  0
   58.9895   33.4607   50.7954 H   0  0  0  0  0  0  0  0  0  0  0  0
   60.2153   30.9353   50.3102 H   0  0  0  0  0  0  0  0  0  0  0  0
   58.7345   31.6234   49.5283 H   0  0  0  0  0  0  0  0  0  0  0  0
   61.3180   31.1730   48.4320 H   0  0  0  0  0  0  0  0  0  0  0  0
   60.9100   32.7900   48.2900 H   0  0  0  0  0  0  0  0  0  0  0  0
   58.0912   28.8056   45.8681 H   0  0  0  0  0  0  0  0  0  0  0  0
   57.0655   33.0151   43.7867 H   0  0  0  0  0  0  0  0  0  0  0  0
   57.7719   35.3706   44.2224 H   0  0  0  0  0  0  0  0  0  0  0  0
   59.3242   35.8627   46.1151 H   0  0  0  0  0  0  0  0  0  0  0  0
  1  2  1  0
  2  3  1  0
  3  4  1  0
  4  5  1  0
  3  6  1  0
  6  7  1  0
  7  8  1  0
  8  9  1  0
  9 10  1  0
 10 11  1  0
 11 12  1  0
 12 13  2  0
 13 14  1  0
 13 15  1  0
 15 16  2  0
 16 17  1  0
 16 18  1  0
 18 19  2  0
 19 20  1  0
 20 21  2  0
 21 22  1  0
 22 23  2  0
 23 12  1  0
 23 18  1  0
  1 24  1  0
  1 25  1  0
  1 26  1  0
  2 27  1  0
  2 28  1  0
  4 29  1  0
  4 30  1  0
  5 31  1  0
  5 32  1  0
  5 33  1  0
  6 34  1  0
  6 35  1  0
  7 36  1  0
  7 37  1  0
  9 38  1  0
  9 39  1  0
 10 40  1  0
 10 41  1  0
 11 42  1  0
 11 43  1  0
 15 44  1  0
 19 45  1  0
 20 46  1  0
 21 47  1  0
M  CHG  1  11   1
M  END
>  <UniqueID>  (26) 
26

>  <SMILES>  (26) 
CCN(CC)CCOCC[NH2+]c1c(Cl)cc(Br)c2cccnc12

>  <Energy>  (26) 
51.90727416803478

>  <Genealogy>  (26) 
CCN(CC)CCOCC[NH2+]c1c(Cl)cc(Br)c2cccnc12 (protonated)
CCN(CC)CCOCC[NH2+]c1c(Cl)cc(Br)c2cccnc12 (3D coordinates assigned)
CCN(CC)CCOCC[NH2+]c1c(Cl)cc(Br)c2cccnc12 (optimized conformer: 51.90727416803478 kcal/mol)

>  <smiles>  (26) 
CCN(CC)CCOCCNc1c(Cl)cc(Br)c2cccnc12

>  <score_type>  (26) 
oracle

>  <origin>  (26) 
adg

>  <m_score__min__energy>  (26) 
-4.71

>  <m_primary>  (26) 
energy

$$$$
26:0
     RDKit          3D

 36 37  0  0  0  0  0  0  0  0999 V2000
   57.7830   30.0880   42.5810 H   0  0  0  0  0  0  0  0  0  0  0  0
   57.4050   30.7690   43.2770 N   0  0  0  0  0  0  0  0  0  0  0  0
   57.8400   30.8240   44.4990 C   0  0  0  0  0  0  0  0  0  0  0  0
   58.2130   32.1350   45.0830 C   0  0  0  0  0  0  0  0  0  0  0  0
   57.7490   33.3380   44.5200 C   0  0  0  0  0  0  0  0  0  0  0  0
   57.0997   33.3122   43.6324 H   0  0  0  0  0  0  0  0  0  0  0  0
   58.1090   34.5660   45.0830 C   0  0  0  0  0  0  0  0  0  0  0  0
   57.7373   35.5024   44.6415 H   0  0  0  0  0  0  0  0  0  0  0  0
   58.9390   34.6060   46.2040 C   0  0  0  0  0  0  0  0  0  0  0  0
   59.2234   35.5740   46.6424 H   0  0  0  0  0  0  0  0  0  0  0  0
   59.4090   33.4200   46.7700 C   0  0  0  0  0  0  0  0  0  0  0  0
   60.0718   33.4567   47.6471 H   0  0  0  0  0  0  0  0  0  0  0  0
   59.0390   32.1790   46.2240 C   0  0  0  0  0  0  0  0  0  0  0  0
   59.5960   30.9050   46.7990 C   0  0  0  0  0  0  0  0  0  0  0  0
   60.4815   30.6043   46.2198 H   0  0  0  0  0  0  0  0  0  0  0  0
   59.8691   31.0811   47.8499 H   0  0  0  0  0  0  0  0  0  0  0  0
   58.5480   29.7780   46.7420 C   0  0  2  0  0  0  0  0  0  0  0  0
   57.6708   30.0780   47.3341 H   0  0  0  0  0  0  0  0  0  0  0  0
   59.1350   28.4940   47.3490 C   0  0  0  0  0  0  0  0  0  0  0  0
   59.1047   28.5602   48.4466 H   0  0  0  0  0  0  0  0  0  0  0  0
   58.5434   27.6279   47.0174 H   0  0  0  0  0  0  0  0  0  0  0  0
   60.1770   28.3748   47.0174 H   0  0  0  0  0  0  0  0  0  0  0  0
   58.0590   29.5410   45.2830 C   0  0  1  0  0  0  0  0  0  0  0  0
   58.8757   29.0206   44.7613 H   0  0  0  0  0  0  0  0  0  0  0  0
   56.8320   28.6420   45.2610 C   0  0  0  0  0  0  0  0  0  0  0  0
   55.7020   29.2020   45.2100 O   0  0  0  0  0  0  0  0  0  0  0  0
   56.8880   27.1970   45.2350 N   0  0  0  0  0  0  0  0  0  0  0  0
   56.0230   26.5010   46.0280 O   0  0  0  0  0  0  0  0  0  0  0  0
   56.7960   25.8350   46.9970 C   0  0  0  0  0  0  0  0  0  0  0  0
   56.4564   26.1276   48.0015 H   0  0  0  0  0  0  0  0  0  0  0  0
   56.6817   24.7479   46.8735 H   0  0  0  0  0  0  0  0  0  0  0  0
   57.8542   26.1088   46.8735 H   0  0  0  0  0  0  0  0  0  0  0  0
   57.7710   26.4330   44.3480 C   0  0  0  0  0  0  0  0  0  0  0  0
   58.4662   25.8315   44.9520 H   0  0  0  0  0  0  0  0  0  0  0  0
   57.1669   25.7680   43.7133 H   0  0  0  0  0  0  0  0  0  0  0  0
   58.3423   27.1264   43.7133 H   0  0  0  0  0  0  0  0  0  0  0  0
  1  2  1  0
  2  3  2  0
  3  4  1  0
  4  5  2  0
  5  6  1  0
  5  7  1  0
  7  8  1  0
  7  9  2  0
  9 10  1  0
  9 11  1  0
 11 12  1  0
 11 13  2  0
 13 14  1  0
 14 15  1  0
 14 16  1  0
 14 17  1  0
 17 18  1  1
 17 19  1  0
 19 20  1  0
 19 21  1  0
 19 22  1  0
 17 23  1  0
 23 24  1  6
 23 25  1  0
 25 26  2  0
 25 27  1  0
 27 28  1  0
 28 29  1  0
 29 30  1  0
 29 31  1  0
 29 32  1  0
 27 33  1  0
 33 34  1  0
 33 35  1  0
 33 36  1  0
 23  3  1  0
 13  4  1  0
M  END
>  <UniqueID>  (27) 
27

>  <SMILES>  (27) 
[H]/N=C1/c2ccccc2C[C@H](C)[C@H]1C(=O)N(C)OC

>  <Energy>  (27) 
35.62297427196904

>  <Genealogy>  (27) 
CON(C)C(=O)[C@H]1C(=N)c2ccccc2C[C@@H]1C (chirality)
[H]/N=C1/c2ccccc2C[C@H](C)[C@H]1C(=O)N(C)OC (cis-trans isomerization)
[H]/N=C1/c2ccccc2C[C@H](C)[C@H]1C(=O)N(C)OC (3D coordinates assigned)
[H]/N=C1/c2ccccc2C[C@H](C)[C@H]1C(=O)N(C)OC (nonaromatic ring conformer: 35.62297427196904 kcal/mol)

>  <smiles>  (27) 
CON(C)C(=O)C1C(=N)c2ccccc2CC1C

>  <score_type>  (27) 
oracle

>  <origin>  (27) 
adg

>  <m_score__min__energy>  (27) 
-7.1500000000000004

>  <m_primary>  (27) 
energy

$$$$
27:0
     RDKit          3D

 72 74  0  0  0  0  0  0  0  0999 V2000
   61.4700   33.8390   50.2210 C   0  0  0  0  0  0  0  0  0  0  0  0
   62.7110   34.0190   49.3290 C   0  0  0  0  0  0  0  0  0  0  0  0
   63.4160   32.7610   48.9440 N   0  0  0  0  0  0  0  0  0  0  0  0
   63.2650   32.4300   47.5010 C   0  0  0  0  0  0  0  0  0  0  0  0
   63.3750   33.6220   46.5430 C   0  0  0  0  0  0  0  0  0  0  0  0
   64.8090   32.6810   49.4640 C   0  0  0  0  0  0  0  0  0  0  0  0
   64.9070   32.0700   50.8720 C   0  0  0  0  0  0  0  0  0  0  0  0
   63.6350   31.5940   51.2730 O   0  0  0  0  0  0  0  0  0  0  0  0
   63.5740   30.1840   51.1960 C   0  0  0  0  0  0  0  0  0  0  0  0
   62.1470   29.7070   50.8910 C   0  0  0  0  0  0  0  0  0  0  0  0
   61.4580   30.6590   50.1030 O   0  0  0  0  0  0  0  0  0  0  0  0
   60.1310   30.8470   50.5590 C   0  0  0  0  0  0  0  0  0  0  0  0
   59.1690   30.9520   49.3760 C   0  0  0  0  0  0  0  0  0  0  0  0
   59.9090   30.9260   48.1160 N   0  0  0  0  0  0  0  0  0  0  0  0
   59.2940   31.3050   46.8710 C   0  0  0  0  0  0  0  0  0  0  0  0
   59.3380   32.6420   46.4360 C   0  0  0  0  0  0  0  0  0  0  0  0
   60.0020   33.6300   47.1950 C   0  0  0  0  0  0  0  0  0  0  0  0
   59.9870   34.9640   46.7970 C   0  0  0  0  0  0  0  0  0  0  0  0
   59.3110   35.3370   45.6410 C   0  0  0  0  0  0  0  0  0  0  0  0
   58.6790   34.3750   44.8560 C   0  0  0  0  0  0  0  0  0  0  0  0
   58.7140   33.0010   45.2120 C   0  0  0  0  0  0  0  0  0  0  0  0
   58.1530   32.0260   44.4070 N   0  0  0  0  0  0  0  0  0  0  0  0
   57.7690   32.3500   43.0160 C   0  0  0  0  0  0  0  0  0  0  0  0
   57.9840   30.7420   44.8910 C   0  0  0  0  0  0  0  0  0  0  0  0
   57.1860   29.7910   44.2110 C   0  0  0  0  0  0  0  0  0  0  0  0
   57.0520   28.4870   44.6830 C   0  0  0  0  0  0  0  0  0  0  0  0
   57.6990   28.0730   45.8570 C   0  0  0  0  0  0  0  0  0  0  0  0
   57.5520   26.7150   46.3520 N   0  0  0  0  0  0  0  0  0  0  0  0
   56.3960   25.9000   45.9580 C   0  0  0  0  0  0  0  0  0  0  0  0
   58.5380   26.1440   47.2780 C   0  0  0  0  0  0  0  0  0  0  0  0
   58.4720   29.0170   46.5560 C   0  0  0  0  0  0  0  0  0  0  0  0
   58.5950   30.3500   46.1080 C   0  0  0  0  0  0  0  0  0  0  0  0
   61.7692   33.8824   51.2786 H   0  0  0  0  0  0  0  0  0  0  0  0
   60.7479   34.6418   50.0110 H   0  0  0  0  0  0  0  0  0  0  0  0
   61.0058   32.8641   50.0110 H   0  0  0  0  0  0  0  0  0  0  0  0
   62.3935   34.5253   48.4055 H   0  0  0  0  0  0  0  0  0  0  0  0
   63.4309   34.5964   49.9276 H   0  0  0  0  0  0  0  0  0  0  0  0
   62.8880   32.0030   49.4410 H   0  0  0  0  0  0  0  0  0  0  0  0
   64.0486   31.7055   47.2342 H   0  0  0  0  0  0  0  0  0  0  0  0
   62.2445   32.0367   47.3831 H   0  0  0  0  0  0  0  0  0  0  0  0
   63.4609   34.5523   47.1236 H   0  0  0  0  0  0  0  0  0  0  0  0
   64.2659   33.5019   45.9090 H   0  0  0  0  0  0  0  0  0  0  0  0
   62.4772   33.6670   45.9090 H   0  0  0  0  0  0  0  0  0  0  0  0
   65.4025   32.0626   48.7746 H   0  0  0  0  0  0  0  0  0  0  0  0
   65.1871   33.7117   49.5328 H   0  0  0  0  0  0  0  0  0  0  0  0
   65.6231   31.2351   50.8597 H   0  0  0  0  0  0  0  0  0  0  0  0
   65.2494   32.8385   51.5806 H   0  0  0  0  0  0  0  0  0  0  0  0
   64.2465   29.8387   50.3969 H   0  0  0  0  0  0  0  0  0  0  0  0
   63.8807   29.7681   52.1670 H   0  0  0  0  0  0  0  0  0  0  0  0
   62.1943   28.7531   50.3452 H   0  0  0  0  0  0  0  0  0  0  0  0
   61.6073   29.5777   51.8407 H   0  0  0  0  0  0  0  0  0  0  0  0
   59.8398   29.9928   51.1878 H   0  0  0  0  0  0  0  0  0  0  0  0
   60.0831   31.7794   51.1407 H   0  0  0  0  0  0  0  0  0  0  0  0
   58.4677   30.1049   49.4024 H   0  0  0  0  0  0  0  0  0  0  0  0
   58.6171   31.9009   49.4470 H   0  0  0  0  0  0  0  0  0  0  0  0
   60.8340   30.4420   48.0900 H   0  0  0  0  0  0  0  0  0  0  0  0
   60.5376   33.3424   48.1117 H   0  0  0  0  0  0  0  0  0  0  0  0
   60.5101   35.7229   47.3973 H   0  0  0  0  0  0  0  0  0  0  0  0
   59.2749   36.3958   45.3449 H   0  0  0  0  0  0  0  0  0  0  0  0
   58.1444   34.6849   43.9460 H   0  0  0  0  0  0  0  0  0  0  0  0
   56.9283   33.0593   43.0235 H   0  0  0  0  0  0  0  0  0  0  0  0
   58.6257   32.8023   42.4950 H   0  0  0  0  0  0  0  0  0  0  0  0
   57.4674   31.4294   42.4950 H   0  0  0  0  0  0  0  0  0  0  0  0
   56.6609   30.0876   43.2910 H   0  0  0  0  0  0  0  0  0  0  0  0
   56.4293   27.7710   44.1266 H   0  0  0  0  0  0  0  0  0  0  0  0
   55.8799   25.5361   46.8587 H   0  0  0  0  0  0  0  0  0  0  0  0
   55.7035   26.5107   45.3601 H   0  0  0  0  0  0  0  0  0  0  0  0
   56.7386   25.0426   45.3601 H   0  0  0  0  0  0  0  0  0  0  0  0
   58.2182   26.3292   48.3141 H   0  0  0  0  0  0  0  0  0  0  0  0
   58.6171   25.0603   47.1068 H   0  0  0  0  0  0  0  0  0  0  0  0
   59.5173   26.6147   47.1068 H   0  0  0  0  0  0  0  0  0  0  0  0
   58.9936   28.7092   47.4743 H   0  0  0  0  0  0  0  0  0  0  0  0
  1  2  1  0
  2  3  1  0
  3  4  1  0
  4  5  1  0
  3  6  1  0
  6  7  1  0
  7  8  1  0
  8  9  1  0
  9 10  1  0
 10 11  1  0
 11 12  1  0
 12 13  1  0
 13 14  1  0
 14 15  1  0
 15 16  2  0
 16 17  1  0
 17 18  2  0
 18 19  1  0
 19 20  2  0
 20 21  1  0
 21 22  2  0
 22 23  1  0
 22 24  1  0
 24 25  2  0
 25 26  1  0
 26 27  2  0
 27 28  1  0
 28 29  1  0
 28 30  1  0
 27 31  1  0
 31 32  2  0
 32 15  1  0
 21 16  1  0
 32 24  1  0
  1 33  1  0
  1 34  1  0
  1 35  1  0
  2 36  1  0
  2 37  1  0
  3 38  1  0
  4 39  1  0
  4 40  1  0
  5 41  1  0
  5 42  1  0
  5 43  1  0
  6 44  1  0
  6 45  1  0
  7 46  1  0
  7 47  1  0
  9 48  1  0
  9 49  1  0
 10 50  1  0
 10 51  1  0
 12 52  1  0
 12 53  1  0
 13 54  1  0
 13 55  1  0
 14 56  1  0
 17 57  1  0
 18 58  1  0
 19 59  1  0
 20 60  1  0
 23 61  1  0
 23 62  1  0
 23 63  1  0
 25 64  1  0
 26 65  1  0
 29 66  1  0
 29 67  1  0
 29 68  1  0
 30 69  1  0
 30 70  1  0
 30 71  1  0
 31 72  1  0
M  CHG  2   3   1  22   1
M  END
>  <UniqueID>  (28) 
28

>  <SMILES>  (28) 
CC[NH+](CC)CCOCCOCCNc1c2ccccc2[n+](C)c2ccc(N(C)C)cc12

>  <Energy>  (28) 
109.82043061162915

>  <Genealogy>  (28) 
CC[NH+](CC)CCOCCOCCNc1c2ccccc2[n+](C)c2ccc(N(C)C)cc12 (protonated)
CC[NH+](CC)CCOCCOCCNc1c2ccccc2[n+](C)c2ccc(N(C)C)cc12 (3D coordinates assigned)
CC[NH+](CC)CCOCCOCCNc1c2ccccc2[n+](C)c2ccc(N(C)C)cc12 (optimized conformer: 109.82043061162915 kcal/mol)

>  <smiles>  (28) 
CCN(CC)CCOCCOCCNc1c2ccccc2[n+](C)c2ccc(N(C)C)cc12

>  <score_type>  (28) 
oracle

>  <origin>  (28) 
adg

>  <m_score__min__energy>  (28) 
-3.7000000000000002

>  <m_primary>  (28) 
energy

$$$$
28:0
     RDKit          3D

 37 38  0  0  0  0  0  0  0  0999 V2000
   60.1210   28.9640   47.5800 C   0  0  0  0  0  0  0  0  0  0  0  0
   59.4870   27.8130   46.9140 N   0  0  0  0  0  0  0  0  0  0  0  0
   60.3660   26.6380   47.0280 C   0  0  0  0  0  0  0  0  0  0  0  0
   58.1610   27.5180   47.5010 C   0  0  0  0  0  0  0  0  0  0  0  0
   57.3210   26.6470   46.5650 C   0  0  0  0  0  0  0  0  0  0  0  0
   57.8740   26.8440   44.8360 S   0  0  0  0  0  0  0  0  0  0  0  0
   57.2490   28.5220   44.7140 C   0  0  0  0  0  0  0  0  0  0  0  0
   55.9460   28.8390   44.7720 N   0  0  0  0  0  0  0  0  0  0  0  0
   55.8350   30.1520   44.6440 N   0  0  0  0  0  0  0  0  0  0  0  0
   57.0930   30.6250   44.5170 C   0  0  0  0  0  0  0  0  0  0  0  0
   57.4070   32.0720   44.2920 C   0  0  0  0  0  0  0  0  0  0  0  0
   58.0150   32.6650   45.5250 C   0  0  0  0  0  0  0  0  0  0  0  0
   58.1400   32.0370   46.7570 C   0  0  0  0  0  0  0  0  0  0  0  0
   58.7810   32.8300   47.7170 C   0  0  0  0  0  0  0  0  0  0  0  0
   59.1630   34.0780   47.2430 C   0  0  0  0  0  0  0  0  0  0  0  0
   58.7040   34.1960   45.6300 S   0  0  0  0  0  0  0  0  0  0  0  0
   58.0040   29.6260   44.5420 N   0  0  0  0  0  0  0  0  0  0  0  0
   59.4580   29.7310   44.4470 C   0  0  0  0  0  0  0  0  0  0  0  0
   60.0526   28.8398   48.6708 H   0  0  0  0  0  0  0  0  0  0  0  0
   61.1786   29.0225   47.2832 H   0  0  0  0  0  0  0  0  0  0  0  0
   59.6052   29.8891   47.2832 H   0  0  0  0  0  0  0  0  0  0  0  0
   60.5369   26.4096   48.0904 H   0  0  0  0  0  0  0  0  0  0  0  0
   59.8899   25.7751   46.5394 H   0  0  0  0  0  0  0  0  0  0  0  0
   61.3282   26.8511   46.5394 H   0  0  0  0  0  0  0  0  0  0  0  0
   58.3010   26.9878   48.4546 H   0  0  0  0  0  0  0  0  0  0  0  0
   57.6315   28.4691   47.6591 H   0  0  0  0  0  0  0  0  0  0  0  0
   57.4264   25.5927   46.8605 H   0  0  0  0  0  0  0  0  0  0  0  0
   56.2688   26.9592   46.6388 H   0  0  0  0  0  0  0  0  0  0  0  0
   55.1430   28.1810   44.8900 H   0  0  0  0  0  0  0  0  0  0  0  0
   58.1161   32.1646   43.4562 H   0  0  0  0  0  0  0  0  0  0  0  0
   56.4768   32.6094   44.0554 H   0  0  0  0  0  0  0  0  0  0  0  0
   57.7728   31.0199   46.9586 H   0  0  0  0  0  0  0  0  0  0  0  0
   58.9645   32.4959   48.7488 H   0  0  0  0  0  0  0  0  0  0  0  0
   59.6783   34.8570   47.8241 H   0  0  0  0  0  0  0  0  0  0  0  0
   59.8902   29.7622   45.4581 H   0  0  0  0  0  0  0  0  0  0  0  0
   59.8540   28.8591   43.9057 H   0  0  0  0  0  0  0  0  0  0  0  0
   59.7246   30.6507   43.9057 H   0  0  0  0  0  0  0  0  0  0  0  0
  1  2  1  0
  2  3  1  0
  2  4  1  0
  4  5  1  0
  5  6  1  0
  6  7  1  0
  7  8  2  0
  8  9  1  0
  9 10  2  0
 10 11  1  0
 11 12  1  0
 12 13  2  0
 13 14  1  0
 14 15  2  0
 15 16  1  0
 10 17  1  0
 17 18  1  0
 17  7  1  0
 16 12  1  0
  1 19  1  0
  1 20  1  0
  1 21  1  0
  3 22  1  0
  3 23  1  0
  3 24  1  0
  4 25  1  0
  4 26  1  0
  5 27  1  0
  5 28  1  0
  8 29  1  0
 11 30  1  0
 11 31  1  0
 13 32  1  0
 14 33  1  0
 15 34  1  0
 18 35  1  0
 18 36  1  0
 18 37  1  0
M  CHG  1   8   1
M  END
>  <UniqueID>  (29) 
29

>  <SMILES>  (29) 
CN(C)CCSc1[nH+]nc(Cc2cccs2)n1C

>  <Energy>  (29) 
89.40343399073494

>  <Genealogy>  (29) 
CN(C)CCSc1[nH+]nc(Cc2cccs2)n1C (protonated)
CN(C)CCSc1[nH+]nc(Cc2cccs2)n1C (3D coordinates assigned)
CN(C)CCSc1[nH+]nc(Cc2cccs2)n1C (optimized conformer: 89.40343399073494 kcal/mol)

>  <smiles>  (29) 
CN(C)CCSc1nnc(Cc2cccs2)n1C

>  <score_type>  (29) 
oracle

>  <origin>  (29) 
adg

>  <m_score__min__energy>  (29) 
-5.1699999999999999

>  <m_primary>  (29) 
energy

$$$$
29:0
     RDKit          3D

 52 55  0  0  0  0  0  0  0  0999 V2000
   56.9799   33.9055   45.7032 H   0  0  0  0  0  0  0  0  0  0  0  0
   57.9470   33.4010   45.8450 C   0  0  0  0  0  0  0  0  0  0  0  0
   58.4610   32.7130   44.8140 C   0  0  0  0  0  0  0  0  0  0  0  0
   59.2600   33.1749   44.2154 H   0  0  0  0  0  0  0  0  0  0  0  0
   57.9930   31.3540   44.4510 C   0  0  0  0  0  0  0  0  0  0  0  0
   57.1050   31.2400   43.3670 C   0  0  0  0  0  0  0  0  0  0  0  0
   56.9711   32.0859   42.6767 H   0  0  0  0  0  0  0  0  0  0  0  0
   56.3970   30.0640   43.1650 C   0  0  0  0  0  0  0  0  0  0  0  0
   55.7380   29.9620   42.2901 H   0  0  0  0  0  0  0  0  0  0  0  0
   56.5170   29.0440   44.0430 N   0  0  0  0  0  0  0  0  0  0  0  0
   57.3730   29.0870   45.0990 C   0  0  0  0  0  0  0  0  0  0  0  0
   57.3770   28.0160   45.9990 C   0  0  0  0  0  0  0  0  0  0  0  0
   56.4870   26.9490   45.7700 O   0  0  0  0  0  0  0  0  0  0  0  0
   56.8370   25.6660   45.2530 C   0  0  0  0  0  0  0  0  0  0  0  0
   57.8901   25.6790   44.9356 H   0  0  0  0  0  0  0  0  0  0  0  0
   56.1847   25.4382   44.3970 H   0  0  0  0  0  0  0  0  0  0  0  0
   56.6460   24.5830   46.3230 C   0  0  0  0  0  0  0  0  0  0  0  0
   57.2246   24.8533   47.2186 H   0  0  0  0  0  0  0  0  0  0  0  0
   56.9958   23.6208   45.9209 H   0  0  0  0  0  0  0  0  0  0  0  0
   55.2180   24.4580   46.6860 N   0  0  0  0  0  0  0  0  0  0  0  0
   54.3680   24.4250   45.4820 C   0  0  0  0  0  0  0  0  0  0  0  0
   53.3102   24.3839   45.7810 H   0  0  0  0  0  0  0  0  0  0  0  0
   54.5449   25.3307   44.8833 H   0  0  0  0  0  0  0  0  0  0  0  0
   54.6146   23.5358   44.8833 H   0  0  0  0  0  0  0  0  0  0  0  0
   54.9970   23.2330   47.4720 C   0  0  0  0  0  0  0  0  0  0  0  0
   55.0403   23.4728   48.5447 H   0  0  0  0  0  0  0  0  0  0  0  0
   54.0089   22.8149   47.2293 H   0  0  0  0  0  0  0  0  0  0  0  0
   55.7767   22.4960   47.2293 H   0  0  0  0  0  0  0  0  0  0  0  0
   58.2500   28.0380   47.0950 C   0  0  0  0  0  0  0  0  0  0  0  0
   58.2030   27.2345   47.8448 H   0  0  0  0  0  0  0  0  0  0  0  0
   59.1800   29.0710   47.2450 C   0  0  0  0  0  0  0  0  0  0  0  0
   60.1040   29.0120   48.3030 C   0  0  0  0  0  0  0  0  0  0  0  0
   60.0232   28.2142   49.0560 H   0  0  0  0  0  0  0  0  0  0  0  0
   61.1210   29.9580   48.4030 C   0  0  0  0  0  0  0  0  0  0  0  0
   61.8218   29.9253   49.2502 H   0  0  0  0  0  0  0  0  0  0  0  0
   61.2500   30.9450   47.4300 C   0  0  0  0  0  0  0  0  0  0  0  0
   62.0788   31.6659   47.4878 H   0  0  0  0  0  0  0  0  0  0  0  0
   60.3320   31.0240   46.3810 C   0  0  0  0  0  0  0  0  0  0  0  0
   60.4695   31.7844   45.5981 H   0  0  0  0  0  0  0  0  0  0  0  0
   59.2260   30.1410   46.3080 C   0  0  0  0  0  0  0  0  0  0  0  0
   58.2210   30.2160   45.2890 C   0  0  0  0  0  0  0  0  0  0  0  0
   58.6120   33.5180   47.1650 C   0  0  0  0  0  0  0  0  0  0  0  0
   59.6580   34.4450   47.3120 C   0  0  0  0  0  0  0  0  0  0  0  0
   59.9578   35.0699   46.4578 H   0  0  0  0  0  0  0  0  0  0  0  0
   60.3210   34.5790   48.5370 C   0  0  0  0  0  0  0  0  0  0  0  0
   61.1327   35.3135   48.6445 H   0  0  0  0  0  0  0  0  0  0  0  0
   59.9540   33.7820   49.6230 C   0  0  0  0  0  0  0  0  0  0  0  0
   60.4718   33.8929   50.5872 H   0  0  0  0  0  0  0  0  0  0  0  0
   58.9290   32.8440   49.4840 C   0  0  0  0  0  0  0  0  0  0  0  0
   58.6453   32.2115   50.3381 H   0  0  0  0  0  0  0  0  0  0  0  0
   58.2620   32.7060   48.2630 C   0  0  0  0  0  0  0  0  0  0  0  0
   57.4602   31.9602   48.1586 H   0  0  0  0  0  0  0  0  0  0  0  0
  1  2  1  0
  2  3  2  0
  3  4  1  0
  3  5  1  0
  5  6  2  0
  6  7  1  0
  6  8  1  0
  8  9  1  0
  8 10  2  0
 10 11  1  0
 11 12  2  0
 12 13  1  0
 13 14  1  0
 14 15  1  0
 14 16  1  0
 14 17  1  0
 17 18  1  0
 17 19  1  0
 17 20  1  0
 20 21  1  0
 21 22  1  0
 21 23  1  0
 21 24  1  0
 20 25  1  0
 25 26  1  0
 25 27  1  0
 25 28  1  0
 12 29  1  0
 29 30  1  0
 29 31  2  0
 31 32  1  0
 32 33  1  0
 32 34  2  0
 34 35  1  0
 34 36  1  0
 36 37  1  0
 36 38  2  0
 38 39  1  0
 38 40  1  0
 40 41  2  0
  2 42  1  0
 42 43  2  0
 43 44  1  0
 43 45  1  0
 45 46  1  0
 45 47  2  0
 47 48  1  0
 47 49  1  0
 49 50  1  0
 49 51  2  0
 51 52  1  0
 41  5  1  0
 51 42  1  0
 41 11  1  0
 40 31  1  0
M  END
>  <UniqueID>  (30) 
30

>  <SMILES>  (30) 
CN(C)CCOc1cc2ccccc2c2c(/C=C/c3ccccc3)ccnc12

>  <Energy>  (30) 
82.4949926733115

>  <Genealogy>  (30) 
CN(C)CCOc1cc2ccccc2c2c(/C=C/c3ccccc3)ccnc12 (cis-trans isomerization)
CN(C)CCOc1cc2ccccc2c2c(/C=C/c3ccccc3)ccnc12 (3D coordinates assigned)
CN(C)CCOc1cc2ccccc2c2c(/C=C/c3ccccc3)ccnc12 (optimized conformer: 82.4949926733115 kcal/mol)

>  <smiles>  (30) 
CN(C)CCOc1cc2ccccc2c2c(C=Cc3ccccc3)ccnc12

>  <score_type>  (30) 
oracle

>  <origin>  (30) 
adg

>  <m_score__min__energy>  (30) 
-8.5500000000000007

>  <m_primary>  (30) 
energy

$$$$
30:0
     RDKit          3D

 41 43  0  0  0  0  0  0  0  0999 V2000
   59.1230   27.1300   45.2280 C   0  0  0  0  0  0  0  0  0  0  0  0
   58.3180   27.8950   44.2620 N   0  0  0  0  0  0  0  0  0  0  0  0
   58.1440   27.0990   43.0340 C   0  0  0  0  0  0  0  0  0  0  0  0
   57.0100   28.2500   44.8560 C   0  0  0  0  0  0  0  0  0  0  0  0
   56.5090   29.5920   44.3050 C   0  0  0  0  0  0  0  0  0  0  0  0
   57.6280   30.4260   43.8570 N   0  0  0  0  0  0  0  0  0  0  0  0
   58.0390   31.6240   44.5510 C   0  0  0  0  0  0  0  0  0  0  0  0
   57.4770   32.8890   44.2070 C   0  0  0  0  0  0  0  0  0  0  0  0
   57.8460   34.0650   44.8910 C   0  0  0  0  0  0  0  0  0  0  0  0
   58.7760   33.9710   45.9220 C   0  0  0  0  0  0  0  0  0  0  0  0
   59.3110   32.7680   46.2440 C   0  0  0  0  0  0  0  0  0  0  0  0
   60.2110   32.8590   47.2560 C   0  0  0  0  0  0  0  0  0  0  0  0
   60.8730   31.7530   47.7070 N   0  0  0  0  0  0  0  0  0  0  0  0
   61.8580   31.8650   48.7850 C   0  0  0  0  0  0  0  0  0  0  0  0
   60.6210   30.5400   47.1090 C   0  0  0  0  0  0  0  0  0  0  0  0
   59.6840   30.4260   46.0540 C   0  0  0  0  0  0  0  0  0  0  0  0
   58.9970   31.5740   45.6050 C   0  0  0  0  0  0  0  0  0  0  0  0
   60.3370   34.2810   47.7170 C   0  0  0  0  0  0  0  0  0  0  0  0
   59.3450   35.0470   46.7940 C   0  0  0  0  0  0  0  0  0  0  0  0
   58.8301   27.4083   46.2511 H   0  0  0  0  0  0  0  0  0  0  0  0
   58.9515   26.0539   45.0774 H   0  0  0  0  0  0  0  0  0  0  0  0
   60.1889   27.3560   45.0774 H   0  0  0  0  0  0  0  0  0  0  0  0
   57.9162   26.0567   43.3019 H   0  0  0  0  0  0  0  0  0  0  0  0
   57.3156   27.5149   42.4418 H   0  0  0  0  0  0  0  0  0  0  0  0
   59.0704   27.1313   42.4418 H   0  0  0  0  0  0  0  0  0  0  0  0
   56.2787   27.4648   44.6139 H   0  0  0  0  0  0  0  0  0  0  0  0
   57.1293   28.3382   45.9459 H   0  0  0  0  0  0  0  0  0  0  0  0
   55.8376   29.4036   43.4543 H   0  0  0  0  0  0  0  0  0  0  0  0
   55.9750   30.1229   45.1069 H   0  0  0  0  0  0  0  0  0  0  0  0
   58.1450   30.1280   43.0020 H   0  0  0  0  0  0  0  0  0  0  0  0
   56.7410   32.9481   43.3917 H   0  0  0  0  0  0  0  0  0  0  0  0
   57.4083   35.0359   44.6158 H   0  0  0  0  0  0  0  0  0  0  0  0
   61.3461   31.8068   49.7569 H   0  0  0  0  0  0  0  0  0  0  0  0
   62.5853   31.0438   48.7039 H   0  0  0  0  0  0  0  0  0  0  0  0
   62.3824   32.8286   48.7039 H   0  0  0  0  0  0  0  0  0  0  0  0
   61.1563   29.6440   47.4563 H   0  0  0  0  0  0  0  0  0  0  0  0
   59.4926   29.4486   45.5871 H   0  0  0  0  0  0  0  0  0  0  0  0
   60.0479   34.3796   48.7737 H   0  0  0  0  0  0  0  0  0  0  0  0
   61.3663   34.6640   47.6538 H   0  0  0  0  0  0  0  0  0  0  0  0
   58.5546   35.5335   47.3844 H   0  0  0  0  0  0  0  0  0  0  0  0
   59.8281   35.8519   46.2207 H   0  0  0  0  0  0  0  0  0  0  0  0
  1  2  1  0
  2  3  1  0
  2  4  1  0
  4  5  1  0
  5  6  1  0
  6  7  1  0
  7  8  2  0
  8  9  1  0
  9 10  2  0
 10 11  1  0
 11 12  2  0
 12 13  1  0
 13 14  1  0
 13 15  2  0
 15 16  1  0
 16 17  2  0
 12 18  1  0
 18 19  1  0
 17  7  1  0
 19 10  1  0
 17 11  1  0
  1 20  1  0
  1 21  1  0
  1 22  1  0
  3 23  1  0
  3 24  1  0
  3 25  1  0
  4 26  1  0
  4 27  1  0
  5 28  1  0
  5 29  1  0
  6 30  1  0
  8 31  1  0
  9 32  1  0
 14 33  1  0
 14 34  1  0
 14 35  1  0
 15 36  1  0
 16 37  1  0
 18 38  1  0
 18 39  1  0
 19 40  1  0
 19 41  1  0
M  CHG  1  13   1
M  END
>  <UniqueID>  (31) 
31

>  <SMILES>  (31) 
CN(C)CCNc1ccc2c3c([n+](C)ccc13)CC2

>  <Energy>  (31) 
65.38014922959206

>  <Genealogy>  (31) 
CN(C)CCNc1ccc2c3c([n+](C)ccc13)CC2 (3D coordinates assigned)
CN(C)CCNc1ccc2c3c([n+](C)ccc13)CC2 (nonaromatic ring conformer: 65.38014922959206 kcal/mol)

>  <smiles>  (31) 
CN(C)CCNc1ccc2c3c([n+](C)ccc13)CC2

>  <score_type>  (31) 
oracle

>  <origin>  (31) 
adg

>  <m_score__min__energy>  (31) 
-4.9800000000000004

>  <m_primary>  (31) 
energy

$$$$
31:0
     RDKit          3D

 64 66  0  0  0  0  0  0  0  0999 V2000
   60.4170   28.7810   45.3360 C   0  0  0  0  0  0  0  0  0  0  0  0
   59.6820   30.0480   45.7650 C   0  0  0  0  0  0  0  0  0  0  0  0
   58.5220   29.6940   46.6160 N   0  0  0  0  0  0  0  0  0  0  0  0
   58.9230   29.6180   48.0300 C   0  0  0  0  0  0  0  0  0  0  0  0
   57.8970   28.4210   46.1940 C   0  0  0  0  0  0  0  0  0  0  0  0
   57.1630   28.5980   44.8650 C   0  0  0  0  0  0  0  0  0  0  0  0
   56.2970   29.7080   44.9530 O   0  0  0  0  0  0  0  0  0  0  0  0
   55.9130   30.1230   43.6590 C   0  0  0  0  0  0  0  0  0  0  0  0
   57.0380   30.9460   43.0140 C   0  0  0  0  0  0  0  0  0  0  0  0
   57.7320   31.9280   43.9860 C   0  0  0  0  0  0  0  0  0  0  0  0
   56.9860   32.1120   45.2420 N   0  0  0  0  0  0  0  0  0  0  0  0
   57.0210   33.5090   45.7030 C   0  0  0  0  0  0  0  0  0  0  0  0
   58.3630   33.8510   46.3580 C   0  0  0  0  0  0  0  0  0  0  0  0
   58.8470   32.7280   47.1650 N   0  0  0  0  0  0  0  0  0  0  0  0
   59.7750   32.9150   48.2490 C   0  0  0  0  0  0  0  0  0  0  0  0
   61.1080   33.2710   47.9770 C   0  0  0  0  0  0  0  0  0  0  0  0
   61.5280   33.5320   46.6550 C   0  0  0  0  0  0  0  0  0  0  0  0
   62.8640   33.8020   46.3720 C   0  0  0  0  0  0  0  0  0  0  0  0
   63.8050   33.8040   47.3940 C   0  0  0  0  0  0  0  0  0  0  0  0
   63.4110   33.5700   48.7110 C   0  0  0  0  0  0  0  0  0  0  0  0
   62.0480   33.3410   49.0410 C   0  0  0  0  0  0  0  0  0  0  0  0
   61.6350   33.1630   50.3490 N   0  0  0  0  0  0  0  0  0  0  0  0
   62.5630   33.4670   51.4630 C   0  0  0  0  0  0  0  0  0  0  0  0
   60.3490   32.7270   50.6170 C   0  0  0  0  0  0  0  0  0  0  0  0
   59.9510   32.3240   51.9180 C   0  0  0  0  0  0  0  0  0  0  0  0
   58.6330   31.9560   52.1880 C   0  0  0  0  0  0  0  0  0  0  0  0
   57.6800   31.9770   51.1780 C   0  0  0  0  0  0  0  0  0  0  0  0
   58.0480   32.3210   49.8800 C   0  0  0  0  0  0  0  0  0  0  0  0
   59.3860   32.6510   49.5730 C   0  0  0  0  0  0  0  0  0  0  0  0
   60.7398   28.2245   46.2282 H   0  0  0  0  0  0  0  0  0  0  0  0
   59.7436   28.1520   44.7353 H   0  0  0  0  0  0  0  0  0  0  0  0
   61.2973   29.0534   44.7353 H   0  0  0  0  0  0  0  0  0  0  0  0
   60.3681   30.6930   46.3335 H   0  0  0  0  0  0  0  0  0  0  0  0
   59.3262   30.5808   44.8708 H   0  0  0  0  0  0  0  0  0  0  0  0
   58.0439   29.7846   48.6699 H   0  0  0  0  0  0  0  0  0  0  0  0
   59.3452   28.6239   48.2385 H   0  0  0  0  0  0  0  0  0  0  0  0
   59.6796   30.3887   48.2385 H   0  0  0  0  0  0  0  0  0  0  0  0
   58.6785   27.6558   46.0765 H   0  0  0  0  0  0  0  0  0  0  0  0
   57.1726   28.1096   46.9610 H   0  0  0  0  0  0  0  0  0  0  0  0
   57.8947   28.7661   44.0610 H   0  0  0  0  0  0  0  0  0  0  0  0
   56.5789   27.6925   44.6441 H   0  0  0  0  0  0  0  0  0  0  0  0
   55.7080   29.2379   43.0388 H   0  0  0  0  0  0  0  0  0  0  0  0
   55.0088   30.7449   43.7335 H   0  0  0  0  0  0  0  0  0  0  0  0
   57.7960   30.2507   42.6242 H   0  0  0  0  0  0  0  0  0  0  0  0
   56.5755   31.5537   42.2222 H   0  0  0  0  0  0  0  0  0  0  0  0
   58.7320   31.5373   44.2254 H   0  0  0  0  0  0  0  0  0  0  0  0
   57.7845   32.9065   43.4861 H   0  0  0  0  0  0  0  0  0  0  0  0
   57.4590   31.5100   45.9570 H   0  0  0  0  0  0  0  0  0  0  0  0
   56.8644   34.1739   44.8408 H   0  0  0  0  0  0  0  0  0  0  0  0
   56.2269   33.6451   46.4520 H   0  0  0  0  0  0  0  0  0  0  0  0
   59.1006   34.0762   45.5736 H   0  0  0  0  0  0  0  0  0  0  0  0
   58.2242   34.7234   47.0135 H   0  0  0  0  0  0  0  0  0  0  0  0
   58.4230   31.7820   47.0280 H   0  0  0  0  0  0  0  0  0  0  0  0
   60.7908   33.5219   45.8386 H   0  0  0  0  0  0  0  0  0  0  0  0
   63.1748   34.0139   45.3383 H   0  0  0  0  0  0  0  0  0  0  0  0
   64.8643   33.9908   47.1636 H   0  0  0  0  0  0  0  0  0  0  0  0
   64.1686   33.5626   49.5084 H   0  0  0  0  0  0  0  0  0  0  0  0
   62.0516   33.2995   52.4224 H   0  0  0  0  0  0  0  0  0  0  0  0
   63.4429   32.8101   51.3969 H   0  0  0  0  0  0  0  0  0  0  0  0
   62.8837   34.5171   51.3969 H   0  0  0  0  0  0  0  0  0  0  0  0
   60.6950   32.3014   52.7279 H   0  0  0  0  0  0  0  0  0  0  0  0
   58.3473   31.6480   53.2046 H   0  0  0  0  0  0  0  0  0  0  0  0
   56.6341   31.7218   51.4036 H   0  0  0  0  0  0  0  0  0  0  0  0
   57.2879   32.3358   49.0850 H   0  0  0  0  0  0  0  0  0  0  0  0
  1  2  1  0
  2  3  1  0
  3  4  1  0
  3  5  1  0
  5  6  1  0
  6  7  1  0
  7  8  1  0
  8  9  1  0
  9 10  1  0
 10 11  1  0
 11 12  1  0
 12 13  1  0
 13 14  1  0
 14 15  1  0
 15 16  2  0
 16 17  1  0
 17 18  2  0
 18 19  1  0
 19 20  2  0
 20 21  1  0
 21 22  2  0
 22 23  1  0
 22 24  1  0
 24 25  2  0
 25 26  1  0
 26 27  2  0
 27 28  1  0
 28 29  2  0
 29 15  1  0
 21 16  1  0
 29 24  1  0
  1 30  1  0
  1 31  1  0
  1 32  1  0
  2 33  1  0
  2 34  1  0
  4 35  1  0
  4 36  1  0
  4 37  1  0
  5 38  1  0
  5 39  1  0
  6 40  1  0
  6 41  1  0
  8 42  1  0
  8 43  1  0
  9 44  1  0
  9 45  1  0
 10 46  1  0
 10 47  1  0
 11 48  1  0
 12 49  1  0
 12 50  1  0
 13 51  1  0
 13 52  1  0
 14 53  1  0
 17 54  1  0
 18 55  1  0
 19 56  1  0
 20 57  1  0
 23 58  1  0
 23 59  1  0
 23 60  1  0
 25 61  1  0
 26 62  1  0
 27 63  1  0
 28 64  1  0
M  CHG  1  22   1
M  END
>  <UniqueID>  (32) 
32

>  <SMILES>  (32) 
CCN(C)CCOCCCNCCNc1c2ccccc2[n+](C)c2ccccc12

>  <Energy>  (32) 
80.28743351001266

>  <Genealogy>  (32) 
CCN(C)CCOCCCNCCNc1c2ccccc2[n+](C)c2ccccc12 (3D coordinates assigned)
CCN(C)CCOCCCNCCNc1c2ccccc2[n+](C)c2ccccc12 (optimized conformer: 80.28743351001266 kcal/mol)

>  <smiles>  (32) 
CCN(C)CCOCCCNCCNc1c2ccccc2[n+](C)c2ccccc12

>  <score_type>  (32) 
oracle

>  <origin>  (32) 
adg

>  <m_score__min__energy>  (32) 
-6.2800000000000002

>  <m_primary>  (32) 
energy

$$$$
32:0
     RDKit          3D

 47 48  0  0  0  0  0  0  0  0999 V2000
   54.3230   24.1010   45.9650 C   0  0  0  0  0  0  0  0  0  0  0  0
   55.7030   24.6460   46.1210 C   0  0  0  0  0  0  0  0  0  0  0  0
   56.6540   24.1830   47.0080 C   0  0  0  0  0  0  0  0  0  0  0  0
   57.7730   24.9620   46.7950 C   0  0  0  0  0  0  0  0  0  0  0  0
   57.4280   25.8430   45.7880 C   0  0  0  0  0  0  0  0  0  0  0  0
   58.3240   26.8910   45.1920 C   0  0  0  0  0  0  0  0  0  0  0  0
   57.6660   27.6050   44.0690 N   0  0  2  0  0  0  0  0  0  0  0  0
   58.1430   27.0850   42.7720 C   0  0  0  0  0  0  0  0  0  0  0  0
   57.9320   29.0630   44.1420 C   0  0  0  0  0  0  0  0  0  0  0  0
   56.7920   29.8050   44.7800 C   0  0  0  0  0  0  0  0  0  0  0  0
   55.6480   29.2760   44.8250 O   0  0  0  0  0  0  0  0  0  0  0  0
   57.0200   31.0870   45.3680 N   0  0  0  0  0  0  0  0  0  0  0  0
   57.3720   32.2650   44.5830 C   0  0  0  0  0  0  0  0  0  0  0  0
   57.2260   33.5280   45.4320 C   0  0  0  0  0  0  0  0  0  0  0  0
   58.5580   34.2790   45.5710 C   0  0  0  0  0  0  0  0  0  0  0  0
   59.0430   34.1960   46.9110 O   0  0  0  0  0  0  0  0  0  0  0  0
   60.3900   34.0510   47.2840 C   0  0  0  0  0  0  0  0  0  0  0  0
   61.4150   33.7740   46.3550 C   0  0  0  0  0  0  0  0  0  0  0  0
   62.7390   33.6430   46.7870 C   0  0  0  0  0  0  0  0  0  0  0  0
   63.0540   33.7820   48.1400 C   0  0  0  0  0  0  0  0  0  0  0  0
   62.0430   34.0510   49.0660 C   0  0  0  0  0  0  0  0  0  0  0  0
   60.7190   34.1830   48.6390 C   0  0  0  0  0  0  0  0  0  0  0  0
   56.1920   25.6310   45.4030 O   0  0  0  0  0  0  0  0  0  0  0  0
   53.8830   23.9272   46.9581 H   0  0  0  0  0  0  0  0  0  0  0  0
   53.7044   24.8223   45.4110 H   0  0  0  0  0  0  0  0  0  0  0  0
   54.3642   23.1516   45.4110 H   0  0  0  0  0  0  0  0  0  0  0  0
   56.5430   23.3637   47.7335 H   0  0  0  0  0  0  0  0  0  0  0  0
   58.7385   24.8955   47.3179 H   0  0  0  0  0  0  0  0  0  0  0  0
   58.5869   27.6203   45.9723 H   0  0  0  0  0  0  0  0  0  0  0  0
   59.2217   26.3906   44.7999 H   0  0  0  0  0  0  0  0  0  0  0  0
   56.6300   27.4490   44.1150 H   0  0  0  0  0  0  0  0  0  0  0  0
   58.8773   26.2845   42.9456 H   0  0  0  0  0  0  0  0  0  0  0  0
   57.2917   26.6844   42.2021 H   0  0  0  0  0  0  0  0  0  0  0  0
   58.6154   27.8987   42.2021 H   0  0  0  0  0  0  0  0  0  0  0  0
   58.8427   29.2298   44.7360 H   0  0  0  0  0  0  0  0  0  0  0  0
   58.0554   29.4406   43.1163 H   0  0  0  0  0  0  0  0  0  0  0  0
   58.4136   32.1756   44.2407 H   0  0  0  0  0  0  0  0  0  0  0  0
   56.6969   32.3344   43.7173 H   0  0  0  0  0  0  0  0  0  0  0  0
   56.4901   34.1933   44.9568 H   0  0  0  0  0  0  0  0  0  0  0  0
   56.8963   33.2277   46.4376 H   0  0  0  0  0  0  0  0  0  0  0  0
   59.2977   33.8325   44.8903 H   0  0  0  0  0  0  0  0  0  0  0  0
   58.3973   35.3370   45.3164 H   0  0  0  0  0  0  0  0  0  0  0  0
   61.1724   33.6607   45.2881 H   0  0  0  0  0  0  0  0  0  0  0  0
   63.5348   33.4297   46.0581 H   0  0  0  0  0  0  0  0  0  0  0  0
   64.0963   33.6799   48.4764 H   0  0  0  0  0  0  0  0  0  0  0  0
   62.2895   34.1590   50.1326 H   0  0  0  0  0  0  0  0  0  0  0  0
   59.9278   34.3925   49.3739 H   0  0  0  0  0  0  0  0  0  0  0  0
  1  2  1  0
  2  3  2  0
  3  4  1  0
  4  5  2  0
  5  6  1  0
  6  7  1  0
  7  8  1  0
  7  9  1  0
  9 10  1  0
 10 11  2  0
 10 12  1  0
 12 13  1  0
 13 14  1  0
 14 15  1  0
 15 16  1  0
 16 17  1  0
 17 18  2  0
 18 19  1  0
 19 20  2  0
 20 21  1  0
 21 22  2  0
  5 23  1  0
 23  2  1  0
 22 17  1  0
  1 24  1  0
  1 25  1  0
  1 26  1  0
  3 27  1  0
  4 28  1  0
  6 29  1  0
  6 30  1  0
  7 31  1  1
  8 32  1  0
  8 33  1  0
  8 34  1  0
  9 35  1  0
  9 36  1  0
 13 37  1  0
 13 38  1  0
 14 39  1  0
 14 40  1  0
 15 41  1  0
 15 42  1  0
 18 43  1  0
 19 44  1  0
 20 45  1  0
 21 46  1  0
 22 47  1  0
M  CHG  2   7   1  12  -1
M  END
>  <UniqueID>  (33) 
33

>  <SMILES>  (33) 
Cc1ccc(C[N@H+](C)CC(=O)[N-]CCCOc2ccccc2)o1

>  <Energy>  (33) 
65.36844465890746

>  <Genealogy>  (33) 
Cc1ccc(C[NH+](C)CC(=O)[N-]CCCOc2ccccc2)o1 (protonated)
Cc1ccc(C[N@H+](C)CC(=O)[N-]CCCOc2ccccc2)o1 (chirality)
Cc1ccc(C[N@H+](C)CC(=O)[N-]CCCOc2ccccc2)o1 (3D coordinates assigned)
Cc1ccc(C[N@H+](C)CC(=O)[N-]CCCOc2ccccc2)o1 (optimized conformer: 65.36844465890746 kcal/mol)

>  <smiles>  (33) 
Cc1ccc(CN(C)CC(=O)NCCCOc2ccccc2)o1

>  <score_type>  (33) 
oracle

>  <origin>  (33) 
adg

>  <m_score__min__energy>  (33) 
-7.0499999999999998

>  <m_primary>  (33) 
energy

$$$$
33:0
     RDKit          3D

 77 80  0  0  0  0  0  0  0  0999 V2000
   58.2330   29.4340   52.3750 C   0  0  0  0  0  0  0  0  0  0  0  0
   58.6670   30.5270   53.3510 C   0  0  0  0  0  0  0  0  0  0  0  0
   59.8490   31.2630   52.8450 N   0  0  0  0  0  0  0  0  0  0  0  0
   60.9900   31.1080   53.7710 C   0  0  0  0  0  0  0  0  0  0  0  0
   59.5250   32.6990   52.6600 C   0  0  0  0  0  0  0  0  0  0  0  0
   58.1420   32.9060   52.0130 C   0  0  0  0  0  0  0  0  0  0  0  0
   58.0350   32.3330   50.5900 C   0  0  0  0  0  0  0  0  0  0  0  0
   59.2560   32.5630   49.8190 N   0  0  0  0  0  0  0  0  0  0  0  0
   59.3940   31.9750   48.5200 C   0  0  0  0  0  0  0  0  0  0  0  0
   59.1580   32.7710   47.3880 C   0  0  0  0  0  0  0  0  0  0  0  0
   59.0710   34.1760   47.4960 C   0  0  0  0  0  0  0  0  0  0  0  0
   58.9110   34.9670   46.3610 C   0  0  0  0  0  0  0  0  0  0  0  0
   58.8370   34.3730   45.1050 C   0  0  0  0  0  0  0  0  0  0  0  0
   58.8840   32.9850   44.9810 C   0  0  0  0  0  0  0  0  0  0  0  0
   59.0000   32.1540   46.1250 C   0  0  0  0  0  0  0  0  0  0  0  0
   58.9430   30.7790   46.0370 N   0  0  0  0  0  0  0  0  0  0  0  0
   58.4030   30.1440   44.8130 C   0  0  0  0  0  0  0  0  0  0  0  0
   59.3730   29.9990   47.0960 C   0  0  0  0  0  0  0  0  0  0  0  0
   59.5390   28.6020   46.9500 C   0  0  0  0  0  0  0  0  0  0  0  0
   59.9110   27.8050   48.0220 C   0  0  0  0  0  0  0  0  0  0  0  0
   60.2380   28.3810   49.2380 C   0  0  0  0  0  0  0  0  0  0  0  0
   60.2370   29.7760   49.4060 C   0  0  0  0  0  0  0  0  0  0  0  0
   60.8700   30.3150   50.6010 N   0  0  0  0  0  0  0  0  0  0  0  0
   62.3510   30.3690   50.5140 C   0  0  0  0  0  0  0  0  0  0  0  0
   62.9980   31.7650   50.7900 C   0  0  0  0  0  0  0  0  0  0  0  0
   63.7050   32.4730   49.6590 N   0  0  0  0  0  0  0  0  0  0  0  0
   65.1830   32.3970   49.8160 C   0  0  0  0  0  0  0  0  0  0  0  0
   63.3440   31.7650   48.3800 C   0  0  0  0  0  0  0  0  0  0  0  0
   63.4450   32.6620   47.1330 C   0  0  0  0  0  0  0  0  0  0  0  0
   62.4660   33.8410   47.2220 C   0  0  0  0  0  0  0  0  0  0  0  0
   62.1090   34.1950   48.6740 C   0  0  0  0  0  0  0  0  0  0  0  0
   63.2950   33.9200   49.6130 C   0  0  0  0  0  0  0  0  0  0  0  0
   59.6700   30.5930   48.3630 C   0  0  0  0  0  0  0  0  0  0  0  0
   57.8845   28.5562   52.9389 H   0  0  0  0  0  0  0  0  0  0  0  0
   57.4163   29.8110   51.7418 H   0  0  0  0  0  0  0  0  0  0  0  0
   59.0858   29.1481   51.7418 H   0  0  0  0  0  0  0  0  0  0  0  0
   57.8363   31.2348   53.4887 H   0  0  0  0  0  0  0  0  0  0  0  0
   58.9366   30.0523   54.3060 H   0  0  0  0  0  0  0  0  0  0  0  0
   60.6291   31.1570   54.8090 H   0  0  0  0  0  0  0  0  0  0  0  0
   61.4742   30.1358   53.5967 H   0  0  0  0  0  0  0  0  0  0  0  0
   61.7160   31.9158   53.5967 H   0  0  0  0  0  0  0  0  0  0  0  0
   59.5338   33.1934   53.6426 H   0  0  0  0  0  0  0  0  0  0  0  0
   60.2802   33.1312   51.9871 H   0  0  0  0  0  0  0  0  0  0  0  0
   57.3863   32.4145   52.6433 H   0  0  0  0  0  0  0  0  0  0  0  0
   57.9815   33.9915   51.9361 H   0  0  0  0  0  0  0  0  0  0  0  0
   57.8535   31.2500   50.6549 H   0  0  0  0  0  0  0  0  0  0  0  0
   57.2058   32.8427   50.0775 H   0  0  0  0  0  0  0  0  0  0  0  0
   59.9450   33.2920   50.1110 H   0  0  0  0  0  0  0  0  0  0  0  0
   59.1302   34.6507   48.4866 H   0  0  0  0  0  0  0  0  0  0  0  0
   58.8432   36.0607   46.4574 H   0  0  0  0  0  0  0  0  0  0  0  0
   58.7411   35.0006   44.2067 H   0  0  0  0  0  0  0  0  0  0  0  0
   58.8304   32.5278   43.9820 H   0  0  0  0  0  0  0  0  0  0  0  0
   57.7140   29.3338   45.0937 H   0  0  0  0  0  0  0  0  0  0  0  0
   57.8628   30.8951   44.2181 H   0  0  0  0  0  0  0  0  0  0  0  0
   59.2311   29.7314   44.2181 H   0  0  0  0  0  0  0  0  0  0  0  0
   59.3697   28.1387   45.9668 H   0  0  0  0  0  0  0  0  0  0  0  0
   59.9464   26.7117   47.9060 H   0  0  0  0  0  0  0  0  0  0  0  0
   60.5033   27.7348   50.0878 H   0  0  0  0  0  0  0  0  0  0  0  0
   60.4830   31.2660   50.7860 H   0  0  0  0  0  0  0  0  0  0  0  0
   60.5920   29.7770   51.4520 H   0  0  0  0  0  0  0  0  0  0  0  0
   62.7584   29.6573   51.2472 H   0  0  0  0  0  0  0  0  0  0  0  0
   62.5981   30.1262   49.4700 H   0  0  0  0  0  0  0  0  0  0  0  0
   62.1945   32.4313   51.1371 H   0  0  0  0  0  0  0  0  0  0  0  0
   63.7990   31.5499   51.5126 H   0  0  0  0  0  0  0  0  0  0  0  0
   65.4379   32.3839   50.8860 H   0  0  0  0  0  0  0  0  0  0  0  0
   65.5556   31.4785   49.3390 H   0  0  0  0  0  0  0  0  0  0  0  0
   65.6479   33.2724   49.3390 H   0  0  0  0  0  0  0  0  0  0  0  0
   64.0248   30.9107   48.2506 H   0  0  0  0  0  0  0  0  0  0  0  0
   62.2935   31.4510   48.4689 H   0  0  0  0  0  0  0  0  0  0  0  0
   64.4706   33.0515   47.0523 H   0  0  0  0  0  0  0  0  0  0  0  0
   63.1899   32.0610   46.2477 H   0  0  0  0  0  0  0  0  0  0  0  0
   62.9265   34.7197   46.7468 H   0  0  0  0  0  0  0  0  0  0  0  0
   61.5381   33.5469   46.7097 H   0  0  0  0  0  0  0  0  0  0  0  0
   61.8448   35.2613   48.7302 H   0  0  0  0  0  0  0  0  0  0  0  0
   61.2592   33.5716   48.9891 H   0  0  0  0  0  0  0  0  0  0  0  0
   64.1549   34.5142   49.2701 H   0  0  0  0  0  0  0  0  0  0  0  0
   62.9731   34.1961   50.6280 H   0  0  0  0  0  0  0  0  0  0  0  0
  1  2  1  0
  2  3  1  0
  3  4  1  0
  3  5  1  0
  5  6  1  0
  6  7  1  0
  7  8  1  0
  8  9  1  0
  9 10  2  0
 10 11  1  0
 11 12  2  0
 12 13  1  0
 13 14  2  0
 14 15  1  0
 15 16  2  0
 16 17  1  0
 16 18  1  0
 18 19  2  0
 19 20  1  0
 20 21  2  0
 21 22  1  0
 22 23  1  0
 23 24  1  0
 24 25  1  0
 25 26  1  0
 26 27  1  0
 26 28  1  0
 28 29  1  0
 29 30  1  0
 30 31  1  0
 31 32  1  0
 22 33  2  0
 33  9  1  0
 15 10  1  0
 33 18  1  0
 32 26  1  0
  1 34  1  0
  1 35  1  0
  1 36  1  0
  2 37  1  0
  2 38  1  0
  4 39  1  0
  4 40  1  0
  4 41  1  0
  5 42  1  0
  5 43  1  0
  6 44  1  0
  6 45  1  0
  7 46  1  0
  7 47  1  0
  8 48  1  0
 11 49  1  0
 12 50  1  0
 13 51  1  0
 14 52  1  0
 17 53  1  0
 17 54  1  0
 17 55  1  0
 19 56  1  0
 20 57  1  0
 21 58  1  0
 23 59  1  0
 23 60  1  0
 24 61  1  0
 24 62  1  0
 25 63  1  0
 25 64  1  0
 27 65  1  0
 27 66  1  0
 27 67  1  0
 28 68  1  0
 28 69  1  0
 29 70  1  0
 29 71  1  0
 30 72  1  0
 30 73  1  0
 31 74  1  0
 31 75  1  0
 32 76  1  0
 32 77  1  0
M  CHG  3  16   1  23   1  26   1
M  END
>  <UniqueID>  (34) 
34

>  <SMILES>  (34) 
CCN(C)CCCNc1c2ccccc2[n+](C)c2cccc([NH2+]CC[N+]3(C)CCCCC3)c12

>  <Energy>  (34) 
138.4747933980402

>  <Genealogy>  (34) 
CCN(C)CCCNc1c2ccccc2[n+](C)c2cccc([NH2+]CC[N+]3(C)CCCCC3)c12 (protonated)
CCN(C)CCCNc1c2ccccc2[n+](C)c2cccc([NH2+]CC[N+]3(C)CCCCC3)c12 (3D coordinates assigned)
CCN(C)CCCNc1c2ccccc2[n+](C)c2cccc([NH2+]CC[N+]3(C)CCCCC3)c12 (nonaromatic ring conformer: 138.4747933980402 kcal/mol)

>  <smiles>  (34) 
CCN(C)CCCNc1c2ccccc2[n+](C)c2cccc(NCC[N+]3(C)CCCCC3)c12

>  <score_type>  (34) 
oracle

>  <origin>  (34) 
adg

>  <m_score__min__energy>  (34) 
-3.4199999999999999

>  <m_primary>  (34) 
energy

$$$$
34:0
     RDKit          3D

 62 64  0  0  0  0  0  0  0  0999 V2000
   61.6410   34.1620   49.9670 C   0  0  0  0  0  0  0  0  0  0  0  0
   62.6560   34.1000   48.8320 C   0  0  0  0  0  0  0  0  0  0  0  0
   62.9810   32.6810   48.5310 N   0  0  0  0  0  0  0  0  0  0  0  0
   63.3560   32.4930   47.1100 C   0  0  0  0  0  0  0  0  0  0  0  0
   63.3620   33.8260   46.3640 C   0  0  0  0  0  0  0  0  0  0  0  0
   64.0460   32.1610   49.4190 C   0  0  0  0  0  0  0  0  0  0  0  0
   63.5020   31.0720   50.3530 C   0  0  0  0  0  0  0  0  0  0  0  0
   62.3500   30.4740   49.7900 O   0  0  0  0  0  0  0  0  0  0  0  0
   61.4130   30.1500   50.7970 C   0  0  0  0  0  0  0  0  0  0  0  0
   60.1020   30.8950   50.5380 C   0  0  0  0  0  0  0  0  0  0  0  0
   59.5150   30.5520   49.1600 C   0  0  0  0  0  0  0  0  0  0  0  0
   60.5100   30.7700   48.0980 N   0  0  0  0  0  0  0  0  0  0  0  0
   59.8500   31.0140   46.8240 C   0  0  0  0  0  0  0  0  0  0  0  0
   59.5760   32.3400   46.3930 C   0  0  0  0  0  0  0  0  0  0  0  0
   60.0440   33.4690   47.1130 C   0  0  0  0  0  0  0  0  0  0  0  0
   59.6820   34.7600   46.7380 C   0  0  0  0  0  0  0  0  0  0  0  0
   58.8500   34.9610   45.6480 C   0  0  0  0  0  0  0  0  0  0  0  0
   58.4180   33.8760   44.8910 C   0  0  0  0  0  0  0  0  0  0  0  0
   58.8180   32.5510   45.2070 C   0  0  0  0  0  0  0  0  0  0  0  0
   58.4770   31.4860   44.3980 N   0  0  0  0  0  0  0  0  0  0  0  0
   57.9680   31.7370   43.0280 C   0  0  0  0  0  0  0  0  0  0  0  0
   58.6630   30.1900   44.8360 C   0  0  0  0  0  0  0  0  0  0  0  0
   58.1060   29.0880   44.1340 C   0  0  0  0  0  0  0  0  0  0  0  0
   58.3760   27.7710   44.5130 C   0  0  0  0  0  0  0  0  0  0  0  0
   57.8150   26.6790   43.7790 N   0  0  0  0  0  0  0  0  0  0  0  0
   59.2020   27.5270   45.6050 C   0  0  0  0  0  0  0  0  0  0  0  0
   59.7140   28.5860   46.3500 C   0  0  0  0  0  0  0  0  0  0  0  0
   59.4150   29.9300   46.0160 C   0  0  0  0  0  0  0  0  0  0  0  0
   62.1678   34.1298   50.9321 H   0  0  0  0  0  0  0  0  0  0  0  0
   61.0660   35.0969   49.8941 H   0  0  0  0  0  0  0  0  0  0  0  0
   60.9565   33.3040   49.8941 H   0  0  0  0  0  0  0  0  0  0  0  0
   62.2325   34.5767   47.9357 H   0  0  0  0  0  0  0  0  0  0  0  0
   63.5725   34.6291   49.1321 H   0  0  0  0  0  0  0  0  0  0  0  0
   64.3606   32.0478   47.0590 H   0  0  0  0  0  0  0  0  0  0  0  0
   62.6162   31.8303   46.6372 H   0  0  0  0  0  0  0  0  0  0  0  0
   63.3657   34.6524   47.0899 H   0  0  0  0  0  0  0  0  0  0  0  0
   64.2604   33.8887   45.7324 H   0  0  0  0  0  0  0  0  0  0  0  0
   62.4642   33.8968   45.7324 H   0  0  0  0  0  0  0  0  0  0  0  0
   64.8522   31.7363   48.8029 H   0  0  0  0  0  0  0  0  0  0  0  0
   64.4257   32.9909   50.0330 H   0  0  0  0  0  0  0  0  0  0  0  0
   64.2741   30.3029   50.5024 H   0  0  0  0  0  0  0  0  0  0  0  0
   63.2338   31.5283   51.3173 H   0  0  0  0  0  0  0  0  0  0  0  0
   61.2259   29.0661   50.7878 H   0  0  0  0  0  0  0  0  0  0  0  0
   61.8138   30.4465   51.7776 H   0  0  0  0  0  0  0  0  0  0  0  0
   59.3745   30.6164   51.3146 H   0  0  0  0  0  0  0  0  0  0  0  0
   60.3111   31.9747   50.5621 H   0  0  0  0  0  0  0  0  0  0  0  0
   59.2054   29.4965   49.1527 H   0  0  0  0  0  0  0  0  0  0  0  0
   58.6509   31.2064   48.9726 H   0  0  0  0  0  0  0  0  0  0  0  0
   61.1630   29.9590   48.0380 H   0  0  0  0  0  0  0  0  0  0  0  0
   61.1460   31.5590   48.3500 H   0  0  0  0  0  0  0  0  0  0  0  0
   60.7033   33.3222   47.9812 H   0  0  0  0  0  0  0  0  0  0  0  0
   60.0573   35.6226   47.3082 H   0  0  0  0  0  0  0  0  0  0  0  0
   58.5307   35.9792   45.3809 H   0  0  0  0  0  0  0  0  0  0  0  0
   57.7538   34.0484   44.0313 H   0  0  0  0  0  0  0  0  0  0  0  0
   56.9828   32.2228   43.0862 H   0  0  0  0  0  0  0  0  0  0  0  0
   58.6690   32.3927   42.4908 H   0  0  0  0  0  0  0  0  0  0  0  0
   57.8746   30.7817   42.4908 H   0  0  0  0  0  0  0  0  0  0  0  0
   57.4476   29.2758   43.2730 H   0  0  0  0  0  0  0  0  0  0  0  0
   57.0200   26.8290   43.1180 H   0  0  0  0  0  0  0  0  0  0  0  0
   58.1880   25.7090   43.8940 H   0  0  0  0  0  0  0  0  0  0  0  0
   59.4521   26.4921   45.8815 H   0  0  0  0  0  0  0  0  0  0  0  0
   60.3623   28.3754   47.2134 H   0  0  0  0  0  0  0  0  0  0  0  0
  1  2  1  0
  2  3  1  0
  3  4  1  0
  4  5  1  0
  3  6  1  0
  6  7  1  0
  7  8  1  0
  8  9  1  0
  9 10  1  0
 10 11  1  0
 11 12  1  0
 12 13  1  0
 13 14  2  0
 14 15  1  0
 15 16  2  0
 16 17  1  0
 17 18  2  0
 18 19  1  0
 19 20  2  0
 20 21  1  0
 20 22  1  0
 22 23  2  0
 23 24  1  0
 24 25  1  0
 24 26  2  0
 26 27  1  0
 27 28  2  0
 28 13  1  0
 19 14  1  0
 28 22  1  0
  1 29  1  0
  1 30  1  0
  1 31  1  0
  2 32  1  0
  2 33  1  0
  4 34  1  0
  4 35  1  0
  5 36  1  0
  5 37  1  0
  5 38  1  0
  6 39  1  0
  6 40  1  0
  7 41  1  0
  7 42  1  0
  9 43  1  0
  9 44  1  0
 10 45  1  0
 10 46  1  0
 11 47  1  0
 11 48  1  0
 12 49  1  0
 12 50  1  0
 15 51  1  0
 16 52  1  0
 17 53  1  0
 18 54  1  0
 21 55  1  0
 21 56  1  0
 21 57  1  0
 23 58  1  0
 25 59  1  0
 25 60  1  0
 26 61  1  0
 27 62  1  0
M  CHG  2  12   1  20   1
M  END
>  <UniqueID>  (35) 
35

>  <SMILES>  (35) 
CCN(CC)CCOCCC[NH2+]c1c2ccccc2[n+](C)c2cc(N)ccc12

>  <Energy>  (35) 
87.16625260703428

>  <Genealogy>  (35) 
CCN(CC)CCOCCC[NH2+]c1c2ccccc2[n+](C)c2cc(N)ccc12 (protonated)
CCN(CC)CCOCCC[NH2+]c1c2ccccc2[n+](C)c2cc(N)ccc12 (3D coordinates assigned)
CCN(CC)CCOCCC[NH2+]c1c2ccccc2[n+](C)c2cc(N)ccc12 (optimized conformer: 87.16625260703428 kcal/mol)

>  <smiles>  (35) 
CCN(CC)CCOCCCNc1c2ccccc2[n+](C)c2cc(N)ccc12

>  <score_type>  (35) 
oracle

>  <origin>  (35) 
adg

>  <m_score__min__energy>  (35) 
-4.0099999999999998

>  <m_primary>  (35) 
energy

$$$$
35:0
     RDKit          3D

 40 43  0  0  1  0  0  0  0  0999 V2000
   60.9470   34.2070   48.2830 C   0  0  0  0  0  0  0  0  0  0  0  0
   60.2740   32.9230   48.4300 N   0  0  0  0  0  0  0  0  0  0  0  0
   60.5180   31.7970   47.7360 C   0  0  0  0  0  0  0  0  0  0  0  0
   59.6400   30.8510   48.2200 C   0  0  0  0  0  0  0  0  0  0  0  0
   59.4660   29.4570   47.8300 C   0  0  0  0  0  0  0  0  0  0  0  0
   60.2060   28.5150   48.5040 C   0  0  0  0  0  0  0  0  0  0  0  0
   60.1260   27.1630   48.2220 C   0  0  0  0  0  0  0  0  0  0  0  0
   59.2690   26.7590   47.2270 C   0  0  0  0  0  0  0  0  0  0  0  0
   58.5240   27.7130   46.5500 C   0  0  0  0  0  0  0  0  0  0  0  0
   57.6680   27.2830   45.5530 C   0  0  0  0  0  0  0  0  0  0  0  0
   56.9580   28.2120   44.9110 N   0  0  0  0  0  0  0  0  0  0  0  0
   57.0460   29.5430   45.1970 C   0  0  0  0  0  0  0  0  0  0  0  0
   56.2990   30.3130   44.4910 N   0  0  0  0  0  0  0  0  0  0  0  0
   56.9130   31.2210   43.5400 C   0  0  0  0  0  0  0  0  0  0  0  0
   57.4720   32.3390   44.3820 C   0  0  0  0  0  0  0  0  0  0  0  0
   58.5050   33.1000   43.8820 C   0  0  0  0  0  0  0  0  0  0  0  0
   59.0180   34.1280   44.6610 C   0  0  0  0  0  0  0  0  0  0  0  0
   58.5250   34.4020   45.9080 C   0  0  0  0  0  0  0  0  0  0  0  0
   57.4880   33.6140   46.3730 C   0  0  0  0  0  0  0  0  0  0  0  0
   57.0040   32.6180   45.5970 N   0  0  0  0  0  0  0  0  0  0  0  0
   57.8740   29.9900   46.1660 N   0  0  0  0  0  0  0  0  0  0  0  0
   58.6040   29.0590   46.8300 C   0  0  0  0  0  0  0  0  0  0  0  0
   58.8860   31.4620   49.2080 C   0  0  0  0  0  0  0  0  0  0  0  0
   59.3040   32.7340   49.3090 N   0  0  0  0  0  0  0  0  0  0  0  0
   61.1649   34.6228   49.2778 H   0  0  0  0  0  0  0  0  0  0  0  0
   61.8876   34.0668   47.7301 H   0  0  0  0  0  0  0  0  0  0  0  0
   60.2966   34.9007   47.7301 H   0  0  0  0  0  0  0  0  0  0  0  0
   61.2670   31.6589   46.9424 H   0  0  0  0  0  0  0  0  0  0  0  0
   60.8888   28.8493   49.2990 H   0  0  0  0  0  0  0  0  0  0  0  0
   60.7313   26.4323   48.7785 H   0  0  0  0  0  0  0  0  0  0  0  0
   59.1750   25.6934   46.9708 H   0  0  0  0  0  0  0  0  0  0  0  0
   57.5761   26.2166   45.2992 H   0  0  0  0  0  0  0  0  0  0  0  0
   56.3090   27.8660   44.1510 H   0  0  0  0  0  0  0  0  0  0  0  0
   57.7164   30.7153   42.9843 H   0  0  0  0  0  0  0  0  0  0  0  0
   56.1953   31.5847   42.7899 H   0  0  0  0  0  0  0  0  0  0  0  0
   58.9166   32.8967   42.8824 H   0  0  0  0  0  0  0  0  0  0  0  0
   59.8429   34.7388   44.2655 H   0  0  0  0  0  0  0  0  0  0  0  0
   58.9383   35.2188   46.5179 H   0  0  0  0  0  0  0  0  0  0  0  0
   57.0590   33.7966   47.3693 H   0  0  0  0  0  0  0  0  0  0  0  0
   58.0892   30.9907   49.8022 H   0  0  0  0  0  0  0  0  0  0  0  0
  1  2  1  0
  2  3  1  0
  3  4  2  0
  4  5  1  0
  5  6  2  0
  6  7  1  0
  7  8  2  0
  8  9  1  0
  9 10  2  0
 10 11  1  0
 11 12  1  0
 12 13  2  0
 13 14  1  0
 14 15  1  0
 15 16  2  0
 16 17  1  0
 17 18  2  0
 18 19  1  0
 19 20  2  0
 12 21  1  0
 21 22  2  0
  4 23  1  0
 23 24  2  0
 24  2  1  0
 22  5  1  0
 22  9  1  0
 20 15  1  0
  1 25  1  0
  1 26  1  0
  1 27  1  0
  3 28  1  0
  6 29  1  0
  7 30  1  0
  8 31  1  0
 10 32  1  0
 11 33  1  0
 14 34  1  0
 14 35  1  0
 16 36  1  0
 17 37  1  0
 18 38  1  0
 19 39  1  0
 23 40  1  0
M  END
>  <smiles>  (36) 
Cn1cc(-c2cccc3c[nH]c(=NCc4ccccn4)nc23)cn1

>  <score_type>  (36) 
oracle

>  <origin>  (36) 
adg

>  <m_score__min__energy>  (36) 
-7.7999999999999998

>  <m_primary>  (36) 
energy

$$$$
