0:0
     RDKit          3D

 55 58  0  0  0  0  0  0  0  0999 V2000
   63.3920   33.5080   46.4410 C   0  0  0  0  0  0  0  0  0  0  0  0
   62.7810   33.8420   47.7980 C   0  0  0  0  0  0  0  0  0  0  0  0
   62.7560   32.6400   48.6630 N   0  0  0  0  0  0  0  0  0  0  0  0
   64.1250   32.1790   48.9550 C   0  0  0  0  0  0  0  0  0  0  0  0
   61.9670   31.5480   48.0510 C   0  0  0  0  0  0  0  0  0  0  0  0
   61.1090   30.8570   49.1190 C   0  0  0  0  0  0  0  0  0  0  0  0
   59.8710   31.6810   49.4940 C   0  0  0  0  0  0  0  0  0  0  0  0
   58.7400   31.3730   48.6150 N   0  0  0  0  0  0  0  0  0  0  0  0
   58.8450   31.5290   47.1860 C   0  0  0  0  0  0  0  0  0  0  0  0
   59.0690   32.8090   46.6590 C   0  0  0  0  0  0  0  0  0  0  0  0
   59.4830   33.8800   47.4790 C   0  0  0  0  0  0  0  0  0  0  0  0
   59.7350   35.1370   46.9310 C   0  0  0  0  0  0  0  0  0  0  0  0
   59.5920   35.3380   45.5630 C   0  0  0  0  0  0  0  0  0  0  0  0
   59.1790   34.2900   44.7380 C   0  0  0  0  0  0  0  0  0  0  0  0
   58.8860   33.0120   45.2770 C   0  0  0  0  0  0  0  0  0  0  0  0
   58.4310   31.9770   44.4970 N   0  0  0  0  0  0  0  0  0  0  0  0
   57.8900   32.2480   43.1490 C   0  0  0  0  0  0  0  0  0  0  0  0
   58.4670   30.6850   44.9860 C   0  0  0  0  0  0  0  0  0  0  0  0
   58.3040   29.6230   44.1340 N   0  0  0  0  0  0  0  0  0  0  0  0
   58.2870   28.3410   44.5780 C   0  0  0  0  0  0  0  0  0  0  0  0
   58.0780   27.2780   43.6810 C   0  0  0  0  0  0  0  0  0  0  0  0
   58.0760   25.9580   44.1420 C   0  0  0  0  0  0  0  0  0  0  0  0
   58.2910   25.6900   45.4940 C   0  0  0  0  0  0  0  0  0  0  0  0
   58.5080   26.7390   46.3910 C   0  0  0  0  0  0  0  0  0  0  0  0
   58.5030   28.0750   45.9370 C   0  0  0  0  0  0  0  0  0  0  0  0
   58.7390   29.1540   46.8000 C   0  0  0  0  0  0  0  0  0  0  0  0
   59.0480   28.9030   47.9980 O   0  0  0  0  0  0  0  0  0  0  0  0
   58.6810   30.4550   46.3350 N   0  0  0  0  0  0  0  0  0  0  0  0
   64.3485   32.9851   46.5883 H   0  0  0  0  0  0  0  0  0  0  0  0
   62.7033   32.8609   45.8780 H   0  0  0  0  0  0  0  0  0  0  0  0
   63.5649   34.4371   45.8780 H   0  0  0  0  0  0  0  0  0  0  0  0
   63.3820   34.6252   48.2832 H   0  0  0  0  0  0  0  0  0  0  0  0
   61.7501   34.1951   47.6479 H   0  0  0  0  0  0  0  0  0  0  0  0
   64.2709   32.1299   50.0442 H   0  0  0  0  0  0  0  0  0  0  0  0
   64.2763   31.1803   48.5194 H   0  0  0  0  0  0  0  0  0  0  0  0
   64.8496   32.8827   48.5194 H   0  0  0  0  0  0  0  0  0  0  0  0
   61.3122   31.9646   47.2714 H   0  0  0  0  0  0  0  0  0  0  0  0
   62.6535   30.8116   47.6079 H   0  0  0  0  0  0  0  0  0  0  0  0
   60.7805   29.8812   48.7319 H   0  0  0  0  0  0  0  0  0  0  0  0
   61.7245   30.7438   50.0236 H   0  0  0  0  0  0  0  0  0  0  0  0
   59.5900   31.4529   50.5327 H   0  0  0  0  0  0  0  0  0  0  0  0
   60.1169   32.7473   49.3825 H   0  0  0  0  0  0  0  0  0  0  0  0
   57.9200   30.8570   49.0070 H   0  0  0  0  0  0  0  0  0  0  0  0
   59.6081   33.7218   48.5604 H   0  0  0  0  0  0  0  0  0  0  0  0
   60.0465   35.9685   47.5803 H   0  0  0  0  0  0  0  0  0  0  0  0
   59.8049   36.3261   45.1289 H   0  0  0  0  0  0  0  0  0  0  0  0
   59.0797   34.4582   43.6555 H   0  0  0  0  0  0  0  0  0  0  0  0
   56.9098   32.7390   43.2392 H   0  0  0  0  0  0  0  0  0  0  0  0
   58.5810   32.9064   42.6021 H   0  0  0  0  0  0  0  0  0  0  0  0
   57.7765   31.3003   42.6021 H   0  0  0  0  0  0  0  0  0  0  0  0
   58.2310   29.7670   43.1030 H   0  0  0  0  0  0  0  0  0  0  0  0
   57.9156   27.4859   42.6131 H   0  0  0  0  0  0  0  0  0  0  0  0
   57.9048   25.1303   43.4381 H   0  0  0  0  0  0  0  0  0  0  0  0
   58.2897   24.6508   45.8546 H   0  0  0  0  0  0  0  0  0  0  0  0
   58.6834   26.5226   47.4551 H   0  0  0  0  0  0  0  0  0  0  0  0
  1  2  1  0
  2  3  1  0
  3  4  1  0
  3  5  1  0
  5  6  1  0
  6  7  1  0
  7  8  1  0
  8  9  1  0
  9 10  2  0
 10 11  1  0
 11 12  2  0
 12 13  1  0
 13 14  2  0
 14 15  1  0
 15 16  2  0
 16 17  1  0
 16 18  1  0
 18 19  2  0
 19 20  1  0
 20 21  2  0
 21 22  1  0
 22 23  2  0
 23 24  1  0
 24 25  2  0
 25 26  1  0
 26 27  2  0
 26 28  1  0
 28  9  1  0
 15 10  1  0
 28 18  1  0
 25 20  1  0
  1 29  1  0
  1 30  1  0
  1 31  1  0
  2 32  1  0
  2 33  1  0
  4 34  1  0
  4 35  1  0
  4 36  1  0
  5 37  1  0
  5 38  1  0
  6 39  1  0
  6 40  1  0
  7 41  1  0
  7 42  1  0
  8 43  1  0
 11 44  1  0
 12 45  1  0
 13 46  1  0
 14 47  1  0
 17 48  1  0
 17 49  1  0
 17 50  1  0
 19 51  1  0
 21 52  1  0
 22 53  1  0
 23 54  1  0
 24 55  1  0
M  CHG  2  16   1  19   1
M  END
>  <UniqueID>  (1) 
1

>  <SMILES>  (1) 
CCN(C)CCCNc1c2ccccc2[n+](C)c2[nH+]c3ccccc3c(=O)n12

>  <Energy>  (1) 
92.02170125571973

>  <Genealogy>  (1) 
CCN(C)CCCNc1c2ccccc2[n+](C)c2[nH+]c3ccccc3c(=O)n12 (protonated)
CCN(C)CCCNc1c2ccccc2[n+](C)c2[nH+]c3ccccc3c(=O)n12 (3D coordinates assigned)
CCN(C)CCCNc1c2ccccc2[n+](C)c2[nH+]c3ccccc3c(=O)n12 (optimized conformer: 92.02170125571973 kcal/mol)

>  <smiles>  (1) 
CCN(C)CCCNc1c2ccccc2[n+](C)c2nc3ccccc3c(=O)n12

>  <score_type>  (1) 
oracle

>  <origin>  (1) 
adg

>  <m_score__min__energy>  (1) 
-5.3600000000000003

>  <m_primary>  (1) 
energy

$$$$
1:0
     RDKit          3D

 27 29  0  0  0  0  0  0  0  0999 V2000
   59.6790   33.8660   50.3150 C   0  0  0  0  0  0  0  0  0  0  0  0
   59.2730   33.5460   48.9080 C   0  0  0  0  0  0  0  0  0  0  0  0
   59.3460   34.5270   47.9090 C   0  0  0  0  0  0  0  0  0  0  0  0
   59.0030   34.2190   46.5890 C   0  0  0  0  0  0  0  0  0  0  0  0
   58.5970   32.9190   46.2430 C   0  0  0  0  0  0  0  0  0  0  0  0
   58.2380   32.5940   44.8860 N   0  0  0  0  0  0  0  0  0  0  0  0
   58.5660   33.2790   43.7580 C   0  0  0  0  0  0  0  0  0  0  0  0
   58.0640   32.7260   42.6200 N   0  0  0  0  0  0  0  0  0  0  0  0
   57.3940   31.6520   43.0790 C   0  0  0  0  0  0  0  0  0  0  0  0
   56.6490   30.7270   42.3570 C   0  0  0  0  0  0  0  0  0  0  0  0
   56.0040   29.7110   43.0850 C   0  0  0  0  0  0  0  0  0  0  0  0
   56.1230   29.6720   44.4970 C   0  0  0  0  0  0  0  0  0  0  0  0
   55.5400   28.7700   45.1520 O   0  0  0  0  0  0  0  0  0  0  0  0
   56.8680   30.6120   45.1530 N   0  0  0  0  0  0  0  0  0  0  0  0
   57.4980   31.5720   44.4300 C   0  0  0  0  0  0  0  0  0  0  0  0
   58.5340   31.9360   47.2450 C   0  0  0  0  0  0  0  0  0  0  0  0
   58.8790   32.2440   48.5640 C   0  0  0  0  0  0  0  0  0  0  0  0
   59.0138   33.3417   51.0168 H   0  0  0  0  0  0  0  0  0  0  0  0
   60.7165   33.5402   50.4803 H   0  0  0  0  0  0  0  0  0  0  0  0
   59.6046   34.9510   50.4803 H   0  0  0  0  0  0  0  0  0  0  0  0
   59.6750   35.5449   48.1652 H   0  0  0  0  0  0  0  0  0  0  0  0
   59.0513   34.9999   45.8158 H   0  0  0  0  0  0  0  0  0  0  0  0
   59.1785   34.1927   43.7646 H   0  0  0  0  0  0  0  0  0  0  0  0
   56.5672   30.7871   41.2617 H   0  0  0  0  0  0  0  0  0  0  0  0
   55.4090   28.9490   42.5603 H   0  0  0  0  0  0  0  0  0  0  0  0
   58.2107   30.9161   46.9894 H   0  0  0  0  0  0  0  0  0  0  0  0
   58.8414   31.4616   49.3363 H   0  0  0  0  0  0  0  0  0  0  0  0
  1  2  1  0
  2  3  2  0
  3  4  1  0
  4  5  2  0
  5  6  1  0
  6  7  1  0
  7  8  2  0
  8  9  1  0
  9 10  1  0
 10 11  2  0
 11 12  1  0
 12 13  2  0
 12 14  1  0
 14 15  1  0
  5 16  1  0
 16 17  2  0
 17  2  1  0
 15  6  1  0
 15  9  2  0
  1 18  1  0
  1 19  1  0
  1 20  1  0
  3 21  1  0
  4 22  1  0
  7 23  1  0
 10 24  1  0
 11 25  1  0
 16 26  1  0
 17 27  1  0
M  CHG  1  14  -1
M  END
>  <UniqueID>  (2) 
2

>  <SMILES>  (2) 
Cc1ccc(-n2cnc3ccc(=O)[n-]c32)cc1

>  <Energy>  (2) 
73.19516772384398

>  <Genealogy>  (2) 
Cc1ccc(-n2cnc3ccc(=O)[n-]c32)cc1 (protonated)
Cc1ccc(-n2cnc3ccc(=O)[n-]c32)cc1 (3D coordinates assigned)
Cc1ccc(-n2cnc3ccc(=O)[n-]c32)cc1 (optimized conformer: 73.19516772384398 kcal/mol)

>  <smiles>  (2) 
Cc1ccc(-n2cnc3ccc(=O)[nH]c32)cc1

>  <score_type>  (2) 
oracle

>  <origin>  (2) 
adg

>  <m_score__min__energy>  (2) 
-8.3499999999999996

>  <m_primary>  (2) 
energy

$$$$
2:0
     RDKit          3D

 45 48  0  0  0  0  0  0  0  0999 V2000
   55.7050   29.7300   44.0850 C   0  0  0  0  0  0  0  0  0  0  0  0
   56.7140   30.8750   43.9010 C   0  0  0  0  0  0  0  0  0  0  0  0
   57.2170   31.4630   45.1660 N   0  0  0  0  0  0  0  0  0  0  0  0
   56.9990   32.9180   45.2430 C   0  0  0  0  0  0  0  0  0  0  0  0
   58.6180   31.1060   45.4740 C   0  0  0  0  0  0  0  0  0  0  0  0
   58.6670   29.9150   46.4020 C   0  0  0  0  0  0  0  0  0  0  0  0
   57.9690   28.8110   46.0190 N   0  0  0  0  0  0  0  0  0  0  0  0
   57.9460   27.6770   46.7650 C   0  0  0  0  0  0  0  0  0  0  0  0
   57.1750   26.5140   46.3100 C   0  0  0  0  0  0  0  0  0  0  0  0
   55.8640   26.3400   46.5650 N   0  0  0  0  0  0  0  0  0  0  0  0
   55.5640   25.2100   46.0010 O   0  0  0  0  0  0  0  0  0  0  0  0
   56.6270   24.7060   45.4230 C   0  0  0  0  0  0  0  0  0  0  0  0
   56.6470   23.4270   44.6870 C   0  0  0  0  0  0  0  0  0  0  0  0
   56.2670   23.3870   43.3330 C   0  0  0  0  0  0  0  0  0  0  0  0
   56.2850   22.1770   42.6320 C   0  0  0  0  0  0  0  0  0  0  0  0
   56.6790   21.0000   43.2740 C   0  0  0  0  0  0  0  0  0  0  0  0
   57.0560   21.0300   44.6180 C   0  0  0  0  0  0  0  0  0  0  0  0
   57.0410   22.2380   45.3250 C   0  0  0  0  0  0  0  0  0  0  0  0
   57.7020   25.5030   45.5880 N   0  0  0  0  0  0  0  0  0  0  0  0
   58.6360   27.6200   47.9300 N   0  0  0  0  0  0  0  0  0  0  0  0
   59.3610   28.6780   48.3700 C   0  0  0  0  0  0  0  0  0  0  0  0
   60.0660   28.5760   49.5740 C   0  0  0  0  0  0  0  0  0  0  0  0
   60.8250   29.6510   50.0360 C   0  0  0  0  0  0  0  0  0  0  0  0
   60.8850   30.8340   49.2980 C   0  0  0  0  0  0  0  0  0  0  0  0
   60.1840   30.9510   48.0940 C   0  0  0  0  0  0  0  0  0  0  0  0
   59.4060   29.8750   47.6120 C   0  0  0  0  0  0  0  0  0  0  0  0
   55.5464   29.5500   45.1585 H   0  0  0  0  0  0  0  0  0  0  0  0
   54.7494   30.0041   43.6141 H   0  0  0  0  0  0  0  0  0  0  0  0
   56.0971   28.8165   43.6141 H   0  0  0  0  0  0  0  0  0  0  0  0
   57.5748   30.4866   43.3369 H   0  0  0  0  0  0  0  0  0  0  0  0
   56.1804   31.6794   43.3735 H   0  0  0  0  0  0  0  0  0  0  0  0
   56.9528   33.2265   46.2978 H   0  0  0  0  0  0  0  0  0  0  0  0
   57.8290   33.4400   44.7443 H   0  0  0  0  0  0  0  0  0  0  0  0
   56.0525   33.1738   44.7443 H   0  0  0  0  0  0  0  0  0  0  0  0
   59.1428   30.8589   44.5394 H   0  0  0  0  0  0  0  0  0  0  0  0
   59.1039   31.9615   45.9660 H   0  0  0  0  0  0  0  0  0  0  0  0
   55.9546   24.3107   42.8239 H   0  0  0  0  0  0  0  0  0  0  0  0
   55.9884   22.1517   41.5730 H   0  0  0  0  0  0  0  0  0  0  0  0
   56.6921   20.0496   42.7203 H   0  0  0  0  0  0  0  0  0  0  0  0
   57.3654   20.1026   45.1222 H   0  0  0  0  0  0  0  0  0  0  0  0
   57.3386   22.2570   46.3838 H   0  0  0  0  0  0  0  0  0  0  0  0
   60.0216   27.6450   50.1582 H   0  0  0  0  0  0  0  0  0  0  0  0
   61.3772   29.5663   50.9836 H   0  0  0  0  0  0  0  0  0  0  0  0
   61.4867   31.6784   49.6654 H   0  0  0  0  0  0  0  0  0  0  0  0
   60.2387   31.8868   47.5185 H   0  0  0  0  0  0  0  0  0  0  0  0
  1  2  1  0
  2  3  1  0
  3  4  1  0
  3  5  1  0
  5  6  1  0
  6  7  2  0
  7  8  1  0
  8  9  1  0
  9 10  2  0
 10 11  1  0
 11 12  1  0
 12 13  1  0
 13 14  2  0
 14 15  1  0
 15 16  2  0
 16 17  1  0
 17 18  2  0
 12 19  2  0
  8 20  2  0
 20 21  1  0
 21 22  2  0
 22 23  1  0
 23 24  2  0
 24 25  1  0
 25 26  2  0
 26  6  1  0
 19  9  1  0
 26 21  1  0
 18 13  1  0
  1 27  1  0
  1 28  1  0
  1 29  1  0
  2 30  1  0
  2 31  1  0
  4 32  1  0
  4 33  1  0
  4 34  1  0
  5 35  1  0
  5 36  1  0
 14 37  1  0
 15 38  1  0
 16 39  1  0
 17 40  1  0
 18 41  1  0
 22 42  1  0
 23 43  1  0
 24 44  1  0
 25 45  1  0
M  END
>  <UniqueID>  (3) 
3

>  <SMILES>  (3) 
CCN(C)Cc1nc(-c2noc(-c3ccccc3)n2)nc2ccccc12

>  <Energy>  (3) 
90.01129985767636

>  <Genealogy>  (3) 
CCN(C)Cc1nc(-c2noc(-c3ccccc3)n2)nc2ccccc12 (3D coordinates assigned)
CCN(C)Cc1nc(-c2noc(-c3ccccc3)n2)nc2ccccc12 (optimized conformer: 90.01129985767636 kcal/mol)

>  <smiles>  (3) 
CCN(C)Cc1nc(-c2noc(-c3ccccc3)n2)nc2ccccc12

>  <score_type>  (3) 
oracle

>  <origin>  (3) 
adg

>  <m_score__min__energy>  (3) 
-8.0700000000000003

>  <m_primary>  (3) 
energy

$$$$
3:0
     RDKit          3D

 52 54  0  0  0  0  0  0  0  0999 V2000
   63.0710   33.8400   46.3830 C   0  0  0  0  0  0  0  0  0  0  0  0
   63.4330   32.5350   47.1060 C   0  0  0  0  0  0  0  0  0  0  0  0
   62.4840   32.1550   48.1830 N   0  0  0  0  0  0  0  0  0  0  0  0
   63.1260   31.9010   49.4930 C   0  0  0  0  0  0  0  0  0  0  0  0
   64.5230   32.5190   49.5700 C   0  0  0  0  0  0  0  0  0  0  0  0
   61.5970   31.0400   47.7800 C   0  0  0  0  0  0  0  0  0  0  0  0
   60.6080   30.7080   48.9020 C   0  0  0  0  0  0  0  0  0  0  0  0
   59.2300   30.9620   48.4820 N   0  0  0  0  0  0  0  0  0  0  0  0
   58.9350   31.2700   47.1140 C   0  0  0  0  0  0  0  0  0  0  0  0
   59.0480   32.5980   46.6440 C   0  0  0  0  0  0  0  0  0  0  0  0
   59.5530   33.6160   47.4810 C   0  0  0  0  0  0  0  0  0  0  0  0
   59.6610   34.9260   47.0220 C   0  0  0  0  0  0  0  0  0  0  0  0
   59.2760   35.2460   45.7240 C   0  0  0  0  0  0  0  0  0  0  0  0
   58.7860   34.2570   44.8710 C   0  0  0  0  0  0  0  0  0  0  0  0
   58.6610   32.9140   45.3050 C   0  0  0  0  0  0  0  0  0  0  0  0
   58.1820   31.9250   44.4680 N   0  0  0  0  0  0  0  0  0  0  0  0
   57.7540   32.2380   43.0910 C   0  0  0  0  0  0  0  0  0  0  0  0
   58.1310   30.6360   44.9330 C   0  0  0  0  0  0  0  0  0  0  0  0
   57.6370   29.2640   44.0890 S   0  0  0  0  0  0  0  0  0  0  0  0
   57.8950   28.1810   45.3470 C   0  0  0  0  0  0  0  0  0  0  0  0
   57.6570   26.7080   45.2370 C   0  0  0  0  0  0  0  0  0  0  0  0
   58.3890   28.8740   46.4620 C   0  0  0  0  0  0  0  0  0  0  0  0
   58.7800   28.1790   47.7400 C   0  0  0  0  0  0  0  0  0  0  0  0
   58.5050   30.2710   46.2240 C   0  0  0  0  0  0  0  0  0  0  0  0
   62.8540   34.6223   47.1252 H   0  0  0  0  0  0  0  0  0  0  0  0
   63.9153   34.1564   45.7529 H   0  0  0  0  0  0  0  0  0  0  0  0
   62.1844   33.6763   45.7529 H   0  0  0  0  0  0  0  0  0  0  0  0
   63.4558   31.7237   46.3636 H   0  0  0  0  0  0  0  0  0  0  0  0
   64.4089   32.6989   47.5865 H   0  0  0  0  0  0  0  0  0  0  0  0
   62.5002   32.3355   50.2865 H   0  0  0  0  0  0  0  0  0  0  0  0
   63.2259   30.8129   49.6197 H   0  0  0  0  0  0  0  0  0  0  0  0
   64.8101   32.6460   50.6242 H   0  0  0  0  0  0  0  0  0  0  0  0
   65.2451   31.8563   49.0706 H   0  0  0  0  0  0  0  0  0  0  0  0
   64.5184   33.4991   49.0706 H   0  0  0  0  0  0  0  0  0  0  0  0
   61.0375   31.3304   46.8785 H   0  0  0  0  0  0  0  0  0  0  0  0
   62.2130   30.1521   47.5747 H   0  0  0  0  0  0  0  0  0  0  0  0
   60.7119   29.6462   49.1699 H   0  0  0  0  0  0  0  0  0  0  0  0
   60.8332   31.3490   49.7671 H   0  0  0  0  0  0  0  0  0  0  0  0
   58.4310   30.8220   49.1410 H   0  0  0  0  0  0  0  0  0  0  0  0
   59.8647   33.3718   48.5073 H   0  0  0  0  0  0  0  0  0  0  0  0
   60.0517   35.7100   47.6874 H   0  0  0  0  0  0  0  0  0  0  0  0
   59.3584   36.2838   45.3687 H   0  0  0  0  0  0  0  0  0  0  0  0
   58.4920   34.5240   43.8452 H   0  0  0  0  0  0  0  0  0  0  0  0
   56.8664   32.8871   43.1215 H   0  0  0  0  0  0  0  0  0  0  0  0
   58.5684   32.7551   42.5625 H   0  0  0  0  0  0  0  0  0  0  0  0
   57.5081   31.3052   42.5625 H   0  0  0  0  0  0  0  0  0  0  0  0
   57.5865   26.2717   46.2443 H   0  0  0  0  0  0  0  0  0  0  0  0
   56.7181   26.5279   44.6929 H   0  0  0  0  0  0  0  0  0  0  0  0
   58.4914   26.2414   44.6929 H   0  0  0  0  0  0  0  0  0  0  0  0
   58.4438   28.7767   48.6001 H   0  0  0  0  0  0  0  0  0  0  0  0
   58.3081   27.1860   47.7766 H   0  0  0  0  0  0  0  0  0  0  0  0
   59.8736   28.0668   47.7766 H   0  0  0  0  0  0  0  0  0  0  0  0
  1  2  1  0
  2  3  1  0
  3  4  1  0
  4  5  1  0
  3  6  1  0
  6  7  1  0
  7  8  1  0
  8  9  1  0
  9 10  2  0
 10 11  1  0
 11 12  2  0
 12 13  1  0
 13 14  2  0
 14 15  1  0
 15 16  2  0
 16 17  1  0
 16 18  1  0
 18 19  1  0
 19 20  1  0
 20 21  1  0
 20 22  2  0
 22 23  1  0
 22 24  1  0
 24  9  1  0
 15 10  1  0
 24 18  2  0
  1 25  1  0
  1 26  1  0
  1 27  1  0
  2 28  1  0
  2 29  1  0
  4 30  1  0
  4 31  1  0
  5 32  1  0
  5 33  1  0
  5 34  1  0
  6 35  1  0
  6 36  1  0
  7 37  1  0
  7 38  1  0
  8 39  1  0
 11 40  1  0
 12 41  1  0
 13 42  1  0
 14 43  1  0
 17 44  1  0
 17 45  1  0
 17 46  1  0
 21 47  1  0
 21 48  1  0
 21 49  1  0
 23 50  1  0
 23 51  1  0
 23 52  1  0
M  CHG  1  16   1
M  END
>  <UniqueID>  (4) 
4

>  <SMILES>  (4) 
CCN(CC)CCNc1c2ccccc2[n+](C)c2sc(C)c(C)c12

>  <Energy>  (4) 
99.90355282191045

>  <Genealogy>  (4) 
CCN(CC)CCNc1c2ccccc2[n+](C)c2sc(C)c(C)c12 (3D coordinates assigned)
CCN(CC)CCNc1c2ccccc2[n+](C)c2sc(C)c(C)c12 (optimized conformer: 99.90355282191045 kcal/mol)

>  <smiles>  (4) 
CCN(CC)CCNc1c2ccccc2[n+](C)c2sc(C)c(C)c12

>  <score_type>  (4) 
oracle

>  <origin>  (4) 
adg

>  <m_score__min__energy>  (4) 
-5.8099999999999996

>  <m_primary>  (4) 
energy

$$$$
4:0
     RDKit          3D

 48 50  0  0  0  0  0  0  0  0999 V2000
   65.0070   30.6390   51.5960 C   0  0  0  0  0  0  0  0  0  0  0  0
   66.1960   31.0740   50.8460 N   0  0  0  0  0  0  0  0  0  0  0  0
   67.3540   30.2580   51.2530 C   0  0  0  0  0  0  0  0  0  0  0  0
   66.4520   32.5120   51.0810 C   0  0  0  0  0  0  0  0  0  0  0  0
   65.5940   33.3750   50.1460 C   0  0  0  0  0  0  0  0  0  0  0  0
   64.8390   32.5390   49.2100 N   0  0  0  0  0  0  0  0  0  0  0  0
   63.5630   32.9430   48.6730 C   0  0  0  0  0  0  0  0  0  0  0  0
   63.4140   33.1030   47.2850 C   0  0  0  0  0  0  0  0  0  0  0  0
   62.1810   33.4360   46.7310 C   0  0  0  0  0  0  0  0  0  0  0  0
   61.0620   33.6190   47.5430 C   0  0  0  0  0  0  0  0  0  0  0  0
   59.8130   33.9610   46.9290 N   0  0  0  0  0  0  0  0  0  0  0  0
   59.6910   35.2020   46.1620 C   0  0  0  0  0  0  0  0  0  0  0  0
   58.8600   34.9860   44.8770 C   0  0  0  0  0  0  0  0  0  0  0  0
   57.8920   33.8740   44.9580 N   0  0  0  0  0  0  0  0  0  0  0  0
   57.4540   33.5970   46.3310 C   0  0  0  0  0  0  0  0  0  0  0  0
   58.6390   33.1220   47.1770 C   0  0  0  0  0  0  0  0  0  0  0  0
   61.1780   33.4790   48.9440 C   0  0  0  0  0  0  0  0  0  0  0  0
   60.0920   33.6650   49.7570 N   0  0  0  0  0  0  0  0  0  0  0  0
   60.1830   33.5650   51.1100 C   0  0  0  0  0  0  0  0  0  0  0  0
   58.7620   33.8170   52.1080 Cl  0  0  0  0  0  0  0  0  0  0  0  0
   61.4050   33.2730   51.7100 C   0  0  0  0  0  0  0  0  0  0  0  0
   62.5320   33.0720   50.9170 C   0  0  0  0  0  0  0  0  0  0  0  0
   62.4390   33.1510   49.5140 C   0  0  0  0  0  0  0  0  0  0  0  0
   65.2071   30.7122   52.6752 H   0  0  0  0  0  0  0  0  0  0  0  0
   64.1540   31.2833   51.3367 H   0  0  0  0  0  0  0  0  0  0  0  0
   64.7711   29.5963   51.3367 H   0  0  0  0  0  0  0  0  0  0  0  0
   67.4080   30.2200   52.3510 H   0  0  0  0  0  0  0  0  0  0  0  0
   67.2418   29.2383   50.8559 H   0  0  0  0  0  0  0  0  0  0  0  0
   68.2765   30.7067   50.8559 H   0  0  0  0  0  0  0  0  0  0  0  0
   66.2065   32.7567   52.1250 H   0  0  0  0  0  0  0  0  0  0  0  0
   67.5133   32.7200   50.8800 H   0  0  0  0  0  0  0  0  0  0  0  0
   64.8898   33.9678   50.7482 H   0  0  0  0  0  0  0  0  0  0  0  0
   66.2580   34.0363   49.5700 H   0  0  0  0  0  0  0  0  0  0  0  0
   65.2360   31.6130   48.9340 H   0  0  0  0  0  0  0  0  0  0  0  0
   64.2841   32.9631   46.6267 H   0  0  0  0  0  0  0  0  0  0  0  0
   62.0884   33.5560   45.6415 H   0  0  0  0  0  0  0  0  0  0  0  0
   59.1968   35.9618   46.7853 H   0  0  0  0  0  0  0  0  0  0  0  0
   60.6994   35.5331   45.8729 H   0  0  0  0  0  0  0  0  0  0  0  0
   58.3042   35.9117   44.6667 H   0  0  0  0  0  0  0  0  0  0  0  0
   59.5732   34.7248   44.0813 H   0  0  0  0  0  0  0  0  0  0  0  0
   58.3360   33.0090   44.5690 H   0  0  0  0  0  0  0  0  0  0  0  0
   57.0372   34.5146   46.7718 H   0  0  0  0  0  0  0  0  0  0  0  0
   56.6872   32.8086   46.3116 H   0  0  0  0  0  0  0  0  0  0  0  0
   58.3703   33.1805   48.2421 H   0  0  0  0  0  0  0  0  0  0  0  0
   58.8787   32.0838   46.9037 H   0  0  0  0  0  0  0  0  0  0  0  0
   59.1580   33.8940   49.3530 H   0  0  0  0  0  0  0  0  0  0  0  0
   61.4799   33.2014   52.8051 H   0  0  0  0  0  0  0  0  0  0  0  0
   63.5004   32.8502   51.3892 H   0  0  0  0  0  0  0  0  0  0  0  0
  1  2  1  0
  2  3  1  0
  2  4  1  0
  4  5  1  0
  5  6  1  0
  6  7  1  0
  7  8  2  0
  8  9  1  0
  9 10  2  0
 10 11  1  0
 11 12  1  0
 12 13  1  0
 13 14  1  0
 14 15  1  0
 15 16  1  0
 10 17  1  0
 17 18  2  0
 18 19  1  0
 19 20  1  0
 19 21  2  0
 21 22  1  0
 22 23  2  0
 23  7  1  0
 16 11  1  0
 23 17  1  0
  1 24  1  0
  1 25  1  0
  1 26  1  0
  3 27  1  0
  3 28  1  0
  3 29  1  0
  4 30  1  0
  4 31  1  0
  5 32  1  0
  5 33  1  0
  6 34  1  0
  8 35  1  0
  9 36  1  0
 12 37  1  0
 12 38  1  0
 13 39  1  0
 13 40  1  0
 14 41  1  0
 15 42  1  0
 15 43  1  0
 16 44  1  0
 16 45  1  0
 18 46  1  0
 21 47  1  0
 22 48  1  0
M  CHG  1  18   1
M  END
>  <UniqueID>  (5) 
5

>  <SMILES>  (5) 
CN(C)CCNc1ccc(N2CCNCC2)c2[nH+]c(Cl)ccc12

>  <Energy>  (5) 
64.96615151374006

>  <Genealogy>  (5) 
CN(C)CCNc1ccc(N2CCNCC2)c2[nH+]c(Cl)ccc12 (protonated)
CN(C)CCNc1ccc(N2CCNCC2)c2[nH+]c(Cl)ccc12 (3D coordinates assigned)
CN(C)CCNc1ccc(N2CCNCC2)c2[nH+]c(Cl)ccc12 (nonaromatic ring conformer: 64.96615151374006 kcal/mol)

>  <smiles>  (5) 
CN(C)CCNc1ccc(N2CCNCC2)c2nc(Cl)ccc12

>  <score_type>  (5) 
oracle

>  <origin>  (5) 
adg

>  <m_score__min__energy>  (5) 
-5.3300000000000001

>  <m_primary>  (5) 
energy

$$$$
5:0
     RDKit          3D

 51 53  0  0  0  0  0  0  0  0999 V2000
   61.1290   28.6430   44.8700 C   0  0  0  0  0  0  0  0  0  0  0  0
   59.6050   28.6470   44.9890 C   0  0  0  0  0  0  0  0  0  0  0  0
   59.1620   27.9030   46.1910 N   0  0  0  0  0  0  0  0  0  0  0  0
   59.8100   28.4460   47.4060 C   0  0  0  0  0  0  0  0  0  0  0  0
   58.8320   29.3030   48.2090 C   0  0  0  0  0  0  0  0  0  0  0  0
   57.6820   27.8840   46.3160 C   0  0  0  0  0  0  0  0  0  0  0  0
   57.0510   28.1750   44.9530 C   0  0  0  0  0  0  0  0  0  0  0  0
   55.7790   28.7710   45.1200 O   0  0  0  0  0  0  0  0  0  0  0  0
   55.5440   29.7290   44.1080 C   0  0  0  0  0  0  0  0  0  0  0  0
   56.8000   30.5750   43.9190 C   0  0  0  0  0  0  0  0  0  0  0  0
   56.6360   31.8640   44.5110 O   0  0  0  0  0  0  0  0  0  0  0  0
   57.5460   32.4840   45.3830 C   0  0  0  0  0  0  0  0  0  0  0  0
   57.3070   33.7460   45.9630 C   0  0  0  0  0  0  0  0  0  0  0  0
   58.2450   34.3170   46.8250 C   0  0  0  0  0  0  0  0  0  0  0  0
   59.4350   33.6410   47.1260 C   0  0  0  0  0  0  0  0  0  0  0  0
   60.3800   34.2110   47.9940 C   0  0  0  0  0  0  0  0  0  0  0  0
   61.5640   33.5290   48.2910 C   0  0  0  0  0  0  0  0  0  0  0  0
   62.4550   34.0760   49.1150 O   0  0  0  0  0  0  0  0  0  0  0  0
   63.5990   33.4760   49.4340 C   0  0  0  0  0  0  0  0  0  0  0  0
   64.4030   34.0440   50.2190 O   0  0  0  0  0  0  0  0  0  0  0  0
   63.9110   32.2210   48.9030 C   0  0  0  0  0  0  0  0  0  0  0  0
   63.0070   31.6090   48.0350 C   0  0  0  0  0  0  0  0  0  0  0  0
   61.8110   32.2630   47.7170 C   0  0  0  0  0  0  0  0  0  0  0  0
   60.8720   31.6890   46.8490 C   0  0  0  0  0  0  0  0  0  0  0  0
   59.6820   32.3710   46.5510 C   0  0  0  0  0  0  0  0  0  0  0  0
   58.7340   31.8060   45.6850 C   0  0  0  0  0  0  0  0  0  0  0  0
   61.5753   28.6418   45.8754 H   0  0  0  0  0  0  0  0  0  0  0  0
   61.4518   27.7440   44.3245 H   0  0  0  0  0  0  0  0  0  0  0  0
   61.4565   29.5403   44.3245 H   0  0  0  0  0  0  0  0  0  0  0  0
   59.2529   29.6867   45.0600 H   0  0  0  0  0  0  0  0  0  0  0  0
   59.1838   28.1561   44.0993 H   0  0  0  0  0  0  0  0  0  0  0  0
   60.1563   27.6113   48.0331 H   0  0  0  0  0  0  0  0  0  0  0  0
   60.6592   29.0748   47.1002 H   0  0  0  0  0  0  0  0  0  0  0  0
   59.0072   29.1495   49.2841 H   0  0  0  0  0  0  0  0  0  0  0  0
   58.9844   30.3637   47.9605 H   0  0  0  0  0  0  0  0  0  0  0  0
   57.8005   29.0127   47.9605 H   0  0  0  0  0  0  0  0  0  0  0  0
   57.3564   26.8936   46.6668 H   0  0  0  0  0  0  0  0  0  0  0  0
   57.3652   28.6512   47.0379 H   0  0  0  0  0  0  0  0  0  0  0  0
   57.7020   28.8601   44.3902 H   0  0  0  0  0  0  0  0  0  0  0  0
   56.9347   27.2298   44.4025 H   0  0  0  0  0  0  0  0  0  0  0  0
   55.2998   29.2168   43.1657 H   0  0  0  0  0  0  0  0  0  0  0  0
   54.7024   30.3752   44.3980 H   0  0  0  0  0  0  0  0  0  0  0  0
   57.6524   30.0662   44.3928 H   0  0  0  0  0  0  0  0  0  0  0  0
   56.9812   30.7020   42.8415 H   0  0  0  0  0  0  0  0  0  0  0  0
   56.3754   34.2846   45.7350 H   0  0  0  0  0  0  0  0  0  0  0  0
   58.0488   35.3034   47.2706 H   0  0  0  0  0  0  0  0  0  0  0  0
   60.1883   35.1973   48.4418 H   0  0  0  0  0  0  0  0  0  0  0  0
   64.8560   31.7233   49.1660 H   0  0  0  0  0  0  0  0  0  0  0  0
   63.2317   30.6220   47.6045 H   0  0  0  0  0  0  0  0  0  0  0  0
   61.0678   30.7036   46.4011 H   0  0  0  0  0  0  0  0  0  0  0  0
   58.9257   30.8194   45.2380 H   0  0  0  0  0  0  0  0  0  0  0  0
  1  2  1  0
  2  3  1  0
  3  4  1  0
  4  5  1  0
  3  6  1  0
  6  7  1  0
  7  8  1  0
  8  9  1  0
  9 10  1  0
 10 11  1  0
 11 12  1  0
 12 13  2  0
 13 14  1  0
 14 15  2  0
 15 16  1  0
 16 17  2  0
 17 18  1  0
 18 19  1  0
 19 20  2  0
 19 21  1  0
 21 22  2  0
 22 23  1  0
 23 24  2  0
 24 25  1  0
 25 26  2  0
 26 12  1  0
 25 15  1  0
 23 17  1  0
  1 27  1  0
  1 28  1  0
  1 29  1  0
  2 30  1  0
  2 31  1  0
  4 32  1  0
  4 33  1  0
  5 34  1  0
  5 35  1  0
  5 36  1  0
  6 37  1  0
  6 38  1  0
  7 39  1  0
  7 40  1  0
  9 41  1  0
  9 42  1  0
 10 43  1  0
 10 44  1  0
 13 45  1  0
 14 46  1  0
 16 47  1  0
 21 48  1  0
 22 49  1  0
 24 50  1  0
 26 51  1  0
M  END
>  <UniqueID>  (6) 
6

>  <SMILES>  (6) 
CCN(CC)CCOCCOc1ccc2cc3oc(=O)ccc3cc2c1

>  <Energy>  (6) 
58.43956365965173

>  <Genealogy>  (6) 
CCN(CC)CCOCCOc1ccc2cc3oc(=O)ccc3cc2c1 (3D coordinates assigned)
CCN(CC)CCOCCOc1ccc2cc3oc(=O)ccc3cc2c1 (optimized conformer: 58.43956365965173 kcal/mol)

>  <smiles>  (6) 
CCN(CC)CCOCCOc1ccc2cc3oc(=O)ccc3cc2c1

>  <score_type>  (6) 
oracle

>  <origin>  (6) 
adg

>  <m_score__min__energy>  (6) 
-7.8399999999999999

>  <m_primary>  (6) 
energy

$$$$
6:0
     RDKit          3D

 80 83  0  0  0  0  0  0  0  0999 V2000
   57.3610   31.2680   51.5860 C   0  0  0  0  0  0  0  0  0  0  0  0
   58.3600   30.4710   50.7470 C   0  0  0  0  0  0  0  0  0  0  0  0
   59.3530   31.3400   50.0660 N   0  0  0  0  0  0  0  0  0  0  0  0
   58.8190   32.7220   49.9930 C   0  0  0  0  0  0  0  0  0  0  0  0
   59.6550   33.6850   50.8350 C   0  0  0  0  0  0  0  0  0  0  0  0
   60.6770   31.3210   50.7480 C   0  0  0  0  0  0  0  0  0  0  0  0
   61.4890   30.0740   50.3710 C   0  0  0  0  0  0  0  0  0  0  0  0
   61.3340   29.7550   49.0000 O   0  0  0  0  0  0  0  0  0  0  0  0
   60.4900   28.6360   48.7870 C   0  0  0  0  0  0  0  0  0  0  0  0
   60.1770   28.5230   47.2820 C   0  0  0  0  0  0  0  0  0  0  0  0
   60.7640   29.5830   46.4230 N   0  0  0  0  0  0  0  0  0  0  0  0
   59.8400   30.6430   46.0270 C   0  0  0  0  0  0  0  0  0  0  0  0
   58.7180   30.3670   45.1920 C   0  0  0  0  0  0  0  0  0  0  0  0
   58.4570   29.0690   44.6760 C   0  0  0  0  0  0  0  0  0  0  0  0
   57.3010   28.8010   43.9470 C   0  0  0  0  0  0  0  0  0  0  0  0
   56.3800   29.8100   43.7050 C   0  0  0  0  0  0  0  0  0  0  0  0
   56.6380   31.1060   44.1400 C   0  0  0  0  0  0  0  0  0  0  0  0
   57.8300   31.4230   44.8410 C   0  0  0  0  0  0  0  0  0  0  0  0
   58.1310   32.7260   45.1740 N   0  0  0  0  0  0  0  0  0  0  0  0
   57.4220   33.8400   44.5030 C   0  0  0  0  0  0  0  0  0  0  0  0
   59.1280   32.9960   46.0890 C   0  0  0  0  0  0  0  0  0  0  0  0
   59.2780   34.2890   46.6480 C   0  0  0  0  0  0  0  0  0  0  0  0
   60.3350   34.5940   47.4990 C   0  0  0  0  0  0  0  0  0  0  0  0
   61.2740   33.6150   47.8360 C   0  0  0  0  0  0  0  0  0  0  0  0
   62.3850   33.8790   48.6540 O   0  0  0  0  0  0  0  0  0  0  0  0
   63.7330   33.4940   48.3790 C   0  0  0  0  0  0  0  0  0  0  0  0
   64.1040   32.2320   49.1860 C   0  0  0  0  0  0  0  0  0  0  0  0
   64.7120   32.4880   50.5330 N   0  0  0  0  0  0  0  0  0  0  0  0
   63.6430   33.0320   51.4080 C   0  0  0  0  0  0  0  0  0  0  0  0
   65.8400   33.4550   50.4560 C   0  0  0  0  0  0  0  0  0  0  0  0
   67.1500   32.6900   50.6320 C   0  0  0  0  0  0  0  0  0  0  0  0
   66.7710   31.2470   50.8970 C   0  0  0  0  0  0  0  0  0  0  0  0
   65.2700   31.2560   51.1430 C   0  0  0  0  0  0  0  0  0  0  0  0
   61.1100   32.3200   47.3450 C   0  0  0  0  0  0  0  0  0  0  0  0
   60.0280   31.9740   46.4960 C   0  0  0  0  0  0  0  0  0  0  0  0
   57.5663   31.1042   52.6542 H   0  0  0  0  0  0  0  0  0  0  0  0
   57.4591   32.3387   51.3538 H   0  0  0  0  0  0  0  0  0  0  0  0
   56.3388   30.9345   51.3538 H   0  0  0  0  0  0  0  0  0  0  0  0
   58.8962   29.7726   51.4064 H   0  0  0  0  0  0  0  0  0  0  0  0
   57.7929   29.9389   49.9690 H   0  0  0  0  0  0  0  0  0  0  0  0
   58.8333   33.0569   48.9453 H   0  0  0  0  0  0  0  0  0  0  0  0
   57.7917   32.7187   50.3863 H   0  0  0  0  0  0  0  0  0  0  0  0
   59.4810   33.4845   51.9025 H   0  0  0  0  0  0  0  0  0  0  0  0
   60.7211   33.5430   50.6043 H   0  0  0  0  0  0  0  0  0  0  0  0
   59.3647   34.7206   50.6043 H   0  0  0  0  0  0  0  0  0  0  0  0
   61.2427   32.2176   50.4544 H   0  0  0  0  0  0  0  0  0  0  0  0
   60.5043   31.3037   51.8342 H   0  0  0  0  0  0  0  0  0  0  0  0
   62.5529   30.2632   50.5770 H   0  0  0  0  0  0  0  0  0  0  0  0
   61.1220   29.2266   50.9686 H   0  0  0  0  0  0  0  0  0  0  0  0
   60.9971   27.7213   49.1279 H   0  0  0  0  0  0  0  0  0  0  0  0
   59.5551   28.7626   49.3526 H   0  0  0  0  0  0  0  0  0  0  0  0
   60.5567   27.5527   46.9293 H   0  0  0  0  0  0  0  0  0  0  0  0
   59.0862   28.6329   47.1925 H   0  0  0  0  0  0  0  0  0  0  0  0
   61.6210   29.9580   46.8740 H   0  0  0  0  0  0  0  0  0  0  0  0
   61.1720   29.1400   45.5710 H   0  0  0  0  0  0  0  0  0  0  0  0
   59.1814   28.2609   44.8557 H   0  0  0  0  0  0  0  0  0  0  0  0
   57.1177   27.7869   43.5622 H   0  0  0  0  0  0  0  0  0  0  0  0
   55.4459   29.5853   43.1693 H   0  0  0  0  0  0  0  0  0  0  0  0
   55.9041   31.8997   43.9366 H   0  0  0  0  0  0  0  0  0  0  0  0
   56.9942   34.5121   45.2615 H   0  0  0  0  0  0  0  0  0  0  0  0
   58.1303   34.3998   43.8746 H   0  0  0  0  0  0  0  0  0  0  0  0
   56.6149   33.4354   43.8746 H   0  0  0  0  0  0  0  0  0  0  0  0
   58.5421   35.0692   46.4036 H   0  0  0  0  0  0  0  0  0  0  0  0
   60.4324   35.6102   47.9087 H   0  0  0  0  0  0  0  0  0  0  0  0
   63.8380   33.2818   47.3048 H   0  0  0  0  0  0  0  0  0  0  0  0
   64.4059   34.3147   48.6682 H   0  0  0  0  0  0  0  0  0  0  0  0
   63.1878   31.6414   49.3335 H   0  0  0  0  0  0  0  0  0  0  0  0
   64.8745   31.7111   48.5986 H   0  0  0  0  0  0  0  0  0  0  0  0
   63.9237   32.8891   52.4619 H   0  0  0  0  0  0  0  0  0  0  0  0
   63.5140   34.1054   51.2052 H   0  0  0  0  0  0  0  0  0  0  0  0
   62.6993   32.5045   51.2052 H   0  0  0  0  0  0  0  0  0  0  0  0
   65.8322   33.9563   49.4769 H   0  0  0  0  0  0  0  0  0  0  0  0
   65.7390   34.2141   51.2456 H   0  0  0  0  0  0  0  0  0  0  0  0
   67.7582   32.7619   49.7182 H   0  0  0  0  0  0  0  0  0  0  0  0
   67.7454   33.1041   51.4591 H   0  0  0  0  0  0  0  0  0  0  0  0
   67.0135   30.6203   50.0261 H   0  0  0  0  0  0  0  0  0  0  0  0
   67.3212   30.8330   51.7548 H   0  0  0  0  0  0  0  0  0  0  0  0
   64.8108   30.3698   50.6807 H   0  0  0  0  0  0  0  0  0  0  0  0
   65.0599   31.2356   52.2226 H   0  0  0  0  0  0  0  0  0  0  0  0
   61.8399   31.5457   47.6239 H   0  0  0  0  0  0  0  0  0  0  0  0
  1  2  1  0
  2  3  1  0
  3  4  1  0
  4  5  1  0
  3  6  1  0
  6  7  1  0
  7  8  1  0
  8  9  1  0
  9 10  1  0
 10 11  1  0
 11 12  1  0
 12 13  2  0
 13 14  1  0
 14 15  2  0
 15 16  1  0
 16 17  2  0
 17 18  1  0
 18 19  2  0
 19 20  1  0
 19 21  1  0
 21 22  2  0
 22 23  1  0
 23 24  2  0
 24 25  1  0
 25 26  1  0
 26 27  1  0
 27 28  1  0
 28 29  1  0
 28 30  1  0
 30 31  1  0
 31 32  1  0
 32 33  1  0
 24 34  1  0
 34 35  2  0
 35 12  1  0
 18 13  1  0
 35 21  1  0
 33 28  1  0
  1 36  1  0
  1 37  1  0
  1 38  1  0
  2 39  1  0
  2 40  1  0
  4 41  1  0
  4 42  1  0
  5 43  1  0
  5 44  1  0
  5 45  1  0
  6 46  1  0
  6 47  1  0
  7 48  1  0
  7 49  1  0
  9 50  1  0
  9 51  1  0
 10 52  1  0
 10 53  1  0
 11 54  1  0
 11 55  1  0
 14 56  1  0
 15 57  1  0
 16 58  1  0
 17 59  1  0
 20 60  1  0
 20 61  1  0
 20 62  1  0
 22 63  1  0
 23 64  1  0
 26 65  1  0
 26 66  1  0
 27 67  1  0
 27 68  1  0
 29 69  1  0
 29 70  1  0
 29 71  1  0
 30 72  1  0
 30 73  1  0
 31 74  1  0
 31 75  1  0
 32 76  1  0
 32 77  1  0
 33 78  1  0
 33 79  1  0
 34 80  1  0
M  CHG  3  11   1  19   1  28   1
M  END
>  <UniqueID>  (7) 
7

>  <SMILES>  (7) 
CCN(CC)CCOCC[NH2+]c1c2ccccc2[n+](C)c2ccc(OCC[N+]3(C)CCCC3)cc12

>  <Energy>  (7) 
124.15858317983867

>  <Genealogy>  (7) 
CCN(CC)CCOCC[NH2+]c1c2ccccc2[n+](C)c2ccc(OCC[N+]3(C)CCCC3)cc12 (protonated)
CCN(CC)CCOCC[NH2+]c1c2ccccc2[n+](C)c2ccc(OCC[N+]3(C)CCCC3)cc12 (3D coordinates assigned)
CCN(CC)CCOCC[NH2+]c1c2ccccc2[n+](C)c2ccc(OCC[N+]3(C)CCCC3)cc12 (nonaromatic ring conformer: 124.15858317983867 kcal/mol)

>  <smiles>  (7) 
CCN(CC)CCOCCNc1c2ccccc2[n+](C)c2ccc(OCC[N+]3(C)CCCC3)cc12

>  <score_type>  (7) 
oracle

>  <origin>  (7) 
adg

>  <m_score__min__energy>  (7) 
-3.3399999999999999

>  <m_primary>  (7) 
energy

$$$$
7:0
     RDKit          3D

 32 34  0  0  0  0  0  0  0  0999 V2000
   59.9230   36.6027   46.3696 H   0  0  0  0  0  0  0  0  0  0  0  0
   59.6470   35.5390   46.3220 C   0  0  0  0  0  0  0  0  0  0  0  0
   59.2500   34.9750   45.1090 C   0  0  0  0  0  0  0  0  0  0  0  0
   59.2153   35.5952   44.2012 H   0  0  0  0  0  0  0  0  0  0  0  0
   58.8960   33.6230   45.0440 C   0  0  0  0  0  0  0  0  0  0  0  0
   58.5817   33.1850   44.0852 H   0  0  0  0  0  0  0  0  0  0  0  0
   58.9400   32.8210   46.1990 C   0  0  0  0  0  0  0  0  0  0  0  0
   58.5630   31.3860   46.1300 C   0  0  0  0  0  0  0  0  0  0  0  0
   57.5600   30.9630   45.2550 C   0  0  0  0  0  0  0  0  0  0  0  0
   57.0641   31.7012   44.6077 H   0  0  0  0  0  0  0  0  0  0  0  0
   57.1720   29.6190   45.1840 C   0  0  0  0  0  0  0  0  0  0  0  0
   56.1630   29.3790   44.3840 N   0  0  0  0  0  0  0  0  0  0  0  0
   55.8950   29.7170   42.9940 C   0  0  0  0  0  0  0  0  0  0  0  0
   55.2121   30.5783   42.9512 H   0  0  0  0  0  0  0  0  0  0  0  0
   56.8389   29.9721   42.4901 H   0  0  0  0  0  0  0  0  0  0  0  0
   55.4314   28.8561   42.4901 H   0  0  0  0  0  0  0  0  0  0  0  0
   57.8640   28.6610   46.0020 C   0  0  0  0  0  0  0  0  0  0  0  0
   57.6470   27.2580   45.9780 C   0  0  0  0  0  0  0  0  0  0  0  0
   56.9095   26.8380   45.2782 H   0  0  0  0  0  0  0  0  0  0  0  0
   58.3520   26.4010   46.8260 C   0  0  0  0  0  0  0  0  0  0  0  0
   58.1552   25.3192   46.7947 H   0  0  0  0  0  0  0  0  0  0  0  0
   59.2990   26.9030   47.7080 C   0  0  0  0  0  0  0  0  0  0  0  0
   59.8396   26.2223   48.3821 H   0  0  0  0  0  0  0  0  0  0  0  0
   59.5630   28.2670   47.7380 C   0  0  0  0  0  0  0  0  0  0  0  0
   60.3235   28.6594   48.4292 H   0  0  0  0  0  0  0  0  0  0  0  0
   58.8680   29.1500   46.8940 C   0  0  0  0  0  0  0  0  0  0  0  0
   59.1780   30.4770   46.9310 N   0  0  0  0  0  0  0  0  0  0  0  0
   59.9370   30.8020   47.5740 H   0  0  0  0  0  0  0  0  0  0  0  0
   59.3430   33.4010   47.4170 C   0  0  0  0  0  0  0  0  0  0  0  0
   59.3819   32.7862   48.3283 H   0  0  0  0  0  0  0  0  0  0  0  0
   59.6940   34.7530   47.4760 C   0  0  0  0  0  0  0  0  0  0  0  0
   60.0074   35.1982   48.4318 H   0  0  0  0  0  0  0  0  0  0  0  0
  1  2  1  0
  2  3  2  0
  3  4  1  0
  3  5  1  0
  5  6  1  0
  5  7  2  0
  7  8  1  0
  8  9  2  0
  9 10  1  0
  9 11  1  0
 11 12  2  0
 12 13  1  0
 13 14  1  0
 13 15  1  0
 13 16  1  0
 11 17  1  0
 17 18  2  0
 18 19  1  0
 18 20  1  0
 20 21  1  0
 20 22  2  0
 22 23  1  0
 22 24  1  0
 24 25  1  0
 24 26  2  0
 26 27  1  0
 27 28  1  0
  7 29  1  0
 29 30  1  0
 29 31  2  0
 31 32  1  0
 31  2  1  0
 27  8  1  0
 26 17  1  0
M  END
>  <UniqueID>  (8) 
8

>  <SMILES>  (8) 
C/N=c1/cc(-c2ccccc2)[nH]c2ccccc12

>  <Energy>  (8) 
57.80284537576595

>  <Genealogy>  (8) 
C/N=c1/cc(-c2ccccc2)[nH]c2ccccc12 (cis-trans isomerization)
C/N=c1/cc(-c2ccccc2)[nH]c2ccccc12 (3D coordinates assigned)
C/N=c1/cc(-c2ccccc2)[nH]c2ccccc12 (optimized conformer: 57.80284537576595 kcal/mol)

>  <smiles>  (8) 
CN=c1cc(-c2ccccc2)[nH]c2ccccc12

>  <score_type>  (8) 
oracle

>  <origin>  (8) 
adg

>  <m_score__min__energy>  (8) 
-6.5300000000000002

>  <m_primary>  (8) 
energy

$$$$
8:0
     RDKit          3D

 28 28  0  0  0  0  0  0  0  0999 V2000
   60.2510   28.9440   44.8820 C   0  0  0  0  0  0  0  0  0  0  0  0
   58.8530   29.1860   45.2830 N   0  0  0  0  0  0  0  0  0  0  0  0
   58.4350   28.2380   46.3320 C   0  0  0  0  0  0  0  0  0  0  0  0
   57.9260   29.2040   44.1260 C   0  0  0  0  0  0  0  0  0  0  0  0
   57.1030   30.5030   43.9850 C   0  0  0  0  0  0  0  0  0  0  0  0
   57.0410   31.1890   45.2350 O   0  0  0  0  0  0  0  0  0  0  0  0
   57.7590   32.3510   45.5630 C   0  0  0  0  0  0  0  0  0  0  0  0
   57.8260   33.3770   44.6120 C   0  0  0  0  0  0  0  0  0  0  0  0
   58.5280   34.5540   44.8860 C   0  0  0  0  0  0  0  0  0  0  0  0
   59.1730   34.7160   46.1150 C   0  0  0  0  0  0  0  0  0  0  0  0
   59.1180   33.6990   47.0710 C   0  0  0  0  0  0  0  0  0  0  0  0
   60.0000   33.9210   48.7510 Br  0  0  0  0  0  0  0  0  0  0  0  0
   58.4160   32.5180   46.8000 C   0  0  0  0  0  0  0  0  0  0  0  0
   60.8766   28.8357   45.7803 H   0  0  0  0  0  0  0  0  0  0  0  0
   60.3065   28.0229   44.2833 H   0  0  0  0  0  0  0  0  0  0  0  0
   60.6129   29.7929   44.2833 H   0  0  0  0  0  0  0  0  0  0  0  0
   58.8210   30.1450   45.7070 H   0  0  0  0  0  0  0  0  0  0  0  0
   58.6287   28.6774   47.3216 H   0  0  0  0  0  0  0  0  0  0  0  0
   57.3604   28.0270   46.2285 H   0  0  0  0  0  0  0  0  0  0  0  0
   59.0040   27.3023   46.2285 H   0  0  0  0  0  0  0  0  0  0  0  0
   58.5186   29.0715   43.2088 H   0  0  0  0  0  0  0  0  0  0  0  0
   57.2028   28.3919   44.2919 H   0  0  0  0  0  0  0  0  0  0  0  0
   57.5786   31.1543   43.2370 H   0  0  0  0  0  0  0  0  0  0  0  0
   56.0817   30.2464   43.6669 H   0  0  0  0  0  0  0  0  0  0  0  0
   57.3221   33.2555   43.6418 H   0  0  0  0  0  0  0  0  0  0  0  0
   58.5729   35.3544   44.1328 H   0  0  0  0  0  0  0  0  0  0  0  0
   59.7237   35.6438   46.3295 H   0  0  0  0  0  0  0  0  0  0  0  0
   58.3768   31.7181   47.5541 H   0  0  0  0  0  0  0  0  0  0  0  0
  1  2  1  0
  2  3  1  0
  2  4  1  0
  4  5  1  0
  5  6  1  0
  6  7  1  0
  7  8  2  0
  8  9  1  0
  9 10  2  0
 10 11  1  0
 11 12  1  0
 11 13  2  0
 13  7  1  0
  1 14  1  0
  1 15  1  0
  1 16  1  0
  2 17  1  0
  3 18  1  0
  3 19  1  0
  3 20  1  0
  4 21  1  0
  4 22  1  0
  5 23  1  0
  5 24  1  0
  8 25  1  0
  9 26  1  0
 10 27  1  0
 13 28  1  0
M  CHG  1   2   1
M  END
>  <UniqueID>  (9) 
9

>  <SMILES>  (9) 
C[NH+](C)CCOc1cccc(Br)c1

>  <Energy>  (9) 
27.292903145414822

>  <Genealogy>  (9) 
C[NH+](C)CCOc1cccc(Br)c1 (protonated)
C[NH+](C)CCOc1cccc(Br)c1 (3D coordinates assigned)
C[NH+](C)CCOc1cccc(Br)c1 (optimized conformer: 27.292903145414822 kcal/mol)

>  <smiles>  (9) 
CN(C)CCOc1cccc(Br)c1

>  <score_type>  (9) 
oracle

>  <origin>  (9) 
adg

>  <m_score__min__energy>  (9) 
-3.6499999999999999

>  <m_primary>  (9) 
energy

$$$$
9:0
     RDKit          3D

 57 60  0  0  0  0  0  0  0  0999 V2000
   57.0300   31.9270   53.1020 C   0  0  0  0  0  0  0  0  0  0  0  0
   56.7450   31.3950   51.7550 N   0  0  0  0  0  0  0  0  0  0  0  0
   55.3800   30.8340   51.7310 C   0  0  0  0  0  0  0  0  0  0  0  0
   57.7510   30.3790   51.3610 C   0  0  0  0  0  0  0  0  0  0  0  0
   58.5160   30.8460   50.1160 C   0  0  0  0  0  0  0  0  0  0  0  0
   58.2600   32.2580   49.8250 N   0  0  0  0  0  0  0  0  0  0  0  0
   59.2180   33.0300   49.0820 C   0  0  0  0  0  0  0  0  0  0  0  0
   58.9610   33.3160   47.7290 C   0  0  0  0  0  0  0  0  0  0  0  0
   57.6770   33.1290   47.1700 C   0  0  0  0  0  0  0  0  0  0  0  0
   57.4220   33.4680   45.8430 C   0  0  0  0  0  0  0  0  0  0  0  0
   58.4350   34.0000   45.0540 C   0  0  0  0  0  0  0  0  0  0  0  0
   59.7200   34.1560   45.5750 C   0  0  0  0  0  0  0  0  0  0  0  0
   60.0190   33.7750   46.9070 C   0  0  0  0  0  0  0  0  0  0  0  0
   61.3060   33.8070   47.3990 N   0  0  0  0  0  0  0  0  0  0  0  0
   62.4500   33.8700   46.4650 C   0  0  0  0  0  0  0  0  0  0  0  0
   61.5300   33.7270   48.7610 C   0  0  0  0  0  0  0  0  0  0  0  0
   62.7780   33.9650   49.2770 N   0  0  0  0  0  0  0  0  0  0  0  0
   63.0800   33.8060   50.5910 C   0  0  0  0  0  0  0  0  0  0  0  0
   64.4300   34.0320   51.0310 N   0  0  0  0  0  0  0  0  0  0  0  0
   65.3790   32.9220   50.9570 C   0  0  0  0  0  0  0  0  0  0  0  0
   64.6920   35.1150   51.9760 C   0  0  0  0  0  0  0  0  0  0  0  0
   62.0650   33.5130   51.5110 C   0  0  0  0  0  0  0  0  0  0  0  0
   62.3550   33.3710   52.8830 C   0  0  0  0  0  0  0  0  0  0  0  0
   61.3260   33.2230   53.8100 C   0  0  0  0  0  0  0  0  0  0  0  0
   60.0020   33.2690   53.3880 C   0  0  0  0  0  0  0  0  0  0  0  0
   59.7020   33.3830   52.0320 C   0  0  0  0  0  0  0  0  0  0  0  0
   60.7270   33.4040   51.0540 C   0  0  0  0  0  0  0  0  0  0  0  0
   60.4680   33.3940   49.6470 C   0  0  0  0  0  0  0  0  0  0  0  0
   56.6539   31.2249   53.8607 H   0  0  0  0  0  0  0  0  0  0  0  0
   58.1160   32.0522   53.2246 H   0  0  0  0  0  0  0  0  0  0  0  0
   56.5326   32.9004   53.2246 H   0  0  0  0  0  0  0  0  0  0  0  0
   55.0253   30.6882   52.7620 H   0  0  0  0  0  0  0  0  0  0  0  0
   54.7073   31.5286   51.2066 H   0  0  0  0  0  0  0  0  0  0  0  0
   55.3901   29.8671   51.2066 H   0  0  0  0  0  0  0  0  0  0  0  0
   58.4602   30.2299   52.1885 H   0  0  0  0  0  0  0  0  0  0  0  0
   57.2363   29.4340   51.1326 H   0  0  0  0  0  0  0  0  0  0  0  0
   59.5938   30.7061   50.2858 H   0  0  0  0  0  0  0  0  0  0  0  0
   58.1732   30.2498   49.2575 H   0  0  0  0  0  0  0  0  0  0  0  0
   57.3130   32.6620   49.9880 H   0  0  0  0  0  0  0  0  0  0  0  0
   56.8697   32.7111   47.7894 H   0  0  0  0  0  0  0  0  0  0  0  0
   56.4185   33.3145   45.4195 H   0  0  0  0  0  0  0  0  0  0  0  0
   58.2233   34.2987   44.0167 H   0  0  0  0  0  0  0  0  0  0  0  0
   60.5130   34.5812   44.9423 H   0  0  0  0  0  0  0  0  0  0  0  0
   63.3881   33.9217   47.0372 H   0  0  0  0  0  0  0  0  0  0  0  0
   62.4560   32.9708   45.8314 H   0  0  0  0  0  0  0  0  0  0  0  0
   62.3572   34.7644   45.8314 H   0  0  0  0  0  0  0  0  0  0  0  0
   63.5520   34.3110   48.6720 H   0  0  0  0  0  0  0  0  0  0  0  0
   65.6511   32.6038   51.9742 H   0  0  0  0  0  0  0  0  0  0  0  0
   64.9173   32.0800   50.4206 H   0  0  0  0  0  0  0  0  0  0  0  0
   66.2826   33.2472   50.4206 H   0  0  0  0  0  0  0  0  0  0  0  0
   64.6000   34.7348   53.0041 H   0  0  0  0  0  0  0  0  0  0  0  0
   65.7096   35.5016   51.8177 H   0  0  0  0  0  0  0  0  0  0  0  0
   63.9637   35.9240   51.8177 H   0  0  0  0  0  0  0  0  0  0  0  0
   63.4008   33.3771   53.2239 H   0  0  0  0  0  0  0  0  0  0  0  0
   61.5604   33.0700   54.8738 H   0  0  0  0  0  0  0  0  0  0  0  0
   59.1888   33.2152   54.1268 H   0  0  0  0  0  0  0  0  0  0  0  0
   58.6512   33.4580   51.7154 H   0  0  0  0  0  0  0  0  0  0  0  0
  1  2  1  0
  2  3  1  0
  2  4  1  0
  4  5  1  0
  5  6  1  0
  6  7  1  0
  7  8  2  0
  8  9  1  0
  9 10  2  0
 10 11  1  0
 11 12  2  0
 12 13  1  0
 13 14  2  0
 14 15  1  0
 14 16  1  0
 16 17  2  0
 17 18  1  0
 18 19  1  0
 19 20  1  0
 19 21  1  0
 18 22  2  0
 22 23  1  0
 23 24  2  0
 24 25  1  0
 25 26  2  0
 26 27  1  0
 27 28  2  0
 28  7  1  0
 13  8  1  0
 28 16  1  0
 27 22  1  0
  1 29  1  0
  1 30  1  0
  1 31  1  0
  3 32  1  0
  3 33  1  0
  3 34  1  0
  4 35  1  0
  4 36  1  0
  5 37  1  0
  5 38  1  0
  6 39  1  0
  9 40  1  0
 10 41  1  0
 11 42  1  0
 12 43  1  0
 15 44  1  0
 15 45  1  0
 15 46  1  0
 17 47  1  0
 20 48  1  0
 20 49  1  0
 20 50  1  0
 21 51  1  0
 21 52  1  0
 21 53  1  0
 23 54  1  0
 24 55  1  0
 25 56  1  0
 26 57  1  0
M  CHG  2  14   1  17   1
M  END
>  <UniqueID>  (10) 
10

>  <SMILES>  (10) 
CN(C)CCNc1c2ccccc2[n+](C)c2[nH+]c(N(C)C)c3ccccc3c12

>  <Energy>  (10) 
105.71274133821566

>  <Genealogy>  (10) 
CN(C)CCNc1c2ccccc2[n+](C)c2[nH+]c(N(C)C)c3ccccc3c12 (protonated)
CN(C)CCNc1c2ccccc2[n+](C)c2[nH+]c(N(C)C)c3ccccc3c12 (3D coordinates assigned)
CN(C)CCNc1c2ccccc2[n+](C)c2[nH+]c(N(C)C)c3ccccc3c12 (optimized conformer: 105.71274133821566 kcal/mol)

>  <smiles>  (10) 
CN(C)CCNc1c2ccccc2[n+](C)c2nc(N(C)C)c3ccccc3c12

>  <score_type>  (10) 
oracle

>  <origin>  (10) 
adg

>  <m_score__min__energy>  (10) 
-5.1500000000000004

>  <m_primary>  (10) 
energy

$$$$
10:0
     RDKit          3D

 55 57  0  0  0  0  0  0  0  0999 V2000
   63.3320   31.9680   48.2710 C   0  0  0  0  0  0  0  0  0  0  0  0
   63.9110   33.0940   47.5420 N   0  0  0  0  0  0  0  0  0  0  0  0
   62.8690   33.8290   46.8150 C   0  0  0  0  0  0  0  0  0  0  0  0
   61.5680   33.0200   46.7990 C   0  0  0  0  0  0  0  0  0  0  0  0
   60.4040   33.7600   47.4790 C   0  0  0  0  0  0  0  0  0  0  0  0
   60.1250   33.2070   48.8090 N   0  0  0  0  0  0  0  0  0  0  0  0
   59.9970   33.9530   49.9260 C   0  0  0  0  0  0  0  0  0  0  0  0
   59.5920   33.1310   50.9570 C   0  0  0  0  0  0  0  0  0  0  0  0
   59.2290   33.5640   52.3430 C   0  0  0  0  0  0  0  0  0  0  0  0
   58.3740   34.6500   52.2880 F   0  0  0  0  0  0  0  0  0  0  0  0
   58.6010   32.5320   53.0150 F   0  0  0  0  0  0  0  0  0  0  0  0
   60.3760   33.9230   53.0260 F   0  0  0  0  0  0  0  0  0  0  0  0
   59.4350   31.8840   50.4810 N   0  0  0  0  0  0  0  0  0  0  0  0
   59.7730   31.9460   49.1760 C   0  0  0  0  0  0  0  0  0  0  0  0
   59.7100   30.7630   48.2890 C   0  0  0  0  0  0  0  0  0  0  0  0
   59.0580   30.8710   47.0390 C   0  0  0  0  0  0  0  0  0  0  0  0
   58.9110   29.7620   46.1690 C   0  0  0  0  0  0  0  0  0  0  0  0
   58.2600   30.0110   44.8100 C   0  0  0  0  0  0  0  0  0  0  0  0
   56.9480   30.7030   44.8700 N   0  0  0  0  0  0  0  0  0  0  0  0
   57.0490   32.1680   44.7800 C   0  0  0  0  0  0  0  0  0  0  0  0
   55.9630   30.1690   43.9180 C   0  0  0  0  0  0  0  0  0  0  0  0
   59.3920   28.5080   46.6430 C   0  0  0  0  0  0  0  0  0  0  0  0
   60.0340   28.4270   47.8630 C   0  0  0  0  0  0  0  0  0  0  0  0
   60.3700   27.1150   48.0950 C   0  0  0  0  0  0  0  0  0  0  0  0
   59.8930   26.4200   47.0010 C   0  0  0  0  0  0  0  0  0  0  0  0
   59.2900   27.2550   46.1200 N   0  0  0  0  0  0  0  0  0  0  0  0
   58.5200   26.7720   44.9750 C   0  0  0  0  0  0  0  0  0  0  0  0
   60.1960   29.5170   48.7090 C   0  0  0  0  0  0  0  0  0  0  0  0
   63.4233   32.1456   49.3527 H   0  0  0  0  0  0  0  0  0  0  0  0
   62.2696   31.8660   48.0046 H   0  0  0  0  0  0  0  0  0  0  0  0
   63.8671   31.0446   48.0046 H   0  0  0  0  0  0  0  0  0  0  0  0
   64.5850   32.7060   46.8410 H   0  0  0  0  0  0  0  0  0  0  0  0
   62.6911   34.7944   47.3114 H   0  0  0  0  0  0  0  0  0  0  0  0
   63.2018   33.9961   45.7800 H   0  0  0  0  0  0  0  0  0  0  0  0
   61.2930   32.8155   45.7538 H   0  0  0  0  0  0  0  0  0  0  0  0
   61.7460   32.0910   47.3605 H   0  0  0  0  0  0  0  0  0  0  0  0
   60.6662   34.8234   47.5809 H   0  0  0  0  0  0  0  0  0  0  0  0
   59.5049   33.6387   46.8570 H   0  0  0  0  0  0  0  0  0  0  0  0
   60.1841   35.0343   50.0017 H   0  0  0  0  0  0  0  0  0  0  0  0
   59.1060   31.0460   51.0110 H   0  0  0  0  0  0  0  0  0  0  0  0
   58.6522   31.8463   46.7322 H   0  0  0  0  0  0  0  0  0  0  0  0
   58.9454   30.6268   44.2091 H   0  0  0  0  0  0  0  0  0  0  0  0
   58.0701   29.0211   44.3696 H   0  0  0  0  0  0  0  0  0  0  0  0
   57.0785   32.5964   45.7927 H   0  0  0  0  0  0  0  0  0  0  0  0
   57.9680   32.4397   44.2400 H   0  0  0  0  0  0  0  0  0  0  0  0
   56.1760   32.5632   44.2400 H   0  0  0  0  0  0  0  0  0  0  0  0
   55.1270   29.7158   44.4709 H   0  0  0  0  0  0  0  0  0  0  0  0
   55.5845   30.9854   43.2854 H   0  0  0  0  0  0  0  0  0  0  0  0
   56.4406   29.4063   43.2854 H   0  0  0  0  0  0  0  0  0  0  0  0
   60.9042   26.7060   48.9653 H   0  0  0  0  0  0  0  0  0  0  0  0
   59.9897   25.3330   46.8630 H   0  0  0  0  0  0  0  0  0  0  0  0
   57.6388   26.2192   45.3326 H   0  0  0  0  0  0  0  0  0  0  0  0
   58.1937   27.6275   44.3654 H   0  0  0  0  0  0  0  0  0  0  0  0
   59.1482   26.1058   44.3654 H   0  0  0  0  0  0  0  0  0  0  0  0
   60.6931   29.4051   49.6839 H   0  0  0  0  0  0  0  0  0  0  0  0
  1  2  1  0
  2  3  1  0
  3  4  1  0
  4  5  1  0
  5  6  1  0
  6  7  1  0
  7  8  2  0
  8  9  1  0
  9 10  1  0
  9 11  1  0
  9 12  1  0
  8 13  1  0
 13 14  2  0
 14 15  1  0
 15 16  2  0
 16 17  1  0
 17 18  1  0
 18 19  1  0
 19 20  1  0
 19 21  1  0
 17 22  2  0
 22 23  1  0
 23 24  1  0
 24 25  2  0
 25 26  1  0
 26 27  1  0
 23 28  2  0
 14  6  1  0
 28 15  1  0
 26 22  1  0
  1 29  1  0
  1 30  1  0
  1 31  1  0
  2 32  1  0
  3 33  1  0
  3 34  1  0
  4 35  1  0
  4 36  1  0
  5 37  1  0
  5 38  1  0
  7 39  1  0
 13 40  1  0
 16 41  1  0
 18 42  1  0
 18 43  1  0
 20 44  1  0
 20 45  1  0
 20 46  1  0
 21 47  1  0
 21 48  1  0
 21 49  1  0
 24 50  1  0
 25 51  1  0
 27 52  1  0
 27 53  1  0
 27 54  1  0
 28 55  1  0
M  CHG  1  13   1
M  END
>  <UniqueID>  (11) 
11

>  <SMILES>  (11) 
CNCCCn1cc(C(F)(F)F)[nH+]c1-c1cc(CN(C)C)c2c(ccn2C)c1

>  <Energy>  (11) 
125.66956968719113

>  <Genealogy>  (11) 
CNCCCn1cc(C(F)(F)F)[nH+]c1-c1cc(CN(C)C)c2c(ccn2C)c1 (protonated)
CNCCCn1cc(C(F)(F)F)[nH+]c1-c1cc(CN(C)C)c2c(ccn2C)c1 (3D coordinates assigned)
CNCCCn1cc(C(F)(F)F)[nH+]c1-c1cc(CN(C)C)c2c(ccn2C)c1 (optimized conformer: 125.66956968719113 kcal/mol)

>  <smiles>  (11) 
CNCCCn1cc(C(F)(F)F)nc1-c1cc(CN(C)C)c2c(ccn2C)c1

>  <score_type>  (11) 
oracle

>  <origin>  (11) 
adg

>  <m_score__min__energy>  (11) 
-5.79

>  <m_primary>  (11) 
energy

$$$$
11:0
     RDKit          3D

 64 68  0  0  0  0  0  0  0  0999 V2000
   60.8260   28.9550   44.9060 C   0  0  0  0  0  0  0  0  0  0  0  0
   59.7750   28.0980   45.5650 C   0  0  0  0  0  0  0  0  0  0  0  0
   60.1810   27.0660   46.4290 C   0  0  0  0  0  0  0  0  0  0  0  0
   59.2370   26.2630   47.0690 C   0  0  0  0  0  0  0  0  0  0  0  0
   57.8770   26.4810   46.8610 C   0  0  0  0  0  0  0  0  0  0  0  0
   57.4530   27.5070   46.0150 C   0  0  0  0  0  0  0  0  0  0  0  0
   58.3910   28.3290   45.3610 C   0  0  0  0  0  0  0  0  0  0  0  0
   57.8900   29.4420   44.4650 C   0  0  0  0  0  0  0  0  0  0  0  0
   57.3820   30.5710   45.2700 N   0  0  0  0  0  0  0  0  0  0  0  0
   58.4120   31.0310   46.2300 C   0  0  0  0  0  0  0  0  0  0  0  0
   58.1070   32.4460   46.7410 C   0  0  0  0  0  0  0  0  0  0  0  0
   58.0650   33.4450   45.6380 N   0  0  0  0  0  0  0  0  0  0  0  0
   59.2650   34.2670   45.5850 C   0  0  0  0  0  0  0  0  0  0  0  0
   59.9630   34.2230   44.5810 O   0  0  0  0  0  0  0  0  0  0  0  0
   59.6720   35.1650   46.7500 C   0  0  0  0  0  0  0  0  0  0  0  0
   59.8670   34.4320   48.0210 N   0  0  0  0  0  0  0  0  0  0  0  0
   61.1420   33.6870   48.1760 C   0  0  1  0  0  0  0  0  0  0  0  0
   61.9780   33.8730   46.8740 C   0  0  0  0  0  0  0  0  0  0  0  0
   63.3070   33.0920   46.9610 C   0  0  2  0  0  0  0  0  0  0  0  0
   63.0070   31.5910   47.1450 C   0  0  0  0  0  0  0  0  0  0  0  0
   62.1960   31.3840   48.4400 C   0  0  1  0  0  0  0  0  0  0  0  0
   63.0090   31.9010   49.6470 C   0  0  0  0  0  0  0  0  0  0  0  0
   63.3180   33.4030   49.4620 C   0  0  1  0  0  0  0  0  0  0  0  0
   64.1270   33.6060   48.1640 C   0  0  0  0  0  0  0  0  0  0  0  0
   61.9960   34.1970   49.3760 C   0  0  0  0  0  0  0  0  0  0  0  0
   60.8650   32.1630   48.3460 C   0  0  0  0  0  0  0  0  0  0  0  0
   57.7800   32.8550   44.3080 C   0  0  0  0  0  0  0  0  0  0  0  0
   56.8240   31.6600   44.4250 C   0  0  0  0  0  0  0  0  0  0  0  0
   61.4329   29.4499   45.6785 H   0  0  0  0  0  0  0  0  0  0  0  0
   61.4735   28.3241   44.2793 H   0  0  0  0  0  0  0  0  0  0  0  0
   60.3384   29.7163   44.2793 H   0  0  0  0  0  0  0  0  0  0  0  0
   61.2530   26.8902   46.6019 H   0  0  0  0  0  0  0  0  0  0  0  0
   59.5672   25.4558   47.7394 H   0  0  0  0  0  0  0  0  0  0  0  0
   57.1356   25.8432   47.3646 H   0  0  0  0  0  0  0  0  0  0  0  0
   56.3773   27.6749   45.8578 H   0  0  0  0  0  0  0  0  0  0  0  0
   58.7164   29.7941   43.8301 H   0  0  0  0  0  0  0  0  0  0  0  0
   57.0699   29.0536   43.8432 H   0  0  0  0  0  0  0  0  0  0  0  0
   58.4390   30.3395   47.0850 H   0  0  0  0  0  0  0  0  0  0  0  0
   59.3832   31.0504   45.7139 H   0  0  0  0  0  0  0  0  0  0  0  0
   57.1309   32.4368   47.2481 H   0  0  0  0  0  0  0  0  0  0  0  0
   58.9133   32.7374   47.4302 H   0  0  0  0  0  0  0  0  0  0  0  0
   57.2620   34.0860   45.8540 H   0  0  0  0  0  0  0  0  0  0  0  0
   60.6154   35.6670   46.4894 H   0  0  0  0  0  0  0  0  0  0  0  0
   58.8502   35.8782   46.9109 H   0  0  0  0  0  0  0  0  0  0  0  0
   59.0390   33.8310   48.2380 H   0  0  0  0  0  0  0  0  0  0  0  0
   62.1962   34.9421   46.7349 H   0  0  0  0  0  0  0  0  0  0  0  0
   61.3970   33.4876   46.0232 H   0  0  0  0  0  0  0  0  0  0  0  0
   63.8830   33.2402   46.0357 H   0  0  0  0  0  0  0  0  0  0  0  0
   63.9529   31.0335   47.2117 H   0  0  0  0  0  0  0  0  0  0  0  0
   62.4256   31.2252   46.2858 H   0  0  0  0  0  0  0  0  0  0  0  0
   61.9857   30.3123   48.5712 H   0  0  0  0  0  0  0  0  0  0  0  0
   63.9524   31.3399   49.7197 H   0  0  0  0  0  0  0  0  0  0  0  0
   62.4235   31.7604   50.5676 H   0  0  0  0  0  0  0  0  0  0  0  0
   63.9047   33.7636   50.3197 H   0  0  0  0  0  0  0  0  0  0  0  0
   65.0719   33.0466   48.2296 H   0  0  0  0  0  0  0  0  0  0  0  0
   64.3431   34.6762   48.0301 H   0  0  0  0  0  0  0  0  0  0  0  0
   62.2212   35.2644   49.2347 H   0  0  0  0  0  0  0  0  0  0  0  0
   61.4290   34.0543   50.3078 H   0  0  0  0  0  0  0  0  0  0  0  0
   60.2920   31.7994   47.4803 H   0  0  0  0  0  0  0  0  0  0  0  0
   60.2911   32.0043   49.2709 H   0  0  0  0  0  0  0  0  0  0  0  0
   57.3200   33.6212   43.6666 H   0  0  0  0  0  0  0  0  0  0  0  0
   58.7268   32.5027   43.8728 H   0  0  0  0  0  0  0  0  0  0  0  0
   55.8795   32.0050   44.8710 H   0  0  0  0  0  0  0  0  0  0  0  0
   56.6669   31.2547   43.4145 H   0  0  0  0  0  0  0  0  0  0  0  0
  1  2  1  0
  2  3  2  0
  3  4  1  0
  4  5  2  0
  5  6  1  0
  6  7  2  0
  7  8  1  0
  8  9  1  0
  9 10  1  0
 10 11  1  0
 11 12  1  0
 12 13  1  0
 13 14  2  0
 13 15  1  0
 15 16  1  0
 17 16  1  6
 17 18  1  0
 18 19  1  0
 19 20  1  0
 20 21  1  0
 21 22  1  0
 22 23  1  0
 23 24  1  0
 23 25  1  0
 21 26  1  0
 12 27  1  0
 27 28  1  0
  7  2  1  0
 28  9  1  0
 25 17  1  0
 26 17  1  0
 24 19  1  0
  1 29  1  0
  1 30  1  0
  1 31  1  0
  3 32  1  0
  4 33  1  0
  5 34  1  0
  6 35  1  0
  8 36  1  0
  8 37  1  0
 10 38  1  0
 10 39  1  0
 11 40  1  0
 11 41  1  0
 12 42  1  0
 15 43  1  0
 15 44  1  0
 16 45  1  0
 18 46  1  0
 18 47  1  0
 19 48  1  6
 20 49  1  0
 20 50  1  0
 21 51  1  1
 22 52  1  0
 22 53  1  0
 23 54  1  1
 24 55  1  0
 24 56  1  0
 25 57  1  0
 25 58  1  0
 26 59  1  0
 26 60  1  0
 27 61  1  0
 27 62  1  0
 28 63  1  0
 28 64  1  0
M  CHG  1  12   1
M  END
>  <UniqueID>  (12) 
12

>  <SMILES>  (12) 
Cc1ccccc1CN1CC[NH+](C(=O)CNC23CC4CC(CC(C4)C2)C3)CC1

>  <Energy>  (12) 
88.16100124963197

>  <Genealogy>  (12) 
Cc1ccccc1CN1CC[NH+](C(=O)CNC23CC4CC(CC(C4)C2)C3)CC1 (protonated)
Cc1ccccc1CN1CC[NH+](C(=O)CNC23CC4CC(CC(C4)C2)C3)CC1 (3D coordinates assigned)
Cc1ccccc1CN1CC[NH+](C(=O)CNC23CC4CC(CC(C4)C2)C3)CC1 (nonaromatic ring conformer: 88.16100124963197 kcal/mol)

>  <smiles>  (12) 
Cc1ccccc1CN1CCN(C(=O)CNC23CC4CC(CC(C4)C2)C3)CC1

>  <score_type>  (12) 
oracle

>  <origin>  (12) 
adg

>  <m_score__min__energy>  (12) 
-7.9100000000000001

>  <m_primary>  (12) 
energy

$$$$
12:0
     RDKit          3D

 64 67  0  0  0  0  0  0  0  0999 V2000
   59.6090   35.3140   45.6120 C   0  0  0  0  0  0  0  0  0  0  0  0
   59.5940   34.8440   47.0750 C   0  0  0  0  0  0  0  0  0  0  0  0
   60.9290   34.4810   47.6140 N   0  0  0  0  0  0  0  0  0  0  0  0
   60.9450   34.1370   49.0550 C   0  0  0  0  0  0  0  0  0  0  0  0
   59.6310   33.5020   49.5050 C   0  0  0  0  0  0  0  0  0  0  0  0
   61.6210   33.4660   46.7840 C   0  0  0  0  0  0  0  0  0  0  0  0
   63.1030   33.3870   47.1710 C   0  0  0  0  0  0  0  0  0  0  0  0
   63.5000   32.0090   47.5010 N   0  0  0  0  0  0  0  0  0  0  0  0
   63.2840   31.7450   48.9160 C   0  0  0  0  0  0  0  0  0  0  0  0
   64.2030   32.2260   49.8850 C   0  0  0  0  0  0  0  0  0  0  0  0
   65.4140   32.8630   49.5120 C   0  0  0  0  0  0  0  0  0  0  0  0
   66.2550   33.4250   50.4690 C   0  0  0  0  0  0  0  0  0  0  0  0
   65.9140   33.3760   51.8100 C   0  0  0  0  0  0  0  0  0  0  0  0
   64.7620   32.7060   52.2120 C   0  0  0  0  0  0  0  0  0  0  0  0
   63.9140   32.0690   51.2680 C   0  0  0  0  0  0  0  0  0  0  0  0
   62.8260   31.3220   51.6750 N   0  0  0  0  0  0  0  0  0  0  0  0
   62.6990   30.9210   53.0940 C   0  0  0  0  0  0  0  0  0  0  0  0
   61.8850   30.9030   50.7540 C   0  0  0  0  0  0  0  0  0  0  0  0
   60.6500   30.3340   51.1660 C   0  0  0  0  0  0  0  0  0  0  0  0
   59.7510   29.8120   50.2420 C   0  0  0  0  0  0  0  0  0  0  0  0
   60.0380   29.8610   48.8860 C   0  0  0  0  0  0  0  0  0  0  0  0
   58.9090   29.1190   47.7060 S   0  0  0  0  0  0  0  0  0  0  0  0
   59.1170   30.4440   46.4710 C   0  0  0  0  0  0  0  0  0  0  0  0
   58.2160   30.1770   45.2960 C   0  0  0  0  0  0  0  0  0  0  0  0
   58.2060   28.8910   44.7170 C   0  0  0  0  0  0  0  0  0  0  0  0
   57.4120   28.6220   43.5970 C   0  0  0  0  0  0  0  0  0  0  0  0
   56.6440   29.6380   43.0260 C   0  0  0  0  0  0  0  0  0  0  0  0
   56.6420   30.9180   43.5880 C   0  0  0  0  0  0  0  0  0  0  0  0
   57.4330   31.2010   44.7120 C   0  0  0  0  0  0  0  0  0  0  0  0
   57.4310   32.8460   45.3430 Cl  0  0  0  0  0  0  0  0  0  0  0  0
   61.2080   30.4750   48.4450 C   0  0  0  0  0  0  0  0  0  0  0  0
   62.1290   31.0460   49.3590 C   0  0  0  0  0  0  0  0  0  0  0  0
   59.6441   36.4130   45.5803 H   0  0  0  0  0  0  0  0  0  0  0  0
   60.4945   34.9041   45.1042 H   0  0  0  0  0  0  0  0  0  0  0  0
   58.6991   34.9614   45.1042 H   0  0  0  0  0  0  0  0  0  0  0  0
   59.1819   35.6552   47.6932 H   0  0  0  0  0  0  0  0  0  0  0  0
   58.9827   33.9300   47.1059 H   0  0  0  0  0  0  0  0  0  0  0  0
   61.7648   33.4278   49.2419 H   0  0  0  0  0  0  0  0  0  0  0  0
   61.0864   35.0669   49.6253 H   0  0  0  0  0  0  0  0  0  0  0  0
   59.5907   33.4825   50.6041 H   0  0  0  0  0  0  0  0  0  0  0  0
   58.7872   34.0917   49.1175 H   0  0  0  0  0  0  0  0  0  0  0  0
   59.5687   32.4744   49.1175 H   0  0  0  0  0  0  0  0  0  0  0  0
   61.1509   32.4843   46.9434 H   0  0  0  0  0  0  0  0  0  0  0  0
   61.5411   33.7529   45.7251 H   0  0  0  0  0  0  0  0  0  0  0  0
   63.7125   33.7425   46.3271 H   0  0  0  0  0  0  0  0  0  0  0  0
   63.2622   34.0150   48.0600 H   0  0  0  0  0  0  0  0  0  0  0  0
   62.9820   31.3220   46.9130 H   0  0  0  0  0  0  0  0  0  0  0  0
   64.4920   31.8410   47.2280 H   0  0  0  0  0  0  0  0  0  0  0  0
   65.6935   32.9139   48.4493 H   0  0  0  0  0  0  0  0  0  0  0  0
   67.1927   33.9092   50.1588 H   0  0  0  0  0  0  0  0  0  0  0  0
   66.5538   33.8668   52.5582 H   0  0  0  0  0  0  0  0  0  0  0  0
   64.5039   32.6694   53.2807 H   0  0  0  0  0  0  0  0  0  0  0  0
   62.9678   31.7696   53.7403 H   0  0  0  0  0  0  0  0  0  0  0  0
   61.6612   30.6189   53.2982 H   0  0  0  0  0  0  0  0  0  0  0  0
   63.3737   30.0765   53.2982 H   0  0  0  0  0  0  0  0  0  0  0  0
   60.3999   30.3058   52.2368 H   0  0  0  0  0  0  0  0  0  0  0  0
   58.8100   29.3592   50.5876 H   0  0  0  0  0  0  0  0  0  0  0  0
   58.8539   31.4117   46.9230 H   0  0  0  0  0  0  0  0  0  0  0  0
   60.1635   30.4709   46.1333 H   0  0  0  0  0  0  0  0  0  0  0  0
   58.8275   28.0931   45.1495 H   0  0  0  0  0  0  0  0  0  0  0  0
   57.3930   27.6099   43.1665 H   0  0  0  0  0  0  0  0  0  0  0  0
   56.0386   29.4309   42.1312 H   0  0  0  0  0  0  0  0  0  0  0  0
   56.0167   31.7080   43.1465 H   0  0  0  0  0  0  0  0  0  0  0  0
   61.4214   30.5176   47.3667 H   0  0  0  0  0  0  0  0  0  0  0  0
  1  2  1  0
  2  3  1  0
  3  4  1  0
  4  5  1  0
  3  6  1  0
  6  7  1  0
  7  8  1  0
  8  9  1  0
  9 10  2  0
 10 11  1  0
 11 12  2  0
 12 13  1  0
 13 14  2  0
 14 15  1  0
 15 16  2  0
 16 17  1  0
 16 18  1  0
 18 19  2  0
 19 20  1  0
 20 21  2  0
 21 22  1  0
 22 23  1  0
 23 24  1  0
 24 25  2  0
 25 26  1  0
 26 27  2  0
 27 28  1  0
 28 29  2  0
 29 30  1  0
 21 31  1  0
 31 32  2  0
 32  9  1  0
 15 10  1  0
 32 18  1  0
 29 24  1  0
  1 33  1  0
  1 34  1  0
  1 35  1  0
  2 36  1  0
  2 37  1  0
  4 38  1  0
  4 39  1  0
  5 40  1  0
  5 41  1  0
  5 42  1  0
  6 43  1  0
  6 44  1  0
  7 45  1  0
  7 46  1  0
  8 47  1  0
  8 48  1  0
 11 49  1  0
 12 50  1  0
 13 51  1  0
 14 52  1  0
 17 53  1  0
 17 54  1  0
 17 55  1  0
 19 56  1  0
 20 57  1  0
 23 58  1  0
 23 59  1  0
 25 60  1  0
 26 61  1  0
 27 62  1  0
 28 63  1  0
 31 64  1  0
M  CHG  2   8   1  16   1
M  END
>  <UniqueID>  (13) 
13

>  <SMILES>  (13) 
CCN(CC)CC[NH2+]c1c2ccccc2[n+](C)c2ccc(SCc3ccccc3Cl)cc12

>  <Energy>  (13) 
93.41759453275303

>  <Genealogy>  (13) 
CCN(CC)CC[NH2+]c1c2ccccc2[n+](C)c2ccc(SCc3ccccc3Cl)cc12 (protonated)
CCN(CC)CC[NH2+]c1c2ccccc2[n+](C)c2ccc(SCc3ccccc3Cl)cc12 (3D coordinates assigned)
CCN(CC)CC[NH2+]c1c2ccccc2[n+](C)c2ccc(SCc3ccccc3Cl)cc12 (optimized conformer: 93.41759453275303 kcal/mol)

>  <smiles>  (13) 
CCN(CC)CCNc1c2ccccc2[n+](C)c2ccc(SCc3ccccc3Cl)cc12

>  <score_type>  (13) 
oracle

>  <origin>  (13) 
adg

>  <m_score__min__energy>  (13) 
-6.2300000000000004

>  <m_primary>  (13) 
energy

$$$$
13:0
     RDKit          3D

 54 56  0  0  0  0  0  0  0  0999 V2000
   63.3970   33.0400   47.1280 C   0  0  0  0  0  0  0  0  0  0  0  0
   62.3250   33.8610   46.3980 C   0  0  0  0  0  0  0  0  0  0  0  0
   60.9840   33.7990   47.0290 N   0  0  0  0  0  0  0  0  0  0  0  0
   60.0960   34.9420   46.7150 C   0  0  0  0  0  0  0  0  0  0  0  0
   59.2740   34.6910   45.4510 C   0  0  0  0  0  0  0  0  0  0  0  0
   61.0460   33.5200   48.4840 C   0  0  0  0  0  0  0  0  0  0  0  0
   59.6530   33.6540   49.1050 C   0  0  0  0  0  0  0  0  0  0  0  0
   58.6950   32.5610   48.6150 C   0  0  0  0  0  0  0  0  0  0  0  0
   59.1570   32.0030   47.3440 N   0  0  0  0  0  0  0  0  0  0  0  0
   58.9130   30.6310   46.9880 C   0  0  0  0  0  0  0  0  0  0  0  0
   59.4860   29.5960   47.7450 C   0  0  0  0  0  0  0  0  0  0  0  0
   60.3710   29.8810   48.8050 C   0  0  0  0  0  0  0  0  0  0  0  0
   60.9670   28.8530   49.5310 C   0  0  0  0  0  0  0  0  0  0  0  0
   60.7020   27.5270   49.2040 C   0  0  0  0  0  0  0  0  0  0  0  0
   59.8190   27.2210   48.1690 C   0  0  0  0  0  0  0  0  0  0  0  0
   59.1660   28.2470   47.4380 C   0  0  0  0  0  0  0  0  0  0  0  0
   58.2490   27.9610   46.4440 N   0  0  0  0  0  0  0  0  0  0  0  0
   57.6880   26.5980   46.3220 C   0  0  0  0  0  0  0  0  0  0  0  0
   57.8400   28.9570   45.5740 C   0  0  0  0  0  0  0  0  0  0  0  0
   57.1330   28.6620   44.3800 C   0  0  0  0  0  0  0  0  0  0  0  0
   56.7030   29.6780   43.5200 C   0  0  0  0  0  0  0  0  0  0  0  0
   55.9870   29.3560   42.3240 N   0  0  0  0  0  0  0  0  0  0  0  0
   56.9870   31.0090   43.8260 C   0  0  0  0  0  0  0  0  0  0  0  0
   57.7120   31.3260   44.9720 C   0  0  0  0  0  0  0  0  0  0  0  0
   58.1480   30.3150   45.8530 C   0  0  0  0  0  0  0  0  0  0  0  0
   63.2615   33.1438   48.2147 H   0  0  0  0  0  0  0  0  0  0  0  0
   63.3028   31.9809   46.8462 H   0  0  0  0  0  0  0  0  0  0  0  0
   64.3950   33.4070   46.8462 H   0  0  0  0  0  0  0  0  0  0  0  0
   62.6490   34.9120   46.3768 H   0  0  0  0  0  0  0  0  0  0  0  0
   62.2235   33.4287   45.3916 H   0  0  0  0  0  0  0  0  0  0  0  0
   59.4101   35.1027   47.5598 H   0  0  0  0  0  0  0  0  0  0  0  0
   60.7257   35.8274   46.5434 H   0  0  0  0  0  0  0  0  0  0  0  0
   58.2566   34.3803   45.7309 H   0  0  0  0  0  0  0  0  0  0  0  0
   59.2246   35.6150   44.8562 H   0  0  0  0  0  0  0  0  0  0  0  0
   59.7492   33.8970   44.8562 H   0  0  0  0  0  0  0  0  0  0  0  0
   61.4183   32.4972   48.6428 H   0  0  0  0  0  0  0  0  0  0  0  0
   61.7239   34.2432   48.9608 H   0  0  0  0  0  0  0  0  0  0  0  0
   59.7439   33.5816   50.1988 H   0  0  0  0  0  0  0  0  0  0  0  0
   59.2395   34.6273   48.8023 H   0  0  0  0  0  0  0  0  0  0  0  0
   58.6475   31.7587   49.3660 H   0  0  0  0  0  0  0  0  0  0  0  0
   57.6987   33.0031   48.4668 H   0  0  0  0  0  0  0  0  0  0  0  0
   59.7220   32.6000   46.6990 H   0  0  0  0  0  0  0  0  0  0  0  0
   60.5932   30.9274   49.0614 H   0  0  0  0  0  0  0  0  0  0  0  0
   61.6470   29.0893   50.3627 H   0  0  0  0  0  0  0  0  0  0  0  0
   61.1911   26.7165   49.7643 H   0  0  0  0  0  0  0  0  0  0  0  0
   59.6257   26.1682   47.9154 H   0  0  0  0  0  0  0  0  0  0  0  0
   57.5164   26.1810   47.3253 H   0  0  0  0  0  0  0  0  0  0  0  0
   56.7347   26.6415   45.7750 H   0  0  0  0  0  0  0  0  0  0  0  0
   58.3957   25.9578   45.7750 H   0  0  0  0  0  0  0  0  0  0  0  0
   56.9187   27.6135   44.1254 H   0  0  0  0  0  0  0  0  0  0  0  0
   55.5290   28.4230   42.2100 H   0  0  0  0  0  0  0  0  0  0  0  0
   55.9080   30.0460   41.5440 H   0  0  0  0  0  0  0  0  0  0  0  0
   56.6370   31.8112   43.1596 H   0  0  0  0  0  0  0  0  0  0  0  0
   57.9474   32.3776   45.1926 H   0  0  0  0  0  0  0  0  0  0  0  0
  1  2  1  0
  2  3  1  0
  3  4  1  0
  4  5  1  0
  3  6  1  0
  6  7  1  0
  7  8  1  0
  8  9  1  0
  9 10  1  0
 10 11  2  0
 11 12  1  0
 12 13  2  0
 13 14  1  0
 14 15  2  0
 15 16  1  0
 16 17  2  0
 17 18  1  0
 17 19  1  0
 19 20  2  0
 20 21  1  0
 21 22  1  0
 21 23  2  0
 23 24  1  0
 24 25  2  0
 25 10  1  0
 16 11  1  0
 25 19  1  0
  1 26  1  0
  1 27  1  0
  1 28  1  0
  2 29  1  0
  2 30  1  0
  4 31  1  0
  4 32  1  0
  5 33  1  0
  5 34  1  0
  5 35  1  0
  6 36  1  0
  6 37  1  0
  7 38  1  0
  7 39  1  0
  8 40  1  0
  8 41  1  0
  9 42  1  0
 12 43  1  0
 13 44  1  0
 14 45  1  0
 15 46  1  0
 18 47  1  0
 18 48  1  0
 18 49  1  0
 20 50  1  0
 22 51  1  0
 22 52  1  0
 23 53  1  0
 24 54  1  0
M  CHG  1  17   1
M  END
>  <UniqueID>  (14) 
14

>  <SMILES>  (14) 
CCN(CC)CCCNc1c2ccccc2[n+](C)c2cc(N)ccc12

>  <Energy>  (14) 
79.24926365524526

>  <Genealogy>  (14) 
CCN(CC)CCCNc1c2ccccc2[n+](C)c2cc(N)ccc12 (3D coordinates assigned)
CCN(CC)CCCNc1c2ccccc2[n+](C)c2cc(N)ccc12 (optimized conformer: 79.24926365524526 kcal/mol)

>  <smiles>  (14) 
CCN(CC)CCCNc1c2ccccc2[n+](C)c2cc(N)ccc12

>  <score_type>  (14) 
oracle

>  <origin>  (14) 
adg

>  <m_score__min__energy>  (14) 
-5.46

>  <m_primary>  (14) 
energy

$$$$
14:0
     RDKit          3D

 43 45  0  0  0  0  0  0  0  0999 V2000
   57.7410   25.8840   43.2720 C   0  0  0  0  0  0  0  0  0  0  0  0
   58.1830   27.3180   42.9970 C   0  0  0  0  0  0  0  0  0  0  0  0
   57.8360   28.1930   44.1220 N   0  0  0  0  0  0  0  0  0  0  0  0
   58.4630   28.0310   45.4060 C   0  0  0  0  0  0  0  0  0  0  0  0
   58.2240   26.8760   46.1680 C   0  0  0  0  0  0  0  0  0  0  0  0
   58.8340   26.7140   47.4140 C   0  0  0  0  0  0  0  0  0  0  0  0
   59.6920   27.6980   47.9080 C   0  0  0  0  0  0  0  0  0  0  0  0
   59.9560   28.8490   47.1520 C   0  0  0  0  0  0  0  0  0  0  0  0
   60.8440   29.9270   47.7010 C   0  0  0  0  0  0  0  0  0  0  0  0
   59.3290   29.0180   45.9070 C   0  0  0  0  0  0  0  0  0  0  0  0
   56.6480   29.4410   43.8880 S   0  0  0  0  0  0  0  0  0  0  0  0
   56.0680   29.3180   42.5070 O   0  0  0  0  0  0  0  0  0  0  0  0
   55.5380   29.3030   44.8940 O   0  0  0  0  0  0  0  0  0  0  0  0
   57.4060   31.0140   44.1120 C   0  0  0  0  0  0  0  0  0  0  0  0
   57.8140   31.7470   42.9900 C   0  0  0  0  0  0  0  0  0  0  0  0
   58.3930   33.0090   43.1450 C   0  0  0  0  0  0  0  0  0  0  0  0
   58.5730   33.5450   44.4240 C   0  0  0  0  0  0  0  0  0  0  0  0
   58.1700   32.8140   45.5590 C   0  0  0  0  0  0  0  0  0  0  0  0
   57.5730   31.5540   45.3950 C   0  0  0  0  0  0  0  0  0  0  0  0
   58.2600   33.4450   46.9300 C   0  0  0  0  0  0  0  0  0  0  0  0
   59.4670   34.3870   47.0550 C   0  0  0  0  0  0  0  0  0  0  0  0
   59.5530   35.3070   45.8720 C   0  0  0  0  0  0  0  0  0  0  0  0
   60.0210   36.4680   46.0030 O   0  0  0  0  0  0  0  0  0  0  0  0
   59.1770   34.8330   44.5780 N   0  0  0  0  0  0  0  0  0  0  0  0
   57.6898   25.7180   44.3582 H   0  0  0  0  0  0  0  0  0  0  0  0
   56.7489   25.7146   42.8280 H   0  0  0  0  0  0  0  0  0  0  0  0
   58.4655   25.1855   42.8280 H   0  0  0  0  0  0  0  0  0  0  0  0
   59.2726   27.3375   42.8473 H   0  0  0  0  0  0  0  0  0  0  0  0
   57.6670   27.6801   42.0955 H   0  0  0  0  0  0  0  0  0  0  0  0
   57.5529   26.0948   45.7816 H   0  0  0  0  0  0  0  0  0  0  0  0
   58.6378   25.8088   48.0074 H   0  0  0  0  0  0  0  0  0  0  0  0
   60.1627   27.5700   48.8939 H   0  0  0  0  0  0  0  0  0  0  0  0
   60.8197   29.8975   48.8003 H   0  0  0  0  0  0  0  0  0  0  0  0
   61.8748   29.7658   47.3525 H   0  0  0  0  0  0  0  0  0  0  0  0
   60.4884   30.9079   47.3525 H   0  0  0  0  0  0  0  0  0  0  0  0
   59.5169   29.9290   45.3199 H   0  0  0  0  0  0  0  0  0  0  0  0
   57.6779   31.3270   41.9825 H   0  0  0  0  0  0  0  0  0  0  0  0
   58.7076   33.5816   42.2600 H   0  0  0  0  0  0  0  0  0  0  0  0
   57.2352   30.9886   46.2760 H   0  0  0  0  0  0  0  0  0  0  0  0
   57.3408   34.0196   47.1169 H   0  0  0  0  0  0  0  0  0  0  0  0
   58.3830   32.6376   47.6669 H   0  0  0  0  0  0  0  0  0  0  0  0
   59.3623   34.9870   47.9710 H   0  0  0  0  0  0  0  0  0  0  0  0
   60.3837   33.7803   47.0959 H   0  0  0  0  0  0  0  0  0  0  0  0
  1  2  1  0
  2  3  1  0
  3  4  1  0
  4  5  2  0
  5  6  1  0
  6  7  2  0
  7  8  1  0
  8  9  1  0
  8 10  2  0
  3 11  1  0
 11 12  2  0
 11 13  2  0
 11 14  1  0
 14 15  2  0
 15 16  1  0
 16 17  2  0
 17 18  1  0
 18 19  2  0
 18 20  1  0
 20 21  1  0
 21 22  1  0
 22 23  2  0
 22 24  1  0
 10  4  1  0
 19 14  1  0
 24 17  1  0
  1 25  1  0
  1 26  1  0
  1 27  1  0
  2 28  1  0
  2 29  1  0
  5 30  1  0
  6 31  1  0
  7 32  1  0
  9 33  1  0
  9 34  1  0
  9 35  1  0
 10 36  1  0
 15 37  1  0
 16 38  1  0
 19 39  1  0
 20 40  1  0
 20 41  1  0
 21 42  1  0
 21 43  1  0
M  CHG  1  24  -1
M  END
>  <UniqueID>  (15) 
15

>  <SMILES>  (15) 
CCN(c1cccc(C)c1)S(=O)(=O)c1ccc2c(c1)CCC(=O)[N-]2

>  <Energy>  (15) 
45.95333946456501

>  <Genealogy>  (15) 
CCN(c1cccc(C)c1)S(=O)(=O)c1ccc2c(c1)CCC(=O)[N-]2 (protonated)
CCN(c1cccc(C)c1)S(=O)(=O)c1ccc2c(c1)CCC(=O)[N-]2 (3D coordinates assigned)
CCN(c1cccc(C)c1)S(=O)(=O)c1ccc2c(c1)CCC(=O)[N-]2 (nonaromatic ring conformer: 45.95333946456501 kcal/mol)

>  <smiles>  (15) 
CCN(c1cccc(C)c1)S(=O)(=O)c1ccc2c(c1)CCC(=O)N2

>  <score_type>  (15) 
oracle

>  <origin>  (15) 
adg

>  <m_score__min__energy>  (15) 
-9.4800000000000004

>  <m_primary>  (15) 
energy

$$$$
15:0
     RDKit          3D

 68 70  0  0  0  0  0  0  0  0999 V2000
   57.0120   24.2790   42.9990 C   0  0  0  0  0  0  0  0  0  0  0  0
   56.6920   22.7940   43.2250 C   0  0  0  0  0  0  0  0  0  0  0  0
   55.5130   22.5560   44.0910 N   0  0  0  0  0  0  0  0  0  0  0  0
   55.8490   21.7470   45.2750 C   0  0  0  0  0  0  0  0  0  0  0  0
   54.8170   23.8120   44.4500 C   0  0  0  0  0  0  0  0  0  0  0  0
   54.8310   24.0580   45.9670 C   0  0  0  0  0  0  0  0  0  0  0  0
   55.5300   25.2430   46.2910 O   0  0  0  0  0  0  0  0  0  0  0  0
   56.6510   24.9630   47.1000 C   0  0  0  0  0  0  0  0  0  0  0  0
   57.7500   24.3180   46.2550 C   0  0  0  0  0  0  0  0  0  0  0  0
   58.7740   25.2660   45.9400 O   0  0  0  0  0  0  0  0  0  0  0  0
   58.5710   26.6240   45.6450 C   0  0  0  0  0  0  0  0  0  0  0  0
   58.1890   27.0770   44.3740 C   0  0  0  0  0  0  0  0  0  0  0  0
   58.0520   28.4410   44.1170 C   0  0  0  0  0  0  0  0  0  0  0  0
   58.2880   29.4040   45.1280 C   0  0  0  0  0  0  0  0  0  0  0  0
   58.6330   28.9320   46.4200 C   0  0  0  0  0  0  0  0  0  0  0  0
   58.7630   27.5550   46.6650 C   0  0  0  0  0  0  0  0  0  0  0  0
   58.8680   29.8290   47.4610 C   0  0  0  0  0  0  0  0  0  0  0  0
   58.7820   31.2100   47.2650 C   0  0  0  0  0  0  0  0  0  0  0  0
   59.1000   32.1120   48.4430 C   0  0  0  0  0  0  0  0  0  0  0  0
   60.4880   31.9380   48.9060 N   0  0  0  0  0  0  0  0  0  0  0  0
   61.0470   33.1160   49.5950 C   0  0  0  0  0  0  0  0  0  0  0  0
   62.1680   33.8050   48.7950 C   0  0  0  0  0  0  0  0  0  0  0  0
   62.3390   33.1400   47.4850 N   0  0  0  0  0  0  0  0  0  0  0  0
   61.5700   33.8300   46.4340 C   0  0  0  0  0  0  0  0  0  0  0  0
   63.7600   33.0960   47.1050 C   0  0  0  0  0  0  0  0  0  0  0  0
   58.4530   31.7150   45.9810 C   0  0  0  0  0  0  0  0  0  0  0  0
   58.3740   33.1070   45.7500 C   0  0  0  0  0  0  0  0  0  0  0  0
   58.0580   33.6060   44.4900 C   0  0  0  0  0  0  0  0  0  0  0  0
   57.8180   32.7360   43.4360 C   0  0  0  0  0  0  0  0  0  0  0  0
   57.8880   31.3580   43.6310 C   0  0  0  0  0  0  0  0  0  0  0  0
   58.2030   30.8120   44.9010 C   0  0  0  0  0  0  0  0  0  0  0  0
   57.1205   24.7827   43.9708 H   0  0  0  0  0  0  0  0  0  0  0  0
   57.9503   24.3697   42.4321 H   0  0  0  0  0  0  0  0  0  0  0  0
   56.1943   24.7481   42.4321 H   0  0  0  0  0  0  0  0  0  0  0  0
   56.5021   22.3284   42.2467 H   0  0  0  0  0  0  0  0  0  0  0  0
   57.5593   22.3567   43.7413 H   0  0  0  0  0  0  0  0  0  0  0  0
   55.6129   22.3155   46.1866 H   0  0  0  0  0  0  0  0  0  0  0  0
   55.2631   20.8161   45.2613 H   0  0  0  0  0  0  0  0  0  0  0  0
   56.9220   21.5051   45.2613 H   0  0  0  0  0  0  0  0  0  0  0  0
   55.3181   24.6529   43.9482 H   0  0  0  0  0  0  0  0  0  0  0  0
   53.7690   23.7269   44.1268 H   0  0  0  0  0  0  0  0  0  0  0  0
   53.7945   24.1446   46.3251 H   0  0  0  0  0  0  0  0  0  0  0  0
   55.3415   23.2119   46.4502 H   0  0  0  0  0  0  0  0  0  0  0  0
   57.0285   25.8988   47.5378 H   0  0  0  0  0  0  0  0  0  0  0  0
   56.3564   24.2712   47.9029 H   0  0  0  0  0  0  0  0  0  0  0  0
   58.1930   23.4827   46.8171 H   0  0  0  0  0  0  0  0  0  0  0  0
   57.3051   23.9562   45.3163 H   0  0  0  0  0  0  0  0  0  0  0  0
   57.9955   26.3495   43.5719 H   0  0  0  0  0  0  0  0  0  0  0  0
   57.7555   28.7744   43.1116 H   0  0  0  0  0  0  0  0  0  0  0  0
   59.0200   27.2062   47.6761 H   0  0  0  0  0  0  0  0  0  0  0  0
   59.1265   29.4416   48.4575 H   0  0  0  0  0  0  0  0  0  0  0  0
   58.9546   33.1592   48.1392 H   0  0  0  0  0  0  0  0  0  0  0  0
   58.4271   31.8436   49.2708 H   0  0  0  0  0  0  0  0  0  0  0  0
   61.0880   31.7130   48.0780 H   0  0  0  0  0  0  0  0  0  0  0  0
   60.2375   33.8421   49.7608 H   0  0  0  0  0  0  0  0  0  0  0  0
   61.4852   32.7665   50.5415 H   0  0  0  0  0  0  0  0  0  0  0  0
   61.9050   34.8611   48.6355 H   0  0  0  0  0  0  0  0  0  0  0  0
   63.1092   33.7353   49.3601 H   0  0  0  0  0  0  0  0  0  0  0  0
   60.8282   34.4956   46.8996 H   0  0  0  0  0  0  0  0  0  0  0  0
   62.2537   34.4232   45.8090 H   0  0  0  0  0  0  0  0  0  0  0  0
   61.0541   33.0862   45.8090 H   0  0  0  0  0  0  0  0  0  0  0  0
   64.3817   33.0767   48.0122 H   0  0  0  0  0  0  0  0  0  0  0  0
   63.9524   32.1915   46.5094 H   0  0  0  0  0  0  0  0  0  0  0  0
   64.0080   33.9869   46.5094 H   0  0  0  0  0  0  0  0  0  0  0  0
   58.5650   33.8058   46.5778 H   0  0  0  0  0  0  0  0  0  0  0  0
   57.9983   34.6925   44.3292 H   0  0  0  0  0  0  0  0  0  0  0  0
   57.5712   33.1361   42.4415 H   0  0  0  0  0  0  0  0  0  0  0  0
   57.6955   30.6820   42.7848 H   0  0  0  0  0  0  0  0  0  0  0  0
  1  2  1  0
  2  3  1  0
  3  4  1  0
  3  5  1  0
  5  6  1  0
  6  7  1  0
  7  8  1  0
  8  9  1  0
  9 10  1  0
 10 11  1  0
 11 12  2  0
 12 13  1  0
 13 14  2  0
 14 15  1  0
 15 16  2  0
 15 17  1  0
 17 18  2  0
 18 19  1  0
 19 20  1  0
 20 21  1  0
 21 22  1  0
 22 23  1  0
 23 24  1  0
 23 25  1  0
 18 26  1  0
 26 27  2  0
 27 28  1  0
 28 29  2  0
 29 30  1  0
 30 31  2  0
 16 11  1  0
 31 26  1  0
 31 14  1  0
  1 32  1  0
  1 33  1  0
  1 34  1  0
  2 35  1  0
  2 36  1  0
  4 37  1  0
  4 38  1  0
  4 39  1  0
  5 40  1  0
  5 41  1  0
  6 42  1  0
  6 43  1  0
  8 44  1  0
  8 45  1  0
  9 46  1  0
  9 47  1  0
 12 48  1  0
 13 49  1  0
 16 50  1  0
 17 51  1  0
 19 52  1  0
 19 53  1  0
 20 54  1  0
 21 55  1  0
 21 56  1  0
 22 57  1  0
 22 58  1  0
 24 59  1  0
 24 60  1  0
 24 61  1  0
 25 62  1  0
 25 63  1  0
 25 64  1  0
 27 65  1  0
 28 66  1  0
 29 67  1  0
 30 68  1  0
M  END
>  <UniqueID>  (16) 
16

>  <SMILES>  (16) 
CCN(C)CCOCCOc1ccc2c(c1)cc(CNCCN(C)C)c1ccccc12

>  <Energy>  (16) 
77.66683653744842

>  <Genealogy>  (16) 
CCN(C)CCOCCOc1ccc2c(c1)cc(CNCCN(C)C)c1ccccc12 (3D coordinates assigned)
CCN(C)CCOCCOc1ccc2c(c1)cc(CNCCN(C)C)c1ccccc12 (optimized conformer: 77.66683653744842 kcal/mol)

>  <smiles>  (16) 
CCN(C)CCOCCOc1ccc2c(c1)cc(CNCCN(C)C)c1ccccc12

>  <score_type>  (16) 
oracle

>  <origin>  (16) 
adg

>  <m_score__min__energy>  (16) 
-7.9199999999999999

>  <m_primary>  (16) 
energy

$$$$
16:0
     RDKit          3D

 76 79  0  0  0  0  0  0  0  0999 V2000
   56.7510   24.0230   42.9940 C   0  0  0  0  0  0  0  0  0  0  0  0
   56.0770   22.6630   42.8270 C   0  0  0  0  0  0  0  0  0  0  0  0
   57.0510   21.5060   43.0820 C   0  0  0  0  0  0  0  0  0  0  0  0
   56.5980   20.6740   44.2080 N   0  0  0  0  0  0  0  0  0  0  0  0
   56.1500   21.4670   45.3700 C   0  0  0  0  0  0  0  0  0  0  0  0
   57.3190   22.0180   46.2080 C   0  0  0  0  0  0  0  0  0  0  0  0
   57.4760   23.5070   46.0480 C   0  0  0  0  0  0  0  0  0  0  0  0
   56.3740   24.3570   46.2310 C   0  0  0  0  0  0  0  0  0  0  0  0
   56.5040   25.7350   46.0310 C   0  0  0  0  0  0  0  0  0  0  0  0
   57.7350   26.2850   45.6350 C   0  0  0  0  0  0  0  0  0  0  0  0
   57.8700   27.7460   45.4070 C   0  0  0  0  0  0  0  0  0  0  0  0
   57.3890   28.3290   44.2310 C   0  0  0  0  0  0  0  0  0  0  0  0
   57.5100   29.6990   44.0160 C   0  0  0  0  0  0  0  0  0  0  0  0
   58.1360   30.5410   44.9690 C   0  0  0  0  0  0  0  0  0  0  0  0
   58.5800   29.9600   46.1850 C   0  0  0  0  0  0  0  0  0  0  0  0
   58.4640   28.5660   46.3760 C   0  0  0  0  0  0  0  0  0  0  0  0
   59.1390   30.7810   47.1820 C   0  0  0  0  0  0  0  0  0  0  0  0
   59.6630   30.2070   48.3930 N   0  0  0  0  0  0  0  0  0  0  0  0
   61.1020   30.0250   48.5750 C   0  0  0  0  0  0  0  0  0  0  0  0
   61.8770   30.8280   47.5110 C   0  0  0  0  0  0  0  0  0  0  0  0
   62.9370   31.7210   48.0450 N   0  0  0  0  0  0  0  0  0  0  0  0
   62.5710   32.4470   49.2810 C   0  0  0  0  0  0  0  0  0  0  0  0
   63.7370   33.2090   49.9140 C   0  0  0  0  0  0  0  0  0  0  0  0
   63.6850   32.5360   47.0640 C   0  0  0  0  0  0  0  0  0  0  0  0
   62.8940   33.7820   46.6730 C   0  0  0  0  0  0  0  0  0  0  0  0
   59.1280   32.1770   47.0110 C   0  0  0  0  0  0  0  0  0  0  0  0
   59.5270   33.0370   48.0560 C   0  0  0  0  0  0  0  0  0  0  0  0
   59.4710   34.4200   47.9020 C   0  0  0  0  0  0  0  0  0  0  0  0
   58.9970   34.9700   46.7170 C   0  0  0  0  0  0  0  0  0  0  0  0
   58.5930   34.1400   45.6720 C   0  0  0  0  0  0  0  0  0  0  0  0
   58.6750   32.7280   45.7810 C   0  0  0  0  0  0  0  0  0  0  0  0
   58.3090   31.8940   44.7420 N   0  0  0  0  0  0  0  0  0  0  0  0
   58.1230   32.4460   43.3800 C   0  0  0  0  0  0  0  0  0  0  0  0
   58.8360   25.4300   45.4520 C   0  0  0  0  0  0  0  0  0  0  0  0
   58.7070   24.0540   45.6550 C   0  0  0  0  0  0  0  0  0  0  0  0
   56.8625   24.2479   44.0650 H   0  0  0  0  0  0  0  0  0  0  0  0
   57.7428   24.0016   42.5187 H   0  0  0  0  0  0  0  0  0  0  0  0
   56.1333   24.7992   42.5187 H   0  0  0  0  0  0  0  0  0  0  0  0
   55.2431   22.5895   43.5406 H   0  0  0  0  0  0  0  0  0  0  0  0
   55.7197   22.5851   41.7896 H   0  0  0  0  0  0  0  0  0  0  0  0
   57.1147   20.8834   42.1774 H   0  0  0  0  0  0  0  0  0  0  0  0
   58.0367   21.9260   43.3308 H   0  0  0  0  0  0  0  0  0  0  0  0
   57.3620   20.0150   44.4840 H   0  0  0  0  0  0  0  0  0  0  0  0
   55.5495   22.3138   45.0062 H   0  0  0  0  0  0  0  0  0  0  0  0
   55.5654   20.7987   46.0193 H   0  0  0  0  0  0  0  0  0  0  0  0
   57.1328   21.7926   47.2684 H   0  0  0  0  0  0  0  0  0  0  0  0
   58.2445   21.5393   45.8556 H   0  0  0  0  0  0  0  0  0  0  0  0
   55.4033   23.9371   46.5332 H   0  0  0  0  0  0  0  0  0  0  0  0
   55.6362   26.3932   46.1848 H   0  0  0  0  0  0  0  0  0  0  0  0
   56.9099   27.6985   43.4675 H   0  0  0  0  0  0  0  0  0  0  0  0
   57.1121   30.1366   43.0886 H   0  0  0  0  0  0  0  0  0  0  0  0
   58.8472   28.1148   47.3031 H   0  0  0  0  0  0  0  0  0  0  0  0
   59.0210   29.6680   49.0150 H   0  0  0  0  0  0  0  0  0  0  0  0
   61.3893   30.3768   49.5768 H   0  0  0  0  0  0  0  0  0  0  0  0
   61.3460   28.9577   48.4686 H   0  0  0  0  0  0  0  0  0  0  0  0
   62.3492   30.1130   46.8212 H   0  0  0  0  0  0  0  0  0  0  0  0
   61.1399   31.4838   47.0246 H   0  0  0  0  0  0  0  0  0  0  0  0
   61.7761   33.1675   49.0382 H   0  0  0  0  0  0  0  0  0  0  0  0
   62.2445   31.6930   50.0123 H   0  0  0  0  0  0  0  0  0  0  0  0
   63.6573   33.1569   51.0099 H   0  0  0  0  0  0  0  0  0  0  0  0
   64.6874   32.7571   49.5936 H   0  0  0  0  0  0  0  0  0  0  0  0
   63.7047   34.2608   49.5936 H   0  0  0  0  0  0  0  0  0  0  0  0
   64.6438   32.8428   47.5075 H   0  0  0  0  0  0  0  0  0  0  0  0
   63.8547   31.9305   46.1615 H   0  0  0  0  0  0  0  0  0  0  0  0
   62.5617   34.3055   47.5816 H   0  0  0  0  0  0  0  0  0  0  0  0
   63.5335   34.4505   46.0778 H   0  0  0  0  0  0  0  0  0  0  0  0
   62.0170   33.4878   46.0778 H   0  0  0  0  0  0  0  0  0  0  0  0
   59.8866   32.6099   49.0038 H   0  0  0  0  0  0  0  0  0  0  0  0
   59.8023   35.0777   48.7191 H   0  0  0  0  0  0  0  0  0  0  0  0
   58.9404   36.0626   46.6032 H   0  0  0  0  0  0  0  0  0  0  0  0
   58.2035   34.5883   44.7461 H   0  0  0  0  0  0  0  0  0  0  0  0
   57.7725   33.4863   43.4507 H   0  0  0  0  0  0  0  0  0  0  0  0
   59.0803   32.4176   42.8390 H   0  0  0  0  0  0  0  0  0  0  0  0
   57.3781   31.8440   42.8390 H   0  0  0  0  0  0  0  0  0  0  0  0
   59.8066   25.8479   45.1466 H   0  0  0  0  0  0  0  0  0  0  0  0
   59.5754   23.3955   45.5059 H   0  0  0  0  0  0  0  0  0  0  0  0
  1  2  1  0
  2  3  1  0
  3  4  1  0
  4  5  1  0
  5  6  1  0
  6  7  1  0
  7  8  2  0
  8  9  1  0
  9 10  2  0
 10 11  1  0
 11 12  2  0
 12 13  1  0
 13 14  2  0
 14 15  1  0
 15 16  2  0
 15 17  1  0
 17 18  1  0
 18 19  1  0
 19 20  1  0
 20 21  1  0
 21 22  1  0
 22 23  1  0
 21 24  1  0
 24 25  1  0
 17 26  2  0
 26 27  1  0
 27 28  2  0
 28 29  1  0
 29 30  2  0
 30 31  1  0
 31 32  2  0
 32 33  1  0
 10 34  1  0
 34 35  2  0
 35  7  1  0
 16 11  1  0
 31 26  1  0
 32 14  1  0
  1 36  1  0
  1 37  1  0
  1 38  1  0
  2 39  1  0
  2 40  1  0
  3 41  1  0
  3 42  1  0
  4 43  1  0
  5 44  1  0
  5 45  1  0
  6 46  1  0
  6 47  1  0
  8 48  1  0
  9 49  1  0
 12 50  1  0
 13 51  1  0
 16 52  1  0
 18 53  1  0
 19 54  1  0
 19 55  1  0
 20 56  1  0
 20 57  1  0
 22 58  1  0
 22 59  1  0
 23 60  1  0
 23 61  1  0
 23 62  1  0
 24 63  1  0
 24 64  1  0
 25 65  1  0
 25 66  1  0
 25 67  1  0
 27 68  1  0
 28 69  1  0
 29 70  1  0
 30 71  1  0
 33 72  1  0
 33 73  1  0
 33 74  1  0
 34 75  1  0
 35 76  1  0
M  CHG  1  32   1
M  END
>  <UniqueID>  (17) 
17

>  <SMILES>  (17) 
CCCNCCc1ccc(-c2ccc3c(c2)c(NCCN(CC)CC)c2ccccc2[n+]3C)cc1

>  <Energy>  (17) 
108.1385648589318

>  <Genealogy>  (17) 
CCCNCCc1ccc(-c2ccc3c(c2)c(NCCN(CC)CC)c2ccccc2[n+]3C)cc1 (3D coordinates assigned)
CCCNCCc1ccc(-c2ccc3c(c2)c(NCCN(CC)CC)c2ccccc2[n+]3C)cc1 (optimized conformer: 108.1385648589318 kcal/mol)

>  <smiles>  (17) 
CCCNCCc1ccc(-c2ccc3c(c2)c(NCCN(CC)CC)c2ccccc2[n+]3C)cc1

>  <score_type>  (17) 
oracle

>  <origin>  (17) 
adg

>  <m_score__min__energy>  (17) 
-8.2200000000000006

>  <m_primary>  (17) 
energy

$$$$
17:0
     RDKit          3D

 56 59  0  0  0  0  0  0  0  0999 V2000
   60.4540   28.9090   45.0260 C   0  0  0  0  0  0  0  0  0  0  0  0
   58.9470   28.5910   45.1130 C   0  0  0  0  0  0  0  0  0  0  0  0
   58.2080   28.5640   43.8180 N   0  0  0  0  0  0  0  0  0  0  0  0
   58.0390   27.1920   43.2630 C   0  0  0  0  0  0  0  0  0  0  0  0
   57.7750   26.0910   44.2980 C   0  0  0  0  0  0  0  0  0  0  0  0
   56.9650   29.3880   43.8310 C   0  0  0  0  0  0  0  0  0  0  0  0
   57.2010   30.8850   43.5460 C   0  0  0  0  0  0  0  0  0  0  0  0
   56.9520   31.6890   44.7420 N   0  0  0  0  0  0  0  0  0  0  0  0
   57.8750   32.6850   45.2170 C   0  0  0  0  0  0  0  0  0  0  0  0
   57.9500   33.9240   44.5600 C   0  0  0  0  0  0  0  0  0  0  0  0
   58.8290   34.9130   45.0040 C   0  0  0  0  0  0  0  0  0  0  0  0
   59.6480   34.6810   46.1050 C   0  0  0  0  0  0  0  0  0  0  0  0
   59.5930   33.4530   46.7830 C   0  0  0  0  0  0  0  0  0  0  0  0
   60.4390   33.2220   47.8780 C   0  0  0  0  0  0  0  0  0  0  0  0
   60.4140   31.9930   48.5810 C   0  0  0  0  0  0  0  0  0  0  0  0
   59.5360   30.9830   48.1170 C   0  0  0  0  0  0  0  0  0  0  0  0
   59.5340   29.7350   48.7370 C   0  0  0  0  0  0  0  0  0  0  0  0
   60.4560   29.4530   49.7400 C   0  0  0  0  0  0  0  0  0  0  0  0
   60.5160   28.1620   50.2900 C   0  0  0  0  0  0  0  0  0  0  0  0
   61.4870   27.8480   51.2380 C   0  0  0  0  0  0  0  0  0  0  0  0
   62.4090   28.8100   51.6360 C   0  0  0  0  0  0  0  0  0  0  0  0
   62.3490   30.1030   51.1130 C   0  0  0  0  0  0  0  0  0  0  0  0
   61.3470   30.4650   50.1780 C   0  0  0  0  0  0  0  0  0  0  0  0
   61.2340   31.7510   49.6730 N   0  0  0  0  0  0  0  0  0  0  0  0
   61.9720   32.8670   50.3080 C   0  0  0  0  0  0  0  0  0  0  0  0
   58.6850   31.2140   47.0260 C   0  0  0  0  0  0  0  0  0  0  0  0
   58.6980   32.4450   46.3470 C   0  0  0  0  0  0  0  0  0  0  0  0
   60.8694   28.9967   46.0408 H   0  0  0  0  0  0  0  0  0  0  0  0
   60.9690   28.0998   44.4876 H   0  0  0  0  0  0  0  0  0  0  0  0
   60.5981   29.8573   44.4876 H   0  0  0  0  0  0  0  0  0  0  0  0
   58.8384   27.6024   45.5830 H   0  0  0  0  0  0  0  0  0  0  0  0
   58.5031   29.4155   45.6902 H   0  0  0  0  0  0  0  0  0  0  0  0
   58.8610   29.0310   43.1460 H   0  0  0  0  0  0  0  0  0  0  0  0
   57.1900   27.2110   42.5638 H   0  0  0  0  0  0  0  0  0  0  0  0
   58.9978   26.9373   42.7877 H   0  0  0  0  0  0  0  0  0  0  0  0
   57.8751   26.5083   45.3108 H   0  0  0  0  0  0  0  0  0  0  0  0
   56.7569   25.6970   44.1627 H   0  0  0  0  0  0  0  0  0  0  0  0
   58.5037   25.2782   44.1627 H   0  0  0  0  0  0  0  0  0  0  0  0
   56.2809   28.9939   43.0651 H   0  0  0  0  0  0  0  0  0  0  0  0
   56.5488   29.3195   44.8469 H   0  0  0  0  0  0  0  0  0  0  0  0
   58.2428   31.0306   43.2245 H   0  0  0  0  0  0  0  0  0  0  0  0
   56.5068   31.2062   42.7555 H   0  0  0  0  0  0  0  0  0  0  0  0
   56.0400   31.5600   45.2420 H   0  0  0  0  0  0  0  0  0  0  0  0
   57.3095   34.1169   43.6867 H   0  0  0  0  0  0  0  0  0  0  0  0
   58.8746   35.8799   44.4815 H   0  0  0  0  0  0  0  0  0  0  0  0
   60.3418   35.4637   46.4456 H   0  0  0  0  0  0  0  0  0  0  0  0
   61.1357   34.0113   48.1969 H   0  0  0  0  0  0  0  0  0  0  0  0
   58.8025   28.9718   48.4330 H   0  0  0  0  0  0  0  0  0  0  0  0
   59.7936   27.3962   49.9710 H   0  0  0  0  0  0  0  0  0  0  0  0
   61.5246   26.8381   51.6723 H   0  0  0  0  0  0  0  0  0  0  0  0
   63.1895   28.5508   52.3666 H   0  0  0  0  0  0  0  0  0  0  0  0
   63.0898   30.8514   51.4310 H   0  0  0  0  0  0  0  0  0  0  0  0
   61.9094   32.7724   51.4021 H   0  0  0  0  0  0  0  0  0  0  0  0
   63.0265   32.8333   49.9968 H   0  0  0  0  0  0  0  0  0  0  0  0
   61.5282   33.8242   49.9968 H   0  0  0  0  0  0  0  0  0  0  0  0
   57.9977   30.4206   46.6971 H   0  0  0  0  0  0  0  0  0  0  0  0
  1  2  1  0
  2  3  1  0
  3  4  1  0
  4  5  1  0
  3  6  1  0
  6  7  1  0
  7  8  1  0
  8  9  1  0
  9 10  2  0
 10 11  1  0
 11 12  2  0
 12 13  1  0
 13 14  2  0
 14 15  1  0
 15 16  2  0
 16 17  1  0
 17 18  2  0
 18 19  1  0
 19 20  2  0
 20 21  1  0
 21 22  2  0
 22 23  1  0
 23 24  2  0
 24 25  1  0
 16 26  1  0
 26 27  2  0
 27  9  1  0
 27 13  1  0
 24 15  1  0
 23 18  1  0
  1 28  1  0
  1 29  1  0
  1 30  1  0
  2 31  1  0
  2 32  1  0
  3 33  1  0
  4 34  1  0
  4 35  1  0
  5 36  1  0
  5 37  1  0
  5 38  1  0
  6 39  1  0
  6 40  1  0
  7 41  1  0
  7 42  1  0
  8 43  1  0
 10 44  1  0
 11 45  1  0
 12 46  1  0
 14 47  1  0
 17 48  1  0
 19 49  1  0
 20 50  1  0
 21 51  1  0
 22 52  1  0
 25 53  1  0
 25 54  1  0
 25 55  1  0
 26 56  1  0
M  CHG  2   3   1  24   1
M  END
>  <UniqueID>  (18) 
18

>  <SMILES>  (18) 
CC[NH+](CC)CCNc1cccc2cc3c(cc4ccccc4[n+]3C)cc12

>  <Energy>  (18) 
92.64945201209802

>  <Genealogy>  (18) 
CC[NH+](CC)CCNc1cccc2cc3c(cc4ccccc4[n+]3C)cc12 (protonated)
CC[NH+](CC)CCNc1cccc2cc3c(cc4ccccc4[n+]3C)cc12 (3D coordinates assigned)
CC[NH+](CC)CCNc1cccc2cc3c(cc4ccccc4[n+]3C)cc12 (optimized conformer: 92.64945201209802 kcal/mol)

>  <smiles>  (18) 
CCN(CC)CCNc1cccc2cc3c(cc4ccccc4[n+]3C)cc12

>  <score_type>  (18) 
oracle

>  <origin>  (18) 
adg

>  <m_score__min__energy>  (18) 
-5.2300000000000004

>  <m_primary>  (18) 
energy

$$$$
18:0
     RDKit          3D

 40 42  0  0  0  0  0  0  0  0999 V2000
   57.7850   28.0660   44.2620 C   0  0  0  0  0  0  0  0  0  0  0  0
   56.8360   28.3540   45.4170 C   0  0  0  0  0  0  0  0  0  0  0  0
   55.7310   29.2030   44.9530 N   0  0  0  0  0  0  0  0  0  0  0  0
   55.9540   29.7270   43.5950 C   0  0  0  0  0  0  0  0  0  0  0  0
   56.6310   31.1110   43.5850 C   0  0  0  0  0  0  0  0  0  0  0  0
   56.6920   31.6790   44.8900 O   0  0  0  0  0  0  0  0  0  0  0  0
   57.7640   32.3700   45.4830 C   0  0  0  0  0  0  0  0  0  0  0  0
   57.7140   33.7780   45.4490 C   0  0  0  0  0  0  0  0  0  0  0  0
   58.7320   34.5610   46.0270 C   0  0  0  0  0  0  0  0  0  0  0  0
   59.8360   33.9540   46.6390 C   0  0  0  0  0  0  0  0  0  0  0  0
   59.8990   32.5590   46.6410 C   0  0  0  0  0  0  0  0  0  0  0  0
   58.8930   31.7830   46.1040 C   0  0  0  0  0  0  0  0  0  0  0  0
   59.2930   30.4790   46.3620 C   0  0  0  0  0  0  0  0  0  0  0  0
   60.4720   30.5000   47.0210 N   0  0  0  0  0  0  0  0  0  0  0  0
   60.8440   31.7630   47.1800 N   0  0  0  0  0  0  0  0  0  0  0  0
   62.0650   32.1460   47.8330 C   0  0  0  0  0  0  0  0  0  0  0  0
   62.9180   33.0820   47.2270 C   0  0  0  0  0  0  0  0  0  0  0  0
   64.0970   33.4790   47.8650 C   0  0  0  0  0  0  0  0  0  0  0  0
   64.4260   32.9550   49.1190 C   0  0  0  0  0  0  0  0  0  0  0  0
   65.5690   33.3430   49.7380 F   0  0  0  0  0  0  0  0  0  0  0  0
   63.5710   32.0390   49.7390 C   0  0  0  0  0  0  0  0  0  0  0  0
   62.3920   31.6400   49.1030 C   0  0  0  0  0  0  0  0  0  0  0  0
   58.7665   27.7681   44.6594 H   0  0  0  0  0  0  0  0  0  0  0  0
   57.3763   27.2514   43.6460 H   0  0  0  0  0  0  0  0  0  0  0  0
   57.8979   28.9703   43.6460 H   0  0  0  0  0  0  0  0  0  0  0  0
   56.4315   27.4064   45.8023 H   0  0  0  0  0  0  0  0  0  0  0  0
   57.3838   28.8752   46.2159 H   0  0  0  0  0  0  0  0  0  0  0  0
   55.6050   30.0000   45.6210 H   0  0  0  0  0  0  0  0  0  0  0  0
   56.5947   29.0199   43.0477 H   0  0  0  0  0  0  0  0  0  0  0  0
   54.9678   29.8408   43.1212 H   0  0  0  0  0  0  0  0  0  0  0  0
   57.6539   31.0043   43.1948 H   0  0  0  0  0  0  0  0  0  0  0  0
   56.0331   31.7798   42.9484 H   0  0  0  0  0  0  0  0  0  0  0  0
   56.8628   34.2754   44.9612 H   0  0  0  0  0  0  0  0  0  0  0  0
   58.6595   35.6582   45.9976 H   0  0  0  0  0  0  0  0  0  0  0  0
   60.6293   34.5578   47.1039 H   0  0  0  0  0  0  0  0  0  0  0  0
   58.7384   29.5732   46.0756 H   0  0  0  0  0  0  0  0  0  0  0  0
   62.6575   33.5050   46.2456 H   0  0  0  0  0  0  0  0  0  0  0  0
   64.7666   34.2045   47.3799 H   0  0  0  0  0  0  0  0  0  0  0  0
   63.8264   31.6318   50.7284 H   0  0  0  0  0  0  0  0  0  0  0  0
   61.7170   30.9268   49.5986 H   0  0  0  0  0  0  0  0  0  0  0  0
  1  2  1  0
  2  3  1  0
  3  4  1  0
  4  5  1  0
  5  6  1  0
  6  7  1  0
  7  8  2  0
  8  9  1  0
  9 10  2  0
 10 11  1  0
 11 12  2  0
 12 13  1  0
 13 14  2  0
 14 15  1  0
 15 16  1  0
 16 17  2  0
 17 18  1  0
 18 19  2  0
 19 20  1  0
 19 21  1  0
 21 22  2  0
 12  7  1  0
 22 16  1  0
 15 11  1  0
  1 23  1  0
  1 24  1  0
  1 25  1  0
  2 26  1  0
  2 27  1  0
  3 28  1  0
  4 29  1  0
  4 30  1  0
  5 31  1  0
  5 32  1  0
  8 33  1  0
  9 34  1  0
 10 35  1  0
 13 36  1  0
 17 37  1  0
 18 38  1  0
 21 39  1  0
 22 40  1  0
M  END
>  <UniqueID>  (19) 
19

>  <SMILES>  (19) 
CCNCCOc1cccc2c1cnn2-c1ccc(F)cc1

>  <Energy>  (19) 
87.0761082493779

>  <Genealogy>  (19) 
CCNCCOc1cccc2c1cnn2-c1ccc(F)cc1 (3D coordinates assigned)
CCNCCOc1cccc2c1cnn2-c1ccc(F)cc1 (optimized conformer: 87.0761082493779 kcal/mol)

>  <smiles>  (19) 
CCNCCOc1cccc2c1cnn2-c1ccc(F)cc1

>  <score_type>  (19) 
oracle

>  <origin>  (19) 
adg

>  <m_score__min__energy>  (19) 
-7.5

>  <m_primary>  (19) 
energy

$$$$
19:0
     RDKit          3D

 39 41  0  0  0  0  0  0  0  0999 V2000
   56.6530   22.2000   42.6640 C   0  0  0  0  0  0  0  0  0  0  0  0
   56.9360   21.1140   43.7060 C   0  0  0  0  0  0  0  0  0  0  0  0
   58.2640   21.2740   44.3330 N   0  0  0  0  0  0  0  0  0  0  0  0
   58.4480   22.5930   44.9740 C   0  0  0  0  0  0  0  0  0  0  0  0
   57.2180   23.0320   45.7780 C   0  0  0  0  0  0  0  0  0  0  0  0
   57.6160   23.8860   46.8490 O   0  0  0  0  0  0  0  0  0  0  0  0
   57.7550   25.2780   46.7450 C   0  0  0  0  0  0  0  0  0  0  0  0
   58.9050   25.8710   47.2790 C   0  0  0  0  0  0  0  0  0  0  0  0
   59.0860   27.2560   47.2160 C   0  0  0  0  0  0  0  0  0  0  0  0
   58.1160   28.0610   46.6130 C   0  0  0  0  0  0  0  0  0  0  0  0
   56.9750   27.4780   46.0350 C   0  0  0  0  0  0  0  0  0  0  0  0
   56.7890   26.0900   46.1180 C   0  0  0  0  0  0  0  0  0  0  0  0
   56.0790   28.2780   45.2490 N   0  0  0  0  0  0  0  0  0  0  0  0
   56.5760   29.4230   44.5380 C   0  0  0  0  0  0  0  0  0  0  0  0
   56.0370   29.7660   43.2890 C   0  0  0  0  0  0  0  0  0  0  0  0
   56.6270   30.7740   42.5210 C   0  0  0  0  0  0  0  0  0  0  0  0
   57.7630   31.4390   42.9910 C   0  0  0  0  0  0  0  0  0  0  0  0
   58.2960   31.1160   44.2430 C   0  0  0  0  0  0  0  0  0  0  0  0
   57.6940   30.1240   45.0250 C   0  0  0  0  0  0  0  0  0  0  0  0
   58.2560   29.8480   46.7070 S   0  0  0  0  0  0  0  0  0  0  0  0
   56.4073   23.1429   43.1745 H   0  0  0  0  0  0  0  0  0  0  0  0
   57.5433   22.3451   42.0345 H   0  0  0  0  0  0  0  0  0  0  0  0
   55.8051   21.8921   42.0345 H   0  0  0  0  0  0  0  0  0  0  0  0
   56.1658   21.1658   44.4897 H   0  0  0  0  0  0  0  0  0  0  0  0
   56.9203   20.1413   43.1925 H   0  0  0  0  0  0  0  0  0  0  0  0
   58.3960   20.5130   45.0400 H   0  0  0  0  0  0  0  0  0  0  0  0
   59.0100   21.1410   43.6110 H   0  0  0  0  0  0  0  0  0  0  0  0
   59.3119   22.5379   45.6528 H   0  0  0  0  0  0  0  0  0  0  0  0
   58.6072   23.3331   44.1760 H   0  0  0  0  0  0  0  0  0  0  0  0
   56.5253   23.5743   45.1175 H   0  0  0  0  0  0  0  0  0  0  0  0
   56.7196   22.1426   46.1909 H   0  0  0  0  0  0  0  0  0  0  0  0
   59.6731   25.2418   47.7524 H   0  0  0  0  0  0  0  0  0  0  0  0
   59.9922   27.7120   47.6412 H   0  0  0  0  0  0  0  0  0  0  0  0
   55.8840   25.6330   45.6912 H   0  0  0  0  0  0  0  0  0  0  0  0
   55.1620   27.8680   44.9590 H   0  0  0  0  0  0  0  0  0  0  0  0
   55.1472   29.2400   42.9128 H   0  0  0  0  0  0  0  0  0  0  0  0
   56.1967   31.0442   41.5454 H   0  0  0  0  0  0  0  0  0  0  0  0
   58.2382   32.2171   42.3756 H   0  0  0  0  0  0  0  0  0  0  0  0
   59.1885   31.6418   44.6130 H   0  0  0  0  0  0  0  0  0  0  0  0
  1  2  1  0
  2  3  1  0
  3  4  1  0
  4  5  1  0
  5  6  1  0
  6  7  1  0
  7  8  2  0
  8  9  1  0
  9 10  2  0
 10 11  1  0
 11 12  2  0
 11 13  1  0
 13 14  1  0
 14 15  2  0
 15 16  1  0
 16 17  2  0
 17 18  1  0
 18 19  2  0
 19 20  1  0
 12  7  1  0
 19 14  1  0
 20 10  1  0
  1 21  1  0
  1 22  1  0
  1 23  1  0
  2 24  1  0
  2 25  1  0
  3 26  1  0
  3 27  1  0
  4 28  1  0
  4 29  1  0
  5 30  1  0
  5 31  1  0
  8 32  1  0
  9 33  1  0
 12 34  1  0
 13 35  1  0
 15 36  1  0
 16 37  1  0
 17 38  1  0
 18 39  1  0
M  CHG  1   3   1
M  END
>  <UniqueID>  (20) 
20

>  <SMILES>  (20) 
CC[NH2+]CCOc1ccc2c(c1)Nc1ccccc1S2

>  <Energy>  (20) 
52.7942442293544

>  <Genealogy>  (20) 
CC[NH2+]CCOc1ccc2c(c1)Nc1ccccc1S2 (protonated)
CC[NH2+]CCOc1ccc2c(c1)Nc1ccccc1S2 (3D coordinates assigned)
CC[NH2+]CCOc1ccc2c(c1)Nc1ccccc1S2 (nonaromatic ring conformer: 52.7942442293544 kcal/mol)

>  <smiles>  (20) 
CCNCCOc1ccc2c(c1)Nc1ccccc1S2

>  <score_type>  (20) 
oracle

>  <origin>  (20) 
adg

>  <m_score__min__energy>  (20) 
-6.1600000000000001

>  <m_primary>  (20) 
energy

$$$$
20:0
     RDKit          3D

 59 61  0  0  0  0  0  0  0  0999 V2000
   58.2750   29.7530   51.9990 C   0  0  0  0  0  0  0  0  0  0  0  0
   57.6120   30.8930   51.3460 N   0  0  0  0  0  0  0  0  0  0  0  0
   56.1670   30.8610   51.6350 C   0  0  0  0  0  0  0  0  0  0  0  0
   58.2140   32.1710   51.7850 C   0  0  0  0  0  0  0  0  0  0  0  0
   59.3510   32.5760   50.8340 C   0  0  0  0  0  0  0  0  0  0  0  0
   59.6780   31.4850   49.8950 N   0  0  0  0  0  0  0  0  0  0  0  0
   60.6160   31.9440   48.8730 C   0  0  0  0  0  0  0  0  0  0  0  0
   62.0050   32.0140   49.1810 C   0  0  0  0  0  0  0  0  0  0  0  0
   62.5530   31.3110   50.2850 C   0  0  0  0  0  0  0  0  0  0  0  0
   63.8990   31.4210   50.6170 C   0  0  0  0  0  0  0  0  0  0  0  0
   64.7320   32.2410   49.8730 C   0  0  0  0  0  0  0  0  0  0  0  0
   64.2300   32.9370   48.7780 C   0  0  0  0  0  0  0  0  0  0  0  0
   62.8700   32.8150   48.3830 C   0  0  0  0  0  0  0  0  0  0  0  0
   62.3790   33.4930   47.2840 N   0  0  0  0  0  0  0  0  0  0  0  0
   63.3170   34.1760   46.3610 C   0  0  0  0  0  0  0  0  0  0  0  0
   61.0240   33.4850   47.0090 C   0  0  0  0  0  0  0  0  0  0  0  0
   60.4610   34.3840   46.0710 C   0  0  0  0  0  0  0  0  0  0  0  0
   59.1310   34.2840   45.6880 C   0  0  0  0  0  0  0  0  0  0  0  0
   58.3480   33.2510   46.1710 C   0  0  0  0  0  0  0  0  0  0  0  0
   58.8630   32.3400   47.1120 C   0  0  0  0  0  0  0  0  0  0  0  0
   58.1580   31.1630   47.4270 O   0  0  0  0  0  0  0  0  0  0  0  0
   58.2860   29.8810   46.8060 C   0  0  0  0  0  0  0  0  0  0  0  0
   58.2560   30.0080   45.2790 C   0  0  0  0  0  0  0  0  0  0  0  0
   57.0250   30.6950   44.8250 N   0  0  0  0  0  0  0  0  0  0  0  0
   55.9710   29.7200   44.4920 C   0  0  0  0  0  0  0  0  0  0  0  0
   57.3050   31.5370   43.6510 C   0  0  0  0  0  0  0  0  0  0  0  0
   60.1540   32.5800   47.6810 C   0  0  0  0  0  0  0  0  0  0  0  0
   58.2088   29.8668   53.0911 H   0  0  0  0  0  0  0  0  0  0  0  0
   57.7795   28.8185   51.6970 H   0  0  0  0  0  0  0  0  0  0  0  0
   59.3323   29.7216   51.6970 H   0  0  0  0  0  0  0  0  0  0  0  0
   56.0108   30.8575   52.7239 H   0  0  0  0  0  0  0  0  0  0  0  0
   55.6860   31.7487   51.1984 H   0  0  0  0  0  0  0  0  0  0  0  0
   55.7258   29.9529   51.1984 H   0  0  0  0  0  0  0  0  0  0  0  0
   57.4427   32.9553   51.7841 H   0  0  0  0  0  0  0  0  0  0  0  0
   58.6214   32.0463   52.7991 H   0  0  0  0  0  0  0  0  0  0  0  0
   59.0402   33.4616   50.2603 H   0  0  0  0  0  0  0  0  0  0  0  0
   60.2452   32.7966   51.4355 H   0  0  0  0  0  0  0  0  0  0  0  0
   58.7780   31.1590   49.5070 H   0  0  0  0  0  0  0  0  0  0  0  0
   60.0580   30.6550   50.4030 H   0  0  0  0  0  0  0  0  0  0  0  0
   61.8998   30.6657   50.8907 H   0  0  0  0  0  0  0  0  0  0  0  0
   64.3025   30.8567   51.4707 H   0  0  0  0  0  0  0  0  0  0  0  0
   65.7921   32.3419   50.1486 H   0  0  0  0  0  0  0  0  0  0  0  0
   64.8998   33.5957   48.2057 H   0  0  0  0  0  0  0  0  0  0  0  0
   64.0709   34.7249   46.9444 H   0  0  0  0  0  0  0  0  0  0  0  0
   63.8167   33.4288   45.7269 H   0  0  0  0  0  0  0  0  0  0  0  0
   62.7593   34.8810   45.7269 H   0  0  0  0  0  0  0  0  0  0  0  0
   61.0895   35.1762   45.6380 H   0  0  0  0  0  0  0  0  0  0  0  0
   58.6994   35.0262   45.0003 H   0  0  0  0  0  0  0  0  0  0  0  0
   57.3127   33.1405   45.8161 H   0  0  0  0  0  0  0  0  0  0  0  0
   59.2402   29.4267   47.1110 H   0  0  0  0  0  0  0  0  0  0  0  0
   57.4420   29.2509   47.1231 H   0  0  0  0  0  0  0  0  0  0  0  0
   59.1321   30.5856   44.9493 H   0  0  0  0  0  0  0  0  0  0  0  0
   58.2728   28.9978   44.8441 H   0  0  0  0  0  0  0  0  0  0  0  0
   55.5368   29.3183   45.4194 H   0  0  0  0  0  0  0  0  0  0  0  0
   55.1849   30.2163   43.9040 H   0  0  0  0  0  0  0  0  0  0  0  0
   56.4047   28.8977   43.9040 H   0  0  0  0  0  0  0  0  0  0  0  0
   57.6358   32.5319   43.9838 H   0  0  0  0  0  0  0  0  0  0  0  0
   58.0965   31.0708   43.0458 H   0  0  0  0  0  0  0  0  0  0  0  0
   56.3920   31.6377   43.0458 H   0  0  0  0  0  0  0  0  0  0  0  0
  1  2  1  0
  2  3  1  0
  2  4  1  0
  4  5  1  0
  5  6  1  0
  6  7  1  0
  7  8  2  0
  8  9  1  0
  9 10  2  0
 10 11  1  0
 11 12  2  0
 12 13  1  0
 13 14  2  0
 14 15  1  0
 14 16  1  0
 16 17  2  0
 17 18  1  0
 18 19  2  0
 19 20  1  0
 20 21  1  0
 21 22  1  0
 22 23  1  0
 23 24  1  0
 24 25  1  0
 24 26  1  0
 20 27  2  0
 27  7  1  0
 13  8  1  0
 27 16  1  0
  1 28  1  0
  1 29  1  0
  1 30  1  0
  3 31  1  0
  3 32  1  0
  3 33  1  0
  4 34  1  0
  4 35  1  0
  5 36  1  0
  5 37  1  0
  6 38  1  0
  6 39  1  0
  9 40  1  0
 10 41  1  0
 11 42  1  0
 12 43  1  0
 15 44  1  0
 15 45  1  0
 15 46  1  0
 17 47  1  0
 18 48  1  0
 19 49  1  0
 22 50  1  0
 22 51  1  0
 23 52  1  0
 23 53  1  0
 25 54  1  0
 25 55  1  0
 25 56  1  0
 26 57  1  0
 26 58  1  0
 26 59  1  0
M  CHG  2   6   1  14   1
M  END
>  <UniqueID>  (21) 
21

>  <SMILES>  (21) 
CN(C)CC[NH2+]c1c2ccccc2[n+](C)c2cccc(OCCN(C)C)c12

>  <Energy>  (21) 
100.75758225067047

>  <Genealogy>  (21) 
CN(C)CC[NH2+]c1c2ccccc2[n+](C)c2cccc(OCCN(C)C)c12 (protonated)
CN(C)CC[NH2+]c1c2ccccc2[n+](C)c2cccc(OCCN(C)C)c12 (3D coordinates assigned)
CN(C)CC[NH2+]c1c2ccccc2[n+](C)c2cccc(OCCN(C)C)c12 (optimized conformer: 100.75758225067047 kcal/mol)

>  <smiles>  (21) 
CN(C)CCNc1c2ccccc2[n+](C)c2cccc(OCCN(C)C)c12

>  <score_type>  (21) 
oracle

>  <origin>  (21) 
adg

>  <m_score__min__energy>  (21) 
-3.8799999999999999

>  <m_primary>  (21) 
energy

$$$$
21:0
     RDKit          3D

 66 69  0  0  0  0  0  0  0  0999 V2000
   57.0380   27.6240   45.6280 C   0  0  0  0  0  0  0  0  0  0  0  0
   56.9220   26.4590   46.5230 N   0  0  0  0  0  0  0  0  0  0  0  0
   56.3940   25.3120   45.7640 C   0  0  0  0  0  0  0  0  0  0  0  0
   58.2320   26.1160   47.1220 C   0  0  0  0  0  0  0  0  0  0  0  0
   59.3000   25.9580   46.0330 C   0  0  0  0  0  0  0  0  0  0  0  0
   60.6130   26.6410   46.4390 C   0  0  0  0  0  0  0  0  0  0  0  0
   60.3500   27.9960   46.9820 N   0  0  0  0  0  0  0  0  0  0  0  0
   60.0000   28.9940   46.1020 C   0  0  0  0  0  0  0  0  0  0  0  0
   60.0220   28.7610   44.8610 O   0  0  0  0  0  0  0  0  0  0  0  0
   59.6940   30.3030   46.5550 C   0  0  0  0  0  0  0  0  0  0  0  0
   60.0160   30.6340   47.8880 C   0  0  0  0  0  0  0  0  0  0  0  0
   60.1800   32.0060   48.2150 C   0  0  0  0  0  0  0  0  0  0  0  0
   60.9220   32.3970   49.3820 N   0  0  0  0  0  0  0  0  0  0  0  0
   62.3770   32.2470   49.4230 C   0  0  0  0  0  0  0  0  0  0  0  0
   63.0930   33.4190   48.7270 C   0  0  0  0  0  0  0  0  0  0  0  0
   63.7520   32.9920   47.4720 N   0  0  0  0  0  0  0  0  0  0  0  0
   63.4080   31.6000   47.1360 C   0  0  0  0  0  0  0  0  0  0  0  0
   63.3440   33.8770   46.3680 C   0  0  0  0  0  0  0  0  0  0  0  0
   59.8160   32.9930   47.2800 C   0  0  0  0  0  0  0  0  0  0  0  0
   59.9730   34.3650   47.5750 C   0  0  0  0  0  0  0  0  0  0  0  0
   59.6320   35.3390   46.6400 C   0  0  0  0  0  0  0  0  0  0  0  0
   59.1440   34.9660   45.3940 C   0  0  0  0  0  0  0  0  0  0  0  0
   58.9810   33.6180   45.0800 C   0  0  0  0  0  0  0  0  0  0  0  0
   59.2980   32.6030   46.0210 C   0  0  0  0  0  0  0  0  0  0  0  0
   59.1580   31.2650   45.7170 N   0  0  0  0  0  0  0  0  0  0  0  0
   58.3370   30.8650   44.5520 C   0  0  0  0  0  0  0  0  0  0  0  0
   60.2160   29.5790   48.8180 C   0  0  0  0  0  0  0  0  0  0  0  0
   60.1190   29.7830   50.2150 C   0  0  0  0  0  0  0  0  0  0  0  0
   60.4080   28.7620   51.1140 C   0  0  0  0  0  0  0  0  0  0  0  0
   60.7670   27.5050   50.6460 C   0  0  0  0  0  0  0  0  0  0  0  0
   61.1630   26.2290   51.7830 Cl  0  0  0  0  0  0  0  0  0  0  0  0
   60.7750   27.2490   49.2760 C   0  0  0  0  0  0  0  0  0  0  0  0
   60.4430   28.2610   48.3350 C   0  0  0  0  0  0  0  0  0  0  0  0
   57.1293   28.5406   46.2292 H   0  0  0  0  0  0  0  0  0  0  0  0
   57.9294   27.5115   44.9934 H   0  0  0  0  0  0  0  0  0  0  0  0
   56.1419   27.6895   44.9934 H   0  0  0  0  0  0  0  0  0  0  0  0
   56.0392   24.5412   46.4640 H   0  0  0  0  0  0  0  0  0  0  0  0
   55.5584   25.6448   45.1307 H   0  0  0  0  0  0  0  0  0  0  0  0
   57.1902   24.8936   45.1307 H   0  0  0  0  0  0  0  0  0  0  0  0
   58.5350   26.9177   47.8116 H   0  0  0  0  0  0  0  0  0  0  0  0
   58.1351   25.1636   47.6638 H   0  0  0  0  0  0  0  0  0  0  0  0
   59.4888   24.8869   45.8685 H   0  0  0  0  0  0  0  0  0  0  0  0
   58.9309   26.4331   45.1121 H   0  0  0  0  0  0  0  0  0  0  0  0
   61.1135   26.0342   47.2079 H   0  0  0  0  0  0  0  0  0  0  0  0
   61.2545   26.7333   45.5502 H   0  0  0  0  0  0  0  0  0  0  0  0
   60.4140   32.8850   50.1560 H   0  0  0  0  0  0  0  0  0  0  0  0
   62.7011   32.2051   50.4733 H   0  0  0  0  0  0  0  0  0  0  0  0
   62.6402   31.3211   48.8906 H   0  0  0  0  0  0  0  0  0  0  0  0
   62.3542   34.1998   48.4936 H   0  0  0  0  0  0  0  0  0  0  0  0
   63.8681   33.7999   49.4083 H   0  0  0  0  0  0  0  0  0  0  0  0
   63.2656   31.0237   48.0621 H   0  0  0  0  0  0  0  0  0  0  0  0
   62.4788   31.5838   46.5475 H   0  0  0  0  0  0  0  0  0  0  0  0
   64.2227   31.1528   46.5475 H   0  0  0  0  0  0  0  0  0  0  0  0
   62.9169   34.8034   46.7794 H   0  0  0  0  0  0  0  0  0  0  0  0
   64.2208   34.1203   45.7499 H   0  0  0  0  0  0  0  0  0  0  0  0
   62.5895   33.3683   45.7499 H   0  0  0  0  0  0  0  0  0  0  0  0
   60.3695   34.6681   48.5553 H   0  0  0  0  0  0  0  0  0  0  0  0
   59.7491   36.4042   46.8882 H   0  0  0  0  0  0  0  0  0  0  0  0
   58.8855   35.7368   44.6531 H   0  0  0  0  0  0  0  0  0  0  0  0
   58.6006   33.3358   44.0872 H   0  0  0  0  0  0  0  0  0  0  0  0
   57.3999   30.4084   44.9033 H   0  0  0  0  0  0  0  0  0  0  0  0
   58.1071   31.7521   43.9435 H   0  0  0  0  0  0  0  0  0  0  0  0
   58.8939   30.1373   43.9435 H   0  0  0  0  0  0  0  0  0  0  0  0
   59.8094   30.7671   50.5968 H   0  0  0  0  0  0  0  0  0  0  0  0
   60.3522   28.9503   52.1963 H   0  0  0  0  0  0  0  0  0  0  0  0
   61.0433   26.2447   48.9163 H   0  0  0  0  0  0  0  0  0  0  0  0
  1  2  1  0
  2  3  1  0
  2  4  1  0
  4  5  1  0
  5  6  1  0
  6  7  1  0
  7  8  1  0
  8  9  2  0
  8 10  1  0
 10 11  2  0
 11 12  1  0
 12 13  1  0
 13 14  1  0
 14 15  1  0
 15 16  1  0
 16 17  1  0
 16 18  1  0
 12 19  2  0
 19 20  1  0
 20 21  2  0
 21 22  1  0
 22 23  2  0
 23 24  1  0
 24 25  2  0
 25 26  1  0
 11 27  1  0
 27 28  2  0
 28 29  1  0
 29 30  2  0
 30 31  1  0
 30 32  1  0
 32 33  2  0
 33  7  1  0
 25 10  1  0
 33 27  1  0
 24 19  1  0
  1 34  1  0
  1 35  1  0
  1 36  1  0
  3 37  1  0
  3 38  1  0
  3 39  1  0
  4 40  1  0
  4 41  1  0
  5 42  1  0
  5 43  1  0
  6 44  1  0
  6 45  1  0
 13 46  1  0
 14 47  1  0
 14 48  1  0
 15 49  1  0
 15 50  1  0
 17 51  1  0
 17 52  1  0
 17 53  1  0
 18 54  1  0
 18 55  1  0
 18 56  1  0
 20 57  1  0
 21 58  1  0
 22 59  1  0
 23 60  1  0
 26 61  1  0
 26 62  1  0
 26 63  1  0
 28 64  1  0
 29 65  1  0
 32 66  1  0
M  CHG  1  25   1
M  END
>  <UniqueID>  (22) 
22

>  <SMILES>  (22) 
CN(C)CCCn1c(=O)c2c(c(NCCN(C)C)c3ccccc3[n+]2C)c2ccc(Cl)cc21

>  <Energy>  (22) 
120.4596805137857

>  <Genealogy>  (22) 
CN(C)CCCn1c(=O)c2c(c(NCCN(C)C)c3ccccc3[n+]2C)c2ccc(Cl)cc21 (3D coordinates assigned)
CN(C)CCCn1c(=O)c2c(c(NCCN(C)C)c3ccccc3[n+]2C)c2ccc(Cl)cc21 (optimized conformer: 120.4596805137857 kcal/mol)

>  <smiles>  (22) 
CN(C)CCCn1c(=O)c2c(c(NCCN(C)C)c3ccccc3[n+]2C)c2ccc(Cl)cc21

>  <score_type>  (22) 
oracle

>  <origin>  (22) 
adg

>  <m_score__min__energy>  (22) 
-6.8300000000000001

>  <m_primary>  (22) 
energy

$$$$
22:0
     RDKit          3D

 64 66  0  0  0  0  0  0  0  0999 V2000
   60.2780   29.4330   49.9400 C   0  0  0  0  0  0  0  0  0  0  0  0
   61.6680   30.0420   49.7900 C   0  0  0  0  0  0  0  0  0  0  0  0
   62.1240   30.6100   51.0810 N   0  0  0  0  0  0  0  0  0  0  0  0
   61.8510   29.6750   52.1960 C   0  0  0  0  0  0  0  0  0  0  0  0
   60.9270   30.3270   53.2220 C   0  0  0  0  0  0  0  0  0  0  0  0
   63.5600   30.9710   51.0250 C   0  0  0  0  0  0  0  0  0  0  0  0
   63.8940   31.9870   52.1290 C   0  0  0  0  0  0  0  0  0  0  0  0
   64.3240   33.3610   51.5650 C   0  0  0  0  0  0  0  0  0  0  0  0
   63.2200   34.3370   51.5020 N   0  0  0  0  0  0  0  0  0  0  0  0
   62.0580   33.8030   50.8260 C   0  0  0  0  0  0  0  0  0  0  0  0
   60.8990   33.5160   51.5660 C   0  0  0  0  0  0  0  0  0  0  0  0
   59.7460   33.0430   50.9360 C   0  0  0  0  0  0  0  0  0  0  0  0
   58.3100   32.7060   51.8830 Cl  0  0  0  0  0  0  0  0  0  0  0  0
   59.7320   32.8440   49.5560 C   0  0  0  0  0  0  0  0  0  0  0  0
   60.8790   33.1120   48.7850 C   0  0  0  0  0  0  0  0  0  0  0  0
   60.8990   32.9290   47.3820 C   0  0  0  0  0  0  0  0  0  0  0  0
   59.7140   32.4460   46.6370 C   0  0  0  0  0  0  0  0  0  0  0  0
   59.6010   31.0880   46.2610 C   0  0  0  0  0  0  0  0  0  0  0  0
   60.6690   30.0900   46.6250 C   0  0  0  0  0  0  0  0  0  0  0  0
   58.4640   30.6590   45.5590 C   0  0  0  0  0  0  0  0  0  0  0  0
   57.4470   31.5660   45.2150 C   0  0  0  0  0  0  0  0  0  0  0  0
   56.2990   31.1780   44.5090 O   0  0  0  0  0  0  0  0  0  0  0  0
   56.2730   30.1690   43.5050 C   0  0  0  0  0  0  0  0  0  0  0  0
   57.5730   32.9080   45.5850 C   0  0  0  0  0  0  0  0  0  0  0  0
   58.6980   33.3590   46.2970 C   0  0  0  0  0  0  0  0  0  0  0  0
   58.8440   34.7040   46.6770 O   0  0  0  0  0  0  0  0  0  0  0  0
   59.6560   35.6550   45.9940 C   0  0  0  0  0  0  0  0  0  0  0  0
   62.0710   33.2030   46.6680 C   0  0  0  0  0  0  0  0  0  0  0  0
   63.2020   33.6560   47.3430 C   0  0  0  0  0  0  0  0  0  0  0  0
   63.1670   33.8370   48.6880 N   0  0  0  0  0  0  0  0  0  0  0  0
   62.0510   33.5850   49.4280 C   0  0  0  0  0  0  0  0  0  0  0  0
   60.0372   29.3275   51.0081 H   0  0  0  0  0  0  0  0  0  0  0  0
   59.5366   30.0888   49.4600 H   0  0  0  0  0  0  0  0  0  0  0  0
   60.2575   28.4434   49.4600 H   0  0  0  0  0  0  0  0  0  0  0  0
   62.3731   29.2615   49.4679 H   0  0  0  0  0  0  0  0  0  0  0  0
   61.6269   30.8460   49.0405 H   0  0  0  0  0  0  0  0  0  0  0  0
   61.3704   28.7684   51.7996 H   0  0  0  0  0  0  0  0  0  0  0  0
   62.8014   29.4153   52.6853 H   0  0  0  0  0  0  0  0  0  0  0  0
   61.2745   30.0818   54.2365 H   0  0  0  0  0  0  0  0  0  0  0  0
   60.9382   31.4183   53.0843 H   0  0  0  0  0  0  0  0  0  0  0  0
   59.9026   29.9506   53.0843 H   0  0  0  0  0  0  0  0  0  0  0  0
   64.1683   30.0657   51.1679 H   0  0  0  0  0  0  0  0  0  0  0  0
   63.7799   31.4197   50.0450 H   0  0  0  0  0  0  0  0  0  0  0  0
   63.0031   32.1282   52.7586 H   0  0  0  0  0  0  0  0  0  0  0  0
   64.7400   31.5850   52.7057 H   0  0  0  0  0  0  0  0  0  0  0  0
   65.1158   33.7706   52.2093 H   0  0  0  0  0  0  0  0  0  0  0  0
   64.6721   33.1958   50.5347 H   0  0  0  0  0  0  0  0  0  0  0  0
   62.9920   34.6770   52.4640 H   0  0  0  0  0  0  0  0  0  0  0  0
   63.5540   35.1750   50.9680 H   0  0  0  0  0  0  0  0  0  0  0  0
   60.8997   33.6658   52.6558 H   0  0  0  0  0  0  0  0  0  0  0  0
   58.8186   32.4751   49.0665 H   0  0  0  0  0  0  0  0  0  0  0  0
   60.7459   30.0182   47.7200 H   0  0  0  0  0  0  0  0  0  0  0  0
   60.4073   29.1053   46.2104 H   0  0  0  0  0  0  0  0  0  0  0  0
   61.6337   30.4177   46.2104 H   0  0  0  0  0  0  0  0  0  0  0  0
   58.3677   29.6007   45.2747 H   0  0  0  0  0  0  0  0  0  0  0  0
   56.2475   29.1780   43.9817 H   0  0  0  0  0  0  0  0  0  0  0  0
   55.3779   30.2978   42.8788 H   0  0  0  0  0  0  0  0  0  0  0  0
   57.1736   30.2516   42.8788 H   0  0  0  0  0  0  0  0  0  0  0  0
   56.7804   33.6214   45.3151 H   0  0  0  0  0  0  0  0  0  0  0  0
   60.1878   36.2778   46.7284 H   0  0  0  0  0  0  0  0  0  0  0  0
   60.3866   35.1275   45.3631 H   0  0  0  0  0  0  0  0  0  0  0  0
   59.0205   36.2939   45.3631 H   0  0  0  0  0  0  0  0  0  0  0  0
   62.0989   33.0611   45.5775 H   0  0  0  0  0  0  0  0  0  0  0  0
   64.1259   33.8676   46.7848 H   0  0  0  0  0  0  0  0  0  0  0  0
  1  2  1  0
  2  3  1  0
  3  4  1  0
  4  5  1  0
  3  6  1  0
  6  7  1  0
  7  8  1  0
  8  9  1  0
  9 10  1  0
 10 11  2  0
 11 12  1  0
 12 13  1  0
 12 14  2  0
 14 15  1  0
 15 16  2  0
 16 17  1  0
 17 18  2  0
 18 19  1  0
 18 20  1  0
 20 21  2  0
 21 22  1  0
 22 23  1  0
 21 24  1  0
 24 25  2  0
 25 26  1  0
 26 27  1  0
 16 28  1  0
 28 29  2  0
 29 30  1  0
 30 31  2  0
 31 10  1  0
 31 15  1  0
 25 17  1  0
  1 32  1  0
  1 33  1  0
  1 34  1  0
  2 35  1  0
  2 36  1  0
  4 37  1  0
  4 38  1  0
  5 39  1  0
  5 40  1  0
  5 41  1  0
  6 42  1  0
  6 43  1  0
  7 44  1  0
  7 45  1  0
  8 46  1  0
  8 47  1  0
  9 48  1  0
  9 49  1  0
 11 50  1  0
 14 51  1  0
 19 52  1  0
 19 53  1  0
 19 54  1  0
 20 55  1  0
 23 56  1  0
 23 57  1  0
 23 58  1  0
 24 59  1  0
 27 60  1  0
 27 61  1  0
 27 62  1  0
 28 63  1  0
 29 64  1  0
M  CHG  1   9   1
M  END
>  <UniqueID>  (23) 
23

>  <SMILES>  (23) 
CCN(CC)CCC[NH2+]c1cc(Cl)cc2c(-c3c(C)cc(OC)cc3OC)ccnc12

>  <Energy>  (23) 
72.7510244252004

>  <Genealogy>  (23) 
CCN(CC)CCC[NH2+]c1cc(Cl)cc2c(-c3c(C)cc(OC)cc3OC)ccnc12 (protonated)
CCN(CC)CCC[NH2+]c1cc(Cl)cc2c(-c3c(C)cc(OC)cc3OC)ccnc12 (3D coordinates assigned)
CCN(CC)CCC[NH2+]c1cc(Cl)cc2c(-c3c(C)cc(OC)cc3OC)ccnc12 (optimized conformer: 72.7510244252004 kcal/mol)

>  <smiles>  (23) 
CCN(CC)CCCNc1cc(Cl)cc2c(-c3c(C)cc(OC)cc3OC)ccnc12

>  <score_type>  (23) 
oracle

>  <origin>  (23) 
adg

>  <m_score__min__energy>  (23) 
-5.9100000000000001

>  <m_primary>  (23) 
energy

$$$$
23:0
     RDKit          3D

 44 46  0  0  0  0  0  0  0  0999 V2000
   59.2689   29.7248   48.9004 H   0  0  0  0  0  0  0  0  0  0  0  0
   59.4280   29.9830   47.8430 C   0  0  0  0  0  0  0  0  0  0  0  0
   60.3190   30.8920   47.5590 N   0  0  0  0  0  0  0  0  0  0  0  0
   61.7430   30.8430   47.9020 C   0  0  0  0  0  0  0  0  0  0  0  0
   62.3421   30.9537   46.9861 H   0  0  0  0  0  0  0  0  0  0  0  0
   61.9658   29.8776   48.3798 H   0  0  0  0  0  0  0  0  0  0  0  0
   62.0880   31.9750   48.8730 C   0  0  0  0  0  0  0  0  0  0  0  0
   63.1403   31.8799   49.1791 H   0  0  0  0  0  0  0  0  0  0  0  0
   61.4272   31.9025   49.7494 H   0  0  0  0  0  0  0  0  0  0  0  0
   61.8940   33.2400   48.2590 O   0  0  0  0  0  0  0  0  0  0  0  0
   63.1270   33.8380   47.9000 C   0  0  0  0  0  0  0  0  0  0  0  0
   63.9506   33.2673   48.3539 H   0  0  0  0  0  0  0  0  0  0  0  0
   63.1352   34.8760   48.2639 H   0  0  0  0  0  0  0  0  0  0  0  0
   63.3020   33.8490   46.3790 C   0  0  0  0  0  0  0  0  0  0  0  0
   64.3721   33.9163   46.1335 H   0  0  0  0  0  0  0  0  0  0  0  0
   62.8861   32.9229   45.9554 H   0  0  0  0  0  0  0  0  0  0  0  0
   62.7735   34.7157   45.9554 H   0  0  0  0  0  0  0  0  0  0  0  0
   58.6220   29.2820   46.8270 C   0  0  0  0  0  0  0  0  0  0  0  0
   57.4340   29.6560   46.4140 O   0  0  0  0  0  0  0  0  0  0  0  0
   57.0310   28.7990   45.5080 C   0  0  0  0  0  0  0  0  0  0  0  0
   55.8160   28.8890   44.8250 O   0  0  0  0  0  0  0  0  0  0  0  0
   55.5300   29.9370   43.8970 C   0  0  0  0  0  0  0  0  0  0  0  0
   55.5738   29.5305   42.8758 H   0  0  0  0  0  0  0  0  0  0  0  0
   54.5277   30.3302   44.1224 H   0  0  0  0  0  0  0  0  0  0  0  0
   56.5150   31.0690   44.0140 C   0  0  0  0  0  0  0  0  0  0  0  0
   56.6430   31.7260   45.2000 N   0  0  0  0  0  0  0  0  0  0  0  0
   57.5160   32.7570   45.3600 C   0  0  0  0  0  0  0  0  0  0  0  0
   57.6230   33.4020   46.5950 C   0  0  0  0  0  0  0  0  0  0  0  0
   56.9926   33.0834   47.4382 H   0  0  0  0  0  0  0  0  0  0  0  0
   58.5310   34.4520   46.7590 C   0  0  0  0  0  0  0  0  0  0  0  0
   58.6094   34.9620   47.7305 H   0  0  0  0  0  0  0  0  0  0  0  0
   59.3390   34.8560   45.6940 C   0  0  0  0  0  0  0  0  0  0  0  0
   60.0574   35.6777   45.8311 H   0  0  0  0  0  0  0  0  0  0  0  0
   59.2370   34.2190   44.4550 C   0  0  0  0  0  0  0  0  0  0  0  0
   59.8729   34.5405   43.6170 H   0  0  0  0  0  0  0  0  0  0  0  0
   58.3240   33.1700   44.2800 C   0  0  0  0  0  0  0  0  0  0  0  0
   58.1900   32.5210   43.0480 C   0  0  0  0  0  0  0  0  0  0  0  0
   58.8057   32.8314   42.1909 H   0  0  0  0  0  0  0  0  0  0  0  0
   57.2730   31.4790   42.9100 C   0  0  0  0  0  0  0  0  0  0  0  0
   57.1456   30.9810   41.9375 H   0  0  0  0  0  0  0  0  0  0  0  0
   57.9740   27.8170   45.3100 C   0  0  0  0  0  0  0  0  0  0  0  0
   57.9179   26.9677   44.6131 H   0  0  0  0  0  0  0  0  0  0  0  0
   59.0050   28.1260   46.1730 C   0  0  0  0  0  0  0  0  0  0  0  0
   59.9416   27.5662   46.3124 H   0  0  0  0  0  0  0  0  0  0  0  0
  1  2  1  0
  2  3  2  0
  3  4  1  0
  4  5  1  0
  4  6  1  0
  4  7  1  0
  7  8  1  0
  7  9  1  0
  7 10  1  0
 10 11  1  0
 11 12  1  0
 11 13  1  0
 11 14  1  0
 14 15  1  0
 14 16  1  0
 14 17  1  0
  2 18  1  0
 18 19  1  0
 19 20  1  0
 20 21  1  0
 21 22  1  0
 22 23  1  0
 22 24  1  0
 22 25  1  0
 25 26  2  0
 26 27  1  0
 27 28  2  0
 28 29  1  0
 28 30  1  0
 30 31  1  0
 30 32  2  0
 32 33  1  0
 32 34  1  0
 34 35  1  0
 34 36  2  0
 36 37  1  0
 37 38  1  0
 37 39  2  0
 39 40  1  0
 20 41  2  0
 41 42  1  0
 41 43  1  0
 43 44  1  0
 43 18  2  0
 39 25  1  0
 36 27  1  0
M  END
>  <UniqueID>  (24) 
24

>  <SMILES>  (24) 
CCOCC/N=C\c1ccc(OCc2ccc3ccccc3n2)o1

>  <Energy>  (24) 
67.48808444642803

>  <Genealogy>  (24) 
CCOCC/N=C\c1ccc(OCc2ccc3ccccc3n2)o1 (cis-trans isomerization)
CCOCC/N=C\c1ccc(OCc2ccc3ccccc3n2)o1 (3D coordinates assigned)
CCOCC/N=C\c1ccc(OCc2ccc3ccccc3n2)o1 (optimized conformer: 67.48808444642803 kcal/mol)

>  <smiles>  (24) 
CCOCCN=Cc1ccc(OCc2ccc3ccccc3n2)o1

>  <score_type>  (24) 
oracle

>  <origin>  (24) 
adg

>  <m_score__min__energy>  (24) 
-7.9199999999999999

>  <m_primary>  (24) 
energy

$$$$
24:0
     RDKit          3D

 37 39  0  0  0  0  0  0  0  0999 V2000
   59.3690   28.9480   44.8580 C   0  0  0  0  0  0  0  0  0  0  0  0
   58.6200   30.2420   44.9450 C   0  0  0  0  0  0  0  0  0  0  0  0
   57.7120   30.6930   44.0070 C   0  0  0  0  0  0  0  0  0  0  0  0
   57.2220   31.8930   44.4800 C   0  0  0  0  0  0  0  0  0  0  0  0
   57.8490   32.1250   45.6920 C   0  0  0  0  0  0  0  0  0  0  0  0
   57.5450   33.2820   46.6020 C   0  0  0  0  0  0  0  0  0  0  0  0
   57.7330   34.5620   45.9140 N   0  0  0  0  0  0  0  0  0  0  0  0
   59.3830   34.7800   45.3980 S   0  0  0  0  0  0  0  0  0  0  0  0
   59.5970   36.2010   44.9510 O   0  0  0  0  0  0  0  0  0  0  0  0
   59.6600   33.8660   44.2370 O   0  0  0  0  0  0  0  0  0  0  0  0
   60.4840   34.3740   46.7100 C   0  0  0  0  0  0  0  0  0  0  0  0
   60.0850   34.5230   48.0620 C   0  0  0  0  0  0  0  0  0  0  0  0
   60.9300   34.1050   49.1060 C   0  0  0  0  0  0  0  0  0  0  0  0
   62.1600   33.5500   48.7620 C   0  0  0  0  0  0  0  0  0  0  0  0
   63.1670   33.0230   49.5400 C   0  0  0  0  0  0  0  0  0  0  0  0
   63.2020   32.8850   51.2870 Cl  0  0  0  0  0  0  0  0  0  0  0  0
   64.1470   32.5930   48.6530 C   0  0  0  0  0  0  0  0  0  0  0  0
   63.7690   32.8420   47.3790 N   0  0  0  0  0  0  0  0  0  0  0  0
   62.5600   33.4250   47.4590 C   0  0  0  0  0  0  0  0  0  0  0  0
   61.7490   33.8340   46.4030 C   0  0  0  0  0  0  0  0  0  0  0  0
   58.7280   31.1300   45.9590 N   0  0  0  0  0  0  0  0  0  0  0  0
   59.5470   30.9780   47.1610 C   0  0  0  0  0  0  0  0  0  0  0  0
   59.5826   28.5791   45.8720 H   0  0  0  0  0  0  0  0  0  0  0  0
   58.7600   28.2073   44.3190 H   0  0  0  0  0  0  0  0  0  0  0  0
   60.3146   29.1072   44.3190 H   0  0  0  0  0  0  0  0  0  0  0  0
   57.4340   30.1935   43.0672 H   0  0  0  0  0  0  0  0  0  0  0  0
   56.4786   32.5389   43.9899 H   0  0  0  0  0  0  0  0  0  0  0  0
   56.5012   33.2070   46.9411 H   0  0  0  0  0  0  0  0  0  0  0  0
   58.2351   33.2423   47.4577 H   0  0  0  0  0  0  0  0  0  0  0  0
   59.1072   34.9689   48.2965 H   0  0  0  0  0  0  0  0  0  0  0  0
   60.6294   34.2129   50.1586 H   0  0  0  0  0  0  0  0  0  0  0  0
   65.0949   32.1179   48.9458 H   0  0  0  0  0  0  0  0  0  0  0  0
   64.3030   32.6140   46.5110 H   0  0  0  0  0  0  0  0  0  0  0  0
   62.0860   33.7383   45.3603 H   0  0  0  0  0  0  0  0  0  0  0  0
   58.9142   31.0954   48.0531 H   0  0  0  0  0  0  0  0  0  0  0  0
   60.0075   29.9791   47.1670 H   0  0  0  0  0  0  0  0  0  0  0  0
   60.3353   31.7452   47.1670 H   0  0  0  0  0  0  0  0  0  0  0  0
  1  2  1  0
  2  3  2  0
  3  4  1  0
  4  5  2  0
  5  6  1  0
  6  7  1  0
  7  8  1  0
  8  9  2  0
  8 10  2  0
  8 11  1  0
 11 12  2  0
 12 13  1  0
 13 14  2  0
 14 15  1  0
 15 16  1  0
 15 17  2  0
 17 18  1  0
 18 19  1  0
 19 20  2  0
  5 21  1  0
 21 22  1  0
 21  2  1  0
 20 11  1  0
 19 14  1  0
  1 23  1  0
  1 24  1  0
  1 25  1  0
  3 26  1  0
  4 27  1  0
  6 28  1  0
  6 29  1  0
 12 30  1  0
 13 31  1  0
 17 32  1  0
 18 33  1  0
 20 34  1  0
 22 35  1  0
 22 36  1  0
 22 37  1  0
M  CHG  1   7  -1
M  END
>  <UniqueID>  (25) 
25

>  <SMILES>  (25) 
Cc1ccc(C[N-]S(=O)(=O)c2ccc3c(Cl)c[nH]c3c2)n1C

>  <Energy>  (25) 
90.55674390881924

>  <Genealogy>  (25) 
Cc1ccc(C[N-]S(=O)(=O)c2ccc3c(Cl)c[nH]c3c2)n1C (protonated)
Cc1ccc(C[N-]S(=O)(=O)c2ccc3c(Cl)c[nH]c3c2)n1C (3D coordinates assigned)
Cc1ccc(C[N-]S(=O)(=O)c2ccc3c(Cl)c[nH]c3c2)n1C (optimized conformer: 90.55674390881924 kcal/mol)

>  <smiles>  (25) 
Cc1ccc(CNS(=O)(=O)c2ccc3c(Cl)c[nH]c3c2)n1C

>  <score_type>  (25) 
oracle

>  <origin>  (25) 
adg

>  <m_score__min__energy>  (25) 
-8.8599999999999994

>  <m_primary>  (25) 
energy

$$$$
25:0
     RDKit          3D

 24 25  0  0  0  0  0  0  0  0999 V2000
   56.6490   30.4470   43.7490 Br  0  0  0  0  0  0  0  0  0  0  0  0
   57.6590   31.8190   44.6100 C   0  0  0  0  0  0  0  0  0  0  0  0
   57.9230   31.7390   45.9820 C   0  0  0  0  0  0  0  0  0  0  0  0
   58.6620   32.7440   46.6130 C   0  0  0  0  0  0  0  0  0  0  0  0
   59.1370   33.8420   45.8780 C   0  0  0  0  0  0  0  0  0  0  0  0
   59.9350   34.9200   46.5630 C   0  0  0  0  0  0  0  0  0  0  0  0
   60.7290   34.3530   47.6510 N   0  0  0  0  0  0  0  0  0  0  0  0
   61.8120   33.4850   47.4220 N   0  0  0  0  0  0  0  0  0  0  0  0
   61.8420   32.1390   47.4940 C   0  0  0  0  0  0  0  0  0  0  0  0
   63.0770   31.6770   47.2140 N   0  0  0  0  0  0  0  0  0  0  0  0
   63.8280   32.7410   46.9660 N   0  0  0  0  0  0  0  0  0  0  0  0
   63.0640   33.8400   47.0930 C   0  0  0  0  0  0  0  0  0  0  0  0
   58.8750   33.9130   44.4990 C   0  0  0  0  0  0  0  0  0  0  0  0
   58.1360   32.9060   43.8700 C   0  0  0  0  0  0  0  0  0  0  0  0
   57.5486   30.8844   46.5646 H   0  0  0  0  0  0  0  0  0  0  0  0
   58.8724   32.6743   47.6904 H   0  0  0  0  0  0  0  0  0  0  0  0
   60.6073   35.3930   45.8321 H   0  0  0  0  0  0  0  0  0  0  0  0
   59.2425   35.6669   46.9785 H   0  0  0  0  0  0  0  0  0  0  0  0
   60.4900   34.6200   48.6330 H   0  0  0  0  0  0  0  0  0  0  0  0
   60.9786   31.5058   47.7462 H   0  0  0  0  0  0  0  0  0  0  0  0
   64.8410   32.7100   46.7170 H   0  0  0  0  0  0  0  0  0  0  0  0
   63.4122   34.8735   46.9491 H   0  0  0  0  0  0  0  0  0  0  0  0
   59.2525   34.7636   43.9124 H   0  0  0  0  0  0  0  0  0  0  0  0
   57.9295   32.9688   42.7914 H   0  0  0  0  0  0  0  0  0  0  0  0
  1  2  1  0
  2  3  2  0
  3  4  1  0
  4  5  2  0
  5  6  1  0
  6  7  1  0
  7  8  1  0
  8  9  1  0
  9 10  2  0
 10 11  1  0
 11 12  2  0
  5 13  1  0
 13 14  2  0
 14  2  1  0
 12  8  1  0
  3 15  1  0
  4 16  1  0
  6 17  1  0
  6 18  1  0
  7 19  1  0
  9 20  1  0
 11 21  1  0
 12 22  1  0
 13 23  1  0
 14 24  1  0
M  CHG  1  11   1
M  END
>  <UniqueID>  (26) 
26

>  <SMILES>  (26) 
Brc1ccc(CNn2cn[nH+]c2)cc1

>  <Energy>  (26) 
58.04591765836588

>  <Genealogy>  (26) 
Brc1ccc(CNn2cn[nH+]c2)cc1 (protonated)
Brc1ccc(CNn2cn[nH+]c2)cc1 (3D coordinates assigned)
Brc1ccc(CNn2cn[nH+]c2)cc1 (optimized conformer: 58.04591765836588 kcal/mol)

>  <smiles>  (26) 
Brc1ccc(CNn2cnnc2)cc1

>  <score_type>  (26) 
oracle

>  <origin>  (26) 
adg

>  <m_score__min__energy>  (26) 
-4.9299999999999997

>  <m_primary>  (26) 
energy

$$$$
26:0
     RDKit          3D

 42 44  0  0  0  0  0  0  0  0999 V2000
   55.1940   29.2740   44.8640 N   0  0  0  0  0  0  0  0  0  0  0  0
   56.2490   29.6720   43.9340 C   0  0  0  0  0  0  0  0  0  0  0  0
   57.6440   29.5760   44.5830 C   0  0  1  0  0  0  0  0  0  0  0  0
   57.5720   29.8860   45.9600 O   0  0  0  0  0  0  0  0  0  0  0  0
   58.3620   28.9450   46.6590 C   0  0  2  0  0  0  0  0  0  0  0  0
   59.2670   29.6160   47.6150 N   0  0  0  0  0  0  0  0  0  0  0  0
   59.3630   30.9800   47.5780 C   0  0  0  0  0  0  0  0  0  0  0  0
   60.1910   31.6700   48.4710 C   0  0  0  0  0  0  0  0  0  0  0  0
   60.2540   33.1770   48.4350 C   0  0  0  0  0  0  0  0  0  0  0  0
   59.5430   33.6990   47.2150 C   0  0  0  0  0  0  0  0  0  0  0  0
   58.1420   33.6630   47.1390 C   0  0  0  0  0  0  0  0  0  0  0  0
   57.4860   34.1180   45.9900 C   0  0  0  0  0  0  0  0  0  0  0  0
   58.2250   34.6040   44.9080 C   0  0  0  0  0  0  0  0  0  0  0  0
   59.6200   34.6340   44.9710 C   0  0  0  0  0  0  0  0  0  0  0  0
   60.2800   34.1810   46.1190 C   0  0  0  0  0  0  0  0  0  0  0  0
   60.8960   30.9220   49.4240 C   0  0  0  0  0  0  0  0  0  0  0  0
   61.6440   31.4940   50.2630 O   0  0  0  0  0  0  0  0  0  0  0  0
   60.7710   29.5700   49.4490 N   0  0  0  0  0  0  0  0  0  0  0  0
   59.9660   28.9160   48.5680 C   0  0  0  0  0  0  0  0  0  0  0  0
   59.8670   27.6610   48.6470 O   0  0  0  0  0  0  0  0  0  0  0  0
   59.1390   28.0910   45.6640 C   0  0  0  0  0  0  0  0  0  0  0  0
   58.3100   28.2040   44.4140 C   0  0  1  0  0  0  0  0  0  0  0  0
   57.3810   27.1480   44.3170 O   0  0  0  0  0  0  0  0  0  0  0  0
   55.4300   29.6290   45.8200 H   0  0  0  0  0  0  0  0  0  0  0  0
   55.1550   28.2310   44.9100 H   0  0  0  0  0  0  0  0  0  0  0  0
   56.2180   29.0112   43.0551 H   0  0  0  0  0  0  0  0  0  0  0  0
   56.0755   30.7190   43.6448 H   0  0  0  0  0  0  0  0  0  0  0  0
   58.2689   30.3094   44.0523 H   0  0  0  0  0  0  0  0  0  0  0  0
   57.7016   28.2892   47.2454 H   0  0  0  0  0  0  0  0  0  0  0  0
   58.7802   31.5436   46.8346 H   0  0  0  0  0  0  0  0  0  0  0  0
   59.7725   33.5823   49.3372 H   0  0  0  0  0  0  0  0  0  0  0  0
   61.3076   33.4910   48.3978 H   0  0  0  0  0  0  0  0  0  0  0  0
   57.5573   33.2754   47.9863 H   0  0  0  0  0  0  0  0  0  0  0  0
   56.3875   34.0932   45.9383 H   0  0  0  0  0  0  0  0  0  0  0  0
   57.7077   34.9632   44.0061 H   0  0  0  0  0  0  0  0  0  0  0  0
   60.2005   35.0141   44.1174 H   0  0  0  0  0  0  0  0  0  0  0  0
   61.3789   34.2021   46.1639 H   0  0  0  0  0  0  0  0  0  0  0  0
   61.2970   29.0210   50.1670 H   0  0  0  0  0  0  0  0  0  0  0  0
   60.1521   28.4892   45.5056 H   0  0  0  0  0  0  0  0  0  0  0  0
   59.2846   27.0535   45.9992 H   0  0  0  0  0  0  0  0  0  0  0  0
   58.8891   28.1292   43.4817 H   0  0  0  0  0  0  0  0  0  0  0  0
   56.4720   27.5140   44.4760 H   0  0  0  0  0  0  0  0  0  0  0  0
  1  2  1  0
  2  3  1  0
  3  4  1  0
  4  5  1  0
  5  6  1  0
  6  7  1  0
  7  8  2  0
  8  9  1  0
  9 10  1  0
 10 11  2  0
 11 12  1  0
 12 13  2  0
 13 14  1  0
 14 15  2  0
  8 16  1  0
 16 17  2  0
 16 18  1  0
 18 19  1  0
 19 20  2  0
  5 21  1  0
 21 22  1  0
 22 23  1  0
 22  3  1  0
 19  6  1  0
 15 10  1  0
  1 24  1  0
  1 25  1  0
  2 26  1  0
  2 27  1  0
  3 28  1  6
  5 29  1  1
  7 30  1  0
  9 31  1  0
  9 32  1  0
 11 33  1  0
 12 34  1  0
 13 35  1  0
 14 36  1  0
 15 37  1  0
 18 38  1  0
 21 39  1  0
 21 40  1  0
 22 41  1  6
 23 42  1  0
M  END
>  <UniqueID>  (27) 
27

>  <SMILES>  (27) 
NC[C@H]1O[C@H](n2cc(Cc3ccccc3)c(=O)[nH]c2=O)CC1O

>  <Energy>  (27) 
48.18234437211699

>  <Genealogy>  (27) 
NC[C@H]1O[C@H](n2cc(Cc3ccccc3)c(=O)[nH]c2=O)CC1O (chirality)
NC[C@H]1O[C@H](n2cc(Cc3ccccc3)c(=O)[nH]c2=O)CC1O (3D coordinates assigned)
NC[C@H]1O[C@H](n2cc(Cc3ccccc3)c(=O)[nH]c2=O)CC1O (nonaromatic ring conformer: 48.18234437211699 kcal/mol)

>  <smiles>  (27) 
NCC1OC(n2cc(Cc3ccccc3)c(=O)[nH]c2=O)CC1O

>  <score_type>  (27) 
oracle

>  <origin>  (27) 
adg

>  <m_score__min__energy>  (27) 
-7.9299999999999997

>  <m_primary>  (27) 
energy

$$$$
27:0
     RDKit          3D

 38 40  0  0  0  0  0  0  0  0999 V2000
   60.5850   25.4390   51.9940 C   0  0  0  0  0  0  0  0  0  0  0  0
   61.3730   26.1450   50.9900 N   0  0  0  0  0  0  0  0  0  0  0  0
   60.8040   27.0510   50.0250 C   0  0  0  0  0  0  0  0  0  0  0  0
   60.6490   26.6910   48.6740 C   0  0  0  0  0  0  0  0  0  0  0  0
   60.0940   27.5920   47.7600 C   0  0  0  0  0  0  0  0  0  0  0  0
   59.6900   28.8750   48.1740 C   0  0  0  0  0  0  0  0  0  0  0  0
   59.0900   29.8430   47.2190 C   0  0  0  0  0  0  0  0  0  0  0  0
   58.0580   29.4730   46.3440 C   0  0  0  0  0  0  0  0  0  0  0  0
   57.5230   30.4030   45.4390 C   0  0  0  0  0  0  0  0  0  0  0  0
   56.4910   29.9310   44.4880 C   0  0  0  0  0  0  0  0  0  0  0  0
   55.4870   29.0100   44.9050 N   0  0  0  0  0  0  0  0  0  0  0  0
   56.4590   30.3950   43.3160 O   0  0  0  0  0  0  0  0  0  0  0  0
   58.0150   31.7330   45.4490 C   0  0  0  0  0  0  0  0  0  0  0  0
   57.4710   32.7590   44.6470 C   0  0  0  0  0  0  0  0  0  0  0  0
   58.0040   34.0500   44.6880 C   0  0  0  0  0  0  0  0  0  0  0  0
   59.0860   34.3470   45.5250 C   0  0  0  0  0  0  0  0  0  0  0  0
   59.6290   35.7450   45.5900 C   0  0  0  0  0  0  0  0  0  0  0  0
   59.6040   33.3500   46.3620 C   0  0  0  0  0  0  0  0  0  0  0  0
   59.0740   32.0550   46.3330 C   0  0  0  0  0  0  0  0  0  0  0  0
   59.5720   31.1140   47.1750 N   0  0  0  0  0  0  0  0  0  0  0  0
   59.8350   29.2250   49.5270 C   0  0  0  0  0  0  0  0  0  0  0  0
   60.3900   28.3240   50.4400 C   0  0  0  0  0  0  0  0  0  0  0  0
   60.9186   25.7379   52.9987 H   0  0  0  0  0  0  0  0  0  0  0  0
   59.5217   25.6923   51.8703 H   0  0  0  0  0  0  0  0  0  0  0  0
   60.7204   24.3544   51.8703 H   0  0  0  0  0  0  0  0  0  0  0  0
   62.4040   25.9760   50.9770 H   0  0  0  0  0  0  0  0  0  0  0  0
   60.9665   25.6941   48.3343 H   0  0  0  0  0  0  0  0  0  0  0  0
   59.9721   27.2953   46.7078 H   0  0  0  0  0  0  0  0  0  0  0  0
   57.6649   28.4459   46.3672 H   0  0  0  0  0  0  0  0  0  0  0  0
   54.5350   29.3410   45.1810 H   0  0  0  0  0  0  0  0  0  0  0  0
   56.6206   32.5406   43.9843 H   0  0  0  0  0  0  0  0  0  0  0  0
   57.5697   34.8396   44.0572 H   0  0  0  0  0  0  0  0  0  0  0  0
   59.7454   36.0446   46.6420 H   0  0  0  0  0  0  0  0  0  0  0  0
   60.6070   35.7822   45.0878 H   0  0  0  0  0  0  0  0  0  0  0  0
   58.9326   36.4326   45.0878 H   0  0  0  0  0  0  0  0  0  0  0  0
   60.4323   33.5865   47.0461 H   0  0  0  0  0  0  0  0  0  0  0  0
   59.5086   30.2176   49.8710 H   0  0  0  0  0  0  0  0  0  0  0  0
   60.5029   28.6168   51.4943 H   0  0  0  0  0  0  0  0  0  0  0  0
  1  2  1  0
  2  3  1  0
  3  4  2  0
  4  5  1  0
  5  6  2  0
  6  7  1  0
  7  8  2  0
  8  9  1  0
  9 10  1  0
 10 11  1  0
 10 12  2  0
  9 13  2  0
 13 14  1  0
 14 15  2  0
 15 16  1  0
 16 17  1  0
 16 18  2  0
 18 19  1  0
 19 20  2  0
  6 21  1  0
 21 22  2  0
 22  3  1  0
 20  7  1  0
 19 13  1  0
  1 23  1  0
  1 24  1  0
  1 25  1  0
  2 26  1  0
  4 27  1  0
  5 28  1  0
  8 29  1  0
 11 30  1  0
 14 31  1  0
 15 32  1  0
 17 33  1  0
 17 34  1  0
 17 35  1  0
 18 36  1  0
 21 37  1  0
 22 38  1  0
M  CHG  1  11  -1
M  END
>  <UniqueID>  (28) 
28

>  <SMILES>  (28) 
CNc1ccc(-c2cc(C([NH-])=O)c3ccc(C)cc3n2)cc1

>  <Energy>  (28) 
52.057966620393834

>  <Genealogy>  (28) 
CNc1ccc(-c2cc(C([NH-])=O)c3ccc(C)cc3n2)cc1 (protonated)
CNc1ccc(-c2cc(C([NH-])=O)c3ccc(C)cc3n2)cc1 (3D coordinates assigned)
CNc1ccc(-c2cc(C([NH-])=O)c3ccc(C)cc3n2)cc1 (optimized conformer: 52.057966620393834 kcal/mol)

>  <smiles>  (28) 
CNc1ccc(-c2cc(C(N)=O)c3ccc(C)cc3n2)cc1

>  <score_type>  (28) 
oracle

>  <origin>  (28) 
adg

>  <m_score__min__energy>  (28) 
-10.050000000000001

>  <m_primary>  (28) 
energy

$$$$
28:0
     RDKit          3D

 47 50  0  0  0  0  0  0  0  0999 V2000
   55.8790   29.3770   44.5040 C   0  0  0  0  0  0  0  0  0  0  0  0
   56.3140   30.7660   44.0530 C   0  0  0  0  0  0  0  0  0  0  0  0
   56.8280   31.4950   45.1510 O   0  0  0  0  0  0  0  0  0  0  0  0
   57.7540   32.4690   44.7120 C   0  0  0  0  0  0  0  0  0  0  0  0
   59.0020   32.4240   45.5900 C   0  0  0  0  0  0  0  0  0  0  0  0
   59.0430   31.1810   46.3730 N   0  0  0  0  0  0  0  0  0  0  0  0
   59.0800   29.9140   45.8770 C   0  0  0  0  0  0  0  0  0  0  0  0
   59.1250   29.5120   44.5360 C   0  0  0  0  0  0  0  0  0  0  0  0
   59.1450   28.1330   44.2590 C   0  0  0  0  0  0  0  0  0  0  0  0
   59.1170   27.1860   45.3070 C   0  0  0  0  0  0  0  0  0  0  0  0
   59.0620   27.6080   46.6470 C   0  0  0  0  0  0  0  0  0  0  0  0
   59.0450   28.9780   46.8910 C   0  0  0  0  0  0  0  0  0  0  0  0
   58.9700   29.6970   48.0550 C   0  0  0  0  0  0  0  0  0  0  0  0
   58.8990   29.2600   49.3290 N   0  0  0  0  0  0  0  0  0  0  0  0
   58.8040   30.1780   50.3350 C   0  0  0  0  0  0  0  0  0  0  0  0
   58.7690   31.5350   50.0500 N   0  0  0  0  0  0  0  0  0  0  0  0
   58.8620   31.9740   48.7450 C   0  0  0  0  0  0  0  0  0  0  0  0
   58.8570   33.2050   48.4750 O   0  0  0  0  0  0  0  0  0  0  0  0
   58.9630   31.0230   47.7240 C   0  0  0  0  0  0  0  0  0  0  0  0
   58.6760   32.5070   51.1600 C   0  0  0  0  0  0  0  0  0  0  0  0
   57.3100   32.4390   51.8660 C   0  0  0  0  0  0  0  0  0  0  0  0
   57.2130   31.3810   52.9810 C   0  0  0  0  0  0  0  0  0  0  0  0
   57.4490   29.9360   52.5020 C   0  0  0  0  0  0  0  0  0  0  0  0
   58.7820   29.6760   51.7600 C   0  0  0  0  0  0  0  0  0  0  0  0
   55.8661   29.3357   45.6031 H   0  0  0  0  0  0  0  0  0  0  0  0
   54.8714   29.1647   44.1172 H   0  0  0  0  0  0  0  0  0  0  0  0
   56.5856   28.6279   44.1172 H   0  0  0  0  0  0  0  0  0  0  0  0
   57.0934   30.6709   43.2826 H   0  0  0  0  0  0  0  0  0  0  0  0
   55.4444   31.2997   43.6419 H   0  0  0  0  0  0  0  0  0  0  0  0
   58.0336   32.2637   43.6681 H   0  0  0  0  0  0  0  0  0  0  0  0
   57.2949   33.4662   44.7818 H   0  0  0  0  0  0  0  0  0  0  0  0
   59.8953   32.4773   44.9504 H   0  0  0  0  0  0  0  0  0  0  0  0
   58.9770   33.2776   46.2834 H   0  0  0  0  0  0  0  0  0  0  0  0
   59.1441   30.2530   43.7232 H   0  0  0  0  0  0  0  0  0  0  0  0
   59.1829   27.7883   43.2151 H   0  0  0  0  0  0  0  0  0  0  0  0
   59.1384   26.1114   45.0730 H   0  0  0  0  0  0  0  0  0  0  0  0
   59.0334   26.8816   47.4726 H   0  0  0  0  0  0  0  0  0  0  0  0
   59.4668   32.2877   51.8925 H   0  0  0  0  0  0  0  0  0  0  0  0
   58.7945   33.5171   50.7409 H   0  0  0  0  0  0  0  0  0  0  0  0
   57.1045   33.4242   52.3099 H   0  0  0  0  0  0  0  0  0  0  0  0
   56.5779   32.1486   51.0981 H   0  0  0  0  0  0  0  0  0  0  0  0
   57.9655   31.6176   53.7476 H   0  0  0  0  0  0  0  0  0  0  0  0
   56.1839   31.4221   53.3673 H   0  0  0  0  0  0  0  0  0  0  0  0
   57.4218   29.2802   53.3847 H   0  0  0  0  0  0  0  0  0  0  0  0
   56.6562   29.7343   51.7666 H   0  0  0  0  0  0  0  0  0  0  0  0
   59.5893   30.1764   52.3148 H   0  0  0  0  0  0  0  0  0  0  0  0
   58.9110   28.5846   51.7134 H   0  0  0  0  0  0  0  0  0  0  0  0
  1  2  1  0
  2  3  1  0
  3  4  1  0
  4  5  1  0
  5  6  1  0
  6  7  1  0
  7  8  2  0
  8  9  1  0
  9 10  2  0
 10 11  1  0
 11 12  2  0
 12 13  1  0
 13 14  1  0
 14 15  2  0
 15 16  1  0
 16 17  1  0
 17 18  2  0
 17 19  1  0
 16 20  1  0
 20 21  1  0
 21 22  1  0
 22 23  1  0
 23 24  1  0
 19  6  1  0
 12  7  1  0
 19 13  2  0
 24 15  1  0
  1 25  1  0
  1 26  1  0
  1 27  1  0
  2 28  1  0
  2 29  1  0
  4 30  1  0
  4 31  1  0
  5 32  1  0
  5 33  1  0
  8 34  1  0
  9 35  1  0
 10 36  1  0
 11 37  1  0
 20 38  1  0
 20 39  1  0
 21 40  1  0
 21 41  1  0
 22 42  1  0
 22 43  1  0
 23 44  1  0
 23 45  1  0
 24 46  1  0
 24 47  1  0
M  END
>  <UniqueID>  (29) 
29

>  <SMILES>  (29) 
CCOCCn1c2ccccc2c2nc3n(c(=O)c21)CCCCC3

>  <Energy>  (29) 
101.4876089354532

>  <Genealogy>  (29) 
CCOCCn1c2ccccc2c2nc3n(c(=O)c21)CCCCC3 (3D coordinates assigned)
CCOCCn1c2ccccc2c2nc3n(c(=O)c21)CCCCC3 (nonaromatic ring conformer: 101.4876089354532 kcal/mol)

>  <smiles>  (29) 
CCOCCn1c2ccccc2c2nc3n(c(=O)c21)CCCCC3

>  <score_type>  (29) 
oracle

>  <origin>  (29) 
adg

>  <m_score__min__energy>  (29) 
-5.8300000000000001

>  <m_primary>  (29) 
energy

$$$$
29:0
     RDKit          3D

 80 82  0  0  0  0  0  0  0  0999 V2000
   65.2390   32.6180   49.7690 C   0  0  0  0  0  0  0  0  0  0  0  0
   63.9210   33.4150   49.7260 C   0  0  0  0  0  0  0  0  0  0  0  0
   62.8940   32.9060   48.7720 N   0  0  0  0  0  0  0  0  0  0  0  0
   62.5070   33.9140   47.7430 C   0  0  0  0  0  0  0  0  0  0  0  0
   63.3440   33.8970   46.4570 C   0  0  0  0  0  0  0  0  0  0  0  0
   63.2110   31.5560   48.2250 C   0  0  0  0  0  0  0  0  0  0  0  0
   62.2510   31.0920   47.1130 C   0  0  0  0  0  0  0  0  0  0  0  0
   60.8530   31.1390   47.5470 N   0  0  0  0  0  0  0  0  0  0  0  0
   59.7870   30.9950   46.6010 C   0  0  0  0  0  0  0  0  0  0  0  0
   59.1930   32.1480   46.0330 C   0  0  0  0  0  0  0  0  0  0  0  0
   59.5720   33.4370   46.4610 C   0  0  0  0  0  0  0  0  0  0  0  0
   58.9960   34.5740   45.8980 C   0  0  0  0  0  0  0  0  0  0  0  0
   58.0280   34.4500   44.9090 C   0  0  0  0  0  0  0  0  0  0  0  0
   57.6140   33.1880   44.4840 C   0  0  0  0  0  0  0  0  0  0  0  0
   58.1800   32.0110   45.0350 C   0  0  0  0  0  0  0  0  0  0  0  0
   57.7610   30.7560   44.6380 N   0  0  0  0  0  0  0  0  0  0  0  0
   56.7380   30.5990   43.5860 C   0  0  0  0  0  0  0  0  0  0  0  0
   58.2930   29.6570   45.2590 C   0  0  0  0  0  0  0  0  0  0  0  0
   57.8660   28.0470   45.0080 S   0  0  0  0  0  0  0  0  0  0  0  0
   58.9310   27.4040   46.1270 C   0  0  0  0  0  0  0  0  0  0  0  0
   59.6550   28.4370   46.7280 C   0  0  0  0  0  0  0  0  0  0  0  0
   60.7010   28.0940   47.7640 C   0  0  0  0  0  0  0  0  0  0  0  0
   60.0650   27.6430   49.0850 C   0  0  0  0  0  0  0  0  0  0  0  0
   59.9390   28.7830   50.0020 N   0  0  0  0  0  0  0  0  0  0  0  0
   60.4530   28.4870   51.3500 C   0  0  0  0  0  0  0  0  0  0  0  0
   61.9910   28.3990   51.4320 C   0  0  0  0  0  0  0  0  0  0  0  0
   62.6860   29.7300   51.0960 C   0  0  0  0  0  0  0  0  0  0  0  0
   61.8950   30.9350   51.6170 C   0  0  0  0  0  0  0  0  0  0  0  0
   61.0050   31.4580   50.5700 N   0  0  0  0  0  0  0  0  0  0  0  0
   60.3840   32.7260   50.9810 C   0  0  0  0  0  0  0  0  0  0  0  0
   59.4880   33.2630   49.8560 C   0  0  0  0  0  0  0  0  0  0  0  0
   58.3180   32.3210   49.5260 C   0  0  0  0  0  0  0  0  0  0  0  0
   58.6890   30.9100   49.6320 N   0  0  0  0  0  0  0  0  0  0  0  0
   59.2920   29.7260   46.2320 C   0  0  0  0  0  0  0  0  0  0  0  0
   65.5279   32.4433   50.8159 H   0  0  0  0  0  0  0  0  0  0  0  0
   65.1003   31.6523   49.2609 H   0  0  0  0  0  0  0  0  0  0  0  0
   66.0298   33.1894   49.2609 H   0  0  0  0  0  0  0  0  0  0  0  0
   63.4831   33.4005   50.7350 H   0  0  0  0  0  0  0  0  0  0  0  0
   64.1883   34.4220   49.3732 H   0  0  0  0  0  0  0  0  0  0  0  0
   62.0320   32.7950   49.3570 H   0  0  0  0  0  0  0  0  0  0  0  0
   61.4578   33.7319   47.4674 H   0  0  0  0  0  0  0  0  0  0  0  0
   62.6789   34.8981   48.2033 H   0  0  0  0  0  0  0  0  0  0  0  0
   64.4130   33.8753   46.7155 H   0  0  0  0  0  0  0  0  0  0  0  0
   63.0913   33.0038   45.8668 H   0  0  0  0  0  0  0  0  0  0  0  0
   63.1278   34.7997   45.8668 H   0  0  0  0  0  0  0  0  0  0  0  0
   64.2312   31.5795   47.8143 H   0  0  0  0  0  0  0  0  0  0  0  0
   63.1065   30.8423   49.0555 H   0  0  0  0  0  0  0  0  0  0  0  0
   62.3748   31.7483   46.2390 H   0  0  0  0  0  0  0  0  0  0  0  0
   62.4964   30.0494   46.8624 H   0  0  0  0  0  0  0  0  0  0  0  0
   60.6030   31.3970   48.5280 H   0  0  0  0  0  0  0  0  0  0  0  0
   60.3317   33.5463   47.2490 H   0  0  0  0  0  0  0  0  0  0  0  0
   59.3085   35.5726   46.2375 H   0  0  0  0  0  0  0  0  0  0  0  0
   57.5862   35.3514   44.4592 H   0  0  0  0  0  0  0  0  0  0  0  0
   56.8369   33.1047   43.7099 H   0  0  0  0  0  0  0  0  0  0  0  0
   55.7531   30.4478   44.0520 H   0  0  0  0  0  0  0  0  0  0  0  0
   56.7129   31.5038   42.9610 H   0  0  0  0  0  0  0  0  0  0  0  0
   56.9854   29.7283   42.9610 H   0  0  0  0  0  0  0  0  0  0  0  0
   59.0437   26.3337   46.3543 H   0  0  0  0  0  0  0  0  0  0  0  0
   61.3330   27.2812   47.3769 H   0  0  0  0  0  0  0  0  0  0  0  0
   61.2971   28.9972   47.9613 H   0  0  0  0  0  0  0  0  0  0  0  0
   59.0671   27.2261   48.8842 H   0  0  0  0  0  0  0  0  0  0  0  0
   60.7050   26.8780   49.5489 H   0  0  0  0  0  0  0  0  0  0  0  0
   60.4300   29.6150   49.6010 H   0  0  0  0  0  0  0  0  0  0  0  0
   60.1157   29.2825   52.0308 H   0  0  0  0  0  0  0  0  0  0  0  0
   60.0632   27.4966   51.6279 H   0  0  0  0  0  0  0  0  0  0  0  0
   62.2717   28.1048   52.4541 H   0  0  0  0  0  0  0  0  0  0  0  0
   62.3192   27.6583   50.6879 H   0  0  0  0  0  0  0  0  0  0  0  0
   63.6855   29.7352   51.5553 H   0  0  0  0  0  0  0  0  0  0  0  0
   62.7523   29.8132   50.0012 H   0  0  0  0  0  0  0  0  0  0  0  0
   61.2920   30.6252   52.4832 H   0  0  0  0  0  0  0  0  0  0  0  0
   62.6020   31.7250   51.9104 H   0  0  0  0  0  0  0  0  0  0  0  0
   60.2430   30.7560   50.4220 H   0  0  0  0  0  0  0  0  0  0  0  0
   59.7757   32.5581   51.8820 H   0  0  0  0  0  0  0  0  0  0  0  0
   61.1737   33.4613   51.1946 H   0  0  0  0  0  0  0  0  0  0  0  0
   59.0793   34.2360   50.1662 H   0  0  0  0  0  0  0  0  0  0  0  0
   60.1081   33.3509   48.9517 H   0  0  0  0  0  0  0  0  0  0  0  0
   57.4941   32.5229   50.2263 H   0  0  0  0  0  0  0  0  0  0  0  0
   58.0188   32.5110   48.4847 H   0  0  0  0  0  0  0  0  0  0  0  0
   58.8950   30.6850   50.6310 H   0  0  0  0  0  0  0  0  0  0  0  0
   59.5540   30.7330   49.0710 H   0  0  0  0  0  0  0  0  0  0  0  0
  1  2  1  0
  2  3  1  0
  3  4  1  0
  4  5  1  0
  3  6  1  0
  6  7  1  0
  7  8  1  0
  8  9  1  0
  9 10  2  0
 10 11  1  0
 11 12  2  0
 12 13  1  0
 13 14  2  0
 14 15  1  0
 15 16  2  0
 16 17  1  0
 16 18  1  0
 18 19  1  0
 19 20  1  0
 20 21  2  0
 21 22  1  0
 22 23  1  0
 23 24  1  0
 24 25  1  0
 25 26  1  0
 26 27  1  0
 27 28  1  0
 28 29  1  0
 29 30  1  0
 30 31  1  0
 31 32  1  0
 32 33  1  0
 21 34  1  0
 34  9  1  0
 15 10  1  0
 34 18  2  0
  1 35  1  0
  1 36  1  0
  1 37  1  0
  2 38  1  0
  2 39  1  0
  3 40  1  0
  4 41  1  0
  4 42  1  0
  5 43  1  0
  5 44  1  0
  5 45  1  0
  6 46  1  0
  6 47  1  0
  7 48  1  0
  7 49  1  0
  8 50  1  0
 11 51  1  0
 12 52  1  0
 13 53  1  0
 14 54  1  0
 17 55  1  0
 17 56  1  0
 17 57  1  0
 20 58  1  0
 22 59  1  0
 22 60  1  0
 23 61  1  0
 23 62  1  0
 24 63  1  0
 25 64  1  0
 25 65  1  0
 26 66  1  0
 26 67  1  0
 27 68  1  0
 27 69  1  0
 28 70  1  0
 28 71  1  0
 29 72  1  0
 30 73  1  0
 30 74  1  0
 31 75  1  0
 31 76  1  0
 32 77  1  0
 32 78  1  0
 33 79  1  0
 33 80  1  0
M  CHG  2   3   1  16   1
M  END
>  <UniqueID>  (30) 
30

>  <SMILES>  (30) 
CC[NH+](CC)CCNc1c2ccccc2[n+](C)c2scc(CCNCCCCNCCCN)c12

>  <Energy>  (30) 
128.14060645590092

>  <Genealogy>  (30) 
CC[NH+](CC)CCNc1c2ccccc2[n+](C)c2scc(CCNCCCCNCCCN)c12 (protonated)
CC[NH+](CC)CCNc1c2ccccc2[n+](C)c2scc(CCNCCCCNCCCN)c12 (3D coordinates assigned)
CC[NH+](CC)CCNc1c2ccccc2[n+](C)c2scc(CCNCCCCNCCCN)c12 (optimized conformer: 128.14060645590092 kcal/mol)

>  <smiles>  (30) 
CCN(CC)CCNc1c2ccccc2[n+](C)c2scc(CCNCCCCNCCCN)c12

>  <score_type>  (30) 
oracle

>  <origin>  (30) 
adg

>  <m_score__min__energy>  (30) 
-4.04

>  <m_primary>  (30) 
energy

$$$$
30:0
     RDKit          3D

 41 42  0  0  0  0  0  0  0  0999 V2000
   62.5580   33.8050   48.6460 C   0  0  0  0  0  0  0  0  0  0  0  0
   61.2240   33.7810   47.9590 C   0  0  0  0  0  0  0  0  0  0  0  0
   60.0810   33.3690   48.6590 C   0  0  0  0  0  0  0  0  0  0  0  0
   58.8310   33.3710   48.0330 C   0  0  0  0  0  0  0  0  0  0  0  0
   58.7050   33.7950   46.7000 C   0  0  0  0  0  0  0  0  0  0  0  0
   57.3610   33.7810   46.0080 C   0  0  0  0  0  0  0  0  0  0  0  0
   57.1060   32.4940   45.3320 N   0  0  0  0  0  0  0  0  0  0  0  0
   58.3350   31.8750   44.7980 C   0  0  0  0  0  0  0  0  0  0  0  0
   58.4250   30.4070   45.1460 C   0  0  0  0  0  0  0  0  0  0  0  0
   59.4170   29.7540   45.8700 C   0  0  0  0  0  0  0  0  0  0  0  0
   60.6250   30.3640   46.5030 C   0  0  0  0  0  0  0  0  0  0  0  0
   59.1070   28.4480   45.9890 N   0  0  0  0  0  0  0  0  0  0  0  0
   57.9670   28.2440   45.3480 N   0  0  0  0  0  0  0  0  0  0  0  0
   57.3130   26.9420   45.2690 C   0  0  0  0  0  0  0  0  0  0  0  0
   57.5250   29.4040   44.8150 C   0  0  0  0  0  0  0  0  0  0  0  0
   56.2350   29.5610   44.0630 C   0  0  0  0  0  0  0  0  0  0  0  0
   55.5230   30.6470   44.5870 O   0  0  0  0  0  0  0  0  0  0  0  0
   59.8490   34.2230   46.0070 C   0  0  0  0  0  0  0  0  0  0  0  0
   61.0980   34.2210   46.6330 C   0  0  0  0  0  0  0  0  0  0  0  0
   62.4092   33.8023   49.7359 H   0  0  0  0  0  0  0  0  0  0  0  0
   63.1374   32.9171   48.3528 H   0  0  0  0  0  0  0  0  0  0  0  0
   63.1051   34.7131   48.3528 H   0  0  0  0  0  0  0  0  0  0  0  0
   60.1683   33.0426   49.7058 H   0  0  0  0  0  0  0  0  0  0  0  0
   57.9411   33.0386   48.5876 H   0  0  0  0  0  0  0  0  0  0  0  0
   56.5733   33.9523   46.7565 H   0  0  0  0  0  0  0  0  0  0  0  0
   57.3608   34.5737   45.2454 H   0  0  0  0  0  0  0  0  0  0  0  0
   56.6430   31.8470   46.0110 H   0  0  0  0  0  0  0  0  0  0  0  0
   56.4300   32.6360   44.5460 H   0  0  0  0  0  0  0  0  0  0  0  0
   58.3399   31.9817   43.7032 H   0  0  0  0  0  0  0  0  0  0  0  0
   59.1977   32.3857   45.2506 H   0  0  0  0  0  0  0  0  0  0  0  0
   60.5292   30.3156   47.5978 H   0  0  0  0  0  0  0  0  0  0  0  0
   61.5224   29.8110   46.1887 H   0  0  0  0  0  0  0  0  0  0  0  0
   60.7127   31.4145   46.1887 H   0  0  0  0  0  0  0  0  0  0  0  0
   57.1235   26.5647   46.2847 H   0  0  0  0  0  0  0  0  0  0  0  0
   56.3587   27.0431   44.7314 H   0  0  0  0  0  0  0  0  0  0  0  0
   57.9638   26.2368   44.7314 H   0  0  0  0  0  0  0  0  0  0  0  0
   56.4494   29.7410   42.9992 H   0  0  0  0  0  0  0  0  0  0  0  0
   55.6356   28.6442   44.1641 H   0  0  0  0  0  0  0  0  0  0  0  0
   54.5630   30.4380   44.4500 H   0  0  0  0  0  0  0  0  0  0  0  0
   59.7611   34.5621   44.9643 H   0  0  0  0  0  0  0  0  0  0  0  0
   61.9864   34.5659   46.0837 H   0  0  0  0  0  0  0  0  0  0  0  0
  1  2  1  0
  2  3  2  0
  3  4  1  0
  4  5  2  0
  5  6  1  0
  6  7  1  0
  7  8  1  0
  8  9  1  0
  9 10  1  0
 10 11  1  0
 10 12  2  0
 12 13  1  0
 13 14  1  0
 13 15  1  0
 15 16  1  0
 16 17  1  0
  5 18  1  0
 18 19  2  0
 19  2  1  0
 15  9  2  0
  1 20  1  0
  1 21  1  0
  1 22  1  0
  3 23  1  0
  4 24  1  0
  6 25  1  0
  6 26  1  0
  7 27  1  0
  7 28  1  0
  8 29  1  0
  8 30  1  0
 11 31  1  0
 11 32  1  0
 11 33  1  0
 14 34  1  0
 14 35  1  0
 14 36  1  0
 16 37  1  0
 16 38  1  0
 17 39  1  0
 18 40  1  0
 19 41  1  0
M  CHG  1   7   1
M  END
>  <UniqueID>  (31) 
31

>  <SMILES>  (31) 
Cc1ccc(C[NH2+]Cc2c(C)nn(C)c2CO)cc1

>  <Energy>  (31) 
67.19440133301184

>  <Genealogy>  (31) 
Cc1ccc(C[NH2+]Cc2c(C)nn(C)c2CO)cc1 (protonated)
Cc1ccc(C[NH2+]Cc2c(C)nn(C)c2CO)cc1 (3D coordinates assigned)
Cc1ccc(C[NH2+]Cc2c(C)nn(C)c2CO)cc1 (optimized conformer: 67.19440133301184 kcal/mol)

>  <smiles>  (31) 
Cc1ccc(CNCc2c(C)nn(C)c2CO)cc1

>  <score_type>  (31) 
oracle

>  <origin>  (31) 
adg

>  <m_score__min__energy>  (31) 
-5.7999999999999998

>  <m_primary>  (31) 
energy

$$$$
